
     RDKit          3D

 35 37  0  0  1  0  0  0  0  0999 V2000
   37.8060   31.1320   47.8790 C   0  0  0  0  0  0  0  0  0  0  0  0
   36.7960   31.0970   48.8190 C   0  0  0  0  0  0  0  0  0  0  0  0
   36.8340   32.1300   49.7490 C   0  0  0  0  0  0  0  0  0  0  0  0
   37.8320   33.1100   49.7050 C   0  0  0  0  0  0  0  0  0  0  0  0
   38.8040   33.0580   48.7210 C   0  0  0  0  0  0  0  0  0  0  0  0
   38.8020   32.0540   47.7820 C   0  0  0  0  0  0  0  0  0  0  0  0
   34.6670   30.1700   47.9980 C   0  0  0  0  0  0  0  0  0  0  0  0
   35.7760   30.0950   48.8600 C   0  0  0  0  0  0  0  0  0  0  0  0
   35.8150   29.0130   49.7300 C   0  0  0  0  0  0  0  0  0  0  0  0
   34.8090   28.0990   49.7130 N   0  0  0  0  0  0  0  0  0  0  0  0
   33.7570   28.2240   48.8540 C   0  0  0  0  0  0  0  0  0  0  0  0
   33.6810   29.2700   47.9850 N   0  0  0  0  0  0  0  0  0  0  0  0
   37.8460   30.1230   46.8970 O   0  0  0  0  0  0  0  0  0  0  0  0
   39.7740   32.0290   46.8200 O   0  0  0  0  0  0  0  0  0  0  0  0
   41.0430   32.4480   44.9660 N   0  0  0  0  0  0  0  0  0  0  0  0
   39.8700   32.8860   45.7510 C   0  0  1  0  0  0  0  0  0  0  0  0
   38.6590   32.7770   44.8410 C   0  0  0  0  0  0  0  0  0  0  0  0
   39.0950   32.9550   43.5360 O   0  0  0  0  0  0  0  0  0  0  0  0
   39.7680   31.8390   43.0490 C   0  0  0  0  0  0  0  0  0  0  0  0
   40.6420   31.3140   44.1800 C   0  0  0  0  0  0  0  0  0  0  0  0
   36.0651   32.1778   50.5341 H   0  0  0  0  0  0  0  0  0  0  0  0
   37.8440   33.9191   50.4501 H   0  0  0  0  0  0  0  0  0  0  0  0
   39.5876   33.8294   48.6900 H   0  0  0  0  0  0  0  0  0  0  0  0
   34.6090   31.0157   47.2969 H   0  0  0  0  0  0  0  0  0  0  0  0
   36.6559   28.8963   50.4294 H   0  0  0  0  0  0  0  0  0  0  0  0
   32.9576   27.4684   48.8632 H   0  0  0  0  0  0  0  0  0  0  0  0
   38.5609   30.1269   46.2121 H   0  0  0  0  0  0  0  0  0  0  0  0
   41.3565   33.2102   44.3482 H   0  0  0  0  0  0  0  0  0  0  0  0
   39.9467   33.9201   46.1180 H   0  0  0  0  0  0  0  0  0  0  0  0
   38.1968   31.7847   44.9496 H   0  0  0  0  0  0  0  0  0  0  0  0
   37.9095   33.5379   45.1041 H   0  0  0  0  0  0  0  0  0  0  0  0
   39.0464   31.0680   42.7408 H   0  0  0  0  0  0  0  0  0  0  0  0
   40.3783   32.1017   42.1723 H   0  0  0  0  0  0  0  0  0  0  0  0
   40.0715   30.6075   44.8008 H   0  0  0  0  0  0  0  0  0  0  0  0
   41.5197   30.7835   43.7823 H   0  0  0  0  0  0  0  0  0  0  0  0
  1  2  2  0
  2  8  1  0
  2  3  1  0
  4  3  2  0
  5  4  1  0
  6  1  1  0
  6  5  2  0
  7  8  2  0
  8  9  1  0
 10  9  2  0
 11 10  1  0
 12  7  1  0
 12 11  2  0
 13  1  1  0
 14  6  1  0
 15 16  1  0
 16 14  1  0
 17 16  1  0
 18 17  1  0
 19 18  1  0
 19 20  1  0
 20 15  1  0
  3 21  1  0
  4 22  1  0
  5 23  1  0
  7 24  1  0
  9 25  1  0
 11 26  1  0
 13 27  1  0
 15 28  1  0
 16 29  1  1
 17 30  1  0
 17 31  1  0
 19 32  1  0
 19 33  1  0
 20 34  1  0
 20 35  1  0
M  ISO  8  21  14  22  14  23  14  24  14  25  14  26  14  27   3  28   5
M  ISO  7  29  13  30  13  31  13  32  13  33  13  34  13  35  13
M  END
>  <minimizedAffinity>  (1) 
-6.25971889

>  <minimizedRMSD>  (1) 
2.09190011

$$$$
