
     RDKit          3D

 47 49  0  0  1  0  0  0  0  0999 V2000
   27.1670   28.3350   49.6780 C   0  0  0  0  0  0  0  0  0  0  0  0
   28.4970   27.8980   49.5700 C   0  0  0  0  0  0  0  0  0  0  0  0
   29.0790   27.1140   50.5440 C   0  0  0  0  0  0  0  0  0  0  0  0
   28.3460   26.7520   51.6440 C   0  0  0  0  0  0  0  0  0  0  0  0
   27.0540   27.1720   51.7570 C   0  0  0  0  0  0  0  0  0  0  0  0
   26.4230   27.9590   50.8080 C   0  0  0  0  0  0  0  0  0  0  0  0
   26.3670   29.3250   48.4890 S   0  0  0  0  0  0  0  0  0  0  0  0
   26.2630   28.6270   47.1870 O   0  0  0  0  0  0  0  0  0  0  0  0
   24.9790   29.6830   49.0370 O   0  0  0  0  0  0  0  0  0  0  0  0
   27.7370   31.3600   45.6780 O   0  0  0  0  0  0  0  0  0  0  0  0
   27.1330   31.2380   46.7990 C   0  0  0  0  0  0  0  0  0  0  0  0
   27.2400   30.8420   48.2280 C   0  0  1  0  0  0  0  0  0  0  0  0
   26.4100   31.9490   48.8930 C   0  0  0  0  0  0  0  0  0  0  0  0
   25.2430   32.1760   47.9550 C   0  0  0  0  0  0  0  0  0  0  0  0
   25.7580   31.6430   46.6830 N   0  0  0  0  0  0  0  0  0  0  0  0
   29.0940   28.3390   48.4210 O   0  0  0  0  0  0  0  0  0  0  0  0
   30.3260   26.2540   47.3600 O   0  0  0  0  0  0  0  0  0  0  0  0
   30.4980   27.7280   47.6980 P   0  0  1  0  0  0  0  0  0  0  0  0
   30.9000   28.6450   46.3160 O   0  0  0  0  0  0  0  0  0  0  0  0
   31.8130   27.7890   48.7770 O   0  0  0  0  0  0  0  0  0  0  0  0
   32.9580   27.3520   48.0870 C   0  0  0  0  0  0  0  0  0  0  0  0
   34.4920   28.3910   49.6990 C   0  0  0  0  0  0  0  0  0  0  0  0
   34.1670   28.1180   48.4670 C   0  0  0  0  0  0  0  0  0  0  0  0
   37.2690   30.1530   51.3180 C   0  0  0  0  0  0  0  0  0  0  0  0
   38.0190   30.5880   50.2160 C   0  0  0  0  0  0  0  0  0  0  0  0
   37.5610   30.2730   48.9320 C   0  0  0  0  0  0  0  0  0  0  0  0
   36.3950   29.5500   48.8880 N   0  0  0  0  0  0  0  0  0  0  0  0
   35.7100   29.1530   49.9410 C   0  0  0  0  0  0  0  0  0  0  0  0
   36.1570   29.4610   51.1550 N   0  0  0  0  0  0  0  0  0  0  0  0
   30.1225   26.7821   50.4389 H   0  0  0  0  0  0  0  0  0  0  0  0
   28.7966   26.1275   52.4295 H   0  0  0  0  0  0  0  0  0  0  0  0
   26.4833   26.8703   52.6477 H   0  0  0  0  0  0  0  0  0  0  0  0
   25.3778   28.2777   50.9347 H   0  0  0  0  0  0  0  0  0  0  0  0
   28.2738   30.7203   48.5837 H   0  0  0  0  0  0  0  0  0  0  0  0
   26.0544   31.6251   49.8822 H   0  0  0  0  0  0  0  0  0  0  0  0
   26.9959   32.8657   49.0553 H   0  0  0  0  0  0  0  0  0  0  0  0
   24.3513   31.6239   48.2869 H   0  0  0  0  0  0  0  0  0  0  0  0
   24.9220   33.2264   47.8958 H   0  0  0  0  0  0  0  0  0  0  0  0
   25.2031   31.5694   45.8184 H   0  0  0  0  0  0  0  0  0  0  0  0
   31.2812   29.5146   46.5964 H   0  0  0  0  0  0  0  0  0  0  0  0
   32.7878   27.4718   47.0069 H   0  0  0  0  0  0  0  0  0  0  0  0
   33.1294   26.2980   48.3511 H   0  0  0  0  0  0  0  0  0  0  0  0
   33.8622   28.0544   50.5357 H   0  0  0  0  0  0  0  0  0  0  0  0
   34.8279   28.4767   47.6641 H   0  0  0  0  0  0  0  0  0  0  0  0
   37.6130   30.3924   52.3350 H   0  0  0  0  0  0  0  0  0  0  0  0
   38.9457   31.1634   50.3576 H   0  0  0  0  0  0  0  0  0  0  0  0
   38.0970   30.5826   48.0227 H   0  0  0  0  0  0  0  0  0  0  0  0
  1  6  2  0
  2  1  1  0
  2  3  2  0
  3  4  1  0
  4  5  2  0
  6  5  1  0
  7  9  2  0
  7  1  1  0
  8  7  2  0
 10 11  2  0
 11 12  1  0
 12  7  1  0
 12 13  1  0
 14 13  1  0
 15 11  1  0
 15 14  1  0
 16  2  1  0
 18 17  2  0
 18 16  1  0
 18 20  1  0
 19 18  1  0
 21 23  1  0
 21 20  1  0
 22 28  1  0
 23 22  2  0
 25 24  2  0
 26 25  1  0
 27 26  2  0
 27 28  1  0
 28 29  2  0
 29 24  1  0
  3 30  1  0
  4 31  1  0
  5 32  1  0
  6 33  1  0
 12 34  1  1
 13 35  1  0
 13 36  1  0
 14 37  1  0
 14 38  1  0
 15 39  1  0
 19 40  1  0
 21 41  1  0
 21 42  1  0
 22 43  1  0
 23 44  1  0
 24 45  1  0
 25 46  1  0
 26 47  1  0
M  ISO  8  30  14  31  14  32  14  33  14  34  13  35  13  36  13  37  13
M  ISO  8  38  13  39  10  40   3  41   8  42   8  45  14  46  14  47  14
M  END
>  <minimizedAffinity>  (1) 
-6.40356827

>  <minimizedRMSD>  (1) 
2.10067296

$$$$
