
     RDKit          3D

 32 34  0  0  0  0  0  0  0  0999 V2000
   38.6050   31.5200   47.9070 C   0  0  0  0  0  0  0  0  0  0  0  0
   37.8670   31.8770   49.0290 C   0  0  0  0  0  0  0  0  0  0  0  0
   38.0840   33.1690   49.5010 C   0  0  0  0  0  0  0  0  0  0  0  0
   38.9930   34.0230   48.8630 C   0  0  0  0  0  0  0  0  0  0  0  0
   39.6870   33.5780   47.7460 C   0  0  0  0  0  0  0  0  0  0  0  0
   39.4900   32.3040   47.2610 C   0  0  0  0  0  0  0  0  0  0  0  0
   35.6520   30.8190   49.1870 C   0  0  0  0  0  0  0  0  0  0  0  0
   36.9410   30.9950   49.6830 C   0  0  0  0  0  0  0  0  0  0  0  0
   37.2890   30.2740   50.8450 C   0  0  0  0  0  0  0  0  0  0  0  0
   36.3490   29.4570   51.4020 N   0  0  0  0  0  0  0  0  0  0  0  0
   35.1160   29.3240   50.8810 C   0  0  0  0  0  0  0  0  0  0  0  0
   34.7660   30.0020   49.7780 N   0  0  0  0  0  0  0  0  0  0  0  0
   38.4350   30.2390   47.3790 O   0  0  0  0  0  0  0  0  0  0  0  0
   40.2000   31.9020   46.1540 O   0  0  0  0  0  0  0  0  0  0  0  0
   39.3960   33.4040   42.8810 N   0  0  0  0  0  0  0  0  0  0  0  0
   39.8150   33.3490   44.1560 C   0  0  0  0  0  0  0  0  0  0  0  0
   39.8140   32.1620   44.8540 C   0  0  0  0  0  0  0  0  0  0  0  0
   39.3610   31.0200   44.1850 C   0  0  0  0  0  0  0  0  0  0  0  0
   39.2520   29.8140   44.5760 O   0  0  0  0  0  0  0  0  0  0  0  0
   38.9430   31.1120   42.8940 N   0  0  0  0  0  0  0  0  0  0  0  0
   38.9630   32.3030   42.2460 C   0  0  0  0  0  0  0  0  0  0  0  0
   38.5870   32.4530   41.0460 O   0  0  0  0  0  0  0  0  0  0  0  0
   37.5349   33.5234   50.3858 H   0  0  0  0  0  0  0  0  0  0  0  0
   39.1561   35.0414   49.2453 H   0  0  0  0  0  0  0  0  0  0  0  0
   40.4002   34.2485   47.2441 H   0  0  0  0  0  0  0  0  0  0  0  0
   35.3501   31.3668   48.2821 H   0  0  0  0  0  0  0  0  0  0  0  0
   38.2908   30.3681   51.2896 H   0  0  0  0  0  0  0  0  0  0  0  0
   34.3891   28.6539   51.3633 H   0  0  0  0  0  0  0  0  0  0  0  0
   38.9492   29.9606   46.5801 H   0  0  0  0  0  0  0  0  0  0  0  0
   39.4070   34.3052   42.3824 H   0  0  0  0  0  0  0  0  0  0  0  0
   40.1647   34.2672   44.6506 H   0  0  0  0  0  0  0  0  0  0  0  0
   38.6084   30.2699   42.4044 H   0  0  0  0  0  0  0  0  0  0  0  0
  1  2  2  0
  2  3  1  0
  2  8  1  0
  4  3  2  0
  5  4  1  0
  6  5  2  0
  6  1  1  0
  7  8  2  0
  7 12  1  0
  8  9  1  0
  9 10  2  0
 11 10  1  0
 12 11  2  0
 13  1  1  0
 14  6  1  0
 15 16  1  0
 16 17  2  0
 17 14  1  0
 18 19  2  0
 18 17  1  0
 20 18  1  0
 21 15  1  0
 21 20  1  0
 22 21  2  0
  3 23  1  0
  4 24  1  0
  5 25  1  0
  7 26  1  0
  9 27  1  0
 11 28  1  0
 13 29  1  0
 15 30  1  0
 16 31  1  0
 20 32  1  0
M  ISO  8  23  14  24  14  25  14  26  14  27  14  28  14  29   3  30   9
M  ISO  2  31  14  32   9
M  END
>  <minimizedAffinity>  (1) 
-6.18981647

>  <minimizedRMSD>  (1) 
2.58192015

$$$$
