
     RDKit          3D

 36 39  0  0  0  0  0  0  0  0999 V2000
   38.9980   31.7440   47.6120 C   0  0  0  0  0  0  0  0  0  0  0  0
   38.1620   32.0690   48.6500 C   0  0  0  0  0  0  0  0  0  0  0  0
   38.3160   33.3730   49.1420 C   0  0  0  0  0  0  0  0  0  0  0  0
   39.2560   34.2540   48.5970 C   0  0  0  0  0  0  0  0  0  0  0  0
   40.0580   33.8150   47.5380 C   0  0  0  0  0  0  0  0  0  0  0  0
   39.9280   32.5410   47.0360 C   0  0  0  0  0  0  0  0  0  0  0  0
   36.0290   30.8560   48.5190 C   0  0  0  0  0  0  0  0  0  0  0  0
   37.1930   31.1730   49.2160 C   0  0  0  0  0  0  0  0  0  0  0  0
   37.3680   30.5860   50.4700 C   0  0  0  0  0  0  0  0  0  0  0  0
   36.3980   29.7460   50.9360 N   0  0  0  0  0  0  0  0  0  0  0  0
   35.2820   29.4680   50.2180 C   0  0  0  0  0  0  0  0  0  0  0  0
   35.1000   30.0230   49.0110 N   0  0  0  0  0  0  0  0  0  0  0  0
   38.9080   30.4530   47.0580 O   0  0  0  0  0  0  0  0  0  0  0  0
   40.7410   32.1580   45.9920 O   0  0  0  0  0  0  0  0  0  0  0  0
   40.5330   31.0280   44.0270 C   0  0  0  0  0  0  0  0  0  0  0  0
   40.2880   32.2360   44.6890 C   0  0  0  0  0  0  0  0  0  0  0  0
   39.6740   33.2630   44.0060 C   0  0  0  0  0  0  0  0  0  0  0  0
   39.3180   33.0700   42.6900 C   0  0  0  0  0  0  0  0  0  0  0  0
   38.7160   33.9430   41.8630 N   0  0  0  0  0  0  0  0  0  0  0  0
   38.5760   33.3100   40.6880 C   0  0  0  0  0  0  0  0  0  0  0  0
   39.0780   32.0270   40.7260 C   0  0  0  0  0  0  0  0  0  0  0  0
   39.5570   31.8820   42.0270 C   0  0  0  0  0  0  0  0  0  0  0  0
   40.1700   30.8410   42.6900 C   0  0  0  0  0  0  0  0  0  0  0  0
   37.6830   33.7110   49.9758 H   0  0  0  0  0  0  0  0  0  0  0  0
   39.3628   35.2742   48.9942 H   0  0  0  0  0  0  0  0  0  0  0  0
   40.8020   34.4974   47.1013 H   0  0  0  0  0  0  0  0  0  0  0  0
   35.8658   31.3056   47.5284 H   0  0  0  0  0  0  0  0  0  0  0  0
   38.2666   30.7953   51.0689 H   0  0  0  0  0  0  0  0  0  0  0  0
   34.5232   28.7847   50.6271 H   0  0  0  0  0  0  0  0  0  0  0  0
   39.5002   30.1937   46.3082 H   0  0  0  0  0  0  0  0  0  0  0  0
   41.0224   30.2067   44.5710 H   0  0  0  0  0  0  0  0  0  0  0  0
   39.4713   34.2224   44.5044 H   0  0  0  0  0  0  0  0  0  0  0  0
   38.4215   34.9044   42.0865 H   0  0  0  0  0  0  0  0  0  0  0  0
   38.1143   33.7625   39.7980 H   0  0  0  0  0  0  0  0  0  0  0  0
   39.0965   31.2855   39.9137 H   0  0  0  0  0  0  0  0  0  0  0  0
   40.3687   29.8868   42.1800 H   0  0  0  0  0  0  0  0  0  0  0  0
  1  2  2  0
  2  3  1  0
  2  8  1  0
  4  3  2  0
  5  4  1  0
  6  5  2  0
  6  1  1  0
  7 12  2  0
  7  8  1  0
  8  9  2  0
  9 10  1  0
 11 10  2  0
 12 11  1  0
 13  1  1  0
 14  6  1  0
 15 16  2  0
 16 14  1  0
 17 16  1  0
 18 17  2  0
 19 18  1  0
 20 21  2  0
 20 19  1  0
 21 22  1  0
 22 23  2  0
 22 18  1  0
 23 15  1  0
  3 24  1  0
  4 25  1  0
  5 26  1  0
  7 27  1  0
  9 28  1  0
 11 29  1  0
 13 30  1  0
 15 31  1  0
 17 32  1  0
 19 33  1  0
 20 34  1  0
 21 35  1  0
 23 36  1  0
M  ISO  8  24  14  25  14  26  14  27  14  28  14  29  14  30   3  31  14
M  ISO  5  32  14  33   9  34  14  35  14  36  14
M  END
>  <minimizedAffinity>  (1) 
-6.16389894

>  <minimizedRMSD>  (1) 
2.98407459

$$$$
