
     RDKit          3D

 29 31  0  0  0  0  0  0  0  0999 V2000
   38.5310   31.6820   47.8520 C   0  0  0  0  0  0  0  0  0  0  0  0
   38.0300   31.9460   49.1120 C   0  0  0  0  0  0  0  0  0  0  0  0
   38.4140   33.1550   49.6640 C   0  0  0  0  0  0  0  0  0  0  0  0
   39.2570   34.0370   48.9700 C   0  0  0  0  0  0  0  0  0  0  0  0
   39.7180   33.6980   47.7080 C   0  0  0  0  0  0  0  0  0  0  0  0
   39.3490   32.4930   47.1340 C   0  0  0  0  0  0  0  0  0  0  0  0
   35.8470   30.8390   49.3810 C   0  0  0  0  0  0  0  0  0  0  0  0
   37.1680   31.0410   49.8180 C   0  0  0  0  0  0  0  0  0  0  0  0
   37.5930   30.3280   50.9530 C   0  0  0  0  0  0  0  0  0  0  0  0
   36.6990   29.4950   51.5510 N   0  0  0  0  0  0  0  0  0  0  0  0
   35.4410   29.3300   51.1000 C   0  0  0  0  0  0  0  0  0  0  0  0
   35.0060   30.0020   50.0110 N   0  0  0  0  0  0  0  0  0  0  0  0
   38.1940   30.4810   47.2200 O   0  0  0  0  0  0  0  0  0  0  0  0
   39.8340   32.1930   45.8690 O   0  0  0  0  0  0  0  0  0  0  0  0
   39.1310   32.2250   44.7470 C   0  0  0  0  0  0  0  0  0  0  0  0
   37.9270   32.5670   44.2550 C   0  0  0  0  0  0  0  0  0  0  0  0
   37.5580   32.4410   42.9620 C   0  0  0  0  0  0  0  0  0  0  0  0
   38.6520   31.8630   42.0940 C   0  0  0  0  0  0  0  0  0  0  0  0
   40.0150   31.5940   43.2370 S   0  0  0  0  0  0  0  0  0  0  0  0
   38.0519   33.4303   50.6656 H   0  0  0  0  0  0  0  0  0  0  0  0
   39.5506   34.9939   49.4263 H   0  0  0  0  0  0  0  0  0  0  0  0
   40.3782   34.3873   47.1612 H   0  0  0  0  0  0  0  0  0  0  0  0
   35.4905   31.3840   48.4945 H   0  0  0  0  0  0  0  0  0  0  0  0
   38.6148   30.4401   51.3445 H   0  0  0  0  0  0  0  0  0  0  0  0
   34.7608   28.6416   51.6229 H   0  0  0  0  0  0  0  0  0  0  0  0
   38.5470   30.2808   46.3170 H   0  0  0  0  0  0  0  0  0  0  0  0
   37.1882   32.9799   44.9576 H   0  0  0  0  0  0  0  0  0  0  0  0
   36.5669   32.7284   42.5812 H   0  0  0  0  0  0  0  0  0  0  0  0
   38.6218   31.6551   41.0142 H   0  0  0  0  0  0  0  0  0  0  0  0
  1  2  2  0
  2  3  1  0
  2  8  1  0
  4  3  2  0
  5  4  1  0
  6  5  2  0
  6  1  1  0
  7  8  2  0
  7 12  1  0
  8  9  1  0
  9 10  2  0
 11 10  1  0
 12 11  2  0
 13  1  1  0
 14  6  1  0
 15 14  1  0
 16 15  2  0
 17 16  1  0
 18 17  2  0
 18 19  1  0
 19 15  1  0
  3 20  1  0
  4 21  1  0
  5 22  1  0
  7 23  1  0
  9 24  1  0
 11 25  1  0
 13 26  1  0
 16 27  1  0
 17 28  1  0
 18 29  1  0
M  ISO  8  20  14  21  14  22  14  23  14  24  14  25  14  26   3  27  14
M  ISO  2  28  14  29  14
M  END
>  <minimizedAffinity>  (1) 
-5.92980909

>  <minimizedRMSD>  (1) 
0.550142884

$$$$
