
     RDKit          3D

 29 31  0  0  0  0  0  0  0  0999 V2000
   38.9440   31.9700   47.7640 C   0  0  0  0  0  0  0  0  0  0  0  0
   38.3910   32.1790   49.0180 C   0  0  0  0  0  0  0  0  0  0  0  0
   38.6930   33.4100   49.5950 C   0  0  0  0  0  0  0  0  0  0  0  0
   39.4980   34.3460   48.9340 C   0  0  0  0  0  0  0  0  0  0  0  0
   40.0080   34.0380   47.6710 C   0  0  0  0  0  0  0  0  0  0  0  0
   39.7270   32.8340   47.0800 C   0  0  0  0  0  0  0  0  0  0  0  0
   36.2330   31.0570   49.3270 C   0  0  0  0  0  0  0  0  0  0  0  0
   37.5670   31.2220   49.6960 C   0  0  0  0  0  0  0  0  0  0  0  0
   38.0440   30.4250   50.7380 C   0  0  0  0  0  0  0  0  0  0  0  0
   37.1660   29.5460   51.3130 N   0  0  0  0  0  0  0  0  0  0  0  0
   35.8850   29.4170   50.9270 C   0  0  0  0  0  0  0  0  0  0  0  0
   35.4070   30.1820   49.9190 N   0  0  0  0  0  0  0  0  0  0  0  0
   38.6870   30.7550   47.1170 O   0  0  0  0  0  0  0  0  0  0  0  0
   40.2460   32.5670   45.8370 O   0  0  0  0  0  0  0  0  0  0  0  0
   39.8480   33.0660   44.6070 C   0  0  0  0  0  0  0  0  0  0  0  0
   38.5420   32.6830   43.9920 C   0  0  0  0  0  0  0  0  0  0  0  0
   39.8140   32.1670   43.4030 C   0  0  0  0  0  0  0  0  0  0  0  0
   38.2911   33.6519   50.5900 H   0  0  0  0  0  0  0  0  0  0  0  0
   39.7262   35.3137   49.4047 H   0  0  0  0  0  0  0  0  0  0  0  0
   40.6410   34.7684   47.1458 H   0  0  0  0  0  0  0  0  0  0  0  0
   35.8376   31.6762   48.5083 H   0  0  0  0  0  0  0  0  0  0  0  0
   39.0855   30.5003   51.0839 H   0  0  0  0  0  0  0  0  0  0  0  0
   35.2276   28.6919   51.4290 H   0  0  0  0  0  0  0  0  0  0  0  0
   39.0700   30.5807   46.2209 H   0  0  0  0  0  0  0  0  0  0  0  0
   40.3280   34.0221   44.8630 H   0  0  0  0  0  0  0  0  0  0  0  0
   37.8653   31.9974   44.5231 H   0  0  0  0  0  0  0  0  0  0  0  0
   37.6761   33.2382   43.6020 H   0  0  0  0  0  0  0  0  0  0  0  0
   40.0751   31.1031   43.5027 H   0  0  0  0  0  0  0  0  0  0  0  0
   40.2736   32.1853   42.4038 H   0  0  0  0  0  0  0  0  0  0  0  0
  1  2  2  0
  2  3  1  0
  2  8  1  0
  4  3  2  0
  5  4  1  0
  6  5  2  0
  6  1  1  0
  7  8  2  0
  7 12  1  0
  8  9  1  0
  9 10  2  0
 11 10  1  0
 12 11  2  0
 13  1  1  0
 14  6  1  0
 15 14  1  0
 16 15  1  0
 17 16  1  0
 17 15  1  0
  3 18  1  0
  4 19  1  0
  5 20  1  0
  7 21  1  0
  9 22  1  0
 11 23  1  0
 13 24  1  0
 15 25  1  0
 16 26  1  0
 16 27  1  0
 17 28  1  0
 17 29  1  0
M  ISO  8  18  14  19  14  20  14  21  14  22  14  23  14  24   3  25  13
M  ISO  4  26  13  27  13  28  13  29  13
M  END
>  <minimizedAffinity>  (1) 
-5.72240686

>  <minimizedRMSD>  (1) 
0.879474163

$$$$
