
     RDKit          3D

 42 45  0  0  0  0  0  0  0  0999 V2000
   38.3370   32.2270   47.4260 C   0  0  0  0  0  0  0  0  0  0  0  0
   38.1620   32.1080   48.7880 C   0  0  0  0  0  0  0  0  0  0  0  0
   38.8570   33.0360   49.5490 C   0  0  0  0  0  0  0  0  0  0  0  0
   39.6660   34.0040   48.9480 C   0  0  0  0  0  0  0  0  0  0  0  0
   39.7910   34.0600   47.5840 C   0  0  0  0  0  0  0  0  0  0  0  0
   39.1130   33.1540   46.8040 C   0  0  0  0  0  0  0  0  0  0  0  0
   35.9420   31.2150   49.3330 C   0  0  0  0  0  0  0  0  0  0  0  0
   37.3330   31.1130   49.3860 C   0  0  0  0  0  0  0  0  0  0  0  0
   37.8680   29.9930   50.0500 C   0  0  0  0  0  0  0  0  0  0  0  0
   37.0040   29.0850   50.5970 N   0  0  0  0  0  0  0  0  0  0  0  0
   35.6650   29.2400   50.5120 C   0  0  0  0  0  0  0  0  0  0  0  0
   35.1270   30.3030   49.8820 N   0  0  0  0  0  0  0  0  0  0  0  0
   37.6730   31.3320   46.5660 O   0  0  0  0  0  0  0  0  0  0  0  0
   39.2590   33.2340   45.4140 O   0  0  0  0  0  0  0  0  0  0  0  0
   36.9940   32.5160   43.5300 Cl  0  0  0  0  0  0  0  0  0  0  0  0
   38.4970   31.6540   43.6440 C   0  0  0  0  0  0  0  0  0  0  0  0
   39.4070   32.1490   44.5770 C   0  0  0  0  0  0  0  0  0  0  0  0
   40.6090   31.4830   44.6890 C   0  0  0  0  0  0  0  0  0  0  0  0
   40.9490   30.3760   43.9400 C   0  0  0  0  0  0  0  0  0  0  0  0
   40.0300   29.8910   43.0120 C   0  0  0  0  0  0  0  0  0  0  0  0
   38.8210   30.5520   42.8930 C   0  0  0  0  0  0  0  0  0  0  0  0
   37.8430   30.0610   41.9240 C   0  0  0  0  0  0  0  0  0  0  0  0
   37.0040   29.0810   42.4320 C   0  0  0  0  0  0  0  0  0  0  0  0
   36.0290   28.5160   41.6440 C   0  0  0  0  0  0  0  0  0  0  0  0
   35.8770   28.9250   40.3310 C   0  0  0  0  0  0  0  0  0  0  0  0
   36.7090   29.8990   39.8220 C   0  0  0  0  0  0  0  0  0  0  0  0
   37.6890   30.4670   40.6120 C   0  0  0  0  0  0  0  0  0  0  0  0
   38.7699   33.0096   50.6452 H   0  0  0  0  0  0  0  0  0  0  0  0
   40.2074   34.7276   49.5751 H   0  0  0  0  0  0  0  0  0  0  0  0
   40.4294   34.8246   47.1171 H   0  0  0  0  0  0  0  0  0  0  0  0
   35.4960   32.0795   48.8195 H   0  0  0  0  0  0  0  0  0  0  0  0
   38.9561   29.8514   50.1271 H   0  0  0  0  0  0  0  0  0  0  0  0
   35.0031   28.4867   50.9641 H   0  0  0  0  0  0  0  0  0  0  0  0
   37.7910   31.4077   45.5860 H   0  0  0  0  0  0  0  0  0  0  0  0
   41.3410   31.8572   45.4199 H   0  0  0  0  0  0  0  0  0  0  0  0
   41.9251   29.8864   44.0725 H   0  0  0  0  0  0  0  0  0  0  0  0
   40.2587   29.0104   42.3937 H   0  0  0  0  0  0  0  0  0  0  0  0
   37.1194   28.7523   43.4754 H   0  0  0  0  0  0  0  0  0  0  0  0
   35.3697   27.7387   42.0576 H   0  0  0  0  0  0  0  0  0  0  0  0
   35.0976   28.4760   39.6977 H   0  0  0  0  0  0  0  0  0  0  0  0
   36.5914   30.2264   38.7784 H   0  0  0  0  0  0  0  0  0  0  0  0
   38.3479   31.2436   40.1964 H   0  0  0  0  0  0  0  0  0  0  0  0
  1  2  2  0
  2  8  1  0
  2  3  1  0
  4  3  2  0
  5  4  1  0
  6  1  1  0
  6  5  2  0
  7  8  2  0
  7 12  1  0
  8  9  1  0
  9 10  2  0
 11 10  1  0
 12 11  2  0
 13  1  1  0
 14  6  1  0
 15 16  1  0
 16 17  2  0
 17 18  1  0
 17 14  1  0
 19 18  2  0
 20 19  1  0
 21 20  2  0
 21 16  1  0
 22 23  2  0
 22 21  1  0
 24 23  1  0
 25 24  2  0
 26 25  1  0
 26 27  2  0
 27 22  1  0
  3 28  1  0
  4 29  1  0
  5 30  1  0
  7 31  1  0
  9 32  1  0
 11 33  1  0
 13 34  1  0
 18 35  1  0
 19 36  1  0
 20 37  1  0
 23 38  1  0
 24 39  1  0
 25 40  1  0
 26 41  1  0
 27 42  1  0
M  ISO  8  28  14  29  14  30  14  31  14  32  14  33  14  34   3  35  14
M  ISO  7  36  14  37  14  38  14  39  14  40  14  41  14  42  14
M  END
>  <minimizedAffinity>  (1) 
-5.46965218

>  <minimizedRMSD>  (1) 
0.677796245

$$$$
