
     RDKit          3D

 46 49  0  0  0  0  0  0  0  0999 V2000
   38.3350   32.2260   47.4030 C   0  0  0  0  0  0  0  0  0  0  0  0
   38.1560   32.0980   48.7740 C   0  0  0  0  0  0  0  0  0  0  0  0
   38.8630   33.0300   49.5380 C   0  0  0  0  0  0  0  0  0  0  0  0
   39.6770   33.9990   48.9390 C   0  0  0  0  0  0  0  0  0  0  0  0
   39.7960   34.0530   47.5710 C   0  0  0  0  0  0  0  0  0  0  0  0
   39.1190   33.1580   46.7840 C   0  0  0  0  0  0  0  0  0  0  0  0
   35.9350   31.2060   49.3120 C   0  0  0  0  0  0  0  0  0  0  0  0
   37.3250   31.1060   49.3690 C   0  0  0  0  0  0  0  0  0  0  0  0
   37.8580   29.9890   50.0350 C   0  0  0  0  0  0  0  0  0  0  0  0
   37.0070   29.0810   50.5790 N   0  0  0  0  0  0  0  0  0  0  0  0
   35.6620   29.2280   50.4940 C   0  0  0  0  0  0  0  0  0  0  0  0
   35.1200   30.2960   49.8570 N   0  0  0  0  0  0  0  0  0  0  0  0
   37.6630   31.3310   46.5430 O   0  0  0  0  0  0  0  0  0  0  0  0
   39.2560   33.2320   45.4010 O   0  0  0  0  0  0  0  0  0  0  0  0
   36.9900   32.5510   43.5050 Cl  0  0  0  0  0  0  0  0  0  0  0  0
   38.5000   31.6750   43.6220 C   0  0  0  0  0  0  0  0  0  0  0  0
   39.4040   32.1580   44.5620 C   0  0  0  0  0  0  0  0  0  0  0  0
   40.5970   31.4760   44.6630 C   0  0  0  0  0  0  0  0  0  0  0  0
   40.9400   30.3830   43.9200 C   0  0  0  0  0  0  0  0  0  0  0  0
   40.0280   29.9080   42.9850 C   0  0  0  0  0  0  0  0  0  0  0  0
   38.8120   30.5690   42.8500 C   0  0  0  0  0  0  0  0  0  0  0  0
   37.8390   30.1190   41.9010 N   0  0  0  0  0  0  0  0  0  0  0  0
   36.8560   29.0540   42.1010 C   0  0  0  0  0  0  0  0  0  0  0  0
   35.5030   29.7650   41.9690 C   0  0  0  0  0  0  0  0  0  0  0  0
   35.3650   30.0500   40.5470 N   0  0  0  0  0  0  0  0  0  0  0  0
   36.3610   30.9870   40.1110 C   0  0  0  0  0  0  0  0  0  0  0  0
   37.7410   30.7150   40.5890 C   0  0  0  0  0  0  0  0  0  0  0  0
   38.7782   33.0018   50.6344 H   0  0  0  0  0  0  0  0  0  0  0  0
   40.2231   34.7195   49.5656 H   0  0  0  0  0  0  0  0  0  0  0  0
   40.4366   34.8169   47.1061 H   0  0  0  0  0  0  0  0  0  0  0  0
   35.4900   32.0701   48.7969 H   0  0  0  0  0  0  0  0  0  0  0  0
   38.9466   29.8524   50.1144 H   0  0  0  0  0  0  0  0  0  0  0  0
   35.0027   28.4727   50.9467 H   0  0  0  0  0  0  0  0  0  0  0  0
   37.7779   31.4062   45.5626 H   0  0  0  0  0  0  0  0  0  0  0  0
   41.3293   31.8400   45.3987 H   0  0  0  0  0  0  0  0  0  0  0  0
   41.9139   29.8907   44.0580 H   0  0  0  0  0  0  0  0  0  0  0  0
   40.2626   29.0295   42.3660 H   0  0  0  0  0  0  0  0  0  0  0  0
   36.9638   28.2737   41.3332 H   0  0  0  0  0  0  0  0  0  0  0  0
   36.9739   28.5467   43.0699 H   0  0  0  0  0  0  0  0  0  0  0  0
   34.6876   29.1119   42.3135 H   0  0  0  0  0  0  0  0  0  0  0  0
   35.4543   30.6781   42.5804 H   0  0  0  0  0  0  0  0  0  0  0  0
   35.4715   29.1739   40.0160 H   0  0  0  0  0  0  0  0  0  0  0  0
   36.3750   30.9809   39.0111 H   0  0  0  0  0  0  0  0  0  0  0  0
   36.0753   31.9575   40.5428 H   0  0  0  0  0  0  0  0  0  0  0  0
   38.2202   30.0335   39.8707 H   0  0  0  0  0  0  0  0  0  0  0  0
   38.2326   31.6960   40.6657 H   0  0  0  0  0  0  0  0  0  0  0  0
  1  2  2  0
  2  8  1  0
  2  3  1  0
  4  3  2  0
  5  4  1  0
  6  1  1  0
  6  5  2  0
  7  8  2  0
  7 12  1  0
  8  9  1  0
  9 10  2  0
 11 10  1  0
 12 11  2  0
 13  1  1  0
 14  6  1  0
 15 16  1  0
 16 17  2  0
 17 18  1  0
 17 14  1  0
 19 18  2  0
 20 19  1  0
 21 20  2  0
 21 16  1  0
 22 23  1  0
 22 21  1  0
 24 23  1  0
 25 24  1  0
 26 25  1  0
 26 27  1  0
 27 22  1  0
  3 28  1  0
  4 29  1  0
  5 30  1  0
  7 31  1  0
  9 32  1  0
 11 33  1  0
 13 34  1  0
 18 35  1  0
 19 36  1  0
 20 37  1  0
 23 38  1  0
 23 39  1  0
 24 40  1  0
 24 41  1  0
 25 42  1  0
 26 43  1  0
 26 44  1  0
 27 45  1  0
 27 46  1  0
M  ISO  8  28  14  29  14  30  14  31  14  32  14  33  14  34   3  35  14
M  ISO  8  36  14  37  14  38  13  39  13  40  13  41  13  42   5  43  13
M  ISO  3  44  13  45  13  46  13
M  END
>  <minimizedAffinity>  (1) 
-5.45293713

>  <minimizedRMSD>  (1) 
0.241767764

$$$$
