
     RDKit          3D

 33 35  0  0  0  0  0  0  0  0999 V2000
   38.3270   32.2290   47.3940 C   0  0  0  0  0  0  0  0  0  0  0  0
   38.1640   32.0990   48.7710 C   0  0  0  0  0  0  0  0  0  0  0  0
   38.8750   33.0170   49.5360 C   0  0  0  0  0  0  0  0  0  0  0  0
   39.6810   33.9800   48.9260 C   0  0  0  0  0  0  0  0  0  0  0  0
   39.7930   34.0450   47.5520 C   0  0  0  0  0  0  0  0  0  0  0  0
   39.1020   33.1530   46.7870 C   0  0  0  0  0  0  0  0  0  0  0  0
   35.9370   31.2020   49.3150 C   0  0  0  0  0  0  0  0  0  0  0  0
   37.3350   31.1060   49.3670 C   0  0  0  0  0  0  0  0  0  0  0  0
   37.8580   29.9850   50.0330 C   0  0  0  0  0  0  0  0  0  0  0  0
   36.9980   29.0880   50.5720 N   0  0  0  0  0  0  0  0  0  0  0  0
   35.6670   29.2270   50.4940 C   0  0  0  0  0  0  0  0  0  0  0  0
   35.1260   30.2940   49.8600 N   0  0  0  0  0  0  0  0  0  0  0  0
   37.6440   31.3400   46.5440 O   0  0  0  0  0  0  0  0  0  0  0  0
   39.2220   33.2270   45.3890 O   0  0  0  0  0  0  0  0  0  0  0  0
   36.9760   32.5480   43.4840 Cl  0  0  0  0  0  0  0  0  0  0  0  0
   38.4850   31.6700   43.5980 C   0  0  0  0  0  0  0  0  0  0  0  0
   39.3870   32.1580   44.5510 C   0  0  0  0  0  0  0  0  0  0  0  0
   40.5850   31.4910   44.6680 C   0  0  0  0  0  0  0  0  0  0  0  0
   40.9250   30.3930   43.9070 C   0  0  0  0  0  0  0  0  0  0  0  0
   40.0210   29.9240   42.9680 C   0  0  0  0  0  0  0  0  0  0  0  0
   38.8210   30.5750   42.8370 C   0  0  0  0  0  0  0  0  0  0  0  0
   37.6210   30.0050   41.6380 S   0  0  0  0  0  0  0  0  0  0  0  0
   38.8017   32.9841   50.6331 H   0  0  0  0  0  0  0  0  0  0  0  0
   40.2348   34.6973   49.5495 H   0  0  0  0  0  0  0  0  0  0  0  0
   40.4314   34.8065   47.0804 H   0  0  0  0  0  0  0  0  0  0  0  0
   35.4888   32.0653   48.8014 H   0  0  0  0  0  0  0  0  0  0  0  0
   38.9451   29.8385   50.1152 H   0  0  0  0  0  0  0  0  0  0  0  0
   35.0106   28.4698   50.9477 H   0  0  0  0  0  0  0  0  0  0  0  0
   37.7469   31.4162   45.5623 H   0  0  0  0  0  0  0  0  0  0  0  0
   41.3115   31.8541   45.4098 H   0  0  0  0  0  0  0  0  0  0  0  0
   41.8977   29.8977   44.0431 H   0  0  0  0  0  0  0  0  0  0  0  0
   40.2597   29.0510   42.3428 H   0  0  0  0  0  0  0  0  0  0  0  0
   36.5331   29.4882   42.2909 H   0  0  0  0  0  0  0  0  0  0  0  0
  1  2  2  0
  2  8  1  0
  2  3  1  0
  4  3  2  0
  5  4  1  0
  6  1  1  0
  6  5  2  0
  7  8  2  0
  7 12  1  0
  8  9  1  0
  9 10  2  0
 11 10  1  0
 12 11  2  0
 13  1  1  0
 14  6  1  0
 15 16  1  0
 16 17  2  0
 17 18  1  0
 17 14  1  0
 19 18  2  0
 20 19  1  0
 21 20  2  0
 21 16  1  0
 22 21  1  0
  3 23  1  0
  4 24  1  0
  5 25  1  0
  7 26  1  0
  9 27  1  0
 11 28  1  0
 13 29  1  0
 18 30  1  0
 19 31  1  0
 20 32  1  0
 22 33  1  0
M  ISO  8  23  14  24  14  25  14  26  14  27  14  28  14  29   3  30  14
M  ISO  3  31  14  32  14  33  11
M  END
>  <minimizedAffinity>  (1) 
-5.38603973

>  <minimizedRMSD>  (1) 
0.0113965068

$$$$
