
     RDKit          3D

 34 36  0  0  0  0  0  0  0  0999 V2000
   38.3300   32.2300   47.4070 C   0  0  0  0  0  0  0  0  0  0  0  0
   38.1530   32.1030   48.7770 C   0  0  0  0  0  0  0  0  0  0  0  0
   38.8550   33.0240   49.5420 C   0  0  0  0  0  0  0  0  0  0  0  0
   39.6670   33.9900   48.9510 C   0  0  0  0  0  0  0  0  0  0  0  0
   39.7960   34.0570   47.5700 C   0  0  0  0  0  0  0  0  0  0  0  0
   39.1100   33.1540   46.7930 C   0  0  0  0  0  0  0  0  0  0  0  0
   35.9330   31.2180   49.3180 C   0  0  0  0  0  0  0  0  0  0  0  0
   37.3180   31.1090   49.3720 C   0  0  0  0  0  0  0  0  0  0  0  0
   37.8640   29.9830   50.0350 C   0  0  0  0  0  0  0  0  0  0  0  0
   37.0010   29.0750   50.5790 N   0  0  0  0  0  0  0  0  0  0  0  0
   35.6630   29.2320   50.4980 C   0  0  0  0  0  0  0  0  0  0  0  0
   35.1320   30.2950   49.8720 N   0  0  0  0  0  0  0  0  0  0  0  0
   37.6590   31.3420   46.5460 O   0  0  0  0  0  0  0  0  0  0  0  0
   39.2450   33.2290   45.4130 O   0  0  0  0  0  0  0  0  0  0  0  0
   37.0010   32.5360   43.4970 Cl  0  0  0  0  0  0  0  0  0  0  0  0
   38.5140   31.6640   43.6250 C   0  0  0  0  0  0  0  0  0  0  0  0
   39.4150   32.1530   44.5770 C   0  0  0  0  0  0  0  0  0  0  0  0
   40.6070   31.4770   44.6880 C   0  0  0  0  0  0  0  0  0  0  0  0
   40.9450   30.3790   43.9310 C   0  0  0  0  0  0  0  0  0  0  0  0
   40.0320   29.9090   42.9870 C   0  0  0  0  0  0  0  0  0  0  0  0
   38.8350   30.5700   42.8610 C   0  0  0  0  0  0  0  0  0  0  0  0
   37.8620   30.0970   41.8810 C   0  0  0  0  0  0  0  0  0  0  0  0
   36.9270   29.3010   42.2200 O   0  0  0  0  0  0  0  0  0  0  0  0
   38.7686   32.9907   50.6381 H   0  0  0  0  0  0  0  0  0  0  0  0
   40.2109   34.7062   49.5844 H   0  0  0  0  0  0  0  0  0  0  0  0
   40.4370   34.8206   47.1051 H   0  0  0  0  0  0  0  0  0  0  0  0
   35.4826   32.0825   48.8084 H   0  0  0  0  0  0  0  0  0  0  0  0
   38.9526   29.8437   50.1097 H   0  0  0  0  0  0  0  0  0  0  0  0
   34.9993   28.4803   50.9502 H   0  0  0  0  0  0  0  0  0  0  0  0
   37.7752   31.4200   45.5659 H   0  0  0  0  0  0  0  0  0  0  0  0
   41.3364   31.8367   45.4287 H   0  0  0  0  0  0  0  0  0  0  0  0
   41.9165   29.8814   44.0676 H   0  0  0  0  0  0  0  0  0  0  0  0
   40.2641   29.0343   42.3617 H   0  0  0  0  0  0  0  0  0  0  0  0
   37.9372   30.4323   40.8361 H   0  0  0  0  0  0  0  0  0  0  0  0
  1  2  2  0
  2  8  1  0
  2  3  1  0
  4  3  2  0
  5  4  1  0
  6  1  1  0
  6  5  2  0
  7  8  2  0
  7 12  1  0
  8  9  1  0
  9 10  2  0
 11 10  1  0
 12 11  2  0
 13  1  1  0
 14  6  1  0
 15 16  1  0
 16 17  2  0
 17 18  1  0
 17 14  1  0
 19 18  2  0
 20 19  1  0
 21 20  2  0
 21 16  1  0
 22 23  2  0
 22 21  1  0
  3 24  1  0
  4 25  1  0
  5 26  1  0
  7 27  1  0
  9 28  1  0
 11 29  1  0
 13 30  1  0
 18 31  1  0
 19 32  1  0
 20 33  1  0
 22 34  1  0
M  ISO  8  24  14  25  14  26  14  27  14  28  14  29  14  30   3  31  14
M  ISO  3  32  14  33  14  34   6
M  END
>  <minimizedAffinity>  (1) 
-5.22421265

>  <minimizedRMSD>  (1) 
0.309541821

$$$$
