
     RDKit          3D

 41 44  0  0  1  0  0  0  0  0999 V2000
   35.4500   30.2030   47.4400 C   0  0  0  0  0  0  0  0  0  0  0  0
   36.0540   30.3010   46.1790 C   0  0  0  0  0  0  0  0  0  0  0  0
   37.2220   31.0580   46.3240 C   0  0  0  0  0  0  0  0  0  0  0  0
   37.2860   31.3830   47.6260 N   0  0  0  0  0  0  0  0  0  0  0  0
   36.2290   30.8650   48.2530 N   0  0  0  0  0  0  0  0  0  0  0  0
   34.0240   28.5680   48.6690 C   0  0  0  0  0  0  0  0  0  0  0  0
   34.2120   29.4770   47.6290 C   0  0  0  0  0  0  0  0  0  0  0  0
   33.1480   29.6730   46.7560 C   0  0  0  0  0  0  0  0  0  0  0  0
   32.0090   28.9640   46.9820 N   0  0  0  0  0  0  0  0  0  0  0  0
   31.8650   28.0940   47.9980 C   0  0  0  0  0  0  0  0  0  0  0  0
   32.9140   27.8880   48.8750 N   0  0  0  0  0  0  0  0  0  0  0  0
   30.5570   27.5110   47.9650 N   0  0  0  0  0  0  0  0  0  0  0  0
   30.0620   26.8990   46.8720 C   0  0  0  0  0  0  0  0  0  0  0  0
   28.7770   26.3470   46.8950 C   0  0  0  0  0  0  0  0  0  0  0  0
   28.1110   26.4940   48.0960 C   0  0  0  0  0  0  0  0  0  0  0  0
   26.9340   26.0000   48.1460 O   0  0  0  0  0  0  0  0  0  0  0  0
   28.6140   27.1080   49.1830 N   0  0  0  0  0  0  0  0  0  0  0  0
   29.8720   27.6320   49.1170 C   0  0  0  0  0  0  0  0  0  0  0  0
   30.2740   28.1840   50.1530 O   0  0  0  0  0  0  0  0  0  0  0  0
   39.1420   32.8940   47.4200 N   0  0  0  0  0  0  0  0  0  0  0  0
   39.7620   33.8970   48.2600 C   0  0  0  0  0  0  0  0  0  0  0  0
   38.9430   33.9980   49.5410 C   0  0  0  0  0  0  0  0  0  0  0  0
   37.6720   33.2370   49.1550 C   0  0  0  0  0  0  0  0  0  0  0  0
   38.2710   32.1430   48.3090 C   0  0  1  0  0  0  0  0  0  0  0  0
   39.0270   31.2730   49.1760 N   0  0  0  0  0  0  0  0  0  0  0  0
   35.6775   29.8618   45.2434 H   0  0  0  0  0  0  0  0  0  0  0  0
   37.9390   31.3304   45.5355 H   0  0  0  0  0  0  0  0  0  0  0  0
   34.8598   28.4072   49.3658 H   0  0  0  0  0  0  0  0  0  0  0  0
   33.2242   30.3757   45.9132 H   0  0  0  0  0  0  0  0  0  0  0  0
   30.6705   26.8331   45.9580 H   0  0  0  0  0  0  0  0  0  0  0  0
   28.3330   25.8373   46.0272 H   0  0  0  0  0  0  0  0  0  0  0  0
   28.0598   27.1809   50.0481 H   0  0  0  0  0  0  0  0  0  0  0  0
   38.5955   33.3388   46.6687 H   0  0  0  0  0  0  0  0  0  0  0  0
   40.7944   33.6008   48.4976 H   0  0  0  0  0  0  0  0  0  0  0  0
   39.7915   34.8678   47.7436 H   0  0  0  0  0  0  0  0  0  0  0  0
   39.4580   33.5169   50.3856 H   0  0  0  0  0  0  0  0  0  0  0  0
   38.7621   35.0300   49.8761 H   0  0  0  0  0  0  0  0  0  0  0  0
   37.1535   32.8336   50.0373 H   0  0  0  0  0  0  0  0  0  0  0  0
   36.9027   33.8427   48.6537 H   0  0  0  0  0  0  0  0  0  0  0  0
   38.8241   31.5065   50.1584 H   0  0  0  0  0  0  0  0  0  0  0  0
   38.7636   30.2940   48.9944 H   0  0  0  0  0  0  0  0  0  0  0  0
  1  7  1  0
  1  5  2  0
  2  3  2  0
  2  1  1  0
  3  4  1  0
  4  5  1  0
  4 24  1  0
  6 11  2  0
  7  6  1  0
  8  9  1  0
  8  7  2  0
  9 10  2  0
 10 11  1  0
 12 10  1  0
 12 18  1  0
 13 14  2  0
 13 12  1  0
 14 15  1  0
 15 16  2  0
 15 17  1  0
 18 17  1  0
 18 19  2  0
 20 21  1  0
 20 24  1  0
 21 22  1  0
 23 22  1  0
 24 23  1  0
 24 25  1  1
  2 26  1  0
  3 27  1  0
  6 28  1  0
  8 29  1  0
 13 30  1  0
 14 31  1  0
 17 32  1  0
 20 33  1  0
 21 34  1  0
 21 35  1  0
 22 36  1  0
 22 37  1  0
 23 38  1  0
 23 39  1  0
 25 40  1  0
 25 41  1  0
M  ISO  8  26  14  27  14  28  14  29  14  30  14  31  14  32   9  33   5
M  ISO  8  34  13  35  13  36  13  37  13  38  13  39  13  40   5  41   5
M  END
>  <minimizedAffinity>  (1) 
-6.11967945

>  <minimizedRMSD>  (1) 
0.384909332

$$$$
