
     RDKit          3D

 42 45  0  0  1  0  0  0  0  0999 V2000
   34.9360   29.9850   46.9940 C   0  0  0  0  0  0  0  0  0  0  0  0
   35.5550   30.0360   45.7310 C   0  0  0  0  0  0  0  0  0  0  0  0
   36.8100   30.6280   45.9190 C   0  0  0  0  0  0  0  0  0  0  0  0
   36.9030   30.9020   47.2320 N   0  0  0  0  0  0  0  0  0  0  0  0
   35.7860   30.5140   47.8370 N   0  0  0  0  0  0  0  0  0  0  0  0
   37.9110   32.9530   47.9600 N   0  0  0  0  0  0  0  0  0  0  0  0
   38.8000   33.3540   49.0380 C   0  0  0  0  0  0  0  0  0  0  0  0
   39.0080   32.1470   49.9290 C   0  0  0  0  0  0  0  0  0  0  0  0
   37.9410   31.1880   49.4140 C   0  0  0  0  0  0  0  0  0  0  0  0
   37.9750   31.5060   47.9520 C   0  0  1  0  0  0  0  0  0  0  0  0
   39.2260   31.0300   47.4090 N   0  0  0  0  0  0  0  0  0  0  0  0
   33.3030   28.4810   48.1260 C   0  0  0  0  0  0  0  0  0  0  0  0
   33.6120   29.4250   47.1460 C   0  0  0  0  0  0  0  0  0  0  0  0
   32.5750   29.8100   46.3050 C   0  0  0  0  0  0  0  0  0  0  0  0
   31.3540   29.2560   46.4880 N   0  0  0  0  0  0  0  0  0  0  0  0
   31.0960   28.3470   47.4460 C   0  0  0  0  0  0  0  0  0  0  0  0
   32.1090   27.9460   48.2960 N   0  0  0  0  0  0  0  0  0  0  0  0
   29.4030   26.6590   46.9030 C   0  0  0  0  0  0  0  0  0  0  0  0
   29.7590   27.7820   47.5970 C   0  0  0  0  0  0  0  0  0  0  0  0
   28.9220   28.4410   48.4570 C   0  0  0  0  0  0  0  0  0  0  0  0
   27.6440   27.8930   48.5950 C   0  0  0  0  0  0  0  0  0  0  0  0
   27.2300   26.7620   47.9190 C   0  0  0  0  0  0  0  0  0  0  0  0
   28.1300   26.1520   47.0690 C   0  0  0  0  0  0  0  0  0  0  0  0
   31.1320   25.5140   45.2910 N   0  0  0  0  0  0  0  0  0  0  0  0
   30.3550   26.0210   46.0080 C   0  0  0  0  0  0  0  0  0  0  0  0
   35.1340   29.6794   44.7794 H   0  0  0  0  0  0  0  0  0  0  0  0
   37.5678   30.8286   45.1473 H   0  0  0  0  0  0  0  0  0  0  0  0
   36.9495   33.2733   48.1436 H   0  0  0  0  0  0  0  0  0  0  0  0
   39.7639   33.6871   48.6257 H   0  0  0  0  0  0  0  0  0  0  0  0
   38.3649   34.1872   49.6095 H   0  0  0  0  0  0  0  0  0  0  0  0
   40.0170   31.7270   49.8045 H   0  0  0  0  0  0  0  0  0  0  0  0
   38.9254   32.3683   51.0033 H   0  0  0  0  0  0  0  0  0  0  0  0
   38.2093   30.1390   49.6082 H   0  0  0  0  0  0  0  0  0  0  0  0
   36.9541   31.3023   49.8862 H   0  0  0  0  0  0  0  0  0  0  0  0
   39.8645   30.7870   48.1798 H   0  0  0  0  0  0  0  0  0  0  0  0
   39.0537   30.1958   46.8300 H   0  0  0  0  0  0  0  0  0  0  0  0
   34.1093   28.1613   48.8025 H   0  0  0  0  0  0  0  0  0  0  0  0
   32.7430   30.5491   45.5078 H   0  0  0  0  0  0  0  0  0  0  0  0
   29.2351   29.3428   49.0036 H   0  0  0  0  0  0  0  0  0  0  0  0
   26.9335   28.3861   49.2747 H   0  0  0  0  0  0  0  0  0  0  0  0
   26.2150   26.3601   48.0538 H   0  0  0  0  0  0  0  0  0  0  0  0
   27.8288   25.2498   46.5165 H   0  0  0  0  0  0  0  0  0  0  0  0
  1 13  1  0
  1  5  2  0
  2  3  2  0
  2  1  1  0
  3  4  1  0
  4  5  1  0
  4 10  1  0
  6  7  1  0
  7  8  1  0
  9  8  1  0
 10 11  1  6
 10  6  1  0
 10  9  1  0
 12 17  2  0
 13 12  1  0
 14 15  1  0
 14 13  2  0
 15 16  2  0
 16 19  1  0
 16 17  1  0
 18 23  2  0
 18 19  1  0
 19 20  2  0
 20 21  1  0
 22 21  2  0
 23 22  1  0
 24 25  3  0
 25 18  1  0
  2 26  1  0
  3 27  1  0
  6 28  1  0
  7 29  1  0
  7 30  1  0
  8 31  1  0
  8 32  1  0
  9 33  1  0
  9 34  1  0
 11 35  1  0
 11 36  1  0
 12 37  1  0
 14 38  1  0
 20 39  1  0
 21 40  1  0
 22 41  1  0
 23 42  1  0
M  ISO  8  26  14  27  14  28   5  29  13  30  13  31  13  32  13  33  13
M  ISO  8  34  13  35   5  36   5  37  14  38  14  39  14  40  14  41  14
M  ISO  1  42  14
M  END
>  <minimizedAffinity>  (1) 
-5.65947485

>  <minimizedRMSD>  (1) 
1.54852974

$$$$
