
     RDKit          3D

 41 44  0  0  1  0  0  0  0  0999 V2000
   35.8740   29.9520   45.0180 C   0  0  0  0  0  0  0  0  0  0  0  0
   36.3630   29.4620   43.7920 C   0  0  0  0  0  0  0  0  0  0  0  0
   37.6330   30.0080   43.5950 C   0  0  0  0  0  0  0  0  0  0  0  0
   37.8550   30.7850   44.6810 N   0  0  0  0  0  0  0  0  0  0  0  0
   36.8150   30.7350   45.4930 N   0  0  0  0  0  0  0  0  0  0  0  0
   39.1750   32.7010   44.0700 N   0  0  0  0  0  0  0  0  0  0  0  0
   40.0980   33.5890   44.7720 C   0  0  0  0  0  0  0  0  0  0  0  0
   40.1130   33.1830   46.2240 C   0  0  0  0  0  0  0  0  0  0  0  0
   38.8830   32.2730   46.3100 C   0  0  0  0  0  0  0  0  0  0  0  0
   39.0020   31.5760   44.9920 C   0  0  1  0  0  0  0  0  0  0  0  0
   40.1680   30.7260   44.9860 N   0  0  0  0  0  0  0  0  0  0  0  0
   34.1770   29.7710   46.8370 C   0  0  0  0  0  0  0  0  0  0  0  0
   34.5690   29.5610   45.4980 C   0  0  0  0  0  0  0  0  0  0  0  0
   33.6480   28.9570   44.6450 C   0  0  0  0  0  0  0  0  0  0  0  0
   32.4430   28.6170   45.1650 N   0  0  0  0  0  0  0  0  0  0  0  0
   32.0930   28.8280   46.4480 C   0  0  0  0  0  0  0  0  0  0  0  0
   32.9860   29.4210   47.3010 N   0  0  0  0  0  0  0  0  0  0  0  0
   32.0550   26.2570   47.8800 Cl  0  0  0  0  0  0  0  0  0  0  0  0
   30.6220   27.2590   47.6220 C   0  0  0  0  0  0  0  0  0  0  0  0
   30.7770   28.4360   46.9380 C   0  0  0  0  0  0  0  0  0  0  0  0
   29.7270   29.2940   46.6790 C   0  0  0  0  0  0  0  0  0  0  0  0
   28.4680   28.9500   47.1290 C   0  0  0  0  0  0  0  0  0  0  0  0
   28.3050   27.7670   47.8190 C   0  0  0  0  0  0  0  0  0  0  0  0
   26.7320   27.2900   48.4090 Cl  0  0  0  0  0  0  0  0  0  0  0  0
   29.3590   26.8950   48.0840 C   0  0  0  0  0  0  0  0  0  0  0  0
   35.8394   28.7736   43.1123 H   0  0  0  0  0  0  0  0  0  0  0  0
   38.3073   29.8425   42.7418 H   0  0  0  0  0  0  0  0  0  0  0  0
   38.2762   33.1718   43.8931 H   0  0  0  0  0  0  0  0  0  0  0  0
   41.1075   33.4922   44.3459 H   0  0  0  0  0  0  0  0  0  0  0  0
   39.7772   34.6361   44.6690 H   0  0  0  0  0  0  0  0  0  0  0  0
   41.0335   32.6366   46.4772 H   0  0  0  0  0  0  0  0  0  0  0  0
   40.0880   34.0317   46.9233 H   0  0  0  0  0  0  0  0  0  0  0  0
   38.9500   31.5704   47.1537 H   0  0  0  0  0  0  0  0  0  0  0  0
   37.9278   32.7905   46.4825 H   0  0  0  0  0  0  0  0  0  0  0  0
   40.4487   30.5214   45.9557 H   0  0  0  0  0  0  0  0  0  0  0  0
   39.9484   29.8454   44.4990 H   0  0  0  0  0  0  0  0  0  0  0  0
   34.8911   30.2459   47.5258 H   0  0  0  0  0  0  0  0  0  0  0  0
   33.8893   28.7633   43.5894 H   0  0  0  0  0  0  0  0  0  0  0  0
   29.8899   30.2310   46.1263 H   0  0  0  0  0  0  0  0  0  0  0  0
   27.6080   29.6093   46.9401 H   0  0  0  0  0  0  0  0  0  0  0  0
   29.2003   25.9568   48.6359 H   0  0  0  0  0  0  0  0  0  0  0  0
  1  5  2  0
  1 13  1  0
  2  1  1  0
  3  2  2  0
  3  4  1  0
  4 10  1  0
  4  5  1  0
  6  7  1  0
  6 10  1  0
  7  8  1  0
  8  9  1  0
 10 11  1  1
 10  9  1  0
 12 17  2  0
 13 12  1  0
 14 15  1  0
 14 13  2  0
 15 16  2  0
 16 20  1  0
 16 17  1  0
 19 18  1  0
 19 25  2  0
 20 19  1  0
 21 20  2  0
 21 22  1  0
 22 23  2  0
 23 25  1  0
 23 24  1  0
  2 26  1  0
  3 27  1  0
  6 28  1  0
  7 29  1  0
  7 30  1  0
  8 31  1  0
  8 32  1  0
  9 33  1  0
  9 34  1  0
 11 35  1  0
 11 36  1  0
 12 37  1  0
 14 38  1  0
 21 39  1  0
 22 40  1  0
 25 41  1  0
M  ISO  8  26  14  27  14  28   5  29  13  30  13  31  13  32  13  33  13
M  ISO  8  34  13  35   5  36   5  37  14  38  14  39  14  40  14  41  14
M  END
>  <minimizedAffinity>  (1) 
-5.23152208

>  <minimizedRMSD>  (1) 
2.74592209

$$$$
