
     RDKit          3D

 34 36  0  0  1  0  0  0  0  0999 V2000
   35.2240   30.0430   47.4940 C   0  0  0  0  0  0  0  0  0  0  0  0
   35.8120   30.1930   46.2240 C   0  0  0  0  0  0  0  0  0  0  0  0
   36.9750   30.9440   46.3830 C   0  0  0  0  0  0  0  0  0  0  0  0
   37.0470   31.2150   47.7030 N   0  0  0  0  0  0  0  0  0  0  0  0
   36.0070   30.6760   48.3410 N   0  0  0  0  0  0  0  0  0  0  0  0
   38.8620   32.7810   47.5290 N   0  0  0  0  0  0  0  0  0  0  0  0
   39.5020   33.7360   48.4110 C   0  0  0  0  0  0  0  0  0  0  0  0
   38.7180   33.7480   49.7090 C   0  0  0  0  0  0  0  0  0  0  0  0
   37.4480   32.9900   49.3140 C   0  0  0  0  0  0  0  0  0  0  0  0
   38.0420   31.9530   48.3990 C   0  0  1  0  0  0  0  0  0  0  0  0
   38.8550   31.0470   49.1710 N   0  0  0  0  0  0  0  0  0  0  0  0
   33.7220   28.5770   48.8320 C   0  0  0  0  0  0  0  0  0  0  0  0
   33.9870   29.3010   47.6620 C   0  0  0  0  0  0  0  0  0  0  0  0
   33.0240   29.2890   46.6590 C   0  0  0  0  0  0  0  0  0  0  0  0
   31.8990   28.5840   46.8710 N   0  0  0  0  0  0  0  0  0  0  0  0
   31.6630   27.8900   48.0100 C   0  0  0  0  0  0  0  0  0  0  0  0
   32.5990   27.8840   49.0200 N   0  0  0  0  0  0  0  0  0  0  0  0
   30.3520   27.1550   48.0870 C   0  0  0  0  0  0  0  0  0  0  0  0
   35.4236   29.7901   45.2770 H   0  0  0  0  0  0  0  0  0  0  0  0
   37.6835   31.2506   45.5994 H   0  0  0  0  0  0  0  0  0  0  0  0
   39.5670   32.2081   47.0436 H   0  0  0  0  0  0  0  0  0  0  0  0
   40.5420   33.4332   48.6024 H   0  0  0  0  0  0  0  0  0  0  0  0
   39.5163   34.7373   47.9558 H   0  0  0  0  0  0  0  0  0  0  0  0
   39.2623   33.2274   50.5106 H   0  0  0  0  0  0  0  0  0  0  0  0
   38.5298   34.7562   50.1067 H   0  0  0  0  0  0  0  0  0  0  0  0
   36.9566   32.5331   50.1856 H   0  0  0  0  0  0  0  0  0  0  0  0
   36.6578   33.6091   48.8643 H   0  0  0  0  0  0  0  0  0  0  0  0
   38.7013   31.2183   50.1750 H   0  0  0  0  0  0  0  0  0  0  0  0
   38.5964   30.0760   48.9448 H   0  0  0  0  0  0  0  0  0  0  0  0
   34.4760   28.5807   49.6329 H   0  0  0  0  0  0  0  0  0  0  0  0
   33.1781   29.8402   45.7196 H   0  0  0  0  0  0  0  0  0  0  0  0
   30.0789   27.0019   49.1415 H   0  0  0  0  0  0  0  0  0  0  0  0
   29.5702   27.7464   47.5879 H   0  0  0  0  0  0  0  0  0  0  0  0
   30.4487   26.1795   47.5879 H   0  0  0  0  0  0  0  0  0  0  0  0
  1 13  1  0
  1  5  2  0
  2  3  2  0
  2  1  1  0
  3  4  1  0
  4  5  1  0
  4 10  1  0
  6 10  1  0
  6  7  1  0
  7  8  1  0
  9  8  1  0
 10 11  1  1
 10  9  1  0
 12 17  2  0
 13 12  1  0
 14 15  1  0
 14 13  2  0
 15 16  2  0
 16 18  1  0
 16 17  1  0
  2 19  1  0
  3 20  1  0
  6 21  1  0
  7 22  1  0
  7 23  1  0
  8 24  1  0
  8 25  1  0
  9 26  1  0
  9 27  1  0
 11 28  1  0
 11 29  1  0
 12 30  1  0
 14 31  1  0
 18 32  1  0
 18 33  1  0
 18 34  1  0
M  ISO  8  19  14  20  14  21   5  22  13  23  13  24  13  25  13  26  13
M  ISO  8  27  13  28   5  29   5  30  14  31  14  32   8  33   8  34   8
M  END
>  <minimizedAffinity>  (1) 
-5.02222633

>  <minimizedRMSD>  (1) 
0.0407877415

$$$$
