
     RDKit          3D

 32 34  0  0  1  0  0  0  0  0999 V2000
   35.2020   30.0270   47.4840 C   0  0  0  0  0  0  0  0  0  0  0  0
   35.7870   30.1750   46.2270 C   0  0  0  0  0  0  0  0  0  0  0  0
   36.9510   30.9300   46.3990 C   0  0  0  0  0  0  0  0  0  0  0  0
   37.0190   31.2020   47.7230 N   0  0  0  0  0  0  0  0  0  0  0  0
   35.9750   30.6590   48.3530 N   0  0  0  0  0  0  0  0  0  0  0  0
   38.8370   32.7700   47.5530 N   0  0  0  0  0  0  0  0  0  0  0  0
   39.4700   33.7160   48.4550 C   0  0  0  0  0  0  0  0  0  0  0  0
   38.6940   33.7000   49.7640 C   0  0  0  0  0  0  0  0  0  0  0  0
   37.4240   32.9440   49.3580 C   0  0  0  0  0  0  0  0  0  0  0  0
   38.0190   31.9450   48.4110 C   0  0  1  0  0  0  0  0  0  0  0  0
   38.8320   31.0110   49.1710 N   0  0  0  0  0  0  0  0  0  0  0  0
   33.6930   28.5490   48.8300 C   0  0  0  0  0  0  0  0  0  0  0  0
   33.9620   29.2840   47.6590 C   0  0  0  0  0  0  0  0  0  0  0  0
   32.9990   29.2830   46.6560 C   0  0  0  0  0  0  0  0  0  0  0  0
   31.8670   28.5810   46.8620 N   0  0  0  0  0  0  0  0  0  0  0  0
   31.6270   27.8830   47.9930 C   0  0  0  0  0  0  0  0  0  0  0  0
   32.5590   27.8670   48.9970 N   0  0  0  0  0  0  0  0  0  0  0  0
   30.4660   27.1550   48.2180 O   0  0  0  0  0  0  0  0  0  0  0  0
   35.4042   29.7728   45.2774 H   0  0  0  0  0  0  0  0  0  0  0  0
   37.6636   31.2388   45.6200 H   0  0  0  0  0  0  0  0  0  0  0  0
   39.5446   32.2007   47.0672 H   0  0  0  0  0  0  0  0  0  0  0  0
   40.5141   33.4203   48.6351 H   0  0  0  0  0  0  0  0  0  0  0  0
   39.4663   34.7255   48.0181 H   0  0  0  0  0  0  0  0  0  0  0  0
   39.2454   33.1652   50.5514 H   0  0  0  0  0  0  0  0  0  0  0  0
   38.5058   34.6984   50.1857 H   0  0  0  0  0  0  0  0  0  0  0  0
   36.9440   32.4567   50.2195 H   0  0  0  0  0  0  0  0  0  0  0  0
   36.6235   33.5689   48.9354 H   0  0  0  0  0  0  0  0  0  0  0  0
   38.6906   31.1734   50.1782 H   0  0  0  0  0  0  0  0  0  0  0  0
   38.5565   30.0466   48.9368 H   0  0  0  0  0  0  0  0  0  0  0  0
   34.4436   28.5370   49.6340 H   0  0  0  0  0  0  0  0  0  0  0  0
   33.1566   29.8396   45.7204 H   0  0  0  0  0  0  0  0  0  0  0  0
   30.3474   26.6628   49.0687 H   0  0  0  0  0  0  0  0  0  0  0  0
  1 13  1  0
  1  5  2  0
  2  3  2  0
  2  1  1  0
  3  4  1  0
  4  5  1  0
  4 10  1  0
  6 10  1  0
  6  7  1  0
  7  8  1  0
  9  8  1  0
 10 11  1  1
 10  9  1  0
 12 17  2  0
 13 12  1  0
 14 15  1  0
 14 13  2  0
 15 16  2  0
 16 18  1  0
 16 17  1  0
  2 19  1  0
  3 20  1  0
  6 21  1  0
  7 22  1  0
  7 23  1  0
  8 24  1  0
  8 25  1  0
  9 26  1  0
  9 27  1  0
 11 28  1  0
 11 29  1  0
 12 30  1  0
 14 31  1  0
 18 32  1  0
M  ISO  8  19  14  20  14  21   5  22  13  23  13  24  13  25  13  26  13
M  ISO  6  27  13  28   5  29   5  30  14  31  14  32   3
M  END
>  <minimizedAffinity>  (1) 
-4.98349857

>  <minimizedRMSD>  (1) 
0.0182031151

$$$$
