
     RDKit          3D

 12 12  0  0  0  0  0  0  0  0999 V2000
   37.3580   30.2290   51.3730 C   0  0  0  0  0  0  0  0  0  0  0  0
   38.0370   30.7550   50.2600 C   0  0  0  0  0  0  0  0  0  0  0  0
   37.5680   30.4050   48.9910 C   0  0  0  0  0  0  0  0  0  0  0  0
   36.4900   29.5800   48.9030 N   0  0  0  0  0  0  0  0  0  0  0  0
   35.8690   29.0970   49.9930 C   0  0  0  0  0  0  0  0  0  0  0  0
   36.2900   29.4120   51.2280 N   0  0  0  0  0  0  0  0  0  0  0  0
   38.2360   30.9230   47.8100 C   0  0  0  0  0  0  0  0  0  0  0  0
   39.0110   31.9100   47.8040 O   0  0  0  0  0  0  0  0  0  0  0  0
   37.7032   30.4878   52.3848 H   0  0  0  0  0  0  0  0  0  0  0  0
   38.9060   31.4180   50.3836 H   0  0  0  0  0  0  0  0  0  0  0  0
   35.0011   28.4323   49.8708 H   0  0  0  0  0  0  0  0  0  0  0  0
   38.0494   30.4141   46.8528 H   0  0  0  0  0  0  0  0  0  0  0  0
  2  1  2  0
  3  2  1  0
  4  3  2  0
  4  5  1  0
  5  6  2  0
  6  1  1  0
  7  3  1  0
  8  7  2  0
  1  9  1  0
  2 10  1  0
  5 11  1  0
  7 12  1  0
M  ISO  4   9  14  10  14  11  14  12   6
M  END
>  <minimizedAffinity>  (1) 
-3.32880998

>  <minimizedRMSD>  (1) 
0.24373658

$$$$
