
     RDKit          3D

 18 18  0  0  0  0  0  0  0  0999 V2000
   37.4460   30.2950   51.3260 C   0  0  0  0  0  0  0  0  0  0  0  0
   38.1390   30.9190   50.2880 C   0  0  0  0  0  0  0  0  0  0  0  0
   37.7380   30.5580   49.0090 C   0  0  0  0  0  0  0  0  0  0  0  0
   36.7320   29.6520   48.8170 N   0  0  0  0  0  0  0  0  0  0  0  0
   36.1070   29.0890   49.8670 C   0  0  0  0  0  0  0  0  0  0  0  0
   36.4620   29.4090   51.1110 N   0  0  0  0  0  0  0  0  0  0  0  0
   38.3800   31.1360   47.8460 C   0  0  0  0  0  0  0  0  0  0  0  0
   39.0810   32.1930   47.8650 O   0  0  0  0  0  0  0  0  0  0  0  0
   38.2500   30.5240   46.5950 O   0  0  0  0  0  0  0  0  0  0  0  0
   39.0330   31.8890   44.5510 O   0  0  0  0  0  0  0  0  0  0  0  0
   39.4160   30.6750   45.3610 P   0  0  0  0  0  0  0  0  0  0  0  0
   40.9910   30.7920   45.9480 O   0  0  0  0  0  0  0  0  0  0  0  0
   39.3250   29.2650   44.4100 O   0  0  0  0  0  0  0  0  0  0  0  0
   37.7178   30.5397   52.3634 H   0  0  0  0  0  0  0  0  0  0  0  0
   38.9452   31.6449   50.4702 H   0  0  0  0  0  0  0  0  0  0  0  0
   35.2995   28.3614   49.6979 H   0  0  0  0  0  0  0  0  0  0  0  0
   40.9752   30.7908   46.9379 H   0  0  0  0  0  0  0  0  0  0  0  0
   39.2738   28.4717   45.0001 H   0  0  0  0  0  0  0  0  0  0  0  0
  2  1  2  0
  3  2  1  0
  4  3  2  0
  4  5  1  0
  5  6  2  0
  6  1  1  0
  7  8  2  0
  7  3  1  0
  9  7  1  0
 10 11  2  0
 11 12  1  0
 11  9  1  0
 13 11  1  0
  1 14  1  0
  2 15  1  0
  5 16  1  0
 12 17  1  0
 13 18  1  0
M  ISO  5  14  14  15  14  16  14  17   3  18   3
M  END
>  <minimizedAffinity>  (1) 
-4.79306364

>  <minimizedRMSD>  (1) 
0.445975661

$$$$
