
     RDKit          3D

 19 20  0  0  0  0  0  0  0  0999 V2000
   38.6590   31.7800   47.8100 C   0  0  0  0  0  0  0  0  0  0  0  0
   38.9470   32.9780   47.9990 O   0  0  0  0  0  0  0  0  0  0  0  0
   37.5370   30.3110   51.0550 C   0  0  0  0  0  0  0  0  0  0  0  0
   38.2490   31.1380   50.1810 C   0  0  0  0  0  0  0  0  0  0  0  0
   37.9720   30.9690   48.8110 C   0  0  0  0  0  0  0  0  0  0  0  0
   37.0480   30.0300   48.4340 N   0  0  0  0  0  0  0  0  0  0  0  0
   36.4040   29.2730   49.3270 C   0  0  0  0  0  0  0  0  0  0  0  0
   36.6400   29.4050   50.6360 N   0  0  0  0  0  0  0  0  0  0  0  0
   39.0210   31.1580   46.5380 C   0  0  0  0  0  0  0  0  0  0  0  0
   40.2960   31.1430   45.9810 C   0  0  0  0  0  0  0  0  0  0  0  0
   40.1720   30.4760   44.8270 N   0  0  0  0  0  0  0  0  0  0  0  0
   38.9100   30.0690   44.6150 C   0  0  0  0  0  0  0  0  0  0  0  0
   38.2060   30.5000   45.6880 N   0  0  0  0  0  0  0  0  0  0  0  0
   37.7204   30.4073   52.1353 H   0  0  0  0  0  0  0  0  0  0  0  0
   38.9809   31.8757   50.5417 H   0  0  0  0  0  0  0  0  0  0  0  0
   35.6696   28.5311   48.9802 H   0  0  0  0  0  0  0  0  0  0  0  0
   41.2117   31.5855   46.4001 H   0  0  0  0  0  0  0  0  0  0  0  0
   40.9519   30.2963   44.1787 H   0  0  0  0  0  0  0  0  0  0  0  0
   38.5286   29.5044   43.7514 H   0  0  0  0  0  0  0  0  0  0  0  0
  1  2  2  0
  1  5  1  0
  4  3  2  0
  5  4  1  0
  6  5  2  0
  6  7  1  0
  7  8  2  0
  8  3  1  0
  9  1  1  0
 10  9  2  0
 11 10  1  0
 12 11  1  0
 12 13  2  0
 13  9  1  0
  3 14  1  0
  4 15  1  0
  7 16  1  0
 10 17  1  0
 11 18  1  0
 12 19  1  0
M  ISO  6  14  14  15  14  16  14  17  14  18   9  19  14
M  END
>  <minimizedAffinity>  (1) 
-4.66004038

>  <minimizedRMSD>  (1) 
1.29791319

$$$$
