
     RDKit          3D

 13 13  0  0  0  0  0  0  0  0999 V2000
   37.3110   30.1690   51.2550 C   0  0  0  0  0  0  0  0  0  0  0  0
   38.0920   31.0240   50.4430 C   0  0  0  0  0  0  0  0  0  0  0  0
   37.9300   30.9260   49.0680 C   0  0  0  0  0  0  0  0  0  0  0  0
   37.0320   30.0180   48.5650 N   0  0  0  0  0  0  0  0  0  0  0  0
   36.3150   29.2310   49.3710 C   0  0  0  0  0  0  0  0  0  0  0  0
   36.4490   29.3020   50.6950 N   0  0  0  0  0  0  0  0  0  0  0  0
   38.7110   31.7830   48.2000 C   0  0  0  0  0  0  0  0  0  0  0  0
   38.8260   33.0290   48.3130 O   0  0  0  0  0  0  0  0  0  0  0  0
   39.3910   31.1400   47.1460 O   0  0  0  0  0  0  0  0  0  0  0  0
   37.4091   30.2134   52.3497 H   0  0  0  0  0  0  0  0  0  0  0  0
   38.8011   31.7397   50.8845 H   0  0  0  0  0  0  0  0  0  0  0  0
   35.6035   28.5138   48.9358 H   0  0  0  0  0  0  0  0  0  0  0  0
   39.3170   30.1591   47.0347 H   0  0  0  0  0  0  0  0  0  0  0  0
  2  1  2  0
  3  2  1  0
  4  3  2  0
  4  5  1  0
  5  6  2  0
  6  1  1  0
  7  8  2  0
  7  3  1  0
  9  7  1  0
  1 10  1  0
  2 11  1  0
  5 12  1  0
  9 13  1  0
M  ISO  4  10  14  11  14  12  14  13   3
M  END
>  <minimizedAffinity>  (1) 
-3.90369606

>  <minimizedRMSD>  (1) 
0.921662569

$$$$
