
     RDKit          3D

 26 28  0  0  1  0  0  0  0  0999 V2000
   38.2790   32.4020   48.7910 C   0  0  0  0  0  0  0  0  0  0  0  0
   38.9370   33.3360   49.3730 O   0  0  0  0  0  0  0  0  0  0  0  0
   37.2300   29.8100   51.2730 C   0  0  0  0  0  0  0  0  0  0  0  0
   38.0010   30.7480   50.6020 C   0  0  0  0  0  0  0  0  0  0  0  0
   37.4660   31.4520   49.5180 C   0  0  0  0  0  0  0  0  0  0  0  0
   36.2070   31.1800   49.1770 N   0  0  0  0  0  0  0  0  0  0  0  0
   35.4720   30.2540   49.8530 C   0  0  0  0  0  0  0  0  0  0  0  0
   35.9590   29.5750   50.8800 N   0  0  0  0  0  0  0  0  0  0  0  0
   38.3770   32.3000   47.3070 C   0  0  2  0  0  0  0  0  0  0  0  0
   38.7320   30.8030   46.9260 C   0  0  0  0  0  0  0  0  0  0  0  0
   39.6330   31.9960   46.6530 C   0  0  1  0  0  0  0  0  0  0  0  0
   39.9180   32.2680   45.2180 C   0  0  0  0  0  0  0  0  0  0  0  0
   38.8570   32.7970   44.3090 C   0  0  0  0  0  0  0  0  0  0  0  0
   40.0510   33.6640   44.7160 C   0  0  0  0  0  0  0  0  0  0  0  0
   37.6535   29.2577   52.1249 H   0  0  0  0  0  0  0  0  0  0  0  0
   39.0357   30.9387   50.9232 H   0  0  0  0  0  0  0  0  0  0  0  0
   34.4366   30.0633   49.5343 H   0  0  0  0  0  0  0  0  0  0  0  0
   37.6369   33.0838   47.0879 H   0  0  0  0  0  0  0  0  0  0  0  0
   38.9898   30.0709   47.7054 H   0  0  0  0  0  0  0  0  0  0  0  0
   38.2727   29.9930   46.3403 H   0  0  0  0  0  0  0  0  0  0  0  0
   40.6523   32.3112   46.9207 H   0  0  0  0  0  0  0  0  0  0  0  0
   40.5682   31.3808   45.2029 H   0  0  0  0  0  0  0  0  0  0  0  0
   37.8535   33.0190   44.7010 H   0  0  0  0  0  0  0  0  0  0  0  0
   38.4097   32.4765   43.3565 H   0  0  0  0  0  0  0  0  0  0  0  0
   40.8284   33.9139   43.9790 H   0  0  0  0  0  0  0  0  0  0  0  0
   40.1770   34.6533   45.1801 H   0  0  0  0  0  0  0  0  0  0  0  0
  1  2  2  0
  1  5  1  0
  4  3  2  0
  5  4  1  0
  6  5  2  0
  6  7  1  0
  7  8  2  0
  8  3  1  0
  9  1  1  0
 10  9  1  0
 11 10  1  0
 11  9  1  0
 12 11  1  0
 13 14  1  0
 13 12  1  0
 14 12  1  0
  3 15  1  0
  4 16  1  0
  7 17  1  0
  9 18  1  6
 10 19  1  0
 10 20  1  0
 11 21  1  1
 12 22  1  0
 13 23  1  0
 13 24  1  0
 14 25  1  0
 14 26  1  0
M  ISO  8  15  14  16  14  17  14  18  13  19  13  20  13  21  13  22  13
M  ISO  4  23  13  24  13  25  13  26  13
M  END
>  <minimizedAffinity>  (1) 
-5.12409353

>  <minimizedRMSD>  (1) 
0.600784421

$$$$
