
     RDKit          3D

 22 23  0  0  1  0  0  0  0  0999 V2000
   38.3450   32.2160   47.5550 C   0  0  0  0  0  0  0  0  0  0  0  0
   39.2910   33.0430   47.7850 O   0  0  0  0  0  0  0  0  0  0  0  0
   37.6750   30.4980   50.8170 C   0  0  0  0  0  0  0  0  0  0  0  0
   38.3060   31.2140   49.8110 C   0  0  0  0  0  0  0  0  0  0  0  0
   37.6620   31.5030   48.6060 C   0  0  0  0  0  0  0  0  0  0  0  0
   36.4150   31.0550   48.4810 N   0  0  0  0  0  0  0  0  0  0  0  0
   35.8060   30.3530   49.4760 C   0  0  0  0  0  0  0  0  0  0  0  0
   36.4060   30.0720   50.6220 N   0  0  0  0  0  0  0  0  0  0  0  0
   37.9550   31.9870   46.1370 C   0  0  2  0  0  0  0  0  0  0  0  0
   38.2690   30.4880   45.7510 C   0  0  0  0  0  0  0  0  0  0  0  0
   38.9200   31.6980   45.0960 C   0  0  2  0  0  0  0  0  0  0  0  0
   40.3960   31.7520   45.2790 C   0  0  0  0  0  0  0  0  0  0  0  0
   41.0120   31.3370   44.1040 F   0  0  0  0  0  0  0  0  0  0  0  0
   40.8330   30.8600   46.2440 F   0  0  0  0  0  0  0  0  0  0  0  0
   40.8720   33.0230   45.5260 F   0  0  0  0  0  0  0  0  0  0  0  0
   38.1985   30.2797   51.7595 H   0  0  0  0  0  0  0  0  0  0  0  0
   39.3378   31.5625   49.9657 H   0  0  0  0  0  0  0  0  0  0  0  0
   34.7739   30.0054   49.3214 H   0  0  0  0  0  0  0  0  0  0  0  0
   37.1303   32.7149   46.1445 H   0  0  0  0  0  0  0  0  0  0  0  0
   38.8425   29.8412   46.4313 H   0  0  0  0  0  0  0  0  0  0  0  0
   37.6977   29.6076   45.4216 H   0  0  0  0  0  0  0  0  0  0  0  0
   39.0006   32.1395   44.0917 H   0  0  0  0  0  0  0  0  0  0  0  0
  1  2  2  0
  1  5  1  0
  4  3  2  0
  5  4  1  0
  6  5  2  0
  6  7  1  0
  7  8  2  0
  8  3  1  0
  9  1  1  0
 10  9  1  0
 11 12  1  0
 11 10  1  0
 11  9  1  0
 12 15  1  0
 12 14  1  0
 13 12  1  0
  3 16  1  0
  4 17  1  0
  7 18  1  0
  9 19  1  6
 10 20  1  0
 10 21  1  0
 11 22  1  6
M  ISO  7  16  14  17  14  18  14  19  13  20  13  21  13  22  13
M  END
>  <minimizedAffinity>  (1) 
-5.00516319

>  <minimizedRMSD>  (1) 
1.69458783

$$$$
