
     RDKit          3D

 25 26  0  0  1  0  0  0  0  0999 V2000
   38.0380   31.9620   48.2740 C   0  0  0  0  0  0  0  0  0  0  0  0
   38.8780   32.8850   48.5620 O   0  0  0  0  0  0  0  0  0  0  0  0
   37.4540   30.0700   51.4490 C   0  0  0  0  0  0  0  0  0  0  0  0
   38.0290   30.8680   50.4770 C   0  0  0  0  0  0  0  0  0  0  0  0
   37.3970   31.1480   49.2720 C   0  0  0  0  0  0  0  0  0  0  0  0
   36.1950   30.6030   49.0980 N   0  0  0  0  0  0  0  0  0  0  0  0
   35.6310   29.8160   50.0600 C   0  0  0  0  0  0  0  0  0  0  0  0
   36.2340   29.5440   51.2170 N   0  0  0  0  0  0  0  0  0  0  0  0
   37.7420   31.7390   46.8340 C   0  0  2  0  0  0  0  0  0  0  0  0
   38.7780   30.7070   46.2440 C   0  0  0  0  0  0  0  0  0  0  0  0
   38.6490   32.1500   45.7830 C   0  0  2  0  0  0  0  0  0  0  0  0
   39.9050   32.9500   46.0710 C   0  0  0  0  0  0  0  0  0  0  0  0
   40.9830   32.3970   45.1670 C   0  0  0  0  0  0  0  0  0  0  0  0
   37.9814   29.8682   52.3930 H   0  0  0  0  0  0  0  0  0  0  0  0
   39.0242   31.2972   50.6650 H   0  0  0  0  0  0  0  0  0  0  0  0
   34.6354   29.3876   49.8722 H   0  0  0  0  0  0  0  0  0  0  0  0
   36.6582   31.9003   46.9302 H   0  0  0  0  0  0  0  0  0  0  0  0
   39.6463   30.3822   46.8361 H   0  0  0  0  0  0  0  0  0  0  0  0
   38.7418   29.7103   45.7799 H   0  0  0  0  0  0  0  0  0  0  0  0
   38.4298   32.6900   44.8501 H   0  0  0  0  0  0  0  0  0  0  0  0
   39.7356   34.0148   45.8531 H   0  0  0  0  0  0  0  0  0  0  0  0
   40.1937   32.8698   47.1294 H   0  0  0  0  0  0  0  0  0  0  0  0
   41.7963   31.9798   45.7789 H   0  0  0  0  0  0  0  0  0  0  0  0
   40.5586   31.6053   44.5321 H   0  0  0  0  0  0  0  0  0  0  0  0
   41.3785   33.2035   44.5321 H   0  0  0  0  0  0  0  0  0  0  0  0
  1  2  2  0
  1  5  1  0
  4  3  2  0
  5  4  1  0
  6  5  2  0
  6  7  1  0
  7  8  2  0
  8  3  1  0
  9  1  1  0
 10  9  1  0
 11 12  1  0
 11 10  1  0
 11  9  1  0
 13 12  1  0
  3 14  1  0
  4 15  1  0
  7 16  1  0
  9 17  1  6
 10 18  1  0
 10 19  1  0
 11 20  1  6
 12 21  1  0
 12 22  1  0
 13 23  1  0
 13 24  1  0
 13 25  1  0
M  ISO  8  14  14  15  14  16  14  17  13  18  13  19  13  20  13  21   8
M  ISO  4  22   8  23   8  24   8  25   8
M  END
>  <minimizedAffinity>  (1) 
-4.75601196

>  <minimizedRMSD>  (1) 
0.790129244

$$$$
