
     RDKit          3D

 33 35  0  0  1  0  0  0  0  0999 V2000
   33.9890   29.8990   47.5800 C   0  0  2  0  0  0  0  0  0  0  0  0
   35.1360   29.8780   46.5000 C   0  0  0  0  0  0  0  0  0  0  0  0
   35.2970   30.4470   47.8820 C   0  0  2  0  0  0  0  0  0  0  0  0
   36.3050   29.9170   48.8250 C   0  0  0  0  0  0  0  0  0  0  0  0
   35.8880   30.3430   50.2470 C   0  0  0  0  0  0  0  0  0  0  0  0
   36.8460   29.8790   51.2860 C   0  0  0  0  0  0  0  0  0  0  0  0
   38.1780   30.1480   50.9480 O   0  0  0  0  0  0  0  0  0  0  0  0
   38.2400   31.0800   49.9110 C   0  0  0  0  0  0  0  0  0  0  0  0
   37.7170   30.3560   48.6660 C   0  0  0  0  0  0  0  0  0  0  0  0
   33.5850   28.5090   47.9180 C   0  0  0  0  0  0  0  0  0  0  0  0
   33.6730   28.1640   49.1450 O   0  0  0  0  0  0  0  0  0  0  0  0
   33.3770   25.5660   45.6240 C   0  0  0  0  0  0  0  0  0  0  0  0
   33.7900   26.4110   46.6450 C   0  0  0  0  0  0  0  0  0  0  0  0
   33.1310   27.6220   46.8780 C   0  0  0  0  0  0  0  0  0  0  0  0
   32.1030   27.9190   46.0840 N   0  0  0  0  0  0  0  0  0  0  0  0
   31.7160   27.0710   45.0860 C   0  0  0  0  0  0  0  0  0  0  0  0
   32.3240   25.9180   44.8440 N   0  0  0  0  0  0  0  0  0  0  0  0
   32.9891   30.3190   47.7639 H   0  0  0  0  0  0  0  0  0  0  0  0
   35.6268   28.9336   46.2221 H   0  0  0  0  0  0  0  0  0  0  0  0
   35.2693   30.2342   45.4679 H   0  0  0  0  0  0  0  0  0  0  0  0
   35.5826   31.4195   48.3093 H   0  0  0  0  0  0  0  0  0  0  0  0
   36.3082   28.8365   48.6187 H   0  0  0  0  0  0  0  0  0  0  0  0
   35.8323   31.4410   50.2840 H   0  0  0  0  0  0  0  0  0  0  0  0
   34.9133   29.8805   50.4615 H   0  0  0  0  0  0  0  0  0  0  0  0
   36.6129   30.3881   52.2328 H   0  0  0  0  0  0  0  0  0  0  0  0
   36.7385   28.7879   51.3753 H   0  0  0  0  0  0  0  0  0  0  0  0
   37.6088   31.9511   50.1408 H   0  0  0  0  0  0  0  0  0  0  0  0
   39.2644   31.4520   49.7622 H   0  0  0  0  0  0  0  0  0  0  0  0
   38.3444   29.4718   48.4803 H   0  0  0  0  0  0  0  0  0  0  0  0
   37.7594   31.0603   47.8221 H   0  0  0  0  0  0  0  0  0  0  0  0
   33.9012   24.6151   45.4480 H   0  0  0  0  0  0  0  0  0  0  0  0
   34.6439   26.1251   47.2768 H   0  0  0  0  0  0  0  0  0  0  0  0
   30.8618   27.3573   44.4548 H   0  0  0  0  0  0  0  0  0  0  0  0
  1  3  1  0
  1 10  1  0
  2  1  1  0
  2  3  1  0
  3  4  1  0
  4  5  1  0
  5  6  1  0
  7  6  1  0
  8  7  1  0
  9  4  1  0
  9  8  1  0
 10 11  2  0
 12 13  2  0
 13 14  1  0
 14 10  1  0
 15 14  2  0
 16 15  1  0
 17 16  2  0
 17 12  1  0
  1 18  1  6
  2 19  1  0
  2 20  1  0
  3 21  1  6
  4 22  1  0
  5 23  1  0
  5 24  1  0
  6 25  1  0
  6 26  1  0
  8 27  1  0
  8 28  1  0
  9 29  1  0
  9 30  1  0
 12 31  1  0
 13 32  1  0
 16 33  1  0
M  ISO  8  18  13  19  13  20  13  21  13  22  13  23  13  24  13  25  13
M  ISO  8  26  13  27  13  28  13  29  13  30  13  31  14  32  14  33  14
M  END
>  <minimizedAffinity>  (1) 
-4.27088022

>  <minimizedRMSD>  (1) 
6.63992548

$$$$
