
     RDKit          3D

 42 46  0  0  1  0  0  0  0  0999 V2000
   37.1950   29.9800   51.5900 C   0  0  0  0  0  0  0  0  0  0  0  0
   37.7880   30.9550   50.7860 C   0  0  0  0  0  0  0  0  0  0  0  0
   37.2750   31.2230   49.5350 C   0  0  0  0  0  0  0  0  0  0  0  0
   36.2000   30.5100   49.1450 N   0  0  0  0  0  0  0  0  0  0  0  0
   35.6330   29.5690   49.9260 C   0  0  0  0  0  0  0  0  0  0  0  0
   36.1170   29.2930   51.1480 N   0  0  0  0  0  0  0  0  0  0  0  0
   34.6050   27.9100   48.4180 C   0  0  0  0  0  0  0  0  0  0  0  0
   34.4700   28.8360   49.4320 C   0  0  0  0  0  0  0  0  0  0  0  0
   33.2320   29.0520   49.9610 C   0  0  0  0  0  0  0  0  0  0  0  0
   32.1770   28.3170   49.4380 C   0  0  0  0  0  0  0  0  0  0  0  0
   30.8610   28.3300   49.7710 N   0  0  0  0  0  0  0  0  0  0  0  0
   30.1730   27.4460   49.0020 C   0  0  0  0  0  0  0  0  0  0  0  0
   31.0810   26.8340   48.1320 C   0  0  0  0  0  0  0  0  0  0  0  0
   32.3020   27.3900   48.4250 C   0  0  0  0  0  0  0  0  0  0  0  0
   33.5580   27.1750   47.8940 C   0  0  0  0  0  0  0  0  0  0  0  0
   37.8770   32.2330   48.6760 C   0  0  0  0  0  0  0  0  0  0  0  0
   38.3080   33.3350   49.1020 O   0  0  0  0  0  0  0  0  0  0  0  0
   37.9820   31.9480   47.2120 C   0  0  2  0  0  0  0  0  0  0  0  0
   38.3100   30.4790   46.9440 C   0  0  0  0  0  0  0  0  0  0  0  0
   39.2830   31.6170   46.6020 C   0  0  1  0  0  0  0  0  0  0  0  0
   39.5080   31.7750   45.1570 C   0  0  0  0  0  0  0  0  0  0  0  0
   39.0210   32.8800   44.4630 C   0  0  0  0  0  0  0  0  0  0  0  0
   39.2630   32.9550   43.1120 C   0  0  0  0  0  0  0  0  0  0  0  0
   39.9550   31.9950   42.4310 C   0  0  0  0  0  0  0  0  0  0  0  0
   40.4270   30.9040   43.1530 C   0  0  0  0  0  0  0  0  0  0  0  0
   40.1910   30.8310   44.4710 N   0  0  0  0  0  0  0  0  0  0  0  0
   37.6065   29.7693   52.5881 H   0  0  0  0  0  0  0  0  0  0  0  0
   38.6650   31.5097   51.1509 H   0  0  0  0  0  0  0  0  0  0  0  0
   35.6093   27.7463   48.0002 H   0  0  0  0  0  0  0  0  0  0  0  0
   33.0754   29.7802   50.7705 H   0  0  0  0  0  0  0  0  0  0  0  0
   30.4440   28.9245   50.5015 H   0  0  0  0  0  0  0  0  0  0  0  0
   29.0925   27.2468   49.0545 H   0  0  0  0  0  0  0  0  0  0  0  0
   30.8630   26.0684   47.3728 H   0  0  0  0  0  0  0  0  0  0  0  0
   33.7194   26.4470   47.0853 H   0  0  0  0  0  0  0  0  0  0  0  0
   37.2199   32.6864   46.9224 H   0  0  0  0  0  0  0  0  0  0  0  0
   38.5243   29.7952   47.7785 H   0  0  0  0  0  0  0  0  0  0  0  0
   37.8383   29.6490   46.3975 H   0  0  0  0  0  0  0  0  0  0  0  0
   40.3067   31.9243   46.8619 H   0  0  0  0  0  0  0  0  0  0  0  0
   38.4585   33.6705   44.9815 H   0  0  0  0  0  0  0  0  0  0  0  0
   38.8832   33.8249   42.5562 H   0  0  0  0  0  0  0  0  0  0  0  0
   40.1330   32.0815   41.3489 H   0  0  0  0  0  0  0  0  0  0  0  0
   40.9901   30.1064   42.6463 H   0  0  0  0  0  0  0  0  0  0  0  0
  2  1  2  0
  3  2  1  0
  4  3  2  0
  4  5  1  0
  5  6  2  0
  6  1  1  0
  7  8  2  0
  8  5  1  0
  8  9  1  0
 10 11  1  0
 10  9  2  0
 12 11  1  0
 13 14  1  0
 13 12  2  0
 14 10  1  0
 15  7  1  0
 15 14  2  0
 16 17  2  0
 16  3  1  0
 18 16  1  0
 19 18  1  0
 20 19  1  0
 20 18  1  0
 21 20  1  0
 22 21  2  0
 23 22  1  0
 24 23  2  0
 24 25  1  0
 25 26  2  0
 26 21  1  0
  1 27  1  0
  2 28  1  0
  7 29  1  0
  9 30  1  0
 11 31  1  0
 12 32  1  0
 13 33  1  0
 15 34  1  0
 18 35  1  6
 19 36  1  0
 19 37  1  0
 20 38  1  1
 22 39  1  0
 23 40  1  0
 24 41  1  0
 25 42  1  0
M  ISO  8  27  14  28  14  29  14  30  14  31   9  32  14  33  14  34  14
M  ISO  8  35  13  36  13  37  13  38  13  39  14  40  14  41  14  42  14
M  END
>  <minimizedAffinity>  (1) 
-7.11434364

>  <minimizedRMSD>  (1) 
1.08533108

$$$$
