
     RDKit          3D

 34 36  0  0  1  0  0  0  0  0999 V2000
   37.9700   32.0080   47.4040 C   0  0  2  0  0  0  0  0  0  0  0  0
   38.3460   30.4840   47.1610 C   0  0  0  0  0  0  0  0  0  0  0  0
   39.1940   31.6660   46.7600 C   0  0  1  0  0  0  0  0  0  0  0  0
   39.4800   31.7700   45.3270 C   0  0  0  0  0  0  0  0  0  0  0  0
   39.2310   32.9900   44.7060 C   0  0  0  0  0  0  0  0  0  0  0  0
   39.4980   33.0770   43.3650 C   0  0  0  0  0  0  0  0  0  0  0  0
   39.9960   32.0070   42.6370 C   0  0  0  0  0  0  0  0  0  0  0  0
   40.2270   30.8170   43.2930 C   0  0  0  0  0  0  0  0  0  0  0  0
   39.9660   30.7300   44.6090 N   0  0  0  0  0  0  0  0  0  0  0  0
   37.9140   32.2290   48.8950 C   0  0  0  0  0  0  0  0  0  0  0  0
   38.5500   33.2390   49.3860 O   0  0  0  0  0  0  0  0  0  0  0  0
   37.1490   29.7460   51.5660 C   0  0  0  0  0  0  0  0  0  0  0  0
   37.7910   30.6730   50.7760 C   0  0  0  0  0  0  0  0  0  0  0  0
   37.1610   31.2960   49.6780 C   0  0  0  0  0  0  0  0  0  0  0  0
   35.9220   30.9450   49.4430 N   0  0  0  0  0  0  0  0  0  0  0  0
   35.2930   30.0180   50.2430 C   0  0  0  0  0  0  0  0  0  0  0  0
   35.8710   29.4260   51.2740 N   0  0  0  0  0  0  0  0  0  0  0  0
   33.5520   28.5070   49.2730 C   0  0  0  0  0  0  0  0  0  0  0  0
   34.4860   27.7010   49.0130 O   0  0  0  0  0  0  0  0  0  0  0  0
   33.9470   29.7050   49.9060 N   0  0  0  0  0  0  0  0  0  0  0  0
   37.2146   32.7593   47.1304 H   0  0  0  0  0  0  0  0  0  0  0  0
   38.6422   29.8356   47.9987 H   0  0  0  0  0  0  0  0  0  0  0  0
   37.8952   29.6095   46.6690 H   0  0  0  0  0  0  0  0  0  0  0  0
   40.2009   32.0539   46.9739 H   0  0  0  0  0  0  0  0  0  0  0  0
   38.8362   33.8490   45.2684 H   0  0  0  0  0  0  0  0  0  0  0  0
   39.3107   34.0294   42.8475 H   0  0  0  0  0  0  0  0  0  0  0  0
   40.2019   32.1056   41.5610 H   0  0  0  0  0  0  0  0  0  0  0  0
   40.6207   29.9478   42.7457 H   0  0  0  0  0  0  0  0  0  0  0  0
   38.8099   31.6034   49.0214 H   0  0  0  0  0  0  0  0  0  0  0  0
   38.5234   33.1968   50.3747 H   0  0  0  0  0  0  0  0  0  0  0  0
   37.6661   29.2768   52.4160 H   0  0  0  0  0  0  0  0  0  0  0  0
   38.8329   30.9375   51.0093 H   0  0  0  0  0  0  0  0  0  0  0  0
   32.5025   28.2915   49.0239 H   0  0  0  0  0  0  0  0  0  0  0  0
   33.2170   30.3937   50.1378 H   0  0  0  0  0  0  0  0  0  0  0  0
  1 10  1  0
  2  1  1  0
  3  2  1  0
  3  1  1  0
  4  3  1  0
  5  4  2  0
  6  5  1  0
  7  8  1  0
  7  6  2  0
  8  9  2  0
  9  4  1  0
 10 11  1  0
 10 14  1  0
 13 12  2  0
 14 13  1  0
 15 14  2  0
 15 16  1  0
 16 17  2  0
 17 12  1  0
 18 20  1  0
 19 18  2  0
 20 16  1  0
  1 21  1  6
  2 22  1  0
  2 23  1  0
  3 24  1  1
  5 25  1  0
  6 26  1  0
  7 27  1  0
  8 28  1  0
 10 29  1  0
 11 30  1  0
 12 31  1  0
 13 32  1  0
 18 33  1  0
 20 34  1  0
M  ISO  8  21  13  22  13  23  13  24  13  25  14  26  14  27  14  28  14
M  ISO  5  29   8  30   3  31  14  32  14  33   6
M  END
>  <minimizedAffinity>  (1) 
-6.50164366

>  <minimizedRMSD>  (1) 
0.130912229

$$$$
