
     RDKit          3D

 40 43  0  0  1  0  0  0  0  0999 V2000
   38.7930   32.1240   47.4950 C   0  0  0  0  0  0  0  0  0  0  0  0
   39.4490   33.1880   47.8280 O   0  0  0  0  0  0  0  0  0  0  0  0
   37.5410   30.6520   50.6830 C   0  0  0  0  0  0  0  0  0  0  0  0
   38.2860   31.3440   49.7550 C   0  0  0  0  0  0  0  0  0  0  0  0
   37.9380   31.4010   48.3890 C   0  0  0  0  0  0  0  0  0  0  0  0
   36.8570   30.7570   48.0380 N   0  0  0  0  0  0  0  0  0  0  0  0
   36.1180   30.0660   48.9790 C   0  0  0  0  0  0  0  0  0  0  0  0
   36.4400   30.0090   50.2600 N   0  0  0  0  0  0  0  0  0  0  0  0
   35.5780   30.1300   45.9740 Cl  0  0  0  0  0  0  0  0  0  0  0  0
   34.5730   29.3310   47.1680 C   0  0  0  0  0  0  0  0  0  0  0  0
   34.9260   29.3750   48.5010 C   0  0  0  0  0  0  0  0  0  0  0  0
   34.0850   28.7230   49.3860 C   0  0  0  0  0  0  0  0  0  0  0  0
   32.9310   28.0360   49.0510 C   0  0  0  0  0  0  0  0  0  0  0  0
   32.6340   28.0270   47.7220 C   0  0  0  0  0  0  0  0  0  0  0  0
   33.4160   28.6530   46.7700 C   0  0  0  0  0  0  0  0  0  0  0  0
   38.9350   31.6000   46.0850 C   0  0  2  0  0  0  0  0  0  0  0  0
   40.4690   31.1970   45.8950 C   0  0  0  0  0  0  0  0  0  0  0  0
   39.7510   32.2840   45.1380 C   0  0  1  0  0  0  0  0  0  0  0  0
   39.7050   32.1170   43.6820 C   0  0  0  0  0  0  0  0  0  0  0  0
   39.0000   33.0400   42.9530 C   0  0  0  0  0  0  0  0  0  0  0  0
   38.9570   32.8850   41.5880 C   0  0  0  0  0  0  0  0  0  0  0  0
   39.6010   31.8340   40.9510 C   0  0  0  0  0  0  0  0  0  0  0  0
   40.2950   30.9330   41.7130 C   0  0  0  0  0  0  0  0  0  0  0  0
   40.3290   31.0950   43.0470 N   0  0  0  0  0  0  0  0  0  0  0  0
   39.6448   31.5014   47.8062 H   0  0  0  0  0  0  0  0  0  0  0  0
   39.4902   33.2549   48.8149 H   0  0  0  0  0  0  0  0  0  0  0  0
   37.8390   30.6263   51.7416 H   0  0  0  0  0  0  0  0  0  0  0  0
   39.1891   31.8739   50.0922 H   0  0  0  0  0  0  0  0  0  0  0  0
   34.3582   28.7535   50.4511 H   0  0  0  0  0  0  0  0  0  0  0  0
   32.3015   27.5353   49.8014 H   0  0  0  0  0  0  0  0  0  0  0  0
   31.7291   27.4965   47.3907 H   0  0  0  0  0  0  0  0  0  0  0  0
   33.1310   28.6184   45.7081 H   0  0  0  0  0  0  0  0  0  0  0  0
   37.9182   31.1940   45.9792 H   0  0  0  0  0  0  0  0  0  0  0  0
   41.2167   31.4435   46.6632 H   0  0  0  0  0  0  0  0  0  0  0  0
   41.0427   30.2893   45.6564 H   0  0  0  0  0  0  0  0  0  0  0  0
   39.8562   33.3695   44.9944 H   0  0  0  0  0  0  0  0  0  0  0  0
   38.4850   33.8782   43.4452 H   0  0  0  0  0  0  0  0  0  0  0  0
   38.3968   33.6140   40.9841 H   0  0  0  0  0  0  0  0  0  0  0  0
   39.5549   31.7270   39.8572 H   0  0  0  0  0  0  0  0  0  0  0  0
   40.8175   30.0883   41.2403 H   0  0  0  0  0  0  0  0  0  0  0  0
  1  2  1  0
  1  5  1  0
  4  3  2  0
  5  4  1  0
  6  5  2  0
  6  7  1  0
  7  8  2  0
  8  3  1  0
  9 10  1  0
 10 11  2  0
 11  7  1  0
 11 12  1  0
 13 12  2  0
 14 13  1  0
 15 10  1  0
 15 14  2  0
 16  1  1  0
 17 16  1  0
 18 17  1  0
 18 16  1  0
 19 18  1  0
 20 19  2  0
 21 20  1  0
 22 21  2  0
 22 23  1  0
 23 24  2  0
 24 19  1  0
  1 25  1  0
  2 26  1  0
  3 27  1  0
  4 28  1  0
 12 29  1  0
 13 30  1  0
 14 31  1  0
 15 32  1  0
 16 33  1  6
 17 34  1  0
 17 35  1  0
 18 36  1  6
 20 37  1  0
 21 38  1  0
 22 39  1  0
 23 40  1  0
M  ISO  8  25   8  26   3  27  14  28  14  29  14  30  14  31  14  32  14
M  ISO  8  33  13  34  13  35  13  36  13  37  14  38  14  39  14  40  14
M  END
>  <minimizedAffinity>  (1) 
-6.45272303

>  <minimizedRMSD>  (1) 
1.87269175

$$$$
