
     RDKit          3D

 47 50  0  0  1  0  0  0  0  0999 V2000
   37.5950   30.2180   51.4190 C   0  0  0  0  0  0  0  0  0  0  0  0
   38.2040   31.0710   50.5260 C   0  0  0  0  0  0  0  0  0  0  0  0
   37.5720   31.5100   49.3450 C   0  0  0  0  0  0  0  0  0  0  0  0
   36.3600   31.0610   49.1390 N   0  0  0  0  0  0  0  0  0  0  0  0
   35.7630   30.2100   50.0370 C   0  0  0  0  0  0  0  0  0  0  0  0
   36.3540   29.7920   51.1530 N   0  0  0  0  0  0  0  0  0  0  0  0
   34.3650   28.2250   49.5280 C   0  0  1  0  0  0  0  0  0  0  0  0
   34.3820   29.7000   49.7970 C   0  0  2  0  0  0  0  0  0  0  0  0
   33.8770   30.4340   48.7080 O   0  0  0  0  0  0  0  0  0  0  0  0
   34.3840   29.8850   47.5150 C   0  0  0  0  0  0  0  0  0  0  0  0
   33.5100   28.6830   47.2180 C   0  0  2  0  0  0  0  0  0  0  0  0
   33.2450   27.9750   48.5280 C   0  0  2  0  0  0  0  0  0  0  0  0
   35.5700   27.6940   49.1330 O   0  0  0  0  0  0  0  0  0  0  0  0
   34.0250   27.8580   46.2370 O   0  0  0  0  0  0  0  0  0  0  0  0
   32.0920   28.5750   49.0750 O   0  0  0  0  0  0  0  0  0  0  0  0
   38.2940   32.3750   48.4600 C   0  0  0  0  0  0  0  0  0  0  0  0
   39.0070   33.3780   48.8540 O   0  0  0  0  0  0  0  0  0  0  0  0
   38.2150   32.0820   46.9810 C   0  0  2  0  0  0  0  0  0  0  0  0
   38.6640   30.5690   46.7770 C   0  0  0  0  0  0  0  0  0  0  0  0
   39.3900   31.7750   46.2350 C   0  0  1  0  0  0  0  0  0  0  0  0
   39.5290   31.8230   44.7800 C   0  0  0  0  0  0  0  0  0  0  0  0
   38.8820   32.8500   44.1110 C   0  0  0  0  0  0  0  0  0  0  0  0
   39.0090   32.9050   42.7420 C   0  0  0  0  0  0  0  0  0  0  0  0
   39.7580   31.9680   42.0440 C   0  0  0  0  0  0  0  0  0  0  0  0
   40.3880   30.9590   42.7500 C   0  0  0  0  0  0  0  0  0  0  0  0
   40.2560   30.9170   44.0850 N   0  0  0  0  0  0  0  0  0  0  0  0
   38.1169   29.8936   52.3313 H   0  0  0  0  0  0  0  0  0  0  0  0
   39.2232   31.4235   50.7426 H   0  0  0  0  0  0  0  0  0  0  0  0
   34.1775   27.6908   50.4711 H   0  0  0  0  0  0  0  0  0  0  0  0
   33.7553   29.8355   50.6908 H   0  0  0  0  0  0  0  0  0  0  0  0
   34.3203   30.6179   46.6972 H   0  0  0  0  0  0  0  0  0  0  0  0
   35.4432   29.6048   47.6129 H   0  0  0  0  0  0  0  0  0  0  0  0
   32.5563   29.0183   46.7845 H   0  0  0  0  0  0  0  0  0  0  0  0
   33.1496   26.8945   48.3454 H   0  0  0  0  0  0  0  0  0  0  0  0
   36.1047   27.4584   49.9322 H   0  0  0  0  0  0  0  0  0  0  0  0
   34.4990   27.0986   46.6598 H   0  0  0  0  0  0  0  0  0  0  0  0
   32.1434   28.5483   50.0633 H   0  0  0  0  0  0  0  0  0  0  0  0
   39.1739   31.7193   48.5369 H   0  0  0  0  0  0  0  0  0  0  0  0
   39.0242   33.4022   49.8436 H   0  0  0  0  0  0  0  0  0  0  0  0
   37.3914   32.7729   46.7479 H   0  0  0  0  0  0  0  0  0  0  0  0
   39.0817   29.9870   47.6117 H   0  0  0  0  0  0  0  0  0  0  0  0
   38.2251   29.6431   46.3769 H   0  0  0  0  0  0  0  0  0  0  0  0
   40.3875   32.2293   46.3274 H   0  0  0  0  0  0  0  0  0  0  0  0
   38.2864   33.5967   44.6566 H   0  0  0  0  0  0  0  0  0  0  0  0
   38.5051   33.7105   42.1878 H   0  0  0  0  0  0  0  0  0  0  0  0
   39.8490   32.0267   40.9493 H   0  0  0  0  0  0  0  0  0  0  0  0
   40.9886   30.2018   42.2248 H   0  0  0  0  0  0  0  0  0  0  0  0
  2  1  2  0
  3  2  1  0
  4  3  2  0
  4  5  1  0
  5  6  2  0
  6  1  1  0
  7 13  1  0
  7  8  1  0
  8  5  1  0
  9  8  1  0
 10  9  1  0
 11 14  1  0
 11 10  1  0
 11 12  1  0
 12 15  1  0
 12  7  1  0
 16 17  1  0
 16  3  1  0
 18 16  1  0
 19 18  1  0
 20 19  1  0
 20 18  1  0
 21 20  1  0
 22 21  2  0
 23 22  1  0
 24 23  2  0
 24 25  1  0
 25 26  2  0
 26 21  1  0
  1 27  1  0
  2 28  1  0
  7 29  1  1
  8 30  1  1
 10 31  1  0
 10 32  1  0
 11 33  1  6
 12 34  1  6
 13 35  1  0
 14 36  1  0
 15 37  1  0
 16 38  1  0
 17 39  1  0
 18 40  1  6
 19 41  1  0
 19 42  1  0
 20 43  1  1
 22 44  1  0
 23 45  1  0
 24 46  1  0
 25 47  1  0
M  ISO  8  27  14  28  14  29  13  30  13  31  13  32  13  33  13  34  13
M  ISO  8  35   3  36   3  37   3  38   8  39   3  40  13  41  13  42  13
M  ISO  5  43  13  44  14  45  14  46  14  47  14
M  END
>  <minimizedAffinity>  (1) 
-6.35630465

>  <minimizedRMSD>  (1) 
1.03872192

$$$$
