
     RDKit          3D

 36 39  0  0  1  0  0  0  0  0999 V2000
   38.9200   31.6500   46.0860 C   0  0  2  0  0  0  0  0  0  0  0  0
   40.4280   31.1730   45.8960 C   0  0  0  0  0  0  0  0  0  0  0  0
   39.7690   32.2970   45.1380 C   0  0  1  0  0  0  0  0  0  0  0  0
   39.7120   32.1240   43.6830 C   0  0  0  0  0  0  0  0  0  0  0  0
   39.0090   33.0560   42.9510 C   0  0  0  0  0  0  0  0  0  0  0  0
   38.9650   32.8860   41.5900 C   0  0  0  0  0  0  0  0  0  0  0  0
   39.5950   31.8260   40.9560 C   0  0  0  0  0  0  0  0  0  0  0  0
   40.2830   30.9190   41.7150 C   0  0  0  0  0  0  0  0  0  0  0  0
   40.3320   31.0780   43.0460 N   0  0  0  0  0  0  0  0  0  0  0  0
   38.8020   32.1830   47.4950 C   0  0  0  0  0  0  0  0  0  0  0  0
   39.4570   33.2540   47.8080 O   0  0  0  0  0  0  0  0  0  0  0  0
   37.6220   30.7270   50.7180 C   0  0  0  0  0  0  0  0  0  0  0  0
   38.3440   31.4170   49.7720 C   0  0  0  0  0  0  0  0  0  0  0  0
   37.9710   31.4600   48.4120 C   0  0  0  0  0  0  0  0  0  0  0  0
   36.8890   30.8040   48.0840 N   0  0  0  0  0  0  0  0  0  0  0  0
   36.1720   30.1160   49.0440 C   0  0  0  0  0  0  0  0  0  0  0  0
   36.5190   30.0730   50.3200 N   0  0  0  0  0  0  0  0  0  0  0  0
   34.9550   29.3820   48.6640 C   0  0  0  0  0  0  0  0  0  0  0  0
   34.3300   28.2750   49.4400 C   0  0  0  0  0  0  0  0  0  0  0  0
   32.9320   27.8460   48.4510 S   0  0  0  0  0  0  0  0  0  0  0  0
   33.3370   29.1670   47.1450 C   0  0  0  0  0  0  0  0  0  0  0  0
   34.3060   29.6750   47.5500 N   0  0  0  0  0  0  0  0  0  0  0  0
   37.8853   31.2918   45.9805 H   0  0  0  0  0  0  0  0  0  0  0  0
   41.1862   31.3802   46.6655 H   0  0  0  0  0  0  0  0  0  0  0  0
   40.9547   30.2375   45.6564 H   0  0  0  0  0  0  0  0  0  0  0  0
   39.9299   33.3757   44.9949 H   0  0  0  0  0  0  0  0  0  0  0  0
   38.5032   33.9026   43.4382 H   0  0  0  0  0  0  0  0  0  0  0  0
   38.4110   33.6157   40.9812 H   0  0  0  0  0  0  0  0  0  0  0  0
   39.5426   31.7162   39.8627 H   0  0  0  0  0  0  0  0  0  0  0  0
   40.7910   30.0677   41.2383 H   0  0  0  0  0  0  0  0  0  0  0  0
   39.6618   31.5682   47.7996 H   0  0  0  0  0  0  0  0  0  0  0  0
   39.5063   33.3345   48.7935 H   0  0  0  0  0  0  0  0  0  0  0  0
   37.9394   30.7115   51.7711 H   0  0  0  0  0  0  0  0  0  0  0  0
   39.2485   31.9570   50.0886 H   0  0  0  0  0  0  0  0  0  0  0  0
   34.6581   27.8341   50.3929 H   0  0  0  0  0  0  0  0  0  0  0  0
   32.7856   29.3986   46.2218 H   0  0  0  0  0  0  0  0  0  0  0  0
  1 10  1  0
  2  1  1  0
  3  2  1  0
  3  1  1  0
  4  3  1  0
  5  4  2  0
  6  5  1  0
  7  6  2  0
  7  8  1  0
  8  9  2  0
  9  4  1  0
 10 11  1  0
 10 14  1  0
 13 12  2  0
 14 13  1  0
 15 14  2  0
 15 16  1  0
 16 17  2  0
 17 12  1  0
 18 16  1  0
 18 19  2  0
 20 19  1  0
 21 22  2  0
 21 20  1  0
 22 18  1  0
  1 23  1  6
  2 24  1  0
  2 25  1  0
  3 26  1  6
  5 27  1  0
  6 28  1  0
  7 29  1  0
  8 30  1  0
 10 31  1  0
 11 32  1  0
 12 33  1  0
 13 34  1  0
 19 35  1  0
 21 36  1  0
M  ISO  8  23  13  24  13  25  13  26  13  27  14  28  14  29  14  30  14
M  ISO  6  31   8  32   3  33  14  34  14  35  14  36  14
M  END
>  <minimizedAffinity>  (1) 
-5.84079552

>  <minimizedRMSD>  (1) 
1.78124893

$$$$
