
     RDKit          3D

 33 35  0  0  1  0  0  0  0  0999 V2000
   38.0100   32.0250   47.2150 C   0  0  2  0  0  0  0  0  0  0  0  0
   38.5650   30.5410   47.0620 C   0  0  0  0  0  0  0  0  0  0  0  0
   39.2570   31.7830   46.5650 C   0  0  1  0  0  0  0  0  0  0  0  0
   39.4990   31.8280   45.1220 C   0  0  0  0  0  0  0  0  0  0  0  0
   39.0470   32.9400   44.4220 C   0  0  0  0  0  0  0  0  0  0  0  0
   39.2820   32.9620   43.0740 C   0  0  0  0  0  0  0  0  0  0  0  0
   39.9340   31.9470   42.4080 C   0  0  0  0  0  0  0  0  0  0  0  0
   40.3660   30.8630   43.1380 C   0  0  0  0  0  0  0  0  0  0  0  0
   40.1430   30.8250   44.4660 N   0  0  0  0  0  0  0  0  0  0  0  0
   37.9640   32.3310   48.6940 C   0  0  0  0  0  0  0  0  0  0  0  0
   38.5250   33.4170   49.1140 O   0  0  0  0  0  0  0  0  0  0  0  0
   37.4580   29.9550   51.5220 C   0  0  0  0  0  0  0  0  0  0  0  0
   38.0020   30.8800   50.6600 C   0  0  0  0  0  0  0  0  0  0  0  0
   37.3010   31.3890   49.5460 C   0  0  0  0  0  0  0  0  0  0  0  0
   36.0890   30.9350   49.3650 N   0  0  0  0  0  0  0  0  0  0  0  0
   35.5560   30.0070   50.2360 C   0  0  0  0  0  0  0  0  0  0  0  0
   36.2090   29.5190   51.2920 N   0  0  0  0  0  0  0  0  0  0  0  0
   34.1670   29.4980   50.0120 C   0  0  0  0  0  0  0  0  0  0  0  0
   37.1657   32.6619   46.9125 H   0  0  0  0  0  0  0  0  0  0  0  0
   38.9508   29.9906   47.9328 H   0  0  0  0  0  0  0  0  0  0  0  0
   38.2149   29.5879   46.6389 H   0  0  0  0  0  0  0  0  0  0  0  0
   40.2162   32.2957   46.7294 H   0  0  0  0  0  0  0  0  0  0  0  0
   38.5242   33.7649   44.9282 H   0  0  0  0  0  0  0  0  0  0  0  0
   38.9342   33.8303   42.4952 H   0  0  0  0  0  0  0  0  0  0  0  0
   40.1046   32.0016   41.3227 H   0  0  0  0  0  0  0  0  0  0  0  0
   40.8897   30.0335   42.6404 H   0  0  0  0  0  0  0  0  0  0  0  0
   38.9098   31.7876   48.8359 H   0  0  0  0  0  0  0  0  0  0  0  0
   38.5290   33.4248   50.1040 H   0  0  0  0  0  0  0  0  0  0  0  0
   38.0342   29.5809   52.3811 H   0  0  0  0  0  0  0  0  0  0  0  0
   39.0254   31.2372   50.8472 H   0  0  0  0  0  0  0  0  0  0  0  0
   33.6808   29.3198   50.9825 H   0  0  0  0  0  0  0  0  0  0  0  0
   33.5905   30.2433   49.4444 H   0  0  0  0  0  0  0  0  0  0  0  0
   34.2085   28.5567   49.4444 H   0  0  0  0  0  0  0  0  0  0  0  0
  1 10  1  0
  2  1  1  0
  3  2  1  0
  3  1  1  0
  4  3  1  0
  5  4  2  0
  6  5  1  0
  7  6  2  0
  7  8  1  0
  8  9  2  0
  9  4  1  0
 10 11  1  0
 10 14  1  0
 13 12  2  0
 14 13  1  0
 15 14  2  0
 15 16  1  0
 16 17  2  0
 17 12  1  0
 18 16  1  0
  1 19  1  6
  2 20  1  0
  2 21  1  0
  3 22  1  1
  5 23  1  0
  6 24  1  0
  7 25  1  0
  8 26  1  0
 10 27  1  0
 11 28  1  0
 12 29  1  0
 13 30  1  0
 18 31  1  0
 18 32  1  0
 18 33  1  0
M  ISO  8  19  13  20  13  21  13  22  13  23  14  24  14  25  14  26  14
M  ISO  7  27   8  28   3  29  14  30  14  31   8  32   8  33   8
M  END
>  <minimizedAffinity>  (1) 
-5.83873892

>  <minimizedRMSD>  (1) 
0.3328273

$$$$
