
     RDKit          3D

 30 32  0  0  1  0  0  0  0  0999 V2000
   37.9230   32.0070   47.3630 C   0  0  2  0  0  0  0  0  0  0  0  0
   38.2610   30.5300   47.1200 C   0  0  0  0  0  0  0  0  0  0  0  0
   39.2230   31.6750   46.7670 C   0  0  1  0  0  0  0  0  0  0  0  0
   39.4680   31.8110   45.3230 C   0  0  0  0  0  0  0  0  0  0  0  0
   38.9690   32.8790   44.5760 C   0  0  0  0  0  0  0  0  0  0  0  0
   39.2480   32.9000   43.2430 C   0  0  0  0  0  0  0  0  0  0  0  0
   39.9830   31.9380   42.6080 C   0  0  0  0  0  0  0  0  0  0  0  0
   40.4700   30.8830   43.3700 C   0  0  0  0  0  0  0  0  0  0  0  0
   40.2040   30.8450   44.6980 N   0  0  0  0  0  0  0  0  0  0  0  0
   37.7790   32.3080   48.8040 C   0  0  0  0  0  0  0  0  0  0  0  0
   38.1630   33.4460   49.2000 O   0  0  0  0  0  0  0  0  0  0  0  0
   37.3500   29.8740   51.6020 C   0  0  0  0  0  0  0  0  0  0  0  0
   37.9260   30.8340   50.7690 C   0  0  0  0  0  0  0  0  0  0  0  0
   37.2080   31.3030   49.6860 C   0  0  0  0  0  0  0  0  0  0  0  0
   35.9750   30.8050   49.4840 N   0  0  0  0  0  0  0  0  0  0  0  0
   35.4460   29.8690   50.3190 C   0  0  0  0  0  0  0  0  0  0  0  0
   36.1020   29.3980   51.3650 N   0  0  0  0  0  0  0  0  0  0  0  0
   34.1020   29.4230   49.9780 C   0  0  0  0  0  0  0  0  0  0  0  0
   33.9170   28.3070   49.4260 O   0  0  0  0  0  0  0  0  0  0  0  0
   37.1675   32.7451   47.0559 H   0  0  0  0  0  0  0  0  0  0  0  0
   38.4770   29.8607   47.9658 H   0  0  0  0  0  0  0  0  0  0  0  0
   37.7992   29.6870   46.5851 H   0  0  0  0  0  0  0  0  0  0  0  0
   40.2414   31.9980   47.0290 H   0  0  0  0  0  0  0  0  0  0  0  0
   38.3724   33.6745   45.0464 H   0  0  0  0  0  0  0  0  0  0  0  0
   38.8604   33.7374   42.6442 H   0  0  0  0  0  0  0  0  0  0  0  0
   40.1826   31.9972   41.5279 H   0  0  0  0  0  0  0  0  0  0  0  0
   41.0655   30.0866   42.8998 H   0  0  0  0  0  0  0  0  0  0  0  0
   37.9176   29.4968   52.4655 H   0  0  0  0  0  0  0  0  0  0  0  0
   38.9387   31.2124   50.9721 H   0  0  0  0  0  0  0  0  0  0  0  0
   33.2402   30.0678   50.2051 H   0  0  0  0  0  0  0  0  0  0  0  0
  1 10  1  0
  2  1  1  0
  3  2  1  0
  3  1  1  0
  4  3  1  0
  5  4  2  0
  6  5  1  0
  7  6  2  0
  7  8  1  0
  8  9  2  0
  9  4  1  0
 10 11  2  0
 10 14  1  0
 13 12  2  0
 14 13  1  0
 15 14  2  0
 15 16  1  0
 16 17  2  0
 17 12  1  0
 18 16  1  0
 19 18  2  0
  1 20  1  6
  2 21  1  0
  2 22  1  0
  3 23  1  1
  5 24  1  0
  6 25  1  0
  7 26  1  0
  8 27  1  0
 12 28  1  0
 13 29  1  0
 18 30  1  0
M  ISO  8  20  13  21  13  22  13  23  13  24  14  25  14  26  14  27  14
M  ISO  3  28  14  29  14  30   6
M  END
>  <minimizedAffinity>  (1) 
-5.79145098

>  <minimizedRMSD>  (1) 
0.502804637

$$$$
