
     RDKit          3D

 48 52  0  0  1  0  0  0  0  0999 V2000
   37.7690   30.9200   50.6550 C   0  0  0  0  0  0  0  0  0  0  0  0
   38.4790   31.5750   49.6740 C   0  0  0  0  0  0  0  0  0  0  0  0
   38.1340   31.5030   48.3160 C   0  0  0  0  0  0  0  0  0  0  0  0
   37.0920   30.7830   48.0060 N   0  0  0  0  0  0  0  0  0  0  0  0
   36.3910   30.1350   48.9910 C   0  0  0  0  0  0  0  0  0  0  0  0
   36.7200   30.2020   50.2740 N   0  0  0  0  0  0  0  0  0  0  0  0
   35.2050   29.3470   48.6620 C   0  0  0  0  0  0  0  0  0  0  0  0
   34.7760   28.1250   49.1060 C   0  0  0  0  0  0  0  0  0  0  0  0
   33.6210   27.5990   48.6700 C   0  0  0  0  0  0  0  0  0  0  0  0
   32.9080   28.3790   47.7480 C   0  0  0  0  0  0  0  0  0  0  0  0
   33.9500   29.8840   47.5340 S   0  0  0  0  0  0  0  0  0  0  0  0
   31.6870   28.1840   47.0740 N   0  0  0  0  0  0  0  0  0  0  0  0
   31.7780   28.2590   45.7220 C   0  0  0  0  0  0  0  0  0  0  0  0
   30.6310   28.0810   44.9570 C   0  0  0  0  0  0  0  0  0  0  0  0
   29.4340   27.8320   45.6300 C   0  0  0  0  0  0  0  0  0  0  0  0
   28.2380   27.6460   44.8550 N   0  0  0  0  0  0  0  0  0  0  0  0
   29.3870   27.7650   46.9810 N   0  0  0  0  0  0  0  0  0  0  0  0
   30.5210   27.9430   47.7060 C   0  0  0  0  0  0  0  0  0  0  0  0
   30.5040   27.8850   48.9780 O   0  0  0  0  0  0  0  0  0  0  0  0
   39.0470   32.1610   47.4220 C   0  0  1  0  0  0  0  0  0  0  0  0
   39.1290   31.6000   46.0160 C   0  0  2  0  0  0  0  0  0  0  0  0
   40.5900   31.2250   45.7760 C   0  0  0  0  0  0  0  0  0  0  0  0
   39.8890   32.2830   45.0000 C   0  0  1  0  0  0  0  0  0  0  0  0
   39.8250   32.0090   43.5570 C   0  0  0  0  0  0  0  0  0  0  0  0
   39.1170   32.8860   42.7740 C   0  0  0  0  0  0  0  0  0  0  0  0
   39.0930   32.6270   41.4280 C   0  0  0  0  0  0  0  0  0  0  0  0
   39.7350   31.5480   40.8480 C   0  0  0  0  0  0  0  0  0  0  0  0
   40.4400   30.6830   41.6740 C   0  0  0  0  0  0  0  0  0  0  0  0
   40.4690   30.9300   42.9960 N   0  0  0  0  0  0  0  0  0  0  0  0
   39.2840   33.4400   47.4880 O   0  0  0  0  0  0  0  0  0  0  0  0
   38.0600   30.9891   51.7136 H   0  0  0  0  0  0  0  0  0  0  0  0
   39.3510   32.1785   49.9664 H   0  0  0  0  0  0  0  0  0  0  0  0
   35.3868   27.5664   49.8305 H   0  0  0  0  0  0  0  0  0  0  0  0
   33.2570   26.6195   49.0135 H   0  0  0  0  0  0  0  0  0  0  0  0
   32.7457   28.4578   45.2383 H   0  0  0  0  0  0  0  0  0  0  0  0
   30.6657   28.1346   43.8589 H   0  0  0  0  0  0  0  0  0  0  0  0
   27.3417   27.4609   45.3275 H   0  0  0  0  0  0  0  0  0  0  0  0
   28.2772   27.6978   43.8270 H   0  0  0  0  0  0  0  0  0  0  0  0
   39.9287   31.8205   47.9847 H   0  0  0  0  0  0  0  0  0  0  0  0
   38.1152   31.1757   45.9698 H   0  0  0  0  0  0  0  0  0  0  0  0
   41.3627   31.4923   46.5119 H   0  0  0  0  0  0  0  0  0  0  0  0
   41.1462   30.3051   45.5426 H   0  0  0  0  0  0  0  0  0  0  0  0
   39.9675   33.3631   44.8069 H   0  0  0  0  0  0  0  0  0  0  0  0
   38.5950   33.7532   43.2048 H   0  0  0  0  0  0  0  0  0  0  0  0
   38.5338   33.3133   40.7751 H   0  0  0  0  0  0  0  0  0  0  0  0
   39.6883   31.3798   39.7619 H   0  0  0  0  0  0  0  0  0  0  0  0
   40.9651   29.8119   41.2552 H   0  0  0  0  0  0  0  0  0  0  0  0
   39.3354   33.7175   48.4369 H   0  0  0  0  0  0  0  0  0  0  0  0
  2  1  2  0
  3  2  1  0
  4  3  2  0
  4  5  1  0
  5  6  2  0
  6  1  1  0
  7  5  1  0
  7  8  2  0
  9  8  1  0
 10  9  2  0
 11 10  1  0
 11  7  1  0
 12 18  1  0
 12 10  1  0
 13 12  1  0
 14 15  1  0
 14 13  2  0
 15 17  2  0
 16 15  1  0
 17 18  1  0
 18 19  2  0
 20 30  1  0
 20  3  1  0
 21 20  1  0
 22 21  1  0
 23 22  1  0
 23 21  1  0
 24 23  1  0
 25 24  2  0
 26 25  1  0
 27 26  2  0
 27 28  1  0
 28 29  2  0
 29 24  1  0
  1 31  1  0
  2 32  1  0
  8 33  1  0
  9 34  1  0
 13 35  1  0
 14 36  1  0
 16 37  1  0
 16 38  1  0
 20 39  1  1
 21 40  1  6
 22 41  1  0
 22 42  1  0
 23 43  1  6
 25 44  1  0
 26 45  1  0
 27 46  1  0
 28 47  1  0
 30 48  1  0
M  ISO  8  31  14  32  14  33  14  34  14  35  14  36  14  39   8  40  13
M  ISO  8  41  13  42  13  43  13  44  14  45  14  46  14  47  14  48   3
M  END
>  <minimizedAffinity>  (1) 
-6.9318552

>  <minimizedRMSD>  (1) 
0.444857717

$$$$
