
     RDKit          3D

 44 48  0  0  1  0  0  0  0  0999 V2000
   37.6410   30.7320   50.6890 C   0  0  0  0  0  0  0  0  0  0  0  0
   38.3790   31.4030   49.7370 C   0  0  0  0  0  0  0  0  0  0  0  0
   38.0450   31.3910   48.3790 C   0  0  0  0  0  0  0  0  0  0  0  0
   36.9850   30.7130   48.0310 N   0  0  0  0  0  0  0  0  0  0  0  0
   36.2560   30.0490   48.9830 C   0  0  0  0  0  0  0  0  0  0  0  0
   36.5720   30.0550   50.2750 N   0  0  0  0  0  0  0  0  0  0  0  0
   35.0590   29.3070   48.6020 C   0  0  0  0  0  0  0  0  0  0  0  0
   34.4990   28.1550   49.1520 C   0  0  0  0  0  0  0  0  0  0  0  0
   33.3560   27.6670   48.6430 C   0  0  0  0  0  0  0  0  0  0  0  0
   32.8020   28.3690   47.5760 C   0  0  0  0  0  0  0  0  0  0  0  0
   33.9710   29.7650   47.3120 S   0  0  0  0  0  0  0  0  0  0  0  0
   31.6170   28.1830   46.7710 C   0  0  0  0  0  0  0  0  0  0  0  0
   31.0910   26.9930   46.3300 C   0  0  0  0  0  0  0  0  0  0  0  0
   29.9920   27.3970   45.6270 N   0  0  0  0  0  0  0  0  0  0  0  0
   29.8570   28.7560   45.6390 C   0  0  0  0  0  0  0  0  0  0  0  0
   30.9030   29.2410   46.3740 N   0  0  0  0  0  0  0  0  0  0  0  0
   38.9740   32.0570   47.5120 C   0  0  1  0  0  0  0  0  0  0  0  0
   39.0830   31.5330   46.0990 C   0  0  2  0  0  0  0  0  0  0  0  0
   40.5560   31.1860   45.8730 C   0  0  0  0  0  0  0  0  0  0  0  0
   39.8440   32.2470   45.1060 C   0  0  1  0  0  0  0  0  0  0  0  0
   39.8050   31.9950   43.6580 C   0  0  0  0  0  0  0  0  0  0  0  0
   39.1220   32.8870   42.8710 C   0  0  0  0  0  0  0  0  0  0  0  0
   39.1230   32.6420   41.5220 C   0  0  0  0  0  0  0  0  0  0  0  0
   39.7690   31.5660   40.9400 C   0  0  0  0  0  0  0  0  0  0  0  0
   40.4470   30.6900   41.7700 C   0  0  0  0  0  0  0  0  0  0  0  0
   40.4530   30.9170   43.0960 N   0  0  0  0  0  0  0  0  0  0  0  0
   39.2130   33.3420   47.6080 O   0  0  0  0  0  0  0  0  0  0  0  0
   37.9250   30.7552   51.7514 H   0  0  0  0  0  0  0  0  0  0  0  0
   39.2652   31.9700   50.0582 H   0  0  0  0  0  0  0  0  0  0  0  0
   34.9897   27.6494   49.9967 H   0  0  0  0  0  0  0  0  0  0  0  0
   32.8825   26.7604   49.0478 H   0  0  0  0  0  0  0  0  0  0  0  0
   31.4618   25.9715   46.5003 H   0  0  0  0  0  0  0  0  0  0  0  0
   29.3446   26.7557   45.1469 H   0  0  0  0  0  0  0  0  0  0  0  0
   29.0640   29.3438   45.1536 H   0  0  0  0  0  0  0  0  0  0  0  0
   39.8394   31.6838   48.0792 H   0  0  0  0  0  0  0  0  0  0  0  0
   38.0759   31.0960   46.0294 H   0  0  0  0  0  0  0  0  0  0  0  0
   41.3141   31.4534   46.6239 H   0  0  0  0  0  0  0  0  0  0  0  0
   41.1317   30.2804   45.6311 H   0  0  0  0  0  0  0  0  0  0  0  0
   39.9046   33.3317   44.9336 H   0  0  0  0  0  0  0  0  0  0  0  0
   38.6000   33.7548   43.3004 H   0  0  0  0  0  0  0  0  0  0  0  0
   38.5804   33.3392   40.8666 H   0  0  0  0  0  0  0  0  0  0  0  0
   39.7446   31.4113   39.8512 H   0  0  0  0  0  0  0  0  0  0  0  0
   40.9738   29.8200   41.3510 H   0  0  0  0  0  0  0  0  0  0  0  0
   39.2607   33.5983   48.5630 H   0  0  0  0  0  0  0  0  0  0  0  0
  2  1  2  0
  3  2  1  0
  4  3  2  0
  4  5  1  0
  5  6  2  0
  6  1  1  0
  7  5  1  0
  7  8  2  0
  9  8  1  0
 10  9  2  0
 11 10  1  0
 11  7  1  0
 12 10  1  0
 13 12  2  0
 14 15  1  0
 14 13  1  0
 15 16  2  0
 16 12  1  0
 17 27  1  0
 17  3  1  0
 18 17  1  0
 19 18  1  0
 20 19  1  0
 20 18  1  0
 21 20  1  0
 22 21  2  0
 23 22  1  0
 24 23  2  0
 24 25  1  0
 25 26  2  0
 26 21  1  0
  1 28  1  0
  2 29  1  0
  8 30  1  0
  9 31  1  0
 13 32  1  0
 14 33  1  0
 15 34  1  0
 17 35  1  1
 18 36  1  6
 19 37  1  0
 19 38  1  0
 20 39  1  6
 22 40  1  0
 23 41  1  0
 24 42  1  0
 25 43  1  0
 27 44  1  0
M  ISO  8  28  14  29  14  30  14  31  14  32  14  33   9  34  14  35   8
M  ISO  8  36  13  37  13  38  13  39  13  40  14  41  14  42  14  43  14
M  ISO  1  44   3
M  END
>  <minimizedAffinity>  (1) 
-6.61830187

>  <minimizedRMSD>  (1) 
0.190800697

$$$$
