
     RDKit          3D

 24 26  0  0  0  0  0  0  0  0999 V2000
   37.4190   31.3230   48.3880 C   0  0  0  0  0  0  0  0  0  0  0  0
   36.7170   30.8400   47.2940 C   0  0  0  0  0  0  0  0  0  0  0  0
   37.2180   31.1930   46.0710 C   0  0  0  0  0  0  0  0  0  0  0  0
   38.3540   31.9790   45.9430 C   0  0  0  0  0  0  0  0  0  0  0  0
   39.0480   32.4650   44.9070 N   0  0  0  0  0  0  0  0  0  0  0  0
   40.0850   33.1830   45.3440 C   0  0  0  0  0  0  0  0  0  0  0  0
   40.0810   33.1740   46.7110 N   0  0  0  0  0  0  0  0  0  0  0  0
   39.0130   32.4320   47.0770 C   0  0  0  0  0  0  0  0  0  0  0  0
   38.5490   32.1050   48.3030 C   0  0  0  0  0  0  0  0  0  0  0  0
   35.5670   29.2880   48.7380 C   0  0  0  0  0  0  0  0  0  0  0  0
   35.5470   30.0310   47.5410 C   0  0  0  0  0  0  0  0  0  0  0  0
   34.4160   29.9090   46.7320 C   0  0  0  0  0  0  0  0  0  0  0  0
   33.4180   29.1000   47.1330 N   0  0  0  0  0  0  0  0  0  0  0  0
   33.4670   28.3970   48.2940 C   0  0  0  0  0  0  0  0  0  0  0  0
   34.5540   28.5020   49.0890 N   0  0  0  0  0  0  0  0  0  0  0  0
   31.9960   27.4150   48.5520 S   0  0  0  0  0  0  0  0  0  0  0  0
   37.0483   31.0641   49.3908 H   0  0  0  0  0  0  0  0  0  0  0  0
   36.7053   30.8435   45.1627 H   0  0  0  0  0  0  0  0  0  0  0  0
   38.8156   32.3078   43.9160 H   0  0  0  0  0  0  0  0  0  0  0  0
   40.8214   33.6972   44.7089 H   0  0  0  0  0  0  0  0  0  0  0  0
   39.0615   32.4550   49.2112 H   0  0  0  0  0  0  0  0  0  0  0  0
   36.4433   29.3602   49.3990 H   0  0  0  0  0  0  0  0  0  0  0  0
   34.3419   30.4635   45.7849 H   0  0  0  0  0  0  0  0  0  0  0  0
   31.7752   27.2676   49.8960 H   0  0  0  0  0  0  0  0  0  0  0  0
  2 11  1  0
  2  1  2  0
  3  2  1  0
  4  3  2  0
  4  8  1  0
  5  6  1  0
  5  4  1  0
  6  7  2  0
  7  8  1  0
  8  9  2  0
  9  1  1  0
 10 15  2  0
 11 10  1  0
 12 13  1  0
 12 11  2  0
 13 14  2  0
 14 16  1  0
 14 15  1  0
  1 17  1  0
  3 18  1  0
  5 19  1  0
  6 20  1  0
  9 21  1  0
 10 22  1  0
 12 23  1  0
 16 24  1  0
M  ISO  8  17  14  18  14  19   9  20  14  21  14  22  14  23  14  24  11
M  END
>  <minimizedAffinity>  (1) 
-5.07988024

>  <minimizedRMSD>  (1) 
0.813006341

$$$$
