
     RDKit          3D

 33 36  0  0  0  0  0  0  0  0999 V2000
   34.9380   28.8720   49.2150 C   0  0  0  0  0  0  0  0  0  0  0  0
   35.0150   29.8390   48.1940 C   0  0  0  0  0  0  0  0  0  0  0  0
   34.0140   29.8230   47.2160 C   0  0  0  0  0  0  0  0  0  0  0  0
   33.0370   28.8800   47.3170 N   0  0  0  0  0  0  0  0  0  0  0  0
   32.9880   27.9710   48.2980 C   0  0  0  0  0  0  0  0  0  0  0  0
   33.9460   27.9750   49.2470 N   0  0  0  0  0  0  0  0  0  0  0  0
   36.4010   31.3040   49.5380 C   0  0  0  0  0  0  0  0  0  0  0  0
   36.1350   30.7450   48.2870 C   0  0  0  0  0  0  0  0  0  0  0  0
   36.9660   31.1060   47.2360 C   0  0  0  0  0  0  0  0  0  0  0  0
   38.0160   31.9980   47.4690 C   0  0  0  0  0  0  0  0  0  0  0  0
   38.9550   32.5200   46.6830 N   0  0  0  0  0  0  0  0  0  0  0  0
   39.7450   33.3340   47.3700 C   0  0  0  0  0  0  0  0  0  0  0  0
   39.3140   33.3510   48.6480 N   0  0  0  0  0  0  0  0  0  0  0  0
   38.2520   32.5290   48.7030 C   0  0  0  0  0  0  0  0  0  0  0  0
   37.4380   32.1820   49.7600 C   0  0  0  0  0  0  0  0  0  0  0  0
   31.8680   26.9840   48.3030 C   0  0  0  0  0  0  0  0  0  0  0  0
   30.6130   27.6740   48.6580 C   0  0  0  0  0  0  0  0  0  0  0  0
   30.3170   28.0520   49.9540 C   0  0  0  0  0  0  0  0  0  0  0  0
   29.1240   28.6530   49.9950 N   0  0  0  0  0  0  0  0  0  0  0  0
   28.6730   28.6500   48.7150 C   0  0  0  0  0  0  0  0  0  0  0  0
   29.5630   28.0640   47.9160 N   0  0  0  0  0  0  0  0  0  0  0  0
   35.7077   28.8539   50.0006 H   0  0  0  0  0  0  0  0  0  0  0  0
   34.0165   30.5502   46.3907 H   0  0  0  0  0  0  0  0  0  0  0  0
   35.7533   31.0309   50.3841 H   0  0  0  0  0  0  0  0  0  0  0  0
   36.7998   30.6941   46.2296 H   0  0  0  0  0  0  0  0  0  0  0  0
   39.0545   32.3190   45.6777 H   0  0  0  0  0  0  0  0  0  0  0  0
   40.6009   33.8962   46.9684 H   0  0  0  0  0  0  0  0  0  0  0  0
   37.6138   32.5990   50.7626 H   0  0  0  0  0  0  0  0  0  0  0  0
   31.7702   26.5338   47.3041 H   0  0  0  0  0  0  0  0  0  0  0  0
   32.0758   26.1939   49.0396 H   0  0  0  0  0  0  0  0  0  0  0  0
   30.9681   27.8829   50.8244 H   0  0  0  0  0  0  0  0  0  0  0  0
   28.6474   29.0374   50.8233 H   0  0  0  0  0  0  0  0  0  0  0  0
   27.7116   29.0706   48.3852 H   0  0  0  0  0  0  0  0  0  0  0  0
  1  6  2  0
  2  8  1  0
  2  1  1  0
  3  4  1  0
  3  2  2  0
  4  5  2  0
  5 16  1  0
  5  6  1  0
  7 15  2  0
  8  7  1  0
  9 10  1  0
  9  8  2  0
 10 14  2  0
 11 12  1  0
 11 10  1  0
 12 13  2  0
 13 14  1  0
 14 15  1  0
 16 17  1  0
 17 18  2  0
 18 19  1  0
 20 19  1  0
 21 17  1  0
 21 20  2  0
  1 22  1  0
  3 23  1  0
  7 24  1  0
  9 25  1  0
 11 26  1  0
 12 27  1  0
 15 28  1  0
 16 29  1  0
 16 30  1  0
 18 31  1  0
 19 32  1  0
 20 33  1  0
M  ISO  8  22  14  23  14  24  14  25  14  26   9  27  14  28  14  29   8
M  ISO  4  30   8  31  14  32   9  33  14
M  END
>  <minimizedAffinity>  (1) 
-6.21074772

>  <minimizedRMSD>  (1) 
1.52074921

$$$$
