
     RDKit          3D

 27 29  0  0  0  0  0  0  0  0999 V2000
   37.4760   31.3360   48.3680 C   0  0  0  0  0  0  0  0  0  0  0  0
   36.7550   30.8740   47.2710 C   0  0  0  0  0  0  0  0  0  0  0  0
   37.2180   31.2220   46.0120 C   0  0  0  0  0  0  0  0  0  0  0  0
   38.3650   32.0050   45.9030 C   0  0  0  0  0  0  0  0  0  0  0  0
   39.0430   32.4950   44.8470 N   0  0  0  0  0  0  0  0  0  0  0  0
   40.0950   33.1990   45.2690 C   0  0  0  0  0  0  0  0  0  0  0  0
   40.1120   33.1750   46.6180 N   0  0  0  0  0  0  0  0  0  0  0  0
   39.0550   32.4450   47.0070 C   0  0  0  0  0  0  0  0  0  0  0  0
   38.6010   32.1050   48.2510 C   0  0  0  0  0  0  0  0  0  0  0  0
   35.6140   29.3460   48.7440 C   0  0  0  0  0  0  0  0  0  0  0  0
   35.5830   30.0660   47.5180 C   0  0  0  0  0  0  0  0  0  0  0  0
   34.4550   29.9160   46.7080 C   0  0  0  0  0  0  0  0  0  0  0  0
   33.4620   29.1000   47.1310 N   0  0  0  0  0  0  0  0  0  0  0  0
   33.5220   28.4250   48.3120 C   0  0  0  0  0  0  0  0  0  0  0  0
   34.6010   28.5530   49.1130 N   0  0  0  0  0  0  0  0  0  0  0  0
   32.3710   27.5510   48.6780 C   0  0  0  0  0  0  0  0  0  0  0  0
   32.4700   26.3990   47.8960 O   0  0  0  0  0  0  0  0  0  0  0  0
   37.1248   31.0704   49.3760 H   0  0  0  0  0  0  0  0  0  0  0  0
   36.6865   30.8842   45.1101 H   0  0  0  0  0  0  0  0  0  0  0  0
   38.7872   32.3480   43.8602 H   0  0  0  0  0  0  0  0  0  0  0  0
   40.8250   33.7122   44.6258 H   0  0  0  0  0  0  0  0  0  0  0  0
   39.1356   32.4468   49.1495 H   0  0  0  0  0  0  0  0  0  0  0  0
   36.4893   29.4429   49.4031 H   0  0  0  0  0  0  0  0  0  0  0  0
   34.3758   30.4487   45.7488 H   0  0  0  0  0  0  0  0  0  0  0  0
   32.4199   27.2888   49.7452 H   0  0  0  0  0  0  0  0  0  0  0  0
   31.4149   28.0654   48.5008 H   0  0  0  0  0  0  0  0  0  0  0  0
   32.5382   25.6057   48.4843 H   0  0  0  0  0  0  0  0  0  0  0  0
  2 11  1  0
  2  1  2  0
  3  2  1  0
  4  3  2  0
  4  8  1  0
  5  6  1  0
  5  4  1  0
  6  7  2  0
  7  8  1  0
  8  9  2  0
  9  1  1  0
 10 15  2  0
 11 10  1  0
 12 13  1  0
 12 11  2  0
 13 14  2  0
 14 16  1  0
 14 15  1  0
 17 16  1  0
  1 18  1  0
  3 19  1  0
  5 20  1  0
  6 21  1  0
  9 22  1  0
 10 23  1  0
 12 24  1  0
 16 25  1  0
 16 26  1  0
 17 27  1  0
M  ISO  8  18  14  19  14  20   9  21  14  22  14  23  14  24  14  25   8
M  ISO  2  26   8  27   3
M  END
>  <minimizedAffinity>  (1) 
-4.98166323

>  <minimizedRMSD>  (1) 
0.0800029188

$$$$
