
     RDKit          3D

 29 30  0  0  1  0  0  0  0  0999 V2000
   36.0200   30.8730   49.1310 C   0  0  2  0  0  0  0  0  0  0  0  0
   37.1960   31.8270   49.2300 C   0  0  0  0  0  0  0  0  0  0  0  0
   38.3950   31.1740   49.8540 C   0  0  0  0  0  0  0  0  0  0  0  0
   38.1020   30.5870   51.2100 C   0  0  0  0  0  0  0  0  0  0  0  0
   36.8530   29.7900   51.2310 C   0  0  0  0  0  0  0  0  0  0  0  0
   36.1800   29.6140   49.8830 C   0  0  1  0  0  0  0  0  0  0  0  0
   35.7750   30.5480   47.6910 C   0  0  0  0  0  0  0  0  0  0  0  0
   36.8700   30.7280   46.8260 C   0  0  0  0  0  0  0  0  0  0  0  0
   36.6310   30.4420   45.4730 C   0  0  0  0  0  0  0  0  0  0  0  0
   35.3790   30.0140   45.0780 N   0  0  0  0  0  0  0  0  0  0  0  0
   34.3610   29.8580   45.9510 C   0  0  0  0  0  0  0  0  0  0  0  0
   34.5860   30.1320   47.2560 N   0  0  0  0  0  0  0  0  0  0  0  0
   34.7980   29.0930   50.3070 C   0  0  0  0  0  0  0  0  0  0  0  0
   33.8060   29.9980   50.2350 F   0  0  0  0  0  0  0  0  0  0  0  0
   34.9600   28.7790   51.6620 F   0  0  0  0  0  0  0  0  0  0  0  0
   34.5270   27.8840   49.6940 F   0  0  0  0  0  0  0  0  0  0  0  0
   35.1680   31.3963   49.5895 H   0  0  0  0  0  0  0  0  0  0  0  0
   37.4629   32.1687   48.2191 H   0  0  0  0  0  0  0  0  0  0  0  0
   36.8971   32.6718   49.8679 H   0  0  0  0  0  0  0  0  0  0  0  0
   38.7415   30.3684   49.1900 H   0  0  0  0  0  0  0  0  0  0  0  0
   39.1619   31.9509   49.9888 H   0  0  0  0  0  0  0  0  0  0  0  0
   38.9398   29.9358   51.4999 H   0  0  0  0  0  0  0  0  0  0  0  0
   37.9741   31.4232   51.9132 H   0  0  0  0  0  0  0  0  0  0  0  0
   37.0924   28.7915   51.6255 H   0  0  0  0  0  0  0  0  0  0  0  0
   36.1428   30.3495   51.8576 H   0  0  0  0  0  0  0  0  0  0  0  0
   36.7601   28.9658   49.2097 H   0  0  0  0  0  0  0  0  0  0  0  0
   37.8508   31.0710   47.1872 H   0  0  0  0  0  0  0  0  0  0  0  0
   37.4357   30.5580   44.7321 H   0  0  0  0  0  0  0  0  0  0  0  0
   33.3728   29.5164   45.6092 H   0  0  0  0  0  0  0  0  0  0  0  0
  1  2  1  0
  1  6  1  0
  2  3  1  0
  3  4  1  0
  4  5  1  0
  6 13  1  0
  6  5  1  0
  7  1  1  0
  8  7  2  0
  9  8  1  0
 10  9  2  0
 10 11  1  0
 11 12  2  0
 12  7  1  0
 13 15  1  0
 14 13  1  0
 16 13  1  0
  1 17  1  1
  2 18  1  0
  2 19  1  0
  3 20  1  0
  3 21  1  0
  4 22  1  0
  4 23  1  0
  5 24  1  0
  5 25  1  0
  6 26  1  6
  8 27  1  0
  9 28  1  0
 11 29  1  0
M  ISO  8  17  13  18  13  19  13  20  13  21  13  22  13  23  13  24  13
M  ISO  5  25  13  26  13  27  14  28  14  29  14
M  END
>  <minimizedAffinity>  (1) 
-5.70390034

>  <minimizedRMSD>  (1) 
2.22113729

$$$$
