
     RDKit          3D

 39 42  0  0  0  0  0  0  0  0999 V2000
   34.6790   28.8300   49.0530 C   0  0  0  0  0  0  0  0  0  0  0  0
   34.7860   29.6640   47.9230 C   0  0  0  0  0  0  0  0  0  0  0  0
   33.7530   29.6210   46.9760 C   0  0  0  0  0  0  0  0  0  0  0  0
   32.7150   28.7830   47.2030 N   0  0  0  0  0  0  0  0  0  0  0  0
   32.6400   27.9890   48.3070 C   0  0  0  0  0  0  0  0  0  0  0  0
   33.6230   28.0230   49.2170 N   0  0  0  0  0  0  0  0  0  0  0  0
   36.4090   31.0700   49.0460 C   0  0  0  0  0  0  0  0  0  0  0  0
   35.9770   30.4890   47.8720 C   0  0  0  0  0  0  0  0  0  0  0  0
   36.7200   30.7470   46.7290 C   0  0  0  0  0  0  0  0  0  0  0  0
   37.8520   31.5640   46.8130 C   0  0  0  0  0  0  0  0  0  0  0  0
   38.7340   31.9740   45.8980 N   0  0  0  0  0  0  0  0  0  0  0  0
   39.6490   32.7530   46.4690 C   0  0  0  0  0  0  0  0  0  0  0  0
   39.3560   32.8530   47.7820 N   0  0  0  0  0  0  0  0  0  0  0  0
   38.2470   32.1200   47.9950 C   0  0  0  0  0  0  0  0  0  0  0  0
   37.5200   31.8720   49.1260 C   0  0  0  0  0  0  0  0  0  0  0  0
   31.4540   27.1030   48.4600 C   0  0  0  0  0  0  0  0  0  0  0  0
   30.1840   27.8680   48.6300 C   0  0  0  0  0  0  0  0  0  0  0  0
   29.0590   26.9640   48.1340 C   0  0  0  0  0  0  0  0  0  0  0  0
   28.0930   26.8020   49.2730 C   0  0  0  0  0  0  0  0  0  0  0  0
   28.9610   26.9790   50.4860 C   0  0  0  0  0  0  0  0  0  0  0  0
   29.8240   28.1630   50.0580 C   0  0  0  0  0  0  0  0  0  0  0  0
   35.4749   28.8417   49.8122 H   0  0  0  0  0  0  0  0  0  0  0  0
   33.7854   30.2504   46.0744 H   0  0  0  0  0  0  0  0  0  0  0  0
   35.8341   30.8811   49.9646 H   0  0  0  0  0  0  0  0  0  0  0  0
   36.4209   30.3122   45.7639 H   0  0  0  0  0  0  0  0  0  0  0  0
   38.7096   31.7243   44.8990 H   0  0  0  0  0  0  0  0  0  0  0  0
   40.4974   33.2325   45.9588 H   0  0  0  0  0  0  0  0  0  0  0  0
   37.8219   32.3101   50.0888 H   0  0  0  0  0  0  0  0  0  0  0  0
   31.3677   26.4719   47.5632 H   0  0  0  0  0  0  0  0  0  0  0  0
   31.6036   26.5000   49.3677 H   0  0  0  0  0  0  0  0  0  0  0  0
   30.3158   28.8195   48.0940 H   0  0  0  0  0  0  0  0  0  0  0  0
   28.5542   27.4265   47.2731 H   0  0  0  0  0  0  0  0  0  0  0  0
   29.4520   25.9890   47.8102 H   0  0  0  0  0  0  0  0  0  0  0  0
   27.3062   27.5698   49.2354 H   0  0  0  0  0  0  0  0  0  0  0  0
   27.5648   25.8372   49.2572 H   0  0  0  0  0  0  0  0  0  0  0  0
   28.3637   27.2165   51.3787 H   0  0  0  0  0  0  0  0  0  0  0  0
   29.5311   26.0821   50.7698 H   0  0  0  0  0  0  0  0  0  0  0  0
   30.7280   28.2307   50.6810 H   0  0  0  0  0  0  0  0  0  0  0  0
   29.3003   29.1241   50.1678 H   0  0  0  0  0  0  0  0  0  0  0  0
  1  6  2  0
  2  1  1  0
  3  4  1  0
  3  2  2  0
  4  5  2  0
  5 16  1  0
  5  6  1  0
  7 15  2  0
  8  2  1  0
  8  7  1  0
  9 10  1  0
  9  8  2  0
 10 14  2  0
 11 12  1  0
 11 10  1  0
 12 13  2  0
 13 14  1  0
 14 15  1  0
 16 17  1  0
 17 21  1  0
 18 17  1  0
 18 19  1  0
 19 20  1  0
 21 20  1  0
  1 22  1  0
  3 23  1  0
  7 24  1  0
  9 25  1  0
 11 26  1  0
 12 27  1  0
 15 28  1  0
 16 29  1  0
 16 30  1  0
 17 31  1  0
 18 32  1  0
 18 33  1  0
 19 34  1  0
 19 35  1  0
 20 36  1  0
 20 37  1  0
 21 38  1  0
 21 39  1  0
M  ISO  8  22  14  23  14  24  14  25  14  26   9  27  14  28  14  29   8
M  ISO  8  30   8  31  13  32  13  33  13  34  13  35  13  36  13  37  13
M  ISO  2  38  13  39  13
M  END
>  <minimizedAffinity>  (1) 
-6.15853405

>  <minimizedRMSD>  (1) 
2.17077279

$$$$
