
     RDKit          3D

 38 40  0  0  1  0  0  0  0  0999 V2000
   36.8640   30.9210   45.6660 C   0  0  2  0  0  0  0  0  0  0  0  0
   36.9550   30.6710   44.1690 C   0  0  0  0  0  0  0  0  0  0  0  0
   38.0670   29.7360   43.7910 C   0  0  0  0  0  0  0  0  0  0  0  0
   39.3950   30.2390   44.2700 C   0  0  0  0  0  0  0  0  0  0  0  0
   39.3710   30.7060   45.6880 C   0  0  0  0  0  0  0  0  0  0  0  0
   38.0600   30.4300   46.3990 C   0  0  1  0  0  0  0  0  0  0  0  0
   35.6590   30.2800   46.2240 C   0  0  0  0  0  0  0  0  0  0  0  0
   34.9200   29.4750   45.3390 C   0  0  0  0  0  0  0  0  0  0  0  0
   33.7570   28.8680   45.8560 C   0  0  0  0  0  0  0  0  0  0  0  0
   33.4160   29.0930   47.1740 N   0  0  0  0  0  0  0  0  0  0  0  0
   34.1740   29.8850   47.9840 C   0  0  0  0  0  0  0  0  0  0  0  0
   35.2660   30.4510   47.4840 N   0  0  0  0  0  0  0  0  0  0  0  0
   37.9720   30.5250   48.9880 C   0  0  0  0  0  0  0  0  0  0  0  0
   38.2180   31.0480   47.7400 C   0  0  0  0  0  0  0  0  0  0  0  0
   38.6590   32.3690   47.6050 C   0  0  0  0  0  0  0  0  0  0  0  0
   38.8530   33.1690   48.7370 C   0  0  0  0  0  0  0  0  0  0  0  0
   38.6040   32.6440   49.9880 C   0  0  0  0  0  0  0  0  0  0  0  0
   38.1660   31.3250   50.0930 C   0  0  0  0  0  0  0  0  0  0  0  0
   37.5440   29.2100   49.0400 O   0  0  0  0  0  0  0  0  0  0  0  0
   37.9100   30.7720   51.3410 O   0  0  0  0  0  0  0  0  0  0  0  0
   36.8084   32.0116   45.7985 H   0  0  0  0  0  0  0  0  0  0  0  0
   36.0031   30.2374   43.8287 H   0  0  0  0  0  0  0  0  0  0  0  0
   37.1643   31.6382   43.6887 H   0  0  0  0  0  0  0  0  0  0  0  0
   37.8744   28.7511   44.2414 H   0  0  0  0  0  0  0  0  0  0  0  0
   38.1003   29.6654   42.6938 H   0  0  0  0  0  0  0  0  0  0  0  0
   40.1294   29.4247   44.1826 H   0  0  0  0  0  0  0  0  0  0  0  0
   39.6611   31.1046   43.6455 H   0  0  0  0  0  0  0  0  0  0  0  0
   40.1771   30.1955   46.2354 H   0  0  0  0  0  0  0  0  0  0  0  0
   39.5026   31.7979   45.6690 H   0  0  0  0  0  0  0  0  0  0  0  0
   37.8668   29.3493   46.4676 H   0  0  0  0  0  0  0  0  0  0  0  0
   35.2336   29.3262   44.2952 H   0  0  0  0  0  0  0  0  0  0  0  0
   33.1316   28.2254   45.2188 H   0  0  0  0  0  0  0  0  0  0  0  0
   33.8863   30.0521   49.0325 H   0  0  0  0  0  0  0  0  0  0  0  0
   38.8543   32.7810   46.6039 H   0  0  0  0  0  0  0  0  0  0  0  0
   39.2009   34.2070   48.6300 H   0  0  0  0  0  0  0  0  0  0  0  0
   38.7490   33.2573   50.8896 H   0  0  0  0  0  0  0  0  0  0  0  0
   37.4262   28.6943   48.2032 H   0  0  0  0  0  0  0  0  0  0  0  0
   38.0376   31.3152   52.1587 H   0  0  0  0  0  0  0  0  0  0  0  0
  1  7  1  0
  1  6  1  0
  2  1  1  0
  3  2  1  0
  3  4  1  0
  4  5  1  0
  5  6  1  0
  6 14  1  0
  7 12  2  0
  8  9  2  0
  8  7  1  0
  9 10  1  0
 10 11  2  0
 12 11  1  0
 13 19  1  0
 13 18  2  0
 14 13  1  0
 15 14  2  0
 15 16  1  0
 16 17  2  0
 17 18  1  0
 18 20  1  0
  1 21  1  6
  2 22  1  0
  2 23  1  0
  3 24  1  0
  3 25  1  0
  4 26  1  0
  4 27  1  0
  5 28  1  0
  5 29  1  0
  6 30  1  1
  8 31  1  0
  9 32  1  0
 11 33  1  0
 15 34  1  0
 16 35  1  0
 17 36  1  0
 19 37  1  0
 20 38  1  0
M  ISO  8  21  13  22  13  23  13  24  13  25  13  26  13  27  13  28  13
M  ISO  8  29  13  30  13  31  14  32  14  33  14  34  14  35  14  36  14
M  ISO  2  37   3  38   3
M  END
>  <minimizedAffinity>  (1) 
-5.39898968

>  <minimizedRMSD>  (1) 
5.14781713

$$$$
