
     RDKit          3D

 46 50  0  0  1  0  0  0  0  0999 V2000
   34.0460   29.0590   49.5050 C   0  0  0  0  0  0  0  0  0  0  0  0
   34.5230   29.6100   48.3030 C   0  0  0  0  0  0  0  0  0  0  0  0
   33.8420   29.2770   47.1300 C   0  0  0  0  0  0  0  0  0  0  0  0
   32.7770   28.4570   47.2070 N   0  0  0  0  0  0  0  0  0  0  0  0
   32.3340   27.9360   48.3880 C   0  0  0  0  0  0  0  0  0  0  0  0
   32.9830   28.2530   49.4990 N   0  0  0  0  0  0  0  0  0  0  0  0
   35.9440   31.0300   49.6420 C   0  0  0  0  0  0  0  0  0  0  0  0
   35.6830   30.4700   48.4200 C   0  0  0  0  0  0  0  0  0  0  0  0
   36.5570   30.7770   47.3850 C   0  0  0  0  0  0  0  0  0  0  0  0
   37.6410   31.6170   47.6110 C   0  0  0  0  0  0  0  0  0  0  0  0
   38.6210   32.0810   46.8420 N   0  0  0  0  0  0  0  0  0  0  0  0
   39.4290   32.8660   47.5310 C   0  0  0  0  0  0  0  0  0  0  0  0
   38.9680   32.9260   48.8040 N   0  0  0  0  0  0  0  0  0  0  0  0
   37.8670   32.1570   48.8530 C   0  0  0  0  0  0  0  0  0  0  0  0
   37.0120   31.8610   49.8740 C   0  0  0  0  0  0  0  0  0  0  0  0
   31.1480   27.0380   48.3660 C   0  0  0  0  0  0  0  0  0  0  0  0
   30.0190   27.6060   47.6100 C   0  0  1  0  0  0  0  0  0  0  0  0
   29.6270   26.5450   46.5650 C   0  0  0  0  0  0  0  0  0  0  0  0
   28.1760   26.2750   46.7670 C   0  0  0  0  0  0  0  0  0  0  0  0
   27.9570   26.6290   48.2190 C   0  0  0  0  0  0  0  0  0  0  0  0
   28.7720   27.9480   48.2970 C   0  0  1  0  0  0  0  0  0  0  0  0
   28.7470   28.5050   49.6550 C   0  0  0  0  0  0  0  0  0  0  0  0
   27.6340   28.5380   50.5970 C   0  0  0  0  0  0  0  0  0  0  0  0
   27.9760   29.7900   49.8660 C   0  0  0  0  0  0  0  0  0  0  0  0
   34.5510   29.2932   50.4538 H   0  0  0  0  0  0  0  0  0  0  0  0
   34.1702   29.6779   46.1597 H   0  0  0  0  0  0  0  0  0  0  0  0
   35.2656   30.8032   50.4777 H   0  0  0  0  0  0  0  0  0  0  0  0
   36.3907   30.3540   46.3833 H   0  0  0  0  0  0  0  0  0  0  0  0
   38.7348   31.8582   45.8429 H   0  0  0  0  0  0  0  0  0  0  0  0
   40.3194   33.3805   47.1405 H   0  0  0  0  0  0  0  0  0  0  0  0
   37.1770   32.2849   50.8755 H   0  0  0  0  0  0  0  0  0  0  0  0
   31.4377   26.0837   47.9019 H   0  0  0  0  0  0  0  0  0  0  0  0
   30.8160   26.9005   49.4057 H   0  0  0  0  0  0  0  0  0  0  0  0
   30.4095   28.5732   47.2605 H   0  0  0  0  0  0  0  0  0  0  0  0
   30.2105   25.6253   46.7187 H   0  0  0  0  0  0  0  0  0  0  0  0
   29.8296   26.8969   45.5427 H   0  0  0  0  0  0  0  0  0  0  0  0
   27.5619   26.9082   46.1098 H   0  0  0  0  0  0  0  0  0  0  0  0
   27.8930   25.2391   46.5285 H   0  0  0  0  0  0  0  0  0  0  0  0
   26.8927   26.7922   48.4440 H   0  0  0  0  0  0  0  0  0  0  0  0
   28.2595   25.8527   48.9372 H   0  0  0  0  0  0  0  0  0  0  0  0
   28.3802   28.8385   47.7837 H   0  0  0  0  0  0  0  0  0  0  0  0
   29.7656   28.1056   49.7684 H   0  0  0  0  0  0  0  0  0  0  0  0
   26.7019   28.0048   50.3583 H   0  0  0  0  0  0  0  0  0  0  0  0
   27.5199   28.2765   51.6594 H   0  0  0  0  0  0  0  0  0  0  0  0
   28.4391   30.6344   50.3976 H   0  0  0  0  0  0  0  0  0  0  0  0
   27.4359   30.5005   49.2229 H   0  0  0  0  0  0  0  0  0  0  0  0
  2  8  1  0
  2  1  2  0
  3  4  2  0
  3  2  1  0
  4  5  1  0
  5  6  2  0
  6  1  1  0
  7 15  2  0
  8  7  1  0
  9 10  1  0
  9  8  2  0
 10 14  2  0
 11 12  1  0
 11 10  1  0
 12 13  2  0
 13 14  1  0
 14 15  1  0
 16  5  1  0
 17 21  1  0
 17 16  1  0
 18 19  1  0
 18 17  1  0
 19 20  1  0
 20 21  1  0
 21 22  1  0
 22 24  1  0
 22 23  1  0
 24 23  1  0
  1 25  1  0
  3 26  1  0
  7 27  1  0
  9 28  1  0
 11 29  1  0
 12 30  1  0
 15 31  1  0
 16 32  1  0
 16 33  1  0
 17 34  1  6
 18 35  1  0
 18 36  1  0
 19 37  1  0
 19 38  1  0
 20 39  1  0
 20 40  1  0
 21 41  1  6
 22 42  1  0
 23 43  1  0
 23 44  1  0
 24 45  1  0
 24 46  1  0
M  ISO  8  25  14  26  14  27  14  28  14  29   9  30  14  31  14  32   8
M  ISO  8  33   8  34  13  35  13  36  13  37  13  38  13  39  13  40  13
M  ISO  6  41  13  42  13  43  13  44  13  45  13  46  13
M  END
>  <minimizedAffinity>  (1) 
-6.51374769

>  <minimizedRMSD>  (1) 
1.75653303

$$$$
