
     RDKit          3D

 28 29  0  0  0  0  0  0  0  0999 V2000
   37.1410   29.7340   51.4880 C   0  0  0  0  0  0  0  0  0  0  0  0
   37.8340   30.6550   50.6910 C   0  0  0  0  0  0  0  0  0  0  0  0
   37.1340   31.2230   49.5910 C   0  0  0  0  0  0  0  0  0  0  0  0
   35.8230   30.8260   49.3900 N   0  0  0  0  0  0  0  0  0  0  0  0
   35.2240   29.9380   50.1950 C   0  0  0  0  0  0  0  0  0  0  0  0
   35.8520   29.3770   51.2470 N   0  0  0  0  0  0  0  0  0  0  0  0
   33.8660   29.6300   49.8540 N   0  0  0  0  0  0  0  0  0  0  0  0
   37.8140   32.1910   48.7270 C   0  0  0  0  0  0  0  0  0  0  0  0
   38.5580   33.1930   49.5330 C   0  0  0  0  0  0  0  0  0  0  0  0
   39.4560   34.1010   48.7830 C   0  0  0  0  0  0  0  0  0  0  0  0
   39.9410   33.6510   47.4600 C   0  0  0  0  0  0  0  0  0  0  0  0
   39.0990   32.6230   46.7730 C   0  0  0  0  0  0  0  0  0  0  0  0
   38.8410   31.5220   47.8070 C   0  0  0  0  0  0  0  0  0  0  0  0
   37.6620   29.2811   52.3444 H   0  0  0  0  0  0  0  0  0  0  0  0
   38.8775   30.9277   50.9075 H   0  0  0  0  0  0  0  0  0  0  0  0
   33.3325   28.9564   50.4219 H   0  0  0  0  0  0  0  0  0  0  0  0
   33.4239   30.0823   49.0411 H   0  0  0  0  0  0  0  0  0  0  0  0
   37.0211   32.6654   48.1301 H   0  0  0  0  0  0  0  0  0  0  0  0
   37.8193   33.8133   50.0618 H   0  0  0  0  0  0  0  0  0  0  0  0
   39.2158   32.6089   50.1934 H   0  0  0  0  0  0  0  0  0  0  0  0
   38.9143   35.0461   48.6301 H   0  0  0  0  0  0  0  0  0  0  0  0
   40.3624   34.1694   49.4025 H   0  0  0  0  0  0  0  0  0  0  0  0
   39.9995   34.5323   46.8044 H   0  0  0  0  0  0  0  0  0  0  0  0
   40.9109   33.1667   47.6463 H   0  0  0  0  0  0  0  0  0  0  0  0
   38.1481   33.0671   46.4434 H   0  0  0  0  0  0  0  0  0  0  0  0
   39.6021   32.2243   45.8797 H   0  0  0  0  0  0  0  0  0  0  0  0
   38.4276   30.6184   47.3353 H   0  0  0  0  0  0  0  0  0  0  0  0
   39.7472   31.1776   48.3267 H   0  0  0  0  0  0  0  0  0  0  0  0
  2  1  2  0
  3  2  1  0
  4  3  2  0
  4  5  1  0
  5  6  2  0
  6  1  1  0
  7  5  1  0
  8  9  1  0
  8  3  1  0
 10  9  1  0
 11 10  1  0
 12 11  1  0
 12 13  1  0
 13  8  1  0
  1 14  1  0
  2 15  1  0
  7 16  1  0
  7 17  1  0
  8 18  1  0
  9 19  1  0
  9 20  1  0
 10 21  1  0
 10 22  1  0
 11 23  1  0
 11 24  1  0
 12 25  1  0
 12 26  1  0
 13 27  1  0
 13 28  1  0
M  ISO  8  14  14  15  14  18  13  19  13  20  13  21  13  22  13  23  13
M  ISO  5  24  13  25  13  26  13  27  13  28  13
M  END
>  <minimizedAffinity>  (1) 
-5.45203352

>  <minimizedRMSD>  (1) 
2.07054448

$$$$
