
     RDKit          3D

 27 28  0  0  0  0  0  0  0  0999 V2000
   37.1040   29.6070   51.5570 C   0  0  0  0  0  0  0  0  0  0  0  0
   37.8380   30.5240   50.7850 C   0  0  0  0  0  0  0  0  0  0  0  0
   37.1660   31.1290   49.7110 C   0  0  0  0  0  0  0  0  0  0  0  0
   35.8590   30.8120   49.4620 N   0  0  0  0  0  0  0  0  0  0  0  0
   35.2020   29.9180   50.2450 C   0  0  0  0  0  0  0  0  0  0  0  0
   35.8160   29.3110   51.2930 N   0  0  0  0  0  0  0  0  0  0  0  0
   33.8530   29.6710   49.8890 N   0  0  0  0  0  0  0  0  0  0  0  0
   37.8670   32.0590   48.9050 N   0  0  0  0  0  0  0  0  0  0  0  0
   38.5800   31.5860   47.7550 C   0  0  0  0  0  0  0  0  0  0  0  0
   38.9930   32.8300   46.9690 C   0  0  0  0  0  0  0  0  0  0  0  0
   39.9420   33.5970   47.8670 C   0  0  0  0  0  0  0  0  0  0  0  0
   39.2640   33.9870   49.1360 C   0  0  0  0  0  0  0  0  0  0  0  0
   37.8480   33.4650   49.2620 C   0  0  0  0  0  0  0  0  0  0  0  0
   37.5984   29.1135   52.4067 H   0  0  0  0  0  0  0  0  0  0  0  0
   38.8890   30.7566   51.0115 H   0  0  0  0  0  0  0  0  0  0  0  0
   33.2896   29.0047   50.4364 H   0  0  0  0  0  0  0  0  0  0  0  0
   33.4357   30.1577   49.0828 H   0  0  0  0  0  0  0  0  0  0  0  0
   39.4695   31.0177   48.0647 H   0  0  0  0  0  0  0  0  0  0  0  0
   37.9576   30.9145   47.1453 H   0  0  0  0  0  0  0  0  0  0  0  0
   39.4992   32.5417   46.0359 H   0  0  0  0  0  0  0  0  0  0  0  0
   38.1200   33.4393   46.6923 H   0  0  0  0  0  0  0  0  0  0  0  0
   40.8100   32.9631   48.1010 H   0  0  0  0  0  0  0  0  0  0  0  0
   40.2664   34.5086   47.3437 H   0  0  0  0  0  0  0  0  0  0  0  0
   39.8535   33.5952   49.9780 H   0  0  0  0  0  0  0  0  0  0  0  0
   39.2004   35.0852   49.1390 H   0  0  0  0  0  0  0  0  0  0  0  0
   37.1828   34.0162   48.5811 H   0  0  0  0  0  0  0  0  0  0  0  0
   37.4763   33.5986   50.2886 H   0  0  0  0  0  0  0  0  0  0  0  0
  2  1  2  0
  3  2  1  0
  4  3  2  0
  4  5  1  0
  5  6  2  0
  6  1  1  0
  7  5  1  0
  8 13  1  0
  8  3  1  0
  9  8  1  0
 10  9  1  0
 10 11  1  0
 11 12  1  0
 12 13  1  0
  1 14  1  0
  2 15  1  0
  7 16  1  0
  7 17  1  0
  9 18  1  0
  9 19  1  0
 10 20  1  0
 10 21  1  0
 11 22  1  0
 11 23  1  0
 12 24  1  0
 12 25  1  0
 13 26  1  0
 13 27  1  0
M  ISO  8  14  14  15  14  18  13  19  13  20  13  21  13  22  13  23  13
M  ISO  4  24  13  25  13  26  13  27  13
M  END
>  <minimizedAffinity>  (1) 
-5.12431765

>  <minimizedRMSD>  (1) 
1.60270619

$$$$
