
     RDKit          3D

 24 25  0  0  0  0  0  0  0  0999 V2000
   37.4860   30.2790   51.2740 C   0  0  0  0  0  0  0  0  0  0  0  0
   38.0920   30.9260   50.1890 C   0  0  0  0  0  0  0  0  0  0  0  0
   37.5930   30.6430   48.9070 C   0  0  0  0  0  0  0  0  0  0  0  0
   36.5550   29.7610   48.7950 N   0  0  0  0  0  0  0  0  0  0  0  0
   35.9990   29.1580   49.8620 C   0  0  0  0  0  0  0  0  0  0  0  0
   36.4580   29.4090   51.1220 N   0  0  0  0  0  0  0  0  0  0  0  0
   34.9300   28.2680   49.5910 N   0  0  0  0  0  0  0  0  0  0  0  0
   38.1370   31.2480   47.7420 N   0  0  0  0  0  0  0  0  0  0  0  0
   38.2440   30.7860   46.3840 C   0  0  0  0  0  0  0  0  0  0  0  0
   39.7210   31.1150   46.1270 C   0  0  0  0  0  0  0  0  0  0  0  0
   39.6880   32.5900   46.5220 C   0  0  0  0  0  0  0  0  0  0  0  0
   38.7380   32.5620   47.7130 C   0  0  0  0  0  0  0  0  0  0  0  0
   37.8589   30.4851   52.2881 H   0  0  0  0  0  0  0  0  0  0  0  0
   38.9260   31.6282   50.3355 H   0  0  0  0  0  0  0  0  0  0  0  0
   34.4618   27.7747   50.3646 H   0  0  0  0  0  0  0  0  0  0  0  0
   34.6212   28.1144   48.6205 H   0  0  0  0  0  0  0  0  0  0  0  0
   38.0418   29.7081   46.2990 H   0  0  0  0  0  0  0  0  0  0  0  0
   37.5317   31.2355   45.6765 H   0  0  0  0  0  0  0  0  0  0  0  0
   40.3953   30.5280   46.7679 H   0  0  0  0  0  0  0  0  0  0  0  0
   40.0931   30.8966   45.1151 H   0  0  0  0  0  0  0  0  0  0  0  0
   40.6858   32.9512   46.8118 H   0  0  0  0  0  0  0  0  0  0  0  0
   39.3738   33.2651   45.7124 H   0  0  0  0  0  0  0  0  0  0  0  0
   39.2942   32.7439   48.6444 H   0  0  0  0  0  0  0  0  0  0  0  0
   37.9695   33.3437   47.6212 H   0  0  0  0  0  0  0  0  0  0  0  0
  2  1  2  0
  3  2  1  0
  4  3  2  0
  4  5  1  0
  5  6  2  0
  6  1  1  0
  7  5  1  0
  8  3  1  0
  9  8  1  0
 10  9  1  0
 10 11  1  0
 11 12  1  0
 12  8  1  0
  1 13  1  0
  2 14  1  0
  7 15  1  0
  7 16  1  0
  9 17  1  0
  9 18  1  0
 10 19  1  0
 10 20  1  0
 11 21  1  0
 11 22  1  0
 12 23  1  0
 12 24  1  0
M  ISO  8  13  14  14  14  17  13  18  13  19  13  20  13  21  13  22  13
M  ISO  2  23  13  24  13
M  END
>  <minimizedAffinity>  (1) 
-5.02761793

>  <minimizedRMSD>  (1) 
0.493355155

$$$$
