
     RDKit          3D

 13 13  0  0  0  0  0  0  0  0999 V2000
   37.3260   30.2180   51.3780 C   0  0  0  0  0  0  0  0  0  0  0  0
   38.0180   30.8460   50.3420 C   0  0  0  0  0  0  0  0  0  0  0  0
   37.6010   30.5710   49.0290 C   0  0  0  0  0  0  0  0  0  0  0  0
   36.5440   29.7060   48.8450 N   0  0  0  0  0  0  0  0  0  0  0  0
   35.9200   29.1330   49.8880 C   0  0  0  0  0  0  0  0  0  0  0  0
   36.2840   29.3670   51.1660 N   0  0  0  0  0  0  0  0  0  0  0  0
   34.8490   28.2660   49.5350 N   0  0  0  0  0  0  0  0  0  0  0  0
   38.4020   31.3090   47.6270 S   0  0  0  0  0  0  0  0  0  0  0  0
   37.6363   30.4195   52.4139 H   0  0  0  0  0  0  0  0  0  0  0  0
   38.8562   31.5288   50.5451 H   0  0  0  0  0  0  0  0  0  0  0  0
   34.3136   27.7830   50.2705 H   0  0  0  0  0  0  0  0  0  0  0  0
   34.6089   28.1212   48.5439 H   0  0  0  0  0  0  0  0  0  0  0  0
   39.3582   32.1900   48.0588 H   0  0  0  0  0  0  0  0  0  0  0  0
  2  1  2  0
  3  2  1  0
  4  3  2  0
  4  5  1  0
  5  6  2  0
  6  1  1  0
  7  5  1  0
  8  3  1  0
  1  9  1  0
  2 10  1  0
  7 11  1  0
  7 12  1  0
  8 13  1  0
M  ISO  3   9  14  10  14  13  11
M  END
>  <minimizedAffinity>  (1) 
-3.49621129

>  <minimizedRMSD>  (1) 
0.171427295

$$$$
