
     RDKit          3D

 22 23  0  0  0  0  0  0  0  0999 V2000
   37.2540   30.1330   51.4760 C   0  0  0  0  0  0  0  0  0  0  0  0
   38.0010   30.8190   50.4990 C   0  0  0  0  0  0  0  0  0  0  0  0
   37.6550   30.6090   49.1570 C   0  0  0  0  0  0  0  0  0  0  0  0
   36.6260   29.7580   48.8650 N   0  0  0  0  0  0  0  0  0  0  0  0
   35.9430   29.1250   49.8530 C   0  0  0  0  0  0  0  0  0  0  0  0
   36.2490   29.3060   51.1510 N   0  0  0  0  0  0  0  0  0  0  0  0
   34.9040   28.2770   49.3950 N   0  0  0  0  0  0  0  0  0  0  0  0
   38.3370   31.2480   48.0390 C   0  0  0  0  0  0  0  0  0  0  0  0
   38.8350   32.5150   48.2440 C   0  0  0  0  0  0  0  0  0  0  0  0
   39.5000   33.1840   47.2090 C   0  0  0  0  0  0  0  0  0  0  0  0
   39.6550   32.5600   45.9670 C   0  0  0  0  0  0  0  0  0  0  0  0
   39.1530   31.2730   45.7470 C   0  0  0  0  0  0  0  0  0  0  0  0
   38.5080   30.6690   46.8070 C   0  0  0  0  0  0  0  0  0  0  0  0
   37.5021   30.2797   52.5376 H   0  0  0  0  0  0  0  0  0  0  0  0
   38.8240   31.4934   50.7781 H   0  0  0  0  0  0  0  0  0  0  0  0
   34.3300   27.7541   50.0718 H   0  0  0  0  0  0  0  0  0  0  0  0
   34.7228   28.1836   48.3854 H   0  0  0  0  0  0  0  0  0  0  0  0
   38.7104   33.0025   49.2222 H   0  0  0  0  0  0  0  0  0  0  0  0
   39.8988   34.1961   47.3722 H   0  0  0  0  0  0  0  0  0  0  0  0
   40.1771   33.0868   45.1546 H   0  0  0  0  0  0  0  0  0  0  0  0
   39.2668   30.7673   44.7768 H   0  0  0  0  0  0  0  0  0  0  0  0
   38.1046   29.6571   46.6541 H   0  0  0  0  0  0  0  0  0  0  0  0
  2  1  2  0
  3  2  1  0
  4  3  2  0
  4  5  1  0
  5  6  2  0
  6  1  1  0
  7  5  1  0
  8  9  2  0
  8  3  1  0
 10  9  1  0
 11 10  2  0
 12 11  1  0
 12 13  2  0
 13  8  1  0
  1 14  1  0
  2 15  1  0
  7 16  1  0
  7 17  1  0
  9 18  1  0
 10 19  1  0
 11 20  1  0
 12 21  1  0
 13 22  1  0
M  ISO  7  14  14  15  14  18  14  19  14  20  14  21  14  22  14
M  END
>  <minimizedAffinity>  (1) 
-5.28587198

>  <minimizedRMSD>  (1) 
0.637918413

$$$$
