
     RDKit          3D

 30 31  0  0  1  0  0  0  0  0999 V2000
   35.9600   29.7400   48.9330 N   0  0  0  0  0  0  0  0  0  0  0  0
   36.6830   28.9600   49.9300 C   0  0  0  0  0  0  0  0  0  0  0  0
   37.1850   29.7610   51.0890 C   0  0  0  0  0  0  0  0  0  0  0  0
   37.5740   31.0960   50.8010 N   0  0  0  0  0  0  0  0  0  0  0  0
   36.6540   31.7750   49.8910 C   0  0  0  0  0  0  0  0  0  0  0  0
   36.6590   30.9350   48.6360 C   0  0  1  0  0  0  0  0  0  0  0  0
   34.7280   29.3150   48.3700 C   0  0  0  0  0  0  0  0  0  0  0  0
   34.2180   29.8360   47.1770 C   0  0  0  0  0  0  0  0  0  0  0  0
   33.0010   29.3630   46.6910 C   0  0  0  0  0  0  0  0  0  0  0  0
   32.3530   28.3980   47.4140 N   0  0  0  0  0  0  0  0  0  0  0  0
   32.8760   27.9130   48.5700 C   0  0  0  0  0  0  0  0  0  0  0  0
   34.0400   28.3600   49.0400 N   0  0  0  0  0  0  0  0  0  0  0  0
   38.1180   30.6880   48.2680 C   0  0  0  0  0  0  0  0  0  0  0  0
   38.5820   31.8580   47.4040 C   0  0  0  0  0  0  0  0  0  0  0  0
   36.0078   28.1817   50.3152 H   0  0  0  0  0  0  0  0  0  0  0  0
   37.5680   28.5449   49.4256 H   0  0  0  0  0  0  0  0  0  0  0  0
   36.3855   29.7987   51.8435 H   0  0  0  0  0  0  0  0  0  0  0  0
   38.0996   29.2520   51.4274 H   0  0  0  0  0  0  0  0  0  0  0  0
   37.6119   31.6246   51.6842 H   0  0  0  0  0  0  0  0  0  0  0  0
   35.6436   31.8187   50.3235 H   0  0  0  0  0  0  0  0  0  0  0  0
   36.9567   32.8143   49.6952 H   0  0  0  0  0  0  0  0  0  0  0  0
   36.1660   31.4171   47.7790 H   0  0  0  0  0  0  0  0  0  0  0  0
   34.7720   30.6115   46.6277 H   0  0  0  0  0  0  0  0  0  0  0  0
   32.5740   29.7529   45.7552 H   0  0  0  0  0  0  0  0  0  0  0  0
   32.3294   27.1382   49.1276 H   0  0  0  0  0  0  0  0  0  0  0  0
   38.7300   30.6298   49.1802 H   0  0  0  0  0  0  0  0  0  0  0  0
   38.2226   29.7393   47.7211 H   0  0  0  0  0  0  0  0  0  0  0  0
   38.9098   32.6846   48.0515 H   0  0  0  0  0  0  0  0  0  0  0  0
   39.4201   31.5351   46.7690 H   0  0  0  0  0  0  0  0  0  0  0  0
   37.7504   32.1973   46.7690 H   0  0  0  0  0  0  0  0  0  0  0  0
  1  2  1  0
  2  3  1  0
  4  3  1  0
  5  4  1  0
  6  1  1  0
  6  5  1  0
  7  1  1  0
  7 12  1  0
  8  7  2  0
  9  8  1  0
  9 10  2  0
 10 11  1  0
 11 12  2  0
 13  6  1  0
 14 13  1  0
  2 15  1  0
  2 16  1  0
  3 17  1  0
  3 18  1  0
  4 19  1  0
  5 20  1  0
  5 21  1  0
  6 22  1  6
  8 23  1  0
  9 24  1  0
 11 25  1  0
 13 26  1  0
 13 27  1  0
 14 28  1  0
 14 29  1  0
 14 30  1  0
M  ISO  8  15  13  16  13  17  13  18  13  19   5  20  13  21  13  22  13
M  ISO  8  23  14  24  14  25  14  26   8  27   8  28   8  29   8  30   8
M  END
>  <minimizedAffinity>  (1) 
-4.29966164

>  <minimizedRMSD>  (1) 
1.33139896

$$$$
