
     RDKit          3D

 26 27  0  0  1  0  0  0  0  0999 V2000
   36.1010   29.6930   49.0110 N   0  0  0  0  0  0  0  0  0  0  0  0
   36.7580   28.9640   50.0610 C   0  0  0  0  0  0  0  0  0  0  0  0
   37.2610   29.8240   51.1860 C   0  0  0  0  0  0  0  0  0  0  0  0
   37.6950   31.1270   50.8490 N   0  0  0  0  0  0  0  0  0  0  0  0
   36.8310   31.7760   49.8590 C   0  0  0  0  0  0  0  0  0  0  0  0
   36.8600   30.8400   48.6560 C   0  0  1  0  0  0  0  0  0  0  0  0
   34.8570   29.2780   48.4370 C   0  0  0  0  0  0  0  0  0  0  0  0
   34.3470   29.8420   47.2480 C   0  0  0  0  0  0  0  0  0  0  0  0
   33.1240   29.3690   46.7690 C   0  0  0  0  0  0  0  0  0  0  0  0
   32.4890   28.3920   47.4720 N   0  0  0  0  0  0  0  0  0  0  0  0
   33.0120   27.8790   48.6060 C   0  0  0  0  0  0  0  0  0  0  0  0
   34.1810   28.3130   49.0870 N   0  0  0  0  0  0  0  0  0  0  0  0
   38.2540   30.5000   48.3940 N   0  0  0  0  0  0  0  0  0  0  0  0
   36.0440   28.2369   50.4752 H   0  0  0  0  0  0  0  0  0  0  0  0
   37.6399   28.4856   49.6100 H   0  0  0  0  0  0  0  0  0  0  0  0
   36.4462   29.9239   51.9182 H   0  0  0  0  0  0  0  0  0  0  0  0
   38.1584   29.3103   51.5612 H   0  0  0  0  0  0  0  0  0  0  0  0
   37.7052   31.7016   51.7037 H   0  0  0  0  0  0  0  0  0  0  0  0
   35.8066   31.8805   50.2458 H   0  0  0  0  0  0  0  0  0  0  0  0
   37.1717   32.7913   49.6077 H   0  0  0  0  0  0  0  0  0  0  0  0
   36.4346   31.2911   47.7474 H   0  0  0  0  0  0  0  0  0  0  0  0
   34.8970   30.6311   46.7144 H   0  0  0  0  0  0  0  0  0  0  0  0
   32.6846   29.7759   45.8463 H   0  0  0  0  0  0  0  0  0  0  0  0
   32.4662   27.0897   49.1437 H   0  0  0  0  0  0  0  0  0  0  0  0
   38.7516   30.3786   49.2876 H   0  0  0  0  0  0  0  0  0  0  0  0
   38.2981   29.6236   47.8547 H   0  0  0  0  0  0  0  0  0  0  0  0
  1  2  1  0
  2  3  1  0
  4  3  1  0
  5  4  1  0
  6  1  1  0
  6  5  1  0
  7  1  1  0
  7 12  1  0
  8  7  2  0
  9  8  1  0
  9 10  2  0
 10 11  1  0
 11 12  2  0
 13  6  1  0
  2 14  1  0
  2 15  1  0
  3 16  1  0
  3 17  1  0
  4 18  1  0
  5 19  1  0
  5 20  1  0
  6 21  1  6
  8 22  1  0
  9 23  1  0
 11 24  1  0
 13 25  1  0
 13 26  1  0
M  ISO  8  14  13  15  13  16  13  17  13  18   5  19  13  20  13  21  13
M  ISO  5  22  14  23  14  24  14  25   5  26   5
M  END
>  <minimizedAffinity>  (1) 
-4.19329643

>  <minimizedRMSD>  (1) 
0.794850171

$$$$
