
     RDKit          3D

 23 24  0  0  0  0  0  0  0  0999 V2000
   34.8130   28.2800   49.5140 C   0  0  0  0  0  0  0  0  0  0  0  0
   37.3290   30.2360   51.4140 C   0  0  0  0  0  0  0  0  0  0  0  0
   38.1310   30.7910   50.4180 C   0  0  0  0  0  0  0  0  0  0  0  0
   37.7930   30.4830   49.0890 C   0  0  0  0  0  0  0  0  0  0  0  0
   36.7290   29.6810   48.8590 N   0  0  0  0  0  0  0  0  0  0  0  0
   35.9750   29.1610   49.8780 C   0  0  0  0  0  0  0  0  0  0  0  0
   36.2750   29.4390   51.1420 N   0  0  0  0  0  0  0  0  0  0  0  0
   34.4910   28.4720   48.0570 C   0  0  0  0  0  0  0  0  0  0  0  0
   33.0100   28.3670   47.8760 C   0  0  0  0  0  0  0  0  0  0  0  0
   32.0690   28.7110   46.9180 C   0  0  0  0  0  0  0  0  0  0  0  0
   30.8740   28.3190   47.4060 N   0  0  0  0  0  0  0  0  0  0  0  0
   31.0160   27.7470   48.6180 C   0  0  0  0  0  0  0  0  0  0  0  0
   32.3290   27.7810   48.8980 N   0  0  0  0  0  0  0  0  0  0  0  0
   35.0759   27.2279   49.6982 H   0  0  0  0  0  0  0  0  0  0  0  0
   33.9387   28.5459   50.1262 H   0  0  0  0  0  0  0  0  0  0  0  0
   37.5653   30.4571   52.4653 H   0  0  0  0  0  0  0  0  0  0  0  0
   38.9866   31.4384   50.6604 H   0  0  0  0  0  0  0  0  0  0  0  0
   38.3824   30.8864   48.2525 H   0  0  0  0  0  0  0  0  0  0  0  0
   34.8346   29.4643   47.7295 H   0  0  0  0  0  0  0  0  0  0  0  0
   34.9978   27.7024   47.4563 H   0  0  0  0  0  0  0  0  0  0  0  0
   32.2587   29.2046   45.9534 H   0  0  0  0  0  0  0  0  0  0  0  0
   29.9749   28.4404   46.9184 H   0  0  0  0  0  0  0  0  0  0  0  0
   30.2165   27.3348   49.2511 H   0  0  0  0  0  0  0  0  0  0  0  0
  1  6  1  0
  3  2  2  0
  4  3  1  0
  5  4  2  0
  5  6  1  0
  6  7  2  0
  7  2  1  0
  8  1  1  0
  9  8  1  0
  9 13  1  0
 10 11  1  0
 10  9  2  0
 11 12  1  0
 12 13  2  0
  1 14  1  0
  1 15  1  0
  2 16  1  0
  3 17  1  0
  4 18  1  0
  8 19  1  0
  8 20  1  0
 10 21  1  0
 11 22  1  0
 12 23  1  0
M  ISO  8  14   8  15   8  16  14  17  14  18  14  19   8  20   8  21  14
M  ISO  2  22   9  23  14
M  END
>  <minimizedAffinity>  (1) 
-4.26423883

>  <minimizedRMSD>  (1) 
0.906080186

$$$$
