
     RDKit          3D

 18 18  0  0  0  0  0  0  0  0999 V2000
   37.3250   30.1930   51.4230 C   0  0  0  0  0  0  0  0  0  0  0  0
   38.0760   30.7110   50.3670 C   0  0  0  0  0  0  0  0  0  0  0  0
   37.7250   30.4080   49.0190 C   0  0  0  0  0  0  0  0  0  0  0  0
   36.6450   29.6090   48.8500 N   0  0  0  0  0  0  0  0  0  0  0  0
   35.9390   29.1240   49.8990 C   0  0  0  0  0  0  0  0  0  0  0  0
   36.2780   29.4150   51.1590 N   0  0  0  0  0  0  0  0  0  0  0  0
   34.7640   28.2490   49.5730 C   0  0  0  0  0  0  0  0  0  0  0  0
   33.8630   28.9090   48.5840 C   0  0  0  0  0  0  0  0  0  0  0  0
   34.1240   28.2830   47.2860 N   0  0  0  0  0  0  0  0  0  0  0  0
   37.5958   30.4255   52.4635 H   0  0  0  0  0  0  0  0  0  0  0  0
   38.9424   31.3558   50.5757 H   0  0  0  0  0  0  0  0  0  0  0  0
   38.2981   30.8004   48.1660 H   0  0  0  0  0  0  0  0  0  0  0  0
   35.1280   27.3007   49.1509 H   0  0  0  0  0  0  0  0  0  0  0  0
   34.1959   28.0670   50.4972 H   0  0  0  0  0  0  0  0  0  0  0  0
   32.8118   28.7595   48.8714 H   0  0  0  0  0  0  0  0  0  0  0  0
   34.0498   29.9922   48.5431 H   0  0  0  0  0  0  0  0  0  0  0  0
   34.5164   27.3418   47.4314 H   0  0  0  0  0  0  0  0  0  0  0  0
   33.2434   28.2098   46.7568 H   0  0  0  0  0  0  0  0  0  0  0  0
  2  1  2  0
  3  2  1  0
  4  3  2  0
  4  5  1  0
  5  6  2  0
  6  1  1  0
  7  5  1  0
  8  7  1  0
  9  8  1  0
  1 10  1  0
  2 11  1  0
  3 12  1  0
  7 13  1  0
  7 14  1  0
  8 15  1  0
  8 16  1  0
  9 17  1  0
  9 18  1  0
M  ISO  8  10  14  11  14  12  14  13   8  14   8  15   8  16   8  17   5
M  ISO  1  18   5
M  END
>  <minimizedAffinity>  (1) 
-3.41978765

>  <minimizedRMSD>  (1) 
0.579006255

$$$$
