
     RDKit          3D

 32 33  0  0  1  0  0  0  0  0999 V2000
   35.6760   30.7930   47.7820 C   0  0  2  0  0  0  0  0  0  0  0  0
   36.5830   30.5990   46.5770 C   0  0  0  0  0  0  0  0  0  0  0  0
   38.0280   30.4350   46.9530 C   0  0  0  0  0  0  0  0  0  0  0  0
   38.5050   31.6240   47.7720 C   0  0  0  0  0  0  0  0  0  0  0  0
   37.5660   31.9820   48.8830 C   0  0  0  0  0  0  0  0  0  0  0  0
   36.4390   30.9700   49.0450 C   0  0  2  0  0  0  0  0  0  0  0  0
   34.8080   29.5930   47.9280 C   0  0  0  0  0  0  0  0  0  0  0  0
   34.7360   28.6990   46.8470 C   0  0  0  0  0  0  0  0  0  0  0  0
   33.9150   27.5770   47.0210 C   0  0  0  0  0  0  0  0  0  0  0  0
   33.2410   27.4100   48.2030 N   0  0  0  0  0  0  0  0  0  0  0  0
   33.3420   28.3090   49.2270 C   0  0  0  0  0  0  0  0  0  0  0  0
   34.1160   29.3690   49.0660 N   0  0  0  0  0  0  0  0  0  0  0  0
   36.9510   29.7330   49.4190 O   0  0  0  0  0  0  0  0  0  0  0  0
   37.5720   30.7270   51.6990 O   0  0  0  0  0  0  0  0  0  0  0  0
   37.0110   29.4520   51.0650 P   0  0  0  0  0  0  0  0  0  0  0  0
   35.5590   29.1210   51.7930 O   0  0  0  0  0  0  0  0  0  0  0  0
   38.1870   28.2630   51.3350 O   0  0  0  0  0  0  0  0  0  0  0  0
   35.0864   31.7052   47.6079 H   0  0  0  0  0  0  0  0  0  0  0  0
   36.4884   31.4773   45.9216 H   0  0  0  0  0  0  0  0  0  0  0  0
   36.2667   29.6747   46.0713 H   0  0  0  0  0  0  0  0  0  0  0  0
   38.1453   29.5164   47.5467 H   0  0  0  0  0  0  0  0  0  0  0  0
   38.6292   30.3727   46.0339 H   0  0  0  0  0  0  0  0  0  0  0  0
   39.4857   31.3800   48.2064 H   0  0  0  0  0  0  0  0  0  0  0  0
   38.5604   32.4895   47.0954 H   0  0  0  0  0  0  0  0  0  0  0  0
   38.1346   32.0300   49.8234 H   0  0  0  0  0  0  0  0  0  0  0  0
   37.1103   32.9520   48.6352 H   0  0  0  0  0  0  0  0  0  0  0  0
   35.7659   31.3601   49.8227 H   0  0  0  0  0  0  0  0  0  0  0  0
   35.2938   28.8704   45.9146 H   0  0  0  0  0  0  0  0  0  0  0  0
   33.8120   26.8355   46.2150 H   0  0  0  0  0  0  0  0  0  0  0  0
   32.7907   28.1541   50.1662 H   0  0  0  0  0  0  0  0  0  0  0  0
   35.6696   29.1462   52.7765 H   0  0  0  0  0  0  0  0  0  0  0  0
   38.3115   28.1371   52.3090 H   0  0  0  0  0  0  0  0  0  0  0  0
  1  7  1  0
  1  6  1  0
  2  3  1  0
  2  1  1  0
  3  4  1  0
  4  5  1  0
  5  6  1  0
  6 13  1  0
  7 12  2  0
  8  9  2  0
  8  7  1  0
  9 10  1  0
 10 11  2  0
 12 11  1  0
 13 15  1  0
 15 17  1  0
 15 14  2  0
 15 16  1  0
  1 18  1  6
  2 19  1  0
  2 20  1  0
  3 21  1  0
  3 22  1  0
  4 23  1  0
  4 24  1  0
  5 25  1  0
  5 26  1  0
  6 27  1  1
  8 28  1  0
  9 29  1  0
 11 30  1  0
 16 31  1  0
 17 32  1  0
M  ISO  8  18  13  19  13  20  13  21  13  22  13  23  13  24  13  25  13
M  ISO  7  26  13  27  13  28  14  29  14  30  14  31   3  32   3
M  END
>  <minimizedAffinity>  (1) 
-4.28684425

>  <minimizedRMSD>  (1) 
2.31332874

$$$$
