
     RDKit          3D

 44 48  0  0  0  0  0  0  0  0999 V2000
   32.7990   28.2420   47.8690 C   0  0  0  0  0  0  0  0  0  0  0  0
   31.9750   27.6290   48.7780 C   0  0  0  0  0  0  0  0  0  0  0  0
   30.6660   27.6550   48.3170 C   0  0  0  0  0  0  0  0  0  0  0  0
   30.7380   28.2920   47.1260 N   0  0  0  0  0  0  0  0  0  0  0  0
   31.9890   28.6350   46.8650 N   0  0  0  0  0  0  0  0  0  0  0  0
   29.6820   28.5910   46.2220 C   0  0  0  0  0  0  0  0  0  0  0  0
   29.1220   27.6090   45.4430 C   0  0  0  0  0  0  0  0  0  0  0  0
   28.0990   27.9300   44.5760 C   0  0  0  0  0  0  0  0  0  0  0  0
   27.5780   29.1960   44.4240 C   0  0  0  0  0  0  0  0  0  0  0  0
   28.1520   30.1610   45.2130 C   0  0  0  0  0  0  0  0  0  0  0  0
   29.1660   29.8570   46.0760 C   0  0  0  0  0  0  0  0  0  0  0  0
   27.5340   31.8240   45.0780 S   0  0  0  0  0  0  0  0  0  0  0  0
   26.2350   31.7890   43.8600 C   0  0  0  0  0  0  0  0  0  0  0  0
   25.5870   32.9590   43.5660 C   0  0  0  0  0  0  0  0  0  0  0  0
   24.5790   33.0000   42.6400 C   0  0  0  0  0  0  0  0  0  0  0  0
   24.2330   31.8280   42.0070 C   0  0  0  0  0  0  0  0  0  0  0  0
   24.9170   30.6800   42.3410 C   0  0  0  0  0  0  0  0  0  0  0  0
   25.9350   30.5900   43.2650 C   0  0  0  0  0  0  0  0  0  0  0  0
   26.5360   29.3370   43.4920 N   0  0  0  0  0  0  0  0  0  0  0  0
   34.2900   28.4240   47.9910 C   0  0  0  0  0  0  0  0  0  0  0  0
   34.5990   28.2850   49.4520 C   0  0  0  0  0  0  0  0  0  0  0  0
   37.1730   30.1410   51.3560 C   0  0  0  0  0  0  0  0  0  0  0  0
   37.9990   30.6540   50.3480 C   0  0  0  0  0  0  0  0  0  0  0  0
   37.6570   30.3510   49.0090 C   0  0  0  0  0  0  0  0  0  0  0  0
   36.5590   29.5900   48.7750 N   0  0  0  0  0  0  0  0  0  0  0  0
   35.7970   29.1210   49.7920 C   0  0  0  0  0  0  0  0  0  0  0  0
   36.1070   29.3970   51.0600 N   0  0  0  0  0  0  0  0  0  0  0  0
   32.3022   27.1838   49.7292 H   0  0  0  0  0  0  0  0  0  0  0  0
   29.7706   27.2485   48.8099 H   0  0  0  0  0  0  0  0  0  0  0  0
   29.4868   26.5734   45.5100 H   0  0  0  0  0  0  0  0  0  0  0  0
   27.6706   27.1216   43.9653 H   0  0  0  0  0  0  0  0  0  0  0  0
   29.5920   30.6672   46.6860 H   0  0  0  0  0  0  0  0  0  0  0  0
   25.8819   33.8837   44.0836 H   0  0  0  0  0  0  0  0  0  0  0  0
   24.0609   33.9424   42.4088 H   0  0  0  0  0  0  0  0  0  0  0  0
   23.4313   31.8085   41.2541 H   0  0  0  0  0  0  0  0  0  0  0  0
   24.6248   29.7537   41.8247 H   0  0  0  0  0  0  0  0  0  0  0  0
   26.2076   28.5132   42.9681 H   0  0  0  0  0  0  0  0  0  0  0  0
   34.8189   27.6525   47.4123 H   0  0  0  0  0  0  0  0  0  0  0  0
   34.6127   29.4000   47.5994 H   0  0  0  0  0  0  0  0  0  0  0  0
   33.7356   28.6242   50.0432 H   0  0  0  0  0  0  0  0  0  0  0  0
   34.8105   27.2305   49.6831 H   0  0  0  0  0  0  0  0  0  0  0  0
   37.4076   30.3554   52.4091 H   0  0  0  0  0  0  0  0  0  0  0  0
   38.8792   31.2685   50.5880 H   0  0  0  0  0  0  0  0  0  0  0  0
   38.2690   30.7249   48.1749 H   0  0  0  0  0  0  0  0  0  0  0  0
  1 20  1  0
  1  2  1  0
  3  2  2  0
  4  3  1  0
  5  4  1  0
  5  1  2  0
  6  4  1  0
  7  6  2  0
  8  7  1  0
  9  8  2  0
  9 10  1  0
 10 11  2  0
 11  6  1  0
 12 10  1  0
 13 12  1  0
 14 13  2  0
 15 14  1  0
 16 17  1  0
 16 15  2  0
 17 18  2  0
 18 19  1  0
 18 13  1  0
 19  9  1  0
 20 21  1  0
 21 26  1  0
 23 22  2  0
 24 23  1  0
 25 24  2  0
 25 26  1  0
 26 27  2  0
 27 22  1  0
  2 28  1  0
  3 29  1  0
  7 30  1  0
  8 31  1  0
 11 32  1  0
 14 33  1  0
 15 34  1  0
 16 35  1  0
 17 36  1  0
 19 37  1  0
 20 38  1  0
 20 39  1  0
 21 40  1  0
 21 41  1  0
 22 42  1  0
 23 43  1  0
 24 44  1  0
M  ISO  8  28  14  29  14  30  14  31  14  32  14  33  14  34  14  35  14
M  ISO  8  36  14  38   8  39   8  40   8  41   8  42  14  43  14  44  14
M  END
>  <minimizedAffinity>  (1) 
-6.42569208

>  <minimizedRMSD>  (1) 
1.13187099

$$$$
