
     RDKit          3D

 33 35  0  0  0  0  0  0  0  0999 V2000
   32.6440   27.7900   48.6920 C   0  0  0  0  0  0  0  0  0  0  0  0
   32.2770   26.7650   47.8650 C   0  0  0  0  0  0  0  0  0  0  0  0
   30.9410   26.4290   48.0500 C   0  0  0  0  0  0  0  0  0  0  0  0
   30.5360   27.2880   49.0110 N   0  0  0  0  0  0  0  0  0  0  0  0
   31.5410   28.0860   49.3850 N   0  0  0  0  0  0  0  0  0  0  0  0
   28.8580   29.2220   47.5630 Cl  0  0  0  0  0  0  0  0  0  0  0  0
   28.4490   28.4120   49.0820 C   0  0  0  0  0  0  0  0  0  0  0  0
   29.3050   27.5170   49.6880 C   0  0  0  0  0  0  0  0  0  0  0  0
   28.9780   26.8910   50.8730 C   0  0  0  0  0  0  0  0  0  0  0  0
   27.7430   27.1880   51.4530 C   0  0  0  0  0  0  0  0  0  0  0  0
   26.8780   28.0900   50.8460 C   0  0  0  0  0  0  0  0  0  0  0  0
   27.2180   28.7060   49.6640 C   0  0  0  0  0  0  0  0  0  0  0  0
   34.0080   28.4060   48.7610 C   0  0  0  0  0  0  0  0  0  0  0  0
   34.0610   29.2020   50.0310 C   0  0  0  0  0  0  0  0  0  0  0  0
   37.4040   30.0300   51.3610 C   0  0  0  0  0  0  0  0  0  0  0  0
   37.9140   30.9250   50.4150 C   0  0  0  0  0  0  0  0  0  0  0  0
   37.0900   31.2380   49.3120 C   0  0  0  0  0  0  0  0  0  0  0  0
   35.8590   30.6710   49.2150 N   0  0  0  0  0  0  0  0  0  0  0  0
   35.4250   29.8060   50.1760 C   0  0  0  0  0  0  0  0  0  0  0  0
   36.1920   29.5010   51.2210 N   0  0  0  0  0  0  0  0  0  0  0  0
   32.9499   26.2716   47.1482 H   0  0  0  0  0  0  0  0  0  0  0  0
   30.3551   25.6516   47.5378 H   0  0  0  0  0  0  0  0  0  0  0  0
   29.6696   26.1790   51.3470 H   0  0  0  0  0  0  0  0  0  0  0  0
   27.4529   26.7043   52.3974 H   0  0  0  0  0  0  0  0  0  0  0  0
   25.9093   28.3143   51.3164 H   0  0  0  0  0  0  0  0  0  0  0  0
   26.5295   29.4187   49.1865 H   0  0  0  0  0  0  0  0  0  0  0  0
   34.7779   27.6205   48.7742 H   0  0  0  0  0  0  0  0  0  0  0  0
   34.1965   29.0459   47.8863 H   0  0  0  0  0  0  0  0  0  0  0  0
   33.3062   30.0014   49.9962 H   0  0  0  0  0  0  0  0  0  0  0  0
   33.8542   28.5449   50.8886 H   0  0  0  0  0  0  0  0  0  0  0  0
   38.0151   29.7594   52.2347 H   0  0  0  0  0  0  0  0  0  0  0  0
   38.9153   31.3667   50.5257 H   0  0  0  0  0  0  0  0  0  0  0  0
   37.4418   31.9353   48.5374 H   0  0  0  0  0  0  0  0  0  0  0  0
  1 13  1  0
  1  5  2  0
  2  3  2  0
  2  1  1  0
  3  4  1  0
  4  5  1  0
  4  8  1  0
  6  7  1  0
  7 12  2  0
  7  8  1  0
  8  9  2  0
  9 10  1  0
 11 10  2  0
 12 11  1  0
 13 14  1  0
 14 19  1  0
 16 15  2  0
 17 16  1  0
 18 17  2  0
 18 19  1  0
 19 20  2  0
 20 15  1  0
  2 21  1  0
  3 22  1  0
  9 23  1  0
 10 24  1  0
 11 25  1  0
 12 26  1  0
 13 27  1  0
 13 28  1  0
 14 29  1  0
 14 30  1  0
 15 31  1  0
 16 32  1  0
 17 33  1  0
M  ISO  8  21  14  22  14  23  14  24  14  25  14  26  14  27   8  28   8
M  ISO  5  29   8  30   8  31  14  32  14  33  14
M  END
>  <minimizedAffinity>  (1) 
-6.29650974

>  <minimizedRMSD>  (1) 
3.55626154

$$$$
