
     RDKit          3D

 38 40  0  0  0  0  0  0  0  0999 V2000
   34.0890   28.5610   48.0450 C   0  0  0  0  0  0  0  0  0  0  0  0
   32.7610   27.8950   47.8570 C   0  0  0  0  0  0  0  0  0  0  0  0
   32.4810   26.5550   47.9960 C   0  0  0  0  0  0  0  0  0  0  0  0
   31.1390   26.3050   47.7430 C   0  0  0  0  0  0  0  0  0  0  0  0
   30.6450   27.5250   47.4550 N   0  0  0  0  0  0  0  0  0  0  0  0
   31.5890   28.4470   47.5220 N   0  0  0  0  0  0  0  0  0  0  0  0
   28.5680   27.9320   49.6880 N   0  0  0  0  0  0  0  0  0  0  0  0
   27.8380   26.8950   49.0220 C   0  0  0  0  0  0  0  0  0  0  0  0
   28.3510   26.6800   47.6230 C   0  0  0  0  0  0  0  0  0  0  0  0
   29.2470   27.7650   47.1170 C   0  0  0  0  0  0  0  0  0  0  0  0
   28.7480   29.0980   47.5700 C   0  0  0  0  0  0  0  0  0  0  0  0
   28.4380   29.1970   49.0270 C   0  0  0  0  0  0  0  0  0  0  0  0
   34.5200   28.2600   49.4530 C   0  0  0  0  0  0  0  0  0  0  0  0
   37.1050   30.0940   51.3740 C   0  0  0  0  0  0  0  0  0  0  0  0
   37.9370   30.6060   50.3520 C   0  0  0  0  0  0  0  0  0  0  0  0
   37.5820   30.3050   49.0150 C   0  0  0  0  0  0  0  0  0  0  0  0
   36.4820   29.5520   48.7750 N   0  0  0  0  0  0  0  0  0  0  0  0
   35.7210   29.0870   49.7970 C   0  0  0  0  0  0  0  0  0  0  0  0
   36.0340   29.3570   51.0530 N   0  0  0  0  0  0  0  0  0  0  0  0
   33.9935   29.6473   47.9005 H   0  0  0  0  0  0  0  0  0  0  0  0
   34.8258   28.1936   47.3156 H   0  0  0  0  0  0  0  0  0  0  0  0
   33.2193   25.7870   48.2700 H   0  0  0  0  0  0  0  0  0  0  0  0
   30.6071   25.3426   47.7709 H   0  0  0  0  0  0  0  0  0  0  0  0
   28.2120   28.0226   50.6503 H   0  0  0  0  0  0  0  0  0  0  0  0
   27.9441   25.9595   49.5908 H   0  0  0  0  0  0  0  0  0  0  0  0
   26.7815   27.1955   48.9631 H   0  0  0  0  0  0  0  0  0  0  0  0
   28.9126   25.7343   47.6046 H   0  0  0  0  0  0  0  0  0  0  0  0
   27.4696   26.6701   46.9649 H   0  0  0  0  0  0  0  0  0  0  0  0
   29.2149   27.7622   46.0175 H   0  0  0  0  0  0  0  0  0  0  0  0
   29.5172   29.8480   47.3336 H   0  0  0  0  0  0  0  0  0  0  0  0
   27.7970   29.2642   47.0427 H   0  0  0  0  0  0  0  0  0  0  0  0
   29.1322   29.9135   49.4904 H   0  0  0  0  0  0  0  0  0  0  0  0
   27.3952   29.5309   49.1318 H   0  0  0  0  0  0  0  0  0  0  0  0
   33.7000   28.4989   50.1462 H   0  0  0  0  0  0  0  0  0  0  0  0
   34.7739   27.1931   49.5378 H   0  0  0  0  0  0  0  0  0  0  0  0
   37.3367   30.3004   52.4293 H   0  0  0  0  0  0  0  0  0  0  0  0
   38.8238   31.2133   50.5861 H   0  0  0  0  0  0  0  0  0  0  0  0
   38.1929   30.6786   48.1800 H   0  0  0  0  0  0  0  0  0  0  0  0
  1 13  1  0
  2  3  1  0
  2  1  1  0
  4  3  2  0
  5  6  1  0
  5  4  1  0
  6  2  2  0
  8  7  1  0
  9  8  1  0
 10  5  1  0
 10 11  1  0
 10  9  1  0
 11 12  1  0
 12  7  1  0
 13 18  1  0
 15 14  2  0
 16 15  1  0
 17 16  2  0
 17 18  1  0
 18 19  2  0
 19 14  1  0
  1 20  1  0
  1 21  1  0
  3 22  1  0
  4 23  1  0
  7 24  1  0
  8 25  1  0
  8 26  1  0
  9 27  1  0
  9 28  1  0
 10 29  1  0
 11 30  1  0
 11 31  1  0
 12 32  1  0
 12 33  1  0
 13 34  1  0
 13 35  1  0
 14 36  1  0
 15 37  1  0
 16 38  1  0
M  ISO  8  20   8  21   8  22  14  23  14  24   5  25  13  26  13  27  13
M  ISO  8  28  13  29  13  30  13  31  13  32  13  33  13  34   8  35   8
M  ISO  3  36  14  37  14  38  14
M  END
>  <minimizedAffinity>  (1) 
-5.11289978

>  <minimizedRMSD>  (1) 
1.28923774

$$$$
