
     RDKit          3D

 50 55  0  0  0  0  0  0  0  0999 V2000
   34.4540   28.7610   48.0490 C   0  0  0  0  0  0  0  0  0  0  0  0
   33.2660   29.1660   47.2080 C   0  0  0  0  0  0  0  0  0  0  0  0
   32.0940   28.4740   47.0150 C   0  0  0  0  0  0  0  0  0  0  0  0
   31.2780   29.2180   46.1630 C   0  0  0  0  0  0  0  0  0  0  0  0
   31.9960   30.3400   45.8720 N   0  0  0  0  0  0  0  0  0  0  0  0
   33.1540   30.2980   46.4880 N   0  0  0  0  0  0  0  0  0  0  0  0
   30.1590   31.3310   44.4790 N   0  0  0  0  0  0  0  0  0  0  0  0
   31.4020   31.2960   45.0080 C   0  0  0  0  0  0  0  0  0  0  0  0
   32.0640   32.4050   44.5570 N   0  0  0  0  0  0  0  0  0  0  0  0
   31.2440   33.1120   43.7630 C   0  0  0  0  0  0  0  0  0  0  0  0
   31.4450   34.2940   43.0760 C   0  0  0  0  0  0  0  0  0  0  0  0
   30.4470   34.8000   42.3410 N   0  0  0  0  0  0  0  0  0  0  0  0
   29.2730   34.1440   42.2880 C   0  0  0  0  0  0  0  0  0  0  0  0
   29.0630   32.9920   42.9510 N   0  0  0  0  0  0  0  0  0  0  0  0
   30.0290   32.4420   43.7030 C   0  0  0  0  0  0  0  0  0  0  0  0
   34.2760   29.4870   49.3560 C   0  0  0  0  0  0  0  0  0  0  0  0
   37.2880   29.8440   51.4610 C   0  0  0  0  0  0  0  0  0  0  0  0
   38.0210   30.7900   50.7370 C   0  0  0  0  0  0  0  0  0  0  0  0
   37.4920   31.3250   49.5200 C   0  0  0  0  0  0  0  0  0  0  0  0
   36.2680   30.8450   49.1570 N   0  0  0  0  0  0  0  0  0  0  0  0
   35.6010   29.9360   49.8820 C   0  0  0  0  0  0  0  0  0  0  0  0
   36.0960   29.4500   51.0030 N   0  0  0  0  0  0  0  0  0  0  0  0
   38.3600   32.2560   48.8570 C   0  0  0  0  0  0  0  0  0  0  0  0
   38.7130   33.4440   49.4660 C   0  0  0  0  0  0  0  0  0  0  0  0
   39.5470   34.3770   48.9020 C   0  0  0  0  0  0  0  0  0  0  0  0
   40.0970   34.1770   47.6580 C   0  0  0  0  0  0  0  0  0  0  0  0
   39.7850   33.0100   46.9960 C   0  0  0  0  0  0  0  0  0  0  0  0
   40.3410   32.7900   45.7550 C   0  0  0  0  0  0  0  0  0  0  0  0
   40.0720   31.6310   45.0590 C   0  0  0  0  0  0  0  0  0  0  0  0
   39.2220   30.6910   45.6540 C   0  0  0  0  0  0  0  0  0  0  0  0
   38.7050   30.9800   46.8950 C   0  0  0  0  0  0  0  0  0  0  0  0
   38.9430   32.1200   47.6220 C   0  0  0  0  0  0  0  0  0  0  0  0
   35.3927   29.0654   47.5631 H   0  0  0  0  0  0  0  0  0  0  0  0
   34.5083   27.6711   48.1873 H   0  0  0  0  0  0  0  0  0  0  0  0
   31.8424   27.4989   47.4575 H   0  0  0  0  0  0  0  0  0  0  0  0
   30.2720   28.9561   45.8033 H   0  0  0  0  0  0  0  0  0  0  0  0
   29.4244   30.6268   44.6381 H   0  0  0  0  0  0  0  0  0  0  0  0
   32.4133   34.8129   43.1324 H   0  0  0  0  0  0  0  0  0  0  0  0
   28.4569   34.5641   41.6817 H   0  0  0  0  0  0  0  0  0  0  0  0
   33.6311   30.3643   49.1994 H   0  0  0  0  0  0  0  0  0  0  0  0
   33.8129   28.8055   50.0848 H   0  0  0  0  0  0  0  0  0  0  0  0
   37.6885   29.4287   52.3975 H   0  0  0  0  0  0  0  0  0  0  0  0
   39.0036   31.1225   51.1030 H   0  0  0  0  0  0  0  0  0  0  0  0
   38.3008   33.6555   50.4637 H   0  0  0  0  0  0  0  0  0  0  0  0
   39.7790   35.2996   49.4543 H   0  0  0  0  0  0  0  0  0  0  0  0
   40.7649   34.9250   47.2058 H   0  0  0  0  0  0  0  0  0  0  0  0
   41.0066   33.5471   45.3148 H   0  0  0  0  0  0  0  0  0  0  0  0
   40.5115   31.4503   44.0669 H   0  0  0  0  0  0  0  0  0  0  0  0
   38.9749   29.7485   45.1435 H   0  0  0  0  0  0  0  0  0  0  0  0
   38.0399   30.2291   47.3465 H   0  0  0  0  0  0  0  0  0  0  0  0
  1 16  1  0
  2  1  1  0
  3  2  1  0
  4  3  2  0
  5  4  1  0
  5  6  1  0
  6  2  2  0
  7  8  1  0
  8  5  1  0
  9  8  2  0
 10  9  1  0
 11 10  2  0
 12 11  1  0
 13 12  2  0
 13 14  1  0
 14 15  2  0
 15 10  1  0
 15  7  1  0
 16 21  1  0
 18 17  2  0
 19 18  1  0
 20 19  2  0
 20 21  1  0
 21 22  2  0
 22 17  1  0
 23 24  2  0
 23 19  1  0
 25 24  1  0
 26 25  2  0
 27 32  2  0
 27 26  1  0
 28 27  1  0
 29 30  1  0
 29 28  2  0
 30 31  2  0
 31 32  1  0
 32 23  1  0
  1 33  1  0
  1 34  1  0
  3 35  1  0
  4 36  1  0
  7 37  1  0
 11 38  1  0
 13 39  1  0
 16 40  1  0
 16 41  1  0
 17 42  1  0
 18 43  1  0
 24 44  1  0
 25 45  1  0
 26 46  1  0
 28 47  1  0
 29 48  1  0
 30 49  1  0
 31 50  1  0
M  ISO  8  33   8  34   8  35  14  36  14  37   9  38  14  39  14  40   8
M  ISO  8  41   8  42  14  43  14  44  14  45  14  46  14  47  14  48  14
M  ISO  2  49  14  50  14
M  END
>  <minimizedAffinity>  (1) 
-8.61463928

>  <minimizedRMSD>  (1) 
2.48984909

$$$$
