
     RDKit          3D

 44 48  0  0  0  0  0  0  0  0999 V2000
   34.4960   28.2530   47.9930 C   0  0  0  0  0  0  0  0  0  0  0  0
   33.0210   28.3100   47.6860 C   0  0  0  0  0  0  0  0  0  0  0  0
   32.0290   27.4750   48.1930 C   0  0  0  0  0  0  0  0  0  0  0  0
   30.8120   27.8700   47.6570 C   0  0  0  0  0  0  0  0  0  0  0  0
   31.1040   28.9260   46.8450 N   0  0  0  0  0  0  0  0  0  0  0  0
   32.4020   29.1780   46.8680 N   0  0  0  0  0  0  0  0  0  0  0  0
   28.7060   29.3050   46.2200 N   0  0  0  0  0  0  0  0  0  0  0  0
   30.0280   29.5440   46.1490 C   0  0  0  0  0  0  0  0  0  0  0  0
   30.1940   30.5420   45.2370 N   0  0  0  0  0  0  0  0  0  0  0  0
   29.0090   30.9080   44.7590 C   0  0  0  0  0  0  0  0  0  0  0  0
   28.6650   31.8700   43.8200 C   0  0  0  0  0  0  0  0  0  0  0  0
   27.3770   32.0470   43.5050 N   0  0  0  0  0  0  0  0  0  0  0  0
   26.4260   31.2800   44.1100 C   0  0  0  0  0  0  0  0  0  0  0  0
   26.7680   30.3470   45.0240 N   0  0  0  0  0  0  0  0  0  0  0  0
   28.0500   30.1390   45.3670 C   0  0  0  0  0  0  0  0  0  0  0  0
   34.5910   28.2440   49.4910 C   0  0  0  0  0  0  0  0  0  0  0  0
   37.0740   29.9630   51.6210 C   0  0  0  0  0  0  0  0  0  0  0  0
   37.8320   30.6710   50.6530 C   0  0  0  0  0  0  0  0  0  0  0  0
   37.4790   30.5460   49.3000 C   0  0  0  0  0  0  0  0  0  0  0  0
   36.4290   29.7470   49.0240 N   0  0  0  0  0  0  0  0  0  0  0  0
   35.7230   29.0850   49.9580 C   0  0  0  0  0  0  0  0  0  0  0  0
   36.0480   29.1990   51.2220 N   0  0  0  0  0  0  0  0  0  0  0  0
   38.1950   31.2310   48.2350 C   0  0  0  0  0  0  0  0  0  0  0  0
   38.3820   30.7140   46.9730 C   0  0  0  0  0  0  0  0  0  0  0  0
   39.0550   31.3490   45.9580 C   0  0  0  0  0  0  0  0  0  0  0  0
   39.5860   32.5990   46.2120 C   0  0  0  0  0  0  0  0  0  0  0  0
   39.4130   33.1430   47.4680 C   0  0  0  0  0  0  0  0  0  0  0  0
   38.7240   32.4700   48.4790 C   0  0  0  0  0  0  0  0  0  0  0  0
   35.0094   29.1338   47.5800 H   0  0  0  0  0  0  0  0  0  0  0  0
   34.9728   27.3675   47.5474 H   0  0  0  0  0  0  0  0  0  0  0  0
   32.1837   26.6446   48.8976 H   0  0  0  0  0  0  0  0  0  0  0  0
   29.8233   27.4265   47.8464 H   0  0  0  0  0  0  0  0  0  0  0  0
   28.2598   28.6010   46.8252 H   0  0  0  0  0  0  0  0  0  0  0  0
   29.4435   32.4808   43.3395 H   0  0  0  0  0  0  0  0  0  0  0  0
   25.3667   31.4231   43.8502 H   0  0  0  0  0  0  0  0  0  0  0  0
   33.6538   28.6357   49.9132 H   0  0  0  0  0  0  0  0  0  0  0  0
   34.7617   27.2099   49.8250 H   0  0  0  0  0  0  0  0  0  0  0  0
   37.3261   30.0405   52.6889 H   0  0  0  0  0  0  0  0  0  0  0  0
   38.6785   31.3046   50.9563 H   0  0  0  0  0  0  0  0  0  0  0  0
   37.9617   29.7196   46.7620 H   0  0  0  0  0  0  0  0  0  0  0  0
   39.1680   30.8760   44.9713 H   0  0  0  0  0  0  0  0  0  0  0  0
   40.1336   33.1474   45.4314 H   0  0  0  0  0  0  0  0  0  0  0  0
   39.8310   34.1382   47.6796 H   0  0  0  0  0  0  0  0  0  0  0  0
   38.6065   32.9343   49.4693 H   0  0  0  0  0  0  0  0  0  0  0  0
  1 16  1  0
  2  1  1  0
  2  3  1  0
  4  3  2  0
  5  6  1  0
  5  4  1  0
  6  2  2  0
  8  7  1  0
  8  5  1  0
  9  8  2  0
 10  9  1  0
 10 15  2  0
 11 10  1  0
 12 11  2  0
 12 13  1  0
 13 14  2  0
 14 15  1  0
 15  7  1  0
 16 21  1  0
 18 17  2  0
 19 18  1  0
 20 19  2  0
 20 21  1  0
 21 22  2  0
 22 17  1  0
 23 28  1  0
 23 19  1  0
 24 23  2  0
 25 26  2  0
 25 24  1  0
 26 27  1  0
 27 28  2  0
  1 29  1  0
  1 30  1  0
  3 31  1  0
  4 32  1  0
  7 33  1  0
 11 34  1  0
 13 35  1  0
 16 36  1  0
 16 37  1  0
 17 38  1  0
 18 39  1  0
 24 40  1  0
 25 41  1  0
 26 42  1  0
 27 43  1  0
 28 44  1  0
M  ISO  8  29   8  30   8  31  14  32  14  33   9  34  14  35  14  36   8
M  ISO  8  37   8  38  14  39  14  40  14  41  14  42  14  43  14  44  14
M  END
>  <minimizedAffinity>  (1) 
-7.17032337

>  <minimizedRMSD>  (1) 
0.616788447

$$$$
