
     RDKit          3D

 50 54  0  0  0  0  0  0  0  0999 V2000
   34.5580   28.2790   47.9430 C   0  0  0  0  0  0  0  0  0  0  0  0
   33.0770   28.3370   47.6650 C   0  0  0  0  0  0  0  0  0  0  0  0
   32.0950   27.5230   48.2120 C   0  0  0  0  0  0  0  0  0  0  0  0
   30.8680   27.9070   47.6910 C   0  0  0  0  0  0  0  0  0  0  0  0
   31.1420   28.9360   46.8490 N   0  0  0  0  0  0  0  0  0  0  0  0
   32.4410   29.1820   46.8390 N   0  0  0  0  0  0  0  0  0  0  0  0
   28.7400   29.2980   46.2510 N   0  0  0  0  0  0  0  0  0  0  0  0
   30.0570   29.5430   46.1590 C   0  0  0  0  0  0  0  0  0  0  0  0
   30.2060   30.5350   45.2310 N   0  0  0  0  0  0  0  0  0  0  0  0
   29.0120   30.8950   44.7620 C   0  0  0  0  0  0  0  0  0  0  0  0
   28.6590   31.8350   43.8290 C   0  0  0  0  0  0  0  0  0  0  0  0
   27.3540   32.0070   43.5230 N   0  0  0  0  0  0  0  0  0  0  0  0
   26.4220   31.2440   44.1490 C   0  0  0  0  0  0  0  0  0  0  0  0
   26.7760   30.3170   45.0700 N   0  0  0  0  0  0  0  0  0  0  0  0
   28.0730   30.1230   45.3950 C   0  0  0  0  0  0  0  0  0  0  0  0
   34.6980   28.3250   49.4360 C   0  0  0  0  0  0  0  0  0  0  0  0
   37.2120   30.1950   51.4080 C   0  0  0  0  0  0  0  0  0  0  0  0
   38.0410   30.7230   50.4080 C   0  0  0  0  0  0  0  0  0  0  0  0
   37.7200   30.4250   49.0710 C   0  0  0  0  0  0  0  0  0  0  0  0
   36.6460   29.6570   48.8120 N   0  0  0  0  0  0  0  0  0  0  0  0
   35.8640   29.1630   49.8180 C   0  0  0  0  0  0  0  0  0  0  0  0
   36.1660   29.4440   51.0800 N   0  0  0  0  0  0  0  0  0  0  0  0
   38.4950   30.9050   47.9000 C   0  0  0  0  0  0  0  0  0  0  0  0
   38.6120   32.4070   47.8390 C   0  0  0  0  0  0  0  0  0  0  0  0
   39.4860   32.7060   46.6240 C   0  0  0  0  0  0  0  0  0  0  0  0
   38.6980   32.4200   45.3780 C   0  0  0  0  0  0  0  0  0  0  0  0
   37.4710   31.6170   45.7090 C   0  0  0  0  0  0  0  0  0  0  0  0
   37.9140   30.4490   46.5960 C   0  0  0  0  0  0  0  0  0  0  0  0
   35.0674   29.1392   47.4842 H   0  0  0  0  0  0  0  0  0  0  0  0
   35.0126   27.3699   47.5225 H   0  0  0  0  0  0  0  0  0  0  0  0
   32.2613   26.7114   48.9356 H   0  0  0  0  0  0  0  0  0  0  0  0
   29.8829   27.4707   47.9129 H   0  0  0  0  0  0  0  0  0  0  0  0
   28.3038   28.5990   46.8691 H   0  0  0  0  0  0  0  0  0  0  0  0
   29.4304   32.4434   43.3342 H   0  0  0  0  0  0  0  0  0  0  0  0
   25.3587   31.3815   43.9032 H   0  0  0  0  0  0  0  0  0  0  0  0
   33.7841   28.7535   49.8733 H   0  0  0  0  0  0  0  0  0  0  0  0
   34.8523   27.3032   49.8130 H   0  0  0  0  0  0  0  0  0  0  0  0
   37.4280   30.4029   52.4664 H   0  0  0  0  0  0  0  0  0  0  0  0
   38.9108   31.3476   50.6597 H   0  0  0  0  0  0  0  0  0  0  0  0
   39.4920   30.4637   48.0455 H   0  0  0  0  0  0  0  0  0  0  0  0
   37.6188   32.8642   47.7184 H   0  0  0  0  0  0  0  0  0  0  0  0
   39.0472   32.8174   48.7621 H   0  0  0  0  0  0  0  0  0  0  0  0
   39.7867   33.7640   46.6364 H   0  0  0  0  0  0  0  0  0  0  0  0
   40.3876   32.0763   46.6485 H   0  0  0  0  0  0  0  0  0  0  0  0
   39.3247   31.8518   44.6748 H   0  0  0  0  0  0  0  0  0  0  0  0
   38.3898   33.3729   44.9231 H   0  0  0  0  0  0  0  0  0  0  0  0
   36.7452   32.2440   46.2476 H   0  0  0  0  0  0  0  0  0  0  0  0
   36.9893   31.2474   44.7917 H   0  0  0  0  0  0  0  0  0  0  0  0
   37.0411   29.8123   46.8025 H   0  0  0  0  0  0  0  0  0  0  0  0
   38.6982   29.8985   46.0557 H   0  0  0  0  0  0  0  0  0  0  0  0
  1 16  1  0
  2  1  1  0
  2  3  1  0
  4  3  2  0
  5  4  1  0
  6  5  1  0
  6  2  2  0
  8  7  1  0
  8  5  1  0
  9  8  2  0
 10  9  1  0
 10 15  2  0
 11 10  1  0
 12 11  2  0
 12 13  1  0
 13 14  2  0
 14 15  1  0
 15  7  1  0
 16 21  1  0
 18 17  2  0
 19 18  1  0
 20 19  2  0
 20 21  1  0
 21 22  2  0
 22 17  1  0
 23 19  1  0
 24 23  1  0
 25 24  1  0
 26 27  1  0
 26 25  1  0
 27 28  1  0
 28 23  1  0
  1 29  1  0
  1 30  1  0
  3 31  1  0
  4 32  1  0
  7 33  1  0
 11 34  1  0
 13 35  1  0
 16 36  1  0
 16 37  1  0
 17 38  1  0
 18 39  1  0
 23 40  1  0
 24 41  1  0
 24 42  1  0
 25 43  1  0
 25 44  1  0
 26 45  1  0
 26 46  1  0
 27 47  1  0
 27 48  1  0
 28 49  1  0
 28 50  1  0
M  ISO  8  29   8  30   8  31  14  32  14  33   9  34  14  35  14  36   8
M  ISO  8  37   8  38  14  39  14  40  13  41  13  42  13  43  13  44  13
M  ISO  6  45  13  46  13  47  13  48  13  49  13  50  13
M  END
>  <minimizedAffinity>  (1) 
-6.97062302

>  <minimizedRMSD>  (1) 
0.197672352

$$$$
