
     RDKit          3D

 41 45  0  0  0  0  0  0  0  0999 V2000
   32.9830   28.2120   47.7740 C   0  0  0  0  0  0  0  0  0  0  0  0
   31.9620   27.4400   48.3270 C   0  0  0  0  0  0  0  0  0  0  0  0
   30.7540   27.8600   47.7880 C   0  0  0  0  0  0  0  0  0  0  0  0
   31.0790   28.8720   46.9280 N   0  0  0  0  0  0  0  0  0  0  0  0
   32.3850   29.0660   46.9320 N   0  0  0  0  0  0  0  0  0  0  0  0
   28.6990   29.3110   46.3070 N   0  0  0  0  0  0  0  0  0  0  0  0
   30.0240   29.5010   46.2250 C   0  0  0  0  0  0  0  0  0  0  0  0
   30.2170   30.4720   45.2820 N   0  0  0  0  0  0  0  0  0  0  0  0
   29.0450   30.8710   44.7950 C   0  0  0  0  0  0  0  0  0  0  0  0
   28.7130   31.8100   43.8430 C   0  0  0  0  0  0  0  0  0  0  0  0
   27.4210   32.0170   43.5370 N   0  0  0  0  0  0  0  0  0  0  0  0
   26.4670   31.3040   44.1650 C   0  0  0  0  0  0  0  0  0  0  0  0
   26.7680   30.3810   45.0990 N   0  0  0  0  0  0  0  0  0  0  0  0
   28.0670   30.1470   45.4320 C   0  0  0  0  0  0  0  0  0  0  0  0
   34.4510   28.0980   48.0730 C   0  0  0  0  0  0  0  0  0  0  0  0
   34.5910   28.2790   49.5590 C   0  0  0  0  0  0  0  0  0  0  0  0
   37.2010   30.1590   51.3920 C   0  0  0  0  0  0  0  0  0  0  0  0
   37.9870   30.6590   50.3220 C   0  0  0  0  0  0  0  0  0  0  0  0
   37.6170   30.3480   48.9870 C   0  0  0  0  0  0  0  0  0  0  0  0
   36.5130   29.5780   48.8130 N   0  0  0  0  0  0  0  0  0  0  0  0
   35.7840   29.1170   49.8660 C   0  0  0  0  0  0  0  0  0  0  0  0
   36.1320   29.4080   51.1070 N   0  0  0  0  0  0  0  0  0  0  0  0
   38.4070   30.8480   47.8430 C   0  0  0  0  0  0  0  0  0  0  0  0
   38.9390   32.2150   47.7750 C   0  0  0  0  0  0  0  0  0  0  0  0
   37.7730   31.8460   46.9170 C   0  0  0  0  0  0  0  0  0  0  0  0
   32.0919   26.6348   49.0651 H   0  0  0  0  0  0  0  0  0  0  0  0
   29.7511   27.4640   48.0058 H   0  0  0  0  0  0  0  0  0  0  0  0
   28.2313   28.6394   46.9323 H   0  0  0  0  0  0  0  0  0  0  0  0
   29.5008   32.3868   43.3364 H   0  0  0  0  0  0  0  0  0  0  0  0
   25.4120   31.4801   43.9082 H   0  0  0  0  0  0  0  0  0  0  0  0
   34.8258   27.1085   47.7723 H   0  0  0  0  0  0  0  0  0  0  0  0
   35.0325   28.8509   47.5207 H   0  0  0  0  0  0  0  0  0  0  0  0
   33.6897   28.7727   49.9512 H   0  0  0  0  0  0  0  0  0  0  0  0
   34.7147   27.2928   50.0302 H   0  0  0  0  0  0  0  0  0  0  0  0
   37.4658   30.3847   52.4355 H   0  0  0  0  0  0  0  0  0  0  0  0
   38.8722   31.2800   50.5242 H   0  0  0  0  0  0  0  0  0  0  0  0
   38.8758   29.8568   47.7551 H   0  0  0  0  0  0  0  0  0  0  0  0
   38.7987   32.8999   48.6243 H   0  0  0  0  0  0  0  0  0  0  0  0
   39.9316   32.6489   47.5843 H   0  0  0  0  0  0  0  0  0  0  0  0
   36.7736   32.2491   47.1379 H   0  0  0  0  0  0  0  0  0  0  0  0
   37.5457   31.8855   45.8415 H   0  0  0  0  0  0  0  0  0  0  0  0
  1 15  1  0
  1  2  1  0
  3  2  2  0
  4  5  1  0
  4  3  1  0
  5  1  2  0
  7  6  1  0
  7  4  1  0
  8  7  2  0
  9  8  1  0
  9 14  2  0
 10  9  1  0
 11 10  2  0
 11 12  1  0
 12 13  2  0
 13 14  1  0
 14  6  1  0
 15 16  1  0
 16 21  1  0
 18 17  2  0
 19 18  1  0
 20 19  2  0
 20 21  1  0
 21 22  2  0
 22 17  1  0
 23 19  1  0
 24 23  1  0
 25 24  1  0
 25 23  1  0
  2 26  1  0
  3 27  1  0
  6 28  1  0
 10 29  1  0
 12 30  1  0
 15 31  1  0
 15 32  1  0
 16 33  1  0
 16 34  1  0
 17 35  1  0
 18 36  1  0
 23 37  1  0
 24 38  1  0
 24 39  1  0
 25 40  1  0
 25 41  1  0
M  ISO  8  26  14  27  14  28   9  29  14  30  14  31   8  32   8  33   8
M  ISO  8  34   8  35  14  36  14  37  13  38  13  39  13  40  13  41  13
M  END
>  <minimizedAffinity>  (1) 
-6.24238396

>  <minimizedRMSD>  (1) 
0.481161922

$$$$
