
     RDKit          3D

 35 38  0  0  0  0  0  0  0  0999 V2000
   33.0020   28.2300   47.7880 C   0  0  0  0  0  0  0  0  0  0  0  0
   31.9870   27.4520   48.3270 C   0  0  0  0  0  0  0  0  0  0  0  0
   30.7740   27.8570   47.7850 C   0  0  0  0  0  0  0  0  0  0  0  0
   31.1010   28.8710   46.9300 N   0  0  0  0  0  0  0  0  0  0  0  0
   32.4060   29.0860   46.9350 N   0  0  0  0  0  0  0  0  0  0  0  0
   28.7090   29.2790   46.2920 N   0  0  0  0  0  0  0  0  0  0  0  0
   30.0330   29.4880   46.2220 C   0  0  0  0  0  0  0  0  0  0  0  0
   30.2210   30.4650   45.2870 N   0  0  0  0  0  0  0  0  0  0  0  0
   29.0520   30.8600   44.7850 C   0  0  0  0  0  0  0  0  0  0  0  0
   28.7220   31.7940   43.8390 C   0  0  0  0  0  0  0  0  0  0  0  0
   27.4250   31.9820   43.5250 N   0  0  0  0  0  0  0  0  0  0  0  0
   26.4710   31.2560   44.1380 C   0  0  0  0  0  0  0  0  0  0  0  0
   26.7870   30.3300   45.0720 N   0  0  0  0  0  0  0  0  0  0  0  0
   28.0880   30.1180   45.4110 C   0  0  0  0  0  0  0  0  0  0  0  0
   34.4720   28.1330   48.0940 C   0  0  0  0  0  0  0  0  0  0  0  0
   34.5950   28.3120   49.5820 C   0  0  0  0  0  0  0  0  0  0  0  0
   37.2060   30.1640   51.4280 C   0  0  0  0  0  0  0  0  0  0  0  0
   38.0400   30.6070   50.3870 C   0  0  0  0  0  0  0  0  0  0  0  0
   37.6980   30.2650   49.0650 C   0  0  0  0  0  0  0  0  0  0  0  0
   36.5860   29.5300   48.8640 N   0  0  0  0  0  0  0  0  0  0  0  0
   35.8000   29.1180   49.9040 C   0  0  0  0  0  0  0  0  0  0  0  0
   36.1240   29.4410   51.1470 N   0  0  0  0  0  0  0  0  0  0  0  0
   38.5190   30.7020   48.0580 O   0  0  0  0  0  0  0  0  0  0  0  0
   32.1213   26.6460   49.0634 H   0  0  0  0  0  0  0  0  0  0  0  0
   29.7735   27.4518   47.9969 H   0  0  0  0  0  0  0  0  0  0  0  0
   28.2396   28.5994   46.9074 H   0  0  0  0  0  0  0  0  0  0  0  0
   29.5062   32.3835   43.3416 H   0  0  0  0  0  0  0  0  0  0  0  0
   25.4155   31.4189   43.8745 H   0  0  0  0  0  0  0  0  0  0  0  0
   34.8615   27.1492   47.7933 H   0  0  0  0  0  0  0  0  0  0  0  0
   35.0498   28.8921   47.5464 H   0  0  0  0  0  0  0  0  0  0  0  0
   33.7007   28.8283   49.9610 H   0  0  0  0  0  0  0  0  0  0  0  0
   34.6873   27.3236   50.0559 H   0  0  0  0  0  0  0  0  0  0  0  0
   37.4466   30.4139   52.4719 H   0  0  0  0  0  0  0  0  0  0  0  0
   38.9376   31.2061   50.6000 H   0  0  0  0  0  0  0  0  0  0  0  0
   38.3088   30.4799   47.1164 H   0  0  0  0  0  0  0  0  0  0  0  0
  1 15  1  0
  1  2  1  0
  3  2  2  0
  4  5  1  0
  4  3  1  0
  5  1  2  0
  7  6  1  0
  7  4  1  0
  8  7  2  0
  9  8  1  0
  9 14  2  0
 10  9  1  0
 11 10  2  0
 11 12  1  0
 12 13  2  0
 13 14  1  0
 14  6  1  0
 15 16  1  0
 16 21  1  0
 18 17  2  0
 19 18  1  0
 20 19  2  0
 20 21  1  0
 21 22  2  0
 22 17  1  0
 23 19  1  0
  2 24  1  0
  3 25  1  0
  6 26  1  0
 10 27  1  0
 12 28  1  0
 15 29  1  0
 15 30  1  0
 16 31  1  0
 16 32  1  0
 17 33  1  0
 18 34  1  0
 23 35  1  0
M  ISO  8  24  14  25  14  26   9  27  14  28  14  29   8  30   8  31   8
M  ISO  4  32   8  33  14  34  14  35   3
M  END
>  <minimizedAffinity>  (1) 
-5.92927742

>  <minimizedRMSD>  (1) 
0.0796717629

$$$$
