
     RDKit          3D

 32 34  0  0  0  0  0  0  0  0999 V2000
   33.4660   28.9850   49.2970 F   0  0  0  0  0  0  0  0  0  0  0  0
   33.8730   29.0920   48.0010 C   0  0  0  0  0  0  0  0  0  0  0  0
   33.0290   28.7680   46.9610 C   0  0  0  0  0  0  0  0  0  0  0  0
   33.4720   28.9530   45.6420 C   0  0  0  0  0  0  0  0  0  0  0  0
   34.7570   29.4580   45.4020 C   0  0  0  0  0  0  0  0  0  0  0  0
   35.5430   29.7560   46.4920 C   0  0  0  0  0  0  0  0  0  0  0  0
   35.1400   29.5890   47.7800 C   0  0  0  0  0  0  0  0  0  0  0  0
   37.5180   31.5180   47.1660 Br  0  0  0  0  0  0  0  0  0  0  0  0
   37.1010   30.7950   48.8630 C   0  0  0  0  0  0  0  0  0  0  0  0
   36.0290   29.9260   48.8740 C   0  0  0  0  0  0  0  0  0  0  0  0
   35.7030   29.3230   50.0800 C   0  0  0  0  0  0  0  0  0  0  0  0
   36.4130   29.5860   51.2090 C   0  0  0  0  0  0  0  0  0  0  0  0
   37.4690   30.4630   51.1420 C   0  0  0  0  0  0  0  0  0  0  0  0
   37.8350   31.0900   49.9460 C   0  0  0  0  0  0  0  0  0  0  0  0
   38.9490   32.0260   49.8270 C   0  0  0  0  0  0  0  0  0  0  0  0
   38.6820   33.2340   49.8160 O   0  0  0  0  0  0  0  0  0  0  0  0
   31.8100   26.9990   48.0010 C   0  0  0  0  0  0  0  0  0  0  0  0
   31.7560   28.2310   47.3050 C   0  0  0  0  0  0  0  0  0  0  0  0
   30.5210   28.7570   47.0440 C   0  0  0  0  0  0  0  0  0  0  0  0
   29.4060   28.0830   47.4590 N   0  0  0  0  0  0  0  0  0  0  0  0
   29.4930   26.9140   48.1180 C   0  0  0  0  0  0  0  0  0  0  0  0
   30.6840   26.3680   48.3930 N   0  0  0  0  0  0  0  0  0  0  0  0
   32.8119   28.7021   44.7986 H   0  0  0  0  0  0  0  0  0  0  0  0
   35.1252   29.6111   44.3768 H   0  0  0  0  0  0  0  0  0  0  0  0
   36.5535   30.1513   46.3111 H   0  0  0  0  0  0  0  0  0  0  0  0
   34.8570   28.6213   50.1234 H   0  0  0  0  0  0  0  0  0  0  0  0
   36.1465   29.1044   52.1614 H   0  0  0  0  0  0  0  0  0  0  0  0
   38.0432   30.6782   52.0552 H   0  0  0  0  0  0  0  0  0  0  0  0
   39.9871   31.6705   49.7500 H   0  0  0  0  0  0  0  0  0  0  0  0
   32.7879   26.5483   48.2261 H   0  0  0  0  0  0  0  0  0  0  0  0
   30.4256   29.7118   46.5061 H   0  0  0  0  0  0  0  0  0  0  0  0
   28.5738   26.3998   48.4352 H   0  0  0  0  0  0  0  0  0  0  0  0
  2  1  1  0
  3 18  1  0
  3  2  2  0
  4  3  1  0
  5  4  2  0
  5  6  1  0
  6  7  2  0
  7  2  1  0
  7 10  1  0
  8  9  1  0
  9 10  2  0
  9 14  1  0
 10 11  1  0
 11 12  2  0
 13 12  1  0
 14 13  2  0
 15 14  1  0
 16 15  2  0
 17 22  2  0
 18 17  1  0
 19 18  2  0
 19 20  1  0
 20 21  2  0
 21 22  1  0
  4 23  1  0
  5 24  1  0
  6 25  1  0
 11 26  1  0
 12 27  1  0
 13 28  1  0
 15 29  1  0
 17 30  1  0
 19 31  1  0
 21 32  1  0
M  ISO  8  23  14  24  14  25  14  26  14  27  14  28  14  29   6  30  14
M  ISO  2  31  14  32  14
M  END
>  <minimizedAffinity>  (1) 
-5.86352777

>  <minimizedRMSD>  (1) 
3.90619183

$$$$
