
     RDKit          3D

 38 41  0  0  0  0  0  0  0  0999 V2000
   34.2070   30.4510   47.6310 F   0  0  0  0  0  0  0  0  0  0  0  0
   34.6290   29.9870   46.4120 C   0  0  0  0  0  0  0  0  0  0  0  0
   33.7620   29.3810   45.5150 C   0  0  0  0  0  0  0  0  0  0  0  0
   34.2540   28.9570   44.3070 C   0  0  0  0  0  0  0  0  0  0  0  0
   35.6020   29.1270   43.9780 C   0  0  0  0  0  0  0  0  0  0  0  0
   36.4110   29.7370   44.9150 C   0  0  0  0  0  0  0  0  0  0  0  0
   35.9770   30.1690   46.1120 C   0  0  0  0  0  0  0  0  0  0  0  0
   37.9390   32.3520   45.0250 Br  0  0  0  0  0  0  0  0  0  0  0  0
   37.8040   31.7820   46.8310 C   0  0  0  0  0  0  0  0  0  0  0  0
   36.8870   30.7900   47.0540 C   0  0  0  0  0  0  0  0  0  0  0  0
   36.7620   30.2910   48.3630 C   0  0  0  0  0  0  0  0  0  0  0  0
   37.5270   30.7850   49.3720 C   0  0  0  0  0  0  0  0  0  0  0  0
   38.4260   31.7800   49.0890 C   0  0  0  0  0  0  0  0  0  0  0  0
   38.5750   32.2940   47.8010 C   0  0  0  0  0  0  0  0  0  0  0  0
   39.4480   33.2940   47.4250 O   0  0  0  0  0  0  0  0  0  0  0  0
   32.1320   28.2410   46.8850 C   0  0  0  0  0  0  0  0  0  0  0  0
   32.4030   29.2620   45.9670 C   0  0  0  0  0  0  0  0  0  0  0  0
   31.3560   30.0920   45.5780 C   0  0  0  0  0  0  0  0  0  0  0  0
   30.1140   29.8940   46.0920 N   0  0  0  0  0  0  0  0  0  0  0  0
   29.8940   28.9080   46.9670 C   0  0  0  0  0  0  0  0  0  0  0  0
   30.8630   28.0990   47.3600 N   0  0  0  0  0  0  0  0  0  0  0  0
   28.5140   28.7160   47.5180 C   0  0  0  0  0  0  0  0  0  0  0  0
   28.1430   29.3400   48.8110 C   0  0  0  0  0  0  0  0  0  0  0  0
   27.5770   29.8950   47.5310 C   0  0  0  0  0  0  0  0  0  0  0  0
   33.5773   28.4756   43.5857 H   0  0  0  0  0  0  0  0  0  0  0  0
   36.0019   28.7881   43.0109 H   0  0  0  0  0  0  0  0  0  0  0  0
   37.4736   29.8781   44.6680 H   0  0  0  0  0  0  0  0  0  0  0  0
   36.0364   29.4913   48.5727 H   0  0  0  0  0  0  0  0  0  0  0  0
   37.4266   30.3940   50.3953 H   0  0  0  0  0  0  0  0  0  0  0  0
   39.0479   32.1849   49.9010 H   0  0  0  0  0  0  0  0  0  0  0  0
   40.0429   33.7106   48.0978 H   0  0  0  0  0  0  0  0  0  0  0  0
   32.9317   27.5632   47.2181 H   0  0  0  0  0  0  0  0  0  0  0  0
   31.5331   30.9044   44.8579 H   0  0  0  0  0  0  0  0  0  0  0  0
   28.4765   27.6901   47.1229 H   0  0  0  0  0  0  0  0  0  0  0  0
   27.4885   28.8015   49.5122 H   0  0  0  0  0  0  0  0  0  0  0  0
   28.7051   29.7625   49.6569 H   0  0  0  0  0  0  0  0  0  0  0  0
   27.9136   30.8728   47.1559 H   0  0  0  0  0  0  0  0  0  0  0  0
   26.5677   30.0982   47.1436 H   0  0  0  0  0  0  0  0  0  0  0  0
  2  1  1  0
  3 17  1  0
  3  2  2  0
  4  3  1  0
  5  4  2  0
  5  6  1  0
  6  7  2  0
  7  2  1  0
  7 10  1  0
  8  9  1  0
  9 10  2  0
  9 14  1  0
 10 11  1  0
 11 12  2  0
 13 12  1  0
 14 13  2  0
 15 14  1  0
 16 21  2  0
 17 16  1  0
 18 17  2  0
 18 19  1  0
 19 20  2  0
 20 21  1  0
 20 22  1  0
 22 24  1  0
 22 23  1  0
 24 23  1  0
  4 25  1  0
  5 26  1  0
  6 27  1  0
 11 28  1  0
 12 29  1  0
 13 30  1  0
 15 31  1  0
 16 32  1  0
 18 33  1  0
 22 34  1  0
 23 35  1  0
 23 36  1  0
 24 37  1  0
 24 38  1  0
M  ISO  8  25  14  26  14  27  14  28  14  29  14  30  14  31   3  32  14
M  ISO  6  33  14  34  13  35  13  36  13  37  13  38  13
M  END
>  <minimizedAffinity>  (1) 
-5.88367319

>  <minimizedRMSD>  (1) 
0.129874378

$$$$
