
     RDKit          3D

 27 29  0  0  0  0  0  0  0  0999 V2000
   37.9840   31.9610   49.0900 C   0  0  0  0  0  0  0  0  0  0  0  0
   38.5050   33.0830   49.6780 C   0  0  0  0  0  0  0  0  0  0  0  0
   39.3540   33.9910   49.0410 C   0  0  0  0  0  0  0  0  0  0  0  0
   39.6740   33.7290   47.7530 N   0  0  0  0  0  0  0  0  0  0  0  0
   39.1720   32.6310   47.1540 C   0  0  0  0  0  0  0  0  0  0  0  0
   38.3590   31.7900   47.8120 N   0  0  0  0  0  0  0  0  0  0  0  0
   37.4330   30.3930   50.9690 C   0  0  0  0  0  0  0  0  0  0  0  0
   37.1190   31.0450   49.7560 C   0  0  0  0  0  0  0  0  0  0  0  0
   35.8750   30.7570   49.1940 C   0  0  0  0  0  0  0  0  0  0  0  0
   35.0550   29.8860   49.8290 N   0  0  0  0  0  0  0  0  0  0  0  0
   35.3940   29.2830   50.9890 C   0  0  0  0  0  0  0  0  0  0  0  0
   36.6010   29.5410   51.5670 N   0  0  0  0  0  0  0  0  0  0  0  0
   39.4910   32.3020   45.7500 C   0  0  0  0  0  0  0  0  0  0  0  0
   40.3760   31.2790   45.4560 C   0  0  0  0  0  0  0  0  0  0  0  0
   40.6940   30.9490   44.1530 C   0  0  0  0  0  0  0  0  0  0  0  0
   40.0940   31.6810   43.1270 C   0  0  0  0  0  0  0  0  0  0  0  0
   39.2130   32.7010   43.4290 C   0  0  0  0  0  0  0  0  0  0  0  0
   38.9330   32.9860   44.7140 N   0  0  0  0  0  0  0  0  0  0  0  0
   38.2359   33.2831   50.7256 H   0  0  0  0  0  0  0  0  0  0  0  0
   39.7441   34.8776   49.5623 H   0  0  0  0  0  0  0  0  0  0  0  0
   38.4058   30.5972   51.4401 H   0  0  0  0  0  0  0  0  0  0  0  0
   35.5651   31.2297   48.2503 H   0  0  0  0  0  0  0  0  0  0  0  0
   34.6945   28.5822   51.4682 H   0  0  0  0  0  0  0  0  0  0  0  0
   40.8373   30.7151   46.2802 H   0  0  0  0  0  0  0  0  0  0  0  0
   41.3986   30.1341   43.9306 H   0  0  0  0  0  0  0  0  0  0  0  0
   40.3230   31.4453   42.0772 H   0  0  0  0  0  0  0  0  0  0  0  0
   38.7412   33.2791   42.6208 H   0  0  0  0  0  0  0  0  0  0  0  0
  1  2  2  0
  1  8  1  0
  3  2  1  0
  4  3  2  0
  5  4  1  0
  5  6  2  0
  6  1  1  0
  7 12  2  0
  8  7  1  0
  9  8  2  0
  9 10  1  0
 10 11  2  0
 11 12  1  0
 13  5  1  0
 14 13  2  0
 15 14  1  0
 16 17  1  0
 16 15  2  0
 17 18  2  0
 18 13  1  0
  2 19  1  0
  3 20  1  0
  7 21  1  0
  9 22  1  0
 11 23  1  0
 14 24  1  0
 15 25  1  0
 16 26  1  0
 17 27  1  0
M  ISO  8  19  14  20  14  21  14  22  14  23  14  24  14  25  14  26  14
M  ISO  1  27  14
M  END
>  <minimizedAffinity>  (1) 
-6.10390139

>  <minimizedRMSD>  (1) 
0.431937933

$$$$
