
     RDKit          3D

 31 33  0  0  0  0  0  0  0  0999 V2000
   36.7490   30.7950   48.3460 C   0  0  0  0  0  0  0  0  0  0  0  0
   37.4290   31.3700   49.3840 C   0  0  0  0  0  0  0  0  0  0  0  0
   38.4940   32.2630   49.2470 C   0  0  0  0  0  0  0  0  0  0  0  0
   38.8640   32.5690   47.9830 N   0  0  0  0  0  0  0  0  0  0  0  0
   38.2070   32.0130   46.9280 C   0  0  0  0  0  0  0  0  0  0  0  0
   37.2000   31.1690   47.1450 N   0  0  0  0  0  0  0  0  0  0  0  0
   35.5980   28.9300   49.5600 C   0  0  0  0  0  0  0  0  0  0  0  0
   35.6680   29.8860   48.5210 C   0  0  0  0  0  0  0  0  0  0  0  0
   34.6050   29.9150   47.6360 C   0  0  0  0  0  0  0  0  0  0  0  0
   33.5700   29.0480   47.7960 N   0  0  0  0  0  0  0  0  0  0  0  0
   33.5440   28.1500   48.8040 C   0  0  0  0  0  0  0  0  0  0  0  0
   34.5590   28.0950   49.6820 N   0  0  0  0  0  0  0  0  0  0  0  0
   38.1210   31.9290   44.4290 C   0  0  0  0  0  0  0  0  0  0  0  0
   38.6770   32.3940   45.6010 C   0  0  0  0  0  0  0  0  0  0  0  0
   39.7350   33.2620   45.4330 C   0  0  0  0  0  0  0  0  0  0  0  0
   40.2560   33.6820   44.2300 C   0  0  0  0  0  0  0  0  0  0  0  0
   39.6840   33.2040   43.0760 C   0  0  0  0  0  0  0  0  0  0  0  0
   38.6350   32.3410   43.1940 C   0  0  0  0  0  0  0  0  0  0  0  0
   36.7710   30.8170   44.5030 S   0  0  0  0  0  0  0  0  0  0  0  0
   37.2230   29.5100   43.8810 O   0  0  0  0  0  0  0  0  0  0  0  0
   35.6650   31.3250   43.6020 O   0  0  0  0  0  0  0  0  0  0  0  0
   37.1129   31.1092   50.4048 H   0  0  0  0  0  0  0  0  0  0  0  0
   39.0045   32.6943   50.1207 H   0  0  0  0  0  0  0  0  0  0  0  0
   36.4201   28.8707   50.2884 H   0  0  0  0  0  0  0  0  0  0  0  0
   34.5972   30.6368   46.8060 H   0  0  0  0  0  0  0  0  0  0  0  0
   32.6910   27.4630   48.9062 H   0  0  0  0  0  0  0  0  0  0  0  0
   40.2068   33.6556   46.3454 H   0  0  0  0  0  0  0  0  0  0  0  0
   41.1055   34.3799   44.1938 H   0  0  0  0  0  0  0  0  0  0  0  0
   40.0604   33.5079   42.0881 H   0  0  0  0  0  0  0  0  0  0  0  0
   38.1712   31.9505   42.2762 H   0  0  0  0  0  0  0  0  0  0  0  0
   36.3513   30.6823   45.8002 H   0  0  0  0  0  0  0  0  0  0  0  0
  1  8  1  0
  1  2  2  0
  3  2  1  0
  4  3  2  0
  5  6  2  0
  5  4  1  0
  6  1  1  0
  7 12  2  0
  8  7  1  0
  9 10  1  0
  9  8  2  0
 10 11  2  0
 11 12  1  0
 13 19  1  0
 13 14  2  0
 14  5  1  0
 15 14  1  0
 16 15  2  0
 17 18  2  0
 17 16  1  0
 18 13  1  0
 20 19  2  0
 21 19  2  0
  2 22  1  0
  3 23  1  0
  7 24  1  0
  9 25  1  0
 11 26  1  0
 15 27  1  0
 16 28  1  0
 17 29  1  0
 18 30  1  0
 19 31  1  0
M  ISO  8  22  14  23  14  24  14  25  14  26  14  27  14  28  14  29  14
M  ISO  2  30  14  31  11
M  END
>  <minimizedAffinity>  (1) 
-5.72393322

>  <minimizedRMSD>  (1) 
1.96897757

$$$$
