
     RDKit          3D

 25 27  0  0  0  0  0  0  0  0999 V2000
   37.9520   31.9090   49.0680 C   0  0  0  0  0  0  0  0  0  0  0  0
   38.4680   33.0520   49.6190 C   0  0  0  0  0  0  0  0  0  0  0  0
   39.3100   33.9510   48.9760 C   0  0  0  0  0  0  0  0  0  0  0  0
   39.6360   33.6400   47.6790 N   0  0  0  0  0  0  0  0  0  0  0  0
   39.1390   32.5240   47.1270 C   0  0  0  0  0  0  0  0  0  0  0  0
   38.3220   31.6730   47.7840 N   0  0  0  0  0  0  0  0  0  0  0  0
   37.4350   30.3710   50.9810 C   0  0  0  0  0  0  0  0  0  0  0  0
   37.0850   31.0060   49.7680 C   0  0  0  0  0  0  0  0  0  0  0  0
   35.8360   30.7290   49.2450 C   0  0  0  0  0  0  0  0  0  0  0  0
   35.0140   29.8760   49.9030 N   0  0  0  0  0  0  0  0  0  0  0  0
   35.3740   29.2840   51.0610 C   0  0  0  0  0  0  0  0  0  0  0  0
   36.5980   29.5340   51.6050 N   0  0  0  0  0  0  0  0  0  0  0  0
   39.5240   32.2260   45.7050 C   0  0  0  0  0  0  0  0  0  0  0  0
   40.9530   32.3080   45.3030 C   0  0  0  0  0  0  0  0  0  0  0  0
   39.9910   33.4610   44.8880 C   0  0  0  0  0  0  0  0  0  0  0  0
   38.1921   33.2775   50.6597 H   0  0  0  0  0  0  0  0  0  0  0  0
   39.6912   34.8545   49.4744 H   0  0  0  0  0  0  0  0  0  0  0  0
   38.4219   30.5701   51.4241 H   0  0  0  0  0  0  0  0  0  0  0  0
   35.5122   31.1966   48.3034 H   0  0  0  0  0  0  0  0  0  0  0  0
   34.6781   28.5984   51.5667 H   0  0  0  0  0  0  0  0  0  0  0  0
   38.7666   31.4362   45.5924 H   0  0  0  0  0  0  0  0  0  0  0  0
   41.7255   32.4885   46.0650 H   0  0  0  0  0  0  0  0  0  0  0  0
   41.6391   31.6433   44.7576 H   0  0  0  0  0  0  0  0  0  0  0  0
   40.0664   34.4493   45.3650 H   0  0  0  0  0  0  0  0  0  0  0  0
   39.6955   33.9495   43.9477 H   0  0  0  0  0  0  0  0  0  0  0  0
  1  2  2  0
  1  8  1  0
  3  2  1  0
  4  3  2  0
  5  4  1  0
  5  6  2  0
  6  1  1  0
  7 12  2  0
  8  7  1  0
  9  8  2  0
  9 10  1  0
 10 11  2  0
 11 12  1  0
 13  5  1  0
 14 13  1  0
 15 14  1  0
 15 13  1  0
  2 16  1  0
  3 17  1  0
  7 18  1  0
  9 19  1  0
 11 20  1  0
 13 21  1  0
 14 22  1  0
 14 23  1  0
 15 24  1  0
 15 25  1  0
M  ISO  8  16  14  17  14  18  14  19  14  20  14  21  13  22  13  23  13
M  ISO  2  24  13  25  13
M  END
>  <minimizedAffinity>  (1) 
-5.51671791

>  <minimizedRMSD>  (1) 
0.315449178

$$$$
