
     RDKit          3D

 24 25  0  0  0  0  0  0  0  0999 V2000
   38.1050   32.0870   49.0870 C   0  0  0  0  0  0  0  0  0  0  0  0
   38.5630   33.2140   49.7180 C   0  0  0  0  0  0  0  0  0  0  0  0
   39.4220   34.1550   49.1480 C   0  0  0  0  0  0  0  0  0  0  0  0
   39.8180   33.9130   47.8740 N   0  0  0  0  0  0  0  0  0  0  0  0
   39.3780   32.8050   47.2290 C   0  0  0  0  0  0  0  0  0  0  0  0
   38.5530   31.9360   47.8310 N   0  0  0  0  0  0  0  0  0  0  0  0
   37.4970   30.4710   50.9120 C   0  0  0  0  0  0  0  0  0  0  0  0
   37.2250   31.1410   49.7030 C   0  0  0  0  0  0  0  0  0  0  0  0
   36.0190   30.8490   49.0880 C   0  0  0  0  0  0  0  0  0  0  0  0
   35.1790   29.9560   49.6630 N   0  0  0  0  0  0  0  0  0  0  0  0
   35.4750   29.3340   50.8230 C   0  0  0  0  0  0  0  0  0  0  0  0
   36.6530   29.5940   51.4580 N   0  0  0  0  0  0  0  0  0  0  0  0
   39.8270   32.5650   45.8360 C   0  0  0  0  0  0  0  0  0  0  0  0
   40.4580   31.1930   45.6770 C   0  0  0  0  0  0  0  0  0  0  0  0
   38.2286   33.3902   50.7510 H   0  0  0  0  0  0  0  0  0  0  0  0
   39.7590   35.0437   49.7017 H   0  0  0  0  0  0  0  0  0  0  0  0
   38.4458   30.6799   51.4278 H   0  0  0  0  0  0  0  0  0  0  0  0
   35.7460   31.3379   48.1412 H   0  0  0  0  0  0  0  0  0  0  0  0
   34.7643   28.6155   51.2574 H   0  0  0  0  0  0  0  0  0  0  0  0
   38.9590   32.6380   45.1642 H   0  0  0  0  0  0  0  0  0  0  0  0
   40.5849   33.3218   45.5852 H   0  0  0  0  0  0  0  0  0  0  0  0
   40.6557   30.7631   46.6700 H   0  0  0  0  0  0  0  0  0  0  0  0
   39.7717   30.5358   45.1229 H   0  0  0  0  0  0  0  0  0  0  0  0
   41.4037   31.2863   45.1229 H   0  0  0  0  0  0  0  0  0  0  0  0
  1  8  1  0
  1  2  2  0
  3  2  1  0
  4  3  2  0
  5  6  2  0
  5  4  1  0
  6  1  1  0
  7 12  2  0
  8  7  1  0
  9 10  1  0
  9  8  2  0
 10 11  2  0
 11 12  1  0
 13  5  1  0
 14 13  1  0
  2 15  1  0
  3 16  1  0
  7 17  1  0
  9 18  1  0
 11 19  1  0
 13 20  1  0
 13 21  1  0
 14 22  1  0
 14 23  1  0
 14 24  1  0
M  ISO  8  15  14  16  14  17  14  18  14  19  14  20   8  21   8  22   8
M  ISO  2  23   8  24   8
M  END
>  <minimizedAffinity>  (1) 
-5.0595088

>  <minimizedRMSD>  (1) 
0.424879283

$$$$
