
     RDKit          3D

 35 37  0  0  1  0  0  0  0  0999 V2000
   38.5050   32.3960   48.6720 C   0  0  0  0  0  0  0  0  0  0  0  0
   39.0980   33.5180   49.2330 C   0  0  0  0  0  0  0  0  0  0  0  0
   39.8930   34.4220   48.5040 C   0  0  0  0  0  0  0  0  0  0  0  0
   40.0710   34.1520   47.1640 N   0  0  0  0  0  0  0  0  0  0  0  0
   39.4930   33.0660   46.6380 C   0  0  0  0  0  0  0  0  0  0  0  0
   38.7360   32.2130   47.3530 N   0  0  0  0  0  0  0  0  0  0  0  0
   39.6990   32.8030   45.2140 C   0  0  2  0  0  0  0  0  0  0  0  0
   38.4290   32.6710   44.3990 C   0  0  0  0  0  0  0  0  0  0  0  0
   38.8660   31.7890   43.2200 C   0  0  0  0  0  0  0  0  0  0  0  0
   40.2470   31.2890   43.5560 C   0  0  0  0  0  0  0  0  0  0  0  0
   40.2420   31.3850   45.0830 C   0  0  1  0  0  0  0  0  0  0  0  0
   41.5740   31.1730   45.7090 C   0  0  0  0  0  0  0  0  0  0  0  0
   38.1060   30.8670   50.6160 C   0  0  0  0  0  0  0  0  0  0  0  0
   37.7080   31.5010   49.4360 C   0  0  0  0  0  0  0  0  0  0  0  0
   36.4260   31.2170   48.9970 C   0  0  0  0  0  0  0  0  0  0  0  0
   35.6500   30.3650   49.7140 N   0  0  0  0  0  0  0  0  0  0  0  0
   36.0830   29.7730   50.8540 C   0  0  0  0  0  0  0  0  0  0  0  0
   37.3160   30.0360   51.2900 N   0  0  0  0  0  0  0  0  0  0  0  0
   35.0970   28.9520   51.3860 O   0  0  0  0  0  0  0  0  0  0  0  0
   38.9383   33.7111   50.3041 H   0  0  0  0  0  0  0  0  0  0  0  0
   40.3503   35.3016   48.9806 H   0  0  0  0  0  0  0  0  0  0  0  0
   40.3214   33.6400   44.8647 H   0  0  0  0  0  0  0  0  0  0  0  0
   37.6332   32.1851   44.9827 H   0  0  0  0  0  0  0  0  0  0  0  0
   38.0124   33.6395   44.0851 H   0  0  0  0  0  0  0  0  0  0  0  0
   38.8896   32.3784   42.2915 H   0  0  0  0  0  0  0  0  0  0  0  0
   38.1658   30.9553   43.0630 H   0  0  0  0  0  0  0  0  0  0  0  0
   40.3921   30.2520   43.2189 H   0  0  0  0  0  0  0  0  0  0  0  0
   41.0585   31.8535   43.0734 H   0  0  0  0  0  0  0  0  0  0  0  0
   39.6625   30.6109   45.6073 H   0  0  0  0  0  0  0  0  0  0  0  0
   41.4713   31.1894   46.8041 H   0  0  0  0  0  0  0  0  0  0  0  0
   41.9769   30.1994   45.3930 H   0  0  0  0  0  0  0  0  0  0  0  0
   42.2592   31.9734   45.3930 H   0  0  0  0  0  0  0  0  0  0  0  0
   39.1163   31.0637   51.0042 H   0  0  0  0  0  0  0  0  0  0  0  0
   36.0400   31.6776   48.0757 H   0  0  0  0  0  0  0  0  0  0  0  0
   35.2684   28.4506   52.2223 H   0  0  0  0  0  0  0  0  0  0  0  0
  1  2  2  0
  1 14  1  0
  3  2  1  0
  4  3  2  0
  5  4  1  0
  5  6  2  0
  6  1  1  0
  7  5  1  0
  8  7  1  0
  9 10  1  0
  9  8  1  0
 10 11  1  0
 11  7  1  0
 11 12  1  0
 13 18  2  0
 14 13  1  0
 15 14  2  0
 15 16  1  0
 16 17  2  0
 17 18  1  0
 17 19  1  0
  2 20  1  0
  3 21  1  0
  7 22  1  6
  8 23  1  0
  8 24  1  0
  9 25  1  0
  9 26  1  0
 10 27  1  0
 10 28  1  0
 11 29  1  1
 12 30  1  0
 12 31  1  0
 12 32  1  0
 13 33  1  0
 15 34  1  0
 19 35  1  0
M  ISO  8  20  14  21  14  22  13  23  13  24  13  25  13  26  13  27  13
M  ISO  8  28  13  29  13  30   8  31   8  32   8  33  14  34  14  35   3
M  END
>  <minimizedAffinity>  (1) 
-5.71536875

>  <minimizedRMSD>  (1) 
0.309335351

$$$$
