
     RDKit          3D

 38 40  0  0  1  0  0  0  0  0999 V2000
   37.0210   31.0660   45.8820 C   0  0  2  0  0  0  0  0  0  0  0  0
   37.6390   30.8860   44.5080 C   0  0  0  0  0  0  0  0  0  0  0  0
   38.9500   30.1580   44.5550 C   0  0  0  0  0  0  0  0  0  0  0  0
   39.9380   30.8100   45.4940 C   0  0  0  0  0  0  0  0  0  0  0  0
   39.3350   31.2190   46.8070 C   0  0  0  0  0  0  0  0  0  0  0  0
   37.9350   30.6720   46.9930 C   0  0  1  0  0  0  0  0  0  0  0  0
   35.7930   30.2180   45.9910 C   0  0  0  0  0  0  0  0  0  0  0  0
   35.4010   29.5520   44.8150 C   0  0  0  0  0  0  0  0  0  0  0  0
   34.2490   28.7660   44.8930 C   0  0  0  0  0  0  0  0  0  0  0  0
   33.5630   28.6790   46.0840 N   0  0  0  0  0  0  0  0  0  0  0  0
   33.9860   29.3480   47.1980 C   0  0  0  0  0  0  0  0  0  0  0  0
   35.0870   30.1040   47.1390 N   0  0  0  0  0  0  0  0  0  0  0  0
   37.3940   31.0780   48.2450 N   0  0  0  0  0  0  0  0  0  0  0  0
   37.6970   32.4080   48.6650 C   0  0  0  0  0  0  0  0  0  0  0  0
   37.2260   32.3900   50.1260 C   0  0  0  0  0  0  0  0  0  0  0  0
   36.9990   30.9320   50.4730 C   0  0  0  0  0  0  0  0  0  0  0  0
   37.8310   30.2760   49.3620 C   0  0  0  0  0  0  0  0  0  0  0  0
   36.7959   32.1381   45.9812 H   0  0  0  0  0  0  0  0  0  0  0  0
   37.8031   31.8785   44.0629 H   0  0  0  0  0  0  0  0  0  0  0  0
   36.9439   30.2813   43.9071 H   0  0  0  0  0  0  0  0  0  0  0  0
   38.7694   29.1268   44.8927 H   0  0  0  0  0  0  0  0  0  0  0  0
   39.3828   30.1813   43.5440 H   0  0  0  0  0  0  0  0  0  0  0  0
   40.7528   30.0979   45.6916 H   0  0  0  0  0  0  0  0  0  0  0  0
   40.2957   31.7267   45.0023 H   0  0  0  0  0  0  0  0  0  0  0  0
   39.9724   30.8434   47.6210 H   0  0  0  0  0  0  0  0  0  0  0  0
   39.2712   32.3171   46.8200 H   0  0  0  0  0  0  0  0  0  0  0  0
   38.0176   29.5752   46.9783 H   0  0  0  0  0  0  0  0  0  0  0  0
   35.9735   29.6458   43.8804 H   0  0  0  0  0  0  0  0  0  0  0  0
   33.8916   28.2194   44.0078 H   0  0  0  0  0  0  0  0  0  0  0  0
   33.4229   29.2648   48.1393 H   0  0  0  0  0  0  0  0  0  0  0  0
   38.7751   32.6147   48.5941 H   0  0  0  0  0  0  0  0  0  0  0  0
   37.2211   33.1882   48.0528 H   0  0  0  0  0  0  0  0  0  0  0  0
   37.9958   32.8236   50.7813 H   0  0  0  0  0  0  0  0  0  0  0  0
   36.3103   32.9841   50.2618 H   0  0  0  0  0  0  0  0  0  0  0  0
   37.3821   30.6837   51.4738 H   0  0  0  0  0  0  0  0  0  0  0  0
   35.9453   30.6191   50.5163 H   0  0  0  0  0  0  0  0  0  0  0  0
   37.5778   29.2137   49.2304 H   0  0  0  0  0  0  0  0  0  0  0  0
   38.9173   30.2584   49.5339 H   0  0  0  0  0  0  0  0  0  0  0  0
  1  7  1  0
  1  6  1  0
  2  3  1  0
  2  1  1  0
  3  4  1  0
  4  5  1  0
  5  6  1  0
  6 13  1  0
  7 12  2  0
  8  9  2  0
  8  7  1  0
  9 10  1  0
 10 11  2  0
 12 11  1  0
 13 14  1  0
 13 17  1  0
 14 15  1  0
 15 16  1  0
 17 16  1  0
  1 18  1  1
  2 19  1  0
  2 20  1  0
  3 21  1  0
  3 22  1  0
  4 23  1  0
  4 24  1  0
  5 25  1  0
  5 26  1  0
  6 27  1  1
  8 28  1  0
  9 29  1  0
 11 30  1  0
 14 31  1  0
 14 32  1  0
 15 33  1  0
 15 34  1  0
 16 35  1  0
 16 36  1  0
 17 37  1  0
 17 38  1  0
M  ISO  8  18  13  19  13  20  13  21  13  22  13  23  13  24  13  25  13
M  ISO  8  26  13  27  13  28  14  29  14  30  14  31  13  32  13  33  13
M  ISO  5  34  13  35  13  36  13  37  13  38  13
M  END
>  <minimizedAffinity>  (1) 
-4.60208464

>  <minimizedRMSD>  (1) 
4.24988699

$$$$
