
     RDKit          3D

 37 39  0  0  1  0  0  0  0  0999 V2000
   33.0820   29.6510   47.6620 N   0  0  0  0  0  0  0  0  0  0  0  0
   34.3380   30.2230   47.2300 C   0  0  2  0  0  0  0  0  0  0  0  0
   34.7050   29.6110   45.9020 C   0  0  0  0  0  0  0  0  0  0  0  0
   33.5860   28.9960   45.3030 O   0  0  0  0  0  0  0  0  0  0  0  0
   33.3500   27.8540   46.0970 C   0  0  0  0  0  0  0  0  0  0  0  0
   33.1820   28.2180   47.5520 C   0  0  2  0  0  0  0  0  0  0  0  0
   30.6990   28.0740   47.1860 C   0  0  1  0  0  0  0  0  0  0  0  0
   31.8730   27.6330   47.9820 C   0  0  2  0  0  0  0  0  0  0  0  0
   31.5380   27.9100   49.2850 O   0  0  0  0  0  0  0  0  0  0  0  0
   30.2870   27.2890   49.3830 C   0  0  0  0  0  0  0  0  0  0  0  0
   29.5690   27.9230   48.1980 C   0  0  1  0  0  0  0  0  0  0  0  0
   30.7980   29.3600   46.6910 O   0  0  0  0  0  0  0  0  0  0  0  0
   29.1280   29.1750   48.6480 O   0  0  0  0  0  0  0  0  0  0  0  0
   35.6650   29.8670   48.4420 S   0  0  0  0  0  0  0  0  0  0  0  0
   36.9710   31.0510   48.3190 C   0  0  0  0  0  0  0  0  0  0  0  0
   37.0960   31.8590   49.4690 C   0  0  0  0  0  0  0  0  0  0  0  0
   38.0880   32.8330   49.5010 C   0  0  0  0  0  0  0  0  0  0  0  0
   38.9040   32.9600   48.3990 N   0  0  0  0  0  0  0  0  0  0  0  0
   38.7600   32.1800   47.3250 C   0  0  0  0  0  0  0  0  0  0  0  0
   37.8080   31.2430   47.2900 N   0  0  0  0  0  0  0  0  0  0  0  0
   32.8967   29.9140   48.6404 H   0  0  0  0  0  0  0  0  0  0  0  0
   34.2293   31.3142   47.1430 H   0  0  0  0  0  0  0  0  0  0  0  0
   35.0825   30.3996   45.2344 H   0  0  0  0  0  0  0  0  0  0  0  0
   35.4775   28.8461   46.0699 H   0  0  0  0  0  0  0  0  0  0  0  0
   32.4343   27.3566   45.7448 H   0  0  0  0  0  0  0  0  0  0  0  0
   34.2183   27.1848   46.0063 H   0  0  0  0  0  0  0  0  0  0  0  0
   34.0232   27.8516   48.1587 H   0  0  0  0  0  0  0  0  0  0  0  0
   30.5667   27.4882   46.2644 H   0  0  0  0  0  0  0  0  0  0  0  0
   32.0656   26.5606   47.8307 H   0  0  0  0  0  0  0  0  0  0  0  0
   30.3658   26.1973   49.2734 H   0  0  0  0  0  0  0  0  0  0  0  0
   29.7823   27.4247   50.3509 H   0  0  0  0  0  0  0  0  0  0  0  0
   28.7117   27.3728   47.7828 H   0  0  0  0  0  0  0  0  0  0  0  0
   30.8473   30.0006   47.4442 H   0  0  0  0  0  0  0  0  0  0  0  0
   29.1237   29.1871   49.6379 H   0  0  0  0  0  0  0  0  0  0  0  0
   36.4201   31.7208   50.3258 H   0  0  0  0  0  0  0  0  0  0  0  0
   38.2169   33.4821   50.3796 H   0  0  0  0  0  0  0  0  0  0  0  0
   39.4302   32.3097   46.4624 H   0  0  0  0  0  0  0  0  0  0  0  0
  2  1  1  0
  2 14  1  0
  3  2  1  0
  4  3  1  0
  4  5  1  0
  5  6  1  0
  6  1  1  0
  6  8  1  0
  7 12  1  0
  7  8  1  0
  7 11  1  0
  8  9  1  0
  9 10  1  0
 11 13  1  0
 11 10  1  0
 15 14  1  0
 15 16  2  0
 16 17  1  0
 18 17  2  0
 19 18  1  0
 20 19  2  0
 20 15  1  0
  1 21  1  0
  2 22  1  6
  3 23  1  0
  3 24  1  0
  5 25  1  0
  5 26  1  0
  6 27  1  1
  7 28  1  6
  8 29  1  1
 10 30  1  0
 10 31  1  0
 11 32  1  6
 12 33  1  0
 13 34  1  0
 16 35  1  0
 17 36  1  0
 19 37  1  0
M  ISO  8  21   5  22  13  23  13  24  13  25  13  26  13  27  13  28  13
M  ISO  8  29  13  30  13  31  13  32  13  33   3  34   3  35  14  36  14
M  ISO  1  37  14
M  END
>  <minimizedAffinity>  (1) 
-5.40375137

>  <minimizedRMSD>  (1) 
2.5988133

$$$$
