
     RDKit          3D

 26 27  0  0  1  0  0  0  0  0999 V2000
   36.4720   31.2860   49.7140 N   0  0  0  0  0  0  0  0  0  0  0  0
   36.9200   31.5550   48.3570 C   0  0  2  0  0  0  0  0  0  0  0  0
   36.3580   30.5000   47.4390 C   0  0  0  0  0  0  0  0  0  0  0  0
   35.2730   29.8300   48.0460 O   0  0  0  0  0  0  0  0  0  0  0  0
   35.8630   29.0610   49.0680 C   0  0  0  0  0  0  0  0  0  0  0  0
   36.7190   29.8900   49.9810 C   0  0  2  0  0  0  0  0  0  0  0  0
   36.5580   29.5850   51.4080 C   0  0  0  0  0  0  0  0  0  0  0  0
   37.4900   30.0700   52.0570 O   0  0  0  0  0  0  0  0  0  0  0  0
   38.7350   31.5090   48.2780 S   0  0  0  0  0  0  0  0  0  0  0  0
   39.3210   31.6170   46.6060 C   0  0  0  0  0  0  0  0  0  0  0  0
   39.7340   32.9090   46.2640 C   0  0  0  0  0  0  0  0  0  0  0  0
   40.2200   33.1280   44.9660 C   0  0  0  0  0  0  0  0  0  0  0  0
   40.2590   32.0520   44.1100 N   0  0  0  0  0  0  0  0  0  0  0  0
   39.8560   30.8330   44.4730 C   0  0  0  0  0  0  0  0  0  0  0  0
   39.3900   30.6200   45.7150 N   0  0  0  0  0  0  0  0  0  0  0  0
   35.4656   31.4880   49.7991 H   0  0  0  0  0  0  0  0  0  0  0  0
   36.5719   32.5522   48.0496 H   0  0  0  0  0  0  0  0  0  0  0  0
   37.1464   29.7697   47.2042 H   0  0  0  0  0  0  0  0  0  0  0  0
   36.0003   30.9878   46.5203 H   0  0  0  0  0  0  0  0  0  0  0  0
   35.0657   28.5896   49.6615 H   0  0  0  0  0  0  0  0  0  0  0  0
   36.5083   28.3074   48.5930 H   0  0  0  0  0  0  0  0  0  0  0  0
   37.7661   29.6345   49.7611 H   0  0  0  0  0  0  0  0  0  0  0  0
   35.7263   29.0072   51.8376 H   0  0  0  0  0  0  0  0  0  0  0  0
   39.6793   33.7310   46.9929 H   0  0  0  0  0  0  0  0  0  0  0  0
   40.5577   34.1243   44.6446 H   0  0  0  0  0  0  0  0  0  0  0  0
   39.9053   30.0015   43.7546 H   0  0  0  0  0  0  0  0  0  0  0  0
  1  6  1  0
  2  1  1  0
  3  4  1  0
  3  2  1  0
  4  5  1  0
  5  6  1  0
  6  7  1  0
  7  8  2  0
  9  2  1  0
 10  9  1  0
 11 10  2  0
 12 11  1  0
 13 14  1  0
 13 12  2  0
 14 15  2  0
 15 10  1  0
  1 16  1  0
  2 17  1  6
  3 18  1  0
  3 19  1  0
  5 20  1  0
  5 21  1  0
  6 22  1  6
  7 23  1  0
 11 24  1  0
 12 25  1  0
 14 26  1  0
M  ISO  8  16   5  17  13  18  13  19  13  20  13  21  13  22  13  23   6
M  ISO  3  24  14  25  14  26  14
M  END
>  <minimizedAffinity>  (1) 
-4.45552778

>  <minimizedRMSD>  (1) 
3.42849803

$$$$
