
     RDKit          3D

 40 43  0  0  1  0  0  0  0  0999 V2000
   37.3100   30.4870   49.1450 C   0  0  0  0  0  0  0  0  0  0  0  0
   37.6110   31.6000   49.9580 C   0  0  0  0  0  0  0  0  0  0  0  0
   38.4400   32.5890   49.4390 C   0  0  0  0  0  0  0  0  0  0  0  0
   38.9120   32.4100   48.1640 N   0  0  0  0  0  0  0  0  0  0  0  0
   38.6120   31.3490   47.4190 C   0  0  0  0  0  0  0  0  0  0  0  0
   37.8160   30.4010   47.9180 N   0  0  0  0  0  0  0  0  0  0  0  0
   39.1540   31.2320   46.0670 C   0  0  0  0  0  0  0  0  0  0  0  0
   39.9520   32.2200   45.5270 C   0  0  0  0  0  0  0  0  0  0  0  0
   40.4900   32.1540   44.2500 C   0  0  0  0  0  0  0  0  0  0  0  0
   40.1880   31.0180   43.5040 C   0  0  0  0  0  0  0  0  0  0  0  0
   40.7060   30.9370   42.2540 N   0  0  0  0  0  0  0  0  0  0  0  0
   40.4800   29.8810   41.4400 C   0  0  0  0  0  0  0  0  0  0  0  0
   39.6850   28.8690   41.9460 C   0  0  0  0  0  0  0  0  0  0  0  0
   39.1410   28.9180   43.2150 C   0  0  0  0  0  0  0  0  0  0  0  0
   39.3810   30.0060   44.0380 C   0  0  0  0  0  0  0  0  0  0  0  0
   38.8600   30.1040   45.3160 C   0  0  0  0  0  0  0  0  0  0  0  0
   36.2410   29.3180   49.9540 S   0  0  0  0  0  0  0  0  0  0  0  0
   33.8120   28.3400   49.2850 N   0  0  0  0  0  0  0  0  0  0  0  0
   34.4850   29.6050   49.4950 C   0  0  2  0  0  0  0  0  0  0  0  0
   34.4450   30.3890   48.2170 C   0  0  0  0  0  0  0  0  0  0  0  0
   33.4670   29.8790   47.3310 O   0  0  0  0  0  0  0  0  0  0  0  0
   33.9650   28.6310   46.9240 C   0  0  0  0  0  0  0  0  0  0  0  0
   34.3440   27.7490   48.0730 C   0  0  2  0  0  0  0  0  0  0  0  0
   33.7630   26.4650   47.9380 O   0  0  0  0  0  0  0  0  0  0  0  0
   37.2010   31.6835   50.9753 H   0  0  0  0  0  0  0  0  0  0  0  0
   38.7063   33.4792   50.0278 H   0  0  0  0  0  0  0  0  0  0  0  0
   40.1729   33.1056   46.1409 H   0  0  0  0  0  0  0  0  0  0  0  0
   41.1231   32.9584   43.8473 H   0  0  0  0  0  0  0  0  0  0  0  0
   40.9066   29.8297   40.4274 H   0  0  0  0  0  0  0  0  0  0  0  0
   39.4780   27.9923   41.3146 H   0  0  0  0  0  0  0  0  0  0  0  0
   38.5139   28.0885   43.5737 H   0  0  0  0  0  0  0  0  0  0  0  0
   38.2263   29.3045   45.7274 H   0  0  0  0  0  0  0  0  0  0  0  0
   33.9850   27.7144   50.0847 H   0  0  0  0  0  0  0  0  0  0  0  0
   33.9821   30.1542   50.3046 H   0  0  0  0  0  0  0  0  0  0  0  0
   34.2074   31.4380   48.4475 H   0  0  0  0  0  0  0  0  0  0  0  0
   35.4285   30.3103   47.7307 H   0  0  0  0  0  0  0  0  0  0  0  0
   33.1912   28.1212   46.3313 H   0  0  0  0  0  0  0  0  0  0  0  0
   34.8766   28.8162   46.3369 H   0  0  0  0  0  0  0  0  0  0  0  0
   35.4395   27.6535   48.1013 H   0  0  0  0  0  0  0  0  0  0  0  0
   33.5909   26.0846   48.8357 H   0  0  0  0  0  0  0  0  0  0  0  0
  1 17  1  0
  1  2  2  0
  3  2  1  0
  4  3  2  0
  5  6  2  0
  5  4  1  0
  6  1  1  0
  7  5  1  0
  8  7  2  0
  9  8  1  0
 10 15  1  0
 10  9  2  0
 11 10  1  0
 12 13  1  0
 12 11  2  0
 13 14  2  0
 14 15  1  0
 15 16  2  0
 16  7  1  0
 18 19  1  0
 19 17  1  0
 20 19  1  0
 21 20  1  0
 22 21  1  0
 22 23  1  0
 23 18  1  0
 24 23  1  0
  2 25  1  0
  3 26  1  0
  8 27  1  0
  9 28  1  0
 12 29  1  0
 13 30  1  0
 14 31  1  0
 16 32  1  0
 18 33  1  0
 19 34  1  1
 20 35  1  0
 20 36  1  0
 22 37  1  0
 22 38  1  0
 23 39  1  1
 24 40  1  0
M  ISO  8  25  14  26  14  27  14  28  14  29  14  30  14  31  14  32  14
M  ISO  8  33   5  34  13  35  13  36  13  37  13  38  13  39  13  40   3
M  END
>  <minimizedAffinity>  (1) 
-6.46738625

>  <minimizedRMSD>  (1) 
1.15032518

$$$$
