
     RDKit          3D

 35 37  0  0  1  0  0  0  0  0999 V2000
   37.1970   30.4400   49.1340 C   0  0  0  0  0  0  0  0  0  0  0  0
   37.3910   31.5320   50.0160 C   0  0  0  0  0  0  0  0  0  0  0  0
   38.2060   32.5830   49.6010 C   0  0  0  0  0  0  0  0  0  0  0  0
   38.7720   32.4880   48.3550 N   0  0  0  0  0  0  0  0  0  0  0  0
   38.5670   31.4440   47.5510 C   0  0  0  0  0  0  0  0  0  0  0  0
   37.7920   30.4350   47.9360 N   0  0  0  0  0  0  0  0  0  0  0  0
   40.1160   33.5250   46.6850 F   0  0  0  0  0  0  0  0  0  0  0  0
   39.9890   32.4790   45.8120 C   0  0  0  0  0  0  0  0  0  0  0  0
   39.2070   31.4220   46.2400 C   0  0  0  0  0  0  0  0  0  0  0  0
   39.0670   30.3590   45.3720 C   0  0  0  0  0  0  0  0  0  0  0  0
   39.6850   30.3600   44.1320 C   0  0  0  0  0  0  0  0  0  0  0  0
   40.4660   31.4380   43.7280 C   0  0  0  0  0  0  0  0  0  0  0  0
   40.6200   32.5170   44.5830 C   0  0  0  0  0  0  0  0  0  0  0  0
   36.1360   29.1950   49.8140 S   0  0  0  0  0  0  0  0  0  0  0  0
   33.6990   28.2340   49.1640 N   0  0  0  0  0  0  0  0  0  0  0  0
   34.3840   29.4940   49.3430 C   0  0  2  0  0  0  0  0  0  0  0  0
   34.3500   30.2520   48.0490 C   0  0  0  0  0  0  0  0  0  0  0  0
   33.3570   29.7370   47.1870 O   0  0  0  0  0  0  0  0  0  0  0  0
   33.8350   28.4840   46.7990 C   0  0  0  0  0  0  0  0  0  0  0  0
   34.2180   27.6150   47.9600 C   0  0  2  0  0  0  0  0  0  0  0  0
   33.6070   26.3480   47.8510 O   0  0  0  0  0  0  0  0  0  0  0  0
   36.9095   31.5495   51.0049 H   0  0  0  0  0  0  0  0  0  0  0  0
   38.3884   33.4545   50.2469 H   0  0  0  0  0  0  0  0  0  0  0  0
   38.4540   29.4955   45.6696 H   0  0  0  0  0  0  0  0  0  0  0  0
   39.5567   29.4990   43.4596 H   0  0  0  0  0  0  0  0  0  0  0  0
   40.9548   31.4337   42.7426 H   0  0  0  0  0  0  0  0  0  0  0  0
   41.2304   33.3841   44.2905 H   0  0  0  0  0  0  0  0  0  0  0  0
   33.8720   27.6228   49.9748 H   0  0  0  0  0  0  0  0  0  0  0  0
   33.8874   30.0699   50.1379 H   0  0  0  0  0  0  0  0  0  0  0  0
   34.1321   31.3099   48.2574 H   0  0  0  0  0  0  0  0  0  0  0  0
   35.3286   30.1498   47.5571 H   0  0  0  0  0  0  0  0  0  0  0  0
   33.0496   27.9727   46.2231 H   0  0  0  0  0  0  0  0  0  0  0  0
   34.7427   28.6502   46.2003 H   0  0  0  0  0  0  0  0  0  0  0  0
   35.3119   27.5018   47.9818 H   0  0  0  0  0  0  0  0  0  0  0  0
   33.4328   25.9867   48.7561 H   0  0  0  0  0  0  0  0  0  0  0  0
  1 14  1  0
  1  2  2  0
  3  2  1  0
  4  3  2  0
  5  6  2  0
  5  4  1  0
  6  1  1  0
  8  9  2  0
  8  7  1  0
  9  5  1  0
 10  9  1  0
 11 10  2  0
 12 11  1  0
 12 13  2  0
 13  8  1  0
 15 16  1  0
 16 14  1  0
 17 16  1  0
 18 17  1  0
 19 18  1  0
 19 20  1  0
 20 15  1  0
 21 20  1  0
  2 22  1  0
  3 23  1  0
 10 24  1  0
 11 25  1  0
 12 26  1  0
 13 27  1  0
 15 28  1  0
 16 29  1  1
 17 30  1  0
 17 31  1  0
 19 32  1  0
 19 33  1  0
 20 34  1  1
 21 35  1  0
M  ISO  8  22  14  23  14  24  14  25  14  26  14  27  14  28   5  29  13
M  ISO  6  30  13  31  13  32  13  33  13  34  13  35   3
M  END
>  <minimizedAffinity>  (1) 
-6.32956123

>  <minimizedRMSD>  (1) 
0.673177302

$$$$
