
     RDKit          3D

 36 38  0  0  1  0  0  0  0  0999 V2000
   36.8690   30.3890   49.1190 C   0  0  0  0  0  0  0  0  0  0  0  0
   36.8090   31.5000   49.9950 C   0  0  0  0  0  0  0  0  0  0  0  0
   37.5300   32.6480   49.6630 C   0  0  0  0  0  0  0  0  0  0  0  0
   38.2650   32.6300   48.4870 N   0  0  0  0  0  0  0  0  0  0  0  0
   38.2860   31.5530   47.6960 C   0  0  0  0  0  0  0  0  0  0  0  0
   37.6000   30.4570   48.0110 N   0  0  0  0  0  0  0  0  0  0  0  0
   39.9510   32.5760   46.1880 C   0  0  0  0  0  0  0  0  0  0  0  0
   39.0630   31.5410   46.4590 C   0  0  0  0  0  0  0  0  0  0  0  0
   38.9040   30.4980   45.5700 C   0  0  0  0  0  0  0  0  0  0  0  0
   39.6320   30.4810   44.4010 C   0  0  0  0  0  0  0  0  0  0  0  0
   40.5370   31.4940   44.0830 C   0  0  0  0  0  0  0  0  0  0  0  0
   40.6780   32.5340   44.9960 C   0  0  0  0  0  0  0  0  0  0  0  0
   40.3030   34.5590   47.8390 N   0  0  0  0  0  0  0  0  0  0  0  0
   40.1390   33.6810   47.0990 C   0  0  0  0  0  0  0  0  0  0  0  0
   35.8990   29.0270   49.6970 S   0  0  0  0  0  0  0  0  0  0  0  0
   33.5410   27.9120   48.9960 N   0  0  0  0  0  0  0  0  0  0  0  0
   34.1430   29.2120   49.1970 C   0  0  2  0  0  0  0  0  0  0  0  0
   34.0790   29.9820   47.9060 C   0  0  0  0  0  0  0  0  0  0  0  0
   33.1320   29.4040   47.0260 O   0  0  0  0  0  0  0  0  0  0  0  0
   33.6940   28.1830   46.6420 C   0  0  0  0  0  0  0  0  0  0  0  0
   34.1080   27.3350   47.8080 C   0  0  2  0  0  0  0  0  0  0  0  0
   33.6020   26.0250   47.6600 O   0  0  0  0  0  0  0  0  0  0  0  0
   36.2082   31.4592   50.9155 H   0  0  0  0  0  0  0  0  0  0  0  0
   37.5158   33.5363   50.3116 H   0  0  0  0  0  0  0  0  0  0  0  0
   38.1991   29.6838   45.7938 H   0  0  0  0  0  0  0  0  0  0  0  0
   39.4961   29.6455   43.6985 H   0  0  0  0  0  0  0  0  0  0  0  0
   41.1158   31.4712   43.1479 H   0  0  0  0  0  0  0  0  0  0  0  0
   41.3834   33.3480   44.7725 H   0  0  0  0  0  0  0  0  0  0  0  0
   33.7382   27.3071   49.8060 H   0  0  0  0  0  0  0  0  0  0  0  0
   33.5980   29.7455   49.9897 H   0  0  0  0  0  0  0  0  0  0  0  0
   33.7871   31.0209   48.1191 H   0  0  0  0  0  0  0  0  0  0  0  0
   35.0693   29.9547   47.4280 H   0  0  0  0  0  0  0  0  0  0  0  0
   32.9524   27.6267   46.0500 H   0  0  0  0  0  0  0  0  0  0  0  0
   34.6003   28.4068   46.0601 H   0  0  0  0  0  0  0  0  0  0  0  0
   35.2056   27.2933   47.8673 H   0  0  0  0  0  0  0  0  0  0  0  0
   33.4485   25.6276   48.5537 H   0  0  0  0  0  0  0  0  0  0  0  0
  1 15  1  0
  1  2  2  0
  3  2  1  0
  4  3  2  0
  5  6  2  0
  5  4  1  0
  6  1  1  0
  7  8  2  0
  7 14  1  0
  8  5  1  0
  9  8  1  0
 10  9  2  0
 11 10  1  0
 11 12  2  0
 12  7  1  0
 14 13  3  0
 16 17  1  0
 17 15  1  0
 18 17  1  0
 19 18  1  0
 20 19  1  0
 20 21  1  0
 21 16  1  0
 22 21  1  0
  2 23  1  0
  3 24  1  0
  9 25  1  0
 10 26  1  0
 11 27  1  0
 12 28  1  0
 16 29  1  0
 17 30  1  1
 18 31  1  0
 18 32  1  0
 20 33  1  0
 20 34  1  0
 21 35  1  1
 22 36  1  0
M  ISO  8  23  14  24  14  25  14  26  14  27  14  28  14  29   5  30  13
M  ISO  6  31  13  32  13  33  13  34  13  35  13  36   3
M  END
>  <minimizedAffinity>  (1) 
-5.75942278

>  <minimizedRMSD>  (1) 
0.741358221

$$$$
