
     RDKit          3D

 44 46  0  0  1  0  0  0  0  0999 V2000
   37.0360   30.9840   45.7330 C   0  0  2  0  0  0  0  0  0  0  0  0
   37.4760   30.4890   44.4060 C   0  0  0  0  0  0  0  0  0  0  0  0
   38.7220   29.6070   44.4870 C   0  0  0  0  0  0  0  0  0  0  0  0
   39.8720   30.3760   45.0980 C   0  0  0  0  0  0  0  0  0  0  0  0
   39.4670   31.2210   46.2820 C   0  0  0  0  0  0  0  0  0  0  0  0
   38.1040   30.8100   46.7920 C   0  0  1  0  0  0  0  0  0  0  0  0
   37.7730   31.5430   47.9610 N   0  0  0  0  0  0  0  0  0  0  0  0
   38.3670   32.8530   48.0810 C   0  0  0  0  0  0  0  0  0  0  0  0
   38.0250   33.2310   49.5250 C   0  0  0  0  0  0  0  0  0  0  0  0
   37.5360   31.9660   50.1770 C   0  0  0  0  0  0  0  0  0  0  0  0
   38.1250   30.9460   49.1990 C   0  0  1  0  0  0  0  0  0  0  0  0
   37.6860   29.5670   49.4730 C   0  0  0  0  0  0  0  0  0  0  0  0
   36.9860   29.4470   50.8380 C   0  0  0  0  0  0  0  0  0  0  0  0
   35.8090   30.3280   46.2360 C   0  0  0  0  0  0  0  0  0  0  0  0
   35.1950   29.4600   45.3090 C   0  0  0  0  0  0  0  0  0  0  0  0
   34.0720   28.7880   45.7340 C   0  0  0  0  0  0  0  0  0  0  0  0
   33.6010   28.9800   47.0060 N   0  0  0  0  0  0  0  0  0  0  0  0
   34.2140   29.8250   47.8740 C   0  0  0  0  0  0  0  0  0  0  0  0
   35.2990   30.4760   47.4730 N   0  0  0  0  0  0  0  0  0  0  0  0
   36.8295   32.0505   45.5600 H   0  0  0  0  0  0  0  0  0  0  0  0
   37.6987   31.3541   43.7642 H   0  0  0  0  0  0  0  0  0  0  0  0
   36.6614   29.8750   43.9944 H   0  0  0  0  0  0  0  0  0  0  0  0
   38.5033   28.7266   45.1091 H   0  0  0  0  0  0  0  0  0  0  0  0
   39.0029   29.2912   43.4714 H   0  0  0  0  0  0  0  0  0  0  0  0
   40.6360   29.6568   45.4281 H   0  0  0  0  0  0  0  0  0  0  0  0
   40.2515   31.0607   44.3253 H   0  0  0  0  0  0  0  0  0  0  0  0
   40.2067   31.0937   47.0861 H   0  0  0  0  0  0  0  0  0  0  0  0
   39.4233   32.2738   45.9662 H   0  0  0  0  0  0  0  0  0  0  0  0
   38.1482   29.7402   47.0441 H   0  0  0  0  0  0  0  0  0  0  0  0
   39.4553   32.8134   47.9260 H   0  0  0  0  0  0  0  0  0  0  0  0
   37.9998   33.5747   47.3364 H   0  0  0  0  0  0  0  0  0  0  0  0
   38.9186   33.6082   50.0438 H   0  0  0  0  0  0  0  0  0  0  0  0
   37.2660   34.0261   49.5657 H   0  0  0  0  0  0  0  0  0  0  0  0
   37.9397   31.8434   51.1929 H   0  0  0  0  0  0  0  0  0  0  0  0
   36.4481   31.9024   50.3271 H   0  0  0  0  0  0  0  0  0  0  0  0
   39.2095   30.7703   49.2546 H   0  0  0  0  0  0  0  0  0  0  0  0
   36.9849   29.2541   48.6853 H   0  0  0  0  0  0  0  0  0  0  0  0
   38.5776   28.9229   49.4899 H   0  0  0  0  0  0  0  0  0  0  0  0
   37.7260   29.5739   51.6420 H   0  0  0  0  0  0  0  0  0  0  0  0
   36.2140   30.2259   50.9239 H   0  0  0  0  0  0  0  0  0  0  0  0
   36.5176   28.4554   50.9239 H   0  0  0  0  0  0  0  0  0  0  0  0
   35.5955   29.3265   44.2932 H   0  0  0  0  0  0  0  0  0  0  0  0
   33.5530   28.0973   45.0531 H   0  0  0  0  0  0  0  0  0  0  0  0
   33.8189   29.9675   48.8906 H   0  0  0  0  0  0  0  0  0  0  0  0
  1 14  1  0
  1  6  1  0
  2  3  1  0
  2  1  1  0
  3  4  1  0
  4  5  1  0
  5  6  1  0
  6  7  1  0
  7  8  1  0
  7 11  1  0
  8  9  1  0
  9 10  1  0
 11 12  1  0
 11 10  1  0
 12 13  1  0
 14 19  2  0
 15 16  2  0
 15 14  1  0
 16 17  1  0
 17 18  2  0
 19 18  1  0
  1 20  1  6
  2 21  1  0
  2 22  1  0
  3 23  1  0
  3 24  1  0
  4 25  1  0
  4 26  1  0
  5 27  1  0
  5 28  1  0
  6 29  1  1
  8 30  1  0
  8 31  1  0
  9 32  1  0
  9 33  1  0
 10 34  1  0
 10 35  1  0
 11 36  1  6
 12 37  1  0
 12 38  1  0
 13 39  1  0
 13 40  1  0
 13 41  1  0
 15 42  1  0
 16 43  1  0
 18 44  1  0
M  ISO  8  20  13  21  13  22  13  23  13  24  13  25  13  26  13  27  13
M  ISO  8  28  13  29  13  30  13  31  13  32  13  33  13  34  13  35  13
M  ISO  8  36  13  37   8  38   8  39   8  40   8  41   8  42  14  43  14
M  ISO  1  44  14
M  END
>  <minimizedAffinity>  (1) 
-5.05169344

>  <minimizedRMSD>  (1) 
0.968081117

$$$$
