
     RDKit          3D

 29 30  0  0  1  0  0  0  0  0999 V2000
   33.5610   28.6390   49.1340 N   0  0  0  0  0  0  0  0  0  0  0  0
   34.3350   29.8640   49.1770 C   0  0  2  0  0  0  0  0  0  0  0  0
   34.4050   30.4210   47.7870 C   0  0  0  0  0  0  0  0  0  0  0  0
   33.3990   29.8720   46.9640 O   0  0  0  0  0  0  0  0  0  0  0  0
   33.8170   28.5380   46.7650 C   0  0  0  0  0  0  0  0  0  0  0  0
   34.0840   27.8160   48.0610 C   0  0  2  0  0  0  0  0  0  0  0  0
   33.4090   26.5770   48.0920 O   0  0  0  0  0  0  0  0  0  0  0  0
   36.0520   29.5090   49.7490 S   0  0  0  0  0  0  0  0  0  0  0  0
   37.1990   30.6600   49.0470 C   0  0  0  0  0  0  0  0  0  0  0  0
   37.2050   31.8920   49.7070 C   0  0  0  0  0  0  0  0  0  0  0  0
   38.0650   32.8870   49.2530 C   0  0  0  0  0  0  0  0  0  0  0  0
   38.8600   32.5940   48.1750 N   0  0  0  0  0  0  0  0  0  0  0  0
   38.8380   31.4090   47.5580 C   0  0  0  0  0  0  0  0  0  0  0  0
   38.0020   30.4610   48.0110 N   0  0  0  0  0  0  0  0  0  0  0  0
   40.2960   32.2070   45.7770 C   0  0  0  0  0  0  0  0  0  0  0  0
   40.1810   33.4200   46.0950 O   0  0  0  0  0  0  0  0  0  0  0  0
   39.6700   31.1170   46.4380 N   0  0  0  0  0  0  0  0  0  0  0  0
   33.6465   28.1398   50.0309 H   0  0  0  0  0  0  0  0  0  0  0  0
   33.8606   30.5759   49.8684 H   0  0  0  0  0  0  0  0  0  0  0  0
   34.2758   31.5125   47.8313 H   0  0  0  0  0  0  0  0  0  0  0  0
   35.3843   30.1624   47.3580 H   0  0  0  0  0  0  0  0  0  0  0  0
   33.0294   27.9997   46.2174 H   0  0  0  0  0  0  0  0  0  0  0  0
   34.7590   28.5646   46.1976 H   0  0  0  0  0  0  0  0  0  0  0  0
   35.1643   27.6367   48.1649 H   0  0  0  0  0  0  0  0  0  0  0  0
   33.2610   26.3053   49.0324 H   0  0  0  0  0  0  0  0  0  0  0  0
   36.5436   32.0712   50.5675 H   0  0  0  0  0  0  0  0  0  0  0  0
   38.1056   33.8721   49.7408 H   0  0  0  0  0  0  0  0  0  0  0  0
   40.9358   31.9716   44.9137 H   0  0  0  0  0  0  0  0  0  0  0  0
   39.8124   30.1481   46.1189 H   0  0  0  0  0  0  0  0  0  0  0  0
  1  2  1  0
  2  8  1  0
  3  2  1  0
  4  3  1  0
  5  4  1  0
  5  6  1  0
  6  7  1  0
  6  1  1  0
  9 10  2  0
  9  8  1  0
 11 10  1  0
 12 11  2  0
 13 14  2  0
 13 12  1  0
 14  9  1  0
 15 16  2  0
 15 17  1  0
 17 13  1  0
  1 18  1  0
  2 19  1  1
  3 20  1  0
  3 21  1  0
  5 22  1  0
  5 23  1  0
  6 24  1  1
  7 25  1  0
 10 26  1  0
 11 27  1  0
 15 28  1  0
 17 29  1  0
M  ISO  8  18   5  19  13  20  13  21  13  22  13  23  13  24  13  25   3
M  ISO  3  26  14  27  14  28   6
M  END
>  <minimizedAffinity>  (1) 
-5.34954262

>  <minimizedRMSD>  (1) 
0.370569408

$$$$
