
     RDKit          3D

 30 32  0  0  0  0  0  0  0  0999 V2000
   36.6880   30.3270   48.9120 C   0  0  0  0  0  0  0  0  0  0  0  0
   36.6350   30.2930   50.3220 C   0  0  0  0  0  0  0  0  0  0  0  0
   35.6860   29.4660   50.8990 C   0  0  0  0  0  0  0  0  0  0  0  0
   34.8520   28.7290   50.0970 N   0  0  0  0  0  0  0  0  0  0  0  0
   34.9450   28.8000   48.7320 C   0  0  0  0  0  0  0  0  0  0  0  0
   35.8630   29.5980   48.1400 N   0  0  0  0  0  0  0  0  0  0  0  0
   33.3060   30.5480   46.7180 Br  0  0  0  0  0  0  0  0  0  0  0  0
   33.2700   28.6440   46.9380 C   0  0  0  0  0  0  0  0  0  0  0  0
   34.0580   28.0160   47.8780 C   0  0  0  0  0  0  0  0  0  0  0  0
   33.9740   26.6510   47.9720 C   0  0  0  0  0  0  0  0  0  0  0  0
   33.1480   25.8740   47.1820 C   0  0  0  0  0  0  0  0  0  0  0  0
   32.3720   26.5310   46.2520 C   0  0  0  0  0  0  0  0  0  0  0  0
   32.4390   27.9050   46.1370 C   0  0  0  0  0  0  0  0  0  0  0  0
   37.6210   31.1380   48.2090 N   0  0  0  0  0  0  0  0  0  0  0  0
   38.2310   30.6210   47.1160 C   0  0  0  0  0  0  0  0  0  0  0  0
   39.1540   31.3900   46.4000 C   0  0  0  0  0  0  0  0  0  0  0  0
   39.4370   32.6760   46.8180 C   0  0  0  0  0  0  0  0  0  0  0  0
   40.2660   33.3830   46.1850 O   0  0  0  0  0  0  0  0  0  0  0  0
   38.7870   33.1330   47.9260 N   0  0  0  0  0  0  0  0  0  0  0  0
   37.8980   32.3910   48.6120 C   0  0  0  0  0  0  0  0  0  0  0  0
   37.3480   32.8980   49.6240 O   0  0  0  0  0  0  0  0  0  0  0  0
   37.3184   30.8976   50.9363 H   0  0  0  0  0  0  0  0  0  0  0  0
   35.6014   29.4004   51.9938 H   0  0  0  0  0  0  0  0  0  0  0  0
   34.6010   26.1442   48.7203 H   0  0  0  0  0  0  0  0  0  0  0  0
   33.1117   24.7800   47.2908 H   0  0  0  0  0  0  0  0  0  0  0  0
   31.6968   25.9586   45.5990 H   0  0  0  0  0  0  0  0  0  0  0  0
   31.8144   28.4157   45.3893 H   0  0  0  0  0  0  0  0  0  0  0  0
   38.0004   29.5957   46.7912 H   0  0  0  0  0  0  0  0  0  0  0  0
   39.6507   30.9742   45.5110 H   0  0  0  0  0  0  0  0  0  0  0  0
   38.9853   34.0894   48.2529 H   0  0  0  0  0  0  0  0  0  0  0  0
  1  2  2  0
  2  3  1  0
  4  3  2  0
  5  4  1  0
  6  5  2  0
  6  1  1  0
  7  8  1  0
  8  9  2  0
  9 10  1  0
  9  5  1  0
 11 10  2  0
 12 11  1  0
 13 12  2  0
 13  8  1  0
 14 20  1  0
 14  1  1  0
 15 14  1  0
 16 17  1  0
 16 15  2  0
 17 19  1  0
 18 17  2  0
 19 20  1  0
 20 21  2  0
  2 22  1  0
  3 23  1  0
 10 24  1  0
 11 25  1  0
 12 26  1  0
 13 27  1  0
 15 28  1  0
 16 29  1  0
 19 30  1  0
M  ISO  8  22  14  23  14  24  14  25  14  26  14  27  14  28  14  29  14
M  ISO  1  30   9
M  END
>  <minimizedAffinity>  (1) 
-6.02739

>  <minimizedRMSD>  (1) 
4.72206354

$$$$
