
     RDKit          3D

 36 39  0  0  0  0  0  0  0  0999 V2000
   37.2780   30.6070   45.8410 C   0  0  0  0  0  0  0  0  0  0  0  0
   38.3100   30.1170   45.0160 C   0  0  0  0  0  0  0  0  0  0  0  0
   37.9750   29.6000   43.7790 C   0  0  0  0  0  0  0  0  0  0  0  0
   36.6610   29.5890   43.4110 N   0  0  0  0  0  0  0  0  0  0  0  0
   35.6820   30.0620   44.2030 C   0  0  0  0  0  0  0  0  0  0  0  0
   36.0250   30.5560   45.3960 N   0  0  0  0  0  0  0  0  0  0  0  0
   34.1510   27.4800   45.1060 Br  0  0  0  0  0  0  0  0  0  0  0  0
   33.4680   28.9740   44.1360 C   0  0  0  0  0  0  0  0  0  0  0  0
   34.2800   30.0490   43.8100 C   0  0  0  0  0  0  0  0  0  0  0  0
   33.7130   31.0830   43.1130 C   0  0  0  0  0  0  0  0  0  0  0  0
   32.3920   31.1250   42.7150 C   0  0  0  0  0  0  0  0  0  0  0  0
   31.6180   30.0450   43.0520 C   0  0  0  0  0  0  0  0  0  0  0  0
   32.1570   28.9700   43.7630 C   0  0  0  0  0  0  0  0  0  0  0  0
   37.4350   31.2500   47.1280 C   0  0  0  0  0  0  0  0  0  0  0  0
   36.6370   30.7870   48.1850 C   0  0  0  0  0  0  0  0  0  0  0  0
   36.6620   31.2650   49.4660 C   0  0  0  0  0  0  0  0  0  0  0  0
   37.5190   32.2730   49.7910 C   0  0  0  0  0  0  0  0  0  0  0  0
   38.3380   32.7790   48.8120 C   0  0  0  0  0  0  0  0  0  0  0  0
   39.2490   33.7720   49.0910 C   0  0  0  0  0  0  0  0  0  0  0  0
   40.1380   34.3000   48.1450 C   0  0  0  0  0  0  0  0  0  0  0  0
   40.0360   33.7390   46.8660 C   0  0  0  0  0  0  0  0  0  0  0  0
   39.1210   32.7500   46.6060 C   0  0  0  0  0  0  0  0  0  0  0  0
   38.2600   32.2530   47.5500 C   0  0  0  0  0  0  0  0  0  0  0  0
   39.3580   30.1454   45.3490 H   0  0  0  0  0  0  0  0  0  0  0  0
   38.7506   29.2060   43.1058 H   0  0  0  0  0  0  0  0  0  0  0  0
   34.3541   31.9381   42.8527 H   0  0  0  0  0  0  0  0  0  0  0  0
   31.9821   31.9798   42.1570 H   0  0  0  0  0  0  0  0  0  0  0  0
   30.5580   30.0245   42.7586 H   0  0  0  0  0  0  0  0  0  0  0  0
   31.5182   28.1134   44.0239 H   0  0  0  0  0  0  0  0  0  0  0  0
   35.9324   29.9714   47.9649 H   0  0  0  0  0  0  0  0  0  0  0  0
   35.9944   30.8384   50.2291 H   0  0  0  0  0  0  0  0  0  0  0  0
   37.5540   32.6727   50.8152 H   0  0  0  0  0  0  0  0  0  0  0  0
   39.2812   34.1740   50.1144 H   0  0  0  0  0  0  0  0  0  0  0  0
   40.8599   35.0935   48.3883 H   0  0  0  0  0  0  0  0  0  0  0  0
   40.6962   34.0948   46.0614 H   0  0  0  0  0  0  0  0  0  0  0  0
   39.0761   32.3348   45.5883 H   0  0  0  0  0  0  0  0  0  0  0  0
  1 14  1  0
  2  1  2  0
  3  2  1  0
  4  3  2  0
  4  5  1  0
  5  6  2  0
  6  1  1  0
  8  7  1  0
  9  8  2  0
  9  5  1  0
 10  9  1  0
 11 12  1  0
 11 10  2  0
 12 13  2  0
 13  8  1  0
 14 23  1  0
 14 15  2  0
 15 16  1  0
 16 17  2  0
 18 19  2  0
 18 17  1  0
 20 19  1  0
 21 20  2  0
 22 21  1  0
 22 23  2  0
 23 18  1  0
  2 24  1  0
  3 25  1  0
 10 26  1  0
 11 27  1  0
 12 28  1  0
 13 29  1  0
 15 30  1  0
 16 31  1  0
 17 32  1  0
 19 33  1  0
 20 34  1  0
 21 35  1  0
 22 36  1  0
M  ISO  8  24  14  25  14  26  14  27  14  28  14  29  14  30  14  31  14
M  ISO  5  32  14  33  14  34  14  35  14  36  14
M  END
>  <minimizedAffinity>  (1) 
-5.59700155

>  <minimizedRMSD>  (1) 
5.17244768

$$$$
