
     RDKit          3D

 21 22  0  0  0  0  0  0  0  0999 V2000
   37.4470   29.3890   50.6510 Br  0  0  0  0  0  0  0  0  0  0  0  0
   35.9950   29.2660   49.4080 C   0  0  0  0  0  0  0  0  0  0  0  0
   36.0270   29.9610   48.2010 C   0  0  0  0  0  0  0  0  0  0  0  0
   34.9440   29.8200   47.3610 C   0  0  0  0  0  0  0  0  0  0  0  0
   33.8460   29.0350   47.6550 C   0  0  0  0  0  0  0  0  0  0  0  0
   33.8460   28.3610   48.8580 C   0  0  0  0  0  0  0  0  0  0  0  0
   34.9290   28.4850   49.7270 C   0  0  0  0  0  0  0  0  0  0  0  0
   38.3700   32.7560   48.2540 C   0  0  0  0  0  0  0  0  0  0  0  0
   39.3140   32.4200   47.2600 C   0  0  0  0  0  0  0  0  0  0  0  0
   39.1310   31.2260   46.5770 C   0  0  0  0  0  0  0  0  0  0  0  0
   38.0580   30.4350   46.8930 N   0  0  0  0  0  0  0  0  0  0  0  0
   37.1720   30.7980   47.8600 C   0  0  0  0  0  0  0  0  0  0  0  0
   37.3320   31.9510   48.5310 N   0  0  0  0  0  0  0  0  0  0  0  0
   38.4730   33.9390   48.9920 O   0  0  0  0  0  0  0  0  0  0  0  0
   34.9543   30.3622   46.4039 H   0  0  0  0  0  0  0  0  0  0  0  0
   33.0020   28.9506   46.9546 H   0  0  0  0  0  0  0  0  0  0  0  0
   32.9912   27.7253   49.1321 H   0  0  0  0  0  0  0  0  0  0  0  0
   34.9209   27.9433   50.6843 H   0  0  0  0  0  0  0  0  0  0  0  0
   40.1641   33.0808   47.0348 H   0  0  0  0  0  0  0  0  0  0  0  0
   39.8380   30.9187   45.7923 H   0  0  0  0  0  0  0  0  0  0  0  0
   39.2218   34.5642   48.8231 H   0  0  0  0  0  0  0  0  0  0  0  0
  2  7  2  0
  2  1  1  0
  3  2  1  0
  4  5  1  0
  4  3  2  0
  5  6  2  0
  6  7  1  0
  8 13  2  0
  8 14  1  0
  9  8  1  0
 10 11  1  0
 10  9  2  0
 11 12  2  0
 12  3  1  0
 12 13  1  0
  4 15  1  0
  5 16  1  0
  6 17  1  0
  7 18  1  0
  9 19  1  0
 10 20  1  0
 14 21  1  0
M  ISO  7  15  14  16  14  17  14  18  14  19  14  20  14  21   3
M  END
>  <minimizedAffinity>  (1) 
-5.54204655

>  <minimizedRMSD>  (1) 
0.902980626

$$$$
