
     RDKit          3D

 31 33  0  0  0  0  0  0  0  0999 V2000
   36.7690   29.6770   50.1920 C   0  0  0  0  0  0  0  0  0  0  0  0
   37.3490   30.3790   49.1420 C   0  0  0  0  0  0  0  0  0  0  0  0
   36.7850   30.3030   47.8910 C   0  0  0  0  0  0  0  0  0  0  0  0
   35.6830   29.5410   47.7400 N   0  0  0  0  0  0  0  0  0  0  0  0
   35.1170   28.8590   48.7540 C   0  0  0  0  0  0  0  0  0  0  0  0
   35.6730   28.9380   49.9760 N   0  0  0  0  0  0  0  0  0  0  0  0
   33.9220   28.0510   48.5300 C   0  0  0  0  0  0  0  0  0  0  0  0
   33.9960   26.9490   47.7120 C   0  0  0  0  0  0  0  0  0  0  0  0
   32.8510   26.2060   47.5220 C   0  0  0  0  0  0  0  0  0  0  0  0
   31.6430   26.5470   48.1310 C   0  0  0  0  0  0  0  0  0  0  0  0
   31.5940   27.6690   48.9540 C   0  0  0  0  0  0  0  0  0  0  0  0
   32.7480   28.4250   49.1540 C   0  0  0  0  0  0  0  0  0  0  0  0
   37.3080   30.9840   46.6960 C   0  0  0  0  0  0  0  0  0  0  0  0
   36.7410   30.8650   45.4610 C   0  0  0  0  0  0  0  0  0  0  0  0
   37.2280   31.4960   44.3350 C   0  0  0  0  0  0  0  0  0  0  0  0
   38.3260   32.2790   44.4520 N   0  0  0  0  0  0  0  0  0  0  0  0
   38.8780   32.3940   45.6650 C   0  0  0  0  0  0  0  0  0  0  0  0
   38.4010   31.7790   46.7500 N   0  0  0  0  0  0  0  0  0  0  0  0
   40.0900   33.2480   45.8190 C   0  0  0  0  0  0  0  0  0  0  0  0
   40.1000   33.7460   47.1020 F   0  0  0  0  0  0  0  0  0  0  0  0
   41.2570   32.5050   45.5790 F   0  0  0  0  0  0  0  0  0  0  0  0
   40.1000   34.2890   44.9610 F   0  0  0  0  0  0  0  0  0  0  0  0
   37.2093   29.7282   51.1987 H   0  0  0  0  0  0  0  0  0  0  0  0
   38.2491   30.9884   49.3103 H   0  0  0  0  0  0  0  0  0  0  0  0
   34.9409   26.6685   47.2236 H   0  0  0  0  0  0  0  0  0  0  0  0
   32.8906   25.3194   46.8721 H   0  0  0  0  0  0  0  0  0  0  0  0
   30.7423   25.9382   47.9634 H   0  0  0  0  0  0  0  0  0  0  0  0
   30.6515   27.9568   49.4428 H   0  0  0  0  0  0  0  0  0  0  0  0
   32.7238   29.3124   49.8036 H   0  0  0  0  0  0  0  0  0  0  0  0
   35.8475   30.2319   45.3574 H   0  0  0  0  0  0  0  0  0  0  0  0
   36.7337   31.3654   43.3610 H   0  0  0  0  0  0  0  0  0  0  0  0
  2  1  2  0
  3  2  1  0
  4  3  2  0
  4  5  1  0
  5  6  2  0
  6  1  1  0
  7  5  1  0
  7 12  1  0
  8  7  2  0
  9  8  1  0
  9 10  2  0
 10 11  1  0
 11 12  2  0
 13 18  1  0
 13  3  1  0
 14 13  2  0
 15 16  2  0
 15 14  1  0
 16 17  1  0
 17 19  1  0
 17 18  2  0
 19 20  1  0
 21 19  1  0
 22 19  1  0
  1 23  1  0
  2 24  1  0
  8 25  1  0
  9 26  1  0
 10 27  1  0
 11 28  1  0
 12 29  1  0
 14 30  1  0
 15 31  1  0
M  ISO  8  23  14  24  14  25  14  26  14  27  14  28  14  29  14  30  14
M  ISO  1  31  14
M  END
>  <minimizedAffinity>  (1) 
-6.29537773

>  <minimizedRMSD>  (1) 
1.46294892

$$$$
