
     RDKit          3D

 24 25  0  0  0  0  0  0  0  0999 V2000
   37.7470   31.1180   47.2620 C   0  0  0  0  0  0  0  0  0  0  0  0
   37.0410   30.7920   46.1190 C   0  0  0  0  0  0  0  0  0  0  0  0
   37.3750   31.2670   44.8660 C   0  0  0  0  0  0  0  0  0  0  0  0
   38.4390   32.0900   44.7440 N   0  0  0  0  0  0  0  0  0  0  0  0
   39.1130   32.3970   45.8620 C   0  0  0  0  0  0  0  0  0  0  0  0
   38.7930   31.9390   47.0780 N   0  0  0  0  0  0  0  0  0  0  0  0
   37.5600   30.3530   50.9460 C   0  0  0  0  0  0  0  0  0  0  0  0
   38.0330   30.9120   49.7510 C   0  0  0  0  0  0  0  0  0  0  0  0
   37.3670   30.6040   48.5700 C   0  0  0  0  0  0  0  0  0  0  0  0
   36.2990   29.7790   48.6500 N   0  0  0  0  0  0  0  0  0  0  0  0
   35.8540   29.2460   49.8140 C   0  0  0  0  0  0  0  0  0  0  0  0
   36.5050   29.5470   50.9720 N   0  0  0  0  0  0  0  0  0  0  0  0
   34.6630   28.3500   49.7660 C   0  0  0  0  0  0  0  0  0  0  0  0
   40.2930   33.3050   45.7580 C   0  0  0  0  0  0  0  0  0  0  0  0
   40.3910   34.0190   46.9540 F   0  0  0  0  0  0  0  0  0  0  0  0
   41.4450   32.5850   45.4960 F   0  0  0  0  0  0  0  0  0  0  0  0
   40.1380   34.2420   44.7720 F   0  0  0  0  0  0  0  0  0  0  0  0
   36.1727   30.1231   46.2119 H   0  0  0  0  0  0  0  0  0  0  0  0
   36.7850   30.9802   43.9830 H   0  0  0  0  0  0  0  0  0  0  0  0
   38.0768   30.5883   51.8881 H   0  0  0  0  0  0  0  0  0  0  0  0
   38.9089   31.5775   49.7475 H   0  0  0  0  0  0  0  0  0  0  0  0
   34.3435   28.1096   50.7908 H   0  0  0  0  0  0  0  0  0  0  0  0
   33.8435   28.8574   49.2359 H   0  0  0  0  0  0  0  0  0  0  0  0
   34.9234   27.4220   49.2359 H   0  0  0  0  0  0  0  0  0  0  0  0
  1  9  1  0
  2  1  2  0
  3  2  1  0
  4  3  2  0
  4  5  1  0
  5  6  2  0
  6  1  1  0
  7 12  2  0
  8  7  1  0
  9 10  1  0
  9  8  2  0
 10 11  2  0
 11 12  1  0
 13 11  1  0
 14  5  1  0
 14 15  1  0
 16 14  1  0
 17 14  1  0
  2 18  1  0
  3 19  1  0
  7 20  1  0
  8 21  1  0
 13 22  1  0
 13 23  1  0
 13 24  1  0
M  ISO  7  18  14  19  14  20  14  21  14  22   8  23   8  24   8
M  END
>  <minimizedAffinity>  (1) 
-6.09707355

>  <minimizedRMSD>  (1) 
0.229424536

$$$$
