
     RDKit          3D

 31 33  0  0  0  0  0  0  0  0999 V2000
   37.4590   30.4470   51.0530 C   0  0  0  0  0  0  0  0  0  0  0  0
   37.9110   31.0280   49.8440 C   0  0  0  0  0  0  0  0  0  0  0  0
   37.3390   30.5740   48.6530 C   0  0  0  0  0  0  0  0  0  0  0  0
   36.3940   29.6140   48.7340 N   0  0  0  0  0  0  0  0  0  0  0  0
   35.9800   29.0760   49.8950 C   0  0  0  0  0  0  0  0  0  0  0  0
   36.5130   29.4940   51.0520 N   0  0  0  0  0  0  0  0  0  0  0  0
   37.7120   31.0870   47.3510 C   0  0  0  0  0  0  0  0  0  0  0  0
   36.9800   30.7590   46.2240 C   0  0  0  0  0  0  0  0  0  0  0  0
   37.3040   31.2310   44.9660 C   0  0  0  0  0  0  0  0  0  0  0  0
   38.3770   32.0440   44.8220 N   0  0  0  0  0  0  0  0  0  0  0  0
   39.0660   32.3450   45.9250 C   0  0  0  0  0  0  0  0  0  0  0  0
   38.7690   31.8980   47.1560 N   0  0  0  0  0  0  0  0  0  0  0  0
   40.2470   33.2360   45.8000 C   0  0  0  0  0  0  0  0  0  0  0  0
   40.3600   33.9680   46.9900 F   0  0  0  0  0  0  0  0  0  0  0  0
   41.4000   32.5330   45.5490 F   0  0  0  0  0  0  0  0  0  0  0  0
   40.0860   34.1700   44.8040 F   0  0  0  0  0  0  0  0  0  0  0  0
   35.0040   28.1000   49.8200 O   0  0  0  0  0  0  0  0  0  0  0  0
   33.9710   28.1150   48.9340 C   0  0  0  0  0  0  0  0  0  0  0  0
   34.4420   28.2420   47.6210 C   0  0  0  0  0  0  0  0  0  0  0  0
   33.5840   28.2840   46.5210 C   0  0  0  0  0  0  0  0  0  0  0  0
   32.2250   28.1970   46.7380 C   0  0  0  0  0  0  0  0  0  0  0  0
   31.7950   28.0740   48.0420 C   0  0  0  0  0  0  0  0  0  0  0  0
   32.6420   28.0380   49.0720 N   0  0  0  0  0  0  0  0  0  0  0  0
   37.8895   30.7814   52.0084 H   0  0  0  0  0  0  0  0  0  0  0  0
   38.6853   31.8094   49.8423 H   0  0  0  0  0  0  0  0  0  0  0  0
   36.1076   30.0979   46.3331 H   0  0  0  0  0  0  0  0  0  0  0  0
   36.6975   30.9496   44.0925 H   0  0  0  0  0  0  0  0  0  0  0  0
   35.5266   28.3111   47.4508 H   0  0  0  0  0  0  0  0  0  0  0  0
   33.9839   28.3845   45.5012 H   0  0  0  0  0  0  0  0  0  0  0  0
   31.5108   28.2247   45.9019 H   0  0  0  0  0  0  0  0  0  0  0  0
   30.7153   28.0030   48.2402 H   0  0  0  0  0  0  0  0  0  0  0  0
  2  1  2  0
  3  4  2  0
  3  2  1  0
  4  5  1  0
  5  6  2  0
  6  1  1  0
  7  3  1  0
  8  7  2  0
  9  8  1  0
 10  9  2  0
 10 11  1  0
 11 12  2  0
 12  7  1  0
 13 11  1  0
 13 14  1  0
 15 13  1  0
 16 13  1  0
 17  5  1  0
 18 23  1  0
 18 17  1  0
 19 18  2  0
 20 21  2  0
 20 19  1  0
 21 22  1  0
 22 23  2  0
  1 24  1  0
  2 25  1  0
  8 26  1  0
  9 27  1  0
 19 28  1  0
 20 29  1  0
 21 30  1  0
 22 31  1  0
M  ISO  8  24  14  25  14  26  14  27  14  28  14  29  14  30  14  31  14
M  END
>  <minimizedAffinity>  (1) 
-6.54358149

>  <minimizedRMSD>  (1) 
0.648414135

$$$$
