
     RDKit          3D

 24 25  0  0  0  0  0  0  0  0999 V2000
   37.7550   31.0350   47.4030 C   0  0  0  0  0  0  0  0  0  0  0  0
   37.0030   30.7240   46.2900 C   0  0  0  0  0  0  0  0  0  0  0  0
   37.2930   31.2060   45.0270 C   0  0  0  0  0  0  0  0  0  0  0  0
   38.3660   32.0230   44.8620 N   0  0  0  0  0  0  0  0  0  0  0  0
   39.0690   32.3060   45.9430 C   0  0  0  0  0  0  0  0  0  0  0  0
   38.8040   31.8500   47.1780 N   0  0  0  0  0  0  0  0  0  0  0  0
   37.6090   30.3500   51.0920 C   0  0  0  0  0  0  0  0  0  0  0  0
   38.0730   30.9060   49.8820 C   0  0  0  0  0  0  0  0  0  0  0  0
   37.4070   30.5270   48.7120 C   0  0  0  0  0  0  0  0  0  0  0  0
   36.3790   29.6640   48.8190 N   0  0  0  0  0  0  0  0  0  0  0  0
   35.9550   29.1440   50.0030 C   0  0  0  0  0  0  0  0  0  0  0  0
   36.5960   29.5080   51.1500 N   0  0  0  0  0  0  0  0  0  0  0  0
   34.8800   28.2740   49.8910 O   0  0  0  0  0  0  0  0  0  0  0  0
   33.8230   28.4940   49.0490 C   0  0  0  0  0  0  0  0  0  0  0  0
   32.6490   28.0340   49.0530 O   0  0  0  0  0  0  0  0  0  0  0  0
   40.2470   33.2110   45.7990 C   0  0  0  0  0  0  0  0  0  0  0  0
   40.3670   33.9530   46.9870 F   0  0  0  0  0  0  0  0  0  0  0  0
   41.4060   32.5200   45.5690 F   0  0  0  0  0  0  0  0  0  0  0  0
   40.0770   34.1320   44.8050 F   0  0  0  0  0  0  0  0  0  0  0  0
   36.1328   30.0624   46.4124 H   0  0  0  0  0  0  0  0  0  0  0  0
   36.6636   30.9318   44.1675 H   0  0  0  0  0  0  0  0  0  0  0  0
   38.1140   30.6309   52.0280 H   0  0  0  0  0  0  0  0  0  0  0  0
   38.9208   31.6065   49.8593 H   0  0  0  0  0  0  0  0  0  0  0  0
   34.0346   29.1932   48.2266 H   0  0  0  0  0  0  0  0  0  0  0  0
  1  9  1  0
  2  1  2  0
  3  2  1  0
  4  3  2  0
  4  5  1  0
  5  6  2  0
  6  1  1  0
  7 12  2  0
  8  7  1  0
  9 10  1  0
  9  8  2  0
 10 11  2  0
 11 12  1  0
 13 11  1  0
 14 15  2  0
 14 13  1  0
 16  5  1  0
 16 17  1  0
 18 16  1  0
 19 16  1  0
  2 20  1  0
  3 21  1  0
  7 22  1  0
  8 23  1  0
 14 24  1  0
M  ISO  5  20  14  21  14  22  14  23  14  24   6
M  END
>  <minimizedAffinity>  (1) 
-6.04111767

>  <minimizedRMSD>  (1) 
0.760524392

$$$$
