
     RDKit          3D

 46 49  0  0  1  0  0  0  0  0999 V2000
   37.7010   30.2930   51.0330 C   0  0  0  0  0  0  0  0  0  0  0  0
   38.1660   30.8690   49.8390 C   0  0  0  0  0  0  0  0  0  0  0  0
   37.4700   30.5710   48.6720 C   0  0  0  0  0  0  0  0  0  0  0  0
   36.4160   29.7620   48.7770 N   0  0  0  0  0  0  0  0  0  0  0  0
   35.9760   29.2140   49.9240 C   0  0  0  0  0  0  0  0  0  0  0  0
   36.6300   29.4870   51.0560 N   0  0  0  0  0  0  0  0  0  0  0  0
   37.8460   31.1030   47.3870 C   0  0  0  0  0  0  0  0  0  0  0  0
   37.1160   30.7730   46.2470 C   0  0  0  0  0  0  0  0  0  0  0  0
   37.4210   31.2480   44.9980 C   0  0  0  0  0  0  0  0  0  0  0  0
   38.4830   32.0820   44.8570 N   0  0  0  0  0  0  0  0  0  0  0  0
   39.1730   32.3910   45.9560 C   0  0  0  0  0  0  0  0  0  0  0  0
   38.8880   31.9340   47.1890 N   0  0  0  0  0  0  0  0  0  0  0  0
   40.3380   33.3010   45.8340 C   0  0  0  0  0  0  0  0  0  0  0  0
   40.4280   34.0340   47.0410 F   0  0  0  0  0  0  0  0  0  0  0  0
   41.4870   32.6190   45.5710 F   0  0  0  0  0  0  0  0  0  0  0  0
   40.1270   34.2690   44.8680 F   0  0  0  0  0  0  0  0  0  0  0  0
   34.8610   28.3950   49.8480 O   0  0  0  0  0  0  0  0  0  0  0  0
   33.4810   26.8990   46.7900 N   0  0  0  0  0  0  0  0  0  0  0  0
   34.0830   26.9290   47.9850 C   0  0  0  0  0  0  0  0  0  0  0  0
   34.2700   28.1360   48.6250 C   0  0  0  0  0  0  0  0  0  0  0  0
   33.8200   29.3000   47.9980 C   0  0  0  0  0  0  0  0  0  0  0  0
   33.8910   30.4990   48.4080 O   0  0  0  0  0  0  0  0  0  0  0  0
   33.2200   29.2050   46.7920 N   0  0  0  0  0  0  0  0  0  0  0  0
   33.0490   28.0200   46.1870 C   0  0  0  0  0  0  0  0  0  0  0  0
   32.4910   27.8940   45.0580 O   0  0  0  0  0  0  0  0  0  0  0  0
   33.4830   30.6400   44.8900 N   0  0  0  0  0  0  0  0  0  0  0  0
   32.7150   30.3530   46.0530 C   0  0  1  0  0  0  0  0  0  0  0  0
   31.2580   30.1800   45.8540 C   0  0  0  0  0  0  0  0  0  0  0  0
   30.7640   30.4000   44.5280 N   0  0  0  0  0  0  0  0  0  0  0  0
   31.3920   31.6430   44.0670 C   0  0  0  0  0  0  0  0  0  0  0  0
   32.8320   31.2970   43.8230 C   0  0  0  0  0  0  0  0  0  0  0  0
   38.2294   30.5089   51.9733 H   0  0  0  0  0  0  0  0  0  0  0  0
   39.0456   31.5295   49.8274 H   0  0  0  0  0  0  0  0  0  0  0  0
   36.2535   30.0989   46.3546 H   0  0  0  0  0  0  0  0  0  0  0  0
   36.8164   30.9588   44.1258 H   0  0  0  0  0  0  0  0  0  0  0  0
   33.3451   25.9927   46.3198 H   0  0  0  0  0  0  0  0  0  0  0  0
   34.4269   25.9954   48.4543 H   0  0  0  0  0  0  0  0  0  0  0  0
   34.2732   31.2331   45.1810 H   0  0  0  0  0  0  0  0  0  0  0  0
   32.8428   31.2770   46.6360 H   0  0  0  0  0  0  0  0  0  0  0  0
   31.0017   29.1490   46.1394 H   0  0  0  0  0  0  0  0  0  0  0  0
   30.7852   30.9563   46.4735 H   0  0  0  0  0  0  0  0  0  0  0  0
   31.0264   29.6164   43.9132 H   0  0  0  0  0  0  0  0  0  0  0  0
   30.9176   31.9921   43.1380 H   0  0  0  0  0  0  0  0  0  0  0  0
   31.2856   32.4523   44.8043 H   0  0  0  0  0  0  0  0  0  0  0  0
   32.8795   30.6419   42.9407 H   0  0  0  0  0  0  0  0  0  0  0  0
   33.3569   32.2544   43.6892 H   0  0  0  0  0  0  0  0  0  0  0  0
  1  6  2  0
  2  1  1  0
  3  4  1  0
  3  2  2  0
  4  5  2  0
  5  6  1  0
  7  3  1  0
  8  7  2  0
  9  8  1  0
 10  9  2  0
 10 11  1  0
 11 12  2  0
 12  7  1  0
 13 11  1  0
 13 14  1  0
 15 13  1  0
 16 13  1  0
 17  5  1  0
 18 19  1  0
 19 20  2  0
 20 17  1  0
 21 22  2  0
 21 20  1  0
 23 21  1  0
 24 18  1  0
 24 23  1  0
 25 24  2  0
 26 27  1  0
 27 23  1  0
 28 27  1  0
 29 28  1  0
 30 29  1  0
 31 30  1  0
 31 26  1  0
  1 32  1  0
  2 33  1  0
  8 34  1  0
  9 35  1  0
 18 36  1  0
 19 37  1  0
 26 38  1  0
 27 39  1  1
 28 40  1  0
 28 41  1  0
 29 42  1  0
 30 43  1  0
 30 44  1  0
 31 45  1  0
 31 46  1  0
M  ISO  8  32  14  33  14  34  14  35  14  36   9  37  14  38   5  39  13
M  ISO  7  40  13  41  13  42   5  43  13  44  13  45  13  46  13
M  END
>  <minimizedAffinity>  (1) 
-7.03586197

>  <minimizedRMSD>  (1) 
0.897128761

$$$$
