
     RDKit          3D

 38 41  0  0  0  0  0  0  0  0999 V2000
   37.6080   30.1600   50.9030 C   0  0  0  0  0  0  0  0  0  0  0  0
   38.1060   30.7300   49.7250 C   0  0  0  0  0  0  0  0  0  0  0  0
   37.3770   30.5340   48.5610 C   0  0  0  0  0  0  0  0  0  0  0  0
   36.2480   29.8110   48.6580 N   0  0  0  0  0  0  0  0  0  0  0  0
   35.7850   29.2700   49.7960 C   0  0  0  0  0  0  0  0  0  0  0  0
   36.4770   29.4510   50.9280 N   0  0  0  0  0  0  0  0  0  0  0  0
   37.7700   31.0690   47.2830 C   0  0  0  0  0  0  0  0  0  0  0  0
   37.0650   30.7490   46.1290 C   0  0  0  0  0  0  0  0  0  0  0  0
   37.3920   31.2360   44.8900 C   0  0  0  0  0  0  0  0  0  0  0  0
   38.4500   32.0650   44.7740 N   0  0  0  0  0  0  0  0  0  0  0  0
   39.1280   32.3680   45.8950 C   0  0  0  0  0  0  0  0  0  0  0  0
   38.8210   31.9040   47.1100 N   0  0  0  0  0  0  0  0  0  0  0  0
   40.3020   33.2820   45.7990 C   0  0  0  0  0  0  0  0  0  0  0  0
   40.3820   33.9850   47.0000 F   0  0  0  0  0  0  0  0  0  0  0  0
   41.4520   32.5680   45.5410 F   0  0  0  0  0  0  0  0  0  0  0  0
   40.1310   34.2220   44.8130 F   0  0  0  0  0  0  0  0  0  0  0  0
   34.6010   28.5540   49.7100 O   0  0  0  0  0  0  0  0  0  0  0  0
   33.6000   26.6150   46.7550 N   0  0  0  0  0  0  0  0  0  0  0  0
   34.1010   26.8280   47.9800 C   0  0  0  0  0  0  0  0  0  0  0  0
   34.1400   28.1060   48.4950 C   0  0  0  0  0  0  0  0  0  0  0  0
   33.6470   29.1560   47.7080 C   0  0  0  0  0  0  0  0  0  0  0  0
   33.5840   30.3920   47.9730 O   0  0  0  0  0  0  0  0  0  0  0  0
   33.1540   28.8690   46.4740 N   0  0  0  0  0  0  0  0  0  0  0  0
   33.1310   27.6150   46.0050 C   0  0  0  0  0  0  0  0  0  0  0  0
   32.6770   27.3220   44.8590 O   0  0  0  0  0  0  0  0  0  0  0  0
   32.6300   29.8500   45.5890 C   0  0  0  0  0  0  0  0  0  0  0  0
   32.1400   29.9180   44.3350 N   0  0  0  0  0  0  0  0  0  0  0  0
   31.7990   31.2020   44.0860 C   0  0  0  0  0  0  0  0  0  0  0  0
   32.0810   31.9170   45.1900 N   0  0  0  0  0  0  0  0  0  0  0  0
   32.5860   31.1080   46.1100 N   0  0  0  0  0  0  0  0  0  0  0  0
   38.1675   30.3011   51.8395 H   0  0  0  0  0  0  0  0  0  0  0  0
   39.0399   31.3112   49.7226 H   0  0  0  0  0  0  0  0  0  0  0  0
   36.2023   30.0718   46.2139 H   0  0  0  0  0  0  0  0  0  0  0  0
   36.8016   30.9556   44.0052 H   0  0  0  0  0  0  0  0  0  0  0  0
   33.5763   25.6549   46.3827 H   0  0  0  0  0  0  0  0  0  0  0  0
   34.4807   25.9835   48.5738 H   0  0  0  0  0  0  0  0  0  0  0  0
   31.3693   31.5912   43.1512 H   0  0  0  0  0  0  0  0  0  0  0  0
   31.9290   32.9295   45.3021 H   0  0  0  0  0  0  0  0  0  0  0  0
  1  6  2  0
  2  1  1  0
  3  4  1  0
  3  2  2  0
  4  5  2  0
  5  6  1  0
  7  3  1  0
  8  7  2  0
  9  8  1  0
 10  9  2  0
 10 11  1  0
 11 12  2  0
 12  7  1  0
 13 11  1  0
 13 14  1  0
 15 13  1  0
 16 13  1  0
 17  5  1  0
 18 19  1  0
 19 20  2  0
 20 17  1  0
 21 22  2  0
 21 20  1  0
 23 21  1  0
 24 23  1  0
 24 18  1  0
 25 24  2  0
 26 30  2  0
 26 23  1  0
 27 26  1  0
 28 27  2  0
 28 29  1  0
 29 30  1  0
  1 31  1  0
  2 32  1  0
  8 33  1  0
  9 34  1  0
 18 35  1  0
 19 36  1  0
 28 37  1  0
 29 38  1  0
M  ISO  8  31  14  32  14  33  14  34  14  35   9  36  14  37  14  38   9
M  END
>  <minimizedAffinity>  (1) 
-6.97647715

>  <minimizedRMSD>  (1) 
1.21396482

$$$$
