
     RDKit          3D

 42 45  0  0  0  0  0  0  0  0999 V2000
   34.5630   28.5600   49.6920 O   0  0  0  0  0  0  0  0  0  0  0  0
   33.6210   26.5740   46.7480 N   0  0  0  0  0  0  0  0  0  0  0  0
   34.1150   26.8110   47.9690 C   0  0  0  0  0  0  0  0  0  0  0  0
   34.1080   28.0960   48.4710 C   0  0  0  0  0  0  0  0  0  0  0  0
   33.5810   29.1170   47.6860 C   0  0  0  0  0  0  0  0  0  0  0  0
   33.4760   30.3530   47.9500 O   0  0  0  0  0  0  0  0  0  0  0  0
   33.0920   28.8430   46.4600 N   0  0  0  0  0  0  0  0  0  0  0  0
   33.1080   27.5670   45.9830 C   0  0  0  0  0  0  0  0  0  0  0  0
   32.6650   27.2420   44.8420 O   0  0  0  0  0  0  0  0  0  0  0  0
   30.1150   29.3570   46.6410 Cl  0  0  0  0  0  0  0  0  0  0  0  0
   31.2010   30.1580   45.5240 C   0  0  0  0  0  0  0  0  0  0  0  0
   32.5310   29.8080   45.5710 C   0  0  0  0  0  0  0  0  0  0  0  0
   33.4660   30.3970   44.7160 C   0  0  0  0  0  0  0  0  0  0  0  0
   33.0180   31.3580   43.8050 C   0  0  0  0  0  0  0  0  0  0  0  0
   31.6700   31.7190   43.7510 C   0  0  0  0  0  0  0  0  0  0  0  0
   30.7700   31.1110   44.6170 C   0  0  0  0  0  0  0  0  0  0  0  0
   29.0670   31.5290   44.5880 Cl  0  0  0  0  0  0  0  0  0  0  0  0
   37.5970   30.1240   50.8740 C   0  0  0  0  0  0  0  0  0  0  0  0
   38.0980   30.6990   49.6930 C   0  0  0  0  0  0  0  0  0  0  0  0
   37.3460   30.5110   48.5340 C   0  0  0  0  0  0  0  0  0  0  0  0
   36.2210   29.8050   48.6330 N   0  0  0  0  0  0  0  0  0  0  0  0
   35.7560   29.2630   49.7710 C   0  0  0  0  0  0  0  0  0  0  0  0
   36.4560   29.4280   50.9020 N   0  0  0  0  0  0  0  0  0  0  0  0
   37.7460   31.0590   47.2540 C   0  0  0  0  0  0  0  0  0  0  0  0
   37.0320   30.7570   46.1040 C   0  0  0  0  0  0  0  0  0  0  0  0
   37.3550   31.2550   44.8730 C   0  0  0  0  0  0  0  0  0  0  0  0
   38.4180   32.0790   44.7570 N   0  0  0  0  0  0  0  0  0  0  0  0
   39.1040   32.3630   45.8840 C   0  0  0  0  0  0  0  0  0  0  0  0
   38.8070   31.8880   47.1040 N   0  0  0  0  0  0  0  0  0  0  0  0
   40.2820   33.2720   45.7800 C   0  0  0  0  0  0  0  0  0  0  0  0
   40.3690   33.9730   46.9810 F   0  0  0  0  0  0  0  0  0  0  0  0
   41.4300   32.5480   45.5320 F   0  0  0  0  0  0  0  0  0  0  0  0
   40.1270   34.2070   44.7940 F   0  0  0  0  0  0  0  0  0  0  0  0
   33.6312   25.6118   46.3806 H   0  0  0  0  0  0  0  0  0  0  0  0
   34.5246   25.9853   48.5694 H   0  0  0  0  0  0  0  0  0  0  0  0
   34.5275   30.1118   44.7586 H   0  0  0  0  0  0  0  0  0  0  0  0
   33.7361   31.8357   43.1223 H   0  0  0  0  0  0  0  0  0  0  0  0
   31.3250   32.4759   43.0312 H   0  0  0  0  0  0  0  0  0  0  0  0
   38.1639   30.2513   51.8080 H   0  0  0  0  0  0  0  0  0  0  0  0
   39.0382   31.2699   49.6837 H   0  0  0  0  0  0  0  0  0  0  0  0
   36.1650   30.0851   46.1866 H   0  0  0  0  0  0  0  0  0  0  0  0
   36.7572   30.9881   43.9890 H   0  0  0  0  0  0  0  0  0  0  0  0
  1 22  1  0
  2  3  1  0
  3  4  2  0
  4  1  1  0
  5  6  2  0
  5  4  1  0
  7  5  1  0
  8  7  1  0
  8  2  1  0
  9  8  2  0
 11 12  2  0
 11 10  1  0
 12  7  1  0
 13 12  1  0
 14 13  2  0
 15 14  1  0
 15 16  2  0
 16 11  1  0
 17 16  1  0
 18 23  2  0
 19 18  1  0
 20 21  1  0
 20 19  2  0
 21 22  2  0
 22 23  1  0
 24 20  1  0
 25 24  2  0
 26 25  1  0
 27 26  2  0
 27 28  1  0
 28 29  2  0
 29 24  1  0
 30 28  1  0
 30 31  1  0
 32 30  1  0
 33 30  1  0
  2 34  1  0
  3 35  1  0
 13 36  1  0
 14 37  1  0
 15 38  1  0
 18 39  1  0
 19 40  1  0
 25 41  1  0
 26 42  1  0
M  ISO  8  34   9  35  14  36  14  37  14  38  14  39  14  40  14  41  14
M  ISO  1  42  14
M  END
>  <minimizedAffinity>  (1) 
-6.81531763

>  <minimizedRMSD>  (1) 
1.40483165

$$$$
