
     RDKit          3D

 29 30  0  0  0  0  0  0  0  0999 V2000
   37.1960   30.9200   47.6450 C   0  0  0  0  0  0  0  0  0  0  0  0
   38.0970   31.8290   47.3550 C   0  0  0  0  0  0  0  0  0  0  0  0
   37.5210   30.2500   51.2610 C   0  0  0  0  0  0  0  0  0  0  0  0
   37.8160   30.7500   49.9750 C   0  0  0  0  0  0  0  0  0  0  0  0
   36.9300   30.4360   48.9580 C   0  0  0  0  0  0  0  0  0  0  0  0
   35.8230   29.6740   49.2050 N   0  0  0  0  0  0  0  0  0  0  0  0
   35.5760   29.2170   50.4430 C   0  0  0  0  0  0  0  0  0  0  0  0
   36.4090   29.4950   51.4690 N   0  0  0  0  0  0  0  0  0  0  0  0
   38.3490   32.3030   45.9740 C   0  0  0  0  0  0  0  0  0  0  0  0
   39.6600   31.9710   45.4830 N   0  0  0  0  0  0  0  0  0  0  0  0
   39.7340   30.6400   44.9270 C   0  0  0  0  0  0  0  0  0  0  0  0
   40.5140   30.7780   43.6160 C   0  0  0  0  0  0  0  0  0  0  0  0
   39.9270   32.1010   43.1190 C   0  0  0  0  0  0  0  0  0  0  0  0
   39.9440   32.9030   44.4030 C   0  0  0  0  0  0  0  0  0  0  0  0
   36.6050   30.5028   46.8164 H   0  0  0  0  0  0  0  0  0  0  0  0
   38.6921   32.2585   48.1743 H   0  0  0  0  0  0  0  0  0  0  0  0
   38.1951   30.4724   52.1013 H   0  0  0  0  0  0  0  0  0  0  0  0
   38.7105   31.3624   49.7884 H   0  0  0  0  0  0  0  0  0  0  0  0
   34.6798   28.6057   50.6247 H   0  0  0  0  0  0  0  0  0  0  0  0
   37.6020   31.8469   45.3077 H   0  0  0  0  0  0  0  0  0  0  0  0
   38.2785   33.4006   45.9910 H   0  0  0  0  0  0  0  0  0  0  0  0
   40.2615   29.9653   45.6173 H   0  0  0  0  0  0  0  0  0  0  0  0
   38.7333   30.2149   44.7598 H   0  0  0  0  0  0  0  0  0  0  0  0
   41.5983   30.8477   43.7877 H   0  0  0  0  0  0  0  0  0  0  0  0
   40.4200   29.9307   42.9209 H   0  0  0  0  0  0  0  0  0  0  0  0
   40.5577   32.5605   42.3437 H   0  0  0  0  0  0  0  0  0  0  0  0
   38.9396   32.0165   42.6417 H   0  0  0  0  0  0  0  0  0  0  0  0
   40.9325   33.3628   44.5495 H   0  0  0  0  0  0  0  0  0  0  0  0
   39.1996   33.7123   44.3734 H   0  0  0  0  0  0  0  0  0  0  0  0
  1  5  1  0
  2  1  2  0
  3  8  2  0
  4  3  1  0
  5  6  1  0
  5  4  2  0
  6  7  2  0
  7  8  1  0
  9  2  1  0
 10  9  1  0
 11 10  1  0
 12 11  1  0
 13 12  1  0
 13 14  1  0
 14 10  1  0
  1 15  1  0
  2 16  1  0
  3 17  1  0
  4 18  1  0
  7 19  1  0
  9 20  1  0
  9 21  1  0
 11 22  1  0
 11 23  1  0
 12 24  1  0
 12 25  1  0
 13 26  1  0
 13 27  1  0
 14 28  1  0
 14 29  1  0
M  ISO  8  17  14  18  14  19  14  20   8  21   8  22  13  23  13  24  13
M  ISO  5  25  13  26  13  27  13  28  13  29  13
M  END
>  <minimizedAffinity>  (1) 
-4.57113743

>  <minimizedRMSD>  (1) 
1.80441558

$$$$
