
     RDKit          3D

 21 21  0  0  0  0  0  0  0  0999 V2000
   38.1470   30.7780   47.7740 C   0  0  0  0  0  0  0  0  0  0  0  0
   37.4480   31.1920   46.7640 C   0  0  0  0  0  0  0  0  0  0  0  0
   37.3610   30.2110   51.3740 C   0  0  0  0  0  0  0  0  0  0  0  0
   38.0280   30.6930   50.2460 C   0  0  0  0  0  0  0  0  0  0  0  0
   37.5180   30.3230   48.9950 C   0  0  0  0  0  0  0  0  0  0  0  0
   36.4180   29.5280   48.9290 N   0  0  0  0  0  0  0  0  0  0  0  0
   35.8090   29.0880   50.0450 C   0  0  0  0  0  0  0  0  0  0  0  0
   36.2770   29.4270   51.2590 N   0  0  0  0  0  0  0  0  0  0  0  0
   38.1130   31.6610   45.5000 C   0  0  0  0  0  0  0  0  0  0  0  0
   40.1540   33.1360   45.4950 C   0  0  0  0  0  0  0  0  0  0  0  0
   40.8690   32.2320   44.9960 O   0  0  0  0  0  0  0  0  0  0  0  0
   38.7760   32.9170   45.7710 N   0  0  0  0  0  0  0  0  0  0  0  0
   39.2446   30.7724   47.7011 H   0  0  0  0  0  0  0  0  0  0  0  0
   36.3502   31.2003   46.8329 H   0  0  0  0  0  0  0  0  0  0  0  0
   37.7303   30.4784   52.3751 H   0  0  0  0  0  0  0  0  0  0  0  0
   38.9161   31.3358   50.3359 H   0  0  0  0  0  0  0  0  0  0  0  0
   34.9202   28.4451   49.9635 H   0  0  0  0  0  0  0  0  0  0  0  0
   37.3573   31.8022   44.7132 H   0  0  0  0  0  0  0  0  0  0  0  0
   38.8446   30.9138   45.1586 H   0  0  0  0  0  0  0  0  0  0  0  0
   40.6015   34.1147   45.7227 H   0  0  0  0  0  0  0  0  0  0  0  0
   38.2271   33.6859   46.1814 H   0  0  0  0  0  0  0  0  0  0  0  0
  1  5  1  0
  2  1  2  0
  4  3  2  0
  5  4  1  0
  6  5  2  0
  6  7  1  0
  7  8  2  0
  8  3  1  0
  9 12  1  0
  9  2  1  0
 10 12  1  0
 11 10  2  0
  1 13  1  0
  2 14  1  0
  3 15  1  0
  4 16  1  0
  7 17  1  0
  9 18  1  0
  9 19  1  0
 10 20  1  0
 12 21  1  0
M  ISO  6  15  14  16  14  17  14  18   8  19   8  20   6
M  END
>  <minimizedAffinity>  (1) 
-4.54926777

>  <minimizedRMSD>  (1) 
1.55832005

$$$$
