
     RDKit          3D

 30 30  0  0  0  0  0  0  0  0999 V2000
   37.3483   30.2134   51.3971 C   0  0  0  0  0  0  0  0  0  0  0  0
   37.9848   30.7152   50.2603 C   0  0  0  0  0  0  0  0  0  0  0  0
   37.5112   30.3689   49.0074 C   0  0  0  0  0  0  0  0  0  0  0  0
   36.4334   29.5458   48.8937 N   0  0  0  0  0  0  0  0  0  0  0  0
   35.8540   29.0862   50.0351 C   0  0  0  0  0  0  0  0  0  0  0  0
   36.2977   29.4099   51.2711 N   0  0  0  0  0  0  0  0  0  0  0  0
   38.1554   30.8673   47.8218 C   0  0  0  0  0  0  0  0  0  0  0  0
   38.7693   32.0075   47.7870 C   0  0  0  0  0  0  0  0  0  0  0  0
   39.4462   32.4858   46.5460 C   0  0  0  0  0  0  0  0  0  0  0  0
   38.2986   32.3100   45.1524 S   0  0  0  0  0  0  0  0  0  0  0  0
   37.7791   30.5363   52.3312 H   0  0  0  0  0  0  0  0  0  0  0  0
   38.8552   31.3838   50.3250 H   0  0  0  0  0  0  0  0  0  0  0  0
   34.9829   28.4087   50.0208 H   0  0  0  0  0  0  0  0  0  0  0  0
   38.1394   30.2788   46.9111 H   0  0  0  0  0  0  0  0  0  0  0  0
   38.8362   32.6711   48.6694 H   0  0  0  0  0  0  0  0  0  0  0  0
   39.7789   33.5199   46.5884 H   0  0  0  0  0  0  0  0  0  0  0  0
   40.3129   31.7745   46.4328 H   0  0  0  0  0  0  0  0  0  0  0  0
   39.1371   31.7065   43.6682 C   0  0  0  0  0  0  0  0  0  0  0  0
   40.1329   30.6976   43.9892 N   0  0  0  0  0  4  0  0  0  0  0  0
   41.3426   31.3181   44.5006 C   0  0  0  0  0  0  0  0  0  0  0  0
   41.9928   30.4975   44.9092 H   0  0  0  0  0  0  0  0  0  0  0  0
   40.4519   29.8737   42.8392 C   0  0  0  0  0  0  0  0  0  0  0  0
   41.4908   29.4534   42.9531 H   0  0  0  0  0  0  0  0  0  0  0  0
   38.4098   31.2851   42.9581 H   0  0  0  0  0  0  0  0  0  0  0  0
   39.6908   32.5956   43.2465 H   0  0  0  0  0  0  0  0  0  0  0  0
   39.8094   30.0525   44.7423 H   0  0  0  0  0  0  0  0  0  0  0  0
   41.0449   31.9712   45.3224 H   0  0  0  0  0  0  0  0  0  0  0  0
   41.9084   31.8627   43.7183 H   0  0  0  0  0  0  0  0  0  0  0  0
   39.8060   28.9570   42.7905 H   0  0  0  0  0  0  0  0  0  0  0  0
   40.3337   30.4007   41.8703 H   0  0  0  0  0  0  0  0  0  0  0  0
  2  1  2  0
  3  2  1  0
  4  3  2  0
  4  5  1  0
  5  6  2  0
  6  1  1  0
  7  3  1  0
  8  7  2  0
  9  8  1  0
 10  9  1  0
  1 11  1  0
  2 12  1  0
  5 13  1  0
  7 14  1  0
  8 15  1  0
  9 16  1  0
  9 17  1  0
 18 19  1  0
 19 20  1  0
 20 21  1  0
 19 22  1  0
 22 23  1  0
 18 24  1  0
 18 25  1  0
 19 26  1  0
 20 27  1  0
 20 28  1  0
 22 29  1  0
 22 30  1  0
 10 18  1  0
M  CHG  1  19   1
M  END
>  <DihAtoms>  (1) 
8,9,17,18

>  <DihDeg>  (1) 
-66.05030647384574

$$$$
