
     RDKit          3D

 24 24  0  0  0  0  0  0  0  0999 V2000
   37.3590   30.2120   51.3880 C   0  0  0  0  0  0  0  0  0  0  0  0
   38.0010   30.7050   50.2470 C   0  0  0  0  0  0  0  0  0  0  0  0
   37.5300   30.3660   48.9800 C   0  0  0  0  0  0  0  0  0  0  0  0
   36.4410   29.5550   48.8950 N   0  0  0  0  0  0  0  0  0  0  0  0
   35.8590   29.1070   50.0110 C   0  0  0  0  0  0  0  0  0  0  0  0
   36.2930   29.4170   51.2400 N   0  0  0  0  0  0  0  0  0  0  0  0
   38.2030   30.8830   47.8240 C   0  0  0  0  0  0  0  0  0  0  0  0
   38.7860   32.0550   47.8130 C   0  0  0  0  0  0  0  0  0  0  0  0
   39.4740   32.5430   46.5840 C   0  0  0  0  0  0  0  0  0  0  0  0
   38.3700   32.3280   45.1580 S   0  0  0  0  0  0  0  0  0  0  0  0
   39.2190   32.7910   43.6360 C   0  0  0  0  0  0  0  0  0  0  0  0
   40.0210   31.6760   43.0250 C   0  0  0  0  0  0  0  0  0  0  0  0
   37.7250   30.4740   52.3917 H   0  0  0  0  0  0  0  0  0  0  0  0
   38.8782   31.3607   50.3500 H   0  0  0  0  0  0  0  0  0  0  0  0
   34.9806   28.4517   49.9162 H   0  0  0  0  0  0  0  0  0  0  0  0
   38.2304   30.2706   46.9106 H   0  0  0  0  0  0  0  0  0  0  0  0
   38.7681   32.6832   48.7158 H   0  0  0  0  0  0  0  0  0  0  0  0
   39.7227   33.6083   46.6997 H   0  0  0  0  0  0  0  0  0  0  0  0
   40.3992   31.9696   46.4254 H   0  0  0  0  0  0  0  0  0  0  0  0
   38.4655   33.1175   42.9042 H   0  0  0  0  0  0  0  0  0  0  0  0
   39.9283   33.5907   43.8955 H   0  0  0  0  0  0  0  0  0  0  0  0
   40.4628   31.0618   43.8235 H   0  0  0  0  0  0  0  0  0  0  0  0
   39.3644   31.0507   42.4022 H   0  0  0  0  0  0  0  0  0  0  0  0
   40.8227   32.0996   42.4022 H   0  0  0  0  0  0  0  0  0  0  0  0
  2  1  2  0
  3  2  1  0
  4  3  2  0
  4  5  1  0
  5  6  2  0
  6  1  1  0
  7  3  1  0
  8  7  2  0
  9  8  1  0
 10  9  1  0
 11 10  1  0
 12 11  1  0
  1 13  1  0
  2 14  1  0
  5 15  1  0
  7 16  1  0
  8 17  1  0
  9 18  1  0
  9 19  1  0
 11 20  1  0
 11 21  1  0
 12 22  1  0
 12 23  1  0
 12 24  1  0
M  ISO  8  13  14  14  14  15  14  18   8  19   8  20   8  21   8  22   8
M  ISO  2  23   8  24   8
M  END
>  <minimizedAffinity>  (1) 
-4.20698357

>  <minimizedRMSD>  (1) 
0.0680744946

$$$$
