
     RDKit          3D

 29 29  0  0  1  0  0  0  0  0999 V2000
   37.6870   30.9080   48.4670 C   0  0  2  0  0  0  0  0  0  0  0  0
   37.5750   31.0390   46.0850 C   0  0  0  0  0  0  0  0  0  0  0  0
   38.1570   30.4640   47.1140 C   0  0  0  0  0  0  0  0  0  0  0  0
   39.3950   29.4960   43.2190 C   0  0  0  0  0  0  0  0  0  0  0  0
   38.9640   29.8240   44.4950 C   0  0  0  0  0  0  0  0  0  0  0  0
   37.9540   30.7340   44.7290 C   0  0  0  0  0  0  0  0  0  0  0  0
   37.3970   31.3000   43.6480 N   0  0  0  0  0  0  0  0  0  0  0  0
   37.8140   30.9860   42.4100 C   0  0  0  0  0  0  0  0  0  0  0  0
   38.7920   30.1040   42.1800 N   0  0  0  0  0  0  0  0  0  0  0  0
   38.6840   31.4450   49.3160 N   0  0  0  0  0  0  0  0  0  0  0  0
   38.7350   33.1630   49.2090 S   0  0  0  0  0  0  0  0  0  0  0  0
   37.3510   33.6880   49.5430 O   0  0  0  0  0  0  0  0  0  0  0  0
   39.7060   33.7220   50.2380 O   0  0  0  0  0  0  0  0  0  0  0  0
   39.2400   33.7160   47.7170 O   0  0  0  0  0  0  0  0  0  0  0  0
   36.6870   29.5920   49.2200 S   0  0  0  0  0  0  0  0  0  0  0  0
   36.7660   29.6780   51.0460 C   0  0  0  0  0  0  0  0  0  0  0  0
   37.0190   30.9550   51.4920 F   0  0  0  0  0  0  0  0  0  0  0  0
   35.5560   29.2110   51.5820 F   0  0  0  0  0  0  0  0  0  0  0  0
   37.7460   28.8040   51.4730 F   0  0  0  0  0  0  0  0  0  0  0  0
   37.0456   31.7882   48.3130 H   0  0  0  0  0  0  0  0  0  0  0  0
   36.7762   31.7737   46.2644 H   0  0  0  0  0  0  0  0  0  0  0  0
   38.9415   29.7030   46.9900 H   0  0  0  0  0  0  0  0  0  0  0  0
   40.2013   28.7647   43.0609 H   0  0  0  0  0  0  0  0  0  0  0  0
   39.4470   29.3389   45.3560 H   0  0  0  0  0  0  0  0  0  0  0  0
   37.3311   31.4745   41.5508 H   0  0  0  0  0  0  0  0  0  0  0  0
   38.4781   31.1750   50.2884 H   0  0  0  0  0  0  0  0  0  0  0  0
   37.2421   33.7293   50.5261 H   0  0  0  0  0  0  0  0  0  0  0  0
   39.3695   33.5283   51.1487 H   0  0  0  0  0  0  0  0  0  0  0  0
   39.9024   34.4413   47.8408 H   0  0  0  0  0  0  0  0  0  0  0  0
  1 15  1  0
  1 10  1  0
  2  3  2  0
  3  1  1  0
  4  5  2  0
  5  6  1  0
  6  2  1  0
  7  6  2  0
  8  7  1  0
  9  8  2  0
  9  4  1  0
 11 10  1  0
 11 12  1  0
 11 13  1  0
 14 11  1  0
 15 16  1  0
 16 19  1  0
 16 17  1  0
 16 18  1  0
  1 20  1  6
  2 21  1  0
  3 22  1  0
  4 23  1  0
  5 24  1  0
  8 25  1  0
 10 26  1  0
 12 27  1  0
 13 28  1  0
 14 29  1  0
M  ISO  8  20   8  23  14  24  14  25  14  26   5  27   3  28   3  29   3
M  END
>  <minimizedAffinity>  (1) 
-5.08253384

>  <minimizedRMSD>  (1) 
2.59694767

$$$$
