
     RDKit          3D

 25 25  0  0  1  0  0  0  0  0999 V2000
   36.4200   31.2000   49.4380 C   0  0  1  0  0  0  0  0  0  0  0  0
   37.4720   29.7310   51.2810 C   0  0  0  0  0  0  0  0  0  0  0  0
   37.7230   28.8360   50.4370 O   0  0  0  0  0  0  0  0  0  0  0  0
   36.8180   30.9230   50.7990 N   0  0  0  0  0  0  0  0  0  0  0  0
   37.8970   31.0920   47.5520 C   0  0  0  0  0  0  0  0  0  0  0  0
   37.5530   31.7410   48.6230 C   0  0  0  0  0  0  0  0  0  0  0  0
   40.3750   33.2890   45.8720 C   0  0  0  0  0  0  0  0  0  0  0  0
   39.3390   32.8450   46.6930 C   0  0  0  0  0  0  0  0  0  0  0  0
   38.9650   31.5050   46.6910 C   0  0  0  0  0  0  0  0  0  0  0  0
   39.6410   30.6800   45.8740 N   0  0  0  0  0  0  0  0  0  0  0  0
   40.6350   31.1210   45.0900 C   0  0  0  0  0  0  0  0  0  0  0  0
   41.0060   32.4160   45.0830 N   0  0  0  0  0  0  0  0  0  0  0  0
   35.7800   29.7330   48.5890 S   0  0  0  0  0  0  0  0  0  0  0  0
   34.2980   29.0990   49.4370 C   0  0  0  0  0  0  0  0  0  0  0  0
   33.8640   29.9430   50.4260 F   0  0  0  0  0  0  0  0  0  0  0  0
   33.2890   28.8520   48.4940 F   0  0  0  0  0  0  0  0  0  0  0  0
   34.6040   27.8600   49.9810 F   0  0  0  0  0  0  0  0  0  0  0  0
   35.6218   31.9522   49.5215 H   0  0  0  0  0  0  0  0  0  0  0  0
   37.7391   29.6114   52.3414 H   0  0  0  0  0  0  0  0  0  0  0  0
   36.6136   31.6520   51.4973 H   0  0  0  0  0  0  0  0  0  0  0  0
   37.3404   30.1793   47.2929 H   0  0  0  0  0  0  0  0  0  0  0  0
   38.0781   32.6601   48.9221 H   0  0  0  0  0  0  0  0  0  0  0  0
   40.6697   34.3488   45.8743 H   0  0  0  0  0  0  0  0  0  0  0  0
   38.8145   33.5582   47.3459 H   0  0  0  0  0  0  0  0  0  0  0  0
   41.1601   30.4085   44.4369 H   0  0  0  0  0  0  0  0  0  0  0  0
  1  4  1  0
  3  2  2  0
  4  2  1  0
  5  6  2  0
  6  1  1  0
  7  8  2  0
  9  8  1  0
  9  5  1  0
 10  9  2  0
 11 10  1  0
 12 11  2  0
 12  7  1  0
 13 14  1  0
 13  1  1  0
 14 17  1  0
 14 15  1  0
 16 14  1  0
  1 18  1  1
  2 19  1  0
  4 20  1  0
  5 21  1  0
  6 22  1  0
  7 23  1  0
  8 24  1  0
 11 25  1  0
M  ISO  5  18   8  19   6  23  14  24  14  25  14
M  END
>  <minimizedAffinity>  (1) 
-4.88480806

>  <minimizedRMSD>  (1) 
2.22166085

$$$$
