
     RDKit          3D

 30 31  0  0  1  0  0  0  0  0999 V2000
   37.7250   30.6890   48.6190 C   0  0  2  0  0  0  0  0  0  0  0  0
   38.5060   31.9090   48.3170 C   0  0  0  0  0  0  0  0  0  0  0  0
   38.5820   32.8130   49.3950 C   0  0  0  0  0  0  0  0  0  0  0  0
   39.2710   34.0060   49.3630 C   0  0  0  0  0  0  0  0  0  0  0  0
   39.9600   34.3890   48.2100 C   0  0  0  0  0  0  0  0  0  0  0  0
   39.8390   33.4560   47.2050 C   0  0  0  0  0  0  0  0  0  0  0  0
   39.1720   32.2920   47.2150 N   0  0  0  0  0  0  0  0  0  0  0  0
   35.5720   29.9670   47.8890 C   0  0  0  0  0  0  0  0  0  0  0  0
   36.7320   30.4520   47.5370 C   0  0  0  0  0  0  0  0  0  0  0  0
   33.7610   29.7950   44.6250 C   0  0  0  0  0  0  0  0  0  0  0  0
   34.7360   29.9840   45.5920 C   0  0  0  0  0  0  0  0  0  0  0  0
   34.5180   29.7180   46.9300 C   0  0  0  0  0  0  0  0  0  0  0  0
   33.2950   29.2570   47.2610 N   0  0  0  0  0  0  0  0  0  0  0  0
   32.3510   29.0700   46.3330 C   0  0  0  0  0  0  0  0  0  0  0  0
   32.5680   29.3330   45.0250 N   0  0  0  0  0  0  0  0  0  0  0  0
   36.7990   31.0950   50.1580 S   0  0  0  0  0  0  0  0  0  0  0  0
   36.8710   29.7230   51.3120 C   0  0  0  0  0  0  0  0  0  0  0  0
   37.5740   30.0100   52.4670 F   0  0  0  0  0  0  0  0  0  0  0  0
   35.6160   29.2240   51.5940 F   0  0  0  0  0  0  0  0  0  0  0  0
   37.5580   28.6780   50.6510 F   0  0  0  0  0  0  0  0  0  0  0  0
   38.3685   29.8020   48.7148 H   0  0  0  0  0  0  0  0  0  0  0  0
   38.0562   32.5488   50.3244 H   0  0  0  0  0  0  0  0  0  0  0  0
   39.2784   34.6588   50.2484 H   0  0  0  0  0  0  0  0  0  0  0  0
   40.5311   35.3244   48.1162 H   0  0  0  0  0  0  0  0  0  0  0  0
   40.3597   33.6976   46.2667 H   0  0  0  0  0  0  0  0  0  0  0  0
   35.3902   29.7402   48.9499 H   0  0  0  0  0  0  0  0  0  0  0  0
   36.9650   30.6758   46.4855 H   0  0  0  0  0  0  0  0  0  0  0  0
   33.9595   30.0165   43.5660 H   0  0  0  0  0  0  0  0  0  0  0  0
   35.7219   30.3605   45.2819 H   0  0  0  0  0  0  0  0  0  0  0  0
   31.3665   28.6901   46.6437 H   0  0  0  0  0  0  0  0  0  0  0  0
  1 16  1  0
  2  1  1  0
  2  3  2  0
  4  3  1  0
  5  4  2  0
  6  7  2  0
  6  5  1  0
  7  2  1  0
  9  8  2  0
  9  1  1  0
 10 15  2  0
 10 11  1  0
 11 12  2  0
 12 13  1  0
 12  8  1  0
 14 13  2  0
 15 14  1  0
 16 17  1  0
 17 19  1  0
 17 18  1  0
 20 17  1  0
  1 21  1  1
  3 22  1  0
  4 23  1  0
  5 24  1  0
  6 25  1  0
  8 26  1  0
  9 27  1  0
 10 28  1  0
 11 29  1  0
 14 30  1  0
M  ISO  8  21   8  22  14  23  14  24  14  25  14  28  14  29  14  30  14
M  END
>  <minimizedAffinity>  (1) 
-5.85866213

>  <minimizedRMSD>  (1) 
4.66585016

$$$$
