
     RDKit          3D

 44 46  0  0  1  0  0  0  0  0999 V2000
   35.5850   29.7020   48.1550 C   0  0  0  0  0  0  0  0  0  0  0  0
   36.5810   30.4310   47.7720 C   0  0  0  0  0  0  0  0  0  0  0  0
   33.3160   29.8240   45.2020 C   0  0  0  0  0  0  0  0  0  0  0  0
   34.3870   30.0150   46.0610 C   0  0  0  0  0  0  0  0  0  0  0  0
   34.4480   29.4500   47.3070 C   0  0  0  0  0  0  0  0  0  0  0  0
   33.3930   28.6730   47.6800 N   0  0  0  0  0  0  0  0  0  0  0  0
   32.3670   28.4930   46.8500 C   0  0  0  0  0  0  0  0  0  0  0  0
   32.3050   29.0460   45.6290 N   0  0  0  0  0  0  0  0  0  0  0  0
   31.2450   27.6320   47.3170 C   0  0  0  0  0  0  0  0  0  0  0  0
   29.9100   28.0850   46.8090 C   0  0  0  0  0  0  0  0  0  0  0  0
   29.1680   28.7490   47.9460 C   0  0  0  0  0  0  0  0  0  0  0  0
   28.9040   27.8800   49.0020 O   0  0  0  0  0  0  0  0  0  0  0  0
   29.9860   27.1010   49.3490 C   0  0  0  0  0  0  0  0  0  0  0  0
   31.2860   27.6890   48.8490 C   0  0  0  0  0  0  0  0  0  0  0  0
   37.7080   30.6400   48.7450 C   0  0  1  0  0  0  0  0  0  0  0  0
   38.4930   31.8170   48.3340 C   0  0  0  0  0  0  0  0  0  0  0  0
   38.6030   32.8040   49.3490 C   0  0  0  0  0  0  0  0  0  0  0  0
   39.2850   33.9840   49.1970 C   0  0  0  0  0  0  0  0  0  0  0  0
   39.9320   34.2860   47.9850 C   0  0  0  0  0  0  0  0  0  0  0  0
   39.7760   33.2710   47.0470 C   0  0  0  0  0  0  0  0  0  0  0  0
   39.1150   32.1130   47.1730 N   0  0  0  0  0  0  0  0  0  0  0  0
   36.9460   31.0800   50.3450 S   0  0  0  0  0  0  0  0  0  0  0  0
   36.9420   29.6850   51.4580 C   0  0  0  0  0  0  0  0  0  0  0  0
   37.6130   29.9310   52.6450 F   0  0  0  0  0  0  0  0  0  0  0  0
   35.6580   29.2200   51.6800 F   0  0  0  0  0  0  0  0  0  0  0  0
   37.6210   28.6450   50.7870 F   0  0  0  0  0  0  0  0  0  0  0  0
   35.6061   29.2593   49.1618 H   0  0  0  0  0  0  0  0  0  0  0  0
   36.6034   30.8828   46.7693 H   0  0  0  0  0  0  0  0  0  0  0  0
   33.2936   30.2919   44.2067 H   0  0  0  0  0  0  0  0  0  0  0  0
   35.2233   30.6471   45.7278 H   0  0  0  0  0  0  0  0  0  0  0  0
   31.3685   26.6094   46.9309 H   0  0  0  0  0  0  0  0  0  0  0  0
   30.0491   28.8024   45.9868 H   0  0  0  0  0  0  0  0  0  0  0  0
   29.3361   27.2247   46.4341 H   0  0  0  0  0  0  0  0  0  0  0  0
   29.7772   29.5839   48.3225 H   0  0  0  0  0  0  0  0  0  0  0  0
   28.2003   29.0932   47.5521 H   0  0  0  0  0  0  0  0  0  0  0  0
   30.0300   27.0210   50.4452 H   0  0  0  0  0  0  0  0  0  0  0  0
   29.8576   26.1121   48.8847 H   0  0  0  0  0  0  0  0  0  0  0  0
   32.1360   27.1014   49.2261 H   0  0  0  0  0  0  0  0  0  0  0  0
   31.4088   28.7243   49.1998 H   0  0  0  0  0  0  0  0  0  0  0  0
   38.3405   29.7414   48.7948 H   0  0  0  0  0  0  0  0  0  0  0  0
   38.1121   32.6106   50.3142 H   0  0  0  0  0  0  0  0  0  0  0  0
   39.3265   34.7008   50.0303 H   0  0  0  0  0  0  0  0  0  0  0  0
   40.4939   35.2136   47.8012 H   0  0  0  0  0  0  0  0  0  0  0  0
   40.2591   33.4418   46.0736 H   0  0  0  0  0  0  0  0  0  0  0  0
  2  1  2  0
  2 15  1  0
  3  8  2  0
  3  4  1  0
  4  5  2  0
  5  6  1  0
  5  1  1  0
  7  9  1  0
  7  6  2  0
  8  7  1  0
  9 14  1  0
 10  9  1  0
 10 11  1  0
 11 12  1  0
 12 13  1  0
 14 13  1  0
 15 22  1  0
 16 15  1  0
 16 17  2  0
 18 17  1  0
 19 18  2  0
 20 21  2  0
 20 19  1  0
 21 16  1  0
 22 23  1  0
 23 25  1  0
 23 24  1  0
 26 23  1  0
  1 27  1  0
  2 28  1  0
  3 29  1  0
  4 30  1  0
  9 31  1  0
 10 32  1  0
 10 33  1  0
 11 34  1  0
 11 35  1  0
 13 36  1  0
 13 37  1  0
 14 38  1  0
 14 39  1  0
 15 40  1  1
 17 41  1  0
 18 42  1  0
 19 43  1  0
 20 44  1  0
M  ISO  8  29  14  30  14  31  13  32  13  33  13  34  13  35  13  36  13
M  ISO  8  37  13  38  13  39  13  40   8  41  14  42  14  43  14  44  14
M  END
>  <minimizedAffinity>  (1) 
-6.70947552

>  <minimizedRMSD>  (1) 
0.901595891

$$$$
