
     RDKit          3D

 41 43  0  0  1  0  0  0  0  0999 V2000
   35.5960   29.7960   48.1070 C   0  0  0  0  0  0  0  0  0  0  0  0
   36.6360   30.4610   47.7160 C   0  0  0  0  0  0  0  0  0  0  0  0
   33.4720   29.7300   45.0460 C   0  0  0  0  0  0  0  0  0  0  0  0
   34.5120   29.9510   45.9320 C   0  0  0  0  0  0  0  0  0  0  0  0
   34.4820   29.5340   47.2370 C   0  0  0  0  0  0  0  0  0  0  0  0
   33.3660   28.8870   47.6240 N   0  0  0  0  0  0  0  0  0  0  0  0
   32.3470   28.6590   46.7970 C   0  0  0  0  0  0  0  0  0  0  0  0
   32.3870   29.0730   45.5130 N   0  0  0  0  0  0  0  0  0  0  0  0
   31.1570   27.9490   47.2740 C   0  0  1  0  0  0  0  0  0  0  0  0
   31.1630   27.6200   48.7450 C   0  0  0  0  0  0  0  0  0  0  0  0
   29.6560   27.4450   48.9680 C   0  0  0  0  0  0  0  0  0  0  0  0
   29.0280   28.3740   48.1530 O   0  0  0  0  0  0  0  0  0  0  0  0
   29.8890   28.7500   47.1540 C   0  0  0  0  0  0  0  0  0  0  0  0
   37.7380   30.6800   48.7110 C   0  0  1  0  0  0  0  0  0  0  0  0
   38.5270   31.8580   48.3180 C   0  0  0  0  0  0  0  0  0  0  0  0
   38.6250   32.8330   49.3460 C   0  0  0  0  0  0  0  0  0  0  0  0
   39.3090   34.0190   49.2110 C   0  0  0  0  0  0  0  0  0  0  0  0
   39.9650   34.3280   48.0080 C   0  0  0  0  0  0  0  0  0  0  0  0
   39.8200   33.3250   47.0580 C   0  0  0  0  0  0  0  0  0  0  0  0
   39.1600   32.1650   47.1660 N   0  0  0  0  0  0  0  0  0  0  0  0
   36.9480   31.1050   50.3010 S   0  0  0  0  0  0  0  0  0  0  0  0
   36.9520   29.7100   51.4120 C   0  0  0  0  0  0  0  0  0  0  0  0
   37.6230   29.9570   52.6000 F   0  0  0  0  0  0  0  0  0  0  0  0
   35.6770   29.2330   51.6370 F   0  0  0  0  0  0  0  0  0  0  0  0
   37.6350   28.6720   50.7440 F   0  0  0  0  0  0  0  0  0  0  0  0
   35.5639   29.4188   49.1398 H   0  0  0  0  0  0  0  0  0  0  0  0
   36.7092   30.8518   46.6904 H   0  0  0  0  0  0  0  0  0  0  0  0
   33.5263   30.0754   44.0030 H   0  0  0  0  0  0  0  0  0  0  0  0
   35.4034   30.4858   45.5722 H   0  0  0  0  0  0  0  0  0  0  0  0
   31.1870   27.0543   46.6347 H   0  0  0  0  0  0  0  0  0  0  0  0
   31.7198   26.6953   48.9569 H   0  0  0  0  0  0  0  0  0  0  0  0
   31.6496   28.3658   49.3908 H   0  0  0  0  0  0  0  0  0  0  0  0
   29.3466   26.4262   48.6918 H   0  0  0  0  0  0  0  0  0  0  0  0
   29.3894   27.5973   50.0243 H   0  0  0  0  0  0  0  0  0  0  0  0
   30.1191   29.8215   47.2491 H   0  0  0  0  0  0  0  0  0  0  0  0
   29.4245   28.5665   46.1739 H   0  0  0  0  0  0  0  0  0  0  0  0
   38.3743   29.7847   48.7707 H   0  0  0  0  0  0  0  0  0  0  0  0
   38.1257   32.6283   50.3045 H   0  0  0  0  0  0  0  0  0  0  0  0
   39.3424   34.7295   50.0501 H   0  0  0  0  0  0  0  0  0  0  0  0
   40.5286   35.2572   47.8378 H   0  0  0  0  0  0  0  0  0  0  0  0
   40.3114   33.5075   46.0909 H   0  0  0  0  0  0  0  0  0  0  0  0
  2  1  2  0
  2 14  1  0
  3  8  2  0
  3  4  1  0
  4  5  2  0
  5  6  1  0
  5  1  1  0
  7  6  2  0
  8  7  1  0
  9  7  1  0
  9 10  1  0
 10 11  1  0
 12 11  1  0
 13  9  1  0
 13 12  1  0
 14 21  1  0
 15 14  1  0
 15 16  2  0
 17 16  1  0
 18 17  2  0
 19 20  2  0
 19 18  1  0
 20 15  1  0
 21 22  1  0
 22 24  1  0
 22 23  1  0
 25 22  1  0
  1 26  1  0
  2 27  1  0
  3 28  1  0
  4 29  1  0
  9 30  1  6
 10 31  1  0
 10 32  1  0
 11 33  1  0
 11 34  1  0
 13 35  1  0
 13 36  1  0
 14 37  1  1
 16 38  1  0
 17 39  1  0
 18 40  1  0
 19 41  1  0
M  ISO  8  28  14  29  14  30  13  31  13  32  13  33  13  34  13  35  13
M  ISO  6  36  13  37   8  38  14  39  14  40  14  41  14
M  END
>  <minimizedAffinity>  (1) 
-6.56528425

>  <minimizedRMSD>  (1) 
0.897176027

$$$$
