
     RDKit          3D

 37 39  0  0  1  0  0  0  0  0999 V2000
   35.6420   29.7770   48.1370 C   0  0  0  0  0  0  0  0  0  0  0  0
   36.6580   30.4750   47.7420 C   0  0  0  0  0  0  0  0  0  0  0  0
   33.4850   29.6460   45.1040 C   0  0  0  0  0  0  0  0  0  0  0  0
   34.5530   29.8800   45.9630 C   0  0  0  0  0  0  0  0  0  0  0  0
   34.5110   29.5080   47.2850 C   0  0  0  0  0  0  0  0  0  0  0  0
   33.3880   28.9070   47.7100 N   0  0  0  0  0  0  0  0  0  0  0  0
   32.3560   28.6770   46.8910 C   0  0  0  0  0  0  0  0  0  0  0  0
   32.4030   29.0440   45.5910 N   0  0  0  0  0  0  0  0  0  0  0  0
   31.1600   28.0190   47.4090 C   0  0  0  0  0  0  0  0  0  0  0  0
   30.9920   27.5840   48.7290 C   0  0  0  0  0  0  0  0  0  0  0  0
   29.7160   27.0310   48.7400 C   0  0  0  0  0  0  0  0  0  0  0  0
   29.1820   27.1490   47.4670 C   0  0  0  0  0  0  0  0  0  0  0  0
   30.0750   27.7380   46.7220 O   0  0  0  0  0  0  0  0  0  0  0  0
   37.7790   30.6960   48.7160 C   0  0  1  0  0  0  0  0  0  0  0  0
   38.5600   31.8730   48.3080 C   0  0  0  0  0  0  0  0  0  0  0  0
   38.6550   32.8610   49.3240 C   0  0  0  0  0  0  0  0  0  0  0  0
   39.3340   34.0470   49.1700 C   0  0  0  0  0  0  0  0  0  0  0  0
   39.9850   34.3480   47.9620 C   0  0  0  0  0  0  0  0  0  0  0  0
   39.8420   33.3310   47.0240 C   0  0  0  0  0  0  0  0  0  0  0  0
   39.1890   32.1710   47.1490 N   0  0  0  0  0  0  0  0  0  0  0  0
   37.0190   31.1260   50.3200 S   0  0  0  0  0  0  0  0  0  0  0  0
   36.9910   29.7150   51.4130 C   0  0  0  0  0  0  0  0  0  0  0  0
   37.6580   29.9320   52.6060 F   0  0  0  0  0  0  0  0  0  0  0  0
   35.7050   29.2550   51.6200 F   0  0  0  0  0  0  0  0  0  0  0  0
   37.6580   28.6750   50.7360 F   0  0  0  0  0  0  0  0  0  0  0  0
   35.6417   29.3743   49.1606 H   0  0  0  0  0  0  0  0  0  0  0  0
   36.6988   30.8929   46.7253 H   0  0  0  0  0  0  0  0  0  0  0  0
   33.5334   29.9509   44.0482 H   0  0  0  0  0  0  0  0  0  0  0  0
   35.4547   30.3757   45.5742 H   0  0  0  0  0  0  0  0  0  0  0  0
   31.7041   27.6616   49.5638 H   0  0  0  0  0  0  0  0  0  0  0  0
   29.2169   26.5781   49.6093 H   0  0  0  0  0  0  0  0  0  0  0  0
   28.1872   26.8082   47.1442 H   0  0  0  0  0  0  0  0  0  0  0  0
   38.4156   29.8002   48.7643 H   0  0  0  0  0  0  0  0  0  0  0  0
   38.1585   32.6670   50.2862 H   0  0  0  0  0  0  0  0  0  0  0  0
   39.3677   34.7671   50.0009 H   0  0  0  0  0  0  0  0  0  0  0  0
   40.5423   35.2786   47.7794 H   0  0  0  0  0  0  0  0  0  0  0  0
   40.3295   33.5035   46.0531 H   0  0  0  0  0  0  0  0  0  0  0  0
  2  1  2  0
  2 14  1  0
  3  8  2  0
  3  4  1  0
  4  5  2  0
  5  6  1  0
  5  1  1  0
  7  9  1  0
  7  6  2  0
  8  7  1  0
  9 10  2  0
 10 11  1  0
 12 11  2  0
 13  9  1  0
 13 12  1  0
 14 21  1  0
 15 14  1  0
 15 16  2  0
 17 16  1  0
 18 17  2  0
 19 20  2  0
 19 18  1  0
 20 15  1  0
 21 22  1  0
 22 24  1  0
 22 23  1  0
 25 22  1  0
  1 26  1  0
  2 27  1  0
  3 28  1  0
  4 29  1  0
 10 30  1  0
 11 31  1  0
 12 32  1  0
 14 33  1  1
 16 34  1  0
 17 35  1  0
 18 36  1  0
 19 37  1  0
M  ISO  8  28  14  29  14  30  14  31  14  32  14  33   8  34  14  35  14
M  ISO  2  36  14  37  14
M  END
>  <minimizedAffinity>  (1) 
-6.47652435

>  <minimizedRMSD>  (1) 
0.624222457

$$$$
