
     RDKit          3D

 34 35  0  0  1  0  0  0  0  0999 V2000
   37.7670   30.7510   48.5950 C   0  0  2  0  0  0  0  0  0  0  0  0
   38.5540   31.9630   48.3210 C   0  0  0  0  0  0  0  0  0  0  0  0
   38.6170   32.8460   49.4300 C   0  0  0  0  0  0  0  0  0  0  0  0
   39.2970   34.0420   49.4130 C   0  0  0  0  0  0  0  0  0  0  0  0
   39.9800   34.4550   48.2560 C   0  0  0  0  0  0  0  0  0  0  0  0
   39.8670   33.5350   47.2210 C   0  0  0  0  0  0  0  0  0  0  0  0
   39.2140   32.3710   47.2170 N   0  0  0  0  0  0  0  0  0  0  0  0
   35.5690   30.2430   47.7990 C   0  0  0  0  0  0  0  0  0  0  0  0
   36.7920   30.5190   47.4780 C   0  0  0  0  0  0  0  0  0  0  0  0
   33.9710   29.6430   44.4860 C   0  0  0  0  0  0  0  0  0  0  0  0
   34.9050   29.8680   45.4860 C   0  0  0  0  0  0  0  0  0  0  0  0
   34.5510   30.0040   46.8020 C   0  0  0  0  0  0  0  0  0  0  0  0
   33.2420   29.9060   47.0760 N   0  0  0  0  0  0  0  0  0  0  0  0
   32.3270   29.6900   46.1380 C   0  0  0  0  0  0  0  0  0  0  0  0
   32.6830   29.5580   44.8430 N   0  0  0  0  0  0  0  0  0  0  0  0
   30.3970   28.4510   47.1270 C   0  0  0  0  0  0  0  0  0  0  0  0
   31.2000   27.5160   47.3630 O   0  0  0  0  0  0  0  0  0  0  0  0
   30.9500   29.5960   46.4900 N   0  0  0  0  0  0  0  0  0  0  0  0
   36.7920   31.1030   50.0970 S   0  0  0  0  0  0  0  0  0  0  0  0
   36.8610   29.7400   51.2450 C   0  0  0  0  0  0  0  0  0  0  0  0
   37.5950   30.0190   52.3860 F   0  0  0  0  0  0  0  0  0  0  0  0
   35.6050   29.2710   51.5560 F   0  0  0  0  0  0  0  0  0  0  0  0
   37.5130   28.6860   50.5700 F   0  0  0  0  0  0  0  0  0  0  0  0
   38.4251   29.8764   48.7041 H   0  0  0  0  0  0  0  0  0  0  0  0
   38.0936   32.5586   50.3538 H   0  0  0  0  0  0  0  0  0  0  0  0
   39.3062   34.6786   50.3100 H   0  0  0  0  0  0  0  0  0  0  0  0
   40.5399   35.3987   48.1788 H   0  0  0  0  0  0  0  0  0  0  0  0
   40.3814   33.7998   46.2854 H   0  0  0  0  0  0  0  0  0  0  0  0
   35.2963   30.1887   48.8633 H   0  0  0  0  0  0  0  0  0  0  0  0
   37.1052   30.5812   46.4254 H   0  0  0  0  0  0  0  0  0  0  0  0
   34.2777   29.5379   43.4349 H   0  0  0  0  0  0  0  0  0  0  0  0
   35.9680   29.9398   45.2125 H   0  0  0  0  0  0  0  0  0  0  0  0
   29.3322   28.3889   47.3959 H   0  0  0  0  0  0  0  0  0  0  0  0
   30.3296   30.3895   46.2745 H   0  0  0  0  0  0  0  0  0  0  0  0
  1 19  1  0
  2  1  1  0
  2  3  2  0
  4  3  1  0
  5  4  2  0
  6  5  1  0
  7  6  2  0
  7  2  1  0
  9  8  2  0
  9  1  1  0
 10 15  2  0
 10 11  1  0
 11 12  2  0
 12 13  1  0
 12  8  1  0
 14 18  1  0
 14 13  2  0
 15 14  1  0
 16 17  2  0
 18 16  1  0
 19 20  1  0
 20 22  1  0
 20 21  1  0
 23 20  1  0
  1 24  1  1
  3 25  1  0
  4 26  1  0
  5 27  1  0
  6 28  1  0
  8 29  1  0
  9 30  1  0
 10 31  1  0
 11 32  1  0
 16 33  1  0
 18 34  1  0
M  ISO  8  24   8  25  14  26  14  27  14  28  14  31  14  32  14  33   6
M  END
>  <minimizedAffinity>  (1) 
-6.45997953

>  <minimizedRMSD>  (1) 
0.522171676

$$$$
