
     RDKit          3D

 33 34  0  0  1  0  0  0  0  0999 V2000
   37.7210   30.5760   48.8200 C   0  0  2  0  0  0  0  0  0  0  0  0
   38.4870   31.7050   48.2640 C   0  0  0  0  0  0  0  0  0  0  0  0
   38.6320   32.7840   49.1780 C   0  0  0  0  0  0  0  0  0  0  0  0
   39.3070   33.9440   48.8830 C   0  0  0  0  0  0  0  0  0  0  0  0
   39.9060   34.1260   47.6240 C   0  0  0  0  0  0  0  0  0  0  0  0
   39.7170   33.0260   46.7950 C   0  0  0  0  0  0  0  0  0  0  0  0
   39.0640   31.8840   47.0560 N   0  0  0  0  0  0  0  0  0  0  0  0
   35.5900   29.5380   48.4740 C   0  0  0  0  0  0  0  0  0  0  0  0
   36.4410   30.4160   48.0490 C   0  0  0  0  0  0  0  0  0  0  0  0
   32.8340   29.8070   45.9810 C   0  0  0  0  0  0  0  0  0  0  0  0
   34.0320   29.9810   46.6540 C   0  0  0  0  0  0  0  0  0  0  0  0
   34.3290   29.3120   47.8130 C   0  0  0  0  0  0  0  0  0  0  0  0
   33.3900   28.4610   48.2830 N   0  0  0  0  0  0  0  0  0  0  0  0
   32.2280   28.2800   47.6450 C   0  0  0  0  0  0  0  0  0  0  0  0
   31.9430   28.9400   46.5070 N   0  0  0  0  0  0  0  0  0  0  0  0
   31.2710   27.3180   48.2550 C   0  0  0  0  0  0  0  0  0  0  0  0
   30.0680   27.3530   47.5650 F   0  0  0  0  0  0  0  0  0  0  0  0
   30.9990   27.8330   49.5290 F   0  0  0  0  0  0  0  0  0  0  0  0
   31.7730   26.0350   48.3280 F   0  0  0  0  0  0  0  0  0  0  0  0
   37.2690   31.0630   50.5190 S   0  0  0  0  0  0  0  0  0  0  0  0
   37.1350   29.6380   51.5820 C   0  0  0  0  0  0  0  0  0  0  0  0
   37.7910   29.7950   52.7930 F   0  0  0  0  0  0  0  0  0  0  0  0
   35.8180   29.2540   51.7570 F   0  0  0  0  0  0  0  0  0  0  0  0
   37.7530   28.5730   50.8920 F   0  0  0  0  0  0  0  0  0  0  0  0
   38.3038   29.6440   48.7789 H   0  0  0  0  0  0  0  0  0  0  0  0
   38.1793   32.6850   50.1756 H   0  0  0  0  0  0  0  0  0  0  0  0
   39.3795   34.7388   49.6400 H   0  0  0  0  0  0  0  0  0  0  0  0
   40.4583   35.0308   47.3300 H   0  0  0  0  0  0  0  0  0  0  0  0
   40.1621   33.1025   45.7920 H   0  0  0  0  0  0  0  0  0  0  0  0
   35.8368   28.9458   49.3675 H   0  0  0  0  0  0  0  0  0  0  0  0
   36.2346   31.0233   47.1554 H   0  0  0  0  0  0  0  0  0  0  0  0
   32.6167   30.3550   45.0523 H   0  0  0  0  0  0  0  0  0  0  0  0
   34.7730   30.6824   46.2430 H   0  0  0  0  0  0  0  0  0  0  0  0
  1 20  1  0
  2  1  1  0
  2  3  2  0
  4  3  1  0
  5  4  2  0
  6  7  2  0
  6  5  1  0
  7  2  1  0
  9  8  2  0
  9  1  1  0
 10 15  2  0
 10 11  1  0
 11 12  2  0
 12 13  1  0
 12  8  1  0
 14 16  1  0
 14 13  2  0
 15 14  1  0
 16 19  1  0
 16 18  1  0
 17 16  1  0
 20 21  1  0
 21 23  1  0
 21 22  1  0
 24 21  1  0
  1 25  1  1
  3 26  1  0
  4 27  1  0
  5 28  1  0
  6 29  1  0
  8 30  1  0
  9 31  1  0
 10 32  1  0
 11 33  1  0
M  ISO  7  25   8  26  14  27  14  28  14  29  14  32  14  33  14
M  END
>  <minimizedAffinity>  (1) 
-6.29914045

>  <minimizedRMSD>  (1) 
1.14899302

$$$$
