
     RDKit          3D

 32 33  0  0  1  0  0  0  0  0999 V2000
   37.7780   30.7350   48.6060 C   0  0  2  0  0  0  0  0  0  0  0  0
   38.5600   31.9550   48.3290 C   0  0  0  0  0  0  0  0  0  0  0  0
   38.6230   32.8440   49.4350 C   0  0  0  0  0  0  0  0  0  0  0  0
   39.2940   34.0400   49.4050 C   0  0  0  0  0  0  0  0  0  0  0  0
   39.9710   34.4590   48.2520 C   0  0  0  0  0  0  0  0  0  0  0  0
   39.8600   33.5340   47.2200 C   0  0  0  0  0  0  0  0  0  0  0  0
   39.2130   32.3620   47.2190 N   0  0  0  0  0  0  0  0  0  0  0  0
   35.5880   30.1890   47.8090 C   0  0  0  0  0  0  0  0  0  0  0  0
   36.8000   30.5070   47.4880 C   0  0  0  0  0  0  0  0  0  0  0  0
   33.9640   29.6750   44.4890 C   0  0  0  0  0  0  0  0  0  0  0  0
   34.9080   29.8840   45.4880 C   0  0  0  0  0  0  0  0  0  0  0  0
   34.5630   29.9570   46.8170 C   0  0  0  0  0  0  0  0  0  0  0  0
   33.2610   29.8160   47.1000 N   0  0  0  0  0  0  0  0  0  0  0  0
   32.3420   29.6160   46.1630 C   0  0  0  0  0  0  0  0  0  0  0  0
   32.6930   29.5450   44.8530 N   0  0  0  0  0  0  0  0  0  0  0  0
   30.9950   29.4830   46.6120 N   0  0  0  0  0  0  0  0  0  0  0  0
   36.8020   31.0980   50.1050 S   0  0  0  0  0  0  0  0  0  0  0  0
   36.8670   29.7400   51.2580 C   0  0  0  0  0  0  0  0  0  0  0  0
   37.5880   30.0280   52.4040 F   0  0  0  0  0  0  0  0  0  0  0  0
   35.6050   29.2630   51.5560 F   0  0  0  0  0  0  0  0  0  0  0  0
   37.5320   28.6860   50.5870 F   0  0  0  0  0  0  0  0  0  0  0  0
   38.4346   29.8594   48.7166 H   0  0  0  0  0  0  0  0  0  0  0  0
   38.1070   32.5586   50.3636 H   0  0  0  0  0  0  0  0  0  0  0  0
   39.3007   34.6799   50.2997 H   0  0  0  0  0  0  0  0  0  0  0  0
   40.5242   35.4065   48.1728 H   0  0  0  0  0  0  0  0  0  0  0  0
   40.3701   33.7997   46.2824 H   0  0  0  0  0  0  0  0  0  0  0  0
   35.3286   30.0918   48.8735 H   0  0  0  0  0  0  0  0  0  0  0  0
   37.1036   30.6069   46.4355 H   0  0  0  0  0  0  0  0  0  0  0  0
   34.2600   29.6191   43.4311 H   0  0  0  0  0  0  0  0  0  0  0  0
   35.9655   29.9946   45.2060 H   0  0  0  0  0  0  0  0  0  0  0  0
   30.2383   29.3263   45.9311 H   0  0  0  0  0  0  0  0  0  0  0  0
   30.7789   29.5437   47.6172 H   0  0  0  0  0  0  0  0  0  0  0  0
  1 17  1  0
  2  1  1  0
  2  3  2  0
  4  3  1  0
  5  4  2  0
  6  5  1  0
  7  6  2  0
  7  2  1  0
  9  8  2  0
  9  1  1  0
 10 15  2  0
 10 11  1  0
 11 12  2  0
 12 13  1  0
 12  8  1  0
 14 16  1  0
 14 13  2  0
 15 14  1  0
 17 18  1  0
 18 20  1  0
 18 19  1  0
 21 18  1  0
  1 22  1  1
  3 23  1  0
  4 24  1  0
  5 25  1  0
  6 26  1  0
  8 27  1  0
  9 28  1  0
 10 29  1  0
 11 30  1  0
 16 31  1  0
 16 32  1  0
M  ISO  7  22   8  23  14  24  14  25  14  26  14  29  14  30  14
M  END
>  <minimizedAffinity>  (1) 
-6.17865419

>  <minimizedRMSD>  (1) 
0.316952139

$$$$
