
     RDKit          3D

 31 32  0  0  1  0  0  0  0  0999 V2000
   37.7230   30.6990   48.6350 C   0  0  2  0  0  0  0  0  0  0  0  0
   38.5270   31.8940   48.3220 C   0  0  0  0  0  0  0  0  0  0  0  0
   38.6020   32.8140   49.4010 C   0  0  0  0  0  0  0  0  0  0  0  0
   39.2970   33.9980   49.3430 C   0  0  0  0  0  0  0  0  0  0  0  0
   39.9870   34.3680   48.1790 C   0  0  0  0  0  0  0  0  0  0  0  0
   39.8620   33.4160   47.1740 C   0  0  0  0  0  0  0  0  0  0  0  0
   39.1930   32.2570   47.2050 N   0  0  0  0  0  0  0  0  0  0  0  0
   35.5600   29.9810   47.9010 C   0  0  0  0  0  0  0  0  0  0  0  0
   36.6950   30.4960   47.5560 C   0  0  0  0  0  0  0  0  0  0  0  0
   33.7270   29.8360   44.6580 C   0  0  0  0  0  0  0  0  0  0  0  0
   34.6960   30.0100   45.6220 C   0  0  0  0  0  0  0  0  0  0  0  0
   34.4940   29.7560   46.9540 C   0  0  0  0  0  0  0  0  0  0  0  0
   33.2690   29.3140   47.2950 N   0  0  0  0  0  0  0  0  0  0  0  0
   32.3150   29.1390   46.3790 C   0  0  0  0  0  0  0  0  0  0  0  0
   32.5250   29.3910   45.0740 N   0  0  0  0  0  0  0  0  0  0  0  0
   31.1110   28.6730   46.9360 O   0  0  0  0  0  0  0  0  0  0  0  0
   36.8170   31.0880   50.1700 S   0  0  0  0  0  0  0  0  0  0  0  0
   36.8860   29.7240   51.3180 C   0  0  0  0  0  0  0  0  0  0  0  0
   37.6010   30.0130   52.4700 F   0  0  0  0  0  0  0  0  0  0  0  0
   35.6200   29.2440   51.6060 F   0  0  0  0  0  0  0  0  0  0  0  0
   37.5580   28.6770   50.6470 F   0  0  0  0  0  0  0  0  0  0  0  0
   38.3600   29.8066   48.7237 H   0  0  0  0  0  0  0  0  0  0  0  0
   38.0751   32.5654   50.3340 H   0  0  0  0  0  0  0  0  0  0  0  0
   39.3125   34.6631   50.2190 H   0  0  0  0  0  0  0  0  0  0  0  0
   40.5594   35.3014   48.0740 H   0  0  0  0  0  0  0  0  0  0  0  0
   40.3800   33.6447   46.2309 H   0  0  0  0  0  0  0  0  0  0  0  0
   35.4012   29.7045   48.9538 H   0  0  0  0  0  0  0  0  0  0  0  0
   36.9009   30.7752   46.5121 H   0  0  0  0  0  0  0  0  0  0  0  0
   33.9255   30.0505   43.5975 H   0  0  0  0  0  0  0  0  0  0  0  0
   35.6853   30.3723   45.3057 H   0  0  0  0  0  0  0  0  0  0  0  0
   30.3283   28.5053   46.3534 H   0  0  0  0  0  0  0  0  0  0  0  0
  1 17  1  0
  2  1  1  0
  2  3  2  0
  4  3  1  0
  5  4  2  0
  6  7  2  0
  6  5  1  0
  7  2  1  0
  9  8  2  0
  9  1  1  0
 10 15  2  0
 10 11  1  0
 11 12  2  0
 12 13  1  0
 12  8  1  0
 14 16  1  0
 14 13  2  0
 15 14  1  0
 17 18  1  0
 18 20  1  0
 18 19  1  0
 21 18  1  0
  1 22  1  1
  3 23  1  0
  4 24  1  0
  5 25  1  0
  6 26  1  0
  8 27  1  0
  9 28  1  0
 10 29  1  0
 11 30  1  0
 16 31  1  0
M  ISO  8  22   8  23  14  24  14  25  14  26  14  29  14  30  14  31   3
M  END
>  <minimizedAffinity>  (1) 
-6.06452465

>  <minimizedRMSD>  (1) 
0.0503760576

$$$$
