
     RDKit          3D

 42 43  0  0  0  0  0  0  0  0999 V2000
   37.7252   30.6992   48.6323 C   0  0  2  0  0  0  0  0  0  0  0  0
   38.5166   31.9018   48.3252 C   0  0  0  0  0  0  0  0  0  0  0  0
   38.5716   32.8260   49.4035 C   0  0  0  0  0  0  0  0  0  0  0  0
   39.2492   34.0171   49.3590 C   0  0  0  0  0  0  0  0  0  0  0  0
   39.9494   34.3962   48.1996 C   0  0  0  0  0  0  0  0  0  0  0  0
   39.8462   33.4413   47.1946 C   0  0  0  0  0  0  0  0  0  0  0  0
   39.1906   32.2739   47.2176 N   0  0  0  0  0  0  0  0  0  0  0  0
   35.5751   29.9669   47.8851 C   0  0  0  0  0  0  0  0  0  0  0  0
   36.7125   30.4790   47.5441 C   0  0  0  0  0  0  0  0  0  0  0  0
   33.7710   29.7767   44.6252 C   0  0  0  0  0  0  0  0  0  0  0  0
   34.7405   29.9683   45.5946 C   0  0  0  0  0  0  0  0  0  0  0  0
   34.5167   29.7233   46.9269 C   0  0  0  0  0  0  0  0  0  0  0  0
   33.2852   29.2759   47.2701 N   0  0  0  0  0  0  0  0  0  0  0  0
   32.3537   29.0928   46.3313 C   0  0  0  0  0  0  0  0  0  0  0  0
   32.5708   29.3323   45.0288 N   0  0  0  0  0  0  0  0  0  0  0  0
   36.7988   31.0782   50.1602 S   0  0  0  0  0  0  0  0  0  0  0  0
   36.8751   29.7150   51.3086 C   0  0  0  0  0  0  0  0  0  0  0  0
   37.5746   30.0094   52.4657 F   0  0  0  0  0  0  0  0  0  0  0  0
   35.6201   29.2103   51.5851 F   0  0  0  0  0  0  0  0  0  0  0  0
   37.5628   28.6764   50.6408 F   0  0  0  0  0  0  0  0  0  0  0  0
   38.3492   29.7895   48.7591 H   0  0  0  0  0  0  0  0  0  0  0  0
   38.1128   32.7600   50.4079 H   0  0  0  0  0  0  0  0  0  0  0  0
   39.3273   34.7560   50.1402 H   0  0  0  0  0  0  0  0  0  0  0  0
   40.5216   35.2690   47.9887 H   0  0  0  0  0  0  0  0  0  0  0  0
   40.3379   33.5938   46.2313 H   0  0  0  0  0  0  0  0  0  0  0  0
   35.3591   29.7052   48.9130 H   0  0  0  0  0  0  0  0  0  0  0  0
   36.9896   30.7602   46.5436 H   0  0  0  0  0  0  0  0  0  0  0  0
   33.9017   29.9552   43.5737 H   0  0  0  0  0  0  0  0  0  0  0  0
   35.6598   30.3242   45.1538 H   0  0  0  0  0  0  0  0  0  0  0  0
   31.0097   28.6023   46.7258 C   0  0  0  0  0  0  0  0  0  0  0  0
   30.0112   29.6353   46.7022 N   0  0  0  0  0  4  0  0  0  0  0  0
   30.1053   30.5840   47.7790 C   0  0  0  0  0  0  0  0  0  0  0  0
   29.3366   30.4221   48.5724 H   0  0  0  0  0  0  0  0  0  0  0  0
   29.8954   30.2737   45.4054 C   0  0  0  0  0  0  0  0  0  0  0  0
   30.8255   30.7624   45.1162 H   0  0  0  0  0  0  0  0  0  0  0  0
   30.7006   27.8064   46.0329 H   0  0  0  0  0  0  0  0  0  0  0  0
   31.0112   28.1813   47.7481 H   0  0  0  0  0  0  0  0  0  0  0  0
   29.0894   29.1354   46.8383 H   0  0  0  0  0  0  0  0  0  0  0  0
   29.8942   31.6085   47.3575 H   0  0  0  0  0  0  0  0  0  0  0  0
   31.0901   30.6164   48.2650 H   0  0  0  0  0  0  0  0  0  0  0  0
   29.0680   31.0207   45.4926 H   0  0  0  0  0  0  0  0  0  0  0  0
   29.5694   29.4762   44.6993 H   0  0  0  0  0  0  0  0  0  0  0  0
  1 16  1  0
  2  1  1  0
  2  3  2  0
  4  3  1  0
  5  4  2  0
  6  7  2  0
  6  5  1  0
  7  2  1  0
  9  8  2  0
  9  1  1  0
 10 15  2  0
 10 11  1  0
 11 12  2  0
 12 13  1  0
 12  8  1  0
 14 13  2  0
 15 14  1  0
 16 17  1  0
 17 19  1  0
 17 18  1  0
 20 17  1  0
  1 21  1  1
  3 22  1  0
  4 23  1  0
  5 24  1  0
  6 25  1  0
  8 26  1  0
  9 27  1  0
 10 28  1  0
 11 29  1  0
 30 31  1  0
 31 32  1  0
 32 33  1  0
 31 34  1  0
 34 35  1  0
 30 36  1  0
 30 37  1  0
 31 38  1  0
 32 39  1  0
 32 40  1  0
 34 41  1  0
 34 42  1  0
 14 30  1  0
M  CHG  1  31   1
M  END
>  <DihAtoms>  (1) 
12,13,29,30

>  <DihDeg>  (1) 
89.99496531839594

$$$$
