
     RDKit          3D

 30 32  0  0  1  0  0  0  0  0999 V2000
   36.5240   29.9930   48.7700 N   0  0  0  0  0  0  0  0  0  0  0  0
   36.5000   29.0500   49.8690 C   0  0  0  0  0  0  0  0  0  0  0  0
   35.0370   28.6460   49.9050 C   0  0  0  0  0  0  0  0  0  0  0  0
   34.3380   29.3890   48.7770 C   0  0  1  0  0  0  0  0  0  0  0  0
   35.4810   29.6030   47.8250 C   0  0  0  0  0  0  0  0  0  0  0  0
   37.3890   31.1000   48.6130 C   0  0  0  0  0  0  0  0  0  0  0  0
   37.2970   32.1240   49.5560 C   0  0  0  0  0  0  0  0  0  0  0  0
   38.1420   33.2340   49.4270 C   0  0  0  0  0  0  0  0  0  0  0  0
   39.0160   33.2470   48.3730 N   0  0  0  0  0  0  0  0  0  0  0  0
   39.0740   32.2350   47.4810 C   0  0  0  0  0  0  0  0  0  0  0  0
   38.2610   31.1540   47.5960 N   0  0  0  0  0  0  0  0  0  0  0  0
   33.3880   28.4220   48.1540 C   0  0  0  0  0  0  0  0  0  0  0  0
   33.4900   27.9820   46.8450 C   0  0  0  0  0  0  0  0  0  0  0  0
   32.5550   27.0800   46.3620 C   0  0  0  0  0  0  0  0  0  0  0  0
   31.5520   26.6280   47.1480 N   0  0  0  0  0  0  0  0  0  0  0  0
   31.4860   27.0780   48.4160 C   0  0  0  0  0  0  0  0  0  0  0  0
   32.3850   27.9620   48.9240 N   0  0  0  0  0  0  0  0  0  0  0  0
   37.1489   28.1849   49.6678 H   0  0  0  0  0  0  0  0  0  0  0  0
   36.8694   29.4652   50.8183 H   0  0  0  0  0  0  0  0  0  0  0  0
   34.9420   27.5602   49.7569 H   0  0  0  0  0  0  0  0  0  0  0  0
   34.5862   28.8969   50.8765 H   0  0  0  0  0  0  0  0  0  0  0  0
   33.8004   30.3053   49.0621 H   0  0  0  0  0  0  0  0  0  0  0  0
   35.2657   30.4025   47.1009 H   0  0  0  0  0  0  0  0  0  0  0  0
   35.7272   28.7374   47.1925 H   0  0  0  0  0  0  0  0  0  0  0  0
   36.5756   32.0611   50.3840 H   0  0  0  0  0  0  0  0  0  0  0  0
   38.1047   34.0652   50.1465 H   0  0  0  0  0  0  0  0  0  0  0  0
   39.7910   32.2873   46.6484 H   0  0  0  0  0  0  0  0  0  0  0  0
   34.3022   28.3435   46.1972 H   0  0  0  0  0  0  0  0  0  0  0  0
   32.6301   26.7264   45.3231 H   0  0  0  0  0  0  0  0  0  0  0  0
   30.6743   26.7166   49.0645 H   0  0  0  0  0  0  0  0  0  0  0  0
  1  2  1  0
  2  3  1  0
  4  3  1  0
  5  1  1  0
  5  4  1  0
  6  1  1  0
  6  7  2  0
  8  7  1  0
  9  8  2  0
 10 11  2  0
 10  9  1  0
 11  6  1  0
 12  4  1  0
 12 17  1  0
 13 12  2  0
 14 13  1  0
 14 15  2  0
 15 16  1  0
 16 17  2  0
  2 18  1  0
  2 19  1  0
  3 20  1  0
  3 21  1  0
  4 22  1  1
  5 23  1  0
  5 24  1  0
  7 25  1  0
  8 26  1  0
 10 27  1  0
 13 28  1  0
 14 29  1  0
 16 30  1  0
M  ISO  8  18  13  19  13  20  13  21  13  22  13  23  13  24  13  25  14
M  ISO  5  26  14  27  14  28  14  29  14  30  14
M  END
>  <minimizedAffinity>  (1) 
-5.06108141

>  <minimizedRMSD>  (1) 
6.84277916

$$$$
