
     RDKit          3D

 28 30  0  0  1  0  0  0  0  0999 V2000
   32.9640   28.1080   48.2690 N   0  0  0  0  0  0  0  0  0  0  0  0
   33.6580   28.2370   47.0170 C   0  0  0  0  0  0  0  0  0  0  0  0
   34.6820   29.3390   47.3200 C   0  0  0  0  0  0  0  0  0  0  0  0
   34.4800   29.7000   48.7760 C   0  0  1  0  0  0  0  0  0  0  0  0
   33.9100   28.4250   49.3370 C   0  0  0  0  0  0  0  0  0  0  0  0
   31.5990   27.7400   48.4750 C   0  0  0  0  0  0  0  0  0  0  0  0
   30.9390   27.1310   47.4110 C   0  0  0  0  0  0  0  0  0  0  0  0
   29.5990   26.7540   47.5630 C   0  0  0  0  0  0  0  0  0  0  0  0
   29.0250   27.0170   48.7740 N   0  0  0  0  0  0  0  0  0  0  0  0
   29.6980   27.6120   49.7920 C   0  0  0  0  0  0  0  0  0  0  0  0
   30.9870   27.9770   49.6490 N   0  0  0  0  0  0  0  0  0  0  0  0
   35.8190   30.0420   49.3800 C   0  0  0  0  0  0  0  0  0  0  0  0
   36.5950   31.2560   49.1810 C   0  0  0  0  0  0  0  0  0  0  0  0
   38.0260   30.9110   50.2190 S   0  0  0  0  0  0  0  0  0  0  0  0
   37.4060   29.2500   50.7510 C   0  0  0  0  0  0  0  0  0  0  0  0
   36.2640   29.0710   50.1700 N   0  0  0  0  0  0  0  0  0  0  0  0
   32.9730   28.5408   46.2117 H   0  0  0  0  0  0  0  0  0  0  0  0
   34.1129   27.2983   46.6678 H   0  0  0  0  0  0  0  0  0  0  0  0
   35.7043   28.9677   47.1556 H   0  0  0  0  0  0  0  0  0  0  0  0
   34.5447   30.2110   46.6637 H   0  0  0  0  0  0  0  0  0  0  0  0
   33.8310   30.5675   48.9666 H   0  0  0  0  0  0  0  0  0  0  0  0
   33.4049   28.5879   50.3005 H   0  0  0  0  0  0  0  0  0  0  0  0
   34.6447   27.6392   49.5668 H   0  0  0  0  0  0  0  0  0  0  0  0
   31.4642   26.9481   46.4619 H   0  0  0  0  0  0  0  0  0  0  0  0
   29.0379   26.2711   46.7494 H   0  0  0  0  0  0  0  0  0  0  0  0
   29.1839   27.7986   50.7464 H   0  0  0  0  0  0  0  0  0  0  0  0
   36.3701   32.1402   48.5665 H   0  0  0  0  0  0  0  0  0  0  0  0
   37.9119   28.5490   51.4312 H   0  0  0  0  0  0  0  0  0  0  0  0
  1  6  1  0
  1  5  1  0
  2  3  1  0
  2  1  1  0
  3  4  1  0
  4  5  1  0
  4 12  1  0
  6 11  2  0
  7  8  2  0
  7  6  1  0
  8  9  1  0
  9 10  2  0
 11 10  1  0
 12 16  1  0
 13 12  2  0
 13 14  1  0
 14 15  1  0
 16 15  2  0
  2 17  1  0
  2 18  1  0
  3 19  1  0
  3 20  1  0
  4 21  1  6
  5 22  1  0
  5 23  1  0
  7 24  1  0
  8 25  1  0
 10 26  1  0
 13 27  1  0
 15 28  1  0
M  ISO  8  17  13  18  13  19  13  20  13  21  13  22  13  23  13  24  14
M  ISO  4  25  14  26  14  27  14  28  14
M  END
>  <minimizedAffinity>  (1) 
-4.43360901

>  <minimizedRMSD>  (1) 
4.33803558

$$$$
