
     RDKit          3D

 38 40  0  0  1  0  0  0  0  0999 V2000
   35.3390   29.3680   48.2440 N   0  0  0  0  0  0  0  0  0  0  0  0
   34.4440   28.2300   48.3090 C   0  0  0  0  0  0  0  0  0  0  0  0
   33.2500   28.6960   47.4990 C   0  0  0  0  0  0  0  0  0  0  0  0
   33.6160   30.0720   46.9590 C   0  0  1  0  0  0  0  0  0  0  0  0
   35.1120   30.0290   46.9630 C   0  0  0  0  0  0  0  0  0  0  0  0
   36.2680   29.7800   49.2270 C   0  0  0  0  0  0  0  0  0  0  0  0
   36.0560   29.3440   50.5330 C   0  0  0  0  0  0  0  0  0  0  0  0
   36.9500   29.7260   51.5410 C   0  0  0  0  0  0  0  0  0  0  0  0
   37.9970   30.5210   51.1650 N   0  0  0  0  0  0  0  0  0  0  0  0
   38.1750   30.9270   49.8960 C   0  0  0  0  0  0  0  0  0  0  0  0
   37.3010   30.5540   48.9090 N   0  0  0  0  0  0  0  0  0  0  0  0
   33.0660   30.1200   45.5260 C   0  0  0  0  0  0  0  0  0  0  0  0
   32.0290   31.1850   45.4790 C   0  0  0  0  0  0  0  0  0  0  0  0
   31.6640   31.4750   44.0260 C   0  0  0  0  0  0  0  0  0  0  0  0
   32.9070   32.0710   43.3960 C   0  0  0  0  0  0  0  0  0  0  0  0
   33.8820   30.9220   43.2710 C   0  0  0  0  0  0  0  0  0  0  0  0
   34.2170   30.2940   44.5840 C   0  0  0  0  0  0  0  0  0  0  0  0
   34.9041   27.3377   47.8594 H   0  0  0  0  0  0  0  0  0  0  0  0
   34.1855   27.9371   49.3373 H   0  0  0  0  0  0  0  0  0  0  0  0
   33.0563   27.9998   46.6697 H   0  0  0  0  0  0  0  0  0  0  0  0
   32.3385   28.7353   48.1136 H   0  0  0  0  0  0  0  0  0  0  0  0
   33.2297   30.9398   47.5136 H   0  0  0  0  0  0  0  0  0  0  0  0
   35.5064   29.4387   46.1227 H   0  0  0  0  0  0  0  0  0  0  0  0
   35.6055   31.0056   46.8499 H   0  0  0  0  0  0  0  0  0  0  0  0
   35.1930   28.7046   50.7707 H   0  0  0  0  0  0  0  0  0  0  0  0
   36.8165   29.4024   52.5838 H   0  0  0  0  0  0  0  0  0  0  0  0
   39.0339   31.5673   49.6466 H   0  0  0  0  0  0  0  0  0  0  0  0
   32.5681   29.1914   45.2101 H   0  0  0  0  0  0  0  0  0  0  0  0
   31.1334   30.8491   46.0221 H   0  0  0  0  0  0  0  0  0  0  0  0
   32.4207   32.0994   45.9484 H   0  0  0  0  0  0  0  0  0  0  0  0
   31.3815   30.5457   43.5097 H   0  0  0  0  0  0  0  0  0  0  0  0
   30.8067   32.1605   43.9542 H   0  0  0  0  0  0  0  0  0  0  0  0
   32.6744   32.4883   42.4052 H   0  0  0  0  0  0  0  0  0  0  0  0
   33.3182   32.8936   43.9996 H   0  0  0  0  0  0  0  0  0  0  0  0
   33.4381   30.1552   42.6190 H   0  0  0  0  0  0  0  0  0  0  0  0
   34.8153   31.3271   42.8529 H   0  0  0  0  0  0  0  0  0  0  0  0
   34.6459   29.3007   44.3853 H   0  0  0  0  0  0  0  0  0  0  0  0
   34.9133   30.9853   45.0813 H   0  0  0  0  0  0  0  0  0  0  0  0
  1  2  1  0
  1  6  1  0
  3  2  1  0
  4  5  1  0
  4  3  1  0
  5  1  1  0
  6  7  2  0
  7  8  1  0
  9  8  2  0
 10  9  1  0
 11  6  1  0
 11 10  2  0
 12  4  1  0
 13 12  1  0
 14 13  1  0
 15 14  1  0
 16 15  1  0
 16 17  1  0
 17 12  1  0
  2 18  1  0
  2 19  1  0
  3 20  1  0
  3 21  1  0
  4 22  1  1
  5 23  1  0
  5 24  1  0
  7 25  1  0
  8 26  1  0
 10 27  1  0
 12 28  1  0
 13 29  1  0
 13 30  1  0
 14 31  1  0
 14 32  1  0
 15 33  1  0
 15 34  1  0
 16 35  1  0
 16 36  1  0
 17 37  1  0
 17 38  1  0
M  ISO  8  18  13  19  13  20  13  21  13  22  13  23  13  24  13  25  14
M  ISO  8  26  14  27  14  28  13  29  13  30  13  31  13  32  13  33  13
M  ISO  5  34  13  35  13  36  13  37  13  38  13
M  END
>  <minimizedAffinity>  (1) 
-4.41637039

>  <minimizedRMSD>  (1) 
7.66223526

$$$$
