
     RDKit          3D

 28 29  0  0  1  0  0  0  0  0999 V2000
   35.2070   29.4560   48.2550 N   0  0  0  0  0  0  0  0  0  0  0  0
   35.9770   30.3080   47.3610 C   0  0  0  0  0  0  0  0  0  0  0  0
   36.8110   31.1220   48.3290 C   0  0  0  0  0  0  0  0  0  0  0  0
   36.4670   30.6310   49.7120 C   0  0  1  0  0  0  0  0  0  0  0  0
   36.0210   29.2160   49.4450 C   0  0  0  0  0  0  0  0  0  0  0  0
   33.9100   28.9420   48.0350 C   0  0  0  0  0  0  0  0  0  0  0  0
   33.2780   29.2830   46.8430 C   0  0  0  0  0  0  0  0  0  0  0  0
   31.9940   28.8120   46.5540 C   0  0  0  0  0  0  0  0  0  0  0  0
   31.4210   28.0140   47.5020 N   0  0  0  0  0  0  0  0  0  0  0  0
   32.0560   27.6980   48.6530 C   0  0  0  0  0  0  0  0  0  0  0  0
   33.3060   28.1620   48.9240 N   0  0  0  0  0  0  0  0  0  0  0  0
   37.6680   30.6220   50.6300 C   0  0  0  0  0  0  0  0  0  0  0  0
   37.4270   29.9260   51.9260 C   0  0  0  0  0  0  0  0  0  0  0  0
   36.6135   29.7107   46.6915 H   0  0  0  0  0  0  0  0  0  0  0  0
   35.3547   30.9210   46.6925 H   0  0  0  0  0  0  0  0  0  0  0  0
   37.8818   30.9705   48.1279 H   0  0  0  0  0  0  0  0  0  0  0  0
   36.6018   32.1970   48.2262 H   0  0  0  0  0  0  0  0  0  0  0  0
   35.7211   31.2662   50.2122 H   0  0  0  0  0  0  0  0  0  0  0  0
   35.4273   28.8066   50.2756 H   0  0  0  0  0  0  0  0  0  0  0  0
   36.8288   28.4789   49.3259 H   0  0  0  0  0  0  0  0  0  0  0  0
   33.7949   29.9308   46.1197 H   0  0  0  0  0  0  0  0  0  0  0  0
   31.4760   29.0691   45.6183 H   0  0  0  0  0  0  0  0  0  0  0  0
   31.5512   27.0518   49.3862 H   0  0  0  0  0  0  0  0  0  0  0  0
   38.4965   30.1158   50.1129 H   0  0  0  0  0  0  0  0  0  0  0  0
   37.8992   31.6710   50.8668 H   0  0  0  0  0  0  0  0  0  0  0  0
   37.6627   30.6068   52.7572 H   0  0  0  0  0  0  0  0  0  0  0  0
   36.3715   29.6227   51.9886 H   0  0  0  0  0  0  0  0  0  0  0  0
   38.0689   29.0349   51.9886 H   0  0  0  0  0  0  0  0  0  0  0  0
  1  5  1  0
  2  1  1  0
  2  3  1  0
  3  4  1  0
  4 12  1  0
  5  4  1  0
  6  1  1  0
  6 11  1  0
  7  6  2  0
  8  7  1  0
  8  9  2  0
  9 10  1  0
 10 11  2  0
 12 13  1  0
  2 14  1  0
  2 15  1  0
  3 16  1  0
  3 17  1  0
  4 18  1  1
  5 19  1  0
  5 20  1  0
  7 21  1  0
  8 22  1  0
 10 23  1  0
 12 24  1  0
 12 25  1  0
 13 26  1  0
 13 27  1  0
 13 28  1  0
M  ISO  8  14  13  15  13  16  13  17  13  18  13  19  13  20  13  21  14
M  ISO  7  22  14  23  14  24   8  25   8  26   8  27   8  28   8
M  END
>  <minimizedAffinity>  (1) 
-4.29978085

>  <minimizedRMSD>  (1) 
1.89742088

$$$$
