
     RDKit          3D

 24 25  0  0  1  0  0  0  0  0999 V2000
   37.4090   30.4490   48.6120 N   0  0  0  0  0  0  0  0  0  0  0  0
   38.1780   30.8750   47.4640 C   0  0  0  0  0  0  0  0  0  0  0  0
   38.8760   32.1220   47.9910 C   0  0  0  0  0  0  0  0  0  0  0  0
   38.5060   32.2440   49.4630 C   0  0  2  0  0  0  0  0  0  0  0  0
   38.1810   30.8120   49.8010 C   0  0  0  0  0  0  0  0  0  0  0  0
   36.1350   29.7970   48.5990 C   0  0  0  0  0  0  0  0  0  0  0  0
   35.2310   30.1780   47.6040 C   0  0  0  0  0  0  0  0  0  0  0  0
   33.9810   29.5280   47.6020 C   0  0  0  0  0  0  0  0  0  0  0  0
   33.7530   28.5810   48.5720 N   0  0  0  0  0  0  0  0  0  0  0  0
   34.6580   28.2540   49.5060 C   0  0  0  0  0  0  0  0  0  0  0  0
   35.8600   28.8690   49.5190 N   0  0  0  0  0  0  0  0  0  0  0  0
   37.3660   33.1080   49.6580 N   0  0  0  0  0  0  0  0  0  0  0  0
   37.5244   31.1135   46.6120 H   0  0  0  0  0  0  0  0  0  0  0  0
   38.8695   30.1078   47.0856 H   0  0  0  0  0  0  0  0  0  0  0  0
   39.9659   32.0208   47.8816 H   0  0  0  0  0  0  0  0  0  0  0  0
   38.5645   33.0156   47.4302 H   0  0  0  0  0  0  0  0  0  0  0  0
   39.2926   32.6897   50.0896 H   0  0  0  0  0  0  0  0  0  0  0  0
   37.5804   30.7338   50.7192 H   0  0  0  0  0  0  0  0  0  0  0  0
   39.0515   30.1715   50.0060 H   0  0  0  0  0  0  0  0  0  0  0  0
   35.4828   30.9473   46.8592 H   0  0  0  0  0  0  0  0  0  0  0  0
   33.2146   29.7697   46.8508 H   0  0  0  0  0  0  0  0  0  0  0  0
   34.4220   27.4875   50.2588 H   0  0  0  0  0  0  0  0  0  0  0  0
   37.1994   33.2342   50.6666 H   0  0  0  0  0  0  0  0  0  0  0  0
   37.5506   34.0233   49.2233 H   0  0  0  0  0  0  0  0  0  0  0  0
  1  5  1  0
  2  3  1  0
  2  1  1  0
  3  4  1  0
  4 12  1  0
  4  5  1  0
  6  1  1  0
  6 11  1  0
  7  6  2  0
  8  7  1  0
  8  9  2  0
  9 10  1  0
 10 11  2  0
  2 13  1  0
  2 14  1  0
  3 15  1  0
  3 16  1  0
  4 17  1  1
  5 18  1  0
  5 19  1  0
  7 20  1  0
  8 21  1  0
 10 22  1  0
 12 23  1  0
 12 24  1  0
M  ISO  8  13  13  14  13  15  13  16  13  17  13  18  13  19  13  20  14
M  ISO  4  21  14  22  14  23   5  24   5
M  END
>  <minimizedAffinity>  (1) 
-4.22489595

>  <minimizedRMSD>  (1) 
1.80602658

$$$$
