
     RDKit          3D

 17 17  0  0  0  0  0  0  0  0999 V2000
   37.5450   30.3040   51.1490 C   0  0  0  0  0  0  0  0  0  0  0  0
   38.1690   31.1250   50.1640 C   0  0  0  0  0  0  0  0  0  0  0  0
   37.8340   30.9190   48.8320 C   0  0  0  0  0  0  0  0  0  0  0  0
   36.9350   29.9550   48.5370 N   0  0  0  0  0  0  0  0  0  0  0  0
   36.3550   29.1870   49.5000 C   0  0  0  0  0  0  0  0  0  0  0  0
   36.6670   29.3710   50.7980 N   0  0  0  0  0  0  0  0  0  0  0  0
   38.4890   31.7690   47.8110 C   0  0  0  0  0  0  0  0  0  0  0  0
   38.0120   32.2680   45.3410 C   0  0  0  0  0  0  0  0  0  0  0  0
   39.1450   32.8130   45.1970 O   0  0  0  0  0  0  0  0  0  0  0  0
   37.6660   31.7470   46.6180 N   0  0  0  0  0  0  0  0  0  0  0  0
   37.7935   30.4449   52.2113 H   0  0  0  0  0  0  0  0  0  0  0  0
   38.8952   31.8997   50.4511 H   0  0  0  0  0  0  0  0  0  0  0  0
   35.6276   28.4119   49.2169 H   0  0  0  0  0  0  0  0  0  0  0  0
   38.5784   32.7998   48.1844 H   0  0  0  0  0  0  0  0  0  0  0  0
   39.4976   31.3910   47.5876 H   0  0  0  0  0  0  0  0  0  0  0  0
   37.3102   32.1988   44.4968 H   0  0  0  0  0  0  0  0  0  0  0  0
   36.7372   31.3101   46.7039 H   0  0  0  0  0  0  0  0  0  0  0  0
  2  1  2  0
  3  2  1  0
  4  3  2  0
  4  5  1  0
  5  6  2  0
  6  1  1  0
  7  3  1  0
  8 10  1  0
  9  8  2  0
 10  7  1  0
  1 11  1  0
  2 12  1  0
  5 13  1  0
  7 14  1  0
  7 15  1  0
  8 16  1  0
 10 17  1  0
M  ISO  6  11  14  12  14  13  14  14   8  15   8  16   6
M  END
>  <minimizedAffinity>  (1) 
-3.73418498

>  <minimizedRMSD>  (1) 
0.844383895

$$$$
