
     RDKit          3D

 48 52  0  0  1  0  0  0  0  0999 V2000
   32.4350   27.9600   48.1030 N   0  0  0  0  0  0  0  0  0  0  0  0
   33.1610   27.7860   46.8630 C   0  0  0  0  0  0  0  0  0  0  0  0
   34.4540   28.5070   47.1140 C   0  0  0  0  0  0  0  0  0  0  0  0
   34.2370   29.2450   48.5110 C   0  0  1  0  0  0  0  0  0  0  0  0
   33.4020   28.2480   49.1850 C   0  0  0  0  0  0  0  0  0  0  0  0
   35.9910   31.1940   47.4240 F   0  0  0  0  0  0  0  0  0  0  0  0
   36.2990   30.4940   48.5390 C   0  0  0  0  0  0  0  0  0  0  0  0
   35.5560   29.4850   49.1090 C   0  0  0  0  0  0  0  0  0  0  0  0
   36.0620   28.8480   50.2550 C   0  0  0  0  0  0  0  0  0  0  0  0
   37.2740   29.2120   50.8070 C   0  0  0  0  0  0  0  0  0  0  0  0
   38.0090   30.2370   50.2120 C   0  0  0  0  0  0  0  0  0  0  0  0
   37.5070   30.8750   49.0690 C   0  0  0  0  0  0  0  0  0  0  0  0
   38.3560   31.9320   48.5270 C   0  0  0  0  0  0  0  0  0  0  0  0
   38.4550   33.0530   49.3530 C   0  0  0  0  0  0  0  0  0  0  0  0
   39.2490   34.0950   48.8940 C   0  0  0  0  0  0  0  0  0  0  0  0
   39.9190   34.0550   47.6900 C   0  0  0  0  0  0  0  0  0  0  0  0
   39.7760   32.9240   46.9320 C   0  0  0  0  0  0  0  0  0  0  0  0
   40.4170   32.8080   45.7090 C   0  0  0  0  0  0  0  0  0  0  0  0
   40.3290   31.7190   44.8940 C   0  0  0  0  0  0  0  0  0  0  0  0
   39.5420   30.6850   45.3480 C   0  0  0  0  0  0  0  0  0  0  0  0
   38.8500   30.6920   46.5620 C   0  0  0  0  0  0  0  0  0  0  0  0
   39.0060   31.8390   47.3120 C   0  0  0  0  0  0  0  0  0  0  0  0
   31.0410   27.8890   48.2860 C   0  0  0  0  0  0  0  0  0  0  0  0
   30.2480   28.3950   47.2430 C   0  0  0  0  0  0  0  0  0  0  0  0
   28.8590   28.3630   47.3740 C   0  0  0  0  0  0  0  0  0  0  0  0
   28.3570   27.8240   48.5450 N   0  0  0  0  0  0  0  0  0  0  0  0
   29.1400   27.3510   49.5160 C   0  0  0  0  0  0  0  0  0  0  0  0
   30.4950   27.3840   49.3850 N   0  0  0  0  0  0  0  0  0  0  0  0
   32.6157   28.2369   46.0208 H   0  0  0  0  0  0  0  0  0  0  0  0
   33.3035   26.7292   46.5929 H   0  0  0  0  0  0  0  0  0  0  0  0
   35.2901   27.7950   47.1765 H   0  0  0  0  0  0  0  0  0  0  0  0
   34.7044   29.2092   46.3052 H   0  0  0  0  0  0  0  0  0  0  0  0
   33.7658   30.2389   48.5196 H   0  0  0  0  0  0  0  0  0  0  0  0
   32.9079   28.6626   50.0761 H   0  0  0  0  0  0  0  0  0  0  0  0
   33.9428   27.3719   49.5723 H   0  0  0  0  0  0  0  0  0  0  0  0
   35.4791   28.0410   50.7229 H   0  0  0  0  0  0  0  0  0  0  0  0
   37.6546   28.7007   51.7035 H   0  0  0  0  0  0  0  0  0  0  0  0
   38.9764   30.5429   50.6368 H   0  0  0  0  0  0  0  0  0  0  0  0
   37.9306   33.1078   50.3184 H   0  0  0  0  0  0  0  0  0  0  0  0
   39.3481   34.9941   49.5199 H   0  0  0  0  0  0  0  0  0  0  0  0
   40.5422   34.8963   47.3525 H   0  0  0  0  0  0  0  0  0  0  0  0
   41.0385   33.6513   45.3734 H   0  0  0  0  0  0  0  0  0  0  0  0
   40.8561   31.6694   43.9298 H   0  0  0  0  0  0  0  0  0  0  0  0
   39.4516   29.7922   44.7118 H   0  0  0  0  0  0  0  0  0  0  0  0
   38.2284   29.8474   46.8941 H   0  0  0  0  0  0  0  0  0  0  0  0
   30.7144   28.8099   46.3373 H   0  0  0  0  0  0  0  0  0  0  0  0
   28.1959   28.7474   46.5850 H   0  0  0  0  0  0  0  0  0  0  0  0
   28.6886   26.9320   50.4274 H   0  0  0  0  0  0  0  0  0  0  0  0
  1 23  1  0
  1  5  1  0
  2  3  1  0
  2  1  1  0
  3  4  1  0
  4  8  1  0
  4  5  1  0
  6  7  1  0
  7 12  2  0
  7  8  1  0
  8  9  2  0
  9 10  1  0
 11 10  2  0
 12 11  1  0
 13 12  1  0
 13 14  2  0
 15 14  1  0
 16 15  2  0
 17 22  2  0
 17 16  1  0
 18 17  1  0
 19 20  1  0
 19 18  2  0
 20 21  2  0
 21 22  1  0
 22 13  1  0
 23 28  2  0
 24 25  2  0
 24 23  1  0
 25 26  1  0
 26 27  2  0
 28 27  1  0
  2 29  1  0
  2 30  1  0
  3 31  1  0
  3 32  1  0
  4 33  1  6
  5 34  1  0
  5 35  1  0
  9 36  1  0
 10 37  1  0
 11 38  1  0
 14 39  1  0
 15 40  1  0
 16 41  1  0
 18 42  1  0
 19 43  1  0
 20 44  1  0
 21 45  1  0
 24 46  1  0
 25 47  1  0
 27 48  1  0
M  ISO  8  29  13  30  13  31  13  32  13  33  13  34  13  35  13  36  14
M  ISO  8  37  14  38  14  39  14  40  14  41  14  42  14  43  14  44  14
M  ISO  4  45  14  46  14  47  14  48  14
M  END
>  <minimizedAffinity>  (1) 
-8.81267643

>  <minimizedRMSD>  (1) 
3.39805841

$$$$
