
     RDKit          3D

 41 44  0  0  1  0  0  0  0  0999 V2000
   32.4000   27.9240   48.8400 N   0  0  0  0  0  0  0  0  0  0  0  0
   33.2670   27.2220   47.9060 C   0  0  0  0  0  0  0  0  0  0  0  0
   34.5710   27.9500   48.0380 C   0  0  0  0  0  0  0  0  0  0  0  0
   34.2420   29.2140   48.9530 C   0  0  1  0  0  0  0  0  0  0  0  0
   33.2430   28.6110   49.8410 C   0  0  0  0  0  0  0  0  0  0  0  0
   35.9760   31.0300   47.6430 F   0  0  0  0  0  0  0  0  0  0  0  0
   36.2270   30.5810   48.8890 C   0  0  0  0  0  0  0  0  0  0  0  0
   35.4850   29.6560   49.5830 C   0  0  0  0  0  0  0  0  0  0  0  0
   35.9200   29.2860   50.8660 C   0  0  0  0  0  0  0  0  0  0  0  0
   37.0550   29.8230   51.4330 C   0  0  0  0  0  0  0  0  0  0  0  0
   37.7890   30.7580   50.7100 C   0  0  0  0  0  0  0  0  0  0  0  0
   37.3620   31.1340   49.4240 C   0  0  0  0  0  0  0  0  0  0  0  0
   38.2420   32.1120   48.8310 C   0  0  0  0  0  0  0  0  0  0  0  0
   38.6680   33.2990   49.3650 C   0  0  0  0  0  0  0  0  0  0  0  0
   39.5090   34.2130   48.7800 C   0  0  0  0  0  0  0  0  0  0  0  0
   40.0020   33.9480   47.5210 C   0  0  0  0  0  0  0  0  0  0  0  0
   39.5820   32.7580   46.9730 C   0  0  0  0  0  0  0  0  0  0  0  0
   38.7590   31.9200   47.6080 N   0  0  0  0  0  0  0  0  0  0  0  0
   30.9970   27.9730   48.8230 C   0  0  0  0  0  0  0  0  0  0  0  0
   30.3980   28.0720   47.5570 C   0  0  0  0  0  0  0  0  0  0  0  0
   28.9990   28.1330   47.4660 C   0  0  0  0  0  0  0  0  0  0  0  0
   28.3020   28.0900   48.6610 N   0  0  0  0  0  0  0  0  0  0  0  0
   28.9060   27.9960   49.8510 C   0  0  0  0  0  0  0  0  0  0  0  0
   30.2610   27.9360   49.9370 N   0  0  0  0  0  0  0  0  0  0  0  0
   32.8788   27.2907   46.8791 H   0  0  0  0  0  0  0  0  0  0  0  0
   33.3496   26.1459   48.1186 H   0  0  0  0  0  0  0  0  0  0  0  0
   35.3252   27.3096   48.5187 H   0  0  0  0  0  0  0  0  0  0  0  0
   34.9843   28.2413   47.0611 H   0  0  0  0  0  0  0  0  0  0  0  0
   33.8600   30.1317   48.4819 H   0  0  0  0  0  0  0  0  0  0  0  0
   32.6780   29.3727   50.3983 H   0  0  0  0  0  0  0  0  0  0  0  0
   33.6521   27.9621   50.6294 H   0  0  0  0  0  0  0  0  0  0  0  0
   35.3377   28.5461   51.4347 H   0  0  0  0  0  0  0  0  0  0  0  0
   37.3754   29.5178   52.4401 H   0  0  0  0  0  0  0  0  0  0  0  0
   38.6985   31.2008   51.1420 H   0  0  0  0  0  0  0  0  0  0  0  0
   38.2965   33.5466   50.3703 H   0  0  0  0  0  0  0  0  0  0  0  0
   39.7839   35.1390   49.3063 H   0  0  0  0  0  0  0  0  0  0  0  0
   40.6799   34.6356   46.9941 H   0  0  0  0  0  0  0  0  0  0  0  0
   39.9394   32.4853   45.9690 H   0  0  0  0  0  0  0  0  0  0  0  0
   31.0173   28.1014   46.6484 H   0  0  0  0  0  0  0  0  0  0  0  0
   28.4840   28.2108   46.4971 H   0  0  0  0  0  0  0  0  0  0  0  0
   28.3001   27.9670   50.7686 H   0  0  0  0  0  0  0  0  0  0  0  0
  1  5  1  0
  2  3  1  0
  2  1  1  0
  3  4  1  0
  4  8  1  0
  4  5  1  0
  6  7  1  0
  7 12  2  0
  7  8  1  0
  8  9  2  0
  9 10  1  0
 11 10  2  0
 12 11  1  0
 13 14  2  0
 13 12  1  0
 15 14  1  0
 16 15  2  0
 17 16  1  0
 17 18  2  0
 18 13  1  0
 19  1  1  0
 19 24  1  0
 20 19  2  0
 21 20  1  0
 21 22  2  0
 22 23  1  0
 23 24  2  0
  2 25  1  0
  2 26  1  0
  3 27  1  0
  3 28  1  0
  4 29  1  6
  5 30  1  0
  5 31  1  0
  9 32  1  0
 10 33  1  0
 11 34  1  0
 14 35  1  0
 15 36  1  0
 16 37  1  0
 17 38  1  0
 20 39  1  0
 21 40  1  0
 23 41  1  0
M  ISO  8  25  13  26  13  27  13  28  13  29  13  30  13  31  13  32  14
M  ISO  8  33  14  34  14  35  14  36  14  37  14  38  14  39  14  40  14
M  ISO  1  41  14
M  END
>  <minimizedAffinity>  (1) 
-7.31838083

>  <minimizedRMSD>  (1) 
3.04868889

$$$$
