
     RDKit          3D

 45 48  0  0  1  0  0  0  0  0999 V2000
   32.0320   29.1880   46.1530 N   0  0  0  0  0  0  0  0  0  0  0  0
   33.0380   28.8460   45.1600 C   0  0  0  0  0  0  0  0  0  0  0  0
   34.3320   29.0990   45.8820 C   0  0  0  0  0  0  0  0  0  0  0  0
   33.9050   29.7750   47.2550 C   0  0  1  0  0  0  0  0  0  0  0  0
   32.6400   29.0870   47.4970 C   0  0  0  0  0  0  0  0  0  0  0  0
   36.3800   31.1550   47.0850 F   0  0  0  0  0  0  0  0  0  0  0  0
   36.0960   30.3080   48.0960 C   0  0  0  0  0  0  0  0  0  0  0  0
   34.9690   29.5390   48.2350 C   0  0  0  0  0  0  0  0  0  0  0  0
   34.8730   28.6810   49.3450 C   0  0  0  0  0  0  0  0  0  0  0  0
   35.8770   28.6010   50.2860 C   0  0  0  0  0  0  0  0  0  0  0  0
   37.0140   29.3910   50.1260 C   0  0  0  0  0  0  0  0  0  0  0  0
   37.1200   30.2550   49.0120 C   0  0  0  0  0  0  0  0  0  0  0  0
   38.3640   31.0420   48.9770 C   0  0  0  0  0  0  0  0  0  0  0  0
   38.9320   31.1670   47.5820 C   0  0  0  0  0  0  0  0  0  0  0  0
   38.8480   32.6630   47.3100 C   0  0  0  0  0  0  0  0  0  0  0  0
   38.9370   33.3200   48.6520 C   0  0  0  0  0  0  0  0  0  0  0  0
   38.2240   32.3850   49.5760 C   0  0  0  0  0  0  0  0  0  0  0  0
   30.6950   29.5670   45.9180 C   0  0  0  0  0  0  0  0  0  0  0  0
   30.4900   30.4510   44.8490 C   0  0  0  0  0  0  0  0  0  0  0  0
   29.1820   30.8750   44.5680 C   0  0  0  0  0  0  0  0  0  0  0  0
   28.1820   30.3770   45.3840 N   0  0  0  0  0  0  0  0  0  0  0  0
   28.4210   29.5330   46.3930 C   0  0  0  0  0  0  0  0  0  0  0  0
   29.6840   29.1270   46.6600 N   0  0  0  0  0  0  0  0  0  0  0  0
   32.9498   29.4884   44.2715 H   0  0  0  0  0  0  0  0  0  0  0  0
   32.9452   27.8147   44.7889 H   0  0  0  0  0  0  0  0  0  0  0  0
   34.8651   28.1543   46.0645 H   0  0  0  0  0  0  0  0  0  0  0  0
   35.0146   29.7358   45.3002 H   0  0  0  0  0  0  0  0  0  0  0  0
   33.7725   30.8666   47.2857 H   0  0  0  0  0  0  0  0  0  0  0  0
   32.0349   29.6008   48.2585 H   0  0  0  0  0  0  0  0  0  0  0  0
   32.7366   28.0627   47.8862 H   0  0  0  0  0  0  0  0  0  0  0  0
   33.9743   28.0582   49.4653 H   0  0  0  0  0  0  0  0  0  0  0  0
   35.7825   27.9251   51.1487 H   0  0  0  0  0  0  0  0  0  0  0  0
   37.8273   29.3424   50.8650 H   0  0  0  0  0  0  0  0  0  0  0  0
   39.0704   30.4689   49.5956 H   0  0  0  0  0  0  0  0  0  0  0  0
   39.9742   30.8168   47.5467 H   0  0  0  0  0  0  0  0  0  0  0  0
   38.3933   30.5607   46.8389 H   0  0  0  0  0  0  0  0  0  0  0  0
   39.6820   32.9844   46.6687 H   0  0  0  0  0  0  0  0  0  0  0  0
   37.9186   32.9306   46.7859 H   0  0  0  0  0  0  0  0  0  0  0  0
   39.9871   33.4415   48.9563 H   0  0  0  0  0  0  0  0  0  0  0  0
   38.4951   34.3273   48.6542 H   0  0  0  0  0  0  0  0  0  0  0  0
   37.1619   32.6603   49.6549 H   0  0  0  0  0  0  0  0  0  0  0  0
   38.6445   32.4209   50.5918 H   0  0  0  0  0  0  0  0  0  0  0  0
   31.3371   30.8049   44.2430 H   0  0  0  0  0  0  0  0  0  0  0  0
   28.9633   31.5674   43.7417 H   0  0  0  0  0  0  0  0  0  0  0  0
   27.5867   29.1667   47.0093 H   0  0  0  0  0  0  0  0  0  0  0  0
  1  5  1  0
  2  3  1  0
  2  1  1  0
  3  4  1  0
  4  5  1  0
  4  8  1  0
  6  7  1  0
  7  8  2  0
  7 12  1  0
  8  9  1  0
  9 10  2  0
 11 10  1  0
 12 11  2  0
 13 12  1  0
 13 17  1  0
 14 13  1  0
 15 14  1  0
 15 16  1  0
 16 17  1  0
 18  1  1  0
 18 23  1  0
 19 18  2  0
 20 19  1  0
 20 21  2  0
 21 22  1  0
 22 23  2  0
  2 24  1  0
  2 25  1  0
  3 26  1  0
  3 27  1  0
  4 28  1  6
  5 29  1  0
  5 30  1  0
  9 31  1  0
 10 32  1  0
 11 33  1  0
 13 34  1  0
 14 35  1  0
 14 36  1  0
 15 37  1  0
 15 38  1  0
 16 39  1  0
 16 40  1  0
 17 41  1  0
 17 42  1  0
 19 43  1  0
 20 44  1  0
 22 45  1  0
M  ISO  8  24  13  25  13  26  13  27  13  28  13  29  13  30  13  31  14
M  ISO  8  32  14  33  14  34  13  35  13  36  13  37  13  38  13  39  13
M  ISO  6  40  13  41  13  42  13  43  14  44  14  45  14
M  END
>  <minimizedAffinity>  (1) 
-6.02806568

>  <minimizedRMSD>  (1) 
1.78937995

$$$$
