
     RDKit          3D

 35 37  0  0  0  0  0  0  0  0999 V2000
   38.0170   33.0690   49.5590 C   0  0  0  0  0  0  0  0  0  0  0  0
   38.9640   33.1680   48.5410 C   0  0  0  0  0  0  0  0  0  0  0  0
   38.8770   32.2550   47.4780 C   0  0  0  0  0  0  0  0  0  0  0  0
   37.8790   31.3380   47.5120 N   0  0  0  0  0  0  0  0  0  0  0  0
   36.9830   31.2750   48.5190 C   0  0  0  0  0  0  0  0  0  0  0  0
   37.0640   32.1420   49.5300 N   0  0  0  0  0  0  0  0  0  0  0  0
   39.7330   32.1780   46.3450 N   0  0  0  0  0  0  0  0  0  0  0  0
   40.1660   33.3420   45.5680 C   0  0  0  0  0  0  0  0  0  0  0  0
   39.5170   33.2140   44.2080 C   0  0  0  0  0  0  0  0  0  0  0  0
   40.0520   32.0070   43.5130 C   0  0  0  0  0  0  0  0  0  0  0  0
   39.9540   30.7510   44.3430 C   0  0  0  0  0  0  0  0  0  0  0  0
   40.2980   30.9870   45.7880 C   0  0  0  0  0  0  0  0  0  0  0  0
   37.2580   29.1170   50.5230 Cl  0  0  0  0  0  0  0  0  0  0  0  0
   35.9750   29.2040   49.3610 C   0  0  0  0  0  0  0  0  0  0  0  0
   35.9350   30.2470   48.4710 C   0  0  0  0  0  0  0  0  0  0  0  0
   34.9400   30.3580   47.5340 C   0  0  0  0  0  0  0  0  0  0  0  0
   33.9390   29.4000   47.4690 C   0  0  0  0  0  0  0  0  0  0  0  0
   33.9460   28.3430   48.3430 C   0  0  0  0  0  0  0  0  0  0  0  0
   32.7440   27.0700   48.3640 Cl  0  0  0  0  0  0  0  0  0  0  0  0
   34.9730   28.2770   49.2700 C   0  0  0  0  0  0  0  0  0  0  0  0
   38.0588   33.7722   50.4038 H   0  0  0  0  0  0  0  0  0  0  0  0
   39.7521   33.9348   48.5695 H   0  0  0  0  0  0  0  0  0  0  0  0
   39.8392   34.2703   46.0595 H   0  0  0  0  0  0  0  0  0  0  0  0
   41.2622   33.3799   45.4844 H   0  0  0  0  0  0  0  0  0  0  0  0
   38.4282   33.1148   44.3292 H   0  0  0  0  0  0  0  0  0  0  0  0
   39.7393   34.1100   43.6099 H   0  0  0  0  0  0  0  0  0  0  0  0
   39.4825   31.8574   42.5839 H   0  0  0  0  0  0  0  0  0  0  0  0
   41.1195   32.1880   43.3187 H   0  0  0  0  0  0  0  0  0  0  0  0
   38.9244   30.3683   44.2835 H   0  0  0  0  0  0  0  0  0  0  0  0
   40.6784   30.0274   43.9409 H   0  0  0  0  0  0  0  0  0  0  0  0
   39.9351   30.1286   46.3723 H   0  0  0  0  0  0  0  0  0  0  0  0
   41.3904   31.1074   45.8342 H   0  0  0  0  0  0  0  0  0  0  0  0
   34.9356   31.2066   46.8341 H   0  0  0  0  0  0  0  0  0  0  0  0
   33.1406   29.4879   46.7175 H   0  0  0  0  0  0  0  0  0  0  0  0
   34.9836   27.4311   49.9731 H   0  0  0  0  0  0  0  0  0  0  0  0
  2  1  2  0
  3  4  2  0
  3  2  1  0
  4  5  1  0
  5  6  2  0
  6  1  1  0
  7  3  1  0
  8  7  1  0
  9  8  1  0
 10  9  1  0
 10 11  1  0
 11 12  1  0
 12  7  1  0
 14 13  1  0
 15  5  1  0
 15 14  2  0
 16 15  1  0
 17 16  2  0
 17 18  1  0
 18 19  1  0
 18 20  2  0
 20 14  1  0
  1 21  1  0
  2 22  1  0
  8 23  1  0
  8 24  1  0
  9 25  1  0
  9 26  1  0
 10 27  1  0
 10 28  1  0
 11 29  1  0
 11 30  1  0
 12 31  1  0
 12 32  1  0
 16 33  1  0
 17 34  1  0
 20 35  1  0
M  ISO  8  21  14  22  14  23  13  24  13  25  13  26  13  27  13  28  13
M  ISO  7  29  13  30  13  31  13  32  13  33  14  34  14  35  14
M  END
>  <minimizedAffinity>  (1) 
-7.38577747

>  <minimizedRMSD>  (1) 
0.296578586

$$$$
