
     RDKit          3D

 14 14  0  0  0  0  0  0  0  0999 V2000
   37.3220   29.8990   51.3220 C   0  0  0  0  0  0  0  0  0  0  0  0
   38.0430   30.8740   50.5910 C   0  0  0  0  0  0  0  0  0  0  0  0
   37.4390   31.4610   49.4750 C   0  0  0  0  0  0  0  0  0  0  0  0
   36.1880   31.0630   49.1500 N   0  0  0  0  0  0  0  0  0  0  0  0
   35.5220   30.1320   49.8630 C   0  0  0  0  0  0  0  0  0  0  0  0
   36.0760   29.5550   50.9350 N   0  0  0  0  0  0  0  0  0  0  0  0
   38.1980   32.4770   48.7170 C   0  0  0  0  0  0  0  0  0  0  0  0
   38.7580   31.6760   47.1720 S   0  0  0  0  0  0  0  0  0  0  0  0
   37.7766   29.4231   52.2034 H   0  0  0  0  0  0  0  0  0  0  0  0
   39.0594   31.1642   50.8954 H   0  0  0  0  0  0  0  0  0  0  0  0
   34.5057   29.8422   49.5577 H   0  0  0  0  0  0  0  0  0  0  0  0
   37.5522   33.3368   48.4851 H   0  0  0  0  0  0  0  0  0  0  0  0
   39.0531   32.8475   49.3014 H   0  0  0  0  0  0  0  0  0  0  0  0
   39.5233   30.5813   47.4766 H   0  0  0  0  0  0  0  0  0  0  0  0
  2  1  2  0
  3  2  1  0
  4  3  2  0
  4  5  1  0
  5  6  2  0
  6  1  1  0
  7  3  1  0
  8  7  1  0
  1  9  1  0
  2 10  1  0
  5 11  1  0
  7 12  1  0
  7 13  1  0
  8 14  1  0
M  ISO  6   9  14  10  14  11  14  12   8  13   8  14  11
M  END
>  <minimizedAffinity>  (1) 
-3.24486375

>  <minimizedRMSD>  (1) 
1.3552599

$$$$
