
     RDKit          3D

 36 38  0  0  0  0  0  0  0  0999 V2000
   37.5920   32.5990   49.6380 C   0  0  0  0  0  0  0  0  0  0  0  0
   38.4290   32.8150   48.5410 C   0  0  0  0  0  0  0  0  0  0  0  0
   38.2080   32.0370   47.3890 C   0  0  0  0  0  0  0  0  0  0  0  0
   37.2030   31.1220   47.4000 N   0  0  0  0  0  0  0  0  0  0  0  0
   36.4050   30.9420   48.4980 C   0  0  0  0  0  0  0  0  0  0  0  0
   36.6200   31.6910   49.6020 N   0  0  0  0  0  0  0  0  0  0  0  0
   36.6690   28.7630   50.4800 Cl  0  0  0  0  0  0  0  0  0  0  0  0
   35.3750   28.8930   49.3200 C   0  0  0  0  0  0  0  0  0  0  0  0
   35.3460   29.9450   48.4430 C   0  0  0  0  0  0  0  0  0  0  0  0
   34.3480   30.0890   47.5130 C   0  0  0  0  0  0  0  0  0  0  0  0
   33.3290   29.1570   47.4390 C   0  0  0  0  0  0  0  0  0  0  0  0
   33.3320   28.0770   48.3180 C   0  0  0  0  0  0  0  0  0  0  0  0
   32.0940   26.8360   48.3160 Cl  0  0  0  0  0  0  0  0  0  0  0  0
   34.3550   27.9810   49.2290 C   0  0  0  0  0  0  0  0  0  0  0  0
   39.0130   32.1500   46.1410 C   0  0  0  0  0  0  0  0  0  0  0  0
   39.9560   33.3370   46.1950 C   0  0  0  0  0  0  0  0  0  0  0  0
   40.2590   33.7620   44.7730 C   0  0  0  0  0  0  0  0  0  0  0  0
   40.3960   32.4800   43.9580 C   0  0  0  0  0  0  0  0  0  0  0  0
   40.9090   31.3830   44.8550 C   0  0  0  0  0  0  0  0  0  0  0  0
   39.8480   30.9290   45.8590 C   0  0  0  0  0  0  0  0  0  0  0  0
   37.7396   33.1928   50.5521 H   0  0  0  0  0  0  0  0  0  0  0  0
   39.2320   33.5660   48.5760 H   0  0  0  0  0  0  0  0  0  0  0  0
   34.3582   30.9472   46.8250 H   0  0  0  0  0  0  0  0  0  0  0  0
   32.5262   29.2674   46.6951 H   0  0  0  0  0  0  0  0  0  0  0  0
   34.3563   27.1272   49.9226 H   0  0  0  0  0  0  0  0  0  0  0  0
   38.2701   32.2718   45.3390 H   0  0  0  0  0  0  0  0  0  0  0  0
   39.4805   34.1666   46.7388 H   0  0  0  0  0  0  0  0  0  0  0  0
   40.8846   33.0627   46.7170 H   0  0  0  0  0  0  0  0  0  0  0  0
   39.4380   34.3780   44.3773 H   0  0  0  0  0  0  0  0  0  0  0  0
   41.1783   34.3642   44.7250 H   0  0  0  0  0  0  0  0  0  0  0  0
   39.4148   32.1950   43.5505 H   0  0  0  0  0  0  0  0  0  0  0  0
   41.0984   32.6404   43.1268 H   0  0  0  0  0  0  0  0  0  0  0  0
   41.2031   30.5237   44.2345 H   0  0  0  0  0  0  0  0  0  0  0  0
   41.7682   31.7754   45.4187 H   0  0  0  0  0  0  0  0  0  0  0  0
   39.2273   30.1299   45.4275 H   0  0  0  0  0  0  0  0  0  0  0  0
   40.3006   30.5232   46.7758 H   0  0  0  0  0  0  0  0  0  0  0  0
  2  1  2  0
  3  4  2  0
  3  2  1  0
  4  5  1  0
  5  6  2  0
  6  1  1  0
  8  7  1  0
  9  5  1  0
  9  8  2  0
 10  9  1  0
 11 10  2  0
 11 12  1  0
 12 14  2  0
 13 12  1  0
 14  8  1  0
 15 16  1  0
 15  3  1  0
 17 16  1  0
 18 17  1  0
 18 19  1  0
 19 20  1  0
 20 15  1  0
  1 21  1  0
  2 22  1  0
 10 23  1  0
 11 24  1  0
 14 25  1  0
 15 26  1  0
 16 27  1  0
 16 28  1  0
 17 29  1  0
 17 30  1  0
 18 31  1  0
 18 32  1  0
 19 33  1  0
 19 34  1  0
 20 35  1  0
 20 36  1  0
M  ISO  8  21  14  22  14  23  14  24  14  25  14  26  13  27  13  28  13
M  ISO  8  29  13  30  13  31  13  32  13  33  13  34  13  35  13  36  13
M  END
>  <minimizedAffinity>  (1) 
-6.89064598

>  <minimizedRMSD>  (1) 
0.96489805

$$$$
