
     RDKit          3D

 30 32  0  0  0  0  0  0  0  0999 V2000
   37.4390   32.6280   49.8090 C   0  0  0  0  0  0  0  0  0  0  0  0
   38.3800   32.7260   48.7590 C   0  0  0  0  0  0  0  0  0  0  0  0
   38.1970   31.8770   47.6600 C   0  0  0  0  0  0  0  0  0  0  0  0
   37.1490   31.0180   47.6560 N   0  0  0  0  0  0  0  0  0  0  0  0
   36.2640   30.9590   48.6950 C   0  0  0  0  0  0  0  0  0  0  0  0
   36.4140   31.7660   49.7690 N   0  0  0  0  0  0  0  0  0  0  0  0
   35.9020   29.2870   51.1000 Cl  0  0  0  0  0  0  0  0  0  0  0  0
   34.9040   29.1930   49.6860 C   0  0  0  0  0  0  0  0  0  0  0  0
   35.1620   30.0160   48.6260 C   0  0  0  0  0  0  0  0  0  0  0  0
   34.3910   29.9740   47.4790 C   0  0  0  0  0  0  0  0  0  0  0  0
   33.3290   29.0930   47.3690 C   0  0  0  0  0  0  0  0  0  0  0  0
   33.0450   28.2500   48.4230 C   0  0  0  0  0  0  0  0  0  0  0  0
   31.7460   27.0700   48.4780 Cl  0  0  0  0  0  0  0  0  0  0  0  0
   33.8450   28.3260   49.5550 C   0  0  0  0  0  0  0  0  0  0  0  0
   39.0830   31.8620   46.5040 C   0  0  0  0  0  0  0  0  0  0  0  0
   39.1020   30.7190   45.7350 C   0  0  0  0  0  0  0  0  0  0  0  0
   39.9370   30.6560   44.6120 C   0  0  0  0  0  0  0  0  0  0  0  0
   40.7440   31.7120   44.2540 C   0  0  0  0  0  0  0  0  0  0  0  0
   40.7040   32.8350   45.0380 C   0  0  0  0  0  0  0  0  0  0  0  0
   39.8900   32.9180   46.1450 C   0  0  0  0  0  0  0  0  0  0  0  0
   37.5518   33.2805   50.6874 H   0  0  0  0  0  0  0  0  0  0  0  0
   39.2183   33.4369   48.8029 H   0  0  0  0  0  0  0  0  0  0  0  0
   34.6246   30.6496   46.6429 H   0  0  0  0  0  0  0  0  0  0  0  0
   32.7199   29.0656   46.4535 H   0  0  0  0  0  0  0  0  0  0  0  0
   33.6186   27.6537   50.3957 H   0  0  0  0  0  0  0  0  0  0  0  0
   38.4659   29.8619   46.0010 H   0  0  0  0  0  0  0  0  0  0  0  0
   39.9480   29.7409   44.0018 H   0  0  0  0  0  0  0  0  0  0  0  0
   41.3972   31.6564   43.3707 H   0  0  0  0  0  0  0  0  0  0  0  0
   41.3396   33.6936   44.7757 H   0  0  0  0  0  0  0  0  0  0  0  0
   39.8843   33.8374   46.7489 H   0  0  0  0  0  0  0  0  0  0  0  0
  2  1  2  0
  3  2  1  0
  4  3  2  0
  4  5  1  0
  5  6  2  0
  6  1  1  0
  8  7  1  0
  9  5  1  0
  9  8  2  0
 10  9  1  0
 11 10  2  0
 11 12  1  0
 12 13  1  0
 12 14  2  0
 14  8  1  0
 15  3  1  0
 16 15  2  0
 17 16  1  0
 18 17  2  0
 18 19  1  0
 19 20  2  0
 20 15  1  0
  1 21  1  0
  2 22  1  0
 10 23  1  0
 11 24  1  0
 14 25  1  0
 16 26  1  0
 17 27  1  0
 18 28  1  0
 19 29  1  0
 20 30  1  0
M  ISO  8  21  14  22  14  23  14  24  14  25  14  26  14  27  14  28  14
M  ISO  2  29  14  30  14
M  END
>  <minimizedAffinity>  (1) 
-6.79254818

>  <minimizedRMSD>  (1) 
0.99949038

$$$$
