
     RDKit          3D

 27 29  0  0  0  0  0  0  0  0999 V2000
   37.0730   28.9950   50.3900 Cl  0  0  0  0  0  0  0  0  0  0  0  0
   35.7520   29.1080   49.2690 C   0  0  0  0  0  0  0  0  0  0  0  0
   35.7330   30.1230   48.3560 C   0  0  0  0  0  0  0  0  0  0  0  0
   34.7030   30.2550   47.4440 C   0  0  0  0  0  0  0  0  0  0  0  0
   33.6560   29.3470   47.4370 C   0  0  0  0  0  0  0  0  0  0  0  0
   33.6600   28.3060   48.3600 C   0  0  0  0  0  0  0  0  0  0  0  0
   32.4000   27.0930   48.4590 Cl  0  0  0  0  0  0  0  0  0  0  0  0
   34.7210   28.2170   49.2580 C   0  0  0  0  0  0  0  0  0  0  0  0
   38.1040   32.7210   49.3910 C   0  0  0  0  0  0  0  0  0  0  0  0
   38.8680   32.9370   48.2340 C   0  0  0  0  0  0  0  0  0  0  0  0
   38.5460   32.1650   47.0900 C   0  0  0  0  0  0  0  0  0  0  0  0
   37.5280   31.2820   47.2060 N   0  0  0  0  0  0  0  0  0  0  0  0
   36.8070   31.0940   48.3300 C   0  0  0  0  0  0  0  0  0  0  0  0
   37.1070   31.8260   49.4290 N   0  0  0  0  0  0  0  0  0  0  0  0
   39.2530   32.2680   45.7870 C   0  0  0  0  0  0  0  0  0  0  0  0
   40.5430   31.4730   45.6300 C   0  0  0  0  0  0  0  0  0  0  0  0
   40.5240   32.9860   45.6690 C   0  0  0  0  0  0  0  0  0  0  0  0
   34.7143   31.0839   46.7209 H   0  0  0  0  0  0  0  0  0  0  0  0
   32.8343   29.4478   46.7127 H   0  0  0  0  0  0  0  0  0  0  0  0
   34.7269   27.3941   49.9879 H   0  0  0  0  0  0  0  0  0  0  0  0
   38.3305   33.3047   50.2954 H   0  0  0  0  0  0  0  0  0  0  0  0
   39.6833   33.6752   48.2157 H   0  0  0  0  0  0  0  0  0  0  0  0
   38.2955   32.3460   45.2512 H   0  0  0  0  0  0  0  0  0  0  0  0
   40.7593   30.9433   44.6905 H   0  0  0  0  0  0  0  0  0  0  0  0
   41.0526   30.6734   46.1877 H   0  0  0  0  0  0  0  0  0  0  0  0
   40.9352   33.5147   46.5416 H   0  0  0  0  0  0  0  0  0  0  0  0
   40.9014   33.7770   45.0043 H   0  0  0  0  0  0  0  0  0  0  0  0
  2  1  1  0
  3  2  2  0
  4  3  1  0
  5  4  2  0
  5  6  1  0
  6  7  1  0
  6  8  2  0
  8  2  1  0
  9 14  2  0
 10  9  1  0
 11 12  1  0
 11 10  2  0
 12 13  2  0
 13  3  1  0
 13 14  1  0
 15 11  1  0
 16 17  1  0
 16 15  1  0
 17 15  1  0
  4 18  1  0
  5 19  1  0
  8 20  1  0
  9 21  1  0
 10 22  1  0
 15 23  1  0
 16 24  1  0
 16 25  1  0
 17 26  1  0
 17 27  1  0
M  ISO  8  18  14  19  14  20  14  21  14  22  14  23  13  24  13  25  13
M  ISO  2  26  13  27  13
M  END
>  <minimizedAffinity>  (1) 
-6.22583103

>  <minimizedRMSD>  (1) 
0.596382916

$$$$
