
     RDKit          3D

 21 22  0  0  0  0  0  0  0  0999 V2000
   37.2460   29.1110   50.5230 Cl  0  0  0  0  0  0  0  0  0  0  0  0
   35.9650   29.2050   49.3510 C   0  0  0  0  0  0  0  0  0  0  0  0
   35.9310   30.2420   48.4580 C   0  0  0  0  0  0  0  0  0  0  0  0
   34.9370   30.3440   47.5240 C   0  0  0  0  0  0  0  0  0  0  0  0
   33.9290   29.4070   47.4450 C   0  0  0  0  0  0  0  0  0  0  0  0
   33.9310   28.3440   48.3310 C   0  0  0  0  0  0  0  0  0  0  0  0
   32.7360   27.0640   48.3770 Cl  0  0  0  0  0  0  0  0  0  0  0  0
   34.9580   28.2730   49.2670 C   0  0  0  0  0  0  0  0  0  0  0  0
   38.0150   33.0690   49.5390 C   0  0  0  0  0  0  0  0  0  0  0  0
   38.9750   33.1550   48.5310 C   0  0  0  0  0  0  0  0  0  0  0  0
   38.8870   32.2220   47.4780 C   0  0  0  0  0  0  0  0  0  0  0  0
   37.8900   31.3030   47.4980 N   0  0  0  0  0  0  0  0  0  0  0  0
   36.9760   31.2580   48.5030 C   0  0  0  0  0  0  0  0  0  0  0  0
   37.0480   32.1460   49.5180 N   0  0  0  0  0  0  0  0  0  0  0  0
   39.8300   32.2850   46.4630 O   0  0  0  0  0  0  0  0  0  0  0  0
   34.9420   31.1907   46.8218 H   0  0  0  0  0  0  0  0  0  0  0  0
   33.1354   29.5028   46.6894 H   0  0  0  0  0  0  0  0  0  0  0  0
   34.9645   27.4303   49.9740 H   0  0  0  0  0  0  0  0  0  0  0  0
   38.0546   33.7816   50.3760 H   0  0  0  0  0  0  0  0  0  0  0  0
   39.7668   33.9181   48.5566 H   0  0  0  0  0  0  0  0  0  0  0  0
   40.5409   32.9735   46.4898 H   0  0  0  0  0  0  0  0  0  0  0  0
  2  1  1  0
  3 13  1  0
  3  2  2  0
  4  3  1  0
  5  4  2  0
  5  6  1  0
  6  7  1  0
  6  8  2  0
  8  2  1  0
 10  9  2  0
 11 12  2  0
 11 10  1  0
 12 13  1  0
 13 14  2  0
 14  9  1  0
 15 11  1  0
  4 16  1  0
  5 17  1  0
  8 18  1  0
  9 19  1  0
 10 20  1  0
 15 21  1  0
M  ISO  6  16  14  17  14  18  14  19  14  20  14  21   3
M  END
>  <minimizedAffinity>  (1) 
-5.64474154

>  <minimizedRMSD>  (1) 
0.100580774

$$$$
