
     RDKit          3D

 45 48  0  0  0  0  0  0  0  0999 V2000
   36.6213   30.6495   50.5171 C   0  0  0  0  0  0  0  0  0  0  0  0
   37.6311   31.3501   49.8530 C   0  0  0  0  0  0  0  0  0  0  0  0
   37.4797   31.5252   48.4857 C   0  0  0  0  0  0  0  0  0  0  0  0
   36.3734   31.0154   47.8639 N   0  0  0  0  0  0  0  0  0  0  0  0
   35.4278   30.3453   48.5596 C   0  0  0  0  0  0  0  0  0  0  0  0
   35.5604   30.1720   49.8613 N   0  0  0  0  0  0  0  0  0  0  0  0
   38.4710   32.2448   47.6668 C   0  0  0  0  0  0  0  0  0  0  0  0
   39.1824   33.3290   48.1134 C   0  0  0  0  0  0  0  0  0  0  0  0
   40.0207   33.7870   47.1467 N   0  0  0  0  0  0  0  0  0  0  0  0
   39.8338   32.9906   46.0974 C   0  0  0  0  0  0  0  0  0  0  0  0
   38.9000   32.0688   46.4244 N   0  0  0  0  0  0  0  0  0  0  0  0
   40.5346   31.7074   44.1432 C   0  0  0  0  0  0  0  0  0  0  0  0
   40.1237   30.6785   44.7006 O   0  0  0  0  0  0  0  0  0  0  0  0
   40.4227   32.9768   44.8071 N   0  0  0  0  0  0  0  0  0  0  0  0
   34.5428   27.6483   49.3851 Cl  0  0  0  0  0  0  0  0  0  0  0  0
   33.7789   28.5825   48.1344 C   0  0  0  0  0  0  0  0  0  0  0  0
   34.2716   29.8279   47.8290 C   0  0  0  0  0  0  0  0  0  0  0  0
   33.6822   30.5923   46.8379 C   0  0  0  0  0  0  0  0  0  0  0  0
   32.5925   30.1276   46.1356 C   0  0  0  0  0  0  0  0  0  0  0  0
   32.0894   28.8753   46.4359 C   0  0  0  0  0  0  0  0  0  0  0  0
   30.6976   28.1807   45.5996 Cl  0  0  0  0  0  0  0  0  0  0  0  0
   32.7054   28.1483   47.4284 C   0  0  0  0  0  0  0  0  0  0  0  0
   32.1612   26.7913   47.7547 C   0  0  0  0  0  0  0  0  0  0  0  0
   33.1937   25.8667   47.8429 F   0  0  0  0  0  0  0  0  0  0  0  0
   31.3760   26.3171   46.7012 F   0  0  0  0  0  0  0  0  0  0  0  0
   31.3502   26.7985   48.8700 F   0  0  0  0  0  0  0  0  0  0  0  0
   36.7310   30.5081   51.5838 H   0  0  0  0  0  0  0  0  0  0  0  0
   38.5008   31.7522   50.3347 H   0  0  0  0  0  0  0  0  0  0  0  0
   39.1713   33.8494   49.0851 H   0  0  0  0  0  0  0  0  0  0  0  0
   40.6869   34.5769   47.1543 H   0  0  0  0  0  0  0  0  0  0  0  0
   40.9734   31.5423   43.1308 H   0  0  0  0  0  0  0  0  0  0  0  0
   40.7819   33.7924   44.2922 H   0  0  0  0  0  0  0  0  0  0  0  0
   34.0632   31.5750   46.5898 H   0  0  0  0  0  0  0  0  0  0  0  0
   33.9177   32.2002   44.5280 O   0  0  0  0  0  0  0  0  0  0  0  0
   32.7786   31.7494   44.2678 C   0  0  0  0  0  0  0  0  0  0  0  0
   31.9180   30.8811   45.0744 C   0  0  1  0  0  0  0  0  0  0  0  0
   31.2845   29.9930   44.0053 C   0  0  1  0  0  0  0  0  0  0  0  0
   32.1202   29.3752   43.6131 H   0  0  0  0  0  0  0  0  0  0  0  0
   30.9110   31.0400   42.9661 C   0  0  1  0  0  0  0  0  0  0  0  0
   30.8181   30.6155   41.9493 H   0  0  0  0  0  0  0  0  0  0  0  0
   32.0255   31.9876   43.0756 N   0  0  0  0  0  0  0  0  0  0  0  0
   31.1158   31.5511   45.5016 H   0  0  0  0  0  0  0  0  0  0  0  0
   30.4384   29.4100   44.3725 H   0  0  0  0  0  0  0  0  0  0  0  0
   29.9616   31.4680   43.2964 H   0  0  0  0  0  0  0  0  0  0  0  0
   32.2082   32.7333   42.3425 H   0  0  0  0  0  0  0  0  0  0  0  0
  2  1  2  0
  3  2  1  0
  4  3  2  0
  4  5  1  0
  5  6  2  0
  6  1  1  0
  7  8  2  0
  7  3  1  0
  9  8  1  0
 10 11  2  0
 10  9  1  0
 11  7  1  0
 12 13  2  0
 12 14  1  0
 14 10  1  0
 16 15  1  0
 17 16  2  0
 17  5  1  0
 18 17  1  0
 19 20  1  0
 19 18  2  0
 20 22  2  0
 21 20  1  0
 22 23  1  0
 22 16  1  0
 23 24  1  0
 23 26  1  0
 25 23  1  0
  1 27  1  0
  2 28  1  0
  8 29  1  0
  9 30  1  0
 12 31  1  0
 14 32  1  0
 18 33  1  0
 34 35  2  0
 35 36  1  0
 36 37  1  0
 37 38  1  6
 37 39  1  0
 39 40  1  6
 39 41  1  0
 41 35  1  0
 36 42  1  1
 37 43  1  0
 39 44  1  0
 41 45  1  0
 19 36  1  0
M  END
>  <DihAtoms>  (1) 
19,18,35,34

>  <DihDeg>  (1) 
152.97897605265229

$$$$
