
     RDKit          3D

 40 42  0  0  0  0  0  0  0  0999 V2000
   36.6320   30.6000   50.5640 C   0  0  0  0  0  0  0  0  0  0  0  0
   37.6350   31.3210   49.9250 C   0  0  0  0  0  0  0  0  0  0  0  0
   37.4760   31.5330   48.5500 C   0  0  0  0  0  0  0  0  0  0  0  0
   36.3850   31.0380   47.9250 N   0  0  0  0  0  0  0  0  0  0  0  0
   35.4310   30.3410   48.5890 C   0  0  0  0  0  0  0  0  0  0  0  0
   35.5750   30.1350   49.9010 N   0  0  0  0  0  0  0  0  0  0  0  0
   38.4640   32.2780   47.7610 C   0  0  0  0  0  0  0  0  0  0  0  0
   39.1600   33.3740   48.2130 C   0  0  0  0  0  0  0  0  0  0  0  0
   39.9950   33.8440   47.2630 N   0  0  0  0  0  0  0  0  0  0  0  0
   39.8350   33.0490   46.2010 C   0  0  0  0  0  0  0  0  0  0  0  0
   38.9180   32.1250   46.5250 N   0  0  0  0  0  0  0  0  0  0  0  0
   40.5810   31.7990   44.2560 C   0  0  0  0  0  0  0  0  0  0  0  0
   40.1810   30.7570   44.7980 O   0  0  0  0  0  0  0  0  0  0  0  0
   40.4420   33.0550   44.9170 N   0  0  0  0  0  0  0  0  0  0  0  0
   34.5490   27.6330   49.3960 Cl  0  0  0  0  0  0  0  0  0  0  0  0
   33.7870   28.5770   48.1580 C   0  0  0  0  0  0  0  0  0  0  0  0
   34.2750   29.8330   47.8540 C   0  0  0  0  0  0  0  0  0  0  0  0
   33.6990   30.6040   46.8840 C   0  0  0  0  0  0  0  0  0  0  0  0
   32.6060   30.1560   46.1700 C   0  0  0  0  0  0  0  0  0  0  0  0
   32.0980   28.9100   46.4500 C   0  0  0  0  0  0  0  0  0  0  0  0
   30.7100   28.2310   45.6090 Cl  0  0  0  0  0  0  0  0  0  0  0  0
   32.7030   28.1730   47.4260 C   0  0  0  0  0  0  0  0  0  0  0  0
   32.1650   26.8070   47.7510 C   0  0  0  0  0  0  0  0  0  0  0  0
   33.2060   25.8750   47.8300 F   0  0  0  0  0  0  0  0  0  0  0  0
   31.3880   26.3440   46.6780 F   0  0  0  0  0  0  0  0  0  0  0  0
   31.3650   26.7920   48.8580 F   0  0  0  0  0  0  0  0  0  0  0  0
   31.9380   30.9440   45.1080 C   0  0  0  0  0  0  0  0  0  0  0  0
   32.8110   31.3110   43.9580 C   0  0  0  0  0  0  0  0  0  0  0  0
   36.7139   30.4091   51.6442 H   0  0  0  0  0  0  0  0  0  0  0  0
   38.5087   31.7052   50.4719 H   0  0  0  0  0  0  0  0  0  0  0  0
   39.0506   33.8103   49.2168 H   0  0  0  0  0  0  0  0  0  0  0  0
   40.6282   34.6527   47.3408 H   0  0  0  0  0  0  0  0  0  0  0  0
   41.0455   31.7537   43.2599 H   0  0  0  0  0  0  0  0  0  0  0  0
   40.7681   33.9296   44.4816 H   0  0  0  0  0  0  0  0  0  0  0  0
   34.1139   31.5997   46.6683 H   0  0  0  0  0  0  0  0  0  0  0  0
   31.0949   30.3521   44.7221 H   0  0  0  0  0  0  0  0  0  0  0  0
   31.6272   31.8904   45.5745 H   0  0  0  0  0  0  0  0  0  0  0  0
   33.7639   31.7116   44.3342 H   0  0  0  0  0  0  0  0  0  0  0  0
   33.0049   30.4182   43.3453 H   0  0  0  0  0  0  0  0  0  0  0  0
   32.3088   32.0742   43.3453 H   0  0  0  0  0  0  0  0  0  0  0  0
  2  1  2  0
  3  2  1  0
  4  3  2  0
  4  5  1  0
  5  6  2  0
  6  1  1  0
  7  8  2  0
  7  3  1  0
  9  8  1  0
 10 11  2  0
 10  9  1  0
 11  7  1  0
 12 13  2  0
 12 14  1  0
 14 10  1  0
 16 15  1  0
 17 16  2  0
 17  5  1  0
 18 17  1  0
 19 20  1  0
 19 18  2  0
 20 22  2  0
 21 20  1  0
 22 23  1  0
 22 16  1  0
 23 24  1  0
 23 26  1  0
 25 23  1  0
 27 19  1  0
 28 27  1  0
  1 29  1  0
  2 30  1  0
  8 31  1  0
  9 32  1  0
 12 33  1  0
 14 34  1  0
 18 35  1  0
 27 36  1  0
 27 37  1  0
 28 38  1  0
 28 39  1  0
 28 40  1  0
M  ISO  8  29  14  30  14  31  14  32   9  33   6  35  14  36   8  37   8
M  ISO  3  38   8  39   8  40   8
M  END
>  <minimizedAffinity>  (1) 
-6.57754326

>  <minimizedRMSD>  (1) 
0.138816506

$$$$
