
     RDKit          3D

 19 20  0  0  0  0  0  0  0  0999 V2000
   38.0750   33.0750   49.4940 C   0  0  0  0  0  0  0  0  0  0  0  0
   38.9770   33.1550   48.4220 C   0  0  0  0  0  0  0  0  0  0  0  0
   38.8290   32.2260   47.3870 C   0  0  0  0  0  0  0  0  0  0  0  0
   37.8220   31.3050   47.4850 N   0  0  0  0  0  0  0  0  0  0  0  0
   36.9800   31.2650   48.5310 C   0  0  0  0  0  0  0  0  0  0  0  0
   37.1090   32.1490   49.5310 N   0  0  0  0  0  0  0  0  0  0  0  0
   35.9240   30.2580   48.5790 C   0  0  0  0  0  0  0  0  0  0  0  0
   35.9180   29.3120   49.5830 C   0  0  0  0  0  0  0  0  0  0  0  0
   34.9400   28.3410   49.6660 C   0  0  0  0  0  0  0  0  0  0  0  0
   33.9730   28.3820   48.6790 C   0  0  0  0  0  0  0  0  0  0  0  0
   33.9490   29.3240   47.6470 C   0  0  0  0  0  0  0  0  0  0  0  0
   34.9560   30.2460   47.6460 N   0  0  0  0  0  0  0  0  0  0  0  0
   38.1639   33.7909   50.3244 H   0  0  0  0  0  0  0  0  0  0  0  0
   39.7690   33.9180   48.3967 H   0  0  0  0  0  0  0  0  0  0  0  0
   39.5036   32.2356   46.5182 H   0  0  0  0  0  0  0  0  0  0  0  0
   36.7160   29.3319   50.3398 H   0  0  0  0  0  0  0  0  0  0  0  0
   34.9309   27.5847   50.4647 H   0  0  0  0  0  0  0  0  0  0  0  0
   33.1735   27.6270   48.7077 H   0  0  0  0  0  0  0  0  0  0  0  0
   33.1624   29.3227   46.8781 H   0  0  0  0  0  0  0  0  0  0  0  0
  1  6  2  0
  2  1  1  0
  3  4  1  0
  3  2  2  0
  4  5  2  0
  5  7  1  0
  5  6  1  0
  7  8  2  0
  8  9  1  0
 10  9  2  0
 11 10  1  0
 12 11  2  0
 12  7  1  0
  1 13  1  0
  2 14  1  0
  3 15  1  0
  8 16  1  0
  9 17  1  0
 10 18  1  0
 11 19  1  0
M  ISO  7  13  14  14  14  15  14  16  14  17  14  18  14  19  14
M  END
>  <minimizedAffinity>  (1) 
-4.64784336

>  <minimizedRMSD>  (1) 
3.04117322

$$$$
