
     RDKit          3D

 35 38  0  0  0  0  0  0  0  0999 V2000
   37.5960   31.1550   49.6130 C   0  0  0  0  0  0  0  0  0  0  0  0
   37.8890   30.7820   50.8910 C   0  0  0  0  0  0  0  0  0  0  0  0
   37.1110   29.8450   51.5550 C   0  0  0  0  0  0  0  0  0  0  0  0
   36.0500   29.3250   50.8650 C   0  0  0  0  0  0  0  0  0  0  0  0
   35.7160   29.6760   49.5710 C   0  0  0  0  0  0  0  0  0  0  0  0
   36.5450   30.5950   49.0260 N   0  0  0  0  0  0  0  0  0  0  0  0
   34.6960   29.1770   48.7120 C   0  0  0  0  0  0  0  0  0  0  0  0
   33.6770   28.4180   49.2990 C   0  0  0  0  0  0  0  0  0  0  0  0
   32.6190   27.8460   48.6330 C   0  0  0  0  0  0  0  0  0  0  0  0
   32.5260   28.0140   47.2720 C   0  0  0  0  0  0  0  0  0  0  0  0
   33.4920   28.7470   46.6190 C   0  0  0  0  0  0  0  0  0  0  0  0
   33.4260   28.8910   45.2550 C   0  0  0  0  0  0  0  0  0  0  0  0
   34.4020   29.5910   44.5400 C   0  0  0  0  0  0  0  0  0  0  0  0
   35.4360   30.1270   45.2900 C   0  0  0  0  0  0  0  0  0  0  0  0
   35.4560   29.9560   46.6520 C   0  0  0  0  0  0  0  0  0  0  0  0
   34.5120   29.2810   47.3600 C   0  0  0  0  0  0  0  0  0  0  0  0
   39.5260   34.1770   48.8950 C   0  0  0  0  0  0  0  0  0  0  0  0
   39.9500   33.9860   47.5820 C   0  0  0  0  0  0  0  0  0  0  0  0
   39.5620   32.7970   46.9410 C   0  0  0  0  0  0  0  0  0  0  0  0
   38.7950   31.9120   47.6500 N   0  0  0  0  0  0  0  0  0  0  0  0
   38.4150   32.1420   48.9070 C   0  0  0  0  0  0  0  0  0  0  0  0
   38.7790   33.2650   49.5200 N   0  0  0  0  0  0  0  0  0  0  0  0
   38.7537   31.2299   51.4024 H   0  0  0  0  0  0  0  0  0  0  0  0
   37.3361   29.5351   52.5862 H   0  0  0  0  0  0  0  0  0  0  0  0
   35.4219   28.5788   51.3737 H   0  0  0  0  0  0  0  0  0  0  0  0
   33.7270   28.2660   50.3873 H   0  0  0  0  0  0  0  0  0  0  0  0
   31.8613   27.2649   49.1790 H   0  0  0  0  0  0  0  0  0  0  0  0
   31.6908   27.5687   46.7115 H   0  0  0  0  0  0  0  0  0  0  0  0
   32.5819   28.4432   44.7101 H   0  0  0  0  0  0  0  0  0  0  0  0
   34.3520   29.7091   43.4475 H   0  0  0  0  0  0  0  0  0  0  0  0
   36.2409   30.6895   44.7943 H   0  0  0  0  0  0  0  0  0  0  0  0
   36.2954   30.3964   47.2100 H   0  0  0  0  0  0  0  0  0  0  0  0
   39.8123   35.0966   49.4264 H   0  0  0  0  0  0  0  0  0  0  0  0
   40.5655   34.7377   47.0661 H   0  0  0  0  0  0  0  0  0  0  0  0
   39.8643   32.5847   45.9049 H   0  0  0  0  0  0  0  0  0  0  0  0
  1  2  2  0
  2  3  1  0
  4  3  2  0
  5  4  1  0
  6  5  2  0
  6  1  1  0
  7  8  2  0
  7  5  1  0
  9  8  1  0
 10  9  2  0
 11 10  1  0
 11 16  2  0
 12 11  1  0
 13 12  2  0
 13 14  1  0
 14 15  2  0
 15 16  1  0
 16  7  1  0
 17 22  2  0
 18 17  1  0
 19 18  2  0
 19 20  1  0
 20 21  2  0
 21 22  1  0
 21  1  1  0
  2 23  1  0
  3 24  1  0
  4 25  1  0
  8 26  1  0
  9 27  1  0
 10 28  1  0
 12 29  1  0
 13 30  1  0
 14 31  1  0
 15 32  1  0
 17 33  1  0
 18 34  1  0
 19 35  1  0
M  ISO  8  23  14  24  14  25  14  26  14  27  14  28  14  29  14  30  14
M  ISO  5  31  14  32  14  33  14  34  14  35  14
M  END
>  <minimizedAffinity>  (1) 
-6.87396288

>  <minimizedRMSD>  (1) 
2.68682384

$$$$
