
     RDKit          3D

 29 31  0  0  0  0  0  0  0  0999 V2000
   37.5630   31.1730   49.5120 C   0  0  0  0  0  0  0  0  0  0  0  0
   37.8400   30.7820   50.7940 C   0  0  0  0  0  0  0  0  0  0  0  0
   37.0680   29.8610   51.4700 C   0  0  0  0  0  0  0  0  0  0  0  0
   36.0000   29.3580   50.7700 C   0  0  0  0  0  0  0  0  0  0  0  0
   35.6720   29.7250   49.4500 C   0  0  0  0  0  0  0  0  0  0  0  0
   36.4960   30.6380   48.8770 N   0  0  0  0  0  0  0  0  0  0  0  0
   34.5800   29.2060   48.7430 N   0  0  0  0  0  0  0  0  0  0  0  0
   33.6970   28.3550   49.2950 C   0  0  0  0  0  0  0  0  0  0  0  0
   32.6090   27.8200   48.6330 C   0  0  0  0  0  0  0  0  0  0  0  0
   32.4470   28.2160   47.3020 C   0  0  0  0  0  0  0  0  0  0  0  0
   31.4740   27.7630   46.6470 O   0  0  0  0  0  0  0  0  0  0  0  0
   33.3510   29.0690   46.7860 N   0  0  0  0  0  0  0  0  0  0  0  0
   34.3980   29.5620   47.4760 C   0  0  0  0  0  0  0  0  0  0  0  0
   35.1460   30.3500   46.8370 O   0  0  0  0  0  0  0  0  0  0  0  0
   39.5420   34.1710   48.8580 C   0  0  0  0  0  0  0  0  0  0  0  0
   39.9870   33.9970   47.5490 C   0  0  0  0  0  0  0  0  0  0  0  0
   39.5980   32.8350   46.8980 C   0  0  0  0  0  0  0  0  0  0  0  0
   38.8100   31.9470   47.5770 N   0  0  0  0  0  0  0  0  0  0  0  0
   38.4050   32.1540   48.8310 C   0  0  0  0  0  0  0  0  0  0  0  0
   38.7660   33.2730   49.4940 N   0  0  0  0  0  0  0  0  0  0  0  0
   38.7111   31.2188   51.3042 H   0  0  0  0  0  0  0  0  0  0  0  0
   37.2930   29.5503   52.5010 H   0  0  0  0  0  0  0  0  0  0  0  0
   35.3579   28.6198   51.2727 H   0  0  0  0  0  0  0  0  0  0  0  0
   33.8516   28.0653   50.3448 H   0  0  0  0  0  0  0  0  0  0  0  0
   31.9122   27.1244   49.1235 H   0  0  0  0  0  0  0  0  0  0  0  0
   33.2357   29.3624   45.8054 H   0  0  0  0  0  0  0  0  0  0  0  0
   39.8381   35.0835   49.3962 H   0  0  0  0  0  0  0  0  0  0  0  0
   40.6193   34.7483   47.0532 H   0  0  0  0  0  0  0  0  0  0  0  0
   39.9148   32.6335   45.8640 H   0  0  0  0  0  0  0  0  0  0  0  0
  1  2  2  0
  2  3  1  0
  4  3  2  0
  5  4  1  0
  6  5  2  0
  6  1  1  0
  7  8  1  0
  7  5  1  0
  9  8  2  0
 10  9  1  0
 11 10  2  0
 12 10  1  0
 12 13  1  0
 13  7  1  0
 14 13  2  0
 15 20  2  0
 16 15  1  0
 17 16  2  0
 17 18  1  0
 18 19  2  0
 19 20  1  0
 19  1  1  0
  2 21  1  0
  3 22  1  0
  4 23  1  0
  8 24  1  0
  9 25  1  0
 12 26  1  0
 15 27  1  0
 16 28  1  0
 17 29  1  0
M  ISO  8  21  14  22  14  23  14  24  14  25  14  26   9  27  14  28  14
M  ISO  1  29  14
M  END
>  <minimizedAffinity>  (1) 
-6.52068901

>  <minimizedRMSD>  (1) 
2.51972604

$$$$
