
     RDKit          3D

 29 31  0  0  0  0  0  0  0  0999 V2000
   37.8370   31.0940   48.9320 C   0  0  0  0  0  0  0  0  0  0  0  0
   38.1750   30.9200   50.2540 C   0  0  0  0  0  0  0  0  0  0  0  0
   37.4020   30.1530   51.1020 C   0  0  0  0  0  0  0  0  0  0  0  0
   36.2830   29.5780   50.5510 C   0  0  0  0  0  0  0  0  0  0  0  0
   35.9180   29.7360   49.2260 C   0  0  0  0  0  0  0  0  0  0  0  0
   36.7250   30.5080   48.4330 N   0  0  0  0  0  0  0  0  0  0  0  0
   39.7990   33.9010   47.6620 C   0  0  0  0  0  0  0  0  0  0  0  0
   40.2280   33.4730   46.4100 C   0  0  0  0  0  0  0  0  0  0  0  0
   39.8320   32.2030   46.0100 C   0  0  0  0  0  0  0  0  0  0  0  0
   39.0560   31.4660   46.8610 N   0  0  0  0  0  0  0  0  0  0  0  0
   38.6630   31.9080   48.0550 C   0  0  0  0  0  0  0  0  0  0  0  0
   39.0390   33.1410   48.4580 N   0  0  0  0  0  0  0  0  0  0  0  0
   35.6320   30.1330   46.3080 Cl  0  0  0  0  0  0  0  0  0  0  0  0
   34.4900   29.2430   47.2910 C   0  0  0  0  0  0  0  0  0  0  0  0
   34.7320   29.1250   48.6430 C   0  0  0  0  0  0  0  0  0  0  0  0
   33.7960   28.4140   49.3590 C   0  0  0  0  0  0  0  0  0  0  0  0
   32.6720   27.8370   48.8000 C   0  0  0  0  0  0  0  0  0  0  0  0
   32.4460   27.9640   47.4570 C   0  0  0  0  0  0  0  0  0  0  0  0
   33.3580   28.6650   46.7130 C   0  0  0  0  0  0  0  0  0  0  0  0
   39.0826   31.4035   50.6445 H   0  0  0  0  0  0  0  0  0  0  0  0
   37.6673   30.0102   52.1599 H   0  0  0  0  0  0  0  0  0  0  0  0
   35.6433   28.9592   51.1974 H   0  0  0  0  0  0  0  0  0  0  0  0
   40.0957   34.9013   48.0103 H   0  0  0  0  0  0  0  0  0  0  0  0
   40.8519   34.1106   45.7665 H   0  0  0  0  0  0  0  0  0  0  0  0
   40.1353   31.8001   45.0324 H   0  0  0  0  0  0  0  0  0  0  0  0
   33.9523   28.2982   50.4417 H   0  0  0  0  0  0  0  0  0  0  0  0
   31.9638   27.2794   49.4305 H   0  0  0  0  0  0  0  0  0  0  0  0
   31.5575   27.5162   46.9879 H   0  0  0  0  0  0  0  0  0  0  0  0
   33.1941   28.7755   45.6309 H   0  0  0  0  0  0  0  0  0  0  0  0
  1  2  2  0
  2  3  1  0
  4  3  2  0
  5  4  1  0
  6  1  1  0
  6  5  2  0
  7 12  2  0
  8  7  1  0
  9  8  2  0
  9 10  1  0
 10 11  2  0
 11 12  1  0
 11  1  1  0
 13 14  1  0
 14 15  2  0
 15  5  1  0
 15 16  1  0
 17 16  2  0
 18 17  1  0
 19 14  1  0
 19 18  2  0
  2 20  1  0
  3 21  1  0
  4 22  1  0
  7 23  1  0
  8 24  1  0
  9 25  1  0
 16 26  1  0
 17 27  1  0
 18 28  1  0
 19 29  1  0
M  ISO  8  20  14  21  14  22  14  23  14  24  14  25  14  26  14  27  14
M  ISO  2  28  14  29  14
M  END
>  <minimizedAffinity>  (1) 
-6.15764141

>  <minimizedRMSD>  (1) 
2.71388364

$$$$
