
     RDKit          3D

 32 34  0  0  0  0  0  0  0  0999 V2000
   36.0390   30.2970   48.6520 C   0  0  0  0  0  0  0  0  0  0  0  0
   36.1180   29.3200   49.6320 C   0  0  0  0  0  0  0  0  0  0  0  0
   35.1590   28.3300   49.7480 C   0  0  0  0  0  0  0  0  0  0  0  0
   34.1220   28.3860   48.8200 C   0  0  0  0  0  0  0  0  0  0  0  0
   34.0130   29.3480   47.8300 C   0  0  0  0  0  0  0  0  0  0  0  0
   35.0090   30.2640   47.8140 N   0  0  0  0  0  0  0  0  0  0  0  0
   38.1030   33.1950   49.4860 C   0  0  0  0  0  0  0  0  0  0  0  0
   39.0140   33.2430   48.4360 C   0  0  0  0  0  0  0  0  0  0  0  0
   38.9120   32.2670   47.4260 C   0  0  0  0  0  0  0  0  0  0  0  0
   37.9210   31.3200   47.5320 N   0  0  0  0  0  0  0  0  0  0  0  0
   37.0650   31.3170   48.5680 C   0  0  0  0  0  0  0  0  0  0  0  0
   37.1720   32.2480   49.5170 N   0  0  0  0  0  0  0  0  0  0  0  0
   31.8570   28.5220   47.0190 C   0  0  0  0  0  0  0  0  0  0  0  0
   32.9210   29.3840   46.8720 C   0  0  0  0  0  0  0  0  0  0  0  0
   32.9310   30.2700   45.8170 C   0  0  0  0  0  0  0  0  0  0  0  0
   31.9180   30.3500   44.8760 C   0  0  0  0  0  0  0  0  0  0  0  0
   30.8270   29.5030   44.9820 C   0  0  0  0  0  0  0  0  0  0  0  0
   30.8440   28.6190   46.0560 C   0  0  0  0  0  0  0  0  0  0  0  0
   31.7150   27.3590   48.2940 S   0  0  0  0  0  0  0  0  0  0  0  0
   30.6900   27.7610   49.3420 O   0  0  0  0  0  0  0  0  0  0  0  0
   31.2930   26.0240   47.6950 O   0  0  0  0  0  0  0  0  0  0  0  0
   36.9641   29.3322   50.3348 H   0  0  0  0  0  0  0  0  0  0  0  0
   35.2119   27.5501   50.5219 H   0  0  0  0  0  0  0  0  0  0  0  0
   33.3386   27.6159   48.8772 H   0  0  0  0  0  0  0  0  0  0  0  0
   38.1536   33.9422   50.2917 H   0  0  0  0  0  0  0  0  0  0  0  0
   39.7912   34.0204   48.3958 H   0  0  0  0  0  0  0  0  0  0  0  0
   39.6076   32.2624   46.5739 H   0  0  0  0  0  0  0  0  0  0  0  0
   33.7896   30.9503   45.7167 H   0  0  0  0  0  0  0  0  0  0  0  0
   31.9791   31.0780   44.0536 H   0  0  0  0  0  0  0  0  0  0  0  0
   29.9972   29.5279   44.2604 H   0  0  0  0  0  0  0  0  0  0  0  0
   29.9873   27.9366   46.1581 H   0  0  0  0  0  0  0  0  0  0  0  0
   32.9350   27.2756   48.9117 H   0  0  0  0  0  0  0  0  0  0  0  0
  1  2  2  0
  2  3  1  0
  4  3  2  0
  5  4  1  0
  6  5  2  0
  6  1  1  0
  7 12  2  0
  8  7  1  0
  9 10  1  0
  9  8  2  0
 10 11  2  0
 11  1  1  0
 11 12  1  0
 13 19  1  0
 14 13  2  0
 14  5  1  0
 15 14  1  0
 16 17  1  0
 16 15  2  0
 17 18  2  0
 18 13  1  0
 19 20  2  0
 21 19  2  0
  2 22  1  0
  3 23  1  0
  4 24  1  0
  7 25  1  0
  8 26  1  0
  9 27  1  0
 15 28  1  0
 16 29  1  0
 17 30  1  0
 18 31  1  0
 19 32  1  0
M  ISO  8  22  14  23  14  24  14  25  14  26  14  27  14  28  14  29  14
M  ISO  3  30  14  31  14  32  11
M  END
>  <minimizedAffinity>  (1) 
-5.63337803

>  <minimizedRMSD>  (1) 
0.332539588

$$$$
