
     RDKit          3D

 26 28  0  0  0  0  0  0  0  0999 V2000
   35.9920   30.2760   48.5730 C   0  0  0  0  0  0  0  0  0  0  0  0
   36.0230   29.2720   49.5030 C   0  0  0  0  0  0  0  0  0  0  0  0
   35.0430   28.3050   49.5700 C   0  0  0  0  0  0  0  0  0  0  0  0
   34.0250   28.4160   48.6350 C   0  0  0  0  0  0  0  0  0  0  0  0
   33.9570   29.4180   47.6780 C   0  0  0  0  0  0  0  0  0  0  0  0
   34.9730   30.3340   47.6850 N   0  0  0  0  0  0  0  0  0  0  0  0
   38.0700   33.1380   49.4990 C   0  0  0  0  0  0  0  0  0  0  0  0
   39.0150   33.1980   48.4500 C   0  0  0  0  0  0  0  0  0  0  0  0
   38.9140   32.2480   47.4420 C   0  0  0  0  0  0  0  0  0  0  0  0
   37.9150   31.3100   47.5150 N   0  0  0  0  0  0  0  0  0  0  0  0
   37.0420   31.2870   48.5250 C   0  0  0  0  0  0  0  0  0  0  0  0
   37.1280   32.1990   49.5050 N   0  0  0  0  0  0  0  0  0  0  0  0
   32.9010   29.5370   46.7040 C   0  0  0  0  0  0  0  0  0  0  0  0
   32.0800   28.5570   46.2300 C   0  0  0  0  0  0  0  0  0  0  0  0
   31.2200   29.0620   45.3290 N   0  0  0  0  0  0  0  0  0  0  0  0
   31.4980   30.3740   45.2310 C   0  0  0  0  0  0  0  0  0  0  0  0
   32.5140   30.6510   46.0650 N   0  0  0  0  0  0  0  0  0  0  0  0
   36.8566   29.2358   50.2198 H   0  0  0  0  0  0  0  0  0  0  0  0
   35.0669   27.4976   50.3167 H   0  0  0  0  0  0  0  0  0  0  0  0
   33.2226   27.6638   48.6532 H   0  0  0  0  0  0  0  0  0  0  0  0
   38.1138   33.8730   50.3163 H   0  0  0  0  0  0  0  0  0  0  0  0
   39.8006   33.9678   48.4325 H   0  0  0  0  0  0  0  0  0  0  0  0
   39.6221   32.2474   46.6002 H   0  0  0  0  0  0  0  0  0  0  0  0
   32.1164   27.5025   46.5409 H   0  0  0  0  0  0  0  0  0  0  0  0
   30.4917   28.5459   44.8150 H   0  0  0  0  0  0  0  0  0  0  0  0
   30.9825   31.0957   44.5803 H   0  0  0  0  0  0  0  0  0  0  0  0
  1  2  2  0
  2  3  1  0
  4  3  2  0
  5  6  2  0
  5  4  1  0
  6  1  1  0
  7 12  2  0
  8  7  1  0
  9 10  1  0
  9  8  2  0
 10 11  2  0
 11  1  1  0
 11 12  1  0
 13  5  1  0
 14 13  2  0
 15 14  1  0
 16 15  1  0
 16 17  2  0
 17 13  1  0
  2 18  1  0
  3 19  1  0
  4 20  1  0
  7 21  1  0
  8 22  1  0
  9 23  1  0
 14 24  1  0
 15 25  1  0
 16 26  1  0
M  ISO  8  18  14  19  14  20  14  21  14  22  14  23  14  24  14  25   9
M  ISO  1  26  14
M  END
>  <minimizedAffinity>  (1) 
-5.15539074

>  <minimizedRMSD>  (1) 
0.174820319

$$$$
