
     RDKit          3D

 21 22  0  0  0  0  0  0  0  0999 V2000
   35.9520   30.3140   48.5950 C   0  0  0  0  0  0  0  0  0  0  0  0
   36.0320   29.2720   49.4810 C   0  0  0  0  0  0  0  0  0  0  0  0
   35.0480   28.3050   49.5500 C   0  0  0  0  0  0  0  0  0  0  0  0
   33.9950   28.4570   48.6830 C   0  0  0  0  0  0  0  0  0  0  0  0
   33.8730   29.5110   47.7590 C   0  0  0  0  0  0  0  0  0  0  0  0
   34.8920   30.4210   47.7590 N   0  0  0  0  0  0  0  0  0  0  0  0
   32.7900   29.6540   46.8780 N   0  0  0  0  0  0  0  0  0  0  0  0
   38.1420   33.0930   49.5260 C   0  0  0  0  0  0  0  0  0  0  0  0
   39.0080   33.2100   48.4420 C   0  0  0  0  0  0  0  0  0  0  0  0
   38.8270   32.3220   47.3890 C   0  0  0  0  0  0  0  0  0  0  0  0
   37.8230   31.4040   47.4900 N   0  0  0  0  0  0  0  0  0  0  0  0
   37.0140   31.3240   48.5470 C   0  0  0  0  0  0  0  0  0  0  0  0
   37.1610   32.1710   49.5880 N   0  0  0  0  0  0  0  0  0  0  0  0
   36.9001   29.2039   50.1531 H   0  0  0  0  0  0  0  0  0  0  0  0
   35.1049   27.4642   50.2569 H   0  0  0  0  0  0  0  0  0  0  0  0
   33.1930   27.7047   48.7125 H   0  0  0  0  0  0  0  0  0  0  0  0
   32.7594   30.4494   46.2243 H   0  0  0  0  0  0  0  0  0  0  0  0
   32.0257   28.9636   46.8851 H   0  0  0  0  0  0  0  0  0  0  0  0
   38.2643   33.7858   50.3716 H   0  0  0  0  0  0  0  0  0  0  0  0
   39.8008   33.9722   48.4203 H   0  0  0  0  0  0  0  0  0  0  0  0
   39.4741   32.3581   46.5002 H   0  0  0  0  0  0  0  0  0  0  0  0
  1  2  2  0
  2  3  1  0
  4  3  2  0
  5  4  1  0
  6  5  2  0
  6  1  1  0
  7  5  1  0
  8 13  2  0
  9  8  1  0
 10 11  1  0
 10  9  2  0
 11 12  2  0
 12  1  1  0
 12 13  1  0
  2 14  1  0
  3 15  1  0
  4 16  1  0
  7 17  1  0
  7 18  1  0
  8 19  1  0
  9 20  1  0
 10 21  1  0
M  ISO  6  14  14  15  14  16  14  19  14  20  14  21  14
M  END
>  <minimizedAffinity>  (1) 
-4.98500443

>  <minimizedRMSD>  (1) 
0.167146131

$$$$
