
     RDKit          3D

 20 21  0  0  0  0  0  0  0  0999 V2000
   35.9230   30.2590   48.5800 C   0  0  0  0  0  0  0  0  0  0  0  0
   35.9280   29.3150   49.5980 C   0  0  0  0  0  0  0  0  0  0  0  0
   34.9430   28.3430   49.6760 C   0  0  0  0  0  0  0  0  0  0  0  0
   33.9780   28.3720   48.7010 C   0  0  0  0  0  0  0  0  0  0  0  0
   33.9550   29.3070   47.6750 C   0  0  0  0  0  0  0  0  0  0  0  0
   34.9570   30.2350   47.6600 N   0  0  0  0  0  0  0  0  0  0  0  0
   38.0870   33.0690   49.4860 C   0  0  0  0  0  0  0  0  0  0  0  0
   38.9740   33.1500   48.4140 C   0  0  0  0  0  0  0  0  0  0  0  0
   38.8160   32.2280   47.3830 C   0  0  0  0  0  0  0  0  0  0  0  0
   37.8060   31.3010   47.4790 N   0  0  0  0  0  0  0  0  0  0  0  0
   36.9710   31.2600   48.5330 C   0  0  0  0  0  0  0  0  0  0  0  0
   37.1140   32.1470   49.5380 N   0  0  0  0  0  0  0  0  0  0  0  0
   32.9470   29.2610   46.7360 O   0  0  0  0  0  0  0  0  0  0  0  0
   36.7262   29.3388   50.3545 H   0  0  0  0  0  0  0  0  0  0  0  0
   34.9353   27.5887   50.4767 H   0  0  0  0  0  0  0  0  0  0  0  0
   33.1808   27.6147   48.7340 H   0  0  0  0  0  0  0  0  0  0  0  0
   38.1880   33.7839   50.3159 H   0  0  0  0  0  0  0  0  0  0  0  0
   39.7670   33.9118   48.3838 H   0  0  0  0  0  0  0  0  0  0  0  0
   39.4853   32.2412   46.5101 H   0  0  0  0  0  0  0  0  0  0  0  0
   32.9241   29.9244   46.0015 H   0  0  0  0  0  0  0  0  0  0  0  0
  1  2  2  0
  2  3  1  0
  4  3  2  0
  5  4  1  0
  6  5  2  0
  6  1  1  0
  7 12  2  0
  8  7  1  0
  9 10  1  0
  9  8  2  0
 10 11  2  0
 11  1  1  0
 11 12  1  0
 13  5  1  0
  2 14  1  0
  3 15  1  0
  4 16  1  0
  7 17  1  0
  8 18  1  0
  9 19  1  0
 13 20  1  0
M  ISO  7  14  14  15  14  16  14  17  14  18  14  19  14  20   3
M  END
>  <minimizedAffinity>  (1) 
-4.8393178

>  <minimizedRMSD>  (1) 
0.016569443

$$$$
