
     RDKit          3D

 37 39  0  0  1  0  0  0  0  0999 V2000
   38.1240   32.4330   48.2680 C   0  0  1  0  0  0  0  0  0  0  0  0
   39.3350   33.3050   47.9160 C   0  0  0  0  0  0  0  0  0  0  0  0
   39.1710   31.9510   47.3480 C   0  0  2  0  0  0  0  0  0  0  0  0
   39.7060   30.6590   45.3860 C   0  0  1  0  0  0  0  0  0  0  0  0
   38.8740   31.7930   45.8660 C   0  0  2  0  0  0  0  0  0  0  0  0
   38.9120   32.9490   45.1660 O   0  0  0  0  0  0  0  0  0  0  0  0
   39.7660   33.0760   44.1200 C   0  0  0  0  0  0  0  0  0  0  0  0
   40.0400   31.8710   43.2950 C   0  0  1  0  0  0  0  0  0  0  0  0
   39.6940   30.5580   43.9030 C   0  0  2  0  0  0  0  0  0  0  0  0
   40.9950   30.6840   45.9180 O   0  0  0  0  0  0  0  0  0  0  0  0
   39.4380   31.9170   42.0240 O   0  0  0  0  0  0  0  0  0  0  0  0
   38.4570   30.0600   43.5030 O   0  0  0  0  0  0  0  0  0  0  0  0
   38.0970   32.0380   49.7150 C   0  0  0  0  0  0  0  0  0  0  0  0
   36.1310   29.3470   51.4330 C   0  0  0  0  0  0  0  0  0  0  0  0
   37.1710   30.2730   51.1260 C   0  0  0  0  0  0  0  0  0  0  0  0
   37.0070   31.0860   50.0140 C   0  0  0  0  0  0  0  0  0  0  0  0
   35.8890   30.9690   49.2820 N   0  0  0  0  0  0  0  0  0  0  0  0
   34.9150   30.0820   49.5910 C   0  0  0  0  0  0  0  0  0  0  0  0
   35.0490   29.2830   50.6630 N   0  0  0  0  0  0  0  0  0  0  0  0
   37.0272   32.4488   48.1857 H   0  0  0  0  0  0  0  0  0  0  0  0
   39.2117   34.1921   47.2774 H   0  0  0  0  0  0  0  0  0  0  0  0
   40.1175   33.8293   48.4841 H   0  0  0  0  0  0  0  0  0  0  0  0
   39.8000   31.0489   47.3218 H   0  0  0  0  0  0  0  0  0  0  0  0
   39.2445   29.7355   45.7658 H   0  0  0  0  0  0  0  0  0  0  0  0
   37.8214   31.5297   45.6854 H   0  0  0  0  0  0  0  0  0  0  0  0
   39.3516   33.8440   43.4503 H   0  0  0  0  0  0  0  0  0  0  0  0
   40.7340   33.3191   44.5826 H   0  0  0  0  0  0  0  0  0  0  0  0
   41.1360   31.9214   43.2163 H   0  0  0  0  0  0  0  0  0  0  0  0
   40.4615   29.8557   43.5456 H   0  0  0  0  0  0  0  0  0  0  0  0
   40.9440   30.6830   46.9067 H   0  0  0  0  0  0  0  0  0  0  0  0
   38.4562   31.9920   42.1264 H   0  0  0  0  0  0  0  0  0  0  0  0
   37.9150   29.8418   44.3022 H   0  0  0  0  0  0  0  0  0  0  0  0
   39.0579   31.5682   49.9719 H   0  0  0  0  0  0  0  0  0  0  0  0
   37.9238   32.9470   50.3098 H   0  0  0  0  0  0  0  0  0  0  0  0
   36.2239   28.6855   52.3070 H   0  0  0  0  0  0  0  0  0  0  0  0
   38.0739   30.3405   51.7506 H   0  0  0  0  0  0  0  0  0  0  0  0
   34.0133   30.0150   48.9645 H   0  0  0  0  0  0  0  0  0  0  0  0
  1 13  1  0
  2  1  1  0
  3  2  1  0
  3  1  1  0
  4  5  1  0
  4 10  1  0
  5  6  1  0
  5  3  1  0
  7  6  1  0
  8 11  1  0
  8  9  1  0
  8  7  1  0
  9 12  1  0
  9  4  1  0
 13 16  1  0
 15 14  2  0
 16 15  1  0
 17 18  1  0
 17 16  2  0
 18 19  2  0
 19 14  1  0
  1 20  1  6
  2 21  1  0
  2 22  1  0
  3 23  1  1
  4 24  1  1
  5 25  1  1
  7 26  1  0
  7 27  1  0
  8 28  1  6
  9 29  1  1
 10 30  1  0
 11 31  1  0
 12 32  1  0
 13 33  1  0
 13 34  1  0
 14 35  1  0
 15 36  1  0
 18 37  1  0
M  ISO  8  20  13  21  13  22  13  23  13  24  13  25  13  26  13  27  13
M  ISO  8  28  13  29  13  30   3  31   3  32   3  33   8  34   8  35  14
M  ISO  2  36  14  37  14
M  END
>  <minimizedAffinity>  (1) 
-6.20167875

>  <minimizedRMSD>  (1) 
1.99575388

$$$$
