
     RDKit          3D

 34 36  0  0  0  0  0  0  0  0999 V2000
   36.0120   30.2900   48.6340 C   0  0  0  0  0  0  0  0  0  0  0  0
   36.0570   29.3250   49.6310 C   0  0  0  0  0  0  0  0  0  0  0  0
   35.0940   28.3380   49.7130 C   0  0  0  0  0  0  0  0  0  0  0  0
   34.0990   28.3800   48.7490 C   0  0  0  0  0  0  0  0  0  0  0  0
   34.0390   29.3370   47.7470 C   0  0  0  0  0  0  0  0  0  0  0  0
   35.0170   30.2750   47.7260 N   0  0  0  0  0  0  0  0  0  0  0  0
   32.9830   29.2830   46.8220 N   0  0  0  0  0  0  0  0  0  0  0  0
   31.8380   28.4520   47.1360 C   0  0  0  0  0  0  0  0  0  0  0  0
   30.9530   28.4450   45.9080 C   0  0  0  0  0  0  0  0  0  0  0  0
   30.5200   29.8800   45.6130 C   0  0  0  0  0  0  0  0  0  0  0  0
   31.6870   30.8040   45.5070 C   0  0  0  0  0  0  0  0  0  0  0  0
   32.9720   30.0100   45.5690 C   0  0  0  0  0  0  0  0  0  0  0  0
   38.0940   33.1790   49.4970 C   0  0  0  0  0  0  0  0  0  0  0  0
   39.0200   33.2220   48.4450 C   0  0  0  0  0  0  0  0  0  0  0  0
   38.9170   32.2580   47.4530 C   0  0  0  0  0  0  0  0  0  0  0  0
   37.9210   31.3200   47.5520 N   0  0  0  0  0  0  0  0  0  0  0  0
   37.0480   31.3120   48.5840 C   0  0  0  0  0  0  0  0  0  0  0  0
   37.1450   32.2370   49.5360 N   0  0  0  0  0  0  0  0  0  0  0  0
   36.8732   29.3467   50.3681 H   0  0  0  0  0  0  0  0  0  0  0  0
   35.1155   27.5656   50.4959 H   0  0  0  0  0  0  0  0  0  0  0  0
   33.3129   27.6112   48.7804 H   0  0  0  0  0  0  0  0  0  0  0  0
   32.1660   27.4290   47.3723 H   0  0  0  0  0  0  0  0  0  0  0  0
   31.2962   28.8407   48.0109 H   0  0  0  0  0  0  0  0  0  0  0  0
   31.5120   28.0425   45.0503 H   0  0  0  0  0  0  0  0  0  0  0  0
   30.0695   27.8139   46.0843 H   0  0  0  0  0  0  0  0  0  0  0  0
   29.9666   29.8960   44.6625 H   0  0  0  0  0  0  0  0  0  0  0  0
   29.8887   30.2231   46.4459 H   0  0  0  0  0  0  0  0  0  0  0  0
   31.6609   31.5231   46.3390 H   0  0  0  0  0  0  0  0  0  0  0  0
   31.6383   31.3446   44.5502 H   0  0  0  0  0  0  0  0  0  0  0  0
   33.0169   29.3043   44.7264 H   0  0  0  0  0  0  0  0  0  0  0  0
   33.8416   30.6807   45.5061 H   0  0  0  0  0  0  0  0  0  0  0  0
   38.1486   33.9289   50.2999 H   0  0  0  0  0  0  0  0  0  0  0  0
   39.8022   33.9946   48.4076 H   0  0  0  0  0  0  0  0  0  0  0  0
   39.6184   32.2460   46.6057 H   0  0  0  0  0  0  0  0  0  0  0  0
  1  2  2  0
  2  3  1  0
  4  3  2  0
  5  4  1  0
  6  5  2  0
  6  1  1  0
  7  8  1  0
  7  5  1  0
  9  8  1  0
 10  9  1  0
 11 12  1  0
 11 10  1  0
 12  7  1  0
 13 18  2  0
 14 13  1  0
 15 16  1  0
 15 14  2  0
 16 17  2  0
 17  1  1  0
 17 18  1  0
  2 19  1  0
  3 20  1  0
  4 21  1  0
  8 22  1  0
  8 23  1  0
  9 24  1  0
  9 25  1  0
 10 26  1  0
 10 27  1  0
 11 28  1  0
 11 29  1  0
 12 30  1  0
 12 31  1  0
 13 32  1  0
 14 33  1  0
 15 34  1  0
M  ISO  8  19  14  20  14  21  14  22  13  23  13  24  13  25  13  26  13
M  ISO  8  27  13  28  13  29  13  30  13  31  13  32  14  33  14  34  14
M  END
>  <minimizedAffinity>  (1) 
-5.65144157

>  <minimizedRMSD>  (1) 
0.139348119

$$$$
