
     RDKit          3D

 50 53  0  0  0  0  0  0  0  0999 V2000
   35.9000   30.2560   48.7560 C   0  0  0  0  0  0  0  0  0  0  0  0
   35.9380   29.3330   49.7840 C   0  0  0  0  0  0  0  0  0  0  0  0
   34.9770   28.3450   49.8860 C   0  0  0  0  0  0  0  0  0  0  0  0
   33.9950   28.3390   48.9110 C   0  0  0  0  0  0  0  0  0  0  0  0
   33.9470   29.2600   47.8750 C   0  0  0  0  0  0  0  0  0  0  0  0
   34.9140   30.1950   47.8370 N   0  0  0  0  0  0  0  0  0  0  0  0
   32.9030   29.1670   46.9340 N   0  0  0  0  0  0  0  0  0  0  0  0
   31.7820   28.3100   47.2310 C   0  0  0  0  0  0  0  0  0  0  0  0
   30.8880   28.2890   46.0270 C   0  0  0  0  0  0  0  0  0  0  0  0
   30.4390   29.7070   45.6980 C   0  0  0  0  0  0  0  0  0  0  0  0
   31.5890   30.6570   45.5970 C   0  0  0  0  0  0  0  0  0  0  0  0
   32.8810   29.8810   45.6780 C   0  0  0  0  0  0  0  0  0  0  0  0
   38.0850   33.0580   49.6410 C   0  0  0  0  0  0  0  0  0  0  0  0
   38.8720   33.2170   48.5040 C   0  0  0  0  0  0  0  0  0  0  0  0
   38.6400   32.3610   47.4490 C   0  0  0  0  0  0  0  0  0  0  0  0
   37.6720   31.4070   47.5500 N   0  0  0  0  0  0  0  0  0  0  0  0
   36.9240   31.2800   48.6770 C   0  0  0  0  0  0  0  0  0  0  0  0
   37.1570   32.1110   49.6820 N   0  0  0  0  0  0  0  0  0  0  0  0
   39.3840   32.3860   46.1630 C   0  0  0  0  0  0  0  0  0  0  0  0
   38.3460   32.5200   45.0470 C   0  0  0  0  0  0  0  0  0  0  0  0
   39.0890   32.8460   43.7920 C   0  0  0  0  0  0  0  0  0  0  0  0
   40.1550   31.8550   43.4680 C   0  0  0  0  0  0  0  0  0  0  0  0
   40.9440   31.3560   44.6350 C   0  0  0  0  0  0  0  0  0  0  0  0
   40.1190   31.0970   45.8760 C   0  0  0  0  0  0  0  0  0  0  0  0
   36.7438   29.3854   50.5309 H   0  0  0  0  0  0  0  0  0  0  0  0
   34.9919   27.6035   50.6983 H   0  0  0  0  0  0  0  0  0  0  0  0
   33.2141   27.5658   48.9600 H   0  0  0  0  0  0  0  0  0  0  0  0
   32.1371   27.2924   47.4509 H   0  0  0  0  0  0  0  0  0  0  0  0
   31.2348   28.6842   48.1088 H   0  0  0  0  0  0  0  0  0  0  0  0
   31.4374   27.8711   45.1705 H   0  0  0  0  0  0  0  0  0  0  0  0
   30.0059   27.6667   46.2383 H   0  0  0  0  0  0  0  0  0  0  0  0
   29.9047   29.6948   44.7366 H   0  0  0  0  0  0  0  0  0  0  0  0
   29.7881   30.0520   46.5149 H   0  0  0  0  0  0  0  0  0  0  0  0
   31.5420   31.3810   46.4238 H   0  0  0  0  0  0  0  0  0  0  0  0
   31.5406   31.1961   44.6394 H   0  0  0  0  0  0  0  0  0  0  0  0
   32.9391   29.1671   44.8432 H   0  0  0  0  0  0  0  0  0  0  0  0
   33.7393   30.5662   45.6163 H   0  0  0  0  0  0  0  0  0  0  0  0
   38.2329   33.7192   50.5076 H   0  0  0  0  0  0  0  0  0  0  0  0
   39.6480   33.9947   48.4496 H   0  0  0  0  0  0  0  0  0  0  0  0
   40.1124   33.2083   46.2196 H   0  0  0  0  0  0  0  0  0  0  0  0
   37.7979   31.5740   44.9260 H   0  0  0  0  0  0  0  0  0  0  0  0
   37.6152   33.3070   45.2848 H   0  0  0  0  0  0  0  0  0  0  0  0
   38.3721   32.8739   42.9582 H   0  0  0  0  0  0  0  0  0  0  0  0
   39.5809   33.8178   43.9456 H   0  0  0  0  0  0  0  0  0  0  0  0
   39.6778   30.9890   42.9860 H   0  0  0  0  0  0  0  0  0  0  0  0
   40.8718   32.3822   42.8213 H   0  0  0  0  0  0  0  0  0  0  0  0
   41.4334   30.4150   44.3435 H   0  0  0  0  0  0  0  0  0  0  0  0
   41.6625   32.1481   44.8927 H   0  0  0  0  0  0  0  0  0  0  0  0
   39.4037   30.2809   45.6962 H   0  0  0  0  0  0  0  0  0  0  0  0
   40.7507   30.7954   46.7245 H   0  0  0  0  0  0  0  0  0  0  0  0
  1  2  2  0
  2  3  1  0
  4  3  2  0
  5  4  1  0
  6  5  2  0
  6  1  1  0
  7  8  1  0
  7  5  1  0
  9  8  1  0
 10  9  1  0
 11 12  1  0
 11 10  1  0
 12  7  1  0
 13 18  2  0
 14 13  1  0
 15 16  1  0
 15 14  2  0
 16 17  2  0
 17  1  1  0
 17 18  1  0
 19 15  1  0
 20 19  1  0
 21 20  1  0
 22 21  1  0
 22 23  1  0
 23 24  1  0
 24 19  1  0
  2 25  1  0
  3 26  1  0
  4 27  1  0
  8 28  1  0
  8 29  1  0
  9 30  1  0
  9 31  1  0
 10 32  1  0
 10 33  1  0
 11 34  1  0
 11 35  1  0
 12 36  1  0
 12 37  1  0
 13 38  1  0
 14 39  1  0
 19 40  1  0
 20 41  1  0
 20 42  1  0
 21 43  1  0
 21 44  1  0
 22 45  1  0
 22 46  1  0
 23 47  1  0
 23 48  1  0
 24 49  1  0
 24 50  1  0
M  ISO  8  25  14  26  14  27  14  28  13  29  13  30  13  31  13  32  13
M  ISO  8  33  13  34  13  35  13  36  13  37  13  38  14  39  14  40  13
M  ISO  8  41  13  42  13  43  13  44  13  45  13  46  13  47  13  48  13
M  ISO  2  49  13  50  13
M  END
>  <minimizedAffinity>  (1) 
-7.4203763

>  <minimizedRMSD>  (1) 
0.743348241

$$$$
