
     RDKit          3D

 44 47  0  0  0  0  0  0  0  0999 V2000
   36.9190   30.8470   49.3810 C   0  0  0  0  0  0  0  0  0  0  0  0
   37.0180   30.5210   50.7360 C   0  0  0  0  0  0  0  0  0  0  0  0
   36.1460   29.6120   51.3150 C   0  0  0  0  0  0  0  0  0  0  0  0
   35.1940   29.0620   50.4720 C   0  0  0  0  0  0  0  0  0  0  0  0
   35.0830   29.3750   49.1250 C   0  0  0  0  0  0  0  0  0  0  0  0
   35.9690   30.2760   48.6160 N   0  0  0  0  0  0  0  0  0  0  0  0
   34.0780   28.7530   48.3770 N   0  0  0  0  0  0  0  0  0  0  0  0
   33.0000   28.0840   49.0580 C   0  0  0  0  0  0  0  0  0  0  0  0
   32.1580   27.3980   47.9970 C   0  0  0  0  0  0  0  0  0  0  0  0
   31.6290   28.4320   47.0270 C   0  0  0  0  0  0  0  0  0  0  0  0
   32.7150   29.2820   46.4720 C   0  0  0  0  0  0  0  0  0  0  0  0
   34.0620   28.7430   46.9200 C   0  0  0  0  0  0  0  0  0  0  0  0
   39.1640   33.7020   48.9940 C   0  0  0  0  0  0  0  0  0  0  0  0
   39.6250   33.5720   47.6870 C   0  0  0  0  0  0  0  0  0  0  0  0
   39.1560   32.5050   46.9570 C   0  0  0  0  0  0  0  0  0  0  0  0
   38.2790   31.6420   47.5410 N   0  0  0  0  0  0  0  0  0  0  0  0
   37.8510   31.8020   48.8250 C   0  0  0  0  0  0  0  0  0  0  0  0
   38.2960   32.8330   49.5460 N   0  0  0  0  0  0  0  0  0  0  0  0
   39.5300   32.2170   45.5790 C   0  0  0  0  0  0  0  0  0  0  0  0
   39.1310   33.0710   44.5940 C   0  0  0  0  0  0  0  0  0  0  0  0
   39.4600   32.8440   43.2570 C   0  0  0  0  0  0  0  0  0  0  0  0
   40.2030   31.7500   42.8700 C   0  0  0  0  0  0  0  0  0  0  0  0
   40.5960   30.9010   43.8850 C   0  0  0  0  0  0  0  0  0  0  0  0
   40.2750   31.1140   45.2200 C   0  0  0  0  0  0  0  0  0  0  0  0
   37.7984   30.9920   51.3517 H   0  0  0  0  0  0  0  0  0  0  0  0
   36.2063   29.3435   52.3800 H   0  0  0  0  0  0  0  0  0  0  0  0
   34.4851   28.3351   50.8952 H   0  0  0  0  0  0  0  0  0  0  0  0
   33.4022   27.3390   49.7603 H   0  0  0  0  0  0  0  0  0  0  0  0
   32.3961   28.8010   49.6335 H   0  0  0  0  0  0  0  0  0  0  0  0
   32.7760   26.6679   47.4538 H   0  0  0  0  0  0  0  0  0  0  0  0
   31.3146   26.8795   48.4765 H   0  0  0  0  0  0  0  0  0  0  0  0
   31.1236   27.9153   46.1978 H   0  0  0  0  0  0  0  0  0  0  0  0
   30.9320   29.0848   47.5729 H   0  0  0  0  0  0  0  0  0  0  0  0
   32.5943   30.3135   46.8346 H   0  0  0  0  0  0  0  0  0  0  0  0
   32.6634   29.2699   45.3733 H   0  0  0  0  0  0  0  0  0  0  0  0
   34.1967   27.7157   46.5504 H   0  0  0  0  0  0  0  0  0  0  0  0
   34.8783   29.3626   46.5204 H   0  0  0  0  0  0  0  0  0  0  0  0
   39.5227   34.5475   49.5994 H   0  0  0  0  0  0  0  0  0  0  0  0
   40.3351   34.2930   47.2558 H   0  0  0  0  0  0  0  0  0  0  0  0
   38.5369   33.9581   44.8589 H   0  0  0  0  0  0  0  0  0  0  0  0
   39.1174   33.5567   42.4924 H   0  0  0  0  0  0  0  0  0  0  0  0
   40.4664   31.5648   41.8182 H   0  0  0  0  0  0  0  0  0  0  0  0
   41.1916   30.0136   43.6246 H   0  0  0  0  0  0  0  0  0  0  0  0
   40.6145   30.4042   45.9887 H   0  0  0  0  0  0  0  0  0  0  0  0
  1  2  2  0
  2  3  1  0
  4  3  2  0
  5  4  1  0
  6  5  2  0
  6  1  1  0
  7  8  1  0
  7  5  1  0
  9  8  1  0
 10  9  1  0
 11 12  1  0
 11 10  1  0
 12  7  1  0
 13 18  2  0
 14 13  1  0
 15 16  1  0
 15 14  2  0
 16 17  2  0
 17  1  1  0
 17 18  1  0
 19 15  1  0
 20 19  2  0
 21 20  1  0
 22 21  2  0
 22 23  1  0
 23 24  2  0
 24 19  1  0
  2 25  1  0
  3 26  1  0
  4 27  1  0
  8 28  1  0
  8 29  1  0
  9 30  1  0
  9 31  1  0
 10 32  1  0
 10 33  1  0
 11 34  1  0
 11 35  1  0
 12 36  1  0
 12 37  1  0
 13 38  1  0
 14 39  1  0
 20 40  1  0
 21 41  1  0
 22 42  1  0
 23 43  1  0
 24 44  1  0
M  ISO  8  25  14  26  14  27  14  28  13  29  13  30  13  31  13  32  13
M  ISO  8  33  13  34  13  35  13  36  13  37  13  38  14  39  14  40  14
M  ISO  4  41  14  42  14  43  14  44  14
M  END
>  <minimizedAffinity>  (1) 
-7.35270405

>  <minimizedRMSD>  (1) 
1.64837682

$$$$
