
     RDKit          3D

 34 37  0  0  1  0  0  0  0  0999 V2000
   38.8870   32.2970   46.7810 C   0  0  1  0  0  0  0  0  0  0  0  0
   40.0320   33.1010   46.1540 C   0  0  0  0  0  0  0  0  0  0  0  0
   40.0270   31.6010   46.1530 C   0  0  2  0  0  0  0  0  0  0  0  0
   38.9940   29.8120   44.7880 C   0  0  0  0  0  0  0  0  0  0  0  0
   39.7930   30.9340   44.8460 C   0  0  0  0  0  0  0  0  0  0  0  0
   40.3450   31.3930   43.6680 C   0  0  0  0  0  0  0  0  0  0  0  0
   40.1620   30.8150   42.4290 C   0  0  0  0  0  0  0  0  0  0  0  0
   40.5310   30.9980   41.1690 N   0  0  0  0  0  0  0  0  0  0  0  0
   40.0110   30.0640   40.3540 C   0  0  0  0  0  0  0  0  0  0  0  0
   39.2450   29.2020   41.1270 C   0  0  0  0  0  0  0  0  0  0  0  0
   39.3430   29.6820   42.4380 C   0  0  0  0  0  0  0  0  0  0  0  0
   38.7490   29.1560   43.5820 C   0  0  0  0  0  0  0  0  0  0  0  0
   38.7460   32.4990   48.2530 C   0  0  0  0  0  0  0  0  0  0  0  0
   37.5310   30.1490   50.9070 C   0  0  0  0  0  0  0  0  0  0  0  0
   38.2350   31.2060   50.2530 C   0  0  0  0  0  0  0  0  0  0  0  0
   38.0010   31.3940   48.9060 C   0  0  0  0  0  0  0  0  0  0  0  0
   37.1380   30.6000   48.2590 N   0  0  0  0  0  0  0  0  0  0  0  0
   36.4800   29.6040   48.8990 C   0  0  0  0  0  0  0  0  0  0  0  0
   36.6780   29.3800   50.2200 N   0  0  0  0  0  0  0  0  0  0  0  0
   37.8025   32.1538   46.6654 H   0  0  0  0  0  0  0  0  0  0  0  0
   39.8722   33.6570   45.2184 H   0  0  0  0  0  0  0  0  0  0  0  0
   40.7224   33.8866   46.4950 H   0  0  0  0  0  0  0  0  0  0  0  0
   40.7286   30.8265   46.4964 H   0  0  0  0  0  0  0  0  0  0  0  0
   38.5401   29.4260   45.7126 H   0  0  0  0  0  0  0  0  0  0  0  0
   40.9803   32.2894   43.7208 H   0  0  0  0  0  0  0  0  0  0  0  0
   41.1427   31.7639   40.8525 H   0  0  0  0  0  0  0  0  0  0  0  0
   40.1651   29.9949   39.2670 H   0  0  0  0  0  0  0  0  0  0  0  0
   38.6790   28.3245   40.7811 H   0  0  0  0  0  0  0  0  0  0  0  0
   38.1127   28.2599   43.5365 H   0  0  0  0  0  0  0  0  0  0  0  0
   39.7496   32.5606   48.6990 H   0  0  0  0  0  0  0  0  0  0  0  0
   38.1773   33.4271   48.4116 H   0  0  0  0  0  0  0  0  0  0  0  0
   37.6907   29.9664   51.9799 H   0  0  0  0  0  0  0  0  0  0  0  0
   38.9388   31.8475   50.8036 H   0  0  0  0  0  0  0  0  0  0  0  0
   35.7767   28.9697   48.3394 H   0  0  0  0  0  0  0  0  0  0  0  0
  1 13  1  0
  2  1  1  0
  3  2  1  0
  3  1  1  0
  4  5  2  0
  5  3  1  0
  6  5  1  0
  7 11  1  0
  7  6  2  0
  8  7  1  0
  9 10  2  0
  9  8  1  0
 10 11  1  0
 11 12  2  0
 12  4  1  0
 13 16  1  0
 15 14  2  0
 16 15  1  0
 17 18  1  0
 17 16  2  0
 18 19  2  0
 19 14  1  0
  1 20  1  6
  2 21  1  0
  2 22  1  0
  3 23  1  1
  4 24  1  0
  6 25  1  0
  8 26  1  0
  9 27  1  0
 10 28  1  0
 12 29  1  0
 13 30  1  0
 13 31  1  0
 14 32  1  0
 15 33  1  0
 18 34  1  0
M  ISO  8  20  13  21  13  22  13  23  13  24  14  25  14  26   9  27  14
M  ISO  7  28  14  29  14  30   8  31   8  32  14  33  14  34  14
M  END
>  <minimizedAffinity>  (1) 
-5.75611305

>  <minimizedRMSD>  (1) 
0.611145496

$$$$
