
     RDKit          3D

 49 52  0  0  0  0  0  0  0  0999 V2000
   36.9070   30.8410   49.3590 C   0  0  0  0  0  0  0  0  0  0  0  0
   37.0130   30.5260   50.7170 C   0  0  0  0  0  0  0  0  0  0  0  0
   36.1400   29.6220   51.2990 C   0  0  0  0  0  0  0  0  0  0  0  0
   35.1840   29.0680   50.4640 C   0  0  0  0  0  0  0  0  0  0  0  0
   35.0770   29.3790   49.1130 C   0  0  0  0  0  0  0  0  0  0  0  0
   35.9550   30.2670   48.6050 N   0  0  0  0  0  0  0  0  0  0  0  0
   34.0670   28.7550   48.3630 N   0  0  0  0  0  0  0  0  0  0  0  0
   33.0140   28.0570   49.0510 C   0  0  0  0  0  0  0  0  0  0  0  0
   32.1440   27.3960   48.0150 C   0  0  0  0  0  0  0  0  0  0  0  0
   31.5960   28.4270   47.0510 C   0  0  0  0  0  0  0  0  0  0  0  0
   32.6780   29.2830   46.4750 C   0  0  0  0  0  0  0  0  0  0  0  0
   34.0190   28.7690   46.9100 C   0  0  0  0  0  0  0  0  0  0  0  0
   39.1840   33.6860   49.0000 C   0  0  0  0  0  0  0  0  0  0  0  0
   39.6090   33.5780   47.6580 C   0  0  0  0  0  0  0  0  0  0  0  0
   39.1020   32.5340   46.9210 C   0  0  0  0  0  0  0  0  0  0  0  0
   38.2290   31.6700   47.5100 N   0  0  0  0  0  0  0  0  0  0  0  0
   37.8410   31.7960   48.7860 C   0  0  0  0  0  0  0  0  0  0  0  0
   38.3220   32.8060   49.5240 N   0  0  0  0  0  0  0  0  0  0  0  0
   39.4600   32.3310   45.5620 N   0  0  0  0  0  0  0  0  0  0  0  0
   39.8560   33.3910   44.6870 C   0  0  0  0  0  0  0  0  0  0  0  0
   39.4480   33.0310   43.2590 C   0  0  0  0  0  0  0  0  0  0  0  0
   40.1570   31.8090   42.7560 C   0  0  0  0  0  0  0  0  0  0  0  0
   40.5180   30.8840   43.9210 C   0  0  0  0  0  0  0  0  0  0  0  0
   39.4380   30.9990   44.9870 C   0  0  0  0  0  0  0  0  0  0  0  0
   37.7956   30.9997   51.3278 H   0  0  0  0  0  0  0  0  0  0  0  0
   36.2024   29.3587   52.3652 H   0  0  0  0  0  0  0  0  0  0  0  0
   34.4733   28.3453   50.8913 H   0  0  0  0  0  0  0  0  0  0  0  0
   33.4440   27.2960   49.7188 H   0  0  0  0  0  0  0  0  0  0  0  0
   32.4222   28.7579   49.6581 H   0  0  0  0  0  0  0  0  0  0  0  0
   32.7406   26.6592   47.4572 H   0  0  0  0  0  0  0  0  0  0  0  0
   31.3037   26.8972   48.5200 H   0  0  0  0  0  0  0  0  0  0  0  0
   31.0791   27.9074   46.2307 H   0  0  0  0  0  0  0  0  0  0  0  0
   30.9050   29.0787   47.6057 H   0  0  0  0  0  0  0  0  0  0  0  0
   32.5517   30.3174   46.8272 H   0  0  0  0  0  0  0  0  0  0  0  0
   32.6172   29.2551   45.3770 H   0  0  0  0  0  0  0  0  0  0  0  0
   34.1664   27.7490   46.5255 H   0  0  0  0  0  0  0  0  0  0  0  0
   34.8140   29.4193   46.5162 H   0  0  0  0  0  0  0  0  0  0  0  0
   39.5672   34.5062   49.6249 H   0  0  0  0  0  0  0  0  0  0  0  0
   40.3158   34.2986   47.2207 H   0  0  0  0  0  0  0  0  0  0  0  0
   39.3589   34.3246   44.9890 H   0  0  0  0  0  0  0  0  0  0  0  0
   40.9458   33.5310   44.7397 H   0  0  0  0  0  0  0  0  0  0  0  0
   38.3640   32.8454   43.2368 H   0  0  0  0  0  0  0  0  0  0  0  0
   39.7246   33.8729   42.6074 H   0  0  0  0  0  0  0  0  0  0  0  0
   39.5003   31.2712   42.0563 H   0  0  0  0  0  0  0  0  0  0  0  0
   41.0814   32.1175   42.2457 H   0  0  0  0  0  0  0  0  0  0  0  0
   40.5771   29.8451   43.5643 H   0  0  0  0  0  0  0  0  0  0  0  0
   41.4925   31.1731   44.3415 H   0  0  0  0  0  0  0  0  0  0  0  0
   38.4538   30.8130   44.5323 H   0  0  0  0  0  0  0  0  0  0  0  0
   39.6251   30.2573   45.7775 H   0  0  0  0  0  0  0  0  0  0  0  0
  1  2  2  0
  2  3  1  0
  4  3  2  0
  5  4  1  0
  6  5  2  0
  6  1  1  0
  7  8  1  0
  7  5  1  0
  9  8  1  0
 10  9  1  0
 11 12  1  0
 11 10  1  0
 12  7  1  0
 13 18  2  0
 14 13  1  0
 15 16  1  0
 15 14  2  0
 16 17  2  0
 17  1  1  0
 17 18  1  0
 19 15  1  0
 20 19  1  0
 21 20  1  0
 22 21  1  0
 22 23  1  0
 23 24  1  0
 24 19  1  0
  2 25  1  0
  3 26  1  0
  4 27  1  0
  8 28  1  0
  8 29  1  0
  9 30  1  0
  9 31  1  0
 10 32  1  0
 10 33  1  0
 11 34  1  0
 11 35  1  0
 12 36  1  0
 12 37  1  0
 13 38  1  0
 14 39  1  0
 20 40  1  0
 20 41  1  0
 21 42  1  0
 21 43  1  0
 22 44  1  0
 22 45  1  0
 23 46  1  0
 23 47  1  0
 24 48  1  0
 24 49  1  0
M  ISO  8  25  14  26  14  27  14  28  13  29  13  30  13  31  13  32  13
M  ISO  8  33  13  34  13  35  13  36  13  37  13  38  14  39  14  40  13
M  ISO  8  41  13  42  13  43  13  44  13  45  13  46  13  47  13  48  13
M  ISO  1  49  13
M  END
>  <minimizedAffinity>  (1) 
-7.17349529

>  <minimizedRMSD>  (1) 
1.75845909

$$$$
