
     RDKit          3D

 45 48  0  0  0  0  0  0  0  0999 V2000
   34.3880   29.0590   48.1880 C   0  0  0  0  0  0  0  0  0  0  0  0
   33.7790   27.9460   48.7650 C   0  0  0  0  0  0  0  0  0  0  0  0
   32.5310   27.5200   48.3470 C   0  0  0  0  0  0  0  0  0  0  0  0
   31.9370   28.2610   47.3380 C   0  0  0  0  0  0  0  0  0  0  0  0
   32.5270   29.3680   46.7550 C   0  0  0  0  0  0  0  0  0  0  0  0
   33.7550   29.7380   47.2070 N   0  0  0  0  0  0  0  0  0  0  0  0
   31.8260   30.0380   45.7360 N   0  0  0  0  0  0  0  0  0  0  0  0
   30.4230   29.7760   45.5610 C   0  0  0  0  0  0  0  0  0  0  0  0
   29.9900   30.5100   44.3050 C   0  0  0  0  0  0  0  0  0  0  0  0
   30.2560   31.9920   44.4640 C   0  0  0  0  0  0  0  0  0  0  0  0
   31.6650   32.2700   44.8630 C   0  0  0  0  0  0  0  0  0  0  0  0
   32.4550   30.9980   44.8340 C   0  0  0  0  0  0  0  0  0  0  0  0
   37.2700   29.6990   50.3360 C   0  0  0  0  0  0  0  0  0  0  0  0
   38.1920   30.3070   49.4540 C   0  0  0  0  0  0  0  0  0  0  0  0
   37.7970   30.4780   48.1480 C   0  0  0  0  0  0  0  0  0  0  0  0
   36.5520   30.0530   47.7980 N   0  0  0  0  0  0  0  0  0  0  0  0
   35.6910   29.4780   48.6500 C   0  0  0  0  0  0  0  0  0  0  0  0
   36.0620   29.3090   49.9080 N   0  0  0  0  0  0  0  0  0  0  0  0
   39.0950   32.3870   47.3110 C   0  0  0  0  0  0  0  0  0  0  0  0
   38.6540   31.0910   47.1400 C   0  0  0  0  0  0  0  0  0  0  0  0
   39.0620   30.4470   46.0030 C   0  0  0  0  0  0  0  0  0  0  0  0
   39.8780   31.0770   45.0740 C   0  0  0  0  0  0  0  0  0  0  0  0
   40.3080   32.3870   45.2730 C   0  0  0  0  0  0  0  0  0  0  0  0
   39.9010   33.0270   46.4060 C   0  0  0  0  0  0  0  0  0  0  0  0
   38.4510   33.7990   49.4200 N   0  0  0  0  0  0  0  0  0  0  0  0
   38.7290   33.1730   48.4770 C   0  0  0  0  0  0  0  0  0  0  0  0
   34.2986   27.3980   49.5649 H   0  0  0  0  0  0  0  0  0  0  0  0
   32.0380   26.6424   48.7906 H   0  0  0  0  0  0  0  0  0  0  0  0
   30.9431   27.9525   46.9816 H   0  0  0  0  0  0  0  0  0  0  0  0
   30.2516   28.6956   45.4457 H   0  0  0  0  0  0  0  0  0  0  0  0
   29.8472   30.1168   46.4341 H   0  0  0  0  0  0  0  0  0  0  0  0
   28.9150   30.3471   44.1383 H   0  0  0  0  0  0  0  0  0  0  0  0
   30.5588   30.1276   43.4446 H   0  0  0  0  0  0  0  0  0  0  0  0
   30.0533   32.4934   43.5061 H   0  0  0  0  0  0  0  0  0  0  0  0
   29.5980   32.3704   45.2601 H   0  0  0  0  0  0  0  0  0  0  0  0
   32.1084   32.9925   44.1620 H   0  0  0  0  0  0  0  0  0  0  0  0
   31.6812   32.6873   45.8806 H   0  0  0  0  0  0  0  0  0  0  0  0
   32.4672   30.5927   43.8115 H   0  0  0  0  0  0  0  0  0  0  0  0
   33.4898   31.1911   45.1533 H   0  0  0  0  0  0  0  0  0  0  0  0
   37.5483   29.5439   51.3888 H   0  0  0  0  0  0  0  0  0  0  0  0
   39.1854   30.6303   49.7984 H   0  0  0  0  0  0  0  0  0  0  0  0
   38.7372   29.4116   45.8225 H   0  0  0  0  0  0  0  0  0  0  0  0
   40.1893   30.5350   44.1688 H   0  0  0  0  0  0  0  0  0  0  0  0
   40.9555   32.8892   44.5392 H   0  0  0  0  0  0  0  0  0  0  0  0
   40.2212   34.0623   46.5947 H   0  0  0  0  0  0  0  0  0  0  0  0
  1 17  1  0
  1  2  2  0
  3  2  1  0
  4  3  2  0
  5  6  2  0
  5  4  1  0
  6  1  1  0
  7  5  1  0
  8  7  1  0
  9 10  1  0
  9  8  1  0
 10 11  1  0
 12 11  1  0
 12  7  1  0
 14 13  2  0
 15 14  1  0
 16 15  2  0
 16 17  1  0
 17 18  2  0
 18 13  1  0
 19 26  1  0
 20 19  2  0
 20 15  1  0
 21 20  1  0
 22 23  1  0
 22 21  2  0
 23 24  2  0
 24 19  1  0
 26 25  3  0
  2 27  1  0
  3 28  1  0
  4 29  1  0
  8 30  1  0
  8 31  1  0
  9 32  1  0
  9 33  1  0
 10 34  1  0
 10 35  1  0
 11 36  1  0
 11 37  1  0
 12 38  1  0
 12 39  1  0
 13 40  1  0
 14 41  1  0
 21 42  1  0
 22 43  1  0
 23 44  1  0
 24 45  1  0
M  ISO  8  27  14  28  14  29  14  30  13  31  13  32  13  33  13  34  13
M  ISO  8  35  13  36  13  37  13  38  13  39  13  40  14  41  14  42  14
M  ISO  3  43  14  44  14  45  14
M  END
>  <minimizedAffinity>  (1) 
-6.93544483

>  <minimizedRMSD>  (1) 
2.36485291

$$$$
