
     RDKit          3D

 41 44  0  0  0  0  0  0  0  0999 V2000
   36.4690   30.5400   49.3270 C   0  0  0  0  0  0  0  0  0  0  0  0
   36.5280   30.1890   50.6660 C   0  0  0  0  0  0  0  0  0  0  0  0
   35.6030   29.3150   51.2000 C   0  0  0  0  0  0  0  0  0  0  0  0
   34.6350   28.8230   50.3330 C   0  0  0  0  0  0  0  0  0  0  0  0
   34.5680   29.1670   49.0010 C   0  0  0  0  0  0  0  0  0  0  0  0
   35.5010   30.0280   48.5300 N   0  0  0  0  0  0  0  0  0  0  0  0
   33.5460   28.6110   48.2100 N   0  0  0  0  0  0  0  0  0  0  0  0
   32.4420   27.9590   48.8820 C   0  0  0  0  0  0  0  0  0  0  0  0
   31.5710   27.3480   47.8050 C   0  0  0  0  0  0  0  0  0  0  0  0
   31.0800   28.4370   46.8680 C   0  0  0  0  0  0  0  0  0  0  0  0
   32.2030   29.2600   46.3340 C   0  0  0  0  0  0  0  0  0  0  0  0
   33.5300   28.6520   46.7610 C   0  0  0  0  0  0  0  0  0  0  0  0
   38.7790   33.3640   49.0100 C   0  0  0  0  0  0  0  0  0  0  0  0
   39.3190   33.1880   47.7180 C   0  0  0  0  0  0  0  0  0  0  0  0
   38.8690   32.1050   47.0010 C   0  0  0  0  0  0  0  0  0  0  0  0
   37.9490   31.2580   47.5350 N   0  0  0  0  0  0  0  0  0  0  0  0
   37.4500   31.4590   48.7840 C   0  0  0  0  0  0  0  0  0  0  0  0
   37.8790   32.5060   49.4870 N   0  0  0  0  0  0  0  0  0  0  0  0
   39.4050   31.8820   45.6510 C   0  0  0  0  0  0  0  0  0  0  0  0
   40.4090   31.1370   45.2140 C   0  0  0  0  0  0  0  0  0  0  0  0
   40.7240   31.0900   43.8840 C   0  0  0  0  0  0  0  0  0  0  0  0
   39.9070   31.8840   43.0370 C   0  0  0  0  0  0  0  0  0  0  0  0
   38.7080   32.6620   44.2810 S   0  0  0  0  0  0  0  0  0  0  0  0
   37.3167   30.6094   51.3072 H   0  0  0  0  0  0  0  0  0  0  0  0
   35.6307   29.0222   52.2600 H   0  0  0  0  0  0  0  0  0  0  0  0
   33.8846   28.1237   50.7304 H   0  0  0  0  0  0  0  0  0  0  0  0
   32.8187   27.1741   49.5544 H   0  0  0  0  0  0  0  0  0  0  0  0
   31.8716   28.6768   49.4897 H   0  0  0  0  0  0  0  0  0  0  0  0
   32.1562   26.6113   47.2352 H   0  0  0  0  0  0  0  0  0  0  0  0
   30.7077   26.8512   48.2717 H   0  0  0  0  0  0  0  0  0  0  0  0
   30.5504   27.9687   46.0252 H   0  0  0  0  0  0  0  0  0  0  0  0
   30.4122   29.1004   47.4371 H   0  0  0  0  0  0  0  0  0  0  0  0
   32.1259   30.2840   46.7282 H   0  0  0  0  0  0  0  0  0  0  0  0
   32.1486   29.2829   45.2356 H   0  0  0  0  0  0  0  0  0  0  0  0
   33.6240   27.6337   46.3557 H   0  0  0  0  0  0  0  0  0  0  0  0
   34.3703   29.2521   46.3817 H   0  0  0  0  0  0  0  0  0  0  0  0
   39.1035   34.2151   49.6268 H   0  0  0  0  0  0  0  0  0  0  0  0
   40.0640   33.8839   47.3047 H   0  0  0  0  0  0  0  0  0  0  0  0
   40.9983   30.5472   45.9315 H   0  0  0  0  0  0  0  0  0  0  0  0
   41.5531   30.4792   43.4973 H   0  0  0  0  0  0  0  0  0  0  0  0
   39.9569   32.0135   41.9458 H   0  0  0  0  0  0  0  0  0  0  0  0
  1  2  2  0
  2  3  1  0
  4  3  2  0
  5  4  1  0
  6  5  2  0
  6  1  1  0
  7  8  1  0
  7  5  1  0
  9  8  1  0
 10  9  1  0
 11 12  1  0
 11 10  1  0
 12  7  1  0
 13 18  2  0
 14 13  1  0
 15 16  1  0
 15 14  2  0
 16 17  2  0
 17  1  1  0
 17 18  1  0
 19 15  1  0
 20 19  2  0
 21 20  1  0
 22 21  2  0
 22 23  1  0
 23 19  1  0
  2 24  1  0
  3 25  1  0
  4 26  1  0
  8 27  1  0
  8 28  1  0
  9 29  1  0
  9 30  1  0
 10 31  1  0
 10 32  1  0
 11 33  1  0
 11 34  1  0
 12 35  1  0
 12 36  1  0
 13 37  1  0
 14 38  1  0
 20 39  1  0
 21 40  1  0
 22 41  1  0
M  ISO  8  24  14  25  14  26  14  27  13  28  13  29  13  30  13  31  13
M  ISO  8  32  13  33  13  34  13  35  13  36  13  37  14  38  14  39  14
M  ISO  2  40  14  41  14
M  END
>  <minimizedAffinity>  (1) 
-6.76377916

>  <minimizedRMSD>  (1) 
1.49975502

$$$$
