
     RDKit          3D

 42 44  0  0  1  0  0  0  0  0999 V2000
   35.8910   29.6200   48.8000 N   0  0  0  0  0  0  0  0  0  0  0  0
   36.5710   28.8530   49.8220 C   0  0  0  0  0  0  0  0  0  0  0  0
   37.0560   29.5730   51.0040 C   0  0  0  0  0  0  0  0  0  0  0  0
   37.3840   31.0080   50.8700 C   0  0  0  0  0  0  0  0  0  0  0  0
   36.6800   31.6870   49.7280 C   0  0  0  0  0  0  0  0  0  0  0  0
   36.6940   30.7730   48.4970 C   0  0  1  0  0  0  0  0  0  0  0  0
   34.6330   29.2700   48.2030 C   0  0  0  0  0  0  0  0  0  0  0  0
   34.1280   29.8680   47.0530 C   0  0  0  0  0  0  0  0  0  0  0  0
   32.8880   29.4250   46.5860 C   0  0  0  0  0  0  0  0  0  0  0  0
   32.2480   28.4420   47.2770 N   0  0  0  0  0  0  0  0  0  0  0  0
   32.7790   27.9010   48.3800 C   0  0  0  0  0  0  0  0  0  0  0  0
   33.9660   28.3120   48.8410 N   0  0  0  0  0  0  0  0  0  0  0  0
   38.0340   30.4350   48.3090 O   0  0  0  0  0  0  0  0  0  0  0  0
   38.5060   31.0550   47.1760 C   0  0  0  0  0  0  0  0  0  0  0  0
   37.4850   31.0820   46.0590 C   0  0  0  0  0  0  0  0  0  0  0  0
   37.8060   32.2040   45.1320 C   0  0  0  0  0  0  0  0  0  0  0  0
   39.2750   32.5040   44.9880 C   0  0  0  0  0  0  0  0  0  0  0  0
   39.9530   32.7880   46.2950 C   0  0  0  0  0  0  0  0  0  0  0  0
   38.9250   32.5010   47.3970 C   0  0  0  0  0  0  0  0  0  0  0  0
   35.8717   28.0795   50.1723 H   0  0  0  0  0  0  0  0  0  0  0  0
   37.4815   28.4797   49.3304 H   0  0  0  0  0  0  0  0  0  0  0  0
   36.2785   29.4884   51.7775 H   0  0  0  0  0  0  0  0  0  0  0  0
   38.0206   29.0964   51.2328 H   0  0  0  0  0  0  0  0  0  0  0  0
   37.1017   31.5170   51.8034 H   0  0  0  0  0  0  0  0  0  0  0  0
   38.4629   31.0724   50.6653 H   0  0  0  0  0  0  0  0  0  0  0  0
   35.6393   31.8994   50.0141 H   0  0  0  0  0  0  0  0  0  0  0  0
   37.1964   32.6284   49.4892 H   0  0  0  0  0  0  0  0  0  0  0  0
   36.2870   31.2374   47.5867 H   0  0  0  0  0  0  0  0  0  0  0  0
   34.6843   30.6603   46.5307 H   0  0  0  0  0  0  0  0  0  0  0  0
   32.4392   29.8604   45.6810 H   0  0  0  0  0  0  0  0  0  0  0  0
   32.2332   27.1091   48.9139 H   0  0  0  0  0  0  0  0  0  0  0  0
   39.3805   30.4458   46.9037 H   0  0  0  0  0  0  0  0  0  0  0  0
   37.5153   30.1298   45.5092 H   0  0  0  0  0  0  0  0  0  0  0  0
   36.4789   31.2253   46.4799 H   0  0  0  0  0  0  0  0  0  0  0  0
   37.4095   31.9505   44.1378 H   0  0  0  0  0  0  0  0  0  0  0  0
   37.3471   33.1048   45.5656 H   0  0  0  0  0  0  0  0  0  0  0  0
   39.7646   31.6362   44.5220 H   0  0  0  0  0  0  0  0  0  0  0  0
   39.3636   33.4104   44.3711 H   0  0  0  0  0  0  0  0  0  0  0  0
   40.8306   32.1360   46.4163 H   0  0  0  0  0  0  0  0  0  0  0  0
   40.3018   33.8302   46.3413 H   0  0  0  0  0  0  0  0  0  0  0  0
   38.0594   33.1732   47.3031 H   0  0  0  0  0  0  0  0  0  0  0  0
   39.3406   32.6622   48.4026 H   0  0  0  0  0  0  0  0  0  0  0  0
  1  2  1  0
  2  3  1  0
  4  3  1  0
  5  4  1  0
  6  1  1  0
  6  5  1  0
  7  1  1  0
  7 12  1  0
  8  7  2  0
  9  8  1  0
  9 10  2  0
 10 11  1  0
 11 12  2  0
 13  6  1  0
 14 19  1  0
 14 13  1  0
 15 14  1  0
 16 15  1  0
 17 16  1  0
 17 18  1  0
 18 19  1  0
  2 20  1  0
  2 21  1  0
  3 22  1  0
  3 23  1  0
  4 24  1  0
  4 25  1  0
  5 26  1  0
  5 27  1  0
  6 28  1  6
  8 29  1  0
  9 30  1  0
 11 31  1  0
 14 32  1  0
 15 33  1  0
 15 34  1  0
 16 35  1  0
 16 36  1  0
 17 37  1  0
 17 38  1  0
 18 39  1  0
 18 40  1  0
 19 41  1  0
 19 42  1  0
M  ISO  8  20  13  21  13  22  13  23  13  24  13  25  13  26  13  27  13
M  ISO  8  28  13  29  14  30  14  31  14  32  13  33  13  34  13  35  13
M  ISO  7  36  13  37  13  38  13  39  13  40  13  41  13  42  13
M  END
>  <minimizedAffinity>  (1) 
-5.95509338

>  <minimizedRMSD>  (1) 
0.527797222

$$$$
