
     RDKit          3D

 30 32  0  0  1  0  0  0  0  0999 V2000
   38.0330   32.4550   48.0130 C   0  0  1  0  0  0  0  0  0  0  0  0
   39.3080   33.1610   47.5490 C   0  0  0  0  0  0  0  0  0  0  0  0
   39.1510   31.7090   47.4030 C   0  0  2  0  0  0  0  0  0  0  0  0
   38.8760   31.0710   46.1480 N   0  0  0  0  0  0  0  0  0  0  0  0
   37.6070   30.8080   45.7630 C   0  0  0  0  0  0  0  0  0  0  0  0
   37.3860   30.1840   44.5330 C   0  0  0  0  0  0  0  0  0  0  0  0
   38.5200   29.8890   43.8090 C   0  0  0  0  0  0  0  0  0  0  0  0
   38.4000   29.3240   42.6870 O   0  0  0  0  0  0  0  0  0  0  0  0
   39.7870   30.1500   44.1910 N   0  0  0  0  0  0  0  0  0  0  0  0
   39.9550   30.7490   45.3780 C   0  0  0  0  0  0  0  0  0  0  0  0
   41.1200   31.0120   45.7740 O   0  0  0  0  0  0  0  0  0  0  0  0
   37.8220   32.4770   49.4860 C   0  0  0  0  0  0  0  0  0  0  0  0
   36.6750   29.5030   51.4330 C   0  0  0  0  0  0  0  0  0  0  0  0
   37.4760   30.5860   50.9830 C   0  0  0  0  0  0  0  0  0  0  0  0
   36.9640   31.3400   49.9460 C   0  0  0  0  0  0  0  0  0  0  0  0
   35.7730   31.0420   49.4110 N   0  0  0  0  0  0  0  0  0  0  0  0
   35.0320   29.9970   49.8670 C   0  0  0  0  0  0  0  0  0  0  0  0
   35.4980   29.2460   50.8710 N   0  0  0  0  0  0  0  0  0  0  0  0
   36.9522   32.4767   47.8093 H   0  0  0  0  0  0  0  0  0  0  0  0
   39.2884   33.8112   46.6619 H   0  0  0  0  0  0  0  0  0  0  0  0
   40.0496   33.8263   48.0152 H   0  0  0  0  0  0  0  0  0  0  0  0
   39.8157   30.8804   47.6888 H   0  0  0  0  0  0  0  0  0  0  0  0
   36.7602   31.0817   46.4095 H   0  0  0  0  0  0  0  0  0  0  0  0
   36.3763   29.9448   44.1679 H   0  0  0  0  0  0  0  0  0  0  0  0
   40.5901   29.8999   43.5965 H   0  0  0  0  0  0  0  0  0  0  0  0
   38.7995   32.4093   49.9859 H   0  0  0  0  0  0  0  0  0  0  0  0
   37.3086   33.4156   49.7420 H   0  0  0  0  0  0  0  0  0  0  0  0
   37.0331   28.8686   52.2572 H   0  0  0  0  0  0  0  0  0  0  0  0
   38.4523   30.8120   51.4365 H   0  0  0  0  0  0  0  0  0  0  0  0
   34.0558   29.7708   49.4132 H   0  0  0  0  0  0  0  0  0  0  0  0
  1 12  1  0
  2  1  1  0
  3  2  1  0
  3  1  1  0
  4  3  1  0
  5  4  1  0
  6  5  2  0
  7  9  1  0
  7  6  1  0
  8  7  2  0
  9 10  1  0
 10 11  2  0
 10  4  1  0
 12 15  1  0
 14 13  2  0
 15 14  1  0
 16 17  1  0
 16 15  2  0
 17 18  2  0
 18 13  1  0
  1 19  1  6
  2 20  1  0
  2 21  1  0
  3 22  1  1
  5 23  1  0
  6 24  1  0
  9 25  1  0
 12 26  1  0
 12 27  1  0
 13 28  1  0
 14 29  1  0
 17 30  1  0
M  ISO  8  19  13  20  13  21  13  22  13  23  14  24  14  25   9  26   8
M  ISO  4  27   8  28  14  29  14  30  14
M  END
>  <minimizedAffinity>  (1) 
-5.40854692

>  <minimizedRMSD>  (1) 
1.74052286

$$$$
