
     RDKit          3D

 33 35  0  0  1  0  0  0  0  0999 V2000
   35.9280   29.6580   48.8430 N   0  0  0  0  0  0  0  0  0  0  0  0
   36.7030   28.8630   49.7480 C   0  0  0  0  0  0  0  0  0  0  0  0
   37.1880   29.4810   50.9860 C   0  0  0  0  0  0  0  0  0  0  0  0
   37.3850   30.9460   50.9970 C   0  0  0  0  0  0  0  0  0  0  0  0
   36.6160   31.6940   49.9360 C   0  0  0  0  0  0  0  0  0  0  0  0
   36.6400   30.8920   48.6430 C   0  0  1  0  0  0  0  0  0  0  0  0
   34.6800   29.2960   48.2490 C   0  0  0  0  0  0  0  0  0  0  0  0
   34.1650   29.8620   47.0830 C   0  0  0  0  0  0  0  0  0  0  0  0
   32.9380   29.4100   46.6230 C   0  0  0  0  0  0  0  0  0  0  0  0
   32.3060   28.4340   47.3410 N   0  0  0  0  0  0  0  0  0  0  0  0
   32.8340   27.9180   48.4560 C   0  0  0  0  0  0  0  0  0  0  0  0
   34.0280   28.3440   48.9200 N   0  0  0  0  0  0  0  0  0  0  0  0
   37.9980   30.6920   48.3750 O   0  0  0  0  0  0  0  0  0  0  0  0
   38.7280   31.4730   47.4870 C   0  0  0  0  0  0  0  0  0  0  0  0
   39.3540   31.1530   46.2780 C   0  0  0  0  0  0  0  0  0  0  0  0
   39.9600   32.2790   45.7580 C   0  0  0  0  0  0  0  0  0  0  0  0
   39.6860   33.2610   46.6640 N   0  0  0  0  0  0  0  0  0  0  0  0
   38.9690   32.7840   47.6690 N   0  0  0  0  0  0  0  0  0  0  0  0
   36.0820   28.0022   50.0369 H   0  0  0  0  0  0  0  0  0  0  0  0
   37.6201   28.6334   49.1856 H   0  0  0  0  0  0  0  0  0  0  0  0
   36.4623   29.2422   51.7774 H   0  0  0  0  0  0  0  0  0  0  0  0
   38.1973   29.0660   51.1243 H   0  0  0  0  0  0  0  0  0  0  0  0
   37.0708   31.3265   51.9801 H   0  0  0  0  0  0  0  0  0  0  0  0
   38.4510   31.1175   50.7868 H   0  0  0  0  0  0  0  0  0  0  0  0
   35.5752   31.8321   50.2642 H   0  0  0  0  0  0  0  0  0  0  0  0
   37.0776   32.6785   49.7694 H   0  0  0  0  0  0  0  0  0  0  0  0
   36.1509   31.3954   47.7960 H   0  0  0  0  0  0  0  0  0  0  0  0
   34.7172   30.6454   46.5433 H   0  0  0  0  0  0  0  0  0  0  0  0
   32.4873   29.8238   45.7089 H   0  0  0  0  0  0  0  0  0  0  0  0
   32.2877   27.1354   49.0028 H   0  0  0  0  0  0  0  0  0  0  0  0
   39.3622   30.1563   45.8126 H   0  0  0  0  0  0  0  0  0  0  0  0
   40.5343   32.3649   44.8238 H   0  0  0  0  0  0  0  0  0  0  0  0
   39.9948   34.2398   46.5779 H   0  0  0  0  0  0  0  0  0  0  0  0
  1  2  1  0
  2  3  1  0
  3  4  1  0
  5  4  1  0
  6  1  1  0
  6  5  1  0
  7  1  1  0
  7 12  1  0
  8  7  2  0
  9  8  1  0
  9 10  2  0
 10 11  1  0
 11 12  2  0
 13  6  1  0
 14 18  2  0
 14 13  1  0
 15 14  1  0
 16 15  2  0
 16 17  1  0
 17 18  1  0
  2 19  1  0
  2 20  1  0
  3 21  1  0
  3 22  1  0
  4 23  1  0
  4 24  1  0
  5 25  1  0
  5 26  1  0
  6 27  1  6
  8 28  1  0
  9 29  1  0
 11 30  1  0
 15 31  1  0
 16 32  1  0
 17 33  1  0
M  ISO  8  19  13  20  13  21  13  22  13  23  13  24  13  25  13  26  13
M  ISO  7  27  13  28  14  29  14  30  14  31  14  32  14  33   9
M  END
>  <minimizedAffinity>  (1) 
-5.71723223

>  <minimizedRMSD>  (1) 
0.961212039

$$$$
