
     RDKit          3D

 38 39  0  0  0  0  0  0  0  0999 V2000
   35.9669   29.6297   48.8711 N   0  0  0  0  0  0  0  0  0  0  0  0
   36.5767   28.8502   49.9273 C   0  0  0  0  0  0  0  0  0  0  0  0
   37.0368   29.5809   51.1212 C   0  0  0  0  0  0  0  0  0  0  0  0
   37.4416   30.9835   50.9745 C   0  0  0  0  0  0  0  0  0  0  0  0
   36.8166   31.6922   49.7894 C   0  0  0  0  0  0  0  0  0  0  0  0
   36.8305   30.7558   48.6032 C   0  0  1  0  0  0  0  0  0  0  0  0
   34.7327   29.3284   48.2196 C   0  0  0  0  0  0  0  0  0  0  0  0
   34.2511   30.0082   47.0947 C   0  0  0  0  0  0  0  0  0  0  0  0
   33.0326   29.6088   46.5627 C   0  0  0  0  0  0  0  0  0  0  0  0
   32.3758   28.5836   47.1603 N   0  0  0  0  0  0  0  0  0  0  0  0
   32.8779   27.9626   48.2374 C   0  0  0  0  0  0  0  0  0  0  0  0
   34.0519   28.3301   48.7689 N   0  0  0  0  0  0  0  0  0  0  0  0
   38.1789   30.3420   48.4557 O   0  0  0  0  0  0  0  0  0  0  0  0
   35.9043   28.0234   50.2319 H   0  0  0  0  0  0  0  0  0  0  0  0
   37.4547   28.3523   49.4437 H   0  0  0  0  0  0  0  0  0  0  0  0
   36.2487   29.5102   51.9038 H   0  0  0  0  0  0  0  0  0  0  0  0
   37.8965   28.9951   51.5627 H   0  0  0  0  0  0  0  0  0  0  0  0
   37.2107   31.5494   51.9155 H   0  0  0  0  0  0  0  0  0  0  0  0
   38.5484   31.0491   50.8330 H   0  0  0  0  0  0  0  0  0  0  0  0
   35.7901   32.0065   50.0605 H   0  0  0  0  0  0  0  0  0  0  0  0
   37.4256   32.5664   49.4944 H   0  0  0  0  0  0  0  0  0  0  0  0
   36.5401   31.3214   47.7082 H   0  0  0  0  0  0  0  0  0  0  0  0
   34.8434   30.7964   46.7045 H   0  0  0  0  0  0  0  0  0  0  0  0
   32.7281   30.1768   45.7005 H   0  0  0  0  0  0  0  0  0  0  0  0
   32.2687   27.1499   48.6409 H   0  0  0  0  0  0  0  0  0  0  0  0
   38.5426   30.8568   47.1972 C   0  0  0  0  0  0  0  0  0  0  0  0
   38.6131   29.8657   46.1680 N   0  0  0  0  0  4  0  0  0  0  0  0
   38.6823   30.6175   44.9041 C   0  0  0  0  0  0  0  0  0  0  0  0
   38.6898   29.9638   44.0331 H   0  0  0  0  0  0  0  0  0  0  0  0
   37.4277   29.0376   46.0694 C   0  0  0  0  0  0  0  0  0  0  0  0
   37.5773   28.4131   45.1437 H   0  0  0  0  0  0  0  0  0  0  0  0
   39.5642   31.2796   47.3087 H   0  0  0  0  0  0  0  0  0  0  0  0
   37.8695   31.6847   46.8961 H   0  0  0  0  0  0  0  0  0  0  0  0
   39.4806   29.3114   46.2348 H   0  0  0  0  0  0  0  0  0  0  0  0
   39.5333   31.3053   44.9869 H   0  0  0  0  0  0  0  0  0  0  0  0
   37.7363   31.2331   44.8904 H   0  0  0  0  0  0  0  0  0  0  0  0
   37.3447   28.3943   46.9510 H   0  0  0  0  0  0  0  0  0  0  0  0
   36.5517   29.7104   45.9361 H   0  0  0  0  0  0  0  0  0  0  0  0
  1  2  1  0
  2  3  1  0
  4  3  1  0
  5  4  1  0
  6  1  1  0
  6  5  1  0
  7 12  1  0
  7  1  1  0
  8  7  2  0
  9  8  1  0
  9 10  2  0
 10 11  1  0
 11 12  2  0
 13  6  1  0
  2 14  1  0
  2 15  1  0
  3 16  1  0
  3 17  1  0
  4 18  1  0
  4 19  1  0
  5 20  1  0
  5 21  1  0
  6 22  1  6
  8 23  1  0
  9 24  1  0
 11 25  1  0
 26 27  1  0
 27 28  1  0
 28 29  1  0
 27 30  1  0
 30 31  1  0
 26 32  1  0
 26 33  1  0
 27 34  1  0
 28 35  1  0
 28 36  1  0
 30 37  1  0
 30 38  1  0
 13 26  1  0
M  CHG  1  27   1
M  END
>  <DihAtoms>  (1) 
5,12,25,26

>  <DihDeg>  (1) 
179.9997225893901

$$$$
