
     RDKit          3D

 29 31  0  0  0  0  0  0  0  0999 V2000
   38.0170   30.7460   47.1840 F   0  0  0  0  0  0  0  0  0  0  0  0
   38.5070   31.8760   47.7730 C   0  0  0  0  0  0  0  0  0  0  0  0
   38.1910   32.1310   49.0690 C   0  0  0  0  0  0  0  0  0  0  0  0
   38.7080   33.2850   49.6250 C   0  0  0  0  0  0  0  0  0  0  0  0
   39.5150   34.1480   48.8970 C   0  0  0  0  0  0  0  0  0  0  0  0
   39.8110   33.8540   47.5890 C   0  0  0  0  0  0  0  0  0  0  0  0
   39.3040   32.7120   47.0270 C   0  0  0  0  0  0  0  0  0  0  0  0
   36.9530   29.5670   51.5630 C   0  0  0  0  0  0  0  0  0  0  0  0
   37.7940   30.4680   50.8960 C   0  0  0  0  0  0  0  0  0  0  0  0
   37.3420   31.1900   49.7820 C   0  0  0  0  0  0  0  0  0  0  0  0
   36.0680   30.9560   49.4130 N   0  0  0  0  0  0  0  0  0  0  0  0
   35.2710   30.0860   50.0660 C   0  0  0  0  0  0  0  0  0  0  0  0
   35.7130   29.4050   51.1230 N   0  0  0  0  0  0  0  0  0  0  0  0
   39.5810   32.3460   45.6440 C   0  0  0  0  0  0  0  0  0  0  0  0
   40.4520   31.3480   45.2660 C   0  0  0  0  0  0  0  0  0  0  0  0
   40.7150   31.0030   43.9650 C   0  0  0  0  0  0  0  0  0  0  0  0
   40.0940   31.6680   42.9460 C   0  0  0  0  0  0  0  0  0  0  0  0
   39.2310   32.6570   43.3320 C   0  0  0  0  0  0  0  0  0  0  0  0
   38.9850   32.9830   44.6130 N   0  0  0  0  0  0  0  0  0  0  0  0
   38.4739   33.5263   50.6724 H   0  0  0  0  0  0  0  0  0  0  0  0
   39.9143   35.0603   49.3642 H   0  0  0  0  0  0  0  0  0  0  0  0
   40.4486   34.5283   46.9984 H   0  0  0  0  0  0  0  0  0  0  0  0
   37.3153   29.0043   52.4360 H   0  0  0  0  0  0  0  0  0  0  0  0
   38.8249   30.6111   51.2519 H   0  0  0  0  0  0  0  0  0  0  0  0
   34.2377   29.9357   49.7201 H   0  0  0  0  0  0  0  0  0  0  0  0
   40.9708   30.7910   46.0601 H   0  0  0  0  0  0  0  0  0  0  0  0
   41.4246   30.1924   43.7424 H   0  0  0  0  0  0  0  0  0  0  0  0
   40.2752   31.4252   41.8886 H   0  0  0  0  0  0  0  0  0  0  0  0
   38.7062   33.2200   42.5461 H   0  0  0  0  0  0  0  0  0  0  0  0
  1  2  1  0
  2  3  2  0
  3  4  1  0
  3 10  1  0
  5  4  2  0
  6  5  1  0
  7  6  2  0
  7  2  1  0
  9  8  2  0
 10  9  1  0
 11 10  2  0
 11 12  1  0
 12 13  2  0
 13  8  1  0
 14  7  1  0
 15 14  2  0
 16 15  1  0
 17 18  1  0
 17 16  2  0
 18 19  2  0
 19 14  1  0
  4 20  1  0
  5 21  1  0
  6 22  1  0
  8 23  1  0
  9 24  1  0
 12 25  1  0
 15 26  1  0
 16 27  1  0
 17 28  1  0
 18 29  1  0
M  ISO  8  20  14  21  14  22  14  23  14  24  14  25  14  26  14  27  14
M  ISO  2  28  14  29  14
M  END
>  <minimizedAffinity>  (1) 
-6.8679738

>  <minimizedRMSD>  (1) 
0.423680842

$$$$
