
     RDKit          3D

 35 37  0  0  0  0  0  0  0  0999 V2000
   38.2200   30.7330   47.2200 F   0  0  0  0  0  0  0  0  0  0  0  0
   38.6280   31.8810   47.8200 C   0  0  0  0  0  0  0  0  0  0  0  0
   38.2240   32.1570   49.0810 C   0  0  0  0  0  0  0  0  0  0  0  0
   38.6650   33.3340   49.6460 C   0  0  0  0  0  0  0  0  0  0  0  0
   39.4950   34.2010   48.9400 C   0  0  0  0  0  0  0  0  0  0  0  0
   39.8840   33.8900   47.6630 C   0  0  0  0  0  0  0  0  0  0  0  0
   39.4470   32.7190   47.0980 C   0  0  0  0  0  0  0  0  0  0  0  0
   36.9010   29.5620   51.5100 C   0  0  0  0  0  0  0  0  0  0  0  0
   37.7570   30.4670   50.8760 C   0  0  0  0  0  0  0  0  0  0  0  0
   37.3510   31.2000   49.7680 C   0  0  0  0  0  0  0  0  0  0  0  0
   36.0730   30.9930   49.3310 N   0  0  0  0  0  0  0  0  0  0  0  0
   35.2700   30.1130   49.9640 C   0  0  0  0  0  0  0  0  0  0  0  0
   35.6630   29.4130   51.0240 N   0  0  0  0  0  0  0  0  0  0  0  0
   39.8540   32.3980   45.7690 N   0  0  0  0  0  0  0  0  0  0  0  0
   39.9710   33.4270   44.7610 C   0  0  0  0  0  0  0  0  0  0  0  0
   39.3650   33.0070   43.4440 C   0  0  0  0  0  0  0  0  0  0  0  0
   39.7560   31.6010   43.0570 C   0  0  0  0  0  0  0  0  0  0  0  0
   40.7950   31.0370   44.0240 C   0  0  0  0  0  0  0  0  0  0  0  0
   40.1600   31.0430   45.3920 C   0  0  0  0  0  0  0  0  0  0  0  0
   38.3568   33.5924   50.6698 H   0  0  0  0  0  0  0  0  0  0  0  0
   39.8386   35.1357   49.4072 H   0  0  0  0  0  0  0  0  0  0  0  0
   40.5382   34.5707   47.0986 H   0  0  0  0  0  0  0  0  0  0  0  0
   37.2363   28.9871   52.3858 H   0  0  0  0  0  0  0  0  0  0  0  0
   38.7774   30.6021   51.2640 H   0  0  0  0  0  0  0  0  0  0  0  0
   34.2467   29.9684   49.5873 H   0  0  0  0  0  0  0  0  0  0  0  0
   39.4547   34.3311   45.1162 H   0  0  0  0  0  0  0  0  0  0  0  0
   41.0417   33.6165   44.5947 H   0  0  0  0  0  0  0  0  0  0  0  0
   38.2693   33.0599   43.5257 H   0  0  0  0  0  0  0  0  0  0  0  0
   39.7427   33.6878   42.6669 H   0  0  0  0  0  0  0  0  0  0  0  0
   38.8618   30.9607   43.0759 H   0  0  0  0  0  0  0  0  0  0  0  0
   40.1921   31.6234   42.0474 H   0  0  0  0  0  0  0  0  0  0  0  0
   41.0641   30.0103   43.7352 H   0  0  0  0  0  0  0  0  0  0  0  0
   41.7156   31.6389   44.0118 H   0  0  0  0  0  0  0  0  0  0  0  0
   39.2339   30.4498   45.3697 H   0  0  0  0  0  0  0  0  0  0  0  0
   40.8559   30.6056   46.1230 H   0  0  0  0  0  0  0  0  0  0  0  0
  1  2  1  0
  2  3  2  0
  3  4  1  0
  3 10  1  0
  5  4  2  0
  6  5  1  0
  7  6  2  0
  7  2  1  0
  9  8  2  0
 10  9  1  0
 11 10  2  0
 11 12  1  0
 12 13  2  0
 13  8  1  0
 14  7  1  0
 15 14  1  0
 16 15  1  0
 17 16  1  0
 17 18  1  0
 18 19  1  0
 19 14  1  0
  4 20  1  0
  5 21  1  0
  6 22  1  0
  8 23  1  0
  9 24  1  0
 12 25  1  0
 15 26  1  0
 15 27  1  0
 16 28  1  0
 16 29  1  0
 17 30  1  0
 17 31  1  0
 18 32  1  0
 18 33  1  0
 19 34  1  0
 19 35  1  0
M  ISO  8  20  14  21  14  22  14  23  14  24  14  25  14  26  13  27  13
M  ISO  8  28  13  29  13  30  13  31  13  32  13  33  13  34  13  35  13
M  END
>  <minimizedAffinity>  (1) 
-6.82044077

>  <minimizedRMSD>  (1) 
0.237180203

$$$$
