
     RDKit          3D

 30 32  0  0  0  0  0  0  0  0999 V2000
   37.8070   30.1390   47.0800 F   0  0  0  0  0  0  0  0  0  0  0  0
   38.3360   31.3160   47.5100 C   0  0  0  0  0  0  0  0  0  0  0  0
   38.0530   31.7580   48.7740 C   0  0  0  0  0  0  0  0  0  0  0  0
   38.6160   32.9510   49.1490 C   0  0  0  0  0  0  0  0  0  0  0  0
   39.4300   33.6890   48.3130 C   0  0  0  0  0  0  0  0  0  0  0  0
   39.6980   33.2190   47.0430 C   0  0  0  0  0  0  0  0  0  0  0  0
   39.1460   32.0280   46.6500 C   0  0  0  0  0  0  0  0  0  0  0  0
   36.7980   29.5510   51.5760 C   0  0  0  0  0  0  0  0  0  0  0  0
   37.6450   30.3300   50.7820 C   0  0  0  0  0  0  0  0  0  0  0  0
   37.1900   30.9430   49.6150 C   0  0  0  0  0  0  0  0  0  0  0  0
   35.8890   30.7340   49.3080 N   0  0  0  0  0  0  0  0  0  0  0  0
   35.0720   29.9870   50.0670 C   0  0  0  0  0  0  0  0  0  0  0  0
   35.5220   29.3980   51.1940 N   0  0  0  0  0  0  0  0  0  0  0  0
   40.0730   34.0480   44.6740 Cl  0  0  0  0  0  0  0  0  0  0  0  0
   39.8320   32.3500   44.3160 C   0  0  0  0  0  0  0  0  0  0  0  0
   39.3930   31.4690   45.3040 C   0  0  0  0  0  0  0  0  0  0  0  0
   39.1980   30.1130   45.0260 C   0  0  0  0  0  0  0  0  0  0  0  0
   39.4460   29.6500   43.7460 C   0  0  0  0  0  0  0  0  0  0  0  0
   39.8810   30.5400   42.7780 C   0  0  0  0  0  0  0  0  0  0  0  0
   40.0760   31.8790   43.0440 C   0  0  0  0  0  0  0  0  0  0  0  0
   38.4103   33.3362   50.1586 H   0  0  0  0  0  0  0  0  0  0  0  0
   39.8605   34.6416   48.6554 H   0  0  0  0  0  0  0  0  0  0  0  0
   40.3429   33.7901   46.3590 H   0  0  0  0  0  0  0  0  0  0  0  0
   37.1705   29.0738   52.4944 H   0  0  0  0  0  0  0  0  0  0  0  0
   38.6942   30.4624   51.0847 H   0  0  0  0  0  0  0  0  0  0  0  0
   34.0224   29.8535   49.7662 H   0  0  0  0  0  0  0  0  0  0  0  0
   38.8530   29.4252   45.8121 H   0  0  0  0  0  0  0  0  0  0  0  0
   39.2995   28.5879   43.5001 H   0  0  0  0  0  0  0  0  0  0  0  0
   40.0776   30.1660   41.7624 H   0  0  0  0  0  0  0  0  0  0  0  0
   40.4211   32.5609   42.2528 H   0  0  0  0  0  0  0  0  0  0  0  0
  1  2  1  0
  2  3  2  0
  3  4  1  0
  3 10  1  0
  5  4  2  0
  6  5  1  0
  7  6  2  0
  7  2  1  0
  9  8  2  0
 10  9  1  0
 11 10  2  0
 11 12  1  0
 12 13  2  0
 13  8  1  0
 15 14  1  0
 15 16  2  0
 16  7  1  0
 17 16  1  0
 18 17  2  0
 19 20  2  0
 19 18  1  0
 20 15  1  0
  4 21  1  0
  5 22  1  0
  6 23  1  0
  8 24  1  0
  9 25  1  0
 12 26  1  0
 17 27  1  0
 18 28  1  0
 19 29  1  0
 20 30  1  0
M  ISO  8  21  14  22  14  23  14  24  14  25  14  26  14  27  14  28  14
M  ISO  2  29  14  30  14
M  END
>  <minimizedAffinity>  (1) 
-6.6882062

>  <minimizedRMSD>  (1) 
0.962306738

$$$$
