
     RDKit          3D

 27 29  0  0  0  0  0  0  0  0999 V2000
   38.0080   30.7530   47.2110 F   0  0  0  0  0  0  0  0  0  0  0  0
   38.4610   31.8550   47.8320 C   0  0  0  0  0  0  0  0  0  0  0  0
   38.0930   32.1080   49.1250 C   0  0  0  0  0  0  0  0  0  0  0  0
   38.5920   33.2550   49.7080 C   0  0  0  0  0  0  0  0  0  0  0  0
   39.4290   34.1250   49.0320 C   0  0  0  0  0  0  0  0  0  0  0  0
   39.7840   33.8510   47.7360 C   0  0  0  0  0  0  0  0  0  0  0  0
   39.2990   32.7160   47.1400 C   0  0  0  0  0  0  0  0  0  0  0  0
   36.7520   29.5090   51.5140 C   0  0  0  0  0  0  0  0  0  0  0  0
   37.6290   30.4170   50.9020 C   0  0  0  0  0  0  0  0  0  0  0  0
   37.2090   31.1560   49.7870 C   0  0  0  0  0  0  0  0  0  0  0  0
   35.9520   30.9440   49.3590 N   0  0  0  0  0  0  0  0  0  0  0  0
   35.1270   30.0660   49.9650 C   0  0  0  0  0  0  0  0  0  0  0  0
   35.5260   29.3550   51.0340 N   0  0  0  0  0  0  0  0  0  0  0  0
   39.6600   32.3990   45.7620 C   0  0  0  0  0  0  0  0  0  0  0  0
   40.5560   31.4370   45.3530 C   0  0  0  0  0  0  0  0  0  0  0  0
   40.5910   31.4790   43.9830 C   0  0  0  0  0  0  0  0  0  0  0  0
   39.7150   32.4630   43.6070 C   0  0  0  0  0  0  0  0  0  0  0  0
   39.1650   33.0050   44.6920 O   0  0  0  0  0  0  0  0  0  0  0  0
   38.3144   33.4858   50.7471 H   0  0  0  0  0  0  0  0  0  0  0  0
   39.8069   35.0298   49.5305 H   0  0  0  0  0  0  0  0  0  0  0  0
   40.4479   34.5318   47.1831 H   0  0  0  0  0  0  0  0  0  0  0  0
   37.0802   28.9275   52.3882 H   0  0  0  0  0  0  0  0  0  0  0  0
   38.6470   30.5493   51.2972 H   0  0  0  0  0  0  0  0  0  0  0  0
   34.1070   29.9288   49.5768 H   0  0  0  0  0  0  0  0  0  0  0  0
   41.1340   30.7628   46.0021 H   0  0  0  0  0  0  0  0  0  0  0  0
   41.2005   30.8487   43.3187 H   0  0  0  0  0  0  0  0  0  0  0  0
   39.4994   32.7594   42.5698 H   0  0  0  0  0  0  0  0  0  0  0  0
  1  2  1  0
  2  3  2  0
  3  4  1  0
  3 10  1  0
  5  4  2  0
  6  5  1  0
  7  6  2  0
  7  2  1  0
  9  8  2  0
 10  9  1  0
 11 10  2  0
 11 12  1  0
 12 13  2  0
 13  8  1  0
 14  7  1  0
 15 14  2  0
 16 15  1  0
 17 16  2  0
 17 18  1  0
 18 14  1  0
  4 19  1  0
  5 20  1  0
  6 21  1  0
  8 22  1  0
  9 23  1  0
 12 24  1  0
 15 25  1  0
 16 26  1  0
 17 27  1  0
M  ISO  8  19  14  20  14  21  14  22  14  23  14  24  14  25  14  26  14
M  ISO  1  27  14
M  END
>  <minimizedAffinity>  (1) 
-6.63297653

>  <minimizedRMSD>  (1) 
0.39956215

$$$$
