
     RDKit          3D

 23 24  0  0  0  0  0  0  0  0999 V2000
   38.4390   30.5170   47.2920 F   0  0  0  0  0  0  0  0  0  0  0  0
   38.7540   31.7400   47.8010 C   0  0  0  0  0  0  0  0  0  0  0  0
   38.2470   32.1100   49.0150 C   0  0  0  0  0  0  0  0  0  0  0  0
   38.6010   33.3560   49.4780 C   0  0  0  0  0  0  0  0  0  0  0  0
   39.4310   34.2020   48.7590 C   0  0  0  0  0  0  0  0  0  0  0  0
   39.9260   33.7960   47.5360 C   0  0  0  0  0  0  0  0  0  0  0  0
   39.5760   32.5530   47.0660 C   0  0  0  0  0  0  0  0  0  0  0  0
   36.9320   29.5980   51.5230 C   0  0  0  0  0  0  0  0  0  0  0  0
   37.7820   30.4930   50.8530 C   0  0  0  0  0  0  0  0  0  0  0  0
   37.3830   31.1800   49.7230 C   0  0  0  0  0  0  0  0  0  0  0  0
   36.1150   30.9320   49.3050 N   0  0  0  0  0  0  0  0  0  0  0  0
   35.2980   30.0740   49.9460 C   0  0  0  0  0  0  0  0  0  0  0  0
   35.6960   29.4190   51.0340 N   0  0  0  0  0  0  0  0  0  0  0  0
   40.0880   32.0690   45.7470 C   0  0  0  0  0  0  0  0  0  0  0  0
   39.0550   31.7750   44.9050 F   0  0  0  0  0  0  0  0  0  0  0  0
   40.8500   33.0660   45.2060 F   0  0  0  0  0  0  0  0  0  0  0  0
   40.8440   30.9230   45.8970 F   0  0  0  0  0  0  0  0  0  0  0  0
   38.2127   33.6921   50.4508 H   0  0  0  0  0  0  0  0  0  0  0  0
   39.6938   35.1917   49.1609 H   0  0  0  0  0  0  0  0  0  0  0  0
   40.5861   34.4530   46.9506 H   0  0  0  0  0  0  0  0  0  0  0  0
   37.2696   29.0603   52.4213 H   0  0  0  0  0  0  0  0  0  0  0  0
   38.7990   30.6522   51.2409 H   0  0  0  0  0  0  0  0  0  0  0  0
   34.2801   29.9113   49.5620 H   0  0  0  0  0  0  0  0  0  0  0  0
  1  2  1  0
  2  3  2  0
  3  4  1  0
  3 10  1  0
  5  4  2  0
  6  5  1  0
  7  6  2  0
  7  2  1  0
  9  8  2  0
 10  9  1  0
 11 10  2  0
 11 12  1  0
 12 13  2  0
 13  8  1  0
 14 17  1  0
 14  7  1  0
 15 14  1  0
 16 14  1  0
  4 18  1  0
  5 19  1  0
  6 20  1  0
  8 21  1  0
  9 22  1  0
 12 23  1  0
M  ISO  6  18  14  19  14  20  14  21  14  22  14  23  14
M  END
>  <minimizedAffinity>  (1) 
-6.40744257

>  <minimizedRMSD>  (1) 
0.182317346

$$$$
