
     RDKit          3D

 27 29  0  0  0  0  0  0  0  0999 V2000
   38.3290   30.7460   47.2300 F   0  0  0  0  0  0  0  0  0  0  0  0
   38.7040   31.9130   47.8250 C   0  0  0  0  0  0  0  0  0  0  0  0
   38.2720   32.1830   49.0790 C   0  0  0  0  0  0  0  0  0  0  0  0
   38.6840   33.3780   49.6310 C   0  0  0  0  0  0  0  0  0  0  0  0
   39.4970   34.2600   48.9440 C   0  0  0  0  0  0  0  0  0  0  0  0
   39.9170   33.9530   47.6720 C   0  0  0  0  0  0  0  0  0  0  0  0
   39.5150   32.7660   47.1100 C   0  0  0  0  0  0  0  0  0  0  0  0
   36.9680   29.5600   51.4750 C   0  0  0  0  0  0  0  0  0  0  0  0
   37.8290   30.4820   50.8530 C   0  0  0  0  0  0  0  0  0  0  0  0
   37.4150   31.2150   49.7550 C   0  0  0  0  0  0  0  0  0  0  0  0
   36.1440   30.9860   49.3280 N   0  0  0  0  0  0  0  0  0  0  0  0
   35.3230   30.1050   49.9220 C   0  0  0  0  0  0  0  0  0  0  0  0
   35.7380   29.3990   50.9880 N   0  0  0  0  0  0  0  0  0  0  0  0
   39.9440   32.3800   45.7240 C   0  0  0  0  0  0  0  0  0  0  0  0
   38.8810   32.7330   44.6650 C   0  0  0  0  0  0  0  0  0  0  0  0
   40.1980   33.3980   44.6840 C   0  0  0  0  0  0  0  0  0  0  0  0
   38.3558   33.6369   50.6485 H   0  0  0  0  0  0  0  0  0  0  0  0
   39.8069   35.2049   49.4141 H   0  0  0  0  0  0  0  0  0  0  0  0
   40.5638   34.6458   47.1137 H   0  0  0  0  0  0  0  0  0  0  0  0
   37.3041   28.9818   52.3483 H   0  0  0  0  0  0  0  0  0  0  0  0
   38.8470   30.6224   51.2455 H   0  0  0  0  0  0  0  0  0  0  0  0
   34.3041   29.9600   49.5337 H   0  0  0  0  0  0  0  0  0  0  0  0
   40.5338   31.5173   46.0674 H   0  0  0  0  0  0  0  0  0  0  0  0
   37.9760   33.2883   44.9524 H   0  0  0  0  0  0  0  0  0  0  0  0
   38.2944   32.1719   43.9226 H   0  0  0  0  0  0  0  0  0  0  0  0
   40.9233   33.1864   43.8845 H   0  0  0  0  0  0  0  0  0  0  0  0
   40.5180   34.4501   44.7122 H   0  0  0  0  0  0  0  0  0  0  0  0
  1  2  1  0
  2  3  2  0
  3  4  1  0
  3 10  1  0
  5  4  2  0
  6  5  1  0
  7  6  2  0
  7  2  1  0
  9  8  2  0
 10  9  1  0
 11 10  2  0
 11 12  1  0
 12 13  2  0
 13  8  1  0
 14  7  1  0
 15 16  1  0
 15 14  1  0
 16 14  1  0
  4 17  1  0
  5 18  1  0
  6 19  1  0
  8 20  1  0
  9 21  1  0
 12 22  1  0
 14 23  1  0
 15 24  1  0
 15 25  1  0
 16 26  1  0
 16 27  1  0
M  ISO  8  17  14  18  14  19  14  20  14  21  14  22  14  23  13  24  13
M  ISO  3  25  13  26  13  27  13
M  END
>  <minimizedAffinity>  (1) 
-6.27039909

>  <minimizedRMSD>  (1) 
0.358684838

$$$$
