
     RDKit          3D

 26 27  0  0  1  0  0  0  0  0999 V2000
   37.2930   30.6080   47.0510 C   0  0  1  0  0  0  0  0  0  0  0  0
   37.2950   31.3690   45.7140 C   0  0  0  0  0  0  0  0  0  0  0  0
   38.4920   30.6310   46.1760 C   0  0  1  0  0  0  0  0  0  0  0  0
   37.1510   31.4900   48.2520 C   0  0  0  0  0  0  0  0  0  0  0  0
   37.3270   30.0200   51.6950 C   0  0  0  0  0  0  0  0  0  0  0  0
   37.6490   30.7400   50.5210 C   0  0  0  0  0  0  0  0  0  0  0  0
   36.7660   30.7200   49.4540 C   0  0  0  0  0  0  0  0  0  0  0  0
   35.6310   30.0110   49.5790 N   0  0  0  0  0  0  0  0  0  0  0  0
   35.3380   29.3290   50.7050 C   0  0  0  0  0  0  0  0  0  0  0  0
   36.1780   29.3340   51.7510 N   0  0  0  0  0  0  0  0  0  0  0  0
   39.6090   31.3530   46.6420 O   0  0  0  0  0  0  0  0  0  0  0  0
   40.9970   32.6680   44.9020 O   0  0  0  0  0  0  0  0  0  0  0  0
   40.8060   31.2700   45.4420 P   0  0  0  0  0  0  0  0  0  0  0  0
   40.2950   30.2750   44.1550 O   0  0  0  0  0  0  0  0  0  0  0  0
   42.2380   30.6480   46.0630 O   0  0  0  0  0  0  0  0  0  0  0  0
   36.7572   29.7831   47.5433 H   0  0  0  0  0  0  0  0  0  0  0  0
   37.2932   32.4690   45.7037 H   0  0  0  0  0  0  0  0  0  0  0  0
   36.6717   31.3638   44.8076 H   0  0  0  0  0  0  0  0  0  0  0  0
   39.1266   29.8642   45.7077 H   0  0  0  0  0  0  0  0  0  0  0  0
   38.1118   31.9907   48.4421 H   0  0  0  0  0  0  0  0  0  0  0  0
   36.3577   32.2238   48.0464 H   0  0  0  0  0  0  0  0  0  0  0  0
   38.0139   30.0234   52.5542 H   0  0  0  0  0  0  0  0  0  0  0  0
   38.5885   31.3085   50.4561 H   0  0  0  0  0  0  0  0  0  0  0  0
   34.3979   28.7612   50.7665 H   0  0  0  0  0  0  0  0  0  0  0  0
   39.8743   29.4558   44.5182 H   0  0  0  0  0  0  0  0  0  0  0  0
   42.2028   30.6633   47.0523 H   0  0  0  0  0  0  0  0  0  0  0  0
  1  4  1  0
  2  3  1  0
  2  1  1  0
  3 11  1  0
  3  1  1  0
  4  7  1  0
  5 10  2  0
  6  5  1  0
  7  8  1  0
  7  6  2  0
  8  9  2  0
  9 10  1  0
 12 13  2  0
 13 15  1  0
 13 11  1  0
 14 13  1  0
  1 16  1  6
  2 17  1  0
  2 18  1  0
  3 19  1  6
  4 20  1  0
  4 21  1  0
  5 22  1  0
  6 23  1  0
  9 24  1  0
 14 25  1  0
 15 26  1  0
M  ISO  8  16  13  17  13  18  13  19  13  20   8  21   8  22  14  23  14
M  ISO  3  24  14  25   3  26   3
M  END
>  <minimizedAffinity>  (1) 
-4.77361679

>  <minimizedRMSD>  (1) 
1.65823376

$$$$
