
     RDKit          3D

 24 25  0  0  1  0  0  0  0  0999 V2000
   38.4880   31.5760   48.2750 C   0  0  0  0  0  0  0  0  0  0  0  0
   37.3050   30.1220   51.5150 C   0  0  0  0  0  0  0  0  0  0  0  0
   38.0200   30.9240   50.5920 C   0  0  0  0  0  0  0  0  0  0  0  0
   37.7360   30.7330   49.2540 C   0  0  0  0  0  0  0  0  0  0  0  0
   36.8150   29.8160   48.8780 N   0  0  0  0  0  0  0  0  0  0  0  0
   36.1570   29.0730   49.7960 C   0  0  0  0  0  0  0  0  0  0  0  0
   36.4030   29.2270   51.1060 N   0  0  0  0  0  0  0  0  0  0  0  0
   38.5580   30.9460   46.9200 C   0  0  1  0  0  0  0  0  0  0  0  0
   38.1750   31.8750   45.7730 C   0  0  0  0  0  0  0  0  0  0  0  0
   39.5490   31.3390   45.9120 C   0  0  2  0  0  0  0  0  0  0  0  0
   40.4160   30.7810   43.6250 C   0  0  0  0  0  0  0  0  0  0  0  0
   40.2490   31.9310   43.1700 O   0  0  0  0  0  0  0  0  0  0  0  0
   40.0990   30.3970   44.9650 N   0  0  0  0  0  0  0  0  0  0  0  0
   37.9845   32.5500   48.1867 H   0  0  0  0  0  0  0  0  0  0  0  0
   39.5168   31.6881   48.6477 H   0  0  0  0  0  0  0  0  0  0  0  0
   37.4971   30.2392   52.5917 H   0  0  0  0  0  0  0  0  0  0  0  0
   38.7645   31.6623   50.9244 H   0  0  0  0  0  0  0  0  0  0  0  0
   35.4120   28.3343   49.4654 H   0  0  0  0  0  0  0  0  0  0  0  0
   38.2723   29.9635   47.3237 H   0  0  0  0  0  0  0  0  0  0  0  0
   37.9729   32.9391   45.9653 H   0  0  0  0  0  0  0  0  0  0  0  0
   37.4072   31.8779   44.9853 H   0  0  0  0  0  0  0  0  0  0  0  0
   40.5485   31.7955   45.9630 H   0  0  0  0  0  0  0  0  0  0  0  0
   40.8328   30.0158   42.9536 H   0  0  0  0  0  0  0  0  0  0  0  0
   40.2668   29.4253   45.2624 H   0  0  0  0  0  0  0  0  0  0  0  0
  1  4  1  0
  3  2  2  0
  4  3  1  0
  5  4  2  0
  5  6  1  0
  6  7  2  0
  7  2  1  0
  8  1  1  0
  9 10  1  0
  9  8  1  0
 10  8  1  0
 11 13  1  0
 12 11  2  0
 13 10  1  0
  1 14  1  0
  1 15  1  0
  2 16  1  0
  3 17  1  0
  6 18  1  0
  8 19  1  1
  9 20  1  0
  9 21  1  0
 10 22  1  1
 11 23  1  0
 13 24  1  0
M  ISO  8  14   8  15   8  16  14  17  14  18  14  19  13  20  13  21  13
M  ISO  2  22  13  23   6
M  END
>  <minimizedAffinity>  (1) 
-4.68240881

>  <minimizedRMSD>  (1) 
0.900701225

$$$$
