
     RDKit          3D

 44 48  0  0  0  0  0  0  0  0999 V2000
   39.2650   31.9280   44.9620 C   0  0  0  0  0  0  0  0  0  0  0  0
   38.1780   32.5800   45.0870 O   0  0  0  0  0  0  0  0  0  0  0  0
   39.9460   31.6610   46.1730 N   0  0  0  0  0  0  0  0  0  0  0  0
   39.1590   32.2450   42.5790 C   0  0  0  0  0  0  0  0  0  0  0  0
   39.6920   31.5350   43.6430 C   0  0  0  0  0  0  0  0  0  0  0  0
   40.5890   30.4950   43.4800 C   0  0  0  0  0  0  0  0  0  0  0  0
   40.9770   30.1430   42.2020 C   0  0  0  0  0  0  0  0  0  0  0  0
   41.8160   29.1990   41.7330 N   0  0  0  0  0  0  0  0  0  0  0  0
   41.8220   29.3020   40.3970 C   0  0  0  0  0  0  0  0  0  0  0  0
   40.9960   30.2990   40.0310 N   0  0  0  0  0  0  0  0  0  0  0  0
   40.4490   30.8500   41.1380 C   0  0  0  0  0  0  0  0  0  0  0  0
   39.5570   31.8850   41.2790 C   0  0  0  0  0  0  0  0  0  0  0  0
   38.9670   32.6620   40.1890 C   0  0  0  0  0  0  0  0  0  0  0  0
   37.9080   33.6690   40.3600 C   0  0  0  0  0  0  0  0  0  0  0  0
   37.5260   32.3040   39.7970 C   0  0  0  0  0  0  0  0  0  0  0  0
   38.1070   30.1650   47.4980 F   0  0  0  0  0  0  0  0  0  0  0  0
   38.3670   31.4020   47.9980 C   0  0  0  0  0  0  0  0  0  0  0  0
   37.7100   31.8350   49.1210 C   0  0  0  0  0  0  0  0  0  0  0  0
   38.0260   33.0960   49.5660 C   0  0  0  0  0  0  0  0  0  0  0  0
   38.9390   33.9050   48.9520 C   0  0  0  0  0  0  0  0  0  0  0  0
   39.5840   33.4380   47.8230 C   0  0  0  0  0  0  0  0  0  0  0  0
   39.3030   32.1850   47.3390 C   0  0  0  0  0  0  0  0  0  0  0  0
   36.0750   29.3420   51.4490 C   0  0  0  0  0  0  0  0  0  0  0  0
   37.0230   30.2020   50.8700 C   0  0  0  0  0  0  0  0  0  0  0  0
   36.7430   30.9360   49.7420 C   0  0  0  0  0  0  0  0  0  0  0  0
   35.4900   30.7850   49.2140 N   0  0  0  0  0  0  0  0  0  0  0  0
   34.5780   29.9650   49.7620 C   0  0  0  0  0  0  0  0  0  0  0  0
   34.8730   29.2590   50.8610 N   0  0  0  0  0  0  0  0  0  0  0  0
   40.8300   31.1339   46.2121 H   0  0  0  0  0  0  0  0  0  0  0  0
   38.4459   33.0657   42.7462 H   0  0  0  0  0  0  0  0  0  0  0  0
   40.9867   29.9573   44.3533 H   0  0  0  0  0  0  0  0  0  0  0  0
   42.3527   28.5240   42.2963 H   0  0  0  0  0  0  0  0  0  0  0  0
   42.4076   28.6730   39.7104 H   0  0  0  0  0  0  0  0  0  0  0  0
   39.9559   32.7249   39.7114 H   0  0  0  0  0  0  0  0  0  0  0  0
   37.5828   33.9521   41.3720 H   0  0  0  0  0  0  0  0  0  0  0  0
   37.7718   34.7059   40.0191 H   0  0  0  0  0  0  0  0  0  0  0  0
   37.2472   32.1964   38.7384 H   0  0  0  0  0  0  0  0  0  0  0  0
   36.8075   31.5126   40.0566 H   0  0  0  0  0  0  0  0  0  0  0  0
   37.5165   33.4740   50.4646 H   0  0  0  0  0  0  0  0  0  0  0  0
   39.1564   34.9079   49.3482 H   0  0  0  0  0  0  0  0  0  0  0  0
   40.3237   34.0713   47.3114 H   0  0  0  0  0  0  0  0  0  0  0  0
   36.3102   28.7584   52.3513 H   0  0  0  0  0  0  0  0  0  0  0  0
   38.0172   30.2905   51.3323 H   0  0  0  0  0  0  0  0  0  0  0  0
   33.5818   29.8728   49.3048 H   0  0  0  0  0  0  0  0  0  0  0  0
  1  2  2  0
  1  3  1  0
  3 22  1  0
  4  5  2  0
  5  1  1  0
  6  5  1  0
  7  6  2  0
  8  7  1  0
  9  8  1  0
 10  9  2  0
 10 11  1  0
 11 12  2  0
 11  7  1  0
 12  4  1  0
 13 14  1  0
 13 12  1  0
 15 13  1  0
 15 14  1  0
 16 17  1  0
 17 18  2  0
 18 19  1  0
 18 25  1  0
 20 19  2  0
 21 20  1  0
 22 21  2  0
 22 17  1  0
 24 23  2  0
 25 24  1  0
 26 25  2  0
 26 27  1  0
 27 28  2  0
 28 23  1  0
  3 29  1  0
  4 30  1  0
  6 31  1  0
  8 32  1  0
  9 33  1  0
 13 34  1  0
 14 35  1  0
 14 36  1  0
 15 37  1  0
 15 38  1  0
 19 39  1  0
 20 40  1  0
 21 41  1  0
 23 42  1  0
 24 43  1  0
 27 44  1  0
M  ISO  8  30  14  31  14  32   9  33  14  34  13  35  13  36  13  37  13
M  ISO  7  38  13  39  14  40  14  41  14  42  14  43  14  44  14
M  END
>  <minimizedAffinity>  (1) 
-7.32946205

>  <minimizedRMSD>  (1) 
0.0634440929

$$$$
