
     RDKit          3D

 41 44  0  0  0  0  0  0  0  0999 V2000
   39.2900   31.9140   44.9590 C   0  0  0  0  0  0  0  0  0  0  0  0
   38.1910   32.5650   45.0720 O   0  0  0  0  0  0  0  0  0  0  0  0
   39.9700   31.6570   46.1670 N   0  0  0  0  0  0  0  0  0  0  0  0
   39.1960   32.2220   42.5790 C   0  0  0  0  0  0  0  0  0  0  0  0
   39.7190   31.5160   43.6290 C   0  0  0  0  0  0  0  0  0  0  0  0
   40.6010   30.4810   43.4760 C   0  0  0  0  0  0  0  0  0  0  0  0
   41.0040   30.1080   42.2040 C   0  0  0  0  0  0  0  0  0  0  0  0
   41.8240   29.1740   41.7330 N   0  0  0  0  0  0  0  0  0  0  0  0
   41.8440   29.2600   40.4010 C   0  0  0  0  0  0  0  0  0  0  0  0
   41.0280   30.2590   40.0230 N   0  0  0  0  0  0  0  0  0  0  0  0
   40.4830   30.8150   41.1340 C   0  0  0  0  0  0  0  0  0  0  0  0
   39.5900   31.8630   41.2710 C   0  0  0  0  0  0  0  0  0  0  0  0
   39.0660   32.5730   40.2090 O   0  0  0  0  0  0  0  0  0  0  0  0
   38.3810   33.7950   40.4100 C   0  0  0  0  0  0  0  0  0  0  0  0
   38.1210   30.1520   47.4890 F   0  0  0  0  0  0  0  0  0  0  0  0
   38.3690   31.4010   47.9930 C   0  0  0  0  0  0  0  0  0  0  0  0
   37.7120   31.8450   49.1030 C   0  0  0  0  0  0  0  0  0  0  0  0
   38.0160   33.0990   49.5410 C   0  0  0  0  0  0  0  0  0  0  0  0
   38.9350   33.9050   48.9230 C   0  0  0  0  0  0  0  0  0  0  0  0
   39.5990   33.4380   47.7910 C   0  0  0  0  0  0  0  0  0  0  0  0
   39.3060   32.1650   47.3260 C   0  0  0  0  0  0  0  0  0  0  0  0
   36.0720   29.3500   51.4460 C   0  0  0  0  0  0  0  0  0  0  0  0
   37.0320   30.2180   50.8620 C   0  0  0  0  0  0  0  0  0  0  0  0
   36.7420   30.9440   49.7240 C   0  0  0  0  0  0  0  0  0  0  0  0
   35.4850   30.7870   49.1900 N   0  0  0  0  0  0  0  0  0  0  0  0
   34.5730   29.9650   49.7410 C   0  0  0  0  0  0  0  0  0  0  0  0
   34.8640   29.2660   50.8410 N   0  0  0  0  0  0  0  0  0  0  0  0
   40.8649   31.1488   46.2103 H   0  0  0  0  0  0  0  0  0  0  0  0
   38.4881   33.0465   42.7494 H   0  0  0  0  0  0  0  0  0  0  0  0
   40.9876   29.9485   44.3574 H   0  0  0  0  0  0  0  0  0  0  0  0
   42.3547   28.4977   42.3003 H   0  0  0  0  0  0  0  0  0  0  0  0
   42.4305   28.6200   39.7254 H   0  0  0  0  0  0  0  0  0  0  0  0
   38.2756   33.9831   41.4887 H   0  0  0  0  0  0  0  0  0  0  0  0
   38.9510   34.6150   39.9488 H   0  0  0  0  0  0  0  0  0  0  0  0
   37.3841   33.7367   39.9488 H   0  0  0  0  0  0  0  0  0  0  0  0
   37.4989   33.4821   50.4331 H   0  0  0  0  0  0  0  0  0  0  0  0
   39.1464   34.9103   49.3164 H   0  0  0  0  0  0  0  0  0  0  0  0
   40.3408   34.0664   47.2764 H   0  0  0  0  0  0  0  0  0  0  0  0
   36.3004   28.7700   52.3523 H   0  0  0  0  0  0  0  0  0  0  0  0
   38.0253   30.3138   51.3249 H   0  0  0  0  0  0  0  0  0  0  0  0
   33.5785   29.8680   49.2810 H   0  0  0  0  0  0  0  0  0  0  0  0
  1  2  2  0
  1  3  1  0
  3 21  1  0
  4  5  2  0
  5  1  1  0
  6  5  1  0
  7  6  2  0
  8  7  1  0
  9  8  1  0
 10  9  2  0
 10 11  1  0
 11 12  2  0
 11  7  1  0
 12  4  1  0
 13 14  1  0
 13 12  1  0
 15 16  1  0
 16 17  2  0
 17 18  1  0
 17 24  1  0
 19 18  2  0
 20 19  1  0
 21 20  2  0
 21 16  1  0
 23 22  2  0
 24 23  1  0
 25 24  2  0
 25 26  1  0
 26 27  2  0
 27 22  1  0
  3 28  1  0
  4 29  1  0
  6 30  1  0
  8 31  1  0
  9 32  1  0
 14 33  1  0
 14 34  1  0
 14 35  1  0
 18 36  1  0
 19 37  1  0
 20 38  1  0
 22 39  1  0
 23 40  1  0
 26 41  1  0
M  ISO  8  29  14  30  14  31   9  32  14  33   8  34   8  35   8  36  14
M  ISO  5  37  14  38  14  39  14  40  14  41  14
M  END
>  <minimizedAffinity>  (1) 
-7.2961483

>  <minimizedRMSD>  (1) 
0.0653370768

$$$$
