
     RDKit          3D

 22 23  0  0  1  0  0  0  0  0999 V2000
   38.4690   31.3530   48.0650 C   0  0  0  0  0  0  0  0  0  0  0  0
   37.3720   30.2270   51.4610 C   0  0  0  0  0  0  0  0  0  0  0  0
   38.0680   30.9100   50.4110 C   0  0  0  0  0  0  0  0  0  0  0  0
   37.7200   30.6200   49.1110 C   0  0  0  0  0  0  0  0  0  0  0  0
   36.7590   29.7240   48.8500 N   0  0  0  0  0  0  0  0  0  0  0  0
   36.1100   29.0870   49.8650 C   0  0  0  0  0  0  0  0  0  0  0  0
   36.4160   29.3370   51.1640 N   0  0  0  0  0  0  0  0  0  0  0  0
   38.0780   30.9060   46.6840 C   0  0  1  0  0  0  0  0  0  0  0  0
   38.2440   31.9940   45.6170 C   0  0  0  0  0  0  0  0  0  0  0  0
   39.0550   30.7520   45.6020 C   0  0  1  0  0  0  0  0  0  0  0  0
   40.4500   30.8090   46.0180 N   0  0  0  0  0  0  0  0  0  0  0  0
   38.2596   32.4283   48.1642 H   0  0  0  0  0  0  0  0  0  0  0  0
   39.5406   31.1455   48.2018 H   0  0  0  0  0  0  0  0  0  0  0  0
   37.6230   30.4338   52.5118 H   0  0  0  0  0  0  0  0  0  0  0  0
   38.8561   31.6434   50.6368 H   0  0  0  0  0  0  0  0  0  0  0  0
   35.3230   28.3562   49.6273 H   0  0  0  0  0  0  0  0  0  0  0  0
   37.3017   30.2293   47.0707 H   0  0  0  0  0  0  0  0  0  0  0  0
   37.4608   32.1547   44.8615 H   0  0  0  0  0  0  0  0  0  0  0  0
   38.4548   33.0736   45.6176 H   0  0  0  0  0  0  0  0  0  0  0  0
   39.2492   30.0065   44.8168 H   0  0  0  0  0  0  0  0  0  0  0  0
   40.5017   30.8111   47.0467 H   0  0  0  0  0  0  0  0  0  0  0  0
   40.9516   29.9878   45.6507 H   0  0  0  0  0  0  0  0  0  0  0  0
  1  4  1  0
  3  2  2  0
  4  3  1  0
  5  4  2  0
  5  6  1  0
  6  7  2  0
  7  2  1  0
  8  1  1  0
  9  8  1  0
 10  9  1  0
 10 11  1  0
 10  8  1  0
  1 12  1  0
  1 13  1  0
  2 14  1  0
  3 15  1  0
  6 16  1  0
  8 17  1  1
  9 18  1  0
  9 19  1  0
 10 20  1  6
 11 21  1  0
 11 22  1  0
M  ISO  8  12   8  13   8  14  14  15  14  16  14  17  13  18  13  19  13
M  ISO  3  20  13  21   5  22   5
M  END
>  <minimizedAffinity>  (1) 
-4.51835251

>  <minimizedRMSD>  (1) 
0.892783761

$$$$
