
     RDKit          3D

 26 28  0  0  0  0  0  0  0  0999 V2000
   37.9710   31.1490   48.0040 C   0  0  0  0  0  0  0  0  0  0  0  0
   38.9030   32.0960   47.8590 C   0  0  0  0  0  0  0  0  0  0  0  0
   39.3040   32.4940   46.6420 C   0  0  0  0  0  0  0  0  0  0  0  0
   38.6950   31.8650   45.5640 C   0  0  0  0  0  0  0  0  0  0  0  0
   37.5330   30.6890   46.3770 S   0  0  0  0  0  0  0  0  0  0  0  0
   37.2920   30.1410   51.5600 C   0  0  0  0  0  0  0  0  0  0  0  0
   37.9340   30.7490   50.4750 C   0  0  0  0  0  0  0  0  0  0  0  0
   37.3860   30.5630   49.2080 C   0  0  0  0  0  0  0  0  0  0  0  0
   36.2750   29.8140   49.0950 N   0  0  0  0  0  0  0  0  0  0  0  0
   35.6760   29.2420   50.1440 C   0  0  0  0  0  0  0  0  0  0  0  0
   36.1880   29.4100   51.3710 N   0  0  0  0  0  0  0  0  0  0  0  0
   38.8580   32.0190   44.1260 C   0  0  0  0  0  0  0  0  0  0  0  0
   39.9440   31.4320   43.5280 C   0  0  0  0  0  0  0  0  0  0  0  0
   40.0470   31.6150   42.1450 C   0  0  0  0  0  0  0  0  0  0  0  0
   39.0750   32.3500   41.5020 C   0  0  0  0  0  0  0  0  0  0  0  0
   37.9890   32.9310   42.1350 C   0  0  0  0  0  0  0  0  0  0  0  0
   37.9410   32.7230   43.4700 N   0  0  0  0  0  0  0  0  0  0  0  0
   39.3489   32.5570   48.7527 H   0  0  0  0  0  0  0  0  0  0  0  0
   40.0695   33.2722   46.5062 H   0  0  0  0  0  0  0  0  0  0  0  0
   37.6981   30.2652   52.5747 H   0  0  0  0  0  0  0  0  0  0  0  0
   38.8415   31.3539   50.6182 H   0  0  0  0  0  0  0  0  0  0  0  0
   34.7684   28.6371   50.0011 H   0  0  0  0  0  0  0  0  0  0  0  0
   40.6860   30.8547   44.0991 H   0  0  0  0  0  0  0  0  0  0  0  0
   40.8867   31.1810   41.5824 H   0  0  0  0  0  0  0  0  0  0  0  0
   39.1678   32.4841   40.4142 H   0  0  0  0  0  0  0  0  0  0  0  0
   37.2278   33.5140   41.5958 H   0  0  0  0  0  0  0  0  0  0  0  0
  1  8  1  0
  2  1  2  0
  3  2  1  0
  4  5  1  0
  4  3  2  0
  5  1  1  0
  7  6  2  0
  8  7  1  0
  9  8  2  0
  9 10  1  0
 10 11  2  0
 11  6  1  0
 12  4  1  0
 13 12  2  0
 14 13  1  0
 15 16  1  0
 15 14  2  0
 16 17  2  0
 17 12  1  0
  2 18  1  0
  3 19  1  0
  6 20  1  0
  7 21  1  0
 10 22  1  0
 13 23  1  0
 14 24  1  0
 15 25  1  0
 16 26  1  0
M  ISO  8  18  14  19  14  20  14  21  14  22  14  23  14  24  14  25  14
M  ISO  1  26  14
M  END
>  <minimizedAffinity>  (1) 
-5.33589029

>  <minimizedRMSD>  (1) 
0.400812685

$$$$
