
     RDKit          3D

 19 20  0  0  0  0  0  0  0  0999 V2000
   38.1670   31.3890   47.8080 C   0  0  0  0  0  0  0  0  0  0  0  0
   39.1440   32.2960   47.7030 C   0  0  0  0  0  0  0  0  0  0  0  0
   39.4880   32.8170   46.5130 C   0  0  0  0  0  0  0  0  0  0  0  0
   38.7770   32.3640   45.4120 C   0  0  0  0  0  0  0  0  0  0  0  0
   37.5960   31.1580   46.1610 S   0  0  0  0  0  0  0  0  0  0  0  0
   37.4340   30.2380   51.3030 C   0  0  0  0  0  0  0  0  0  0  0  0
   38.0300   30.9760   50.2700 C   0  0  0  0  0  0  0  0  0  0  0  0
   37.6210   30.6890   48.9700 C   0  0  0  0  0  0  0  0  0  0  0  0
   36.6940   29.7360   48.7690 N   0  0  0  0  0  0  0  0  0  0  0  0
   36.1450   29.0500   49.7860 C   0  0  0  0  0  0  0  0  0  0  0  0
   36.5110   29.2960   51.0390 N   0  0  0  0  0  0  0  0  0  0  0  0
   38.8630   32.6810   44.0430 N   0  0  0  0  0  0  0  0  0  0  0  0
   39.6766   32.6221   48.6086 H   0  0  0  0  0  0  0  0  0  0  0  0
   40.2907   33.5630   46.4174 H   0  0  0  0  0  0  0  0  0  0  0  0
   37.7260   30.4326   52.3455 H   0  0  0  0  0  0  0  0  0  0  0  0
   38.7867   31.7470   50.4773 H   0  0  0  0  0  0  0  0  0  0  0  0
   35.3875   28.2796   49.5794 H   0  0  0  0  0  0  0  0  0  0  0  0
   39.5562   33.3692   43.7163 H   0  0  0  0  0  0  0  0  0  0  0  0
   38.2327   32.2247   43.3681 H   0  0  0  0  0  0  0  0  0  0  0  0
  1  8  1  0
  2  1  2  0
  3  2  1  0
  4  5  1  0
  4  3  2  0
  5  1  1  0
  7  6  2  0
  8  7  1  0
  9  8  2  0
  9 10  1  0
 10 11  2  0
 11  6  1  0
 12  4  1  0
  2 13  1  0
  3 14  1  0
  6 15  1  0
  7 16  1  0
 10 17  1  0
 12 18  1  0
 12 19  1  0
M  ISO  5  13  14  14  14  15  14  16  14  17  14
M  END
>  <minimizedAffinity>  (1) 
-4.56053782

>  <minimizedRMSD>  (1) 
0.173067331

$$$$
