
     RDKit          3D

 18 19  0  0  0  0  0  0  0  0999 V2000
   37.4220   30.2290   51.3110 C   0  0  0  0  0  0  0  0  0  0  0  0
   38.0160   30.9680   50.2790 C   0  0  0  0  0  0  0  0  0  0  0  0
   37.6200   30.6910   48.9810 C   0  0  0  0  0  0  0  0  0  0  0  0
   36.6950   29.7370   48.7720 N   0  0  0  0  0  0  0  0  0  0  0  0
   36.1360   29.0400   49.7670 C   0  0  0  0  0  0  0  0  0  0  0  0
   36.5070   29.2930   51.0380 N   0  0  0  0  0  0  0  0  0  0  0  0
   38.1580   31.3870   47.8090 C   0  0  0  0  0  0  0  0  0  0  0  0
   39.1350   32.2960   47.7290 C   0  0  0  0  0  0  0  0  0  0  0  0
   39.4790   32.8160   46.5400 C   0  0  0  0  0  0  0  0  0  0  0  0
   38.7830   32.3720   45.4190 C   0  0  0  0  0  0  0  0  0  0  0  0
   37.5970   31.1570   46.1610 S   0  0  0  0  0  0  0  0  0  0  0  0
   38.8700   32.6810   44.0860 O   0  0  0  0  0  0  0  0  0  0  0  0
   37.7111   30.4207   52.3549 H   0  0  0  0  0  0  0  0  0  0  0  0
   38.7697   31.7403   50.4922 H   0  0  0  0  0  0  0  0  0  0  0  0
   35.3819   28.2689   49.5507 H   0  0  0  0  0  0  0  0  0  0  0  0
   39.6589   32.6191   48.6407 H   0  0  0  0  0  0  0  0  0  0  0  0
   40.2805   33.5646   46.4548 H   0  0  0  0  0  0  0  0  0  0  0  0
   39.5352   33.3445   43.7741 H   0  0  0  0  0  0  0  0  0  0  0  0
  2  1  2  0
  3  2  1  0
  4  3  2  0
  4  5  1  0
  5  6  2  0
  6  1  1  0
  7  3  1  0
  8  7  2  0
  9  8  1  0
 10 11  1  0
 10  9  2  0
 11  7  1  0
 12 10  1  0
  1 13  1  0
  2 14  1  0
  5 15  1  0
  8 16  1  0
  9 17  1  0
 12 18  1  0
M  ISO  6  13  14  14  14  15  14  16  14  17  14  18   3
M  END
>  <minimizedAffinity>  (1) 
-4.5402317

>  <minimizedRMSD>  (1) 
0.179442734

$$$$
