
     RDKit          3D

 39 42  0  0  0  0  0  0  0  0999 V2000
   38.8450   32.5420   46.0600 C   0  0  0  0  0  0  0  0  0  0  0  0
   39.9910   33.1240   45.6440 C   0  0  0  0  0  0  0  0  0  0  0  0
   40.2490   33.2430   44.3390 C   0  0  0  0  0  0  0  0  0  0  0  0
   39.3090   32.7500   43.4540 C   0  0  0  0  0  0  0  0  0  0  0  0
   38.0200   32.1020   44.5840 S   0  0  0  0  0  0  0  0  0  0  0  0
   38.3050   32.6260   49.7860 C   0  0  0  0  0  0  0  0  0  0  0  0
   38.8810   32.9250   48.5290 C   0  0  0  0  0  0  0  0  0  0  0  0
   38.3360   32.3040   47.4070 C   0  0  0  0  0  0  0  0  0  0  0  0
   37.2930   31.4500   47.5460 N   0  0  0  0  0  0  0  0  0  0  0  0
   36.7680   31.1880   48.7590 C   0  0  0  0  0  0  0  0  0  0  0  0
   37.2660   31.7660   49.8620 N   0  0  0  0  0  0  0  0  0  0  0  0
   35.6660   30.2800   48.8670 N   0  0  0  0  0  0  0  0  0  0  0  0
   35.4100   29.1510   47.9740 C   0  0  0  0  0  0  0  0  0  0  0  0
   33.9720   28.7730   48.2600 C   0  0  0  0  0  0  0  0  0  0  0  0
   33.9420   28.9950   49.7750 C   0  0  0  0  0  0  0  0  0  0  0  0
   34.6220   30.3230   49.8730 C   0  0  0  0  0  0  0  0  0  0  0  0
   40.5760   30.2620   42.2160 Cl  0  0  0  0  0  0  0  0  0  0  0  0
   39.7720   31.5900   41.3900 C   0  0  0  0  0  0  0  0  0  0  0  0
   39.2200   32.6860   42.0220 C   0  0  0  0  0  0  0  0  0  0  0  0
   38.5990   33.7170   41.4280 C   0  0  0  0  0  0  0  0  0  0  0  0
   38.4820   33.7120   40.0340 C   0  0  0  0  0  0  0  0  0  0  0  0
   39.0140   32.6440   39.3290 C   0  0  0  0  0  0  0  0  0  0  0  0
   38.9140   32.5560   37.5850 Cl  0  0  0  0  0  0  0  0  0  0  0  0
   39.6500   31.5950   39.9940 C   0  0  0  0  0  0  0  0  0  0  0  0
   40.7139   33.5011   46.3824 H   0  0  0  0  0  0  0  0  0  0  0  0
   41.1756   33.7160   43.9817 H   0  0  0  0  0  0  0  0  0  0  0  0
   38.7022   33.0927   50.6994 H   0  0  0  0  0  0  0  0  0  0  0  0
   39.7276   33.6218   48.4406 H   0  0  0  0  0  0  0  0  0  0  0  0
   36.0863   28.3133   48.1997 H   0  0  0  0  0  0  0  0  0  0  0  0
   35.5782   29.4025   46.9164 H   0  0  0  0  0  0  0  0  0  0  0  0
   33.2637   29.4314   47.7357 H   0  0  0  0  0  0  0  0  0  0  0  0
   33.6813   27.7644   47.9312 H   0  0  0  0  0  0  0  0  0  0  0  0
   32.9118   29.0377   50.1582 H   0  0  0  0  0  0  0  0  0  0  0  0
   34.4148   28.1950   50.3635 H   0  0  0  0  0  0  0  0  0  0  0  0
   35.0546   30.4638   50.8745 H   0  0  0  0  0  0  0  0  0  0  0  0
   33.9253   31.1590   49.7128 H   0  0  0  0  0  0  0  0  0  0  0  0
   38.1913   34.5470   42.0237 H   0  0  0  0  0  0  0  0  0  0  0  0
   37.9789   34.5374   39.5091 H   0  0  0  0  0  0  0  0  0  0  0  0
   40.0627   30.7575   39.4124 H   0  0  0  0  0  0  0  0  0  0  0  0
  1  8  1  0
  2  1  2  0
  3  2  1  0
  4  3  2  0
  4  5  1  0
  5  1  1  0
  6 11  2  0
  7  6  1  0
  8  9  1  0
  8  7  2  0
  9 10  2  0
 10 12  1  0
 10 11  1  0
 12 16  1  0
 13 14  1  0
 13 12  1  0
 14 15  1  0
 15 16  1  0
 18 19  2  0
 18 17  1  0
 19  4  1  0
 20 19  1  0
 21 20  2  0
 22 24  2  0
 22 21  1  0
 23 22  1  0
 24 18  1  0
  2 25  1  0
  3 26  1  0
  6 27  1  0
  7 28  1  0
 13 29  1  0
 13 30  1  0
 14 31  1  0
 14 32  1  0
 15 33  1  0
 15 34  1  0
 16 35  1  0
 16 36  1  0
 20 37  1  0
 21 38  1  0
 24 39  1  0
M  ISO  8  25  14  26  14  27  14  28  14  29  13  30  13  31  13  32  13
M  ISO  7  33  13  34  13  35  13  36  13  37  14  38  14  39  14
M  END
>  <minimizedAffinity>  (1) 
-6.36776209

>  <minimizedRMSD>  (1) 
2.95360279

$$$$
