
     RDKit          3D

 34 37  0  0  0  0  0  0  0  0999 V2000
   37.1290   30.9170   47.3490 C   0  0  0  0  0  0  0  0  0  0  0  0
   38.0590   31.8690   47.3880 C   0  0  0  0  0  0  0  0  0  0  0  0
   38.5600   32.3700   46.2400 C   0  0  0  0  0  0  0  0  0  0  0  0
   38.0640   31.8520   45.0610 C   0  0  0  0  0  0  0  0  0  0  0  0
   36.8550   30.6200   45.6470 S   0  0  0  0  0  0  0  0  0  0  0  0
   40.7830   30.9030   44.0540 Cl  0  0  0  0  0  0  0  0  0  0  0  0
   39.5360   31.7180   43.1490 C   0  0  0  0  0  0  0  0  0  0  0  0
   38.3370   32.1160   43.6660 C   0  0  0  0  0  0  0  0  0  0  0  0
   37.3530   32.7470   42.9950 C   0  0  0  0  0  0  0  0  0  0  0  0
   37.5460   33.0360   41.6410 C   0  0  0  0  0  0  0  0  0  0  0  0
   38.7220   32.6670   41.0520 C   0  0  0  0  0  0  0  0  0  0  0  0
   39.0460   32.9910   39.3590 Cl  0  0  0  0  0  0  0  0  0  0  0  0
   39.7040   32.0180   41.7920 C   0  0  0  0  0  0  0  0  0  0  0  0
   36.1090   29.6010   50.7250 C   0  0  0  0  0  0  0  0  0  0  0  0
   36.8550   30.3120   49.7610 C   0  0  0  0  0  0  0  0  0  0  0  0
   36.4320   30.2180   48.4350 C   0  0  0  0  0  0  0  0  0  0  0  0
   35.3480   29.4660   48.1280 N   0  0  0  0  0  0  0  0  0  0  0  0
   34.6610   28.8000   49.0710 C   0  0  0  0  0  0  0  0  0  0  0  0
   35.0460   28.8730   50.3620 N   0  0  0  0  0  0  0  0  0  0  0  0
   33.4910   27.9860   48.7560 C   0  0  0  0  0  0  0  0  0  0  0  0
   33.7300   26.9320   47.8730 C   0  0  0  0  0  0  0  0  0  0  0  0
   32.5280   26.2720   47.6860 C   0  0  0  0  0  0  0  0  0  0  0  0
   31.6260   26.9400   48.4490 N   0  0  0  0  0  0  0  0  0  0  0  0
   32.1860   27.9670   49.0950 N   0  0  0  0  0  0  0  0  0  0  0  0
   38.4188   32.2470   48.3563 H   0  0  0  0  0  0  0  0  0  0  0  0
   39.3294   33.1562   46.2436 H   0  0  0  0  0  0  0  0  0  0  0  0
   36.4182   33.0285   43.5019 H   0  0  0  0  0  0  0  0  0  0  0  0
   36.7659   33.5507   41.0609 H   0  0  0  0  0  0  0  0  0  0  0  0
   40.6427   31.7312   41.2954 H   0  0  0  0  0  0  0  0  0  0  0  0
   36.4036   29.6454   51.7839 H   0  0  0  0  0  0  0  0  0  0  0  0
   37.7315   30.9139   50.0428 H   0  0  0  0  0  0  0  0  0  0  0  0
   34.6945   26.6738   47.4114 H   0  0  0  0  0  0  0  0  0  0  0  0
   32.3428   25.3919   47.0527 H   0  0  0  0  0  0  0  0  0  0  0  0
   30.6304   26.6861   48.5214 H   0  0  0  0  0  0  0  0  0  0  0  0
  1  2  2  0
  1 16  1  0
  3  2  1  0
  4  5  1  0
  4  3  2  0
  5  1  1  0
  7  8  2  0
  7  6  1  0
  8  4  1  0
  9  8  1  0
 10  9  2  0
 11 10  1  0
 11 13  2  0
 12 11  1  0
 13  7  1  0
 15 14  2  0
 16 15  1  0
 17 16  2  0
 17 18  1  0
 18 19  2  0
 19 14  1  0
 20 18  1  0
 20 24  2  0
 21 20  1  0
 22 21  2  0
 22 23  1  0
 23 24  1  0
  2 25  1  0
  3 26  1  0
  9 27  1  0
 10 28  1  0
 13 29  1  0
 14 30  1  0
 15 31  1  0
 21 32  1  0
 22 33  1  0
 23 34  1  0
M  ISO  8  25  14  26  14  27  14  28  14  29  14  30  14  31  14  32  14
M  ISO  2  33  14  34   9
M  END
>  <minimizedAffinity>  (1) 
-5.86674547

>  <minimizedRMSD>  (1) 
1.55703318

$$$$
