
     RDKit          3D

 39 41  0  0  0  0  0  0  0  0999 V2000
   37.5800   31.2561   48.4001 C   0  0  0  0  0  0  0  0  0  0  0  0
   38.4670   32.2480   48.3085 C   0  0  0  0  0  0  0  0  0  0  0  0
   38.8412   32.7179   47.1152 C   0  0  0  0  0  0  0  0  0  0  0  0
   38.2771   32.1394   45.9954 C   0  0  0  0  0  0  0  0  0  0  0  0
   37.1699   30.8733   46.7356 S   0  0  0  0  0  0  0  0  0  0  0  0
   41.1603   32.2311   44.9939 Cl  0  0  0  0  0  0  0  0  0  0  0  0
   39.6862   32.4060   44.0530 C   0  0  0  0  0  0  0  0  0  0  0  0
   38.4131   32.3525   44.5800 C   0  0  0  0  0  0  0  0  0  0  0  0
   37.2625   32.4806   43.9002 C   0  0  0  0  0  0  0  0  0  0  0  0
   37.3326   32.6900   42.5183 C   0  0  0  0  0  0  0  0  0  0  0  0
   38.5655   32.7556   41.9172 C   0  0  0  0  0  0  0  0  0  0  0  0
   38.7338   33.0154   40.1913 Cl  0  0  0  0  0  0  0  0  0  0  0  0
   39.7348   32.6159   42.6705 C   0  0  0  0  0  0  0  0  0  0  0  0
   37.0451   29.7818   51.8182 C   0  0  0  0  0  0  0  0  0  0  0  0
   37.6959   30.4643   50.7680 C   0  0  0  0  0  0  0  0  0  0  0  0
   37.0062   30.5684   49.5619 C   0  0  0  0  0  0  0  0  0  0  0  0
   35.7736   30.0256   49.4492 N   0  0  0  0  0  0  0  0  0  0  0  0
   35.1910   29.3828   50.4789 C   0  0  0  0  0  0  0  0  0  0  0  0
   35.8239   29.2652   51.6475 N   0  0  0  0  0  0  0  0  0  0  0  0
   38.8754   32.6611   49.2424 H   0  0  0  0  0  0  0  0  0  0  0  0
   39.5445   33.5112   46.8954 H   0  0  0  0  0  0  0  0  0  0  0  0
   36.2750   32.4334   44.3471 H   0  0  0  0  0  0  0  0  0  0  0  0
   36.4759   32.8040   41.8904 H   0  0  0  0  0  0  0  0  0  0  0  0
   40.7082   32.6686   42.1899 H   0  0  0  0  0  0  0  0  0  0  0  0
   37.5737   29.6944   52.7641 H   0  0  0  0  0  0  0  0  0  0  0  0
   38.6844   30.8967   50.8664 H   0  0  0  0  0  0  0  0  0  0  0  0
   33.8228   28.8229   50.2343 C   0  0  0  0  0  0  0  0  0  0  0  0
   33.8316   27.6400   49.4353 N   0  0  0  0  0  4  0  0  0  0  0  0
   33.4725   27.8970   48.0373 C   0  0  0  0  0  0  0  0  0  0  0  0
   34.1148   28.6317   47.5557 H   0  0  0  0  0  0  0  0  0  0  0  0
   32.8010   26.7474   49.9355 C   0  0  0  0  0  0  0  0  0  0  0  0
   33.2000   26.0627   50.7179 H   0  0  0  0  0  0  0  0  0  0  0  0
   33.1567   29.5818   49.7761 H   0  0  0  0  0  0  0  0  0  0  0  0
   33.4351   28.5662   51.2432 H   0  0  0  0  0  0  0  0  0  0  0  0
   34.7288   27.1212   49.4954 H   0  0  0  0  0  0  0  0  0  0  0  0
   32.4125   28.2187   48.0386 H   0  0  0  0  0  0  0  0  0  0  0  0
   33.5641   26.8836   47.5476 H   0  0  0  0  0  0  0  0  0  0  0  0
   32.0157   27.3638   50.4238 H   0  0  0  0  0  0  0  0  0  0  0  0
   32.2791   26.2076   49.1096 H   0  0  0  0  0  0  0  0  0  0  0  0
  1 16  1  0
  2  1  2  0
  3  2  1  0
  4  5  1  0
  4  3  2  0
  5  1  1  0
  7  8  2  0
  7  6  1  0
  8  4  1  0
  9  8  1  0
 10  9  2  0
 11 10  1  0
 11 13  2  0
 12 11  1  0
 13  7  1  0
 15 14  2  0
 16 15  1  0
 17 16  2  0
 17 18  1  0
 18 19  2  0
 19 14  1  0
  2 20  1  0
  3 21  1  0
  9 22  1  0
 10 23  1  0
 13 24  1  0
 14 25  1  0
 15 26  1  0
 27 28  1  0
 28 29  1  0
 29 30  1  0
 28 31  1  0
 31 32  1  0
 27 33  1  0
 27 34  1  0
 28 35  1  0
 29 36  1  0
 29 37  1  0
 31 38  1  0
 31 39  1  0
 18 27  1  0
M  CHG  1  28   1
M  END
>  <DihAtoms>  (1) 
16,17,26,27

>  <DihDeg>  (1) 
89.998281010936

$$$$
