
     RDKit          3D

 30 32  0  0  0  0  0  0  0  0999 V2000
   37.5870   31.3180   48.3490 C   0  0  0  0  0  0  0  0  0  0  0  0
   38.4710   32.3120   48.2660 C   0  0  0  0  0  0  0  0  0  0  0  0
   38.8700   32.7750   47.0620 C   0  0  0  0  0  0  0  0  0  0  0  0
   38.3160   32.1690   45.9520 C   0  0  0  0  0  0  0  0  0  0  0  0
   37.2020   30.9070   46.6790 S   0  0  0  0  0  0  0  0  0  0  0  0
   41.1880   32.2150   44.9450 Cl  0  0  0  0  0  0  0  0  0  0  0  0
   39.7370   32.4090   44.0060 C   0  0  0  0  0  0  0  0  0  0  0  0
   38.4820   32.3760   44.5320 C   0  0  0  0  0  0  0  0  0  0  0  0
   37.3160   32.5250   43.8410 C   0  0  0  0  0  0  0  0  0  0  0  0
   37.3780   32.7290   42.4600 C   0  0  0  0  0  0  0  0  0  0  0  0
   38.6070   32.7720   41.8660 C   0  0  0  0  0  0  0  0  0  0  0  0
   38.7760   33.0250   40.1360 Cl  0  0  0  0  0  0  0  0  0  0  0  0
   39.7740   32.6150   42.6240 C   0  0  0  0  0  0  0  0  0  0  0  0
   37.0850   29.7740   51.7440 C   0  0  0  0  0  0  0  0  0  0  0  0
   37.7310   30.4480   50.6870 C   0  0  0  0  0  0  0  0  0  0  0  0
   36.9900   30.6270   49.4970 C   0  0  0  0  0  0  0  0  0  0  0  0
   35.7400   30.1680   49.4180 N   0  0  0  0  0  0  0  0  0  0  0  0
   35.1580   29.5280   50.4520 C   0  0  0  0  0  0  0  0  0  0  0  0
   35.8210   29.3330   51.6000 N   0  0  0  0  0  0  0  0  0  0  0  0
   33.7540   29.0220   50.3320 C   0  0  0  0  0  0  0  0  0  0  0  0
   38.8785   32.7584   49.1850 H   0  0  0  0  0  0  0  0  0  0  0  0
   39.5993   33.5933   46.9702 H   0  0  0  0  0  0  0  0  0  0  0  0
   36.3468   32.4854   44.3598 H   0  0  0  0  0  0  0  0  0  0  0  0
   36.4601   32.8518   41.8663 H   0  0  0  0  0  0  0  0  0  0  0  0
   40.7491   32.6550   42.1165 H   0  0  0  0  0  0  0  0  0  0  0  0
   37.6172   29.6075   52.6922 H   0  0  0  0  0  0  0  0  0  0  0  0
   38.7627   30.8169   50.7842 H   0  0  0  0  0  0  0  0  0  0  0  0
   33.3320   28.8699   51.3364 H   0  0  0  0  0  0  0  0  0  0  0  0
   33.1447   29.7571   49.7857 H   0  0  0  0  0  0  0  0  0  0  0  0
   33.7538   28.0672   49.7857 H   0  0  0  0  0  0  0  0  0  0  0  0
  1 16  1  0
  2  1  2  0
  3  2  1  0
  4  5  1  0
  4  3  2  0
  5  1  1  0
  7  8  2  0
  7  6  1  0
  8  4  1  0
  9  8  1  0
 10  9  2  0
 11 10  1  0
 11 13  2  0
 12 11  1  0
 13  7  1  0
 15 14  2  0
 16 15  1  0
 17 16  2  0
 17 18  1  0
 18 19  2  0
 19 14  1  0
 20 18  1  0
  2 21  1  0
  3 22  1  0
  9 23  1  0
 10 24  1  0
 13 25  1  0
 14 26  1  0
 15 27  1  0
 20 28  1  0
 20 29  1  0
 20 30  1  0
M  ISO  8  21  14  22  14  23  14  24  14  25  14  26  14  27  14  28   8
M  ISO  2  29   8  30   8
M  END
>  <minimizedAffinity>  (1) 
-5.77027845

>  <minimizedRMSD>  (1) 
0.100320011

$$$$
