
     RDKit          3D

 37 39  0  0  1  0  0  0  0  0999 V2000
   36.5220   29.5790   49.2570 N   0  0  0  0  0  0  0  0  0  0  0  0
   37.7890   30.0430   48.8960 C   0  0  2  0  0  0  0  0  0  0  0  0
   38.3460   30.6350   50.1850 C   0  0  0  0  0  0  0  0  0  0  0  0
   37.2500   30.5060   51.1980 C   0  0  0  0  0  0  0  0  0  0  0  0
   36.5910   29.2540   50.6970 C   0  0  0  0  0  0  0  0  0  0  0  0
   35.3490   29.3520   48.5150 C   0  0  0  0  0  0  0  0  0  0  0  0
   34.9200   30.4170   47.7490 C   0  0  0  0  0  0  0  0  0  0  0  0
   33.7980   30.3310   46.9340 C   0  0  0  0  0  0  0  0  0  0  0  0
   33.1570   29.1190   46.9500 N   0  0  0  0  0  0  0  0  0  0  0  0
   33.5820   28.0910   47.6970 C   0  0  0  0  0  0  0  0  0  0  0  0
   34.6870   28.2030   48.4890 N   0  0  0  0  0  0  0  0  0  0  0  0
   38.3710   32.1140   47.5350 C   0  0  0  0  0  0  0  0  0  0  0  0
   38.1710   30.7380   47.7220 C   0  0  0  0  0  0  0  0  0  0  0  0
   38.4220   30.0720   46.5090 C   0  0  0  0  0  0  0  0  0  0  0  0
   38.7960   30.6450   45.3410 C   0  0  0  0  0  0  0  0  0  0  0  0
   38.9620   32.0050   45.2790 C   0  0  0  0  0  0  0  0  0  0  0  0
   38.7500   32.7620   46.3830 C   0  0  0  0  0  0  0  0  0  0  0  0
   37.4940   33.4480   49.6470 N   0  0  0  0  0  0  0  0  0  0  0  0
   38.1400   32.9840   48.6670 C   0  0  0  0  0  0  0  0  0  0  0  0
   39.1440   33.9590   49.0300 N   0  0  0  0  0  0  0  0  0  0  0  0
   37.9430   34.2270   50.1900 H   0  0  0  0  0  0  0  0  0  0  0  0
   38.2355   29.1453   48.4434 H   0  0  0  0  0  0  0  0  0  0  0  0
   39.2362   30.0765   50.5101 H   0  0  0  0  0  0  0  0  0  0  0  0
   38.6531   31.6827   50.0507 H   0  0  0  0  0  0  0  0  0  0  0  0
   37.6461   30.3812   52.2166 H   0  0  0  0  0  0  0  0  0  0  0  0
   36.5878   31.3802   51.2833 H   0  0  0  0  0  0  0  0  0  0  0  0
   35.5918   29.1120   51.1347 H   0  0  0  0  0  0  0  0  0  0  0  0
   37.1133   28.3176   50.9427 H   0  0  0  0  0  0  0  0  0  0  0  0
   35.4828   31.3614   47.7848 H   0  0  0  0  0  0  0  0  0  0  0  0
   33.4491   31.1745   46.3201 H   0  0  0  0  0  0  0  0  0  0  0  0
   33.0300   27.1399   47.6711 H   0  0  0  0  0  0  0  0  0  0  0  0
   38.3027   28.9785   46.5094 H   0  0  0  0  0  0  0  0  0  0  0  0
   38.9655   30.0247   44.4485 H   0  0  0  0  0  0  0  0  0  0  0  0
   39.2666   32.4805   44.3350 H   0  0  0  0  0  0  0  0  0  0  0  0
   38.8765   33.8544   46.3584 H   0  0  0  0  0  0  0  0  0  0  0  0
   38.9887   34.5831   49.8346 H   0  0  0  0  0  0  0  0  0  0  0  0
   40.0146   34.0295   48.4840 H   0  0  0  0  0  0  0  0  0  0  0  0
  1  5  1  0
  2  1  1  0
  2  3  1  0
  3  4  1  0
  5  4  1  0
  6  1  1  0
  7  6  2  0
  8  9  2  0
  8  7  1  0
  9 10  1  0
 10 11  2  0
 11  6  1  0
 12 13  2  0
 12 19  1  0
 13  2  1  0
 14 13  1  0
 15 14  2  0
 16 15  1  0
 16 17  2  0
 17 12  1  0
 18 21  1  0
 19 20  1  0
 19 18  2  0
  2 22  1  6
  3 23  1  0
  3 24  1  0
  4 25  1  0
  4 26  1  0
  5 27  1  0
  5 28  1  0
  7 29  1  0
  8 30  1  0
 10 31  1  0
 14 32  1  0
 15 33  1  0
 16 34  1  0
 17 35  1  0
 20 36  1  0
 20 37  1  0
M  ISO  8  22  13  23  13  24  13  25  13  26  13  27  13  28  13  29  14
M  ISO  6  30  14  31  14  32  14  33  14  34  14  35  14
M  END
>  <minimizedAffinity>  (1) 
-5.67952251

>  <minimizedRMSD>  (1) 
1.09402609

$$$$
