
     RDKit          3D

 26 27  0  0  1  0  0  0  0  0999 V2000
   38.6800   32.1720   48.4120 C   0  0  0  0  0  0  0  0  0  0  0  0
   37.3150   29.9480   51.0950 C   0  0  0  0  0  0  0  0  0  0  0  0
   38.0590   30.9700   50.4310 C   0  0  0  0  0  0  0  0  0  0  0  0
   37.8920   31.1040   49.0680 C   0  0  0  0  0  0  0  0  0  0  0  0
   37.0500   30.2820   48.4280 N   0  0  0  0  0  0  0  0  0  0  0  0
   36.3540   29.3230   49.0710 C   0  0  0  0  0  0  0  0  0  0  0  0
   36.4960   29.1680   50.3940 N   0  0  0  0  0  0  0  0  0  0  0  0
   38.6940   32.0170   46.9180 C   0  0  1  0  0  0  0  0  0  0  0  0
   39.7900   32.8200   46.2160 C   0  0  0  0  0  0  0  0  0  0  0  0
   39.8190   31.3440   46.2240 C   0  0  2  0  0  0  0  0  0  0  0  0
   39.4380   30.5070   45.0360 C   0  0  0  0  0  0  0  0  0  0  0  0
   40.2560   30.8150   43.8010 C   0  0  0  0  0  0  0  0  0  0  0  0
   38.2379   33.1470   48.6647 H   0  0  0  0  0  0  0  0  0  0  0  0
   39.7168   32.1027   48.7728 H   0  0  0  0  0  0  0  0  0  0  0  0
   37.4184   29.8062   52.1809 H   0  0  0  0  0  0  0  0  0  0  0  0
   38.7423   31.6283   50.9875 H   0  0  0  0  0  0  0  0  0  0  0  0
   35.6705   28.6687   48.5100 H   0  0  0  0  0  0  0  0  0  0  0  0
   37.6029   31.8871   46.8676 H   0  0  0  0  0  0  0  0  0  0  0  0
   40.5218   33.3901   46.8071 H   0  0  0  0  0  0  0  0  0  0  0  0
   39.8146   33.5994   45.4402 H   0  0  0  0  0  0  0  0  0  0  0  0
   40.6264   30.6425   46.4809 H   0  0  0  0  0  0  0  0  0  0  0  0
   39.5814   29.4475   45.2947 H   0  0  0  0  0  0  0  0  0  0  0  0
   38.3889   30.7367   44.7981 H   0  0  0  0  0  0  0  0  0  0  0  0
   41.2465   31.1879   44.1008 H   0  0  0  0  0  0  0  0  0  0  0  0
   40.3746   29.9000   43.2021 H   0  0  0  0  0  0  0  0  0  0  0  0
   39.7416   31.5810   43.2021 H   0  0  0  0  0  0  0  0  0  0  0  0
  1  4  1  0
  3  2  2  0
  4  3  1  0
  5  4  2  0
  5  6  1  0
  6  7  2  0
  7  2  1  0
  8  1  1  0
  9 10  1  0
  9  8  1  0
 10  8  1  0
 11 10  1  0
 12 11  1  0
  1 13  1  0
  1 14  1  0
  2 15  1  0
  3 16  1  0
  6 17  1  0
  8 18  1  6
  9 19  1  0
  9 20  1  0
 10 21  1  1
 11 22  1  0
 11 23  1  0
 12 24  1  0
 12 25  1  0
 12 26  1  0
M  ISO  8  13   8  14   8  15  14  16  14  17  14  18  13  19  13  20  13
M  ISO  6  21  13  22   8  23   8  24   8  25   8  26   8
M  END
>  <minimizedAffinity>  (1) 
-4.46857452

>  <minimizedRMSD>  (1) 
0.30150491

$$$$
