
     RDKit          3D

 28 29  0  0  1  0  0  0  0  0999 V2000
   35.7070   29.7500   49.2290 N   0  0  0  0  0  0  0  0  0  0  0  0
   36.1540   31.1340   49.2150 C   0  0  0  0  0  0  0  0  0  0  0  0
   36.9900   31.2070   50.4850 C   0  0  1  0  0  0  0  0  0  0  0  0
   36.8480   29.8590   51.1740 C   0  0  0  0  0  0  0  0  0  0  0  0
   36.7000   28.9620   49.9600 C   0  0  0  0  0  0  0  0  0  0  0  0
   34.5300   29.2280   48.6490 C   0  0  0  0  0  0  0  0  0  0  0  0
   34.1740   29.7080   47.3910 C   0  0  0  0  0  0  0  0  0  0  0  0
   33.0220   29.2410   46.7500 C   0  0  0  0  0  0  0  0  0  0  0  0
   32.2890   28.2950   47.4450 N   0  0  0  0  0  0  0  0  0  0  0  0
   32.6660   27.8520   48.6700 C   0  0  0  0  0  0  0  0  0  0  0  0
   33.7810   28.3150   49.2710 N   0  0  0  0  0  0  0  0  0  0  0  0
   38.4120   31.4370   50.0280 C   0  0  0  0  0  0  0  0  0  0  0  0
   38.6070   32.7380   49.2930 C   0  0  0  0  0  0  0  0  0  0  0  0
   36.7612   31.3493   48.3234 H   0  0  0  0  0  0  0  0  0  0  0  0
   35.3334   31.8657   49.1805 H   0  0  0  0  0  0  0  0  0  0  0  0
   36.6864   32.0031   51.1807 H   0  0  0  0  0  0  0  0  0  0  0  0
   37.7412   29.6050   51.7637 H   0  0  0  0  0  0  0  0  0  0  0  0
   36.0270   29.7937   51.9032 H   0  0  0  0  0  0  0  0  0  0  0  0
   36.3229   27.9634   50.2258 H   0  0  0  0  0  0  0  0  0  0  0  0
   37.6288   28.7387   49.4146 H   0  0  0  0  0  0  0  0  0  0  0  0
   34.8049   30.4616   46.8969 H   0  0  0  0  0  0  0  0  0  0  0  0
   32.7179   29.6026   45.7566 H   0  0  0  0  0  0  0  0  0  0  0  0
   32.0498   27.0996   49.1840 H   0  0  0  0  0  0  0  0  0  0  0  0
   39.0659   31.4360   50.9125 H   0  0  0  0  0  0  0  0  0  0  0  0
   38.6590   30.6288   49.3239 H   0  0  0  0  0  0  0  0  0  0  0  0
   38.7294   33.5548   50.0195 H   0  0  0  0  0  0  0  0  0  0  0  0
   39.5052   32.6713   48.6615 H   0  0  0  0  0  0  0  0  0  0  0  0
   37.7287   32.9376   48.6615 H   0  0  0  0  0  0  0  0  0  0  0  0
  1  5  1  0
  2  1  1  0
  2  3  1  0
  3  4  1  0
  5  4  1  0
  6  1  1  0
  6 11  1  0
  7  6  2  0
  8  7  1  0
  8  9  2  0
  9 10  1  0
 10 11  2  0
 12  3  1  0
 13 12  1  0
  2 14  1  0
  2 15  1  0
  3 16  1  1
  4 17  1  0
  4 18  1  0
  5 19  1  0
  5 20  1  0
  7 21  1  0
  8 22  1  0
 10 23  1  0
 12 24  1  0
 12 25  1  0
 13 26  1  0
 13 27  1  0
 13 28  1  0
M  ISO  8  14  13  15  13  16  13  17  13  18  13  19  13  20  13  21  14
M  ISO  7  22  14  23  14  24   8  25   8  26   8  27   8  28   8
M  END
>  <minimizedAffinity>  (1) 
-4.64917135

>  <minimizedRMSD>  (1) 
1.47670877

$$$$
