
     RDKit          3D

 24 25  0  0  1  0  0  0  0  0999 V2000
   36.6190   29.5740   49.1590 N   0  0  0  0  0  0  0  0  0  0  0  0
   37.6380   30.3440   48.5030 C   0  0  0  0  0  0  0  0  0  0  0  0
   38.3120   31.0760   49.6390 C   0  0  2  0  0  0  0  0  0  0  0  0
   37.6250   30.5990   50.9080 C   0  0  0  0  0  0  0  0  0  0  0  0
   37.1090   29.2510   50.4940 C   0  0  0  0  0  0  0  0  0  0  0  0
   35.3590   29.1760   48.6520 C   0  0  0  0  0  0  0  0  0  0  0  0
   34.8780   29.8780   47.5330 C   0  0  0  0  0  0  0  0  0  0  0  0
   33.6390   29.5210   46.9960 C   0  0  0  0  0  0  0  0  0  0  0  0
   32.9680   28.5010   47.6030 N   0  0  0  0  0  0  0  0  0  0  0  0
   33.4540   27.8460   48.6740 C   0  0  0  0  0  0  0  0  0  0  0  0
   34.6650   28.1890   49.2070 N   0  0  0  0  0  0  0  0  0  0  0  0
   38.1650   32.4950   49.5810 N   0  0  0  0  0  0  0  0  0  0  0  0
   38.3502   29.6891   47.9797 H   0  0  0  0  0  0  0  0  0  0  0  0
   37.2359   31.0214   47.7352 H   0  0  0  0  0  0  0  0  0  0  0  0
   39.3907   30.8656   49.5936 H   0  0  0  0  0  0  0  0  0  0  0  0
   38.3379   30.5156   51.7416 H   0  0  0  0  0  0  0  0  0  0  0  0
   36.8429   31.2810   51.2728 H   0  0  0  0  0  0  0  0  0  0  0  0
   36.3007   28.9019   51.1534 H   0  0  0  0  0  0  0  0  0  0  0  0
   37.8474   28.4367   50.5349 H   0  0  0  0  0  0  0  0  0  0  0  0
   35.4668   30.6938   47.0883 H   0  0  0  0  0  0  0  0  0  0  0  0
   33.2223   30.0407   46.1206 H   0  0  0  0  0  0  0  0  0  0  0  0
   32.8719   27.0282   49.1238 H   0  0  0  0  0  0  0  0  0  0  0  0
   38.1256   32.8755   50.5373 H   0  0  0  0  0  0  0  0  0  0  0  0
   38.9682   32.9033   49.0819 H   0  0  0  0  0  0  0  0  0  0  0  0
  1  5  1  0
  2  1  1  0
  2  3  1  0
  3  4  1  0
  5  4  1  0
  6  1  1  0
  6 11  1  0
  7  6  2  0
  8  7  1  0
  8  9  2  0
  9 10  1  0
 10 11  2  0
 12  3  1  0
  2 13  1  0
  2 14  1  0
  3 15  1  1
  4 16  1  0
  4 17  1  0
  5 18  1  0
  5 19  1  0
  7 20  1  0
  8 21  1  0
 10 22  1  0
 12 23  1  0
 12 24  1  0
M  ISO  8  13  13  14  13  15  13  16  13  17  13  18  13  19  13  20  14
M  ISO  4  21  14  22  14  23   5  24   5
M  END
>  <minimizedAffinity>  (1) 
-4.24915981

>  <minimizedRMSD>  (1) 
0.346818715

$$$$
