
     RDKit          3D

 35 37  0  0  1  0  0  0  0  0999 V2000
   34.3760   29.1780   48.0810 C   0  0  0  0  0  0  0  0  0  0  0  0
   34.1010   30.0210   46.9840 C   0  0  0  0  0  0  0  0  0  0  0  0
   32.8720   29.8710   46.3360 C   0  0  0  0  0  0  0  0  0  0  0  0
   32.0250   28.9060   46.8270 N   0  0  0  0  0  0  0  0  0  0  0  0
   32.3160   28.1320   47.8630 C   0  0  0  0  0  0  0  0  0  0  0  0
   33.4890   28.2570   48.5000 N   0  0  0  0  0  0  0  0  0  0  0  0
   35.6380   29.3530   48.7210 N   0  0  0  0  0  0  0  0  0  0  0  0
   36.7810   30.0670   48.2320 C   0  0  0  0  0  0  0  0  0  0  0  0
   37.4590   30.5360   49.5200 C   0  0  2  0  0  0  0  0  0  0  0  0
   36.5410   30.1030   50.6520 C   0  0  0  0  0  0  0  0  0  0  0  0
   36.0000   28.8260   50.0180 C   0  0  0  0  0  0  0  0  0  0  0  0
   37.7400   32.0080   49.5230 C   0  0  0  0  0  0  0  0  0  0  0  0
   36.6570   32.5970   50.1540 F   0  0  0  0  0  0  0  0  0  0  0  0
   37.7120   32.4410   48.2140 F   0  0  0  0  0  0  0  0  0  0  0  0
   38.9150   32.3440   50.1130 F   0  0  0  0  0  0  0  0  0  0  0  0
   31.1650   26.8940   48.4410 S   0  0  0  0  0  0  0  0  0  0  0  0
   29.7440   27.6070   49.2040 C   0  0  0  0  0  0  0  0  0  0  0  0
   29.3430   26.9190   50.3490 C   0  0  0  0  0  0  0  0  0  0  0  0
   28.2430   27.3130   51.1040 C   0  0  0  0  0  0  0  0  0  0  0  0
   27.5420   28.4200   50.6890 C   0  0  0  0  0  0  0  0  0  0  0  0
   27.9750   29.0640   49.5550 C   0  0  0  0  0  0  0  0  0  0  0  0
   29.0310   28.6910   48.8240 N   0  0  0  0  0  0  0  0  0  0  0  0
   34.8309   30.7727   46.6492 H   0  0  0  0  0  0  0  0  0  0  0  0
   32.5954   30.4956   45.4738 H   0  0  0  0  0  0  0  0  0  0  0  0
   37.4432   29.4069   47.6525 H   0  0  0  0  0  0  0  0  0  0  0  0
   36.5230   30.8900   47.5493 H   0  0  0  0  0  0  0  0  0  0  0  0
   38.4553   30.0831   49.6309 H   0  0  0  0  0  0  0  0  0  0  0  0
   37.0935   29.9036   51.5821 H   0  0  0  0  0  0  0  0  0  0  0  0
   35.7873   30.8393   50.9678 H   0  0  0  0  0  0  0  0  0  0  0  0
   35.1281   28.4330   50.5615 H   0  0  0  0  0  0  0  0  0  0  0  0
   36.6948   27.9733   50.0050 H   0  0  0  0  0  0  0  0  0  0  0  0
   29.9159   26.0350   50.6658 H   0  0  0  0  0  0  0  0  0  0  0  0
   27.9438   26.7564   52.0044 H   0  0  0  0  0  0  0  0  0  0  0  0
   26.6638   28.7784   51.2460 H   0  0  0  0  0  0  0  0  0  0  0  0
   27.4127   29.9499   49.2248 H   0  0  0  0  0  0  0  0  0  0  0  0
  1  6  1  0
  1  7  1  0
  2  1  2  0
  3  4  2  0
  3  2  1  0
  4  5  1  0
  5 16  1  0
  5  6  2  0
  7 11  1  0
  8  7  1  0
  8  9  1  0
  9 12  1  0
  9 10  1  0
 11 10  1  0
 12 15  1  0
 12 13  1  0
 14 12  1  0
 16 17  1  0
 17 18  2  0
 18 19  1  0
 20 19  2  0
 21 20  1  0
 22 17  1  0
 22 21  2  0
  2 23  1  0
  3 24  1  0
  8 25  1  0
  8 26  1  0
  9 27  1  1
 10 28  1  0
 10 29  1  0
 11 30  1  0
 11 31  1  0
 18 32  1  0
 19 33  1  0
 20 34  1  0
 21 35  1  0
M  ISO  8  23  14  24  14  25  13  26  13  27  13  28  13  29  13  30  13
M  ISO  5  31  13  32  14  33  14  34  14  35  14
M  END
>  <minimizedAffinity>  (1) 
-6.62352276

>  <minimizedRMSD>  (1) 
2.43495131

$$$$
