
     RDKit          3D

 29 30  0  0  1  0  0  0  0  0999 V2000
   36.4630   29.8790   48.6970 N   0  0  0  0  0  0  0  0  0  0  0  0
   37.5850   30.6390   48.2360 C   0  0  0  0  0  0  0  0  0  0  0  0
   38.1020   31.2870   49.5200 C   0  0  2  0  0  0  0  0  0  0  0  0
   37.1220   30.8810   50.6060 C   0  0  0  0  0  0  0  0  0  0  0  0
   36.7300   29.5160   50.0590 C   0  0  0  0  0  0  0  0  0  0  0  0
   35.2850   29.5360   47.9490 C   0  0  0  0  0  0  0  0  0  0  0  0
   35.2210   29.9870   46.6160 C   0  0  0  0  0  0  0  0  0  0  0  0
   34.0790   29.6570   45.8900 C   0  0  0  0  0  0  0  0  0  0  0  0
   33.1170   28.9220   46.5330 N   0  0  0  0  0  0  0  0  0  0  0  0
   33.2100   28.5150   47.7900 C   0  0  0  0  0  0  0  0  0  0  0  0
   34.2990   28.8180   48.5150 N   0  0  0  0  0  0  0  0  0  0  0  0
   31.9090   27.5560   48.5500 S   0  0  0  0  0  0  0  0  0  0  0  0
   31.9060   25.9160   47.7750 C   0  0  0  0  0  0  0  0  0  0  0  0
   38.2680   32.7670   49.4010 C   0  0  0  0  0  0  0  0  0  0  0  0
   37.0920   33.3290   49.8950 F   0  0  0  0  0  0  0  0  0  0  0  0
   38.2980   33.0760   48.0620 F   0  0  0  0  0  0  0  0  0  0  0  0
   39.3730   33.2520   50.0320 F   0  0  0  0  0  0  0  0  0  0  0  0
   38.3479   29.9868   47.7858 H   0  0  0  0  0  0  0  0  0  0  0  0
   37.3270   31.3670   47.4528 H   0  0  0  0  0  0  0  0  0  0  0  0
   39.1179   30.9387   49.7579 H   0  0  0  0  0  0  0  0  0  0  0  0
   37.6032   30.8093   51.5926 H   0  0  0  0  0  0  0  0  0  0  0  0
   36.2916   31.5798   50.7850 H   0  0  0  0  0  0  0  0  0  0  0  0
   35.8371   29.1135   50.5597 H   0  0  0  0  0  0  0  0  0  0  0  0
   37.4793   28.7224   50.1954 H   0  0  0  0  0  0  0  0  0  0  0  0
   36.0367   30.5737   46.1683 H   0  0  0  0  0  0  0  0  0  0  0  0
   33.9542   29.9732   44.8438 H   0  0  0  0  0  0  0  0  0  0  0  0
   31.9046   25.1414   48.5560 H   0  0  0  0  0  0  0  0  0  0  0  0
   31.0077   25.8077   47.1495 H   0  0  0  0  0  0  0  0  0  0  0  0
   32.8039   25.8044   47.1495 H   0  0  0  0  0  0  0  0  0  0  0  0
  1  5  1  0
  2  1  1  0
  2  3  1  0
  3  4  1  0
  5  4  1  0
  6 11  1  0
  6  1  1  0
  7  6  2  0
  8  9  2  0
  8  7  1  0
  9 10  1  0
 10 11  2  0
 10 12  1  0
 13 12  1  0
 14  3  1  0
 14 15  1  0
 14 17  1  0
 16 14  1  0
  2 18  1  0
  2 19  1  0
  3 20  1  1
  4 21  1  0
  4 22  1  0
  5 23  1  0
  5 24  1  0
  7 25  1  0
  8 26  1  0
 13 27  1  0
 13 28  1  0
 13 29  1  0
M  ISO  8  18  13  19  13  20  13  21  13  22  13  23  13  24  13  25  14
M  ISO  4  26  14  27   8  28   8  29   8
M  END
>  <minimizedAffinity>  (1) 
-5.33883047

>  <minimizedRMSD>  (1) 
0.143057242

$$$$
