
     RDKit          3D

 42 45  0  0  1  0  0  0  0  0999 V2000
   37.9620   32.3810   47.8900 C   0  0  1  0  0  0  0  0  0  0  0  0
   39.3660   32.7530   47.4360 C   0  0  0  0  0  0  0  0  0  0  0  0
   38.8890   31.3570   47.3440 C   0  0  2  0  0  0  0  0  0  0  0  0
   37.7510   32.4910   49.3800 C   0  0  0  0  0  0  0  0  0  0  0  0
   36.7660   29.5220   51.4390 C   0  0  0  0  0  0  0  0  0  0  0  0
   37.5250   30.6260   50.9170 C   0  0  0  0  0  0  0  0  0  0  0  0
   36.9540   31.3640   49.9000 C   0  0  0  0  0  0  0  0  0  0  0  0
   35.7310   31.0210   49.4490 N   0  0  0  0  0  0  0  0  0  0  0  0
   35.0380   29.9850   49.9510 C   0  0  0  0  0  0  0  0  0  0  0  0
   35.5610   29.2540   50.9310 N   0  0  0  0  0  0  0  0  0  0  0  0
   38.4750   30.7080   46.0610 C   0  0  0  0  0  0  0  0  0  0  0  0
   39.6240   30.4510   45.1170 C   0  0  0  0  0  0  0  0  0  0  0  0
   39.4690   31.1360   43.8130 C   0  0  0  0  0  0  0  0  0  0  0  0
   38.6110   32.2240   43.7710 C   0  0  0  0  0  0  0  0  0  0  0  0
   38.4090   32.8980   42.5630 C   0  0  0  0  0  0  0  0  0  0  0  0
   39.0690   32.4720   41.4200 C   0  0  0  0  0  0  0  0  0  0  0  0
   39.9240   31.3820   41.4740 C   0  0  0  0  0  0  0  0  0  0  0  0
   40.6060   30.9250   40.3670 C   0  0  0  0  0  0  0  0  0  0  0  0
   41.4780   29.8370   40.3820 C   0  0  0  0  0  0  0  0  0  0  0  0
   41.6580   29.1870   41.6000 C   0  0  0  0  0  0  0  0  0  0  0  0
   40.9740   29.6480   42.7040 C   0  0  0  0  0  0  0  0  0  0  0  0
   40.1250   30.7100   42.6790 C   0  0  0  0  0  0  0  0  0  0  0  0
   36.9236   32.6556   47.6527 H   0  0  0  0  0  0  0  0  0  0  0  0
   39.5110   33.3480   46.5222 H   0  0  0  0  0  0  0  0  0  0  0  0
   40.2292   33.2554   47.8970 H   0  0  0  0  0  0  0  0  0  0  0  0
   39.3435   30.4134   47.6802 H   0  0  0  0  0  0  0  0  0  0  0  0
   38.7308   32.4960   49.8799 H   0  0  0  0  0  0  0  0  0  0  0  0
   37.2022   33.4227   49.5820 H   0  0  0  0  0  0  0  0  0  0  0  0
   37.1753   28.9029   52.2509 H   0  0  0  0  0  0  0  0  0  0  0  0
   38.5213   30.8727   51.3125 H   0  0  0  0  0  0  0  0  0  0  0  0
   34.0417   29.7425   49.5527 H   0  0  0  0  0  0  0  0  0  0  0  0
   37.9961   29.7461   46.2963 H   0  0  0  0  0  0  0  0  0  0  0  0
   37.7895   31.4029   45.5539 H   0  0  0  0  0  0  0  0  0  0  0  0
   40.5518   30.8049   45.5903 H   0  0  0  0  0  0  0  0  0  0  0  0
   39.6496   29.3694   44.9183 H   0  0  0  0  0  0  0  0  0  0  0  0
   38.0922   32.5550   44.6827 H   0  0  0  0  0  0  0  0  0  0  0  0
   37.7298   33.7621   42.5192 H   0  0  0  0  0  0  0  0  0  0  0  0
   38.9136   33.0005   40.4679 H   0  0  0  0  0  0  0  0  0  0  0  0
   40.4530   31.4508   39.4130 H   0  0  0  0  0  0  0  0  0  0  0  0
   42.0004   29.5069   39.4720 H   0  0  0  0  0  0  0  0  0  0  0  0
   42.3331   28.3222   41.6796 H   0  0  0  0  0  0  0  0  0  0  0  0
   41.1235   29.1266   43.6610 H   0  0  0  0  0  0  0  0  0  0  0  0
  1  4  1  0
  2  1  1  0
  3  2  1  0
  3  1  1  0
  4  7  1  0
  6  5  2  0
  7  6  1  0
  8  7  2  0
  8  9  1  0
  9 10  2  0
 10  5  1  0
 11  3  1  0
 12 11  1  0
 13 12  1  0
 14 13  2  0
 15 14  1  0
 16 17  1  0
 16 15  2  0
 17 22  2  0
 18 19  2  0
 18 17  1  0
 19 20  1  0
 20 21  2  0
 22 21  1  0
 22 13  1  0
  1 23  1  6
  2 24  1  0
  2 25  1  0
  3 26  1  1
  4 27  1  0
  4 28  1  0
  5 29  1  0
  6 30  1  0
  9 31  1  0
 11 32  1  0
 11 33  1  0
 12 34  1  0
 12 35  1  0
 14 36  1  0
 15 37  1  0
 16 38  1  0
 18 39  1  0
 19 40  1  0
 20 41  1  0
 21 42  1  0
M  ISO  8  23  13  24  13  25  13  26  13  27   8  28   8  29  14  30  14
M  ISO  8  31  14  32   8  33   8  34   8  35   8  36  14  37  14  38  14
M  ISO  4  39  14  40  14  41  14  42  14
M  END
>  <minimizedAffinity>  (1) 
-5.91474009

>  <minimizedRMSD>  (1) 
2.52125525

$$$$
