
     RDKit          3D

 46 49  0  0  1  0  0  0  0  0999 V2000
   35.3640   29.4230   47.7130 C   0  0  0  0  0  0  0  0  0  0  0  0
   35.2710   30.1100   46.5120 C   0  0  0  0  0  0  0  0  0  0  0  0
   34.2250   29.7540   45.6570 C   0  0  0  0  0  0  0  0  0  0  0  0
   33.3720   28.7540   46.0740 N   0  0  0  0  0  0  0  0  0  0  0  0
   33.4990   28.1250   47.2280 C   0  0  0  0  0  0  0  0  0  0  0  0
   34.5020   28.4650   48.0490 N   0  0  0  0  0  0  0  0  0  0  0  0
   36.4420   29.7840   48.6020 N   0  0  0  0  0  0  0  0  0  0  0  0
   37.6200   30.5290   48.2620 C   0  0  0  0  0  0  0  0  0  0  0  0
   37.9880   31.1830   49.5760 C   0  0  2  0  0  0  0  0  0  0  0  0
   36.8610   30.8400   50.5540 C   0  0  0  0  0  0  0  0  0  0  0  0
   36.5390   29.4620   50.0160 C   0  0  0  0  0  0  0  0  0  0  0  0
   38.1710   32.6760   49.4390 C   0  0  0  0  0  0  0  0  0  0  0  0
   37.0410   33.2650   49.9550 F   0  0  0  0  0  0  0  0  0  0  0  0
   38.1800   32.9470   48.0850 F   0  0  0  0  0  0  0  0  0  0  0  0
   39.3110   33.1390   50.0360 F   0  0  0  0  0  0  0  0  0  0  0  0
   32.3570   26.8490   47.6860 S   0  0  0  0  0  0  0  0  0  0  0  0
   31.0130   27.2680   48.6150 C   0  0  0  0  0  0  0  0  0  0  0  0
   30.4030   27.0060   49.8100 C   0  0  0  0  0  0  0  0  0  0  0  0
   29.2570   27.5780   50.2340 C   0  0  0  0  0  0  0  0  0  0  0  0
   28.6760   28.5550   49.2730 C   0  0  0  0  0  0  0  0  0  0  0  0
   29.8520   28.5320   47.8740 S   0  0  0  0  0  0  0  0  0  0  0  0
   26.3570   28.2510   49.7920 C   0  0  2  0  0  0  0  0  0  0  0  0
   27.4680   29.2750   49.5180 C   0  0  2  0  0  0  0  0  0  0  0  0
   26.9700   29.8510   48.3710 O   0  0  0  0  0  0  0  0  0  0  0  0
   25.7020   30.2770   48.8290 C   0  0  0  0  0  0  0  0  0  0  0  0
   25.1360   29.0980   49.6070 C   0  0  1  0  0  0  0  0  0  0  0  0
   26.4810   27.6630   51.0260 O   0  0  0  0  0  0  0  0  0  0  0  0
   24.1940   28.3960   48.8570 O   0  0  0  0  0  0  0  0  0  0  0  0
   35.9885   30.8997   46.2445 H   0  0  0  0  0  0  0  0  0  0  0  0
   34.0869   30.2532   44.6866 H   0  0  0  0  0  0  0  0  0  0  0  0
   38.4228   29.8640   47.9109 H   0  0  0  0  0  0  0  0  0  0  0  0
   37.4621   31.2480   47.4447 H   0  0  0  0  0  0  0  0  0  0  0  0
   38.9568   30.8079   49.9376 H   0  0  0  0  0  0  0  0  0  0  0  0
   37.2076   30.8109   51.5976 H   0  0  0  0  0  0  0  0  0  0  0  0
   36.0236   31.5518   50.5994 H   0  0  0  0  0  0  0  0  0  0  0  0
   35.5905   29.0747   50.4164 H   0  0  0  0  0  0  0  0  0  0  0  0
   37.2628   28.6743   50.2722 H   0  0  0  0  0  0  0  0  0  0  0  0
   30.8826   26.2737   50.4761 H   0  0  0  0  0  0  0  0  0  0  0  0
   28.7933   27.3433   51.2035 H   0  0  0  0  0  0  0  0  0  0  0  0
   26.3587   27.3679   49.1362 H   0  0  0  0  0  0  0  0  0  0  0  0
   27.6980   29.9995   50.3132 H   0  0  0  0  0  0  0  0  0  0  0  0
   25.8043   31.1559   49.4826 H   0  0  0  0  0  0  0  0  0  0  0  0
   25.0447   30.5718   47.9977 H   0  0  0  0  0  0  0  0  0  0  0  0
   24.6236   29.3931   50.5346 H   0  0  0  0  0  0  0  0  0  0  0  0
   26.3377   28.3427   51.7313 H   0  0  0  0  0  0  0  0  0  0  0  0
   23.5682   27.9297   49.4662 H   0  0  0  0  0  0  0  0  0  0  0  0
  1  6  1  0
  1  7  1  0
  2  1  2  0
  3  4  2  0
  3  2  1  0
  4  5  1  0
  5 16  1  0
  5  6  2  0
  7 11  1  0
  8  7  1  0
  8  9  1  0
  9 10  1  0
 11 10  1  0
 12  9  1  0
 12 13  1  0
 12 15  1  0
 14 12  1  0
 16 17  1  0
 17 18  2  0
 18 19  1  0
 20 19  2  0
 21 17  1  0
 21 20  1  0
 22 27  1  0
 23 20  1  0
 23 22  1  0
 24 25  1  0
 24 23  1  0
 25 26  1  0
 26 28  1  0
 26 22  1  0
  2 29  1  0
  3 30  1  0
  8 31  1  0
  8 32  1  0
  9 33  1  1
 10 34  1  0
 10 35  1  0
 11 36  1  0
 11 37  1  0
 18 38  1  0
 19 39  1  0
 22 40  1  6
 23 41  1  1
 25 42  1  0
 25 43  1  0
 26 44  1  1
 27 45  1  0
 28 46  1  0
M  ISO  8  29  14  30  14  31  13  32  13  33  13  34  13  35  13  36  13
M  ISO  8  37  13  38  14  39  14  40  13  41  13  42  13  43  13  44  13
M  ISO  2  45   3  46   3
M  END
>  <minimizedAffinity>  (1) 
-7.98137665

>  <minimizedRMSD>  (1) 
0.803117096

$$$$
