
     RDKit          3D

 44 47  0  0  1  0  0  0  0  0999 V2000
   35.1430   29.4490   47.9460 C   0  0  0  0  0  0  0  0  0  0  0  0
   34.9710   30.0730   46.7080 C   0  0  0  0  0  0  0  0  0  0  0  0
   33.8080   29.7710   45.9880 C   0  0  0  0  0  0  0  0  0  0  0  0
   32.9260   28.8790   46.5640 N   0  0  0  0  0  0  0  0  0  0  0  0
   33.1410   28.3130   47.7510 C   0  0  0  0  0  0  0  0  0  0  0  0
   34.2470   28.5910   48.4490 N   0  0  0  0  0  0  0  0  0  0  0  0
   36.3380   29.7670   48.6740 N   0  0  0  0  0  0  0  0  0  0  0  0
   37.4570   30.5300   48.2040 C   0  0  0  0  0  0  0  0  0  0  0  0
   38.0100   31.1230   49.5000 C   0  0  2  0  0  0  0  0  0  0  0  0
   37.0390   30.7180   50.6030 C   0  0  0  0  0  0  0  0  0  0  0  0
   36.6370   29.3640   50.0420 C   0  0  0  0  0  0  0  0  0  0  0  0
   38.1780   32.6170   49.4220 C   0  0  0  0  0  0  0  0  0  0  0  0
   37.0290   33.1760   49.9420 F   0  0  0  0  0  0  0  0  0  0  0  0
   38.2020   32.9520   48.0820 F   0  0  0  0  0  0  0  0  0  0  0  0
   39.3040   33.0690   50.0550 F   0  0  0  0  0  0  0  0  0  0  0  0
   31.9500   27.1710   48.4200 S   0  0  0  0  0  0  0  0  0  0  0  0
   30.4420   27.7590   48.8780 C   0  0  0  0  0  0  0  0  0  0  0  0
   29.6580   27.9610   49.9760 C   0  0  0  0  0  0  0  0  0  0  0  0
   28.4120   28.4870   49.9770 C   0  0  0  0  0  0  0  0  0  0  0  0
   27.9400   28.8450   48.6130 C   0  0  0  0  0  0  0  0  0  0  0  0
   29.3280   28.3890   47.5120 S   0  0  0  0  0  0  0  0  0  0  0  0
   26.6330   29.4280   48.3480 C   0  0  2  0  0  0  0  0  0  0  0  0
   26.5060   30.8890   48.7240 C   0  0  0  0  0  0  0  0  0  0  0  0
   25.0110   30.9850   48.9240 C   0  0  0  0  0  0  0  0  0  0  0  0
   24.5470   29.7470   49.3280 O   0  0  0  0  0  0  0  0  0  0  0  0
   25.5060   28.8020   49.0970 C   0  0  0  0  0  0  0  0  0  0  0  0
   35.7205   30.7749   46.3135 H   0  0  0  0  0  0  0  0  0  0  0  0
   33.6064   30.2248   45.0065 H   0  0  0  0  0  0  0  0  0  0  0  0
   38.2001   29.8860   47.7110 H   0  0  0  0  0  0  0  0  0  0  0  0
   37.1910   31.2860   47.4505 H   0  0  0  0  0  0  0  0  0  0  0  0
   39.0204   30.7371   49.7004 H   0  0  0  0  0  0  0  0  0  0  0  0
   37.5324   30.6336   51.5825 H   0  0  0  0  0  0  0  0  0  0  0  0
   36.2172   31.4206   50.8055 H   0  0  0  0  0  0  0  0  0  0  0  0
   35.7549   28.9507   50.5529 H   0  0  0  0  0  0  0  0  0  0  0  0
   37.3860   28.5654   50.1481 H   0  0  0  0  0  0  0  0  0  0  0  0
   30.0778   27.6693   50.9500 H   0  0  0  0  0  0  0  0  0  0  0  0
   27.8129   28.6340   50.8877 H   0  0  0  0  0  0  0  0  0  0  0  0
   26.5653   29.2598   47.2630 H   0  0  0  0  0  0  0  0  0  0  0  0
   27.0563   31.1212   49.6477 H   0  0  0  0  0  0  0  0  0  0  0  0
   26.9189   31.5928   47.9863 H   0  0  0  0  0  0  0  0  0  0  0  0
   24.7864   31.7363   49.6954 H   0  0  0  0  0  0  0  0  0  0  0  0
   24.5215   31.2857   47.9859 H   0  0  0  0  0  0  0  0  0  0  0  0
   25.0791   27.9808   48.5026 H   0  0  0  0  0  0  0  0  0  0  0  0
   25.8722   28.4021   50.0541 H   0  0  0  0  0  0  0  0  0  0  0  0
  1  6  1  0
  1  7  1  0
  2  1  2  0
  3  4  2  0
  3  2  1  0
  4  5  1  0
  5 16  1  0
  5  6  2  0
  7 11  1  0
  8  7  1  0
  8  9  1  0
  9 10  1  0
 11 10  1  0
 12  9  1  0
 12 13  1  0
 12 15  1  0
 14 12  1  0
 16 17  1  0
 17 18  2  0
 18 19  1  0
 20 19  2  0
 21 20  1  0
 21 17  1  0
 22 20  1  0
 22 23  1  0
 22 26  1  0
 23 24  1  0
 24 25  1  0
 26 25  1  0
  2 27  1  0
  3 28  1  0
  8 29  1  0
  8 30  1  0
  9 31  1  1
 10 32  1  0
 10 33  1  0
 11 34  1  0
 11 35  1  0
 18 36  1  0
 19 37  1  0
 22 38  1  6
 23 39  1  0
 23 40  1  0
 24 41  1  0
 24 42  1  0
 26 43  1  0
 26 44  1  0
M  ISO  8  27  14  28  14  29  13  30  13  31  13  32  13  33  13  34  13
M  ISO  8  35  13  36  14  37  14  38  13  39  13  40  13  41  13  42  13
M  ISO  2  43  13  44  13
M  END
>  <minimizedAffinity>  (1) 
-7.55081081

>  <minimizedRMSD>  (1) 
0.192222267

$$$$
