
     RDKit          3D

 37 39  0  0  1  0  0  0  0  0999 V2000
   34.5960   29.2810   48.0530 C   0  0  0  0  0  0  0  0  0  0  0  0
   34.2360   30.1900   47.0610 C   0  0  0  0  0  0  0  0  0  0  0  0
   33.0170   29.9700   46.4100 C   0  0  0  0  0  0  0  0  0  0  0  0
   32.2730   28.8810   46.7980 N   0  0  0  0  0  0  0  0  0  0  0  0
   32.6660   28.0400   47.7580 C   0  0  0  0  0  0  0  0  0  0  0  0
   33.8240   28.2320   48.3900 N   0  0  0  0  0  0  0  0  0  0  0  0
   35.8530   29.5000   48.7310 N   0  0  0  0  0  0  0  0  0  0  0  0
   36.9780   30.2310   48.2140 C   0  0  0  0  0  0  0  0  0  0  0  0
   37.6450   30.7280   49.4920 C   0  0  2  0  0  0  0  0  0  0  0  0
   36.7200   30.3260   50.6350 C   0  0  0  0  0  0  0  0  0  0  0  0
   36.2130   29.0240   50.0540 C   0  0  0  0  0  0  0  0  0  0  0  0
   37.8880   32.2170   49.4530 C   0  0  0  0  0  0  0  0  0  0  0  0
   36.7950   32.8090   50.0320 F   0  0  0  0  0  0  0  0  0  0  0  0
   37.8850   32.5990   48.1320 F   0  0  0  0  0  0  0  0  0  0  0  0
   39.0590   32.5820   50.0630 F   0  0  0  0  0  0  0  0  0  0  0  0
   31.6470   26.6580   48.2010 S   0  0  0  0  0  0  0  0  0  0  0  0
   30.1150   26.9500   48.8350 C   0  0  0  0  0  0  0  0  0  0  0  0
   29.4590   27.1750   50.0090 C   0  0  0  0  0  0  0  0  0  0  0  0
   28.1300   27.3810   50.1440 C   0  0  0  0  0  0  0  0  0  0  0  0
   27.4000   27.3410   48.8480 C   0  0  0  0  0  0  0  0  0  0  0  0
   28.6970   27.0170   47.6170 S   0  0  0  0  0  0  0  0  0  0  0  0
   25.7220   28.9150   48.5380 C   0  0  0  0  0  0  0  0  0  0  0  0
   26.6760   29.7420   48.4130 O   0  0  0  0  0  0  0  0  0  0  0  0
   26.0300   27.5280   48.7860 N   0  0  0  0  0  0  0  0  0  0  0  0
   34.8808   31.0424   46.8010 H   0  0  0  0  0  0  0  0  0  0  0  0
   32.6662   30.6450   45.6154 H   0  0  0  0  0  0  0  0  0  0  0  0
   37.6507   29.5767   47.6401 H   0  0  0  0  0  0  0  0  0  0  0  0
   36.7025   31.0346   47.5152 H   0  0  0  0  0  0  0  0  0  0  0  0
   38.6414   30.2802   49.6208 H   0  0  0  0  0  0  0  0  0  0  0  0
   37.2655   30.1760   51.5784 H   0  0  0  0  0  0  0  0  0  0  0  0
   35.9501   31.0612   50.9120 H   0  0  0  0  0  0  0  0  0  0  0  0
   35.3436   28.6358   50.6049 H   0  0  0  0  0  0  0  0  0  0  0  0
   36.9212   28.1828   50.0810 H   0  0  0  0  0  0  0  0  0  0  0  0
   30.0647   27.1902   50.9271 H   0  0  0  0  0  0  0  0  0  0  0  0
   27.6388   27.5597   51.1119 H   0  0  0  0  0  0  0  0  0  0  0  0
   24.6773   29.2503   48.4586 H   0  0  0  0  0  0  0  0  0  0  0  0
   25.3293   26.7819   48.9008 H   0  0  0  0  0  0  0  0  0  0  0  0
  1  6  1  0
  1  7  1  0
  2  1  2  0
  3  4  2  0
  3  2  1  0
  4  5  1  0
  5 16  1  0
  5  6  2  0
  7 11  1  0
  8  7  1  0
  8  9  1  0
  9 10  1  0
 11 10  1  0
 12  9  1  0
 12 13  1  0
 12 15  1  0
 14 12  1  0
 16 17  1  0
 17 18  2  0
 18 19  1  0
 20 19  2  0
 21 17  1  0
 21 20  1  0
 22 24  1  0
 23 22  2  0
 24 20  1  0
  2 25  1  0
  3 26  1  0
  8 27  1  0
  8 28  1  0
  9 29  1  1
 10 30  1  0
 10 31  1  0
 11 32  1  0
 11 33  1  0
 18 34  1  0
 19 35  1  0
 22 36  1  0
 24 37  1  0
M  ISO  8  25  14  26  14  27  13  28  13  29  13  30  13  31  13  32  13
M  ISO  4  33  13  34  14  35  14  36   6
M  END
>  <minimizedAffinity>  (1) 
-6.93578911

>  <minimizedRMSD>  (1) 
1.1574626

$$$$
