
     RDKit          3D

 35 37  0  0  1  0  0  0  0  0999 V2000
   35.1210   29.4510   47.9210 C   0  0  0  0  0  0  0  0  0  0  0  0
   34.9530   30.0960   46.6890 C   0  0  0  0  0  0  0  0  0  0  0  0
   33.7940   29.8020   45.9590 C   0  0  0  0  0  0  0  0  0  0  0  0
   32.9140   28.9010   46.5160 N   0  0  0  0  0  0  0  0  0  0  0  0
   33.1090   28.3120   47.6830 C   0  0  0  0  0  0  0  0  0  0  0  0
   34.2180   28.5880   48.3910 N   0  0  0  0  0  0  0  0  0  0  0  0
   36.3130   29.7630   48.6550 N   0  0  0  0  0  0  0  0  0  0  0  0
   37.4400   30.5190   48.2030 C   0  0  0  0  0  0  0  0  0  0  0  0
   37.9850   31.0980   49.4960 C   0  0  2  0  0  0  0  0  0  0  0  0
   36.9970   30.7010   50.5910 C   0  0  0  0  0  0  0  0  0  0  0  0
   36.5960   29.3580   50.0210 C   0  0  0  0  0  0  0  0  0  0  0  0
   38.1610   32.5950   49.4160 C   0  0  0  0  0  0  0  0  0  0  0  0
   37.0150   33.1620   49.9400 F   0  0  0  0  0  0  0  0  0  0  0  0
   38.1870   32.9300   48.0770 F   0  0  0  0  0  0  0  0  0  0  0  0
   39.2910   33.0370   50.0510 F   0  0  0  0  0  0  0  0  0  0  0  0
   31.9320   27.1580   48.3440 S   0  0  0  0  0  0  0  0  0  0  0  0
   30.4540   27.7490   48.8690 C   0  0  0  0  0  0  0  0  0  0  0  0
   29.7140   27.8670   50.0060 C   0  0  0  0  0  0  0  0  0  0  0  0
   28.4620   28.4370   50.0810 C   0  0  0  0  0  0  0  0  0  0  0  0
   27.9850   28.9270   48.7610 C   0  0  0  0  0  0  0  0  0  0  0  0
   29.3310   28.5320   47.5940 S   0  0  0  0  0  0  0  0  0  0  0  0
   26.7390   29.5370   48.6360 N   0  0  0  0  0  0  0  0  0  0  0  0
   35.7024   30.8061   46.3093 H   0  0  0  0  0  0  0  0  0  0  0  0
   33.5956   30.2703   44.9836 H   0  0  0  0  0  0  0  0  0  0  0  0
   38.1823   29.8720   47.7128 H   0  0  0  0  0  0  0  0  0  0  0  0
   37.1846   31.2823   47.4533 H   0  0  0  0  0  0  0  0  0  0  0  0
   38.9892   30.7023   49.7082 H   0  0  0  0  0  0  0  0  0  0  0  0
   37.4782   30.6106   51.5760 H   0  0  0  0  0  0  0  0  0  0  0  0
   36.1792   31.4095   50.7888 H   0  0  0  0  0  0  0  0  0  0  0  0
   35.7068   28.9470   50.5214 H   0  0  0  0  0  0  0  0  0  0  0  0
   37.3418   28.5570   50.1309 H   0  0  0  0  0  0  0  0  0  0  0  0
   30.1500   27.4767   50.9374 H   0  0  0  0  0  0  0  0  0  0  0  0
   27.8814   28.5201   51.0116 H   0  0  0  0  0  0  0  0  0  0  0  0
   26.4197   29.8723   47.7159 H   0  0  0  0  0  0  0  0  0  0  0  0
   26.1369   29.6527   49.4636 H   0  0  0  0  0  0  0  0  0  0  0  0
  1  6  1  0
  1  7  1  0
  2  1  2  0
  3  4  2  0
  3  2  1  0
  4  5  1  0
  5 16  1  0
  5  6  2  0
  7 11  1  0
  8  7  1  0
  8  9  1  0
  9 10  1  0
 11 10  1  0
 12  9  1  0
 12 13  1  0
 12 15  1  0
 14 12  1  0
 16 17  1  0
 17 18  2  0
 18 19  1  0
 20 19  2  0
 21 20  1  0
 21 17  1  0
 22 20  1  0
  2 23  1  0
  3 24  1  0
  8 25  1  0
  8 26  1  0
  9 27  1  1
 10 28  1  0
 10 29  1  0
 11 30  1  0
 11 31  1  0
 18 32  1  0
 19 33  1  0
 22 34  1  0
 22 35  1  0
M  ISO  8  23  14  24  14  25  13  26  13  27  13  28  13  29  13  30  13
M  ISO  3  31  13  32  14  33  14
M  END
>  <minimizedAffinity>  (1) 
-6.48386621

>  <minimizedRMSD>  (1) 
0.142670631

$$$$
