
     RDKit          3D

 27 29  0  0  0  0  0  0  0  0999 V2000
   38.6160   32.3380   48.7070 C   0  0  0  0  0  0  0  0  0  0  0  0
   38.9550   33.5860   49.2550 C   0  0  0  0  0  0  0  0  0  0  0  0
   39.6900   34.5640   48.6260 C   0  0  0  0  0  0  0  0  0  0  0  0
   40.1400   34.3150   47.3580 C   0  0  0  0  0  0  0  0  0  0  0  0
   39.8600   33.1220   46.7430 C   0  0  0  0  0  0  0  0  0  0  0  0
   40.3470   32.8660   45.4790 C   0  0  0  0  0  0  0  0  0  0  0  0
   40.1230   31.6560   44.8330 C   0  0  0  0  0  0  0  0  0  0  0  0
   39.3800   30.7360   45.5520 C   0  0  0  0  0  0  0  0  0  0  0  0
   38.9070   31.0120   46.8040 C   0  0  0  0  0  0  0  0  0  0  0  0
   39.1220   32.2030   47.4420 C   0  0  0  0  0  0  0  0  0  0  0  0
   37.2620   29.7380   51.1360 C   0  0  0  0  0  0  0  0  0  0  0  0
   38.1860   30.5870   50.5440 C   0  0  0  0  0  0  0  0  0  0  0  0
   37.8480   31.4290   49.5170 C   0  0  0  0  0  0  0  0  0  0  0  0
   36.5310   31.3620   49.1210 N   0  0  0  0  0  0  0  0  0  0  0  0
   35.6230   30.5410   49.6870 C   0  0  0  0  0  0  0  0  0  0  0  0
   36.0090   29.7530   50.6770 N   0  0  0  0  0  0  0  0  0  0  0  0
   37.8000   28.9770   52.1510 O   0  0  0  0  0  0  0  0  0  0  0  0
   38.6025   33.7997   50.2748 H   0  0  0  0  0  0  0  0  0  0  0  0
   39.9095   35.5181   49.1276 H   0  0  0  0  0  0  0  0  0  0  0  0
   40.7304   35.0772   46.8284 H   0  0  0  0  0  0  0  0  0  0  0  0
   40.9312   33.6438   44.9656 H   0  0  0  0  0  0  0  0  0  0  0  0
   40.5080   31.4450   43.8244 H   0  0  0  0  0  0  0  0  0  0  0  0
   39.1642   29.7552   45.1031 H   0  0  0  0  0  0  0  0  0  0  0  0
   38.3243   30.2379   47.3248 H   0  0  0  0  0  0  0  0  0  0  0  0
   39.2231   30.5841   50.9108 H   0  0  0  0  0  0  0  0  0  0  0  0
   34.5818   30.5269   49.3324 H   0  0  0  0  0  0  0  0  0  0  0  0
   37.2298   28.3352   52.6440 H   0  0  0  0  0  0  0  0  0  0  0  0
  1  2  2  0
  1 13  1  0
  3  2  1  0
  4  3  2  0
  5  4  1  0
  5 10  2  0
  6  5  1  0
  7  6  2  0
  7  8  1  0
  8  9  2  0
  9 10  1  0
 10  1  1  0
 11 17  1  0
 12 11  2  0
 13 12  1  0
 14 13  2  0
 14 15  1  0
 15 16  2  0
 16 11  1  0
  2 18  1  0
  3 19  1  0
  4 20  1  0
  6 21  1  0
  7 22  1  0
  8 23  1  0
  9 24  1  0
 12 25  1  0
 15 26  1  0
 17 27  1  0
M  ISO  8  18  14  19  14  20  14  21  14  22  14  23  14  24  14  25  14
M  ISO  2  26  14  27   3
M  END
>  <minimizedAffinity>  (1) 
-6.77462578

>  <minimizedRMSD>  (1) 
1.09019601

$$$$
