
     RDKit          3D

 23 24  0  0  0  0  0  0  0  0999 V2000
   37.2150   29.7270   51.2880 C   0  0  0  0  0  0  0  0  0  0  0  0
   37.8250   30.3030   50.1630 C   0  0  0  0  0  0  0  0  0  0  0  0
   37.0320   30.4830   49.0280 C   0  0  0  0  0  0  0  0  0  0  0  0
   35.7330   30.0960   49.0730 N   0  0  0  0  0  0  0  0  0  0  0  0
   35.1690   29.5420   50.1750 C   0  0  0  0  0  0  0  0  0  0  0  0
   35.9110   29.3610   51.2700 N   0  0  0  0  0  0  0  0  0  0  0  0
   37.5550   31.0540   47.8500 N   0  0  0  0  0  0  0  0  0  0  0  0
   38.6270   32.0320   47.7710 C   0  0  0  0  0  0  0  0  0  0  0  0
   39.4460   31.5370   46.5910 C   0  0  0  0  0  0  0  0  0  0  0  0
   38.5380   30.6020   45.8230 C   0  0  0  0  0  0  0  0  0  0  0  0
   37.1970   30.8400   46.4880 C   0  0  0  0  0  0  0  0  0  0  0  0
   38.1120   29.6060   52.3440 O   0  0  0  0  0  0  0  0  0  0  0  0
   38.8840   30.6003   50.1749 H   0  0  0  0  0  0  0  0  0  0  0  0
   34.1100   29.2446   50.1666 H   0  0  0  0  0  0  0  0  0  0  0  0
   38.2304   33.0407   47.5831 H   0  0  0  0  0  0  0  0  0  0  0  0
   39.2089   32.1172   48.7006 H   0  0  0  0  0  0  0  0  0  0  0  0
   39.7520   32.3814   45.9559 H   0  0  0  0  0  0  0  0  0  0  0  0
   40.3649   31.0297   46.9201 H   0  0  0  0  0  0  0  0  0  0  0  0
   38.8578   29.5553   45.9335 H   0  0  0  0  0  0  0  0  0  0  0  0
   38.5316   30.7848   44.7383 H   0  0  0  0  0  0  0  0  0  0  0  0
   36.6966   31.7241   46.0660 H   0  0  0  0  0  0  0  0  0  0  0  0
   36.4880   30.0106   46.3487 H   0  0  0  0  0  0  0  0  0  0  0  0
   37.8150   29.2143   53.2033 H   0  0  0  0  0  0  0  0  0  0  0  0
  1 12  1  0
  2  1  2  0
  3  4  2  0
  3  2  1  0
  4  5  1  0
  5  6  2  0
  6  1  1  0
  7  3  1  0
  8  7  1  0
  9  8  1  0
 10 11  1  0
 10  9  1  0
 11  7  1  0
  2 13  1  0
  5 14  1  0
  8 15  1  0
  8 16  1  0
  9 17  1  0
  9 18  1  0
 10 19  1  0
 10 20  1  0
 11 21  1  0
 11 22  1  0
 12 23  1  0
M  ISO  8  13  14  14  14  15  13  16  13  17  13  18  13  19  13  20  13
M  ISO  3  21  13  22  13  23   3
M  END
>  <minimizedAffinity>  (1) 
-4.96179771

>  <minimizedRMSD>  (1) 
1.26192367

$$$$
