
     RDKit          3D

 13 13  0  0  0  0  0  0  0  0999 V2000
   37.3540   30.1440   51.0240 C   0  0  0  0  0  0  0  0  0  0  0  0
   38.1860   31.0140   50.3180 C   0  0  0  0  0  0  0  0  0  0  0  0
   37.7370   31.5410   49.1160 C   0  0  0  0  0  0  0  0  0  0  0  0
   36.4910   31.1760   48.6810 N   0  0  0  0  0  0  0  0  0  0  0  0
   35.7070   30.3310   49.3850 C   0  0  0  0  0  0  0  0  0  0  0  0
   36.1420   29.8270   50.5390 N   0  0  0  0  0  0  0  0  0  0  0  0
   38.5810   32.4570   48.3470 C   0  0  0  0  0  0  0  0  0  0  0  0
   39.0230   33.5090   48.9180 O   0  0  0  0  0  0  0  0  0  0  0  0
   37.9280   29.6970   52.1990 O   0  0  0  0  0  0  0  0  0  0  0  0
   39.1804   31.2772   50.7078 H   0  0  0  0  0  0  0  0  0  0  0  0
   34.7107   30.0593   49.0061 H   0  0  0  0  0  0  0  0  0  0  0  0
   38.8294   32.2426   47.2971 H   0  0  0  0  0  0  0  0  0  0  0  0
   37.4318   29.0734   52.7863 H   0  0  0  0  0  0  0  0  0  0  0  0
  1  9  1  0
  2  1  2  0
  3  2  1  0
  4  3  2  0
  4  5  1  0
  5  6  2  0
  6  1  1  0
  7  8  2  0
  7  3  1  0
  2 10  1  0
  5 11  1  0
  7 12  1  0
  9 13  1  0
M  ISO  4  10  14  11  14  12   6  13   3
M  END
>  <minimizedAffinity>  (1) 
-3.91234374

>  <minimizedRMSD>  (1) 
0.811105251

$$$$
