
     RDKit          3D

 12 12  0  0  0  0  0  0  0  0999 V2000
   37.3030   29.9900   51.1840 C   0  0  0  0  0  0  0  0  0  0  0  0
   37.9750   30.9130   50.3840 C   0  0  0  0  0  0  0  0  0  0  0  0
   37.3170   31.4050   49.2610 C   0  0  0  0  0  0  0  0  0  0  0  0
   36.0610   30.9550   49.0110 N   0  0  0  0  0  0  0  0  0  0  0  0
   35.4250   30.0510   49.8070 C   0  0  0  0  0  0  0  0  0  0  0  0
   36.0550   29.5750   50.8910 N   0  0  0  0  0  0  0  0  0  0  0  0
   38.0910   29.5910   52.2700 O   0  0  0  0  0  0  0  0  0  0  0  0
   37.8850   32.3290   48.3910 O   0  0  0  0  0  0  0  0  0  0  0  0
   38.9946   31.2424   50.6330 H   0  0  0  0  0  0  0  0  0  0  0  0
   34.4062   29.7152   49.5635 H   0  0  0  0  0  0  0  0  0  0  0  0
   37.7384   28.9359   52.9232 H   0  0  0  0  0  0  0  0  0  0  0  0
   37.3743   32.6479   47.6052 H   0  0  0  0  0  0  0  0  0  0  0  0
  1  7  1  0
  2  1  2  0
  3  2  1  0
  4  3  2  0
  4  5  1  0
  5  6  2  0
  6  1  1  0
  8  3  1  0
  2  9  1  0
  5 10  1  0
  7 11  1  0
  8 12  1  0
M  ISO  4   9  14  10  14  11   3  12   3
M  END
>  <minimizedAffinity>  (1) 
-3.61238313

>  <minimizedRMSD>  (1) 
0.0403576605

$$$$
