
     RDKit          3D

 21 22  0  0  0  0  0  0  0  0999 V2000
   36.8000   30.7390   49.1860 C   0  0  0  0  0  0  0  0  0  0  0  0
   37.9290   31.1220   48.4730 C   0  0  0  0  0  0  0  0  0  0  0  0
   37.9280   31.1030   47.0910 C   0  0  0  0  0  0  0  0  0  0  0  0
   36.7940   30.7000   46.4800 N   0  0  0  0  0  0  0  0  0  0  0  0
   35.6930   30.3260   47.1900 C   0  0  0  0  0  0  0  0  0  0  0  0
   35.6950   30.3440   48.5210 N   0  0  0  0  0  0  0  0  0  0  0  0
   39.0820   31.4940   46.3090 C   0  0  0  0  0  0  0  0  0  0  0  0
   39.7690   30.6790   45.4500 C   0  0  0  0  0  0  0  0  0  0  0  0
   40.7800   31.4840   44.9380 C   0  0  0  0  0  0  0  0  0  0  0  0
   40.6930   32.7200   45.4720 N   0  0  0  0  0  0  0  0  0  0  0  0
   39.6500   32.7180   46.3110 N   0  0  0  0  0  0  0  0  0  0  0  0
   36.9750   30.8190   50.5620 O   0  0  0  0  0  0  0  0  0  0  0  0
   36.9490   29.7050   51.4130 C   0  0  0  0  0  0  0  0  0  0  0  0
   35.6580   29.2660   51.6550 F   0  0  0  0  0  0  0  0  0  0  0  0
   37.5700   30.0360   52.5900 F   0  0  0  0  0  0  0  0  0  0  0  0
   37.6710   28.6940   50.8220 F   0  0  0  0  0  0  0  0  0  0  0  0
   38.8318   31.4433   49.0131 H   0  0  0  0  0  0  0  0  0  0  0  0
   34.7877   30.0039   46.6546 H   0  0  0  0  0  0  0  0  0  0  0  0
   39.5663   29.6232   45.2170 H   0  0  0  0  0  0  0  0  0  0  0  0
   41.5368   31.1619   44.2076 H   0  0  0  0  0  0  0  0  0  0  0  0
   41.3138   33.5170   45.2713 H   0  0  0  0  0  0  0  0  0  0  0  0
  1 12  1  0
  2  1  2  0
  3  2  1  0
  4  3  2  0
  4  5  1  0
  5  6  2  0
  6  1  1  0
  7 11  2  0
  7  3  1  0
  8  7  1  0
  9  8  2  0
  9 10  1  0
 10 11  1  0
 12 13  1  0
 13 14  1  0
 13 15  1  0
 16 13  1  0
  2 17  1  0
  5 18  1  0
  8 19  1  0
  9 20  1  0
 10 21  1  0
M  ISO  5  17  14  18  14  19  14  20  14  21   9
M  END
>  <minimizedAffinity>  (1) 
-5.65405607

>  <minimizedRMSD>  (1) 
2.0462842

$$$$
