
     RDKit          3D

 24 25  0  0  0  0  0  0  0  0999 V2000
   36.2180   30.5550   49.1030 C   0  0  0  0  0  0  0  0  0  0  0  0
   37.2470   30.9190   48.2390 C   0  0  0  0  0  0  0  0  0  0  0  0
   37.0880   30.8220   46.8670 C   0  0  0  0  0  0  0  0  0  0  0  0
   35.8920   30.3600   46.4260 N   0  0  0  0  0  0  0  0  0  0  0  0
   34.8970   30.0090   47.2830 C   0  0  0  0  0  0  0  0  0  0  0  0
   35.0560   30.1040   48.5920 N   0  0  0  0  0  0  0  0  0  0  0  0
   38.1250   31.1870   45.9390 C   0  0  0  0  0  0  0  0  0  0  0  0
   39.0050   30.3190   45.3570 C   0  0  0  0  0  0  0  0  0  0  0  0
   39.8110   31.1140   44.5480 C   0  0  0  0  0  0  0  0  0  0  0  0
   39.4160   32.4110   44.6510 N   0  0  0  0  0  0  0  0  0  0  0  0
   38.3840   32.4420   45.5060 N   0  0  0  0  0  0  0  0  0  0  0  0
   39.9990   33.5540   43.9660 C   0  0  0  0  0  0  0  0  0  0  0  0
   36.5510   30.7160   50.4420 O   0  0  0  0  0  0  0  0  0  0  0  0
   36.7100   29.6650   51.3420 C   0  0  0  0  0  0  0  0  0  0  0  0
   35.4860   29.1210   51.7230 F   0  0  0  0  0  0  0  0  0  0  0  0
   37.3900   30.1130   52.4410 F   0  0  0  0  0  0  0  0  0  0  0  0
   37.4700   28.6820   50.7300 F   0  0  0  0  0  0  0  0  0  0  0  0
   38.1977   31.2881   48.6512 H   0  0  0  0  0  0  0  0  0  0  0  0
   33.9425   29.6393   46.8802 H   0  0  0  0  0  0  0  0  0  0  0  0
   39.0636   29.2296   45.4973 H   0  0  0  0  0  0  0  0  0  0  0  0
   40.6391   30.7498   43.9223 H   0  0  0  0  0  0  0  0  0  0  0  0
   40.3679   34.2772   44.7082 H   0  0  0  0  0  0  0  0  0  0  0  0
   40.8351   33.2165   43.3359 H   0  0  0  0  0  0  0  0  0  0  0  0
   39.2349   34.0327   43.3359 H   0  0  0  0  0  0  0  0  0  0  0  0
  1 13  1  0
  2  1  2  0
  3  2  1  0
  4  3  2  0
  4  5  1  0
  5  6  2  0
  6  1  1  0
  7  3  1  0
  8  7  1  0
  9 10  1  0
  9  8  2  0
 10 11  1  0
 11  7  2  0
 12 10  1  0
 13 14  1  0
 14 15  1  0
 14 16  1  0
 17 14  1  0
  2 18  1  0
  5 19  1  0
  8 20  1  0
  9 21  1  0
 12 22  1  0
 12 23  1  0
 12 24  1  0
M  ISO  7  18  14  19  14  20  14  21  14  22   8  23   8  24   8
M  END
>  <minimizedAffinity>  (1) 
-5.38123322

>  <minimizedRMSD>  (1) 
0.976151526

$$$$
