
     RDKit          3D

 33 35  0  0  1  0  0  0  0  0999 V2000
   38.4990   31.1400   45.9710 C   0  0  0  0  0  0  0  0  0  0  0  0
   39.8130   31.1980   46.3110 C   0  0  0  0  0  0  0  0  0  0  0  0
   40.4690   31.5220   45.1180 C   0  0  0  0  0  0  0  0  0  0  0  0
   39.5680   31.6440   44.1340 N   0  0  0  0  0  0  0  0  0  0  0  0
   38.3520   31.4110   44.6500 N   0  0  0  0  0  0  0  0  0  0  0  0
   36.4370   30.6250   49.0610 C   0  0  0  0  0  0  0  0  0  0  0  0
   37.5120   30.9280   48.2450 C   0  0  0  0  0  0  0  0  0  0  0  0
   37.4040   30.8360   46.8750 C   0  0  0  0  0  0  0  0  0  0  0  0
   36.2080   30.4390   46.3730 N   0  0  0  0  0  0  0  0  0  0  0  0
   35.1590   30.1450   47.1940 C   0  0  0  0  0  0  0  0  0  0  0  0
   35.2620   30.2320   48.5090 N   0  0  0  0  0  0  0  0  0  0  0  0
   36.7260   30.7730   50.4160 O   0  0  0  0  0  0  0  0  0  0  0  0
   36.7940   29.6940   51.3160 C   0  0  0  0  0  0  0  0  0  0  0  0
   35.5370   29.1960   51.6290 F   0  0  0  0  0  0  0  0  0  0  0  0
   37.4560   30.1000   52.4420 F   0  0  0  0  0  0  0  0  0  0  0  0
   37.5430   28.6890   50.7290 F   0  0  0  0  0  0  0  0  0  0  0  0
   39.9250   30.7210   41.8970 C   0  0  2  0  0  0  0  0  0  0  0  0
   39.9330   31.9730   42.7820 C   0  0  1  0  0  0  0  0  0  0  0  0
   38.8680   32.7620   42.0700 C   0  0  0  0  0  0  0  0  0  0  0  0
   38.9830   32.4910   40.7240 O   0  0  0  0  0  0  0  0  0  0  0  0
   39.8170   31.4190   40.5370 C   0  0  0  0  0  0  0  0  0  0  0  0
   38.7300   30.0590   42.1600 O   0  0  0  0  0  0  0  0  0  0  0  0
   40.2607   31.0284   47.3014 H   0  0  0  0  0  0  0  0  0  0  0  0
   41.5551   31.6557   45.0057 H   0  0  0  0  0  0  0  0  0  0  0  0
   38.4639   31.2460   48.6953 H   0  0  0  0  0  0  0  0  0  0  0  0
   34.2036   29.8276   46.7507 H   0  0  0  0  0  0  0  0  0  0  0  0
   40.7543   30.0066   42.0058 H   0  0  0  0  0  0  0  0  0  0  0  0
   40.8965   32.4921   42.8922 H   0  0  0  0  0  0  0  0  0  0  0  0
   37.8733   32.4608   42.4302 H   0  0  0  0  0  0  0  0  0  0  0  0
   38.9903   33.8384   42.2606 H   0  0  0  0  0  0  0  0  0  0  0  0
   39.3944   30.7328   39.7884 H   0  0  0  0  0  0  0  0  0  0  0  0
   40.8038   31.7373   40.1696 H   0  0  0  0  0  0  0  0  0  0  0  0
   38.6009   29.9875   43.1389 H   0  0  0  0  0  0  0  0  0  0  0  0
  1  2  1  0
  1  8  1  0
  3  2  2  0
  4  5  1  0
  4  3  1  0
  5  1  2  0
  6 12  1  0
  7  6  2  0
  8  7  1  0
  9  8  2  0
  9 10  1  0
 10 11  2  0
 11  6  1  0
 12 13  1  0
 13 14  1  0
 13 15  1  0
 16 13  1  0
 17 22  1  0
 17 18  1  0
 18  4  1  0
 19 18  1  0
 20 19  1  0
 21 20  1  0
 21 17  1  0
  2 23  1  0
  3 24  1  0
  7 25  1  0
 10 26  1  0
 17 27  1  6
 18 28  1  1
 19 29  1  0
 19 30  1  0
 21 31  1  0
 21 32  1  0
 22 33  1  0
M  ISO  8  23  14  24  14  25  14  26  14  27  13  28  13  29  13  30  13
M  ISO  3  31  13  32  13  33   3
M  END
>  <minimizedAffinity>  (1) 
-5.96579838

>  <minimizedRMSD>  (1) 
2.8001287

$$$$
