
     RDKit          3D

 43 46  0  0  1  0  0  0  0  0999 V2000
   39.9490   30.7910   41.8200 C   0  0  2  0  0  0  0  0  0  0  0  0
   39.8380   32.0300   42.7330 C   0  0  1  0  0  0  0  0  0  0  0  0
   38.7210   32.7310   42.0290 C   0  0  0  0  0  0  0  0  0  0  0  0
   38.8810   32.4930   40.6740 O   0  0  0  0  0  0  0  0  0  0  0  0
   39.8300   31.5110   40.4850 C   0  0  0  0  0  0  0  0  0  0  0  0
   38.4930   31.0980   45.9290 C   0  0  0  0  0  0  0  0  0  0  0  0
   39.8230   31.0270   46.2090 C   0  0  0  0  0  0  0  0  0  0  0  0
   40.4480   31.3770   45.0100 C   0  0  0  0  0  0  0  0  0  0  0  0
   39.5270   31.6400   44.0770 N   0  0  0  0  0  0  0  0  0  0  0  0
   38.3150   31.4700   44.6330 N   0  0  0  0  0  0  0  0  0  0  0  0
   36.5030   30.6380   49.0660 C   0  0  0  0  0  0  0  0  0  0  0  0
   37.5630   30.9120   48.2260 C   0  0  0  0  0  0  0  0  0  0  0  0
   37.4120   30.8220   46.8580 C   0  0  0  0  0  0  0  0  0  0  0  0
   36.1910   30.4580   46.3840 N   0  0  0  0  0  0  0  0  0  0  0  0
   35.1610   30.1940   47.2360 C   0  0  0  0  0  0  0  0  0  0  0  0
   35.3070   30.2810   48.5510 N   0  0  0  0  0  0  0  0  0  0  0  0
   36.8210   30.7750   50.4140 O   0  0  0  0  0  0  0  0  0  0  0  0
   36.8680   29.7040   51.3180 C   0  0  0  0  0  0  0  0  0  0  0  0
   35.5930   29.2270   51.6270 F   0  0  0  0  0  0  0  0  0  0  0  0
   37.5280   30.1000   52.4490 F   0  0  0  0  0  0  0  0  0  0  0  0
   37.5840   28.6720   50.7380 F   0  0  0  0  0  0  0  0  0  0  0  0
   38.8300   30.0390   42.0720 O   0  0  0  0  0  0  0  0  0  0  0  0
   38.7090   28.7050   42.3510 C   0  0  0  0  0  0  0  0  0  0  0  0
   39.6680   27.7420   42.5870 C   0  0  0  0  0  0  0  0  0  0  0  0
   39.3290   26.4380   42.8520 C   0  0  0  0  0  0  0  0  0  0  0  0
   37.9950   26.0320   42.8920 C   0  0  0  0  0  0  0  0  0  0  0  0
   37.0220   26.9820   42.6580 C   0  0  0  0  0  0  0  0  0  0  0  0
   37.3670   28.3100   42.3880 C   0  0  0  0  0  0  0  0  0  0  0  0
   40.8244   30.1314   41.9125 H   0  0  0  0  0  0  0  0  0  0  0  0
   40.7419   32.6440   42.8597 H   0  0  0  0  0  0  0  0  0  0  0  0
   37.7529   32.3354   42.3699 H   0  0  0  0  0  0  0  0  0  0  0  0
   38.7398   33.8100   42.2420 H   0  0  0  0  0  0  0  0  0  0  0  0
   39.5072   30.8118   39.6996 H   0  0  0  0  0  0  0  0  0  0  0  0
   40.7936   31.9339   40.1645 H   0  0  0  0  0  0  0  0  0  0  0  0
   40.2980   30.7555   47.1633 H   0  0  0  0  0  0  0  0  0  0  0  0
   41.5360   31.4286   44.8561 H   0  0  0  0  0  0  0  0  0  0  0  0
   38.5349   31.2042   48.6503 H   0  0  0  0  0  0  0  0  0  0  0  0
   34.1844   29.9015   46.8228 H   0  0  0  0  0  0  0  0  0  0  0  0
   40.7305   28.0257   42.5623 H   0  0  0  0  0  0  0  0  0  0  0  0
   40.1238   25.7001   43.0361 H   0  0  0  0  0  0  0  0  0  0  0  0
   37.7269   24.9864   43.1036 H   0  0  0  0  0  0  0  0  0  0  0  0
   35.9615   26.6910   42.6842 H   0  0  0  0  0  0  0  0  0  0  0  0
   36.5758   29.0514   42.2029 H   0  0  0  0  0  0  0  0  0  0  0  0
  1 22  1  0
  1  2  1  0
  2  9  1  0
  3  2  1  0
  4  3  1  0
  5  4  1  0
  5  1  1  0
  6  7  1  0
  6 13  1  0
  8  7  2  0
  9 10  1  0
  9  8  1  0
 10  6  2  0
 11 17  1  0
 12 11  2  0
 13 12  1  0
 14 13  2  0
 14 15  1  0
 15 16  2  0
 16 11  1  0
 17 18  1  0
 18 19  1  0
 18 20  1  0
 21 18  1  0
 22 23  1  0
 23 28  1  0
 23 24  2  0
 24 25  1  0
 25 26  2  0
 27 26  1  0
 28 27  2  0
  1 29  1  6
  2 30  1  1
  3 31  1  0
  3 32  1  0
  5 33  1  0
  5 34  1  0
  7 35  1  0
  8 36  1  0
 12 37  1  0
 15 38  1  0
 24 39  1  0
 25 40  1  0
 26 41  1  0
 27 42  1  0
 28 43  1  0
M  ISO  8  29  13  30  13  31  13  32  13  33  13  34  13  35  14  36  14
M  ISO  7  37  14  38  14  39  14  40  14  41  14  42  14  43  14
M  END
>  <minimizedAffinity>  (1) 
-6.37058687

>  <minimizedRMSD>  (1) 
0.339438319

$$$$
