
     RDKit          3D

 44 47  0  0  1  0  0  0  0  0999 V2000
   38.4580   31.1440   45.8840 C   0  0  0  0  0  0  0  0  0  0  0  0
   39.7970   31.0590   46.1520 C   0  0  0  0  0  0  0  0  0  0  0  0
   40.4160   31.4440   44.9520 C   0  0  0  0  0  0  0  0  0  0  0  0
   39.4720   31.7340   44.0470 N   0  0  0  0  0  0  0  0  0  0  0  0
   38.2820   31.5510   44.6140 N   0  0  0  0  0  0  0  0  0  0  0  0
   40.1130   30.9710   41.8220 C   0  0  2  0  0  0  0  0  0  0  0  0
   39.7830   32.1640   42.7070 C   0  0  1  0  0  0  0  0  0  0  0  0
   38.5640   32.6640   41.9600 C   0  0  0  0  0  0  0  0  0  0  0  0
   38.7890   32.4590   40.6200 O   0  0  0  0  0  0  0  0  0  0  0  0
   39.8610   31.6370   40.4530 C   0  0  0  0  0  0  0  0  0  0  0  0
   39.1450   30.0170   42.0320 O   0  0  0  0  0  0  0  0  0  0  0  0
   39.5670   28.7490   42.2160 C   0  0  1  0  0  0  0  0  0  0  0  0
   38.8600   27.9480   43.2850 C   0  0  0  0  0  0  0  0  0  0  0  0
   39.3760   26.5690   42.9090 C   0  0  0  0  0  0  0  0  0  0  0  0
   39.5540   26.5420   41.5500 O   0  0  0  0  0  0  0  0  0  0  0  0
   39.4230   27.8200   41.0520 C   0  0  0  0  0  0  0  0  0  0  0  0
   36.5170   30.6240   49.0530 C   0  0  0  0  0  0  0  0  0  0  0  0
   37.5510   30.9230   48.1980 C   0  0  0  0  0  0  0  0  0  0  0  0
   37.4000   30.8400   46.8300 C   0  0  0  0  0  0  0  0  0  0  0  0
   36.1930   30.4520   46.3750 N   0  0  0  0  0  0  0  0  0  0  0  0
   35.1680   30.1560   47.2280 C   0  0  0  0  0  0  0  0  0  0  0  0
   35.3150   30.2370   48.5340 N   0  0  0  0  0  0  0  0  0  0  0  0
   36.8390   30.7590   50.3920 O   0  0  0  0  0  0  0  0  0  0  0  0
   36.8940   29.6810   51.2990 C   0  0  0  0  0  0  0  0  0  0  0  0
   35.6130   29.2470   51.6260 F   0  0  0  0  0  0  0  0  0  0  0  0
   37.5840   30.0780   52.4170 F   0  0  0  0  0  0  0  0  0  0  0  0
   37.5980   28.6590   50.7030 F   0  0  0  0  0  0  0  0  0  0  0  0
   40.2791   30.7575   47.0937 H   0  0  0  0  0  0  0  0  0  0  0  0
   41.5015   31.4987   44.7824 H   0  0  0  0  0  0  0  0  0  0  0  0
   41.0962   30.4976   41.9606 H   0  0  0  0  0  0  0  0  0  0  0  0
   40.5792   32.9092   42.8507 H   0  0  0  0  0  0  0  0  0  0  0  0
   37.6718   32.1063   42.2808 H   0  0  0  0  0  0  0  0  0  0  0  0
   38.3936   33.7310   42.1659 H   0  0  0  0  0  0  0  0  0  0  0  0
   39.6406   30.8733   39.6926 H   0  0  0  0  0  0  0  0  0  0  0  0
   40.7445   32.1963   40.1116 H   0  0  0  0  0  0  0  0  0  0  0  0
   40.6094   28.9997   42.4621 H   0  0  0  0  0  0  0  0  0  0  0  0
   39.1693   28.2445   44.2981 H   0  0  0  0  0  0  0  0  0  0  0  0
   37.7659   28.0565   43.3189 H   0  0  0  0  0  0  0  0  0  0  0  0
   40.3336   26.3774   43.4153 H   0  0  0  0  0  0  0  0  0  0  0  0
   38.6585   25.7942   43.2170 H   0  0  0  0  0  0  0  0  0  0  0  0
   40.2079   28.0196   40.3077 H   0  0  0  0  0  0  0  0  0  0  0  0
   38.4510   27.9544   40.5549 H   0  0  0  0  0  0  0  0  0  0  0  0
   38.5201   31.2353   48.6143 H   0  0  0  0  0  0  0  0  0  0  0  0
   34.1979   29.8429   46.8146 H   0  0  0  0  0  0  0  0  0  0  0  0
  1  2  1  0
  1 19  1  0
  3  2  2  0
  4  5  1  0
  4  3  1  0
  5  1  2  0
  6 11  1  0
  6  7  1  0
  7  4  1  0
  8  7  1  0
  9  8  1  0
 10  9  1  0
 10  6  1  0
 12 11  1  0
 12 13  1  0
 14 13  1  0
 15 14  1  0
 16 15  1  0
 16 12  1  0
 17 23  1  0
 18 17  2  0
 19 18  1  0
 20 19  2  0
 20 21  1  0
 21 22  2  0
 22 17  1  0
 23 24  1  0
 24 25  1  0
 24 26  1  0
 27 24  1  0
  2 28  1  0
  3 29  1  0
  6 30  1  6
  7 31  1  1
  8 32  1  0
  8 33  1  0
 10 34  1  0
 10 35  1  0
 12 36  1  1
 13 37  1  0
 13 38  1  0
 14 39  1  0
 14 40  1  0
 16 41  1  0
 16 42  1  0
 18 43  1  0
 21 44  1  0
M  ISO  8  28  14  29  14  30  13  31  13  32  13  33  13  34  13  35  13
M  ISO  8  36  13  37  13  38  13  39  13  40  13  41  13  42  13  43  14
M  ISO  1  44  14
M  END
>  <minimizedAffinity>  (1) 
-6.17629957

>  <minimizedRMSD>  (1) 
0.499876499

$$$$
