
     RDKit          3D

 38 40  0  0  1  0  0  0  0  0999 V2000
   38.5760   32.1410   46.8800 C   0  0  1  0  0  0  0  0  0  0  0  0
   39.7820   32.6820   46.1090 C   0  0  0  0  0  0  0  0  0  0  0  0
   39.5920   31.2280   46.3020 C   0  0  2  0  0  0  0  0  0  0  0  0
   38.5810   32.4980   48.3460 C   0  0  0  0  0  0  0  0  0  0  0  0
   37.4710   30.2190   51.1000 C   0  0  0  0  0  0  0  0  0  0  0  0
   38.2530   31.1160   50.3030 C   0  0  0  0  0  0  0  0  0  0  0  0
   37.7300   31.5800   49.1220 C   0  0  0  0  0  0  0  0  0  0  0  0
   36.5060   31.1720   48.7640 N   0  0  0  0  0  0  0  0  0  0  0  0
   35.7700   30.3260   49.5170 C   0  0  0  0  0  0  0  0  0  0  0  0
   36.2680   29.8710   50.6640 N   0  0  0  0  0  0  0  0  0  0  0  0
   39.1060   30.3180   45.2280 C   0  0  0  0  0  0  0  0  0  0  0  0
   39.0790   30.9840   43.8570 C   0  0  0  0  0  0  0  0  0  0  0  0
   39.3580   30.0250   42.8150 N   0  0  0  0  0  0  0  0  0  0  0  0
   38.9920   28.6870   43.1620 C   0  0  0  0  0  0  0  0  0  0  0  0
   39.9070   27.7270   42.4720 C   0  0  0  0  0  0  0  0  0  0  0  0
   40.9840   28.6180   41.8950 C   0  0  0  0  0  0  0  0  0  0  0  0
   40.7880   29.9640   42.5420 C   0  0  0  0  0  0  0  0  0  0  0  0
   37.4777   32.1599   46.8219 H   0  0  0  0  0  0  0  0  0  0  0  0
   40.5870   33.2097   46.6415 H   0  0  0  0  0  0  0  0  0  0  0  0
   39.9250   33.3453   45.2432 H   0  0  0  0  0  0  0  0  0  0  0  0
   40.2842   30.4537   46.6642 H   0  0  0  0  0  0  0  0  0  0  0  0
   39.6116   32.4390   48.7259 H   0  0  0  0  0  0  0  0  0  0  0  0
   38.1838   33.5178   48.4569 H   0  0  0  0  0  0  0  0  0  0  0  0
   37.8594   29.8278   52.0519 H   0  0  0  0  0  0  0  0  0  0  0  0
   39.2554   31.4276   50.6318 H   0  0  0  0  0  0  0  0  0  0  0  0
   34.7681   30.0160   49.1851 H   0  0  0  0  0  0  0  0  0  0  0  0
   39.7713   29.4432   45.1808 H   0  0  0  0  0  0  0  0  0  0  0  0
   38.0735   30.0324   45.4779 H   0  0  0  0  0  0  0  0  0  0  0  0
   38.0837   31.4207   43.6879 H   0  0  0  0  0  0  0  0  0  0  0  0
   39.8508   31.7674   43.8306 H   0  0  0  0  0  0  0  0  0  0  0  0
   39.0746   28.5546   44.2509 H   0  0  0  0  0  0  0  0  0  0  0  0
   37.9551   28.4966   42.8479 H   0  0  0  0  0  0  0  0  0  0  0  0
   40.3332   27.0074   43.1865 H   0  0  0  0  0  0  0  0  0  0  0  0
   39.3964   27.1225   41.7079 H   0  0  0  0  0  0  0  0  0  0  0  0
   41.9808   28.2190   42.1339 H   0  0  0  0  0  0  0  0  0  0  0  0
   40.9159   28.6802   40.7989 H   0  0  0  0  0  0  0  0  0  0  0  0
   41.3666   30.0364   43.4747 H   0  0  0  0  0  0  0  0  0  0  0  0
   41.1306   30.7919   41.9039 H   0  0  0  0  0  0  0  0  0  0  0  0
  1  4  1  0
  2  3  1  0
  2  1  1  0
  3  1  1  0
  4  7  1  0
  6  5  2  0
  7  6  1  0
  8  7  2  0
  8  9  1  0
  9 10  2  0
 10  5  1  0
 11  3  1  0
 12 11  1  0
 13 14  1  0
 13 12  1  0
 15 14  1  0
 16 15  1  0
 16 17  1  0
 17 13  1  0
  1 18  1  6
  2 19  1  0
  2 20  1  0
  3 21  1  1
  4 22  1  0
  4 23  1  0
  5 24  1  0
  6 25  1  0
  9 26  1  0
 11 27  1  0
 11 28  1  0
 12 29  1  0
 12 30  1  0
 14 31  1  0
 14 32  1  0
 15 33  1  0
 15 34  1  0
 16 35  1  0
 16 36  1  0
 17 37  1  0
 17 38  1  0
M  ISO  8  18  13  19  13  20  13  21  13  22   8  23   8  24  14  25  14
M  ISO  8  26  14  27   8  28   8  29   8  30   8  31  13  32  13  33  13
M  ISO  5  34  13  35  13  36  13  37  13  38  13
M  END
>  <minimizedAffinity>  (1) 
-5.07760382

>  <minimizedRMSD>  (1) 
2.14919019

$$$$
