
     RDKit          3D

 31 32  0  0  0  0  0  0  0  0999 V2000
   39.0880   32.3200   47.1500 C   0  0  0  0  0  0  0  0  0  0  0  0
   38.3830   32.3090   48.3390 C   0  0  0  0  0  0  0  0  0  0  0  0
   38.5670   33.2680   49.3100 C   0  0  0  0  0  0  0  0  0  0  0  0
   39.4760   34.2810   49.1200 C   0  0  0  0  0  0  0  0  0  0  0  0
   40.1900   34.3060   47.9320 C   0  0  0  0  0  0  0  0  0  0  0  0
   40.0180   33.3460   46.9390 C   0  0  0  0  0  0  0  0  0  0  0  0
   37.6910   30.2870   49.5330 C   0  0  0  0  0  0  0  0  0  0  0  0
   37.4300   31.2270   48.5150 C   0  0  0  0  0  0  0  0  0  0  0  0
   36.2760   31.0430   47.7540 C   0  0  0  0  0  0  0  0  0  0  0  0
   35.4700   29.9830   48.0230 N   0  0  0  0  0  0  0  0  0  0  0  0
   35.7630   29.1070   49.0120 C   0  0  0  0  0  0  0  0  0  0  0  0
   36.8720   29.2520   49.7720 N   0  0  0  0  0  0  0  0  0  0  0  0
   34.9070   27.9370   49.3360 C   0  0  0  0  0  0  0  0  0  0  0  0
   33.9400   27.6360   48.2040 C   0  0  0  0  0  0  0  0  0  0  0  0
   39.7780   30.3360   45.9790 N   0  0  0  0  0  0  0  0  0  0  0  0
   38.9920   31.3840   46.0560 C   0  0  0  0  0  0  0  0  0  0  0  0
   38.0800   31.4580   44.9610 N   0  0  0  0  0  0  0  0  0  0  0  0
   40.4980   30.1420   46.6830 H   0  0  0  0  0  0  0  0  0  0  0  0
   37.9839   33.2230   50.2417 H   0  0  0  0  0  0  0  0  0  0  0  0
   39.6328   35.0511   49.8897 H   0  0  0  0  0  0  0  0  0  0  0  0
   40.9187   35.1136   47.7682 H   0  0  0  0  0  0  0  0  0  0  0  0
   40.6007   33.3921   46.0072 H   0  0  0  0  0  0  0  0  0  0  0  0
   38.5938   30.4061   50.1500 H   0  0  0  0  0  0  0  0  0  0  0  0
   36.0219   31.7463   46.9472 H   0  0  0  0  0  0  0  0  0  0  0  0
   35.5477   27.0588   49.5041 H   0  0  0  0  0  0  0  0  0  0  0  0
   34.3249   28.1699   50.2398 H   0  0  0  0  0  0  0  0  0  0  0  0
   32.9686   27.3336   48.6222 H   0  0  0  0  0  0  0  0  0  0  0  0
   33.8086   28.5358   47.5850 H   0  0  0  0  0  0  0  0  0  0  0  0
   34.3425   26.8206   47.5850 H   0  0  0  0  0  0  0  0  0  0  0  0
   37.4071   32.2356   44.9029 H   0  0  0  0  0  0  0  0  0  0  0  0
   38.0946   30.7338   44.2287 H   0  0  0  0  0  0  0  0  0  0  0  0
  1  2  2  0
  2  8  1  0
  2  3  1  0
  4  3  2  0
  5  4  1  0
  6  1  1  0
  6  5  2  0
  7 12  2  0
  8  7  1  0
  9 10  1  0
  9  8  2  0
 10 11  2  0
 11 13  1  0
 11 12  1  0
 14 13  1  0
 15 16  2  0
 15 18  1  0
 16  1  1  0
 17 16  1  0
  3 19  1  0
  4 20  1  0
  5 21  1  0
  6 22  1  0
  7 23  1  0
  9 24  1  0
 13 25  1  0
 13 26  1  0
 14 27  1  0
 14 28  1  0
 14 29  1  0
 17 30  1  0
 17 31  1  0
M  ISO  8  19  14  20  14  21  14  22  14  23  14  24  14  25   8  26   8
M  ISO  3  27   8  28   8  29   8
M  END
>  <minimizedAffinity>  (1) 
-5.55196762

>  <minimizedRMSD>  (1) 
1.22429788

$$$$
