
     RDKit          3D

 30 31  0  0  1  0  0  0  0  0999 V2000
   38.8810   32.2600   46.6720 C   0  0  1  0  0  0  0  0  0  0  0  0
   40.0430   32.9640   45.9840 C   0  0  0  0  0  0  0  0  0  0  0  0
   39.9890   31.4870   46.0630 C   0  0  2  0  0  0  0  0  0  0  0  0
   38.7870   32.4850   48.1540 C   0  0  0  0  0  0  0  0  0  0  0  0
   37.5570   30.2190   50.8660 C   0  0  0  0  0  0  0  0  0  0  0  0
   38.2530   31.2450   50.1640 C   0  0  0  0  0  0  0  0  0  0  0  0
   38.0280   31.3970   48.8210 C   0  0  0  0  0  0  0  0  0  0  0  0
   37.1640   30.5810   48.2090 N   0  0  0  0  0  0  0  0  0  0  0  0
   36.5100   29.6130   48.8810 C   0  0  0  0  0  0  0  0  0  0  0  0
   36.7100   29.4410   50.1950 N   0  0  0  0  0  0  0  0  0  0  0  0
   39.6020   30.6240   44.8840 C   0  0  0  0  0  0  0  0  0  0  0  0
   40.3970   30.9250   43.6470 C   0  0  0  0  0  0  0  0  0  0  0  0
   41.3850   29.4820   41.8440 C   0  0  0  0  0  0  0  0  0  0  0  0
   41.1250   30.2770   40.9120 O   0  0  0  0  0  0  0  0  0  0  0  0
   41.0580   29.7360   43.2020 N   0  0  0  0  0  0  0  0  0  0  0  0
   37.7871   32.1917   46.5783 H   0  0  0  0  0  0  0  0  0  0  0  0
   40.7808   33.5224   46.5788 H   0  0  0  0  0  0  0  0  0  0  0  0
   40.1427   33.7016   45.1741 H   0  0  0  0  0  0  0  0  0  0  0  0
   40.7388   30.7517   46.3905 H   0  0  0  0  0  0  0  0  0  0  0  0
   39.8025   32.5230   48.5752 H   0  0  0  0  0  0  0  0  0  0  0  0
   38.2565   33.4330   48.3269 H   0  0  0  0  0  0  0  0  0  0  0  0
   37.7167   30.0720   51.9444 H   0  0  0  0  0  0  0  0  0  0  0  0
   38.9588   31.9038   50.6911 H   0  0  0  0  0  0  0  0  0  0  0  0
   35.8059   28.9584   48.3464 H   0  0  0  0  0  0  0  0  0  0  0  0
   39.7615   29.5698   45.1546 H   0  0  0  0  0  0  0  0  0  0  0  0
   38.5471   30.8358   44.6552 H   0  0  0  0  0  0  0  0  0  0  0  0
   39.7225   31.2868   42.8570 H   0  0  0  0  0  0  0  0  0  0  0  0
   41.1465   31.6979   43.8726 H   0  0  0  0  0  0  0  0  0  0  0  0
   41.8931   28.5380   41.5977 H   0  0  0  0  0  0  0  0  0  0  0  0
   41.3100   29.0265   43.9048 H   0  0  0  0  0  0  0  0  0  0  0  0
  1  4  1  0
  2  3  1  0
  2  1  1  0
  3  1  1  0
  4  7  1  0
  6  5  2  0
  7  6  1  0
  8  7  2  0
  8  9  1  0
  9 10  2  0
 10  5  1  0
 11  3  1  0
 12 11  1  0
 13 15  1  0
 14 13  2  0
 15 12  1  0
  1 16  1  6
  2 17  1  0
  2 18  1  0
  3 19  1  1
  4 20  1  0
  4 21  1  0
  5 22  1  0
  6 23  1  0
  9 24  1  0
 11 25  1  0
 11 26  1  0
 12 27  1  0
 12 28  1  0
 13 29  1  0
 15 30  1  0
M  ISO  8  16  13  17  13  18  13  19  13  20   8  21   8  22  14  23  14
M  ISO  6  24  14  25   8  26   8  27   8  28   8  29   6
M  END
>  <minimizedAffinity>  (1) 
-4.88055468

>  <minimizedRMSD>  (1) 
0.600680292

$$$$
