
     RDKit          3D

 28 29  0  0  0  0  0  0  0  0999 V2000
   38.8730   32.4600   47.4930 C   0  0  0  0  0  0  0  0  0  0  0  0
   38.5330   32.6410   48.8140 C   0  0  0  0  0  0  0  0  0  0  0  0
   39.0430   33.6760   49.5580 C   0  0  0  0  0  0  0  0  0  0  0  0
   39.9170   34.5730   49.0000 C   0  0  0  0  0  0  0  0  0  0  0  0
   40.2650   34.3970   47.6650 C   0  0  0  0  0  0  0  0  0  0  0  0
   39.7630   33.3580   46.8960 C   0  0  0  0  0  0  0  0  0  0  0  0
   38.1280   30.6680   50.2160 C   0  0  0  0  0  0  0  0  0  0  0  0
   37.6020   31.6750   49.3880 C   0  0  0  0  0  0  0  0  0  0  0  0
   36.2140   31.6820   49.1730 C   0  0  0  0  0  0  0  0  0  0  0  0
   35.4620   30.7210   49.7720 N   0  0  0  0  0  0  0  0  0  0  0  0
   36.0190   29.7740   50.5590 C   0  0  0  0  0  0  0  0  0  0  0  0
   37.3360   29.7460   50.7790 N   0  0  0  0  0  0  0  0  0  0  0  0
   35.0920   28.7600   51.1700 C   0  0  0  0  0  0  0  0  0  0  0  0
   39.1140   30.3190   46.4080 N   0  0  0  0  0  0  0  0  0  0  0  0
   38.4070   31.4070   46.5950 C   0  0  0  0  0  0  0  0  0  0  0  0
   37.1940   31.3910   45.8310 N   0  0  0  0  0  0  0  0  0  0  0  0
   40.0170   30.1570   46.8710 H   0  0  0  0  0  0  0  0  0  0  0  0
   38.7476   33.7867   50.6118 H   0  0  0  0  0  0  0  0  0  0  0  0
   40.3297   35.4051   49.5893 H   0  0  0  0  0  0  0  0  0  0  0  0
   40.9645   35.1085   47.2019 H   0  0  0  0  0  0  0  0  0  0  0  0
   40.0577   33.2431   45.8424 H   0  0  0  0  0  0  0  0  0  0  0  0
   39.2111   30.6366   50.4053 H   0  0  0  0  0  0  0  0  0  0  0  0
   35.7467   32.4468   48.5352 H   0  0  0  0  0  0  0  0  0  0  0  0
   35.1503   28.8238   52.2666 H   0  0  0  0  0  0  0  0  0  0  0  0
   34.0609   28.9632   50.8452 H   0  0  0  0  0  0  0  0  0  0  0  0
   35.3867   27.7512   50.8452 H   0  0  0  0  0  0  0  0  0  0  0  0
   36.5418   32.1864   45.8835 H   0  0  0  0  0  0  0  0  0  0  0  0
   36.9748   30.5841   45.2296 H   0  0  0  0  0  0  0  0  0  0  0  0
  1  2  2  0
  2  8  1  0
  2  3  1  0
  4  3  2  0
  5  4  1  0
  6  1  1  0
  6  5  2  0
  7 12  2  0
  8  7  1  0
  9  8  2  0
  9 10  1  0
 10 11  2  0
 11 12  1  0
 11 13  1  0
 14 15  2  0
 14 17  1  0
 15  1  1  0
 16 15  1  0
  3 18  1  0
  4 19  1  0
  5 20  1  0
  6 21  1  0
  7 22  1  0
  9 23  1  0
 13 24  1  0
 13 25  1  0
 13 26  1  0
 16 27  1  0
 16 28  1  0
M  ISO  8  18  14  19  14  20  14  21  14  22  14  23  14  24   8  25   8
M  ISO  1  26   8
M  END
>  <minimizedAffinity>  (1) 
-4.87504959

>  <minimizedRMSD>  (1) 
0.3828246

$$$$
