
     RDKit          3D

 27 28  0  0  1  0  0  0  0  0999 V2000
   35.5330   30.2060   46.6160 O   0  0  0  0  0  0  0  0  0  0  0  0
   34.2720   30.0060   47.4300 P   0  0  2  0  0  0  0  0  0  0  0  0
   33.0470   30.8810   46.6580 O   0  0  0  0  0  0  0  0  0  0  0  0
   34.4460   30.5380   49.0390 O   0  0  0  0  0  0  0  0  0  0  0  0
   35.6400   30.4360   49.7300 C   0  0  0  0  0  0  0  0  0  0  0  0
   35.9700   29.4500   50.6690 C   0  0  0  0  0  0  0  0  0  0  0  0
   37.2290   29.5120   51.2650 C   0  0  0  0  0  0  0  0  0  0  0  0
   38.0840   30.5210   50.9150 N   0  0  0  0  0  0  0  0  0  0  0  0
   37.7300   31.4560   50.0040 C   0  0  0  0  0  0  0  0  0  0  0  0
   36.5150   31.4210   49.4080 N   0  0  0  0  0  0  0  0  0  0  0  0
   33.8620   28.3510   47.5110 O   0  0  0  0  0  0  0  0  0  0  0  0
   32.4860   28.2520   47.4970 C   0  0  1  0  0  0  0  0  0  0  0  0
   32.0110   27.2200   46.5200 C   0  0  0  0  0  0  0  0  0  0  0  0
   30.9700   26.4310   47.2590 C   0  0  0  0  0  0  0  0  0  0  0  0
   30.7660   27.0390   48.4830 O   0  0  0  0  0  0  0  0  0  0  0  0
   31.9220   27.7350   48.8000 C   0  0  0  0  0  0  0  0  0  0  0  0
   32.4615   31.2992   47.3380 H   0  0  0  0  0  0  0  0  0  0  0  0
   35.2584   28.6522   50.9279 H   0  0  0  0  0  0  0  0  0  0  0  0
   37.5311   28.7588   52.0076 H   0  0  0  0  0  0  0  0  0  0  0  0
   38.4390   32.2558   49.7438 H   0  0  0  0  0  0  0  0  0  0  0  0
   32.1583   29.2754   47.2618 H   0  0  0  0  0  0  0  0  0  0  0  0
   32.8422   26.5688   46.2116 H   0  0  0  0  0  0  0  0  0  0  0  0
   31.6088   27.6752   45.6030 H   0  0  0  0  0  0  0  0  0  0  0  0
   30.0314   26.4212   46.6855 H   0  0  0  0  0  0  0  0  0  0  0  0
   31.3036   25.3921   47.3980 H   0  0  0  0  0  0  0  0  0  0  0  0
   32.6460   27.0659   49.2880 H   0  0  0  0  0  0  0  0  0  0  0  0
   31.7099   28.5604   49.4955 H   0  0  0  0  0  0  0  0  0  0  0  0
  2  1  2  0
  2 11  1  0
  2  4  1  0
  3  2  1  0
  4  5  1  0
  5  6  2  0
  6  7  1  0
  8  7  2  0
  9  8  1  0
 10  5  1  0
 10  9  2  0
 12 11  1  0
 12 16  1  0
 13 14  1  0
 13 12  1  0
 14 15  1  0
 15 16  1  0
  3 17  1  0
  6 18  1  0
  7 19  1  0
  9 20  1  0
 12 21  1  6
 13 22  1  0
 13 23  1  0
 14 24  1  0
 14 25  1  0
 16 26  1  0
 16 27  1  0
M  ISO  8  17   3  18  14  19  14  20  14  21  13  22  13  23  13  24  13
M  ISO  3  25  13  26  13  27  13
M  END
>  <minimizedAffinity>  (1) 
-4.27880764

>  <minimizedRMSD>  (1) 
2.2268095

$$$$
