
     RDKit          3D

 23 24  0  0  0  0  0  0  0  0999 V2000
   35.6120   30.3770   49.7450 C   0  0  0  0  0  0  0  0  0  0  0  0
   35.9860   29.4000   50.6870 C   0  0  0  0  0  0  0  0  0  0  0  0
   37.2380   29.4990   51.2700 C   0  0  0  0  0  0  0  0  0  0  0  0
   38.0480   30.5230   50.9150 N   0  0  0  0  0  0  0  0  0  0  0  0
   37.6750   31.4550   50.0070 C   0  0  0  0  0  0  0  0  0  0  0  0
   36.4550   31.3840   49.4200 N   0  0  0  0  0  0  0  0  0  0  0  0
   34.4000   30.4310   49.0680 O   0  0  0  0  0  0  0  0  0  0  0  0
   35.5630   30.2300   46.6490 O   0  0  0  0  0  0  0  0  0  0  0  0
   34.2770   30.0030   47.4060 P   0  0  2  0  0  0  0  0  0  0  0  0
   33.0740   30.9330   46.6780 O   0  0  0  0  0  0  0  0  0  0  0  0
   33.8450   28.3620   47.3880 O   0  0  0  0  0  0  0  0  0  0  0  0
   32.8360   28.0840   48.3030 C   0  0  0  0  0  0  0  0  0  0  0  0
   32.1170   26.7140   48.1270 C   0  0  0  0  0  0  0  0  0  0  0  0
   31.4740   27.9580   47.6670 C   0  0  0  0  0  0  0  0  0  0  0  0
   35.3023   28.5803   50.9527 H   0  0  0  0  0  0  0  0  0  0  0  0
   37.5692   28.7562   52.0107 H   0  0  0  0  0  0  0  0  0  0  0  0
   38.3634   32.2719   49.7448 H   0  0  0  0  0  0  0  0  0  0  0  0
   32.5196   31.3616   47.3774 H   0  0  0  0  0  0  0  0  0  0  0  0
   33.2883   28.6245   49.1476 H   0  0  0  0  0  0  0  0  0  0  0  0
   32.4929   25.9845   47.3945 H   0  0  0  0  0  0  0  0  0  0  0  0
   31.8320   25.8907   48.7985 H   0  0  0  0  0  0  0  0  0  0  0  0
   31.3606   28.1424   46.5885 H   0  0  0  0  0  0  0  0  0  0  0  0
   30.4978   28.4261   47.8619 H   0  0  0  0  0  0  0  0  0  0  0  0
  1  2  2  0
  2  3  1  0
  4  3  2  0
  5  4  1  0
  6  1  1  0
  6  5  2  0
  7  1  1  0
  9  8  2  0
  9  7  1  0
 10  9  1  0
 11  9  1  0
 11 12  1  0
 13 12  1  0
 14 13  1  0
 14 12  1  0
  2 15  1  0
  3 16  1  0
  5 17  1  0
 10 18  1  0
 12 19  1  0
 13 20  1  0
 13 21  1  0
 14 22  1  0
 14 23  1  0
M  ISO  8  15  14  16  14  17  14  18   3  19  13  20  13  21  13  22  13
M  ISO  1  23  13
M  END
>  <minimizedAffinity>  (1) 
-4.09559917

>  <minimizedRMSD>  (1) 
0.393024564

$$$$
