
     RDKit          3D

 27 28  0  0  1  0  0  0  0  0999 V2000
   38.4580   32.1800   47.1280 C   0  0  1  0  0  0  0  0  0  0  0  0
   39.6600   32.7130   46.3650 C   0  0  0  0  0  0  0  0  0  0  0  0
   39.4500   31.2570   46.5030 C   0  0  2  0  0  0  0  0  0  0  0  0
   38.5010   32.4450   48.6040 C   0  0  0  0  0  0  0  0  0  0  0  0
   37.4010   30.0190   51.2210 C   0  0  0  0  0  0  0  0  0  0  0  0
   38.2090   30.9350   50.4820 C   0  0  0  0  0  0  0  0  0  0  0  0
   37.6460   31.4950   49.3630 C   0  0  0  0  0  0  0  0  0  0  0  0
   36.3920   31.1750   49.0110 N   0  0  0  0  0  0  0  0  0  0  0  0
   35.6540   30.3070   49.7300 C   0  0  0  0  0  0  0  0  0  0  0  0
   36.1690   29.7330   50.8370 N   0  0  0  0  0  0  0  0  0  0  0  0
   38.9360   30.3860   45.4050 C   0  0  0  0  0  0  0  0  0  0  0  0
   38.8510   31.1340   44.0810 C   0  0  0  0  0  0  0  0  0  0  0  0
   40.3310   30.6690   43.1300 S   0  0  0  0  0  0  0  0  0  0  0  0
   37.3611   32.2475   47.0814 H   0  0  0  0  0  0  0  0  0  0  0  0
   40.4820   33.2047   46.9059 H   0  0  0  0  0  0  0  0  0  0  0  0
   39.8041   33.4034   45.5209 H   0  0  0  0  0  0  0  0  0  0  0  0
   40.1310   30.4554   46.8251 H   0  0  0  0  0  0  0  0  0  0  0  0
   39.5394   32.3457   48.9530 H   0  0  0  0  0  0  0  0  0  0  0  0
   38.1193   33.4617   48.7790 H   0  0  0  0  0  0  0  0  0  0  0  0
   37.8103   29.5435   52.1246 H   0  0  0  0  0  0  0  0  0  0  0  0
   39.2346   31.1803   50.7949 H   0  0  0  0  0  0  0  0  0  0  0  0
   34.6285   30.0656   49.4135 H   0  0  0  0  0  0  0  0  0  0  0  0
   39.6128   29.5271   45.2857 H   0  0  0  0  0  0  0  0  0  0  0  0
   37.9223   30.0565   45.6767 H   0  0  0  0  0  0  0  0  0  0  0  0
   37.9415   30.8406   43.5363 H   0  0  0  0  0  0  0  0  0  0  0  0
   38.8056   32.2215   44.2403 H   0  0  0  0  0  0  0  0  0  0  0  0
   41.3465   30.3500   43.9925 H   0  0  0  0  0  0  0  0  0  0  0  0
  1  4  1  0
  2  3  1  0
  2  1  1  0
  3  1  1  0
  4  7  1  0
  6  5  2  0
  7  6  1  0
  8  7  2  0
  8  9  1  0
  9 10  2  0
 10  5  1  0
 11  3  1  0
 12 11  1  0
 13 12  1  0
  1 14  1  6
  2 15  1  0
  2 16  1  0
  3 17  1  1
  4 18  1  0
  4 19  1  0
  5 20  1  0
  6 21  1  0
  9 22  1  0
 11 23  1  0
 11 24  1  0
 12 25  1  0
 12 26  1  0
 13 27  1  0
M  ISO  8  14  13  15  13  16  13  17  13  18   8  19   8  20  14  21  14
M  ISO  6  22  14  23   8  24   8  25   8  26   8  27  11
M  END
>  <minimizedAffinity>  (1) 
-4.43378115

>  <minimizedRMSD>  (1) 
0.951051712

$$$$
