
     RDKit          3D

 23 24  0  0  0  0  0  0  0  0999 V2000
   38.4190   32.3720   48.8420 C   0  0  0  0  0  0  0  0  0  0  0  0
   38.8050   33.4160   49.6390 C   0  0  0  0  0  0  0  0  0  0  0  0
   39.6430   34.4380   49.2160 C   0  0  0  0  0  0  0  0  0  0  0  0
   40.0850   34.3460   47.9010 C   0  0  0  0  0  0  0  0  0  0  0  0
   39.7220   33.3120   47.0660 C   0  0  0  0  0  0  0  0  0  0  0  0
   38.8810   32.3360   47.5750 C   0  0  0  0  0  0  0  0  0  0  0  0
   37.0340   29.4800   50.8360 C   0  0  0  0  0  0  0  0  0  0  0  0
   37.9910   30.3820   50.3200 C   0  0  0  0  0  0  0  0  0  0  0  0
   37.5500   31.3830   49.4400 C   0  0  0  0  0  0  0  0  0  0  0  0
   36.2430   31.4120   49.1500 N   0  0  0  0  0  0  0  0  0  0  0  0
   35.3420   30.5330   49.6580 C   0  0  0  0  0  0  0  0  0  0  0  0
   35.7490   29.5710   50.5020 N   0  0  0  0  0  0  0  0  0  0  0  0
   38.4950   31.2480   46.6350 C   0  0  0  0  0  0  0  0  0  0  0  0
   37.1730   31.4290   46.1870 F   0  0  0  0  0  0  0  0  0  0  0  0
   39.2820   31.1750   45.5190 F   0  0  0  0  0  0  0  0  0  0  0  0
   38.3850   30.0090   47.2990 F   0  0  0  0  0  0  0  0  0  0  0  0
   38.4299   33.4464   50.6726 H   0  0  0  0  0  0  0  0  0  0  0  0
   39.9380   35.2661   49.8773 H   0  0  0  0  0  0  0  0  0  0  0  0
   40.7511   35.1301   47.5117 H   0  0  0  0  0  0  0  0  0  0  0  0
   40.0878   33.2631   46.0297 H   0  0  0  0  0  0  0  0  0  0  0  0
   37.3571   28.6874   51.5270 H   0  0  0  0  0  0  0  0  0  0  0  0
   39.0518   30.3023   50.5998 H   0  0  0  0  0  0  0  0  0  0  0  0
   34.2807   30.6085   49.3789 H   0  0  0  0  0  0  0  0  0  0  0  0
  1  9  1  0
  1  2  2  0
  3  2  1  0
  4  3  2  0
  5  6  2  0
  5  4  1  0
  6  1  1  0
  8  7  2  0
  9  8  1  0
 10  9  2  0
 10 11  1  0
 11 12  2  0
 12  7  1  0
 13 16  1  0
 13  6  1  0
 14 13  1  0
 15 13  1  0
  2 17  1  0
  3 18  1  0
  4 19  1  0
  5 20  1  0
  7 21  1  0
  8 22  1  0
 11 23  1  0
M  ISO  7  17  14  18  14  19  14  20  14  21  14  22  14  23  14
M  END
>  <minimizedAffinity>  (1) 
-5.56193924

>  <minimizedRMSD>  (1) 
1.81058252

$$$$
