
     RDKit          3D

 22 23  0  0  0  0  0  0  0  0999 V2000
   38.2720   32.1330   48.9490 C   0  0  0  0  0  0  0  0  0  0  0  0
   38.6560   33.2790   49.5970 C   0  0  0  0  0  0  0  0  0  0  0  0
   39.4760   34.2200   48.9920 C   0  0  0  0  0  0  0  0  0  0  0  0
   39.9010   33.9750   47.7150 C   0  0  0  0  0  0  0  0  0  0  0  0
   39.5460   32.8450   47.0220 C   0  0  0  0  0  0  0  0  0  0  0  0
   38.7290   31.9520   47.6870 C   0  0  0  0  0  0  0  0  0  0  0  0
   36.9490   29.5440   51.3310 C   0  0  0  0  0  0  0  0  0  0  0  0
   37.8910   30.4230   50.7230 C   0  0  0  0  0  0  0  0  0  0  0  0
   37.4170   31.2000   49.6520 C   0  0  0  0  0  0  0  0  0  0  0  0
   36.1350   31.0730   49.2730 N   0  0  0  0  0  0  0  0  0  0  0  0
   35.2700   30.2140   49.8900 C   0  0  0  0  0  0  0  0  0  0  0  0
   35.6860   29.4620   50.9080 N   0  0  0  0  0  0  0  0  0  0  0  0
   38.3800   30.7660   46.9230 C   0  0  0  0  0  0  0  0  0  0  0  0
   38.8860   30.4010   45.8320 O   0  0  0  0  0  0  0  0  0  0  0  0
   38.3043   33.4567   50.6240 H   0  0  0  0  0  0  0  0  0  0  0  0
   39.7755   35.1356   49.5230 H   0  0  0  0  0  0  0  0  0  0  0  0
   40.5529   34.7128   47.2244 H   0  0  0  0  0  0  0  0  0  0  0  0
   39.8927   32.6608   45.9945 H   0  0  0  0  0  0  0  0  0  0  0  0
   37.2721   28.9148   52.1734 H   0  0  0  0  0  0  0  0  0  0  0  0
   38.9319   30.4899   51.0725 H   0  0  0  0  0  0  0  0  0  0  0  0
   34.2278   30.1432   49.5454 H   0  0  0  0  0  0  0  0  0  0  0  0
   37.5928   30.1222   47.3423 H   0  0  0  0  0  0  0  0  0  0  0  0
  1  2  2  0
  1  9  1  0
  3  2  1  0
  4  3  2  0
  5  6  2  0
  5  4  1  0
  6  1  1  0
  8  7  2  0
  9  8  1  0
 10  9  2  0
 10 11  1  0
 11 12  2  0
 12  7  1  0
 13  6  1  0
 14 13  2  0
  2 15  1  0
  3 16  1  0
  4 17  1  0
  5 18  1  0
  7 19  1  0
  8 20  1  0
 11 21  1  0
 13 22  1  0
M  ISO  8  15  14  16  14  17  14  18  14  19  14  20  14  21  14  22   6
M  END
>  <minimizedAffinity>  (1) 
-5.33847618

>  <minimizedRMSD>  (1) 
1.39821744

$$$$
