
     RDKit          3D

 21 22  0  0  0  0  0  0  0  0999 V2000
   38.3710   32.1280   48.5720 C   0  0  0  0  0  0  0  0  0  0  0  0
   38.6330   33.1770   49.4120 C   0  0  0  0  0  0  0  0  0  0  0  0
   39.4710   34.2310   49.0450 C   0  0  0  0  0  0  0  0  0  0  0  0
   40.0320   34.1700   47.7770 C   0  0  0  0  0  0  0  0  0  0  0  0
   39.8010   33.1300   46.8790 C   0  0  0  0  0  0  0  0  0  0  0  0
   38.9560   32.1400   47.3500 C   0  0  0  0  0  0  0  0  0  0  0  0
   36.9550   29.1460   50.3940 C   0  0  0  0  0  0  0  0  0  0  0  0
   37.9090   30.1290   49.9940 C   0  0  0  0  0  0  0  0  0  0  0  0
   37.4850   31.0800   49.0530 C   0  0  0  0  0  0  0  0  0  0  0  0
   36.2160   31.0480   48.5550 N   0  0  0  0  0  0  0  0  0  0  0  0
   35.3460   30.0720   48.9830 C   0  0  0  0  0  0  0  0  0  0  0  0
   35.7120   29.1510   49.8760 N   0  0  0  0  0  0  0  0  0  0  0  0
   38.6280   30.7780   46.2330 S   0  0  0  0  0  0  0  0  0  0  0  0
   38.1678   33.1895   50.4087 H   0  0  0  0  0  0  0  0  0  0  0  0
   39.6768   35.0690   49.7273 H   0  0  0  0  0  0  0  0  0  0  0  0
   40.6963   34.9887   47.4634 H   0  0  0  0  0  0  0  0  0  0  0  0
   40.2535   33.0983   45.8769 H   0  0  0  0  0  0  0  0  0  0  0  0
   37.2369   28.3790   51.1304 H   0  0  0  0  0  0  0  0  0  0  0  0
   38.9296   30.1408   50.4043 H   0  0  0  0  0  0  0  0  0  0  0  0
   34.3232   30.0505   48.5788 H   0  0  0  0  0  0  0  0  0  0  0  0
   38.3559   29.6480   46.9582 H   0  0  0  0  0  0  0  0  0  0  0  0
  1  9  1  0
  1  2  2  0
  3  2  1  0
  4  3  2  0
  5  6  2  0
  5  4  1  0
  6  1  1  0
  8  7  2  0
  9  8  1  0
 10 11  1  0
 10  9  2  0
 11 12  2  0
 12  7  1  0
 13  6  1  0
  2 14  1  0
  3 15  1  0
  4 16  1  0
  5 17  1  0
  7 18  1  0
  8 19  1  0
 11 20  1  0
 13 21  1  0
M  ISO  8  14  14  15  14  16  14  17  14  18  14  19  14  20  14  21  11
M  END
>  <minimizedAffinity>  (1) 
-5.09971237

>  <minimizedRMSD>  (1) 
1.52547014

$$$$
