
     RDKit          3D

 38 40  0  0  1  0  0  0  0  0999 V2000
   38.5220   32.2980   48.4310 C   0  0  0  0  0  0  0  0  0  0  0  0
   38.7620   33.2320   49.4300 C   0  0  0  0  0  0  0  0  0  0  0  0
   39.5610   34.3550   49.1730 C   0  0  0  0  0  0  0  0  0  0  0  0
   40.0870   34.4790   47.8980 C   0  0  0  0  0  0  0  0  0  0  0  0
   39.8590   33.5660   46.9060 C   0  0  0  0  0  0  0  0  0  0  0  0
   39.0500   32.4400   47.1820 C   0  0  0  0  0  0  0  0  0  0  0  0
   38.9090   31.4850   46.0830 C   0  0  1  0  0  0  0  0  0  0  0  0
   37.5230   31.6180   45.3950 C   0  0  0  0  0  0  0  0  0  0  0  0
   37.3970   30.3140   44.5890 C   0  0  0  0  0  0  0  0  0  0  0  0
   38.3670   30.4090   43.4540 C   0  0  0  0  0  0  0  0  0  0  0  0
   39.7740   30.5740   43.9730 C   0  0  0  0  0  0  0  0  0  0  0  0
   39.9000   31.6960   44.9760 C   0  0  2  0  0  0  0  0  0  0  0  0
   41.2550   31.6280   45.5770 C   0  0  0  0  0  0  0  0  0  0  0  0
   41.8290   30.5720   45.8150 O   0  0  0  0  0  0  0  0  0  0  0  0
   37.1080   29.1680   50.0100 C   0  0  0  0  0  0  0  0  0  0  0  0
   38.0330   30.1920   49.7080 C   0  0  0  0  0  0  0  0  0  0  0  0
   37.6660   31.1960   48.8150 C   0  0  0  0  0  0  0  0  0  0  0  0
   36.4280   31.1030   48.2990 N   0  0  0  0  0  0  0  0  0  0  0  0
   35.5480   30.1310   48.5850 C   0  0  0  0  0  0  0  0  0  0  0  0
   35.8920   29.1750   49.4340 N   0  0  0  0  0  0  0  0  0  0  0  0
   38.3228   33.0901   50.4285 H   0  0  0  0  0  0  0  0  0  0  0  0
   39.7616   35.1060   49.9513 H   0  0  0  0  0  0  0  0  0  0  0  0
   40.7172   35.3521   47.6729 H   0  0  0  0  0  0  0  0  0  0  0  0
   40.2988   33.7057   45.9075 H   0  0  0  0  0  0  0  0  0  0  0  0
   39.0601   30.5059   46.5612 H   0  0  0  0  0  0  0  0  0  0  0  0
   36.7192   31.6982   46.1417 H   0  0  0  0  0  0  0  0  0  0  0  0
   37.4394   32.5188   44.7692 H   0  0  0  0  0  0  0  0  0  0  0  0
   37.6426   29.4509   45.2252 H   0  0  0  0  0  0  0  0  0  0  0  0
   36.3701   30.1776   44.2189 H   0  0  0  0  0  0  0  0  0  0  0  0
   38.1081   31.2759   42.8283 H   0  0  0  0  0  0  0  0  0  0  0  0
   38.3128   29.4837   42.8617 H   0  0  0  0  0  0  0  0  0  0  0  0
   40.0830   29.6350   44.4554 H   0  0  0  0  0  0  0  0  0  0  0  0
   40.4163   30.8228   43.1154 H   0  0  0  0  0  0  0  0  0  0  0  0
   39.7241   32.6614   44.4789 H   0  0  0  0  0  0  0  0  0  0  0  0
   41.7683   32.5700   45.8203 H   0  0  0  0  0  0  0  0  0  0  0  0
   37.3808   28.3677   50.7136 H   0  0  0  0  0  0  0  0  0  0  0  0
   39.0303   30.1965   50.1721 H   0  0  0  0  0  0  0  0  0  0  0  0
   34.5516   30.1285   48.1191 H   0  0  0  0  0  0  0  0  0  0  0  0
  1 17  1  0
  1  2  2  0
  3  2  1  0
  4  3  2  0
  5  6  2  0
  5  4  1  0
  6  1  1  0
  7  6  1  0
  8  7  1  0
  9  8  1  0
 10 11  1  0
 10  9  1  0
 11 12  1  0
 12 13  1  0
 12  7  1  0
 13 14  2  0
 16 15  2  0
 17 16  1  0
 18 19  1  0
 18 17  2  0
 19 20  2  0
 20 15  1  0
  2 21  1  0
  3 22  1  0
  4 23  1  0
  5 24  1  0
  7 25  1  1
  8 26  1  0
  8 27  1  0
  9 28  1  0
  9 29  1  0
 10 30  1  0
 10 31  1  0
 11 32  1  0
 11 33  1  0
 12 34  1  6
 13 35  1  0
 15 36  1  0
 16 37  1  0
 19 38  1  0
M  ISO  8  21  14  22  14  23  14  24  14  25  13  26  13  27  13  28  13
M  ISO  8  29  13  30  13  31  13  32  13  33  13  34  13  35   6  36  14
M  ISO  2  37  14  38  14
M  END
>  <minimizedAffinity>  (1) 
-5.7357893

>  <minimizedRMSD>  (1) 
0.836100459

$$$$
