
     RDKit          3D

 36 39  0  0  0  0  0  0  0  0999 V2000
   37.3910   30.0180   51.0220 C   0  0  0  0  0  0  0  0  0  0  0  0
   38.2450   30.9720   50.4430 C   0  0  0  0  0  0  0  0  0  0  0  0
   37.9020   31.3830   49.1560 C   0  0  0  0  0  0  0  0  0  0  0  0
   36.8260   30.8560   48.5950 N   0  0  0  0  0  0  0  0  0  0  0  0
   36.0080   29.9620   49.1120 C   0  0  0  0  0  0  0  0  0  0  0  0
   36.3480   29.5780   50.3410 N   0  0  0  0  0  0  0  0  0  0  0  0
   34.8010   29.2970   48.6340 C   0  0  0  0  0  0  0  0  0  0  0  0
   33.9510   28.6150   49.4470 N   0  0  0  0  0  0  0  0  0  0  0  0
   32.8540   28.0240   48.9920 C   0  0  0  0  0  0  0  0  0  0  0  0
   32.4700   28.0360   47.7060 N   0  0  0  0  0  0  0  0  0  0  0  0
   33.2680   28.6950   46.8350 C   0  0  0  0  0  0  0  0  0  0  0  0
   32.8900   28.7160   45.5120 C   0  0  0  0  0  0  0  0  0  0  0  0
   33.6670   29.3720   44.5840 C   0  0  0  0  0  0  0  0  0  0  0  0
   34.8110   29.9870   45.0560 C   0  0  0  0  0  0  0  0  0  0  0  0
   35.1370   29.9330   46.3890 C   0  0  0  0  0  0  0  0  0  0  0  0
   34.3920   29.2940   47.3320 C   0  0  0  0  0  0  0  0  0  0  0  0
   38.7020   32.3660   48.4440 C   0  0  0  0  0  0  0  0  0  0  0  0
   39.1240   33.5670   48.9730 C   0  0  0  0  0  0  0  0  0  0  0  0
   39.8830   34.4450   48.2280 C   0  0  0  0  0  0  0  0  0  0  0  0
   40.2600   34.1780   46.9270 C   0  0  0  0  0  0  0  0  0  0  0  0
   39.8490   32.9850   46.3800 C   0  0  0  0  0  0  0  0  0  0  0  0
   39.0890   32.1190   47.1450 C   0  0  0  0  0  0  0  0  0  0  0  0
   37.6260   29.5040   52.3470 N   0  0  0  0  0  0  0  0  0  0  0  0
   39.1254   31.3680   50.9702 H   0  0  0  0  0  0  0  0  0  0  0  0
   32.2189   27.4903   49.7144 H   0  0  0  0  0  0  0  0  0  0  0  0
   31.9667   28.2085   45.1958 H   0  0  0  0  0  0  0  0  0  0  0  0
   33.3910   29.4050   43.5197 H   0  0  0  0  0  0  0  0  0  0  0  0
   35.4674   30.5255   44.3566 H   0  0  0  0  0  0  0  0  0  0  0  0
   36.0582   30.4380   46.7151 H   0  0  0  0  0  0  0  0  0  0  0  0
   38.8510   33.8292   50.0058 H   0  0  0  0  0  0  0  0  0  0  0  0
   40.1997   35.3930   48.6873 H   0  0  0  0  0  0  0  0  0  0  0  0
   40.8659   34.8921   46.3500 H   0  0  0  0  0  0  0  0  0  0  0  0
   40.1213   32.7229   45.3470 H   0  0  0  0  0  0  0  0  0  0  0  0
   38.7727   31.1706   46.6861 H   0  0  0  0  0  0  0  0  0  0  0  0
   36.9853   28.8050   52.7494 H   0  0  0  0  0  0  0  0  0  0  0  0
   38.4347   29.8354   52.8920 H   0  0  0  0  0  0  0  0  0  0  0  0
  1 23  1  0
  2  1  2  0
  3  2  1  0
  4  5  1  0
  4  3  2  0
  5  6  2  0
  6  1  1  0
  7  5  1  0
  7  8  2  0
  9  8  1  0
 10  9  2  0
 11 16  2  0
 11 10  1  0
 12 11  1  0
 13 14  1  0
 13 12  2  0
 14 15  2  0
 15 16  1  0
 16  7  1  0
 17 18  2  0
 17  3  1  0
 19 18  1  0
 20 19  2  0
 21 20  1  0
 21 22  2  0
 22 17  1  0
  2 24  1  0
  9 25  1  0
 12 26  1  0
 13 27  1  0
 14 28  1  0
 15 29  1  0
 18 30  1  0
 19 31  1  0
 20 32  1  0
 21 33  1  0
 22 34  1  0
 23 35  1  0
 23 36  1  0
M  ISO  8  24  14  25  14  26  14  27  14  28  14  29  14  30  14  31  14
M  ISO  3  32  14  33  14  34  14
M  END
>  <minimizedAffinity>  (1) 
-6.80754614

>  <minimizedRMSD>  (1) 
0.532057345

$$$$
