
     RDKit          3D

 40 43  0  0  0  0  0  0  0  0999 V2000
   37.4190   30.2020   50.7710 C   0  0  0  0  0  0  0  0  0  0  0  0
   38.2780   31.0680   50.0950 C   0  0  0  0  0  0  0  0  0  0  0  0
   37.9250   31.3310   48.7930 C   0  0  0  0  0  0  0  0  0  0  0  0
   36.8330   30.7680   48.2840 N   0  0  0  0  0  0  0  0  0  0  0  0
   36.0090   29.9490   48.9060 C   0  0  0  0  0  0  0  0  0  0  0  0
   36.3660   29.7050   50.1610 N   0  0  0  0  0  0  0  0  0  0  0  0
   38.7100   32.1960   47.9860 N   0  0  0  0  0  0  0  0  0  0  0  0
   38.9430   33.5830   48.3430 C   0  0  0  0  0  0  0  0  0  0  0  0
   40.2600   33.9790   47.6740 C   0  0  0  0  0  0  0  0  0  0  0  0
   40.0700   34.0440   46.2350 N   0  0  0  0  0  0  0  0  0  0  0  0
   39.2840   32.9130   45.7590 C   0  0  0  0  0  0  0  0  0  0  0  0
   39.3220   31.7600   46.7690 C   0  0  0  0  0  0  0  0  0  0  0  0
   34.7840   29.2680   48.5010 C   0  0  0  0  0  0  0  0  0  0  0  0
   33.9980   28.5990   49.3840 N   0  0  0  0  0  0  0  0  0  0  0  0
   32.8690   27.9950   49.0020 C   0  0  0  0  0  0  0  0  0  0  0  0
   32.4070   27.9880   47.7440 N   0  0  0  0  0  0  0  0  0  0  0  0
   33.1450   28.6380   46.8190 C   0  0  0  0  0  0  0  0  0  0  0  0
   32.6880   28.6420   45.5150 C   0  0  0  0  0  0  0  0  0  0  0  0
   33.3950   29.2820   44.5340 C   0  0  0  0  0  0  0  0  0  0  0  0
   34.5550   29.9040   44.9170 C   0  0  0  0  0  0  0  0  0  0  0  0
   34.9790   29.8780   46.2280 C   0  0  0  0  0  0  0  0  0  0  0  0
   34.2960   29.2500   47.2250 C   0  0  0  0  0  0  0  0  0  0  0  0
   37.6550   29.8290   52.1610 N   0  0  0  0  0  0  0  0  0  0  0  0
   39.1693   31.5067   50.5674 H   0  0  0  0  0  0  0  0  0  0  0  0
   38.1221   34.2152   47.9735 H   0  0  0  0  0  0  0  0  0  0  0  0
   38.9919   33.7138   49.4341 H   0  0  0  0  0  0  0  0  0  0  0  0
   40.5795   34.9633   48.0468 H   0  0  0  0  0  0  0  0  0  0  0  0
   41.0312   33.2307   47.9093 H   0  0  0  0  0  0  0  0  0  0  0  0
   39.5788   34.9182   45.9995 H   0  0  0  0  0  0  0  0  0  0  0  0
   38.2413   33.2331   45.6161 H   0  0  0  0  0  0  0  0  0  0  0  0
   39.7107   32.5626   44.8076 H   0  0  0  0  0  0  0  0  0  0  0  0
   38.7715   30.8969   46.3664 H   0  0  0  0  0  0  0  0  0  0  0  0
   40.3638   31.4624   46.9591 H   0  0  0  0  0  0  0  0  0  0  0  0
   32.2811   27.4699   49.7692 H   0  0  0  0  0  0  0  0  0  0  0  0
   31.7490   28.1269   45.2638 H   0  0  0  0  0  0  0  0  0  0  0  0
   33.0497   29.2967   43.4897 H   0  0  0  0  0  0  0  0  0  0  0  0
   35.1581   30.4333   44.1646 H   0  0  0  0  0  0  0  0  0  0  0  0
   35.9181   30.3912   46.4825 H   0  0  0  0  0  0  0  0  0  0  0  0
   37.0064   29.1876   52.6393 H   0  0  0  0  0  0  0  0  0  0  0  0
   38.4703   30.2070   52.6644 H   0  0  0  0  0  0  0  0  0  0  0  0
  1 23  1  0
  2  1  2  0
  3  2  1  0
  4  3  2  0
  4  5  1  0
  5  6  2  0
  6  1  1  0
  7  8  1  0
  7  3  1  0
  9  8  1  0
 10  9  1  0
 11 10  1  0
 11 12  1  0
 12  7  1  0
 13  5  1  0
 13 14  2  0
 15 14  1  0
 16 15  2  0
 17 22  2  0
 17 16  1  0
 18 17  1  0
 19 20  1  0
 19 18  2  0
 20 21  2  0
 21 22  1  0
 22 13  1  0
  2 24  1  0
  8 25  1  0
  8 26  1  0
  9 27  1  0
  9 28  1  0
 10 29  1  0
 11 30  1  0
 11 31  1  0
 12 32  1  0
 12 33  1  0
 15 34  1  0
 18 35  1  0
 19 36  1  0
 20 37  1  0
 21 38  1  0
 23 39  1  0
 23 40  1  0
M  ISO  8  24  14  25  13  26  13  27  13  28  13  29   5  30  13  31  13
M  ISO  7  32  13  33  13  34  14  35  14  36  14  37  14  38  14
M  END
>  <minimizedAffinity>  (1) 
-6.55842876

>  <minimizedRMSD>  (1) 
0.6421839

$$$$
