
     RDKit          3D

 32 35  0  0  0  0  0  0  0  0999 V2000
   37.4650   30.1750   50.8850 C   0  0  0  0  0  0  0  0  0  0  0  0
   38.3190   31.0830   50.2520 C   0  0  0  0  0  0  0  0  0  0  0  0
   37.9820   31.4210   48.9640 C   0  0  0  0  0  0  0  0  0  0  0  0
   36.8970   30.8670   48.4390 N   0  0  0  0  0  0  0  0  0  0  0  0
   36.0680   30.0120   48.9990 C   0  0  0  0  0  0  0  0  0  0  0  0
   36.4200   29.7110   50.2310 N   0  0  0  0  0  0  0  0  0  0  0  0
   34.8540   29.3410   48.5540 C   0  0  0  0  0  0  0  0  0  0  0  0
   34.0370   28.6630   49.4030 N   0  0  0  0  0  0  0  0  0  0  0  0
   32.9210   28.0580   48.9810 C   0  0  0  0  0  0  0  0  0  0  0  0
   32.5050   28.0580   47.7090 N   0  0  0  0  0  0  0  0  0  0  0  0
   33.2740   28.7150   46.8100 C   0  0  0  0  0  0  0  0  0  0  0  0
   32.8530   28.7180   45.5020 C   0  0  0  0  0  0  0  0  0  0  0  0
   33.5930   29.3680   44.5440 C   0  0  0  0  0  0  0  0  0  0  0  0
   34.7530   29.9990   44.9660 C   0  0  0  0  0  0  0  0  0  0  0  0
   35.1230   29.9620   46.2920 C   0  0  0  0  0  0  0  0  0  0  0  0
   34.4110   29.3260   47.2640 C   0  0  0  0  0  0  0  0  0  0  0  0
   38.7760   32.3530   48.1780 C   0  0  0  0  0  0  0  0  0  0  0  0
   39.1030   32.0090   46.7520 C   0  0  0  0  0  0  0  0  0  0  0  0
   40.0880   33.4900   46.2570 S   0  0  0  0  0  0  0  0  0  0  0  0
   39.9050   34.2870   47.9700 C   0  0  0  0  0  0  0  0  0  0  0  0
   39.2470   33.4990   48.6010 N   0  0  0  0  0  0  0  0  0  0  0  0
   37.6940   29.7280   52.2560 N   0  0  0  0  0  0  0  0  0  0  0  0
   39.2046   31.5003   50.7536 H   0  0  0  0  0  0  0  0  0  0  0  0
   32.3079   27.5282   49.7249 H   0  0  0  0  0  0  0  0  0  0  0  0
   31.9238   28.2002   45.2219 H   0  0  0  0  0  0  0  0  0  0  0  0
   33.2792   29.3868   43.4899 H   0  0  0  0  0  0  0  0  0  0  0  0
   35.3815   30.5323   44.2376 H   0  0  0  0  0  0  0  0  0  0  0  0
   36.0499   30.4773   46.5842 H   0  0  0  0  0  0  0  0  0  0  0  0
   38.8305   31.1196   46.1648 H   0  0  0  0  0  0  0  0  0  0  0  0
   40.3090   35.2518   48.3104 H   0  0  0  0  0  0  0  0  0  0  0  0
   37.0460   29.0579   52.6942 H   0  0  0  0  0  0  0  0  0  0  0  0
   38.5035   30.0828   52.7849 H   0  0  0  0  0  0  0  0  0  0  0  0
  1 22  1  0
  2  1  2  0
  3  2  1  0
  4  3  2  0
  4  5  1  0
  5  6  2  0
  6  1  1  0
  7  5  1  0
  7  8  2  0
  9  8  1  0
 10  9  2  0
 11 16  2  0
 11 10  1  0
 12 11  1  0
 13 14  1  0
 13 12  2  0
 14 15  2  0
 15 16  1  0
 16  7  1  0
 17 21  1  0
 17  3  1  0
 18 17  2  0
 19 18  1  0
 19 20  1  0
 20 21  2  0
  2 23  1  0
  9 24  1  0
 12 25  1  0
 13 26  1  0
 14 27  1  0
 15 28  1  0
 18 29  1  0
 20 30  1  0
 22 31  1  0
 22 32  1  0
M  ISO  8  23  14  24  14  25  14  26  14  27  14  28  14  29  14  30  14
M  END
>  <minimizedAffinity>  (1) 
-6.01473379

>  <minimizedRMSD>  (1) 
0.551811218

$$$$
