
     RDKit          3D

 29 31  0  0  0  0  0  0  0  0999 V2000
   34.8830   29.4200   48.5820 C   0  0  0  0  0  0  0  0  0  0  0  0
   34.0360   28.7470   49.4020 N   0  0  0  0  0  0  0  0  0  0  0  0
   32.9600   28.1110   48.9430 C   0  0  0  0  0  0  0  0  0  0  0  0
   32.6010   28.0660   47.6420 N   0  0  0  0  0  0  0  0  0  0  0  0
   33.4060   28.7180   46.7740 C   0  0  0  0  0  0  0  0  0  0  0  0
   33.0690   28.6900   45.4430 C   0  0  0  0  0  0  0  0  0  0  0  0
   33.8380   29.3250   44.5080 C   0  0  0  0  0  0  0  0  0  0  0  0
   34.9480   29.9810   44.9750 C   0  0  0  0  0  0  0  0  0  0  0  0
   35.2580   29.9900   46.3220 C   0  0  0  0  0  0  0  0  0  0  0  0
   34.5060   29.3640   47.2720 C   0  0  0  0  0  0  0  0  0  0  0  0
   37.5730   30.1230   50.8750 C   0  0  0  0  0  0  0  0  0  0  0  0
   38.2740   31.2170   50.3700 C   0  0  0  0  0  0  0  0  0  0  0  0
   37.7980   31.7330   49.1830 C   0  0  0  0  0  0  0  0  0  0  0  0
   36.7330   31.1690   48.6130 N   0  0  0  0  0  0  0  0  0  0  0  0
   36.0550   30.1370   49.0700 C   0  0  0  0  0  0  0  0  0  0  0  0
   36.5350   29.6610   50.2130 N   0  0  0  0  0  0  0  0  0  0  0  0
   37.9580   29.4830   52.1170 N   0  0  0  0  0  0  0  0  0  0  0  0
   38.4530   32.8970   48.5380 C   0  0  0  0  0  0  0  0  0  0  0  0
   32.3221   27.5883   49.6709 H   0  0  0  0  0  0  0  0  0  0  0  0
   32.1663   28.1482   45.1243 H   0  0  0  0  0  0  0  0  0  0  0  0
   33.5803   29.3105   43.4387 H   0  0  0  0  0  0  0  0  0  0  0  0
   35.6026   30.5088   44.2658 H   0  0  0  0  0  0  0  0  0  0  0  0
   36.1596   30.5311   46.6450 H   0  0  0  0  0  0  0  0  0  0  0  0
   39.1491   31.6407   50.8844 H   0  0  0  0  0  0  0  0  0  0  0  0
   37.4228   28.6760   52.4680 H   0  0  0  0  0  0  0  0  0  0  0  0
   38.7668   29.8352   52.6487 H   0  0  0  0  0  0  0  0  0  0  0  0
   38.8361   33.5778   49.3124 H   0  0  0  0  0  0  0  0  0  0  0  0
   39.2871   32.5478   47.9116 H   0  0  0  0  0  0  0  0  0  0  0  0
   37.7216   33.4287   47.9116 H   0  0  0  0  0  0  0  0  0  0  0  0
  1 15  1  0
  1  2  2  0
  3  2  1  0
  4  3  2  0
  5 10  2  0
  5  4  1  0
  6  5  1  0
  7  8  1  0
  7  6  2  0
  8  9  2  0
  9 10  1  0
 10  1  1  0
 11 17  1  0
 12 11  2  0
 13 12  1  0
 14 15  1  0
 14 13  2  0
 15 16  2  0
 16 11  1  0
 18 13  1  0
  3 19  1  0
  6 20  1  0
  7 21  1  0
  8 22  1  0
  9 23  1  0
 12 24  1  0
 17 25  1  0
 17 26  1  0
 18 27  1  0
 18 28  1  0
 18 29  1  0
M  ISO  8  19  14  20  14  21  14  22  14  23  14  24  14  27   8  28   8
M  ISO  1  29   8
M  END
>  <minimizedAffinity>  (1) 
-5.67790651

>  <minimizedRMSD>  (1) 
0.12680532

$$$$
