
     RDKit          3D

 27 29  0  0  0  0  0  0  0  0999 V2000
   34.8640   29.3810   48.5760 C   0  0  0  0  0  0  0  0  0  0  0  0
   34.0420   28.7000   49.4150 N   0  0  0  0  0  0  0  0  0  0  0  0
   32.9440   28.0740   48.9850 C   0  0  0  0  0  0  0  0  0  0  0  0
   32.5470   28.0520   47.7040 N   0  0  0  0  0  0  0  0  0  0  0  0
   33.3210   28.7100   46.8150 C   0  0  0  0  0  0  0  0  0  0  0  0
   32.9170   28.6920   45.5040 C   0  0  0  0  0  0  0  0  0  0  0  0
   33.6700   29.3500   44.5480 C   0  0  0  0  0  0  0  0  0  0  0  0
   34.8120   30.0020   44.9820 C   0  0  0  0  0  0  0  0  0  0  0  0
   35.1630   29.9840   46.3130 C   0  0  0  0  0  0  0  0  0  0  0  0
   34.4430   29.3460   47.2780 C   0  0  0  0  0  0  0  0  0  0  0  0
   37.5150   30.1490   50.8860 C   0  0  0  0  0  0  0  0  0  0  0  0
   38.2970   31.1510   50.3080 C   0  0  0  0  0  0  0  0  0  0  0  0
   37.8910   31.5740   49.0700 C   0  0  0  0  0  0  0  0  0  0  0  0
   36.8170   31.0180   48.5220 N   0  0  0  0  0  0  0  0  0  0  0  0
   36.0590   30.0740   49.0380 C   0  0  0  0  0  0  0  0  0  0  0  0
   36.4650   29.6770   50.2340 N   0  0  0  0  0  0  0  0  0  0  0  0
   37.8200   29.6000   52.2050 N   0  0  0  0  0  0  0  0  0  0  0  0
   38.7720   32.8270   48.2180 S   0  0  0  0  0  0  0  0  0  0  0  0
   32.3276   27.5442   49.7261 H   0  0  0  0  0  0  0  0  0  0  0  0
   32.0000   28.1577   45.2148 H   0  0  0  0  0  0  0  0  0  0  0  0
   33.3743   29.3551   43.4885 H   0  0  0  0  0  0  0  0  0  0  0  0
   35.4432   30.5381   44.2580 H   0  0  0  0  0  0  0  0  0  0  0  0
   36.0776   30.5154   46.6150 H   0  0  0  0  0  0  0  0  0  0  0  0
   39.1791   31.5721   50.8125 H   0  0  0  0  0  0  0  0  0  0  0  0
   37.2246   28.8611   52.6055 H   0  0  0  0  0  0  0  0  0  0  0  0
   38.6305   29.9518   52.7344 H   0  0  0  0  0  0  0  0  0  0  0  0
   39.3627   33.6671   49.1248 H   0  0  0  0  0  0  0  0  0  0  0  0
  1 15  1  0
  1  2  2  0
  3  2  1  0
  4  3  2  0
  5 10  2  0
  5  4  1  0
  6  5  1  0
  7  8  1  0
  7  6  2  0
  8  9  2  0
  9 10  1  0
 10  1  1  0
 11 17  1  0
 12 11  2  0
 13 12  1  0
 14 15  1  0
 14 13  2  0
 15 16  2  0
 16 11  1  0
 18 13  1  0
  3 19  1  0
  6 20  1  0
  7 21  1  0
  8 22  1  0
  9 23  1  0
 12 24  1  0
 17 25  1  0
 17 26  1  0
 18 27  1  0
M  ISO  7  19  14  20  14  21  14  22  14  23  14  24  14  27  11
M  END
>  <minimizedAffinity>  (1) 
-5.52812624

>  <minimizedRMSD>  (1) 
0.156885356

$$$$
