
     RDKit          3D

 27 29  0  0  0  0  0  0  0  0999 V2000
   34.8750   29.4460   48.5390 C   0  0  0  0  0  0  0  0  0  0  0  0
   34.0400   28.7730   49.3720 N   0  0  0  0  0  0  0  0  0  0  0  0
   32.9720   28.1120   48.9350 C   0  0  0  0  0  0  0  0  0  0  0  0
   32.6120   28.0400   47.6450 N   0  0  0  0  0  0  0  0  0  0  0  0
   33.3970   28.6870   46.7540 C   0  0  0  0  0  0  0  0  0  0  0  0
   33.0360   28.6180   45.4340 C   0  0  0  0  0  0  0  0  0  0  0  0
   33.8020   29.2600   44.4810 C   0  0  0  0  0  0  0  0  0  0  0  0
   34.9100   29.9480   44.9220 C   0  0  0  0  0  0  0  0  0  0  0  0
   35.2250   29.9820   46.2640 C   0  0  0  0  0  0  0  0  0  0  0  0
   34.4920   29.3610   47.2300 C   0  0  0  0  0  0  0  0  0  0  0  0
   37.5650   30.2090   50.7970 C   0  0  0  0  0  0  0  0  0  0  0  0
   38.2650   31.2970   50.2750 C   0  0  0  0  0  0  0  0  0  0  0  0
   37.7810   31.7850   49.0870 C   0  0  0  0  0  0  0  0  0  0  0  0
   36.7220   31.2060   48.5400 N   0  0  0  0  0  0  0  0  0  0  0  0
   36.0430   30.1790   49.0080 C   0  0  0  0  0  0  0  0  0  0  0  0
   36.5240   29.7250   50.1520 N   0  0  0  0  0  0  0  0  0  0  0  0
   37.9590   29.5830   52.0580 N   0  0  0  0  0  0  0  0  0  0  0  0
   38.3740   32.8460   48.4720 O   0  0  0  0  0  0  0  0  0  0  0  0
   32.3462   27.5931   49.6761 H   0  0  0  0  0  0  0  0  0  0  0  0
   32.1403   28.0539   45.1348 H   0  0  0  0  0  0  0  0  0  0  0  0
   33.5378   29.2232   43.4138 H   0  0  0  0  0  0  0  0  0  0  0  0
   35.5491   30.4748   44.1980 H   0  0  0  0  0  0  0  0  0  0  0  0
   36.1196   30.5428   46.5724 H   0  0  0  0  0  0  0  0  0  0  0  0
   39.1408   31.7320   50.7787 H   0  0  0  0  0  0  0  0  0  0  0  0
   37.4263   28.7806   52.4232 H   0  0  0  0  0  0  0  0  0  0  0  0
   38.7693   29.9443   52.5813 H   0  0  0  0  0  0  0  0  0  0  0  0
   38.0132   33.1866   47.6153 H   0  0  0  0  0  0  0  0  0  0  0  0
  1 15  1  0
  1  2  2  0
  3  2  1  0
  4  3  2  0
  5 10  2  0
  5  4  1  0
  6  5  1  0
  7  8  1  0
  7  6  2  0
  8  9  2  0
  9 10  1  0
 10  1  1  0
 11 17  1  0
 12 11  2  0
 13 12  1  0
 14 15  1  0
 14 13  2  0
 15 16  2  0
 16 11  1  0
 18 13  1  0
  3 19  1  0
  6 20  1  0
  7 21  1  0
  8 22  1  0
  9 23  1  0
 12 24  1  0
 17 25  1  0
 17 26  1  0
 18 27  1  0
M  ISO  7  19  14  20  14  21  14  22  14  23  14  24  14  27   3
M  END
>  <minimizedAffinity>  (1) 
-5.51851463

>  <minimizedRMSD>  (1) 
0.0562808625

$$$$
