
     RDKit          3D

 39 42  0  0  0  0  0  0  0  0999 V2000
   37.1100   29.4450   50.2970 C   0  0  0  0  0  0  0  0  0  0  0  0
   38.0270   30.2110   49.5500 C   0  0  0  0  0  0  0  0  0  0  0  0
   37.6080   30.5680   48.3070 C   0  0  0  0  0  0  0  0  0  0  0  0
   36.4140   30.1690   47.9380 N   0  0  0  0  0  0  0  0  0  0  0  0
   35.5260   29.4730   48.5620 C   0  0  0  0  0  0  0  0  0  0  0  0
   35.9340   29.1280   49.7690 N   0  0  0  0  0  0  0  0  0  0  0  0
   34.1830   28.9730   48.2780 C   0  0  0  0  0  0  0  0  0  0  0  0
   33.4770   28.2080   49.1610 N   0  0  0  0  0  0  0  0  0  0  0  0
   32.2680   27.7510   48.8810 C   0  0  0  0  0  0  0  0  0  0  0  0
   31.6200   27.9880   47.7180 N   0  0  0  0  0  0  0  0  0  0  0  0
   32.2560   28.7310   46.8100 C   0  0  0  0  0  0  0  0  0  0  0  0
   31.6180   28.9970   45.6220 C   0  0  0  0  0  0  0  0  0  0  0  0
   32.2330   29.7740   44.6540 C   0  0  0  0  0  0  0  0  0  0  0  0
   33.4930   30.2540   44.9450 C   0  0  0  0  0  0  0  0  0  0  0  0
   34.0980   29.9650   46.1470 C   0  0  0  0  0  0  0  0  0  0  0  0
   33.5230   29.2080   47.1090 C   0  0  0  0  0  0  0  0  0  0  0  0
   38.4360   33.3410   49.4240 Cl  0  0  0  0  0  0  0  0  0  0  0  0
   38.9620   32.6360   47.9030 C   0  0  0  0  0  0  0  0  0  0  0  0
   38.5130   31.3740   47.5330 C   0  0  0  0  0  0  0  0  0  0  0  0
   39.0260   30.9680   46.3360 C   0  0  0  0  0  0  0  0  0  0  0  0
   39.8950   31.7400   45.5880 C   0  0  0  0  0  0  0  0  0  0  0  0
   40.3100   32.9730   45.9850 C   0  0  0  0  0  0  0  0  0  0  0  0
   39.8260   33.4220   47.1740 C   0  0  0  0  0  0  0  0  0  0  0  0
   40.2670   34.7740   47.6320 C   0  0  0  0  0  0  0  0  0  0  0  0
   37.4280   28.9930   51.6560 N   0  0  0  0  0  0  0  0  0  0  0  0
   39.0123   30.4997   49.9448 H   0  0  0  0  0  0  0  0  0  0  0  0
   31.7581   27.1406   49.6409 H   0  0  0  0  0  0  0  0  0  0  0  0
   30.6125   28.5903   45.4387 H   0  0  0  0  0  0  0  0  0  0  0  0
   31.7391   29.9980   43.6970 H   0  0  0  0  0  0  0  0  0  0  0  0
   34.0210   30.8757   44.2070 H   0  0  0  0  0  0  0  0  0  0  0  0
   35.1027   30.3714   46.3352 H   0  0  0  0  0  0  0  0  0  0  0  0
   38.7347   29.9807   45.9481 H   0  0  0  0  0  0  0  0  0  0  0  0
   40.2661   31.3409   44.6325 H   0  0  0  0  0  0  0  0  0  0  0  0
   41.0007   33.5752   45.3765 H   0  0  0  0  0  0  0  0  0  0  0  0
   40.2766   34.8036   48.7316 H   0  0  0  0  0  0  0  0  0  0  0  0
   41.2784   34.9784   47.2508 H   0  0  0  0  0  0  0  0  0  0  0  0
   39.5707   35.5355   47.2508 H   0  0  0  0  0  0  0  0  0  0  0  0
   36.7443   28.4339   52.1860 H   0  0  0  0  0  0  0  0  0  0  0  0
   38.3349   29.2348   52.0802 H   0  0  0  0  0  0  0  0  0  0  0  0
  1 25  1  0
  2  1  2  0
  3  2  1  0
  4  3  2  0
  4  5  1  0
  5  6  2  0
  6  1  1  0
  7  5  1  0
  7  8  2  0
  9  8  1  0
 10  9  2  0
 11 16  2  0
 11 10  1  0
 12 11  1  0
 13 14  1  0
 13 12  2  0
 14 15  2  0
 15 16  1  0
 16  7  1  0
 18 17  1  0
 19 18  2  0
 19  3  1  0
 20 19  1  0
 21 22  1  0
 21 20  2  0
 22 23  2  0
 23 24  1  0
 23 18  1  0
  2 26  1  0
  9 27  1  0
 12 28  1  0
 13 29  1  0
 14 30  1  0
 15 31  1  0
 20 32  1  0
 21 33  1  0
 22 34  1  0
 24 35  1  0
 24 36  1  0
 24 37  1  0
 25 38  1  0
 25 39  1  0
M  ISO  8  26  14  27  14  28  14  29  14  30  14  31  14  32  14  33  14
M  ISO  4  34  14  35   8  36   8  37   8
M  END
>  <minimizedAffinity>  (1) 
-6.81265926

>  <minimizedRMSD>  (1) 
0.333853513

$$$$
