
     RDKit          3D

 17 17  0  0  0  0  0  0  0  0999 V2000
   37.5230   31.7910   48.7310 C   0  0  0  0  0  0  0  0  0  0  0  0
   38.6430   32.5600   48.4610 C   0  0  0  0  0  0  0  0  0  0  0  0
   39.1620   32.5520   47.1480 C   0  0  0  0  0  0  0  0  0  0  0  0
   38.5180   31.7740   46.2140 N   0  0  0  0  0  0  0  0  0  0  0  0
   37.4290   31.0400   46.5210 C   0  0  0  0  0  0  0  0  0  0  0  0
   36.9420   31.0560   47.7800 N   0  0  0  0  0  0  0  0  0  0  0  0
   36.8960   31.7370   50.0480 C   0  0  0  0  0  0  0  0  0  0  0  0
   37.2210   30.5270   50.8560 C   0  0  0  0  0  0  0  0  0  0  0  0
   35.8470   29.3480   50.9010 S   0  0  0  0  0  0  0  0  0  0  0  0
   39.1165   33.1623   49.2503 H   0  0  0  0  0  0  0  0  0  0  0  0
   40.0487   33.1460   46.8817 H   0  0  0  0  0  0  0  0  0  0  0  0
   36.9390   30.4301   45.7478 H   0  0  0  0  0  0  0  0  0  0  0  0
   37.2192   32.6222   50.6155 H   0  0  0  0  0  0  0  0  0  0  0  0
   35.8113   31.7024   49.8687 H   0  0  0  0  0  0  0  0  0  0  0  0
   38.0989   30.0318   50.4156 H   0  0  0  0  0  0  0  0  0  0  0  0
   37.4217   30.8525   51.8874 H   0  0  0  0  0  0  0  0  0  0  0  0
   35.5249   29.0716   52.2036 H   0  0  0  0  0  0  0  0  0  0  0  0
  1  7  1  0
  2  1  2  0
  3  2  1  0
  4  5  1  0
  4  3  2  0
  5  6  2  0
  6  1  1  0
  7  8  1  0
  8  9  1  0
  2 10  1  0
  3 11  1  0
  5 12  1  0
  7 13  1  0
  7 14  1  0
  8 15  1  0
  8 16  1  0
  9 17  1  0
M  ISO  8  10  14  11  14  12  14  13   8  14   8  15   8  16   8  17  11
M  END
>  <minimizedAffinity>  (1) 
-3.30382967

>  <minimizedRMSD>  (1) 
1.23348725

$$$$
