
     RDKit          3D

 29 30  0  0  0  0  0  0  0  0999 V2000
   36.3230   30.5990   45.7950 C   0  0  0  0  0  0  0  0  0  0  0  0
   36.4740   30.5530   47.2580 C   0  0  0  0  0  0  0  0  0  0  0  0
   35.3560   30.3100   48.0630 C   0  0  0  0  0  0  0  0  0  0  0  0
   35.7570   30.3310   49.3700 C   0  0  0  0  0  0  0  0  0  0  0  0
   37.0680   30.5790   49.3630 N   0  0  0  0  0  0  0  0  0  0  0  0
   37.4630   30.7040   48.1160 N   0  0  0  0  0  0  0  0  0  0  0  0
   37.9110   30.6880   50.5530 C   0  0  0  0  0  0  0  0  0  0  0  0
   37.3170   29.9880   51.7470 C   0  0  0  0  0  0  0  0  0  0  0  0
   37.5310   30.2320   45.0390 C   0  0  0  0  0  0  0  0  0  0  0  0
   38.6700   31.1080   45.0470 C   0  0  0  0  0  0  0  0  0  0  0  0
   38.5330   32.4310   44.7300 C   0  0  0  0  0  0  0  0  0  0  0  0
   39.6450   33.2940   44.7370 C   0  0  0  0  0  0  0  0  0  0  0  0
   40.8540   32.7060   45.0840 N   0  0  0  0  0  0  0  0  0  0  0  0
   40.9460   31.3930   45.3920 C   0  0  0  0  0  0  0  0  0  0  0  0
   39.8510   30.6100   45.3690 N   0  0  0  0  0  0  0  0  0  0  0  0
   35.5179   29.9050   45.5119 H   0  0  0  0  0  0  0  0  0  0  0  0
   36.1030   31.6459   45.5388 H   0  0  0  0  0  0  0  0  0  0  0  0
   34.3308   30.1326   47.7060 H   0  0  0  0  0  0  0  0  0  0  0  0
   35.1225   30.1740   50.2548 H   0  0  0  0  0  0  0  0  0  0  0  0
   38.8913   30.2400   50.3331 H   0  0  0  0  0  0  0  0  0  0  0  0
   38.0009   31.7556   50.8022 H   0  0  0  0  0  0  0  0  0  0  0  0
   37.7043   30.4445   52.6698 H   0  0  0  0  0  0  0  0  0  0  0  0
   36.2216   30.0853   51.7216 H   0  0  0  0  0  0  0  0  0  0  0  0
   37.5912   28.9230   51.7216 H   0  0  0  0  0  0  0  0  0  0  0  0
   37.2264   30.1146   43.9886 H   0  0  0  0  0  0  0  0  0  0  0  0
   37.8953   29.3338   45.5591 H   0  0  0  0  0  0  0  0  0  0  0  0
   37.5409   32.8261   44.4661 H   0  0  0  0  0  0  0  0  0  0  0  0
   39.5618   34.3615   44.4848 H   0  0  0  0  0  0  0  0  0  0  0  0
   41.9210   30.9618   45.6630 H   0  0  0  0  0  0  0  0  0  0  0  0
  1  2  1  0
  2  3  1  0
  2  6  2  0
  3  4  2  0
  5  4  1  0
  5  7  1  0
  6  5  1  0
  7  8  1  0
  9 10  1  0
  9  1  1  0
 10 15  2  0
 11 12  2  0
 11 10  1  0
 12 13  1  0
 13 14  2  0
 15 14  1  0
  1 16  1  0
  1 17  1  0
  3 18  1  0
  4 19  1  0
  7 20  1  0
  7 21  1  0
  8 22  1  0
  8 23  1  0
  8 24  1  0
  9 25  1  0
  9 26  1  0
 11 27  1  0
 12 28  1  0
 14 29  1  0
M  ISO  8  16   8  17   8  18  14  19  14  20   8  21   8  22   8  23   8
M  ISO  6  24   8  25   8  26   8  27  14  28  14  29  14
M  END
>  <minimizedAffinity>  (1) 
-4.39456224

>  <minimizedRMSD>  (1) 
1.99624002

$$$$
