
     RDKit          3D

 29 31  0  0  0  0  0  0  0  0999 V2000
   39.6360   32.0920   44.7330 C   0  0  0  0  0  0  0  0  0  0  0  0
   38.6020   31.4980   45.6130 C   0  0  0  0  0  0  0  0  0  0  0  0
   37.3830   31.1020   45.0940 C   0  0  0  0  0  0  0  0  0  0  0  0
   36.6300   30.5930   46.1180 C   0  0  0  0  0  0  0  0  0  0  0  0
   37.3950   30.6840   47.2350 N   0  0  0  0  0  0  0  0  0  0  0  0
   38.5460   31.2200   46.9120 N   0  0  0  0  0  0  0  0  0  0  0  0
   37.2720   30.3550   48.6380 C   0  0  0  0  0  0  0  0  0  0  0  0
   36.3260   29.3910   49.2620 C   0  0  0  0  0  0  0  0  0  0  0  0
   36.7100   29.4920   50.9030 S   0  0  0  0  0  0  0  0  0  0  0  0
   38.0840   30.7860   50.6740 C   0  0  0  0  0  0  0  0  0  0  0  0
   38.1420   31.0440   49.3470 N   0  0  0  0  0  0  0  0  0  0  0  0
   40.6390   31.1010   44.2700 C   0  0  0  0  0  0  0  0  0  0  0  0
   40.6370   30.7180   42.8800 C   0  0  0  0  0  0  0  0  0  0  0  0
   39.9650   31.4640   41.9510 C   0  0  0  0  0  0  0  0  0  0  0  0
   39.9710   31.0540   40.5890 C   0  0  0  0  0  0  0  0  0  0  0  0
   40.6730   29.9050   40.3040 N   0  0  0  0  0  0  0  0  0  0  0  0
   41.3190   29.2070   41.2610 C   0  0  0  0  0  0  0  0  0  0  0  0
   41.2970   29.6210   42.5530 N   0  0  0  0  0  0  0  0  0  0  0  0
   39.1400   32.5269   43.8527 H   0  0  0  0  0  0  0  0  0  0  0  0
   40.1708   32.8536   45.3195 H   0  0  0  0  0  0  0  0  0  0  0  0
   37.0724   31.1820   44.0418 H   0  0  0  0  0  0  0  0  0  0  0  0
   35.6086   30.1906   46.0489 H   0  0  0  0  0  0  0  0  0  0  0  0
   35.5636   28.7660   48.7740 H   0  0  0  0  0  0  0  0  0  0  0  0
   38.7067   31.2348   51.4620 H   0  0  0  0  0  0  0  0  0  0  0  0
   41.6329   31.5176   44.4906 H   0  0  0  0  0  0  0  0  0  0  0  0
   40.3713   30.1774   44.8041 H   0  0  0  0  0  0  0  0  0  0  0  0
   39.4248   32.3729   42.2545 H   0  0  0  0  0  0  0  0  0  0  0  0
   39.4447   31.6227   39.8082 H   0  0  0  0  0  0  0  0  0  0  0  0
   41.8689   28.2933   40.9912 H   0  0  0  0  0  0  0  0  0  0  0  0
  1  2  1  0
  2  6  2  0
  3  2  1  0
  3  4  2  0
  4  5  1  0
  5  7  1  0
  6  5  1  0
  7  8  2  0
  7 11  1  0
  8  9  1  0
 10  9  1  0
 11 10  2  0
 12  1  1  0
 13 12  1  0
 14 13  2  0
 15 14  1  0
 16 15  2  0
 16 17  1  0
 17 18  2  0
 18 13  1  0
  1 19  1  0
  1 20  1  0
  3 21  1  0
  4 22  1  0
  8 23  1  0
 10 24  1  0
 12 25  1  0
 12 26  1  0
 14 27  1  0
 15 28  1  0
 17 29  1  0
M  ISO  8  19   8  20   8  21  14  22  14  23  14  24  14  25   8  26   8
M  ISO  3  27  14  28  14  29  14
M  END
>  <minimizedAffinity>  (1) 
-4.36666489

>  <minimizedRMSD>  (1) 
4.54711533

$$$$
