
     RDKit          3D

 33 35  0  0  1  0  0  0  0  0999 V2000
   34.7500   30.3130   44.9140 C   0  0  0  0  0  0  0  0  0  0  0  0
   35.0540   30.0780   46.3460 C   0  0  0  0  0  0  0  0  0  0  0  0
   34.0440   30.0580   47.3040 C   0  0  0  0  0  0  0  0  0  0  0  0
   34.6360   29.8120   48.5130 C   0  0  0  0  0  0  0  0  0  0  0  0
   35.9450   29.6890   48.2940 N   0  0  0  0  0  0  0  0  0  0  0  0
   36.1840   29.8470   47.0210 N   0  0  0  0  0  0  0  0  0  0  0  0
   38.0670   30.3160   49.2130 N   0  0  0  0  0  0  0  0  0  0  0  0
   38.2780   30.9400   50.4770 C   0  0  0  0  0  0  0  0  0  0  0  0
   37.3070   30.3980   51.4770 C   0  0  0  0  0  0  0  0  0  0  0  0
   36.4220   29.4650   50.7080 C   0  0  0  0  0  0  0  0  0  0  0  0
   36.9470   29.4220   49.3110 C   0  0  1  0  0  0  0  0  0  0  0  0
   35.8130   29.8170   44.0100 C   0  0  0  0  0  0  0  0  0  0  0  0
   37.0510   30.5390   43.9340 C   0  0  0  0  0  0  0  0  0  0  0  0
   37.0630   31.9040   43.8310 C   0  0  0  0  0  0  0  0  0  0  0  0
   38.2880   32.6070   43.7430 C   0  0  0  0  0  0  0  0  0  0  0  0
   39.4350   31.8240   43.7680 N   0  0  0  0  0  0  0  0  0  0  0  0
   39.3640   30.4790   43.8720 C   0  0  0  0  0  0  0  0  0  0  0  0
   38.1670   29.8310   43.9550 N   0  0  0  0  0  0  0  0  0  0  0  0
   33.8099   29.7985   44.6658 H   0  0  0  0  0  0  0  0  0  0  0  0
   34.6728   31.4004   44.7672 H   0  0  0  0  0  0  0  0  0  0  0  0
   32.9699   30.2114   47.1228 H   0  0  0  0  0  0  0  0  0  0  0  0
   34.1265   29.7309   49.4845 H   0  0  0  0  0  0  0  0  0  0  0  0
   38.6280   30.4799   48.3649 H   0  0  0  0  0  0  0  0  0  0  0  0
   39.0403   31.7051   50.6856 H   0  0  0  0  0  0  0  0  0  0  0  0
   37.2538   30.6343   52.5500 H   0  0  0  0  0  0  0  0  0  0  0  0
   36.4526   28.4603   51.1547 H   0  0  0  0  0  0  0  0  0  0  0  0
   35.3773   29.8091   50.7256 H   0  0  0  0  0  0  0  0  0  0  0  0
   37.2702   28.3910   49.1045 H   0  0  0  0  0  0  0  0  0  0  0  0
   36.0557   28.7925   44.3286 H   0  0  0  0  0  0  0  0  0  0  0  0
   35.3794   29.9278   43.0051 H   0  0  0  0  0  0  0  0  0  0  0  0
   36.1132   32.4586   43.8165 H   0  0  0  0  0  0  0  0  0  0  0  0
   38.3292   33.7031   43.6601 H   0  0  0  0  0  0  0  0  0  0  0  0
   40.2943   29.8923   43.8902 H   0  0  0  0  0  0  0  0  0  0  0  0
  1  2  1  0
  2  6  2  0
  2  3  1  0
  3  4  2  0
  5  4  1  0
  6  5  1  0
  7 11  1  0
  7  8  1  0
  8  9  2  0
 10  9  1  0
 11  5  1  0
 11 10  1  0
 12  1  1  0
 13 18  1  0
 13 12  1  0
 14 13  2  0
 15 16  2  0
 15 14  1  0
 16 17  1  0
 17 18  2  0
  1 19  1  0
  1 20  1  0
  3 21  1  0
  4 22  1  0
  7 23  1  0
  8 24  1  0
  9 25  1  0
 10 26  1  0
 10 27  1  0
 11 28  1  6
 12 29  1  0
 12 30  1  0
 14 31  1  0
 15 32  1  0
 17 33  1  0
M  ISO  8  19   8  20   8  21  14  22  14  24  13  25  13  26  13  27  13
M  ISO  6  28  13  29   8  30   8  31  14  32  14  33  14
M  END
>  <minimizedAffinity>  (1) 
-4.33349133

>  <minimizedRMSD>  (1) 
3.65621161

$$$$
