
     RDKit          3D

 42 45  0  0  0  0  0  0  0  0999 V2000
   34.4930   29.3800   50.2520 C   0  0  0  0  0  0  0  0  0  0  0  0
   35.8220   30.0290   50.2220 C   0  0  0  0  0  0  0  0  0  0  0  0
   36.7780   29.8130   51.2210 C   0  0  0  0  0  0  0  0  0  0  0  0
   37.8830   30.5420   50.9150 C   0  0  0  0  0  0  0  0  0  0  0  0
   37.6140   31.1850   49.7630 N   0  0  0  0  0  0  0  0  0  0  0  0
   36.3970   30.8590   49.3880 N   0  0  0  0  0  0  0  0  0  0  0  0
   38.3870   32.0800   48.9740 C   0  0  0  0  0  0  0  0  0  0  0  0
   38.7660   33.2520   49.5810 C   0  0  0  0  0  0  0  0  0  0  0  0
   39.5260   34.2410   48.9550 C   0  0  0  0  0  0  0  0  0  0  0  0
   39.8990   33.9770   47.6320 C   0  0  0  0  0  0  0  0  0  0  0  0
   39.5240   32.8060   47.0190 C   0  0  0  0  0  0  0  0  0  0  0  0
   38.7740   31.8510   47.6660 C   0  0  0  0  0  0  0  0  0  0  0  0
   34.3510   28.2670   49.2800 C   0  0  0  0  0  0  0  0  0  0  0  0
   33.8740   28.5820   47.9610 C   0  0  0  0  0  0  0  0  0  0  0  0
   32.6160   28.2120   47.5720 C   0  0  0  0  0  0  0  0  0  0  0  0
   32.1360   28.5150   46.2770 C   0  0  0  0  0  0  0  0  0  0  0  0
   33.0150   29.1950   45.4580 N   0  0  0  0  0  0  0  0  0  0  0  0
   34.2570   29.5390   45.8980 C   0  0  0  0  0  0  0  0  0  0  0  0
   34.6720   29.2310   47.1340 N   0  0  0  0  0  0  0  0  0  0  0  0
   35.1150   30.2580   44.9560 C   0  0  0  0  0  0  0  0  0  0  0  0
   36.4640   30.4170   45.2070 C   0  0  0  0  0  0  0  0  0  0  0  0
   37.2240   31.1150   44.2650 C   0  0  0  0  0  0  0  0  0  0  0  0
   36.6250   31.6230   43.1240 C   0  0  0  0  0  0  0  0  0  0  0  0
   35.2570   31.4470   42.8990 C   0  0  0  0  0  0  0  0  0  0  0  0
   34.5450   30.7610   43.8390 N   0  0  0  0  0  0  0  0  0  0  0  0
   34.3236   28.9818   51.2633 H   0  0  0  0  0  0  0  0  0  0  0  0
   33.7544   30.1462   49.9739 H   0  0  0  0  0  0  0  0  0  0  0  0
   36.6559   29.1651   52.1016 H   0  0  0  0  0  0  0  0  0  0  0  0
   38.8158   30.5963   51.4954 H   0  0  0  0  0  0  0  0  0  0  0  0
   38.4522   33.4212   50.6216 H   0  0  0  0  0  0  0  0  0  0  0  0
   39.8139   35.1699   49.4691 H   0  0  0  0  0  0  0  0  0  0  0  0
   40.4982   34.7143   47.0776 H   0  0  0  0  0  0  0  0  0  0  0  0
   39.8330   32.6264   45.9787 H   0  0  0  0  0  0  0  0  0  0  0  0
   38.4872   30.9217   47.1520 H   0  0  0  0  0  0  0  0  0  0  0  0
   35.3415   27.8020   49.1676 H   0  0  0  0  0  0  0  0  0  0  0  0
   33.5688   27.6239   49.7097 H   0  0  0  0  0  0  0  0  0  0  0  0
   31.9681   27.6707   48.2771 H   0  0  0  0  0  0  0  0  0  0  0  0
   31.1278   28.2276   45.9438 H   0  0  0  0  0  0  0  0  0  0  0  0
   36.9246   30.0077   46.1182 H   0  0  0  0  0  0  0  0  0  0  0  0
   38.3016   31.2616   44.4300 H   0  0  0  0  0  0  0  0  0  0  0  0
   37.2320   32.1703   42.3878 H   0  0  0  0  0  0  0  0  0  0  0  0
   34.7718   31.8472   41.9965 H   0  0  0  0  0  0  0  0  0  0  0  0
  2  1  1  0
  2  3  1  0
  4  3  2  0
  5  4  1  0
  6  5  1  0
  6  2  2  0
  7  8  2  0
  7  5  1  0
  9  8  1  0
 10  9  2  0
 11 10  1  0
 11 12  2  0
 12  7  1  0
 13  1  1  0
 14 13  1  0
 15 14  2  0
 16 15  1  0
 17 18  1  0
 17 16  2  0
 18 19  2  0
 19 14  1  0
 20 21  2  0
 20 18  1  0
 22 21  1  0
 23 22  2  0
 24 23  1  0
 24 25  2  0
 25 20  1  0
  1 26  1  0
  1 27  1  0
  3 28  1  0
  4 29  1  0
  8 30  1  0
  9 31  1  0
 10 32  1  0
 11 33  1  0
 12 34  1  0
 13 35  1  0
 13 36  1  0
 15 37  1  0
 16 38  1  0
 21 39  1  0
 22 40  1  0
 23 41  1  0
 24 42  1  0
M  ISO  8  26   8  27   8  28  14  29  14  30  14  31  14  32  14  33  14
M  ISO  8  34  14  35   8  36   8  37  14  38  14  39  14  40  14  41  14
M  ISO  1  42  14
M  END
>  <minimizedAffinity>  (1) 
-6.19848251

>  <minimizedRMSD>  (1) 
1.56634808

$$$$
