
     RDKit          3D

 43 46  0  0  0  0  0  0  0  0999 V2000
   34.4150   29.5450   48.6760 C   0  0  0  0  0  0  0  0  0  0  0  0
   35.7750   30.0730   48.9150 C   0  0  0  0  0  0  0  0  0  0  0  0
   36.6570   29.4900   49.8350 C   0  0  0  0  0  0  0  0  0  0  0  0
   37.8130   30.2090   49.8170 C   0  0  0  0  0  0  0  0  0  0  0  0
   37.6430   31.1950   48.9190 N   0  0  0  0  0  0  0  0  0  0  0  0
   36.4360   31.0890   48.4060 N   0  0  0  0  0  0  0  0  0  0  0  0
   38.5110   32.2350   48.4920 C   0  0  0  0  0  0  0  0  0  0  0  0
   38.7670   33.2310   49.3950 C   0  0  0  0  0  0  0  0  0  0  0  0
   39.5990   34.3210   49.1300 C   0  0  0  0  0  0  0  0  0  0  0  0
   40.1770   34.3600   47.8700 C   0  0  0  0  0  0  0  0  0  0  0  0
   39.9270   33.3660   46.9540 C   0  0  0  0  0  0  0  0  0  0  0  0
   39.1010   32.2980   47.2410 C   0  0  0  0  0  0  0  0  0  0  0  0
   34.2910   28.7820   47.4220 C   0  0  0  0  0  0  0  0  0  0  0  0
   34.4830   29.4680   46.1760 C   0  0  0  0  0  0  0  0  0  0  0  0
   33.3950   29.7430   45.3770 C   0  0  0  0  0  0  0  0  0  0  0  0
   33.5640   30.4180   44.1470 C   0  0  0  0  0  0  0  0  0  0  0  0
   34.8670   30.7650   43.8270 N   0  0  0  0  0  0  0  0  0  0  0  0
   35.8970   30.4680   44.6510 C   0  0  0  0  0  0  0  0  0  0  0  0
   35.7090   29.8220   45.8210 N   0  0  0  0  0  0  0  0  0  0  0  0
   36.5450   33.0430   43.6340 F   0  0  0  0  0  0  0  0  0  0  0  0
   37.5240   32.1020   43.7750 C   0  0  0  0  0  0  0  0  0  0  0  0
   37.2440   30.8590   44.2590 C   0  0  0  0  0  0  0  0  0  0  0  0
   38.3090   29.9850   44.3590 C   0  0  0  0  0  0  0  0  0  0  0  0
   39.5970   30.2940   44.0070 C   0  0  0  0  0  0  0  0  0  0  0  0
   39.8250   31.5800   43.5170 C   0  0  0  0  0  0  0  0  0  0  0  0
   38.7890   32.4760   43.4030 C   0  0  0  0  0  0  0  0  0  0  0  0
   34.1463   28.8841   49.5133 H   0  0  0  0  0  0  0  0  0  0  0  0
   33.7421   30.4114   48.5946 H   0  0  0  0  0  0  0  0  0  0  0  0
   36.4518   28.6085   50.4602 H   0  0  0  0  0  0  0  0  0  0  0  0
   38.7127   30.0197   50.4208 H   0  0  0  0  0  0  0  0  0  0  0  0
   38.2909   33.1696   50.3847 H   0  0  0  0  0  0  0  0  0  0  0  0
   39.7854   35.1048   49.8789 H   0  0  0  0  0  0  0  0  0  0  0  0
   40.8417   35.1941   47.6011 H   0  0  0  0  0  0  0  0  0  0  0  0
   40.3995   33.4234   45.9623 H   0  0  0  0  0  0  0  0  0  0  0  0
   38.9155   31.5140   46.4921 H   0  0  0  0  0  0  0  0  0  0  0  0
   35.0323   27.9703   47.4623 H   0  0  0  0  0  0  0  0  0  0  0  0
   33.2346   28.4764   47.3986 H   0  0  0  0  0  0  0  0  0  0  0  0
   32.3889   29.4354   45.6983 H   0  0  0  0  0  0  0  0  0  0  0  0
   32.7163   30.6528   43.4864 H   0  0  0  0  0  0  0  0  0  0  0  0
   38.1103   28.9749   44.7465 H   0  0  0  0  0  0  0  0  0  0  0  0
   40.4125   29.5625   44.1062 H   0  0  0  0  0  0  0  0  0  0  0  0
   40.8410   31.8791   43.2198 H   0  0  0  0  0  0  0  0  0  0  0  0
   38.9743   33.4885   43.0150 H   0  0  0  0  0  0  0  0  0  0  0  0
  1  2  1  0
  2  3  1  0
  4  3  2  0
  5  4  1  0
  6  2  2  0
  6  5  1  0
  7  5  1  0
  7  8  2  0
  9  8  1  0
 10  9  2  0
 11 12  2  0
 11 10  1  0
 12  7  1  0
 13  1  1  0
 14 13  1  0
 15 14  2  0
 16 15  1  0
 17 16  2  0
 17 18  1  0
 18 19  2  0
 19 14  1  0
 20 21  1  0
 21 22  2  0
 22 23  1  0
 22 18  1  0
 24 23  2  0
 25 24  1  0
 26 25  2  0
 26 21  1  0
  1 27  1  0
  1 28  1  0
  3 29  1  0
  4 30  1  0
  8 31  1  0
  9 32  1  0
 10 33  1  0
 11 34  1  0
 12 35  1  0
 13 36  1  0
 13 37  1  0
 15 38  1  0
 16 39  1  0
 23 40  1  0
 24 41  1  0
 25 42  1  0
 26 43  1  0
M  ISO  8  27   8  28   8  29  14  30  14  31  14  32  14  33  14  34  14
M  ISO  8  35  14  36   8  37   8  38  14  39  14  40  14  41  14  42  14
M  ISO  1  43  14
M  END
>  <minimizedAffinity>  (1) 
-6.14595413

>  <minimizedRMSD>  (1) 
1.61405897

$$$$
