
     RDKit          3D

 43 46  0  0  0  0  0  0  0  0999 V2000
   34.4400   29.5390   48.6850 C   0  0  0  0  0  0  0  0  0  0  0  0
   35.7910   30.0730   48.9300 C   0  0  0  0  0  0  0  0  0  0  0  0
   36.6680   29.4990   49.8610 C   0  0  0  0  0  0  0  0  0  0  0  0
   37.8280   30.2210   49.8490 C   0  0  0  0  0  0  0  0  0  0  0  0
   37.6620   31.1890   48.9500 N   0  0  0  0  0  0  0  0  0  0  0  0
   36.4620   31.0790   48.4270 N   0  0  0  0  0  0  0  0  0  0  0  0
   38.5300   32.2360   48.5150 C   0  0  0  0  0  0  0  0  0  0  0  0
   38.7630   33.2440   49.4320 C   0  0  0  0  0  0  0  0  0  0  0  0
   39.5840   34.3390   49.1670 C   0  0  0  0  0  0  0  0  0  0  0  0
   40.1790   34.3810   47.9140 C   0  0  0  0  0  0  0  0  0  0  0  0
   39.9520   33.3780   46.9920 C   0  0  0  0  0  0  0  0  0  0  0  0
   39.1360   32.3090   47.2810 C   0  0  0  0  0  0  0  0  0  0  0  0
   34.3320   28.7490   47.4360 C   0  0  0  0  0  0  0  0  0  0  0  0
   34.3570   29.4480   46.1870 C   0  0  0  0  0  0  0  0  0  0  0  0
   33.1960   29.7270   45.5210 C   0  0  0  0  0  0  0  0  0  0  0  0
   33.1900   30.4160   44.2850 C   0  0  0  0  0  0  0  0  0  0  0  0
   34.4350   30.7790   43.8140 N   0  0  0  0  0  0  0  0  0  0  0  0
   35.5600   30.4820   44.5080 C   0  0  0  0  0  0  0  0  0  0  0  0
   35.5330   29.8230   45.6830 N   0  0  0  0  0  0  0  0  0  0  0  0
   37.0290   28.3680   43.0660 Cl  0  0  0  0  0  0  0  0  0  0  0  0
   37.6400   30.0020   43.2660 C   0  0  0  0  0  0  0  0  0  0  0  0
   36.8560   30.8920   43.9600 C   0  0  0  0  0  0  0  0  0  0  0  0
   37.3350   32.1800   44.1180 C   0  0  0  0  0  0  0  0  0  0  0  0
   38.5720   32.5000   43.5720 C   0  0  0  0  0  0  0  0  0  0  0  0
   39.3490   31.5770   42.8720 C   0  0  0  0  0  0  0  0  0  0  0  0
   38.8770   30.2870   42.7080 C   0  0  0  0  0  0  0  0  0  0  0  0
   34.1630   28.8923   49.5306 H   0  0  0  0  0  0  0  0  0  0  0  0
   33.7661   30.4020   48.5802 H   0  0  0  0  0  0  0  0  0  0  0  0
   36.4590   28.6215   50.4906 H   0  0  0  0  0  0  0  0  0  0  0  0
   38.7231   30.0384   50.4617 H   0  0  0  0  0  0  0  0  0  0  0  0
   38.2777   33.1789   50.4170 H   0  0  0  0  0  0  0  0  0  0  0  0
   39.7517   35.1296   49.9132 H   0  0  0  0  0  0  0  0  0  0  0  0
   40.8382   35.2218   47.6524 H   0  0  0  0  0  0  0  0  0  0  0  0
   40.4343   33.4353   46.0050 H   0  0  0  0  0  0  0  0  0  0  0  0
   38.9692   31.5198   46.5331 H   0  0  0  0  0  0  0  0  0  0  0  0
   35.1703   28.0368   47.4275 H   0  0  0  0  0  0  0  0  0  0  0  0
   33.3255   28.3074   47.4801 H   0  0  0  0  0  0  0  0  0  0  0  0
   32.2390   29.4066   45.9586 H   0  0  0  0  0  0  0  0  0  0  0  0
   32.2621   30.6451   43.7404 H   0  0  0  0  0  0  0  0  0  0  0  0
   36.7495   32.9344   44.6639 H   0  0  0  0  0  0  0  0  0  0  0  0
   38.9544   33.5238   43.6970 H   0  0  0  0  0  0  0  0  0  0  0  0
   40.3240   31.8709   42.4560 H   0  0  0  0  0  0  0  0  0  0  0  0
   39.4539   29.5257   42.1624 H   0  0  0  0  0  0  0  0  0  0  0  0
  1  2  1  0
  2  3  1  0
  4  3  2  0
  5  4  1  0
  6  2  2  0
  6  5  1  0
  7  5  1  0
  7  8  2  0
  9  8  1  0
 10  9  2  0
 11 12  2  0
 11 10  1  0
 12  7  1  0
 13  1  1  0
 14 13  1  0
 15 14  2  0
 16 15  1  0
 17 16  2  0
 17 18  1  0
 18 19  2  0
 19 14  1  0
 20 21  1  0
 21 22  2  0
 22 23  1  0
 22 18  1  0
 24 23  2  0
 25 24  1  0
 26 25  2  0
 26 21  1  0
  1 27  1  0
  1 28  1  0
  3 29  1  0
  4 30  1  0
  8 31  1  0
  9 32  1  0
 10 33  1  0
 11 34  1  0
 12 35  1  0
 13 36  1  0
 13 37  1  0
 15 38  1  0
 16 39  1  0
 23 40  1  0
 24 41  1  0
 25 42  1  0
 26 43  1  0
M  ISO  8  27   8  28   8  29  14  30  14  31  14  32  14  33  14  34  14
M  ISO  8  35  14  36   8  37   8  38  14  39  14  40  14  41  14  42  14
M  ISO  1  43  14
M  END
>  <minimizedAffinity>  (1) 
-5.98305321

>  <minimizedRMSD>  (1) 
1.51639986

$$$$
