
     RDKit          3D

 39 42  0  0  0  0  0  0  0  0999 V2000
   34.3220   29.4210   49.5510 C   0  0  0  0  0  0  0  0  0  0  0  0
   35.7120   29.9330   49.5810 C   0  0  0  0  0  0  0  0  0  0  0  0
   36.6920   29.3680   50.4000 C   0  0  0  0  0  0  0  0  0  0  0  0
   37.8530   30.0580   50.1980 C   0  0  0  0  0  0  0  0  0  0  0  0
   37.5850   31.0050   49.2920 N   0  0  0  0  0  0  0  0  0  0  0  0
   36.3210   30.9080   48.9470 N   0  0  0  0  0  0  0  0  0  0  0  0
   38.3990   32.0100   48.7020 C   0  0  0  0  0  0  0  0  0  0  0  0
   38.6730   33.1060   49.4760 C   0  0  0  0  0  0  0  0  0  0  0  0
   39.4510   34.1790   49.0540 C   0  0  0  0  0  0  0  0  0  0  0  0
   39.9650   34.1020   47.7680 C   0  0  0  0  0  0  0  0  0  0  0  0
   39.6990   33.0080   46.9770 C   0  0  0  0  0  0  0  0  0  0  0  0
   38.9250   31.9570   47.4190 C   0  0  0  0  0  0  0  0  0  0  0  0
   34.0640   28.4710   48.4520 C   0  0  0  0  0  0  0  0  0  0  0  0
   33.7570   28.9940   47.1560 C   0  0  0  0  0  0  0  0  0  0  0  0
   32.4490   29.0790   46.7440 C   0  0  0  0  0  0  0  0  0  0  0  0
   32.1310   29.5960   45.4620 C   0  0  0  0  0  0  0  0  0  0  0  0
   33.1980   29.9930   44.6860 N   0  0  0  0  0  0  0  0  0  0  0  0
   34.4770   29.8880   45.1410 C   0  0  0  0  0  0  0  0  0  0  0  0
   34.7270   29.3930   46.3630 N   0  0  0  0  0  0  0  0  0  0  0  0
   35.5570   30.3290   44.2650 C   0  0  0  0  0  0  0  0  0  0  0  0
   36.6790   30.8140   44.8430 N   0  0  0  0  0  0  0  0  0  0  0  0
   37.5670   31.1710   43.8890 C   0  0  0  0  0  0  0  0  0  0  0  0
   36.9640   30.8940   42.6950 N   0  0  0  0  0  0  0  0  0  0  0  0
   35.7580   30.3900   42.9380 N   0  0  0  0  0  0  0  0  0  0  0  0
   34.1185   28.9123   50.5048 H   0  0  0  0  0  0  0  0  0  0  0  0
   33.6636   30.2871   49.3888 H   0  0  0  0  0  0  0  0  0  0  0  0
   36.5534   28.5188   51.0854 H   0  0  0  0  0  0  0  0  0  0  0  0
   38.8211   29.8713   50.6858 H   0  0  0  0  0  0  0  0  0  0  0  0
   38.2528   33.1398   50.4920 H   0  0  0  0  0  0  0  0  0  0  0  0
   39.6482   35.0430   49.7057 H   0  0  0  0  0  0  0  0  0  0  0  0
   40.5887   34.9200   47.3784 H   0  0  0  0  0  0  0  0  0  0  0  0
   40.1172   32.9712   45.9602 H   0  0  0  0  0  0  0  0  0  0  0  0
   38.7280   31.0929   46.7675 H   0  0  0  0  0  0  0  0  0  0  0  0
   34.9627   27.8458   48.3454 H   0  0  0  0  0  0  0  0  0  0  0  0
   33.1447   27.9495   48.7568 H   0  0  0  0  0  0  0  0  0  0  0  0
   31.6428   28.7438   47.4130 H   0  0  0  0  0  0  0  0  0  0  0  0
   31.0926   29.6754   45.1078 H   0  0  0  0  0  0  0  0  0  0  0  0
   38.5694   31.5971   44.0424 H   0  0  0  0  0  0  0  0  0  0  0  0
   37.3746   31.0494   41.7632 H   0  0  0  0  0  0  0  0  0  0  0  0
  1  2  1  0
  2  3  1  0
  4  3  2  0
  5  4  1  0
  6  5  1  0
  6  2  2  0
  7  5  1  0
  7  8  2  0
  9  8  1  0
 10  9  2  0
 11 12  2  0
 11 10  1  0
 12  7  1  0
 13  1  1  0
 14 13  1  0
 15 14  2  0
 16 15  1  0
 17 18  1  0
 17 16  2  0
 18 19  2  0
 19 14  1  0
 20 21  1  0
 20 18  1  0
 22 21  2  0
 23 24  1  0
 23 22  1  0
 24 20  2  0
  1 25  1  0
  1 26  1  0
  3 27  1  0
  4 28  1  0
  8 29  1  0
  9 30  1  0
 10 31  1  0
 11 32  1  0
 12 33  1  0
 13 34  1  0
 13 35  1  0
 15 36  1  0
 16 37  1  0
 22 38  1  0
 23 39  1  0
M  ISO  8  25   8  26   8  27  14  28  14  29  14  30  14  31  14  32  14
M  ISO  7  33  14  34   8  35   8  36  14  37  14  38  14  39   9
M  END
>  <minimizedAffinity>  (1) 
-5.63867426

>  <minimizedRMSD>  (1) 
0.86270833

$$$$
