
     RDKit          3D

 35 37  0  0  0  0  0  0  0  0999 V2000
   35.7690   29.8120   49.0760 C   0  0  0  0  0  0  0  0  0  0  0  0
   36.6690   29.3010   50.0190 C   0  0  0  0  0  0  0  0  0  0  0  0
   37.8070   30.0540   49.9580 C   0  0  0  0  0  0  0  0  0  0  0  0
   37.6090   30.9880   49.0140 N   0  0  0  0  0  0  0  0  0  0  0  0
   36.4010   30.8200   48.5150 N   0  0  0  0  0  0  0  0  0  0  0  0
   38.4330   32.0290   48.5260 C   0  0  0  0  0  0  0  0  0  0  0  0
   38.6690   33.0810   49.3910 C   0  0  0  0  0  0  0  0  0  0  0  0
   39.4550   34.1770   49.0700 C   0  0  0  0  0  0  0  0  0  0  0  0
   40.0180   34.1900   47.8020 C   0  0  0  0  0  0  0  0  0  0  0  0
   39.7960   33.1490   46.9200 C   0  0  0  0  0  0  0  0  0  0  0  0
   39.0080   32.0600   47.2600 C   0  0  0  0  0  0  0  0  0  0  0  0
   34.4250   29.2240   48.8800 C   0  0  0  0  0  0  0  0  0  0  0  0
   34.2730   28.5480   47.5620 C   0  0  0  0  0  0  0  0  0  0  0  0
   33.9440   29.3670   46.4270 C   0  0  0  0  0  0  0  0  0  0  0  0
   32.7500   30.0150   46.3320 C   0  0  0  0  0  0  0  0  0  0  0  0
   32.4110   30.8190   45.2320 C   0  0  0  0  0  0  0  0  0  0  0  0
   33.3760   30.9050   44.2540 N   0  0  0  0  0  0  0  0  0  0  0  0
   34.5570   30.2440   44.3810 C   0  0  0  0  0  0  0  0  0  0  0  0
   34.8210   29.4900   45.4580 N   0  0  0  0  0  0  0  0  0  0  0  0
   35.5160   30.3730   43.3330 N   0  0  0  0  0  0  0  0  0  0  0  0
   36.4915   28.4466   50.6887 H   0  0  0  0  0  0  0  0  0  0  0  0
   38.7135   29.9205   50.5667 H   0  0  0  0  0  0  0  0  0  0  0  0
   38.2078   33.0467   50.3890 H   0  0  0  0  0  0  0  0  0  0  0  0
   39.6239   34.9956   49.7851 H   0  0  0  0  0  0  0  0  0  0  0  0
   40.6479   35.0380   47.4952 H   0  0  0  0  0  0  0  0  0  0  0  0
   40.2568   33.1856   45.9218 H   0  0  0  0  0  0  0  0  0  0  0  0
   38.8416   31.2403   46.5456 H   0  0  0  0  0  0  0  0  0  0  0  0
   34.2458   28.4857   49.6755 H   0  0  0  0  0  0  0  0  0  0  0  0
   33.6970   30.0479   48.9134 H   0  0  0  0  0  0  0  0  0  0  0  0
   35.2250   28.0440   47.3391 H   0  0  0  0  0  0  0  0  0  0  0  0
   33.4052   27.8838   47.6876 H   0  0  0  0  0  0  0  0  0  0  0  0
   32.0223   29.9041   47.1494 H   0  0  0  0  0  0  0  0  0  0  0  0
   31.4459   31.3414   45.1572 H   0  0  0  0  0  0  0  0  0  0  0  0
   36.4204   29.8846   43.3995 H   0  0  0  0  0  0  0  0  0  0  0  0
   35.3041   30.9546   42.5097 H   0  0  0  0  0  0  0  0  0  0  0  0
  1  2  1  0
  3  2  2  0
  4  3  1  0
  5  4  1  0
  5  1  2  0
  6  4  1  0
  6  7  2  0
  8  7  1  0
  9  8  2  0
 10 11  2  0
 10  9  1  0
 11  6  1  0
 12  1  1  0
 13 12  1  0
 14 13  1  0
 15 14  2  0
 16 15  1  0
 17 18  1  0
 17 16  2  0
 18 19  2  0
 19 14  1  0
 20 18  1  0
  2 21  1  0
  3 22  1  0
  7 23  1  0
  8 24  1  0
  9 25  1  0
 10 26  1  0
 11 27  1  0
 12 28  1  0
 12 29  1  0
 13 30  1  0
 13 31  1  0
 15 32  1  0
 16 33  1  0
 20 34  1  0
 20 35  1  0
M  ISO  8  21  14  22  14  23  14  24  14  25  14  26  14  27  14  28   8
M  ISO  5  29   8  30   8  31   8  32  14  33  14
M  END
>  <minimizedAffinity>  (1) 
-5.33535528

>  <minimizedRMSD>  (1) 
0.0226691253

$$$$
