
     RDKit          3D

 23 24  0  0  0  0  0  0  0  0999 V2000
   35.3910   28.9290   48.7200 C   0  0  0  0  0  0  0  0  0  0  0  0
   35.3570   29.9660   47.7700 C   0  0  0  0  0  0  0  0  0  0  0  0
   34.1870   30.1410   47.0390 C   0  0  0  0  0  0  0  0  0  0  0  0
   33.1430   29.3070   47.2780 N   0  0  0  0  0  0  0  0  0  0  0  0
   33.2030   28.3200   48.1960 C   0  0  0  0  0  0  0  0  0  0  0  0
   34.3330   28.1360   48.9160 N   0  0  0  0  0  0  0  0  0  0  0  0
   36.4950   31.5330   50.1170 Cl  0  0  0  0  0  0  0  0  0  0  0  0
   37.2190   31.5690   48.5340 C   0  0  0  0  0  0  0  0  0  0  0  0
   36.5640   30.8010   47.6090 C   0  0  0  0  0  0  0  0  0  0  0  0
   37.0590   30.7510   46.2940 C   0  0  0  0  0  0  0  0  0  0  0  0
   38.1710   31.4520   45.9290 C   0  0  0  0  0  0  0  0  0  0  0  0
   38.8160   32.2180   46.8730 C   0  0  0  0  0  0  0  0  0  0  0  0
   40.2410   33.1260   46.4400 Cl  0  0  0  0  0  0  0  0  0  0  0  0
   38.3360   32.2660   48.1510 C   0  0  0  0  0  0  0  0  0  0  0  0
   32.0120   27.4480   48.3980 C   0  0  0  0  0  0  0  0  0  0  0  0
   31.3640   27.7910   49.5640 F   0  0  0  0  0  0  0  0  0  0  0  0
   32.3120   26.1060   48.3440 F   0  0  0  0  0  0  0  0  0  0  0  0
   31.0970   27.6690   47.3580 F   0  0  0  0  0  0  0  0  0  0  0  0
   36.3041   28.7679   49.3118 H   0  0  0  0  0  0  0  0  0  0  0  0
   34.1093   30.9373   46.2841 H   0  0  0  0  0  0  0  0  0  0  0  0
   36.5397   30.1349   45.5452 H   0  0  0  0  0  0  0  0  0  0  0  0
   38.5463   31.4057   44.8960 H   0  0  0  0  0  0  0  0  0  0  0  0
   38.8614   32.8824   48.8953 H   0  0  0  0  0  0  0  0  0  0  0  0
  1  6  2  0
  2  1  1  0
  3  4  1  0
  3  2  2  0
  4  5  2  0
  5 15  1  0
  5  6  1  0
  8  7  1  0
  9  2  1  0
  9  8  2  0
 10  9  1  0
 11 10  2  0
 11 12  1  0
 12 14  2  0
 13 12  1  0
 14  8  1  0
 15 16  1  0
 17 15  1  0
 18 15  1  0
  1 19  1  0
  3 20  1  0
 10 21  1  0
 11 22  1  0
 14 23  1  0
M  ISO  5  19  14  20  14  21  14  22  14  23  14
M  END
>  <minimizedAffinity>  (1) 
-5.49204826

>  <minimizedRMSD>  (1) 
3.19176245

$$$$
