
     RDKit          3D

 27 29  0  0  0  0  0  0  0  0999 V2000
   36.7510   31.8310   50.1400 Cl  0  0  0  0  0  0  0  0  0  0  0  0
   37.4450   31.7810   48.5410 C   0  0  0  0  0  0  0  0  0  0  0  0
   36.7890   30.9360   47.6830 C   0  0  0  0  0  0  0  0  0  0  0  0
   37.2620   30.8160   46.3630 C   0  0  0  0  0  0  0  0  0  0  0  0
   38.3450   31.5150   45.9320 C   0  0  0  0  0  0  0  0  0  0  0  0
   38.9910   32.3570   46.8090 C   0  0  0  0  0  0  0  0  0  0  0  0
   40.3840   33.2700   46.2890 Cl  0  0  0  0  0  0  0  0  0  0  0  0
   38.5360   32.4760   48.0850 C   0  0  0  0  0  0  0  0  0  0  0  0
   35.6980   29.0830   48.9140 C   0  0  0  0  0  0  0  0  0  0  0  0
   35.6070   30.0880   47.9270 C   0  0  0  0  0  0  0  0  0  0  0  0
   34.3970   30.2190   47.2350 C   0  0  0  0  0  0  0  0  0  0  0  0
   33.3760   29.3780   47.5480 N   0  0  0  0  0  0  0  0  0  0  0  0
   33.5040   28.4270   48.5020 C   0  0  0  0  0  0  0  0  0  0  0  0
   34.6680   28.2840   49.1830 N   0  0  0  0  0  0  0  0  0  0  0  0
   32.3330   27.5430   48.7860 C   0  0  0  0  0  0  0  0  0  0  0  0
   32.2010   26.3570   47.7850 C   0  0  0  0  0  0  0  0  0  0  0  0
   31.1950   27.4710   47.8660 C   0  0  0  0  0  0  0  0  0  0  0  0
   36.7440   30.1419   45.6650 H   0  0  0  0  0  0  0  0  0  0  0  0
   38.7006   31.4094   44.8964 H   0  0  0  0  0  0  0  0  0  0  0  0
   39.0610   33.1529   48.7751 H   0  0  0  0  0  0  0  0  0  0  0  0
   36.6380   28.9578   49.4714 H   0  0  0  0  0  0  0  0  0  0  0  0
   34.2753   30.9854   46.4554 H   0  0  0  0  0  0  0  0  0  0  0  0
   32.3909   27.7059   49.8723 H   0  0  0  0  0  0  0  0  0  0  0  0
   31.9471   25.3490   48.1450 H   0  0  0  0  0  0  0  0  0  0  0  0
   32.8264   25.9073   46.9997 H   0  0  0  0  0  0  0  0  0  0  0  0
   31.1209   28.1937   47.0400 H   0  0  0  0  0  0  0  0  0  0  0  0
   30.1043   27.4986   48.0059 H   0  0  0  0  0  0  0  0  0  0  0  0
  2  1  1  0
  3 10  1  0
  3  2  2  0
  4  3  1  0
  5  4  2  0
  5  6  1  0
  6  8  2  0
  7  6  1  0
  8  2  1  0
  9 14  2  0
 10  9  1  0
 11 12  1  0
 11 10  2  0
 12 13  2  0
 13 15  1  0
 13 14  1  0
 16 17  1  0
 16 15  1  0
 17 15  1  0
  4 18  1  0
  5 19  1  0
  8 20  1  0
  9 21  1  0
 11 22  1  0
 15 23  1  0
 16 24  1  0
 16 25  1  0
 17 26  1  0
 17 27  1  0
M  ISO  8  18  14  19  14  20  14  21  14  22  14  23  13  24  13  25  13
M  ISO  2  26  13  27  13
M  END
>  <minimizedAffinity>  (1) 
-5.44712925

>  <minimizedRMSD>  (1) 
2.69213295

$$$$
