
     RDKit          3D

 31 33  0  0  0  0  0  0  0  0999 V2000
   37.7750   30.4860   50.1610 C   0  0  0  0  0  0  0  0  0  0  0  0
   37.2830   30.6150   48.8510 C   0  0  0  0  0  0  0  0  0  0  0  0
   36.0040   30.1540   48.5930 C   0  0  0  0  0  0  0  0  0  0  0  0
   35.2690   29.5990   49.5850 N   0  0  0  0  0  0  0  0  0  0  0  0
   35.7980   29.4950   50.8530 C   0  0  0  0  0  0  0  0  0  0  0  0
   37.0330   29.9350   51.1250 N   0  0  0  0  0  0  0  0  0  0  0  0
   34.9840   28.8940   51.8650 N   0  0  0  0  0  0  0  0  0  0  0  0
   38.0430   33.5590   49.0400 Cl  0  0  0  0  0  0  0  0  0  0  0  0
   38.6060   32.5200   47.7450 C   0  0  0  0  0  0  0  0  0  0  0  0
   38.1440   31.2230   47.8400 C   0  0  0  0  0  0  0  0  0  0  0  0
   38.5470   30.3350   46.8490 C   0  0  0  0  0  0  0  0  0  0  0  0
   39.3540   30.6800   45.8140 C   0  0  0  0  0  0  0  0  0  0  0  0
   39.7970   31.9880   45.7490 C   0  0  0  0  0  0  0  0  0  0  0  0
   40.8360   32.4950   44.4460 Cl  0  0  0  0  0  0  0  0  0  0  0  0
   39.4230   32.8900   46.7080 C   0  0  0  0  0  0  0  0  0  0  0  0
   35.3930   30.2280   47.2920 C   0  0  0  0  0  0  0  0  0  0  0  0
   35.9460   30.1860   46.0260 C   0  0  0  0  0  0  0  0  0  0  0  0
   35.1990   30.2780   44.8820 C   0  0  0  0  0  0  0  0  0  0  0  0
   33.8330   30.4170   45.0000 C   0  0  0  0  0  0  0  0  0  0  0  0
   33.2850   30.4570   46.2620 C   0  0  0  0  0  0  0  0  0  0  0  0
   34.0480   30.3660   47.3770 N   0  0  0  0  0  0  0  0  0  0  0  0
   38.7879   30.8448   50.3962 H   0  0  0  0  0  0  0  0  0  0  0  0
   35.3435   28.7980   52.8254 H   0  0  0  0  0  0  0  0  0  0  0  0
   34.0386   28.5574   51.6330 H   0  0  0  0  0  0  0  0  0  0  0  0
   38.1921   29.2954   46.9071 H   0  0  0  0  0  0  0  0  0  0  0  0
   39.6462   29.9429   45.0515 H   0  0  0  0  0  0  0  0  0  0  0  0
   39.7833   33.9274   46.6458 H   0  0  0  0  0  0  0  0  0  0  0  0
   37.0363   30.0735   45.9331 H   0  0  0  0  0  0  0  0  0  0  0  0
   35.6779   30.2418   43.8924 H   0  0  0  0  0  0  0  0  0  0  0  0
   33.1957   30.4942   44.1068 H   0  0  0  0  0  0  0  0  0  0  0  0
   32.1956   30.5661   46.3679 H   0  0  0  0  0  0  0  0  0  0  0  0
  1  6  2  0
  2  1  1  0
  3  2  2  0
  3  4  1  0
  4  5  2  0
  5  6  1  0
  5  7  1  0
  9 10  2  0
  9  8  1  0
 10  2  1  0
 11 10  1  0
 12 11  2  0
 13 12  1  0
 13 15  2  0
 14 13  1  0
 15  9  1  0
 16 21  1  0
 16  3  1  0
 17 16  2  0
 18 19  2  0
 18 17  1  0
 19 20  1  0
 20 21  2  0
  1 22  1  0
  7 23  1  0
  7 24  1  0
 11 25  1  0
 12 26  1  0
 15 27  1  0
 17 28  1  0
 18 29  1  0
 19 30  1  0
 20 31  1  0
M  ISO  8  22  14  25  14  26  14  27  14  28  14  29  14  30  14  31  14
M  END
>  <minimizedAffinity>  (1) 
-5.74186897

>  <minimizedRMSD>  (1) 
1.07715416

$$$$
