
     RDKit          3D

 23 24  0  0  0  0  0  0  0  0999 V2000
   37.7690   30.3610   50.1190 C   0  0  0  0  0  0  0  0  0  0  0  0
   37.2450   30.7240   48.8660 C   0  0  0  0  0  0  0  0  0  0  0  0
   35.9030   30.4840   48.5960 C   0  0  0  0  0  0  0  0  0  0  0  0
   35.1520   29.9020   49.5690 N   0  0  0  0  0  0  0  0  0  0  0  0
   35.6830   29.5610   50.7730 C   0  0  0  0  0  0  0  0  0  0  0  0
   36.9760   29.7910   51.0350 N   0  0  0  0  0  0  0  0  0  0  0  0
   34.8260   28.9530   51.7430 N   0  0  0  0  0  0  0  0  0  0  0  0
   38.2840   33.5560   49.2690 Cl  0  0  0  0  0  0  0  0  0  0  0  0
   38.7360   32.5930   47.8990 C   0  0  0  0  0  0  0  0  0  0  0  0
   38.1690   31.3500   47.8920 C   0  0  0  0  0  0  0  0  0  0  0  0
   38.4690   30.4850   46.8240 C   0  0  0  0  0  0  0  0  0  0  0  0
   39.2990   30.8590   45.8130 C   0  0  0  0  0  0  0  0  0  0  0  0
   39.8600   32.1130   45.8390 C   0  0  0  0  0  0  0  0  0  0  0  0
   40.9290   32.6270   44.5670 Cl  0  0  0  0  0  0  0  0  0  0  0  0
   39.5710   32.9520   46.8710 C   0  0  0  0  0  0  0  0  0  0  0  0
   35.4030   30.8400   47.3750 O   0  0  0  0  0  0  0  0  0  0  0  0
   38.8293   30.5450   50.3466 H   0  0  0  0  0  0  0  0  0  0  0  0
   35.2002   28.6838   52.6641 H   0  0  0  0  0  0  0  0  0  0  0  0
   33.8346   28.7843   51.5206 H   0  0  0  0  0  0  0  0  0  0  0  0
   38.0210   29.4805   46.8058 H   0  0  0  0  0  0  0  0  0  0  0  0
   39.5179   30.1671   44.9863 H   0  0  0  0  0  0  0  0  0  0  0  0
   40.0234   33.9546   46.8814 H   0  0  0  0  0  0  0  0  0  0  0  0
   34.4496   30.6771   47.1639 H   0  0  0  0  0  0  0  0  0  0  0  0
  1  6  2  0
  2  1  1  0
  3  2  2  0
  3  4  1  0
  4  5  2  0
  5  6  1  0
  5  7  1  0
  9  8  1  0
 10  9  2  0
 10  2  1  0
 11 10  1  0
 12 13  1  0
 12 11  2  0
 13 15  2  0
 14 13  1  0
 15  9  1  0
 16  3  1  0
  1 17  1  0
  7 18  1  0
  7 19  1  0
 11 20  1  0
 12 21  1  0
 15 22  1  0
 16 23  1  0
M  ISO  5  17  14  20  14  21  14  22  14  23   3
M  END
>  <minimizedAffinity>  (1) 
-5.65612125

>  <minimizedRMSD>  (1) 
0.286031902

$$$$
