
     RDKit          3D

 24 25  0  0  0  0  0  0  0  0999 V2000
   37.8560   30.4120   50.1050 C   0  0  0  0  0  0  0  0  0  0  0  0
   37.3340   30.7160   48.8520 C   0  0  0  0  0  0  0  0  0  0  0  0
   35.9900   30.4170   48.5790 C   0  0  0  0  0  0  0  0  0  0  0  0
   35.2580   29.8380   49.5670 N   0  0  0  0  0  0  0  0  0  0  0  0
   35.7980   29.5520   50.7820 C   0  0  0  0  0  0  0  0  0  0  0  0
   37.0800   29.8390   51.0380 N   0  0  0  0  0  0  0  0  0  0  0  0
   34.9580   28.9470   51.7580 N   0  0  0  0  0  0  0  0  0  0  0  0
   38.3320   33.5690   49.2220 Cl  0  0  0  0  0  0  0  0  0  0  0  0
   38.7780   32.5960   47.8460 C   0  0  0  0  0  0  0  0  0  0  0  0
   38.2270   31.3430   47.8630 C   0  0  0  0  0  0  0  0  0  0  0  0
   38.5280   30.4820   46.7930 C   0  0  0  0  0  0  0  0  0  0  0  0
   39.3360   30.8580   45.7650 C   0  0  0  0  0  0  0  0  0  0  0  0
   39.8760   32.1340   45.7790 C   0  0  0  0  0  0  0  0  0  0  0  0
   40.9150   32.6540   44.4830 Cl  0  0  0  0  0  0  0  0  0  0  0  0
   39.5900   32.9660   46.8060 C   0  0  0  0  0  0  0  0  0  0  0  0
   35.4700   30.7320   47.2980 N   0  0  0  0  0  0  0  0  0  0  0  0
   38.9076   30.6419   50.3317 H   0  0  0  0  0  0  0  0  0  0  0  0
   35.3335   28.7166   52.6890 H   0  0  0  0  0  0  0  0  0  0  0  0
   33.9744   28.7395   51.5335 H   0  0  0  0  0  0  0  0  0  0  0  0
   38.0957   29.4705   46.7868 H   0  0  0  0  0  0  0  0  0  0  0  0
   39.5559   30.1639   44.9404 H   0  0  0  0  0  0  0  0  0  0  0  0
   40.0249   33.9764   46.8066 H   0  0  0  0  0  0  0  0  0  0  0  0
   34.4866   30.5216   47.0754 H   0  0  0  0  0  0  0  0  0  0  0  0
   36.0757   31.1712   46.5901 H   0  0  0  0  0  0  0  0  0  0  0  0
  1  6  2  0
  2  1  1  0
  3  2  2  0
  3  4  1  0
  4  5  2  0
  5  6  1  0
  5  7  1  0
  9 10  2  0
  9  8  1  0
 10  2  1  0
 11 10  1  0
 12 13  1  0
 12 11  2  0
 13 15  2  0
 14 13  1  0
 15  9  1  0
 16  3  1  0
  1 17  1  0
  7 18  1  0
  7 19  1  0
 11 20  1  0
 12 21  1  0
 15 22  1  0
 16 23  1  0
 16 24  1  0
M  ISO  4  17  14  20  14  21  14  22  14
M  END
>  <minimizedAffinity>  (1) 
-5.64955187

>  <minimizedRMSD>  (1) 
0.377316415

$$$$
