
     RDKit          3D

 34 36  0  0  0  0  0  0  0  0999 V2000
   37.7880   30.4680   50.1970 C   0  0  0  0  0  0  0  0  0  0  0  0
   37.3070   30.6340   48.9020 C   0  0  0  0  0  0  0  0  0  0  0  0
   36.0220   30.1830   48.6190 C   0  0  0  0  0  0  0  0  0  0  0  0
   35.2850   29.6070   49.5900 N   0  0  0  0  0  0  0  0  0  0  0  0
   35.8020   29.4640   50.8570 C   0  0  0  0  0  0  0  0  0  0  0  0
   37.0540   29.8970   51.1500 N   0  0  0  0  0  0  0  0  0  0  0  0
   34.9880   28.8490   51.8490 N   0  0  0  0  0  0  0  0  0  0  0  0
   38.0010   33.5860   49.0950 Cl  0  0  0  0  0  0  0  0  0  0  0  0
   38.6050   32.5760   47.8210 C   0  0  0  0  0  0  0  0  0  0  0  0
   38.1810   31.2730   47.9060 C   0  0  0  0  0  0  0  0  0  0  0  0
   38.6210   30.3760   46.9120 C   0  0  0  0  0  0  0  0  0  0  0  0
   39.4340   30.7610   45.9000 C   0  0  0  0  0  0  0  0  0  0  0  0
   39.8470   32.0830   45.8410 C   0  0  0  0  0  0  0  0  0  0  0  0
   40.8950   32.6160   44.5530 Cl  0  0  0  0  0  0  0  0  0  0  0  0
   39.4300   32.9580   46.7910 C   0  0  0  0  0  0  0  0  0  0  0  0
   35.5220   30.3510   47.2890 N   0  0  0  0  0  0  0  0  0  0  0  0
   36.1290   30.5050   45.9790 C   0  0  0  0  0  0  0  0  0  0  0  0
   35.1260   29.7400   45.1090 C   0  0  0  0  0  0  0  0  0  0  0  0
   33.8100   30.1760   45.7160 C   0  0  0  0  0  0  0  0  0  0  0  0
   34.0760   30.3780   47.1910 C   0  0  0  0  0  0  0  0  0  0  0  0
   38.8021   30.8180   50.4401 H   0  0  0  0  0  0  0  0  0  0  0  0
   35.3467   28.7276   52.8069 H   0  0  0  0  0  0  0  0  0  0  0  0
   34.0401   28.5252   51.6092 H   0  0  0  0  0  0  0  0  0  0  0  0
   38.2927   29.3272   46.9600 H   0  0  0  0  0  0  0  0  0  0  0  0
   39.7609   30.0378   45.1384 H   0  0  0  0  0  0  0  0  0  0  0  0
   39.7627   34.0050   46.7345 H   0  0  0  0  0  0  0  0  0  0  0  0
   36.1960   31.5629   45.6853 H   0  0  0  0  0  0  0  0  0  0  0  0
   37.1644   30.1402   45.9100 H   0  0  0  0  0  0  0  0  0  0  0  0
   35.2674   28.6524   45.1938 H   0  0  0  0  0  0  0  0  0  0  0  0
   35.2150   29.9473   44.0324 H   0  0  0  0  0  0  0  0  0  0  0  0
   33.4705   31.1162   45.2569 H   0  0  0  0  0  0  0  0  0  0  0  0
   33.0219   29.4271   45.5483 H   0  0  0  0  0  0  0  0  0  0  0  0
   33.6782   31.3452   47.5320 H   0  0  0  0  0  0  0  0  0  0  0  0
   33.5930   29.6146   47.8186 H   0  0  0  0  0  0  0  0  0  0  0  0
  1  6  2  0
  2  1  1  0
  3  2  2  0
  3  4  1  0
  4  5  2  0
  5  6  1  0
  5  7  1  0
  9 10  2  0
  9  8  1  0
 10  2  1  0
 11 10  1  0
 12 11  2  0
 13 12  1  0
 13 15  2  0
 14 13  1  0
 15  9  1  0
 16  3  1  0
 17 16  1  0
 18 19  1  0
 18 17  1  0
 19 20  1  0
 20 16  1  0
  1 21  1  0
  7 22  1  0
  7 23  1  0
 11 24  1  0
 12 25  1  0
 15 26  1  0
 17 27  1  0
 17 28  1  0
 18 29  1  0
 18 30  1  0
 19 31  1  0
 19 32  1  0
 20 33  1  0
 20 34  1  0
M  ISO  8  21  14  24  14  25  14  26  14  27  13  28  13  29  13  30  13
M  ISO  4  31  13  32  13  33  13  34  13
M  END
>  <minimizedAffinity>  (1) 
-5.47963333

>  <minimizedRMSD>  (1) 
0.852287948

$$$$
