
     RDKit          3D

 49 53  0  0  1  0  0  0  0  0999 V2000
   40.3720   30.9750   43.7440 C   0  0  0  0  0  0  0  0  0  0  0  0
   39.5480   28.7010   43.2250 C   0  0  0  0  0  0  0  0  0  0  0  0
   40.3090   29.7840   42.8340 C   0  0  0  0  0  0  0  0  0  0  0  0
   40.9870   29.7510   41.6210 C   0  0  0  0  0  0  0  0  0  0  0  0
   40.9080   28.6360   40.8000 C   0  0  0  0  0  0  0  0  0  0  0  0
   41.4770   28.3670   39.6200 N   0  0  0  0  0  0  0  0  0  0  0  0
   41.0890   27.1380   39.2690 C   0  0  0  0  0  0  0  0  0  0  0  0
   40.2680   26.5900   40.2060 C   0  0  0  0  0  0  0  0  0  0  0  0
   40.1460   27.5550   41.1960 C   0  0  0  0  0  0  0  0  0  0  0  0
   39.4670   27.5840   42.3980 C   0  0  0  0  0  0  0  0  0  0  0  0
   38.6600   26.4910   42.9110 C   0  0  0  0  0  0  0  0  0  0  0  0
   39.0270   25.3380   43.5470 C   0  0  0  0  0  0  0  0  0  0  0  0
   38.1950   24.3300   43.9520 C   0  0  0  0  0  0  0  0  0  0  0  0
   36.8470   24.4400   43.7170 C   0  0  0  0  0  0  0  0  0  0  0  0
   36.4700   25.5880   43.0790 C   0  0  0  0  0  0  0  0  0  0  0  0
   37.3350   26.5280   42.7150 N   0  0  0  0  0  0  0  0  0  0  0  0
   39.6060   30.6190   45.0110 C   0  0  0  0  0  0  0  0  0  0  0  0
   38.7870   32.1500   46.8450 C   0  0  1  0  0  0  0  0  0  0  0  0
   39.8670   32.9520   46.1470 C   0  0  0  0  0  0  0  0  0  0  0  0
   39.9320   31.4800   46.1770 C   0  0  2  0  0  0  0  0  0  0  0  0
   38.7210   32.3250   48.3230 C   0  0  0  0  0  0  0  0  0  0  0  0
   37.4410   30.0320   50.9860 C   0  0  0  0  0  0  0  0  0  0  0  0
   38.1640   31.0710   50.3310 C   0  0  0  0  0  0  0  0  0  0  0  0
   37.9680   31.2490   48.9830 C   0  0  0  0  0  0  0  0  0  0  0  0
   37.1120   30.4400   48.3630 N   0  0  0  0  0  0  0  0  0  0  0  0
   36.4310   29.4630   48.9730 C   0  0  0  0  0  0  0  0  0  0  0  0
   36.6120   29.2750   50.2910 N   0  0  0  0  0  0  0  0  0  0  0  0
   39.9092   31.8458   43.2566 H   0  0  0  0  0  0  0  0  0  0  0  0
   41.4158   31.2301   43.9792 H   0  0  0  0  0  0  0  0  0  0  0  0
   39.0090   28.7203   44.1837 H   0  0  0  0  0  0  0  0  0  0  0  0
   41.5910   30.6161   41.3098 H   0  0  0  0  0  0  0  0  0  0  0  0
   42.0973   28.9899   39.0832 H   0  0  0  0  0  0  0  0  0  0  0  0
   41.3942   26.6330   38.3407 H   0  0  0  0  0  0  0  0  0  0  0  0
   39.8007   25.5944   40.1835 H   0  0  0  0  0  0  0  0  0  0  0  0
   40.0994   25.2073   43.7541 H   0  0  0  0  0  0  0  0  0  0  0  0
   38.6012   23.4426   44.4595 H   0  0  0  0  0  0  0  0  0  0  0  0
   36.1270   23.6650   44.0186 H   0  0  0  0  0  0  0  0  0  0  0  0
   35.4034   25.7404   42.8571 H   0  0  0  0  0  0  0  0  0  0  0  0
   38.5300   30.7124   44.8023 H   0  0  0  0  0  0  0  0  0  0  0  0
   39.8979   29.5935   45.2815 H   0  0  0  0  0  0  0  0  0  0  0  0
   37.6987   32.0021   46.7832 H   0  0  0  0  0  0  0  0  0  0  0  0
   40.5796   33.5473   46.7368 H   0  0  0  0  0  0  0  0  0  0  0  0
   39.8831   33.7179   45.3576 H   0  0  0  0  0  0  0  0  0  0  0  0
   40.7460   30.7951   46.4567 H   0  0  0  0  0  0  0  0  0  0  0  0
   39.7455   32.3357   48.7233 H   0  0  0  0  0  0  0  0  0  0  0  0
   38.1986   33.2717   48.5250 H   0  0  0  0  0  0  0  0  0  0  0  0
   37.5729   29.8617   52.0647 H   0  0  0  0  0  0  0  0  0  0  0  0
   38.8604   31.7133   50.8900 H   0  0  0  0  0  0  0  0  0  0  0  0
   35.7362   28.8258   48.4062 H   0  0  0  0  0  0  0  0  0  0  0  0
  1 17  1  0
  3  2  2  0
  3  1  1  0
  4  3  1  0
  5  9  1  0
  5  4  2  0
  6  5  1  0
  7  6  1  0
  7  8  2  0
  8  9  1  0
  9 10  2  0
 10 11  1  0
 10  2  1  0
 11 12  2  0
 12 13  1  0
 14 13  2  0
 15 14  1  0
 16 11  1  0
 16 15  2  0
 17 20  1  0
 18 21  1  0
 19 20  1  0
 19 18  1  0
 20 18  1  0
 21 24  1  0
 23 22  2  0
 24 23  1  0
 25 26  1  0
 25 24  2  0
 26 27  2  0
 27 22  1  0
  1 28  1  0
  1 29  1  0
  2 30  1  0
  4 31  1  0
  6 32  1  0
  7 33  1  0
  8 34  1  0
 12 35  1  0
 13 36  1  0
 14 37  1  0
 15 38  1  0
 17 39  1  0
 17 40  1  0
 18 41  1  6
 19 42  1  0
 19 43  1  0
 20 44  1  1
 21 45  1  0
 21 46  1  0
 22 47  1  0
 23 48  1  0
 26 49  1  0
M  ISO  8  28   8  29   8  30  14  31  14  32   9  33  14  34  14  35  14
M  ISO  8  36  14  37  14  38  14  39   8  40   8  41  13  42  13  43  13
M  ISO  6  44  13  45   8  46   8  47  14  48  14  49  14
M  END
>  <minimizedAffinity>  (1) 
-6.2308712

>  <minimizedRMSD>  (1) 
0.371435344

$$$$
