
     RDKit          3D

 31 32  0  0  0  0  0  0  0  0999 V2000
   37.8340   30.5430   50.2010 C   0  0  0  0  0  0  0  0  0  0  0  0
   37.3510   30.7190   48.9230 C   0  0  0  0  0  0  0  0  0  0  0  0
   36.0400   30.3000   48.5910 C   0  0  0  0  0  0  0  0  0  0  0  0
   35.3060   29.7280   49.5800 N   0  0  0  0  0  0  0  0  0  0  0  0
   35.8290   29.5710   50.8460 C   0  0  0  0  0  0  0  0  0  0  0  0
   37.0890   29.9790   51.1490 N   0  0  0  0  0  0  0  0  0  0  0  0
   34.9740   28.9480   51.8230 N   0  0  0  0  0  0  0  0  0  0  0  0
   38.3250   33.5750   49.2520 Cl  0  0  0  0  0  0  0  0  0  0  0  0
   38.7710   32.6070   47.8890 C   0  0  0  0  0  0  0  0  0  0  0  0
   38.2440   31.3520   47.9200 C   0  0  0  0  0  0  0  0  0  0  0  0
   38.5560   30.4700   46.8520 C   0  0  0  0  0  0  0  0  0  0  0  0
   39.3530   30.8540   45.8250 C   0  0  0  0  0  0  0  0  0  0  0  0
   39.8720   32.1470   45.8290 C   0  0  0  0  0  0  0  0  0  0  0  0
   40.8940   32.6790   44.5210 Cl  0  0  0  0  0  0  0  0  0  0  0  0
   39.5740   33.0060   46.8620 C   0  0  0  0  0  0  0  0  0  0  0  0
   35.5320   30.4980   47.2460 C   0  0  0  0  0  0  0  0  0  0  0  0
   34.7960   29.4090   46.7430 O   0  0  0  0  0  0  0  0  0  0  0  0
   32.7080   28.9990   45.2300 O   0  0  0  0  0  0  0  0  0  0  0  0
   33.6420   30.1180   45.6990 P   0  0  0  0  0  0  0  0  0  0  0  0
   32.7210   31.1970   46.6030 O   0  0  0  0  0  0  0  0  0  0  0  0
   34.4260   30.8280   44.4070 O   0  0  0  0  0  0  0  0  0  0  0  0
   38.8545   30.8748   50.4427 H   0  0  0  0  0  0  0  0  0  0  0  0
   35.3112   28.8045   52.7856 H   0  0  0  0  0  0  0  0  0  0  0  0
   34.0253   28.6459   51.5592 H   0  0  0  0  0  0  0  0  0  0  0  0
   38.1412   29.4512   46.8581 H   0  0  0  0  0  0  0  0  0  0  0  0
   39.5854   30.1587   45.0049 H   0  0  0  0  0  0  0  0  0  0  0  0
   39.9880   34.0251   46.8591 H   0  0  0  0  0  0  0  0  0  0  0  0
   34.8793   31.3834   47.2503 H   0  0  0  0  0  0  0  0  0  0  0  0
   36.4076   30.6183   46.5911 H   0  0  0  0  0  0  0  0  0  0  0  0
   32.8660   31.0272   47.5675 H   0  0  0  0  0  0  0  0  0  0  0  0
   35.1163   31.4531   44.7429 H   0  0  0  0  0  0  0  0  0  0  0  0
  1  6  2  0
  2  1  1  0
  3  2  2  0
  3  4  1  0
  4  5  2  0
  5  6  1  0
  5  7  1  0
  9 10  2  0
  9  8  1  0
 10  2  1  0
 11 10  1  0
 12 13  1  0
 12 11  2  0
 13 15  2  0
 14 13  1  0
 15  9  1  0
 16  3  1  0
 17 16  1  0
 18 19  2  0
 19 20  1  0
 19 17  1  0
 21 19  1  0
  1 22  1  0
  7 23  1  0
  7 24  1  0
 11 25  1  0
 12 26  1  0
 15 27  1  0
 16 28  1  0
 16 29  1  0
 20 30  1  0
 21 31  1  0
M  ISO  8  22  14  25  14  26  14  27  14  28   8  29   8  30   3  31   3
M  END
>  <minimizedAffinity>  (1) 
-5.78116655

>  <minimizedRMSD>  (1) 
1.72369897

$$$$
