
     RDKit          3D

 32 34  0  0  0  0  0  0  0  0999 V2000
   37.7980   30.5120   50.1880 C   0  0  0  0  0  0  0  0  0  0  0  0
   37.3340   30.7130   48.9060 C   0  0  0  0  0  0  0  0  0  0  0  0
   36.0200   30.3140   48.5630 C   0  0  0  0  0  0  0  0  0  0  0  0
   35.2680   29.7370   49.5410 N   0  0  0  0  0  0  0  0  0  0  0  0
   35.7680   29.5540   50.8010 C   0  0  0  0  0  0  0  0  0  0  0  0
   37.0290   29.9420   51.1210 N   0  0  0  0  0  0  0  0  0  0  0  0
   34.9370   28.9400   51.7800 N   0  0  0  0  0  0  0  0  0  0  0  0
   38.3080   33.5680   49.2730 Cl  0  0  0  0  0  0  0  0  0  0  0  0
   38.7790   32.6050   47.9130 C   0  0  0  0  0  0  0  0  0  0  0  0
   38.2490   31.3490   47.9220 C   0  0  0  0  0  0  0  0  0  0  0  0
   38.5710   30.4800   46.8620 C   0  0  0  0  0  0  0  0  0  0  0  0
   39.3840   30.8620   45.8470 C   0  0  0  0  0  0  0  0  0  0  0  0
   39.9110   32.1540   45.8630 C   0  0  0  0  0  0  0  0  0  0  0  0
   40.9660   32.6900   44.5820 Cl  0  0  0  0  0  0  0  0  0  0  0  0
   39.6000   33.0030   46.8960 C   0  0  0  0  0  0  0  0  0  0  0  0
   35.5410   30.5340   47.2080 C   0  0  0  0  0  0  0  0  0  0  0  0
   34.3160   29.7400   46.8920 C   0  0  0  0  0  0  0  0  0  0  0  0
   33.0760   30.2750   46.5690 C   0  0  0  0  0  0  0  0  0  0  0  0
   32.2780   29.1420   46.3660 C   0  0  0  0  0  0  0  0  0  0  0  0
   33.0600   28.0110   46.5740 C   0  0  0  0  0  0  0  0  0  0  0  0
   34.2580   28.4070   46.8830 O   0  0  0  0  0  0  0  0  0  0  0  0
   38.8195   30.8263   50.4482 H   0  0  0  0  0  0  0  0  0  0  0  0
   35.2908   28.7913   52.7358 H   0  0  0  0  0  0  0  0  0  0  0  0
   33.9819   28.6444   51.5326 H   0  0  0  0  0  0  0  0  0  0  0  0
   38.1513   29.4632   46.8575 H   0  0  0  0  0  0  0  0  0  0  0  0
   39.6234   30.1681   45.0278 H   0  0  0  0  0  0  0  0  0  0  0  0
   40.0186   34.0202   46.9051 H   0  0  0  0  0  0  0  0  0  0  0  0
   35.3087   31.6023   47.0863 H   0  0  0  0  0  0  0  0  0  0  0  0
   36.3342   30.2083   46.5190 H   0  0  0  0  0  0  0  0  0  0  0  0
   32.7893   31.3341   46.4912 H   0  0  0  0  0  0  0  0  0  0  0  0
   31.2134   29.1461   46.0891 H   0  0  0  0  0  0  0  0  0  0  0  0
   32.7239   26.9669   46.4915 H   0  0  0  0  0  0  0  0  0  0  0  0
  1  6  2  0
  2  1  1  0
  3  2  2  0
  3  4  1  0
  4  5  2  0
  5  6  1  0
  5  7  1  0
  9 10  2  0
  9  8  1  0
 10  2  1  0
 11 10  1  0
 12 13  1  0
 12 11  2  0
 13 15  2  0
 14 13  1  0
 15  9  1  0
 16  3  1  0
 17 16  1  0
 18 17  2  0
 19 18  1  0
 19 20  2  0
 20 21  1  0
 21 17  1  0
  1 22  1  0
  7 23  1  0
  7 24  1  0
 11 25  1  0
 12 26  1  0
 15 27  1  0
 16 28  1  0
 16 29  1  0
 18 30  1  0
 19 31  1  0
 20 32  1  0
M  ISO  8  22  14  25  14  26  14  27  14  28   8  29   8  30  14  31  14
M  ISO  1  32  14
M  END
>  <minimizedAffinity>  (1) 
-5.72751808

>  <minimizedRMSD>  (1) 
0.657643616

$$$$
