
     RDKit          3D

 56 60  0  0  1  0  0  0  0  0999 V2000
   40.3810   30.9860   43.8700 C   0  0  0  0  0  0  0  0  0  0  0  0
   39.4040   28.7570   43.4020 C   0  0  0  0  0  0  0  0  0  0  0  0
   40.2500   29.7740   42.9990 C   0  0  0  0  0  0  0  0  0  0  0  0
   40.9430   29.6390   41.8070 C   0  0  0  0  0  0  0  0  0  0  0  0
   40.7930   28.5040   41.0270 C   0  0  0  0  0  0  0  0  0  0  0  0
   41.3720   28.1790   39.8540 N   0  0  0  0  0  0  0  0  0  0  0  0
   40.8940   26.9730   39.5300 C   0  0  0  0  0  0  0  0  0  0  0  0
   40.0180   26.5070   40.4630 C   0  0  0  0  0  0  0  0  0  0  0  0
   39.9510   27.4960   41.4320 C   0  0  0  0  0  0  0  0  0  0  0  0
   39.2610   27.6260   42.6150 C   0  0  0  0  0  0  0  0  0  0  0  0
   38.3230   26.5190   43.0180 C   0  0  0  0  0  0  0  0  0  0  0  0
   39.0100   25.2790   43.4730 C   0  0  0  0  0  0  0  0  0  0  0  0
   38.0290   24.1200   43.2470 C   0  0  0  0  0  0  0  0  0  0  0  0
   36.6820   24.5960   43.7480 C   0  0  0  0  0  0  0  0  0  0  0  0
   36.0720   25.6430   42.8590 C   0  0  0  0  0  0  0  0  0  0  0  0
   37.1820   26.3240   42.0640 C   0  0  0  0  0  0  0  0  0  0  0  0
   39.5590   30.7360   45.1210 C   0  0  0  0  0  0  0  0  0  0  0  0
   38.8370   32.3990   46.8740 C   0  0  1  0  0  0  0  0  0  0  0  0
   39.9730   33.0890   46.1520 C   0  0  0  0  0  0  0  0  0  0  0  0
   39.9230   31.6180   46.2570 C   0  0  2  0  0  0  0  0  0  0  0  0
   38.7740   32.6450   48.3450 C   0  0  0  0  0  0  0  0  0  0  0  0
   37.4600   30.2640   50.9230 C   0  0  0  0  0  0  0  0  0  0  0  0
   38.2970   31.1960   50.2410 C   0  0  0  0  0  0  0  0  0  0  0  0
   37.8850   31.6790   49.0270 C   0  0  0  0  0  0  0  0  0  0  0  0
   36.7200   31.2520   48.5470 N   0  0  0  0  0  0  0  0  0  0  0  0
   35.9310   30.3800   49.1800 C   0  0  0  0  0  0  0  0  0  0  0  0
   36.3130   29.8960   50.3630 N   0  0  0  0  0  0  0  0  0  0  0  0
   40.0007   31.8722   43.3409 H   0  0  0  0  0  0  0  0  0  0  0  0
   41.4349   31.1676   44.1273 H   0  0  0  0  0  0  0  0  0  0  0  0
   38.8457   28.8460   44.3456 H   0  0  0  0  0  0  0  0  0  0  0  0
   41.6192   30.4412   41.4765 H   0  0  0  0  0  0  0  0  0  0  0  0
   42.0451   28.7442   39.3170 H   0  0  0  0  0  0  0  0  0  0  0  0
   41.1745   26.4233   38.6194 H   0  0  0  0  0  0  0  0  0  0  0  0
   39.4780   25.5487   40.4503 H   0  0  0  0  0  0  0  0  0  0  0  0
   37.8265   26.8684   43.9353 H   0  0  0  0  0  0  0  0  0  0  0  0
   39.9275   25.1180   42.8880 H   0  0  0  0  0  0  0  0  0  0  0  0
   39.2966   25.3526   44.5325 H   0  0  0  0  0  0  0  0  0  0  0  0
   37.9713   23.8737   42.1765 H   0  0  0  0  0  0  0  0  0  0  0  0
   38.3541   23.2132   43.7780 H   0  0  0  0  0  0  0  0  0  0  0  0
   35.9998   23.7345   43.7971 H   0  0  0  0  0  0  0  0  0  0  0  0
   36.8359   25.0485   44.7387 H   0  0  0  0  0  0  0  0  0  0  0  0
   35.3590   25.1704   42.1674 H   0  0  0  0  0  0  0  0  0  0  0  0
   35.5407   26.3874   43.4702 H   0  0  0  0  0  0  0  0  0  0  0  0
   37.4934   25.6877   41.2225 H   0  0  0  0  0  0  0  0  0  0  0  0
   36.8432   27.2826   41.6440 H   0  0  0  0  0  0  0  0  0  0  0  0
   38.4986   30.9004   44.8790 H   0  0  0  0  0  0  0  0  0  0  0  0
   39.7604   29.7021   45.4380 H   0  0  0  0  0  0  0  0  0  0  0  0
   37.7412   32.3302   46.8064 H   0  0  0  0  0  0  0  0  0  0  0  0
   40.7238   33.6583   46.7197 H   0  0  0  0  0  0  0  0  0  0  0  0
   40.0523   33.8132   45.3279 H   0  0  0  0  0  0  0  0  0  0  0  0
   40.6714   30.8824   46.5868 H   0  0  0  0  0  0  0  0  0  0  0  0
   39.7867   32.5543   48.7647 H   0  0  0  0  0  0  0  0  0  0  0  0
   38.3680   33.6547   48.5053 H   0  0  0  0  0  0  0  0  0  0  0  0
   37.7601   29.8556   51.8993 H   0  0  0  0  0  0  0  0  0  0  0  0
   39.2522   31.5198   50.6801 H   0  0  0  0  0  0  0  0  0  0  0  0
   34.9775   30.0646   48.7313 H   0  0  0  0  0  0  0  0  0  0  0  0
  1 17  1  0
  3  2  2  0
  3  1  1  0
  4  3  1  0
  5  9  1  0
  5  4  2  0
  6  5  1  0
  7  6  1  0
  7  8  2  0
  8  9  1  0
  9 10  2  0
 10 11  1  0
 10  2  1  0
 11 12  1  0
 13 12  1  0
 13 14  1  0
 15 14  1  0
 16 15  1  0
 16 11  1  0
 17 20  1  0
 18 21  1  0
 19 20  1  0
 19 18  1  0
 20 18  1  0
 21 24  1  0
 23 22  2  0
 24 23  1  0
 25 24  2  0
 25 26  1  0
 26 27  2  0
 27 22  1  0
  1 28  1  0
  1 29  1  0
  2 30  1  0
  4 31  1  0
  6 32  1  0
  7 33  1  0
  8 34  1  0
 11 35  1  0
 12 36  1  0
 12 37  1  0
 13 38  1  0
 13 39  1  0
 14 40  1  0
 14 41  1  0
 15 42  1  0
 15 43  1  0
 16 44  1  0
 16 45  1  0
 17 46  1  0
 17 47  1  0
 18 48  1  6
 19 49  1  0
 19 50  1  0
 20 51  1  1
 21 52  1  0
 21 53  1  0
 22 54  1  0
 23 55  1  0
 26 56  1  0
M  ISO  8  28   8  29   8  30  14  31  14  32   9  33  14  34  14  35  13
M  ISO  8  36  13  37  13  38  13  39  13  40  13  41  13  42  13  43  13
M  ISO  8  44  13  45  13  46   8  47   8  48  13  49  13  50  13  51  13
M  ISO  5  52   8  53   8  54  14  55  14  56  14
M  END
>  <minimizedAffinity>  (1) 
-6.14872074

>  <minimizedRMSD>  (1) 
0.653224885

$$$$
