
     RDKit          3D

 27 28  0  0  0  0  0  0  0  0999 V2000
   37.7860   30.4580   50.1600 C   0  0  0  0  0  0  0  0  0  0  0  0
   37.2730   30.6710   48.8800 C   0  0  0  0  0  0  0  0  0  0  0  0
   35.9500   30.2850   48.5970 C   0  0  0  0  0  0  0  0  0  0  0  0
   35.2250   29.7180   49.5870 N   0  0  0  0  0  0  0  0  0  0  0  0
   35.7700   29.5250   50.8380 C   0  0  0  0  0  0  0  0  0  0  0  0
   37.0520   29.8960   51.1220 N   0  0  0  0  0  0  0  0  0  0  0  0
   34.9530   28.9210   51.8460 N   0  0  0  0  0  0  0  0  0  0  0  0
   38.2120   33.5480   49.1800 Cl  0  0  0  0  0  0  0  0  0  0  0  0
   38.6710   32.5460   47.8230 C   0  0  0  0  0  0  0  0  0  0  0  0
   38.1560   31.2970   47.8830 C   0  0  0  0  0  0  0  0  0  0  0  0
   38.4800   30.4010   46.8270 C   0  0  0  0  0  0  0  0  0  0  0  0
   39.2710   30.7710   45.7960 C   0  0  0  0  0  0  0  0  0  0  0  0
   39.7800   32.0650   45.7750 C   0  0  0  0  0  0  0  0  0  0  0  0
   40.8070   32.5890   44.4600 Cl  0  0  0  0  0  0  0  0  0  0  0  0
   39.4760   32.9350   46.7820 C   0  0  0  0  0  0  0  0  0  0  0  0
   35.4130   30.5240   47.2700 C   0  0  0  0  0  0  0  0  0  0  0  0
   33.9410   30.5970   47.3010 N   0  0  0  0  0  0  0  0  0  0  0  0
   38.8202   30.7606   50.3812 H   0  0  0  0  0  0  0  0  0  0  0  0
   35.3324   28.7638   52.7906 H   0  0  0  0  0  0  0  0  0  0  0  0
   33.9856   28.6435   51.6268 H   0  0  0  0  0  0  0  0  0  0  0  0
   38.0754   29.3784   46.8503 H   0  0  0  0  0  0  0  0  0  0  0  0
   39.5078   30.0623   44.9887 H   0  0  0  0  0  0  0  0  0  0  0  0
   39.8802   33.9578   46.7588 H   0  0  0  0  0  0  0  0  0  0  0  0
   35.7185   29.7027   46.6050 H   0  0  0  0  0  0  0  0  0  0  0  0
   35.8038   31.4839   46.9015 H   0  0  0  0  0  0  0  0  0  0  0  0
   33.6186   30.6130   48.2791 H   0  0  0  0  0  0  0  0  0  0  0  0
   33.6296   31.4545   46.8228 H   0  0  0  0  0  0  0  0  0  0  0  0
  1  6  2  0
  2  1  1  0
  3  2  2  0
  3  4  1  0
  4  5  2  0
  5  6  1  0
  5  7  1  0
  9 10  2  0
  9  8  1  0
 10  2  1  0
 11 10  1  0
 12 11  2  0
 13 12  1  0
 13 15  2  0
 14 13  1  0
 15  9  1  0
 16 17  1  0
 16  3  1  0
  1 18  1  0
  7 19  1  0
  7 20  1  0
 11 21  1  0
 12 22  1  0
 15 23  1  0
 16 24  1  0
 16 25  1  0
 17 26  1  0
 17 27  1  0
M  ISO  8  18  14  21  14  22  14  23  14  24   8  25   8  26   5  27   5
M  END
>  <minimizedAffinity>  (1) 
-5.50485134

>  <minimizedRMSD>  (1) 
0.445407748

$$$$
