
     RDKit          3D

 26 27  0  0  0  0  0  0  0  0999 V2000
   37.8430   30.5060   50.1780 C   0  0  0  0  0  0  0  0  0  0  0  0
   37.3510   30.6990   48.9020 C   0  0  0  0  0  0  0  0  0  0  0  0
   36.0320   30.3010   48.5710 C   0  0  0  0  0  0  0  0  0  0  0  0
   35.3080   29.7310   49.5700 N   0  0  0  0  0  0  0  0  0  0  0  0
   35.8250   29.5550   50.8230 C   0  0  0  0  0  0  0  0  0  0  0  0
   37.0800   29.9390   51.1220 N   0  0  0  0  0  0  0  0  0  0  0  0
   34.9680   28.9430   51.7970 N   0  0  0  0  0  0  0  0  0  0  0  0
   38.3120   33.5650   49.2420 Cl  0  0  0  0  0  0  0  0  0  0  0  0
   38.7700   32.5960   47.8760 C   0  0  0  0  0  0  0  0  0  0  0  0
   38.2420   31.3300   47.9020 C   0  0  0  0  0  0  0  0  0  0  0  0
   38.5650   30.4750   46.8370 C   0  0  0  0  0  0  0  0  0  0  0  0
   39.3580   30.8430   45.8110 C   0  0  0  0  0  0  0  0  0  0  0  0
   39.8800   32.1330   45.8110 C   0  0  0  0  0  0  0  0  0  0  0  0
   40.9100   32.6770   44.5190 Cl  0  0  0  0  0  0  0  0  0  0  0  0
   39.5770   32.9840   46.8410 C   0  0  0  0  0  0  0  0  0  0  0  0
   35.5220   30.5140   47.2310 C   0  0  0  0  0  0  0  0  0  0  0  0
   33.9020   29.6570   47.1320 S   0  0  0  0  0  0  0  0  0  0  0  0
   38.8688   30.8201   50.4209 H   0  0  0  0  0  0  0  0  0  0  0  0
   35.3080   28.7871   52.7567 H   0  0  0  0  0  0  0  0  0  0  0  0
   34.0126   28.6595   51.5367 H   0  0  0  0  0  0  0  0  0  0  0  0
   38.1512   29.4558   46.8397 H   0  0  0  0  0  0  0  0  0  0  0  0
   39.5866   30.1418   44.9949 H   0  0  0  0  0  0  0  0  0  0  0  0
   39.9919   34.0027   46.8360 H   0  0  0  0  0  0  0  0  0  0  0  0
   35.3925   31.5900   47.0425 H   0  0  0  0  0  0  0  0  0  0  0  0
   36.2208   30.1215   46.4776 H   0  0  0  0  0  0  0  0  0  0  0  0
   33.4373   29.4112   48.3971 H   0  0  0  0  0  0  0  0  0  0  0  0
  1  6  2  0
  2  1  1  0
  3  2  2  0
  3  4  1  0
  4  5  2  0
  5  6  1  0
  5  7  1  0
  9 10  2  0
  9  8  1  0
 10  2  1  0
 11 10  1  0
 12 11  2  0
 13 12  1  0
 13 15  2  0
 14 13  1  0
 15  9  1  0
 16  3  1  0
 17 16  1  0
  1 18  1  0
  7 19  1  0
  7 20  1  0
 11 21  1  0
 12 22  1  0
 15 23  1  0
 16 24  1  0
 16 25  1  0
 17 26  1  0
M  ISO  7  18  14  21  14  22  14  23  14  24   8  25   8  26  11
M  END
>  <minimizedAffinity>  (1) 
-5.31437826

>  <minimizedRMSD>  (1) 
0.0797461197

$$$$
