
     RDKit          3D

 25 26  0  0  0  0  0  0  0  0999 V2000
   36.8140   29.9620   49.3970 C   0  0  0  0  0  0  0  0  0  0  0  0
   37.9490   30.5360   48.7840 C   0  0  0  0  0  0  0  0  0  0  0  0
   37.8420   30.9240   47.4530 C   0  0  0  0  0  0  0  0  0  0  0  0
   36.6550   30.7280   46.8290 N   0  0  0  0  0  0  0  0  0  0  0  0
   35.5880   30.1780   47.4410 C   0  0  0  0  0  0  0  0  0  0  0  0
   35.6700   29.7940   48.7250 N   0  0  0  0  0  0  0  0  0  0  0  0
   38.9820   31.5020   46.8350 N   0  0  0  0  0  0  0  0  0  0  0  0
   39.8040   30.7750   45.8830 C   0  0  0  0  0  0  0  0  0  0  0  0
   40.7000   31.8460   45.2420 C   0  0  0  0  0  0  0  0  0  0  0  0
   39.8970   33.1160   45.5490 C   0  0  0  0  0  0  0  0  0  0  0  0
   39.5430   32.8330   46.9970 C   0  0  0  0  0  0  0  0  0  0  0  0
   36.9380   29.5450   50.8310 C   0  0  0  0  0  0  0  0  0  0  0  0
   35.6900   29.1890   51.3220 F   0  0  0  0  0  0  0  0  0  0  0  0
   37.8360   28.5000   50.8840 F   0  0  0  0  0  0  0  0  0  0  0  0
   37.3850   30.6280   51.5620 F   0  0  0  0  0  0  0  0  0  0  0  0
   38.8876   30.6719   49.3413 H   0  0  0  0  0  0  0  0  0  0  0  0
   34.6472   30.0432   46.8872 H   0  0  0  0  0  0  0  0  0  0  0  0
   40.4131   30.0165   46.3965 H   0  0  0  0  0  0  0  0  0  0  0  0
   39.1998   30.2376   45.1372 H   0  0  0  0  0  0  0  0  0  0  0  0
   40.8081   31.6877   44.1588 H   0  0  0  0  0  0  0  0  0  0  0  0
   41.7335   31.8592   45.6184 H   0  0  0  0  0  0  0  0  0  0  0  0
   40.5078   34.0249   45.4443 H   0  0  0  0  0  0  0  0  0  0  0  0
   39.0425   33.3064   44.8830 H   0  0  0  0  0  0  0  0  0  0  0  0
   38.8042   33.5476   47.3887 H   0  0  0  0  0  0  0  0  0  0  0  0
   40.3744   32.9132   47.7128 H   0  0  0  0  0  0  0  0  0  0  0  0
  1 12  1  0
  2  1  2  0
  3  2  1  0
  4  5  1  0
  4  3  2  0
  5  6  2  0
  6  1  1  0
  7 11  1  0
  7  3  1  0
  8  7  1  0
  9 10  1  0
  9  8  1  0
 10 11  1  0
 12 14  1  0
 12 13  1  0
 12 15  1  0
  2 16  1  0
  5 17  1  0
  8 18  1  0
  8 19  1  0
  9 20  1  0
  9 21  1  0
 10 22  1  0
 10 23  1  0
 11 24  1  0
 11 25  1  0
M  ISO  8  16  14  17  14  18  13  19  13  20  13  21  13  22  13  23  13
M  ISO  2  24  13  25  13
M  END
>  <minimizedAffinity>  (1) 
-5.84131956

>  <minimizedRMSD>  (1) 
2.22021079

$$$$
