
     RDKit          3D

 20 21  0  0  0  0  0  0  0  0999 V2000
   36.9350   30.0300   49.9770 C   0  0  0  0  0  0  0  0  0  0  0  0
   37.8120   31.0900   49.7380 C   0  0  0  0  0  0  0  0  0  0  0  0
   37.8380   31.6690   48.4740 C   0  0  0  0  0  0  0  0  0  0  0  0
   36.9960   31.1580   47.5370 N   0  0  0  0  0  0  0  0  0  0  0  0
   36.1560   30.1320   47.7910 C   0  0  0  0  0  0  0  0  0  0  0  0
   36.1370   29.5800   49.0100 N   0  0  0  0  0  0  0  0  0  0  0  0
   38.7430   32.7740   48.2080 C   0  0  0  0  0  0  0  0  0  0  0  0
   39.1180   33.7680   49.0840 C   0  0  0  0  0  0  0  0  0  0  0  0
   39.9830   34.5390   48.3050 C   0  0  0  0  0  0  0  0  0  0  0  0
   40.1040   34.0210   47.0470 N   0  0  0  0  0  0  0  0  0  0  0  0
   39.3370   32.9430   47.0140 N   0  0  0  0  0  0  0  0  0  0  0  0
   36.9170   29.4170   51.3410 C   0  0  0  0  0  0  0  0  0  0  0  0
   35.6100   29.0950   51.6980 F   0  0  0  0  0  0  0  0  0  0  0  0
   37.7590   28.3540   51.3460 F   0  0  0  0  0  0  0  0  0  0  0  0
   37.3370   30.3910   52.2480 F   0  0  0  0  0  0  0  0  0  0  0  0
   38.4714   31.4609   50.5365 H   0  0  0  0  0  0  0  0  0  0  0  0
   35.4914   29.7522   47.0010 H   0  0  0  0  0  0  0  0  0  0  0  0
   38.8137   33.9167   50.1306 H   0  0  0  0  0  0  0  0  0  0  0  0
   40.4989   35.4441   48.6579 H   0  0  0  0  0  0  0  0  0  0  0  0
   40.6777   34.3948   46.2776 H   0  0  0  0  0  0  0  0  0  0  0  0
  1 12  1  0
  2  1  2  0
  3  2  1  0
  4  5  1  0
  4  3  2  0
  5  6  2  0
  6  1  1  0
  7  3  1  0
  7  8  1  0
  9  8  2  0
 10  9  1  0
 11 10  1  0
 11  7  2  0
 12 14  1  0
 12 13  1  0
 12 15  1  0
  2 16  1  0
  5 17  1  0
  8 18  1  0
  9 19  1  0
 10 20  1  0
M  ISO  5  16  14  17  14  18  14  19  14  20   9
M  END
>  <minimizedAffinity>  (1) 
-5.64334536

>  <minimizedRMSD>  (1) 
1.01875663

$$$$
