
     RDKit          3D

 28 30  0  0  0  0  0  0  0  0999 V2000
   35.8600   29.3870   49.8960 C   0  0  0  0  0  0  0  0  0  0  0  0
   36.8210   29.9310   49.0430 C   0  0  0  0  0  0  0  0  0  0  0  0
   36.4780   30.1990   47.7240 C   0  0  0  0  0  0  0  0  0  0  0  0
   35.1910   29.9030   47.3400 N   0  0  0  0  0  0  0  0  0  0  0  0
   34.2970   29.3810   48.1890 C   0  0  0  0  0  0  0  0  0  0  0  0
   34.6250   29.1230   49.4590 N   0  0  0  0  0  0  0  0  0  0  0  0
   37.4350   30.7580   46.8120 C   0  0  0  0  0  0  0  0  0  0  0  0
   37.9930   31.9950   46.8890 C   0  0  0  0  0  0  0  0  0  0  0  0
   38.9190   32.4760   45.9660 C   0  0  0  0  0  0  0  0  0  0  0  0
   39.2930   31.6630   44.9210 C   0  0  0  0  0  0  0  0  0  0  0  0
   40.1900   32.0830   43.9970 N   0  0  0  0  0  0  0  0  0  0  0  0
   40.5380   31.2530   42.9730 C   0  0  0  0  0  0  0  0  0  0  0  0
   40.0120   29.9750   42.8260 C   0  0  0  0  0  0  0  0  0  0  0  0
   39.0940   29.5310   43.7620 C   0  0  0  0  0  0  0  0  0  0  0  0
   38.7600   30.3910   44.7860 C   0  0  0  0  0  0  0  0  0  0  0  0
   37.8470   29.9700   45.7310 C   0  0  0  0  0  0  0  0  0  0  0  0
   36.2460   29.1060   51.3130 C   0  0  0  0  0  0  0  0  0  0  0  0
   35.1860   29.4300   52.1590 F   0  0  0  0  0  0  0  0  0  0  0  0
   36.6600   27.8160   51.3920 F   0  0  0  0  0  0  0  0  0  0  0  0
   37.2740   29.9970   51.6480 F   0  0  0  0  0  0  0  0  0  0  0  0
   37.8358   30.1446   49.4099 H   0  0  0  0  0  0  0  0  0  0  0  0
   33.2784   29.1614   47.8366 H   0  0  0  0  0  0  0  0  0  0  0  0
   37.6984   32.6496   47.7225 H   0  0  0  0  0  0  0  0  0  0  0  0
   39.3427   33.4857   46.0706 H   0  0  0  0  0  0  0  0  0  0  0  0
   41.2669   31.6104   42.2307 H   0  0  0  0  0  0  0  0  0  0  0  0
   40.3175   29.3326   41.9870 H   0  0  0  0  0  0  0  0  0  0  0  0
   38.6473   28.5283   43.6912 H   0  0  0  0  0  0  0  0  0  0  0  0
   37.4201   28.9613   45.6294 H   0  0  0  0  0  0  0  0  0  0  0  0
  1 17  1  0
  2  1  2  0
  3  2  1  0
  4  3  2  0
  4  5  1  0
  5  6  2  0
  6  1  1  0
  7  8  2  0
  7  3  1  0
  9  8  1  0
 10  9  2  0
 11 10  1  0
 12 11  2  0
 13 12  1  0
 13 14  2  0
 14 15  1  0
 15 10  1  0
 15 16  2  0
 16  7  1  0
 17 19  1  0
 17 20  1  0
 17 18  1  0
  2 21  1  0
  5 22  1  0
  8 23  1  0
  9 24  1  0
 12 25  1  0
 13 26  1  0
 14 27  1  0
 16 28  1  0
M  ISO  8  21  14  22  14  23  14  24  14  25  14  26  14  27  14  28  14
M  END
>  <minimizedAffinity>  (1) 
-4.12569094

>  <minimizedRMSD>  (1) 
4.40221786

$$$$
