
     RDKit          3D

 30 32  0  0  0  0  0  0  0  0999 V2000
   36.6455   29.8362   49.7140 C   0  0  0  0  0  0  0  0  0  0  0  0
   37.6951   30.3527   48.9642 C   0  0  0  0  0  0  0  0  0  0  0  0
   37.5222   30.7163   47.6402 C   0  0  0  0  0  0  0  0  0  0  0  0
   36.2681   30.5339   47.1334 N   0  0  0  0  0  0  0  0  0  0  0  0
   35.2646   30.0347   47.8674 C   0  0  0  0  0  0  0  0  0  0  0  0
   35.4642   29.6924   49.1463 N   0  0  0  0  0  0  0  0  0  0  0  0
   38.4903   33.4156   48.5833 Cl  0  0  0  0  0  0  0  0  0  0  0  0
   39.1183   32.5003   47.2073 C   0  0  0  0  0  0  0  0  0  0  0  0
   38.6050   31.2554   46.8465 C   0  0  0  0  0  0  0  0  0  0  0  0
   39.1681   30.6469   45.7714 C   0  0  0  0  0  0  0  0  0  0  0  0
   40.1952   31.2231   45.0669 C   0  0  0  0  0  0  0  0  0  0  0  0
   40.7168   32.4490   45.4044 C   0  0  0  0  0  0  0  0  0  0  0  0
   40.1449   33.0676   46.4967 C   0  0  0  0  0  0  0  0  0  0  0  0
   36.8814   29.4558   51.1472 C   0  0  0  0  0  0  0  0  0  0  0  0
   35.6819   29.1214   51.7360 F   0  0  0  0  0  0  0  0  0  0  0  0
   37.8039   28.4533   51.1630 F   0  0  0  0  0  0  0  0  0  0  0  0
   37.3837   30.5784   51.7949 F   0  0  0  0  0  0  0  0  0  0  0  0
   38.6510   30.4663   49.4327 H   0  0  0  0  0  0  0  0  0  0  0  0
   34.2960   29.9235   47.3805 H   0  0  0  0  0  0  0  0  0  0  0  0
   38.7753   29.6711   45.4780 H   0  0  0  0  0  0  0  0  0  0  0  0
   40.6273   30.7178   44.2133 H   0  0  0  0  0  0  0  0  0  0  0  0
   41.5349   32.9214   44.8533 H   0  0  0  0  0  0  0  0  0  0  0  0
   40.6705   34.3711   46.8874 C   0  0  0  0  0  0  0  0  0  0  0  0
   41.9551   34.6920   47.2708 C   0  0  0  0  0  0  0  0  0  0  0  0
   42.7656   33.9758   47.3294 H   0  0  0  0  0  0  0  0  0  0  0  0
   41.9753   36.0073   47.5382 N   0  0  0  0  0  0  0  0  0  0  0  0
   42.8208   36.5575   47.8582 H   0  0  0  0  0  0  0  0  0  0  0  0
   40.7696   36.5407   47.3449 C   0  0  0  0  0  0  0  0  0  0  0  0
   40.3937   37.5490   47.4526 H   0  0  0  0  0  0  0  0  0  0  0  0
   39.9778   35.5378   46.9480 N   0  0  0  0  0  0  0  0  0  0  0  0
  1 14  1  0
  2  1  2  0
  3  2  1  0
  4  3  2  0
  4  5  1  0
  5  6  2  0
  6  1  1  0
  8  7  1  0
  9  8  2  0
  9  3  1  0
 10  9  1  0
 11 12  1  0
 11 10  2  0
 12 13  2  0
 13  8  1  0
 14 16  1  0
 14 15  1  0
 14 17  1  0
  2 18  1  0
  5 19  1  0
 10 20  1  0
 11 21  1  0
 12 22  1  0
 23 24  2  0
 24 25  1  0
 24 26  1  0
 26 27  1  0
 26 28  1  0
 28 29  1  0
 28 30  2  0
 30 23  1  0
 13 23  1  0
M  END
>  <DihAtoms>  (1) 
11,12,22,23

>  <DihDeg>  (1) 
0.0005791675004444322

$$$$
