
     RDKit          3D

 29 30  0  0  1  0  0  0  0  0999 V2000
   37.3000   30.4920   46.6930 C   0  0  0  0  0  0  0  0  0  0  0  0
   37.8510   30.4230   45.4000 C   0  0  0  0  0  0  0  0  0  0  0  0
   36.9470   30.1880   44.3640 C   0  0  0  0  0  0  0  0  0  0  0  0
   35.6210   30.0410   44.6120 N   0  0  0  0  0  0  0  0  0  0  0  0
   35.1340   30.1190   45.8880 C   0  0  0  0  0  0  0  0  0  0  0  0
   35.9790   30.3430   46.9070 N   0  0  0  0  0  0  0  0  0  0  0  0
   39.8860   31.8030   45.8210 C   0  0  2  0  0  0  0  0  0  0  0  0
   39.3020   30.6000   45.2050 C   0  0  2  0  0  0  0  0  0  0  0  0
   39.4740   30.8450   43.8540 O   0  0  0  0  0  0  0  0  0  0  0  0
   39.5820   32.1940   43.6010 C   0  0  0  0  0  0  0  0  0  0  0  0
   39.2900   32.8840   44.9490 C   0  0  2  0  0  0  0  0  0  0  0  0
   41.2560   31.8040   45.5620 O   0  0  0  0  0  0  0  0  0  0  0  0
   39.9060   34.1030   45.0520 O   0  0  0  0  0  0  0  0  0  0  0  0
   38.0530   30.7170   47.8330 O   0  0  0  0  0  0  0  0  0  0  0  0
   36.5180   31.6890   49.8180 O   0  0  0  0  0  0  0  0  0  0  0  0
   37.4240   30.5320   49.4080 P   0  0  0  0  0  0  0  0  0  0  0  0
   36.5450   29.0840   49.3850 O   0  0  0  0  0  0  0  0  0  0  0  0
   38.6660   30.4610   50.5460 O   0  0  0  0  0  0  0  0  0  0  0  0
   37.3149   30.1208   43.3295 H   0  0  0  0  0  0  0  0  0  0  0  0
   34.0572   29.9990   46.0779 H   0  0  0  0  0  0  0  0  0  0  0  0
   39.7105   31.8956   46.9030 H   0  0  0  0  0  0  0  0  0  0  0  0
   39.7749   29.7071   45.6398 H   0  0  0  0  0  0  0  0  0  0  0  0
   40.5959   32.4411   43.2531 H   0  0  0  0  0  0  0  0  0  0  0  0
   38.8873   32.5210   42.8133 H   0  0  0  0  0  0  0  0  0  0  0  0
   38.2486   33.1588   45.1726 H   0  0  0  0  0  0  0  0  0  0  0  0
   41.7536   31.8044   46.4178 H   0  0  0  0  0  0  0  0  0  0  0  0
   40.0228   34.3340   46.0076 H   0  0  0  0  0  0  0  0  0  0  0  0
   36.3672   28.7911   50.3138 H   0  0  0  0  0  0  0  0  0  0  0  0
   38.2801   30.4831   51.4574 H   0  0  0  0  0  0  0  0  0  0  0  0
  1  6  2  0
  1 14  1  0
  2  1  1  0
  3  4  1  0
  3  2  2  0
  4  5  2  0
  5  6  1  0
  7 12  1  0
  8  2  1  0
  8  7  1  0
  9  8  1  0
 10  9  1  0
 10 11  1  0
 11 13  1  0
 11  7  1  0
 14 16  1  0
 16 15  2  0
 16 18  1  0
 17 16  1  0
  3 19  1  0
  5 20  1  0
  7 21  1  1
  8 22  1  1
 10 23  1  0
 10 24  1  0
 11 25  1  1
 12 26  1  0
 13 27  1  0
 17 28  1  0
 18 29  1  0
M  ISO  8  19  14  20  14  21  13  22  13  23  13  24  13  25  13  26   3
M  ISO  3  27   3  28   3  29   3
M  END
>  <minimizedAffinity>  (1) 
-5.09641647

>  <minimizedRMSD>  (1) 
7.28281879

$$$$
