
     RDKit          3D

 23 24  0  0  0  0  0  0  0  0999 V2000
   36.5120   30.3490   48.1640 C   0  0  0  0  0  0  0  0  0  0  0  0
   36.9990   31.1100   49.2260 C   0  0  0  0  0  0  0  0  0  0  0  0
   37.8990   32.1430   48.9450 C   0  0  0  0  0  0  0  0  0  0  0  0
   38.2430   32.3410   47.6450 N   0  0  0  0  0  0  0  0  0  0  0  0
   37.7570   31.5880   46.6290 C   0  0  0  0  0  0  0  0  0  0  0  0
   36.8870   30.5890   46.9010 N   0  0  0  0  0  0  0  0  0  0  0  0
   36.5270   30.7740   50.6010 C   0  0  0  0  0  0  0  0  0  0  0  0
   37.5580   30.2070   51.5750 C   0  0  0  0  0  0  0  0  0  0  0  0
   36.4750   29.3130   51.0010 C   0  0  0  0  0  0  0  0  0  0  0  0
   35.6140   29.2960   48.3080 O   0  0  0  0  0  0  0  0  0  0  0  0
   33.9990   28.4450   46.3240 O   0  0  0  0  0  0  0  0  0  0  0  0
   34.0660   29.3130   47.5600 P   0  0  0  0  0  0  0  0  0  0  0  0
   32.9770   28.7210   48.7370 O   0  0  0  0  0  0  0  0  0  0  0  0
   33.6650   30.8840   47.0940 O   0  0  0  0  0  0  0  0  0  0  0  0
   38.3133   32.7721   49.7466 H   0  0  0  0  0  0  0  0  0  0  0  0
   38.0671   31.7873   45.5926 H   0  0  0  0  0  0  0  0  0  0  0  0
   35.8088   31.6070   50.6160 H   0  0  0  0  0  0  0  0  0  0  0  0
   38.6034   30.0790   51.2577 H   0  0  0  0  0  0  0  0  0  0  0  0
   37.8985   30.4668   52.5882 H   0  0  0  0  0  0  0  0  0  0  0  0
   35.6631   28.9499   51.6483 H   0  0  0  0  0  0  0  0  0  0  0  0
   36.4672   28.3593   50.4530 H   0  0  0  0  0  0  0  0  0  0  0  0
   33.3314   28.9137   49.6411 H   0  0  0  0  0  0  0  0  0  0  0  0
   33.5228   31.4411   47.8999 H   0  0  0  0  0  0  0  0  0  0  0  0
  1 10  1  0
  1  2  2  0
  2  7  1  0
  3  2  1  0
  4  3  2  0
  5  6  2  0
  5  4  1  0
  6  1  1  0
  7  9  1  0
  7  8  1  0
  9  8  1  0
 11 12  2  0
 12 10  1  0
 12 13  1  0
 14 12  1  0
  3 15  1  0
  5 16  1  0
  7 17  1  0
  8 18  1  0
  8 19  1  0
  9 20  1  0
  9 21  1  0
 13 22  1  0
 14 23  1  0
M  ISO  8  15  14  16  14  17  13  18  13  19  13  20  13  21  13  22   3
M  ISO  1  23   3
M  END
>  <minimizedAffinity>  (1) 
-4.78464413

>  <minimizedRMSD>  (1) 
2.6149776

$$$$
