
     RDKit          3D

 22 22  0  0  0  0  0  0  0  0999 V2000
   36.5910   30.4650   48.0960 C   0  0  0  0  0  0  0  0  0  0  0  0
   37.1740   31.3620   49.0030 C   0  0  0  0  0  0  0  0  0  0  0  0
   38.0460   32.3300   48.4980 C   0  0  0  0  0  0  0  0  0  0  0  0
   38.2790   32.3410   47.1640 N   0  0  0  0  0  0  0  0  0  0  0  0
   37.7050   31.4650   46.3130 C   0  0  0  0  0  0  0  0  0  0  0  0
   36.8490   30.5130   46.7910 N   0  0  0  0  0  0  0  0  0  0  0  0
   35.7090   29.4470   48.4610 O   0  0  0  0  0  0  0  0  0  0  0  0
   34.0990   28.3460   46.5960 O   0  0  0  0  0  0  0  0  0  0  0  0
   34.1520   29.3160   47.7470 P   0  0  0  0  0  0  0  0  0  0  0  0
   33.1030   28.8250   49.0070 O   0  0  0  0  0  0  0  0  0  0  0  0
   33.6720   30.8290   47.1370 O   0  0  0  0  0  0  0  0  0  0  0  0
   36.8300   31.2440   50.4070 C   0  0  0  0  0  0  0  0  0  0  0  0
   37.5750   30.2480   51.2260 C   0  0  0  0  0  0  0  0  0  0  0  0
   38.5285   33.0608   49.1637 H   0  0  0  0  0  0  0  0  0  0  0  0
   37.9257   31.5171   45.2366 H   0  0  0  0  0  0  0  0  0  0  0  0
   33.5231   29.0216   49.8816 H   0  0  0  0  0  0  0  0  0  0  0  0
   33.4776   31.4418   47.8899 H   0  0  0  0  0  0  0  0  0  0  0  0
   36.9885   32.2305   50.8671 H   0  0  0  0  0  0  0  0  0  0  0  0
   35.7921   30.8797   50.4068 H   0  0  0  0  0  0  0  0  0  0  0  0
   37.4168   30.4595   52.2938 H   0  0  0  0  0  0  0  0  0  0  0  0
   37.2100   29.2364   50.9946 H   0  0  0  0  0  0  0  0  0  0  0  0
   38.6484   30.3124   50.9946 H   0  0  0  0  0  0  0  0  0  0  0  0
  1  7  1  0
  1  2  2  0
  2 12  1  0
  3  2  1  0
  4  3  2  0
  5  6  2  0
  5  4  1  0
  6  1  1  0
  8  9  2  0
  9  7  1  0
  9 10  1  0
 11  9  1  0
 12 13  1  0
  3 14  1  0
  5 15  1  0
 10 16  1  0
 11 17  1  0
 12 18  1  0
 12 19  1  0
 13 20  1  0
 13 21  1  0
 13 22  1  0
M  ISO  8  14  14  15  14  16   3  17   3  18   8  19   8  20   8  21   8
M  ISO  1  22   8
M  END
>  <minimizedAffinity>  (1) 
-4.44719458

>  <minimizedRMSD>  (1) 
2.84740233

$$$$
