
     RDKit          3D

 20 20  0  0  0  0  0  0  0  0999 V2000
   36.2450   30.8420   47.9350 C   0  0  0  0  0  0  0  0  0  0  0  0
   37.2160   31.3870   48.7830 C   0  0  0  0  0  0  0  0  0  0  0  0
   38.4900   31.6240   48.2940 C   0  0  0  0  0  0  0  0  0  0  0  0
   38.7440   31.3130   47.0010 N   0  0  0  0  0  0  0  0  0  0  0  0
   37.7980   30.7860   46.1910 C   0  0  0  0  0  0  0  0  0  0  0  0
   36.5380   30.5450   46.6480 N   0  0  0  0  0  0  0  0  0  0  0  0
   37.1900   30.5660   50.9550 C   0  0  0  0  0  0  0  0  0  0  0  0
   37.8610   29.6480   50.3700 O   0  0  0  0  0  0  0  0  0  0  0  0
   36.7590   31.6440   50.0990 N   0  0  0  0  0  0  0  0  0  0  0  0
   34.9390   30.5540   48.2840 O   0  0  0  0  0  0  0  0  0  0  0  0
   34.0890   28.2740   47.1550 O   0  0  0  0  0  0  0  0  0  0  0  0
   34.3800   28.9550   48.4720 P   0  0  0  0  0  0  0  0  0  0  0  0
   35.6000   28.1310   49.3290 O   0  0  0  0  0  0  0  0  0  0  0  0
   32.9450   28.9340   49.3490 O   0  0  0  0  0  0  0  0  0  0  0  0
   39.2726   32.0524   48.9374 H   0  0  0  0  0  0  0  0  0  0  0  0
   38.0501   30.5484   45.1470 H   0  0  0  0  0  0  0  0  0  0  0  0
   36.9589   30.5359   52.0300 H   0  0  0  0  0  0  0  0  0  0  0  0
   36.2104   32.4639   50.3952 H   0  0  0  0  0  0  0  0  0  0  0  0
   35.4472   28.2342   50.3017 H   0  0  0  0  0  0  0  0  0  0  0  0
   33.1501   28.9370   50.3175 H   0  0  0  0  0  0  0  0  0  0  0  0
  1 10  1  0
  1  2  2  0
  2  9  1  0
  3  2  1  0
  4  3  2  0
  5  6  2  0
  5  4  1  0
  6  1  1  0
  8  7  2  0
  9  7  1  0
 10 12  1  0
 11 12  2  0
 12 13  1  0
 12 14  1  0
  3 15  1  0
  5 16  1  0
  7 17  1  0
  9 18  1  0
 13 19  1  0
 14 20  1  0
M  ISO  5  15  14  16  14  17   6  19   3  20   3
M  END
>  <minimizedAffinity>  (1) 
-3.94872594

>  <minimizedRMSD>  (1) 
3.02836323

$$$$
