
     RDKit          3D

 28 29  0  0  0  0  0  0  0  0999 V2000
   34.1660   30.0810   44.7790 O   0  0  0  0  0  0  0  0  0  0  0  0
   32.7510   30.3220   45.2570 P   0  0  1  0  0  0  0  0  0  0  0  0
   32.7130   31.3750   46.5620 O   0  0  0  0  0  0  0  0  0  0  0  0
   31.7600   30.9970   44.0290 O   0  0  0  0  0  0  0  0  0  0  0  0
   32.0880   32.1880   43.3990 C   0  0  0  0  0  0  0  0  0  0  0  0
   31.6810   33.4610   43.7750 C   0  0  0  0  0  0  0  0  0  0  0  0
   32.1070   34.5520   43.0250 C   0  0  0  0  0  0  0  0  0  0  0  0
   32.9060   34.3330   41.9510 N   0  0  0  0  0  0  0  0  0  0  0  0
   33.2910   33.0820   41.6050 C   0  0  0  0  0  0  0  0  0  0  0  0
   32.8790   32.0000   42.3330 N   0  0  0  0  0  0  0  0  0  0  0  0
   30.8490   33.5090   44.9180 N   0  0  0  0  0  0  0  0  0  0  0  0
   32.1450   28.7870   45.6930 O   0  0  0  0  0  0  0  0  0  0  0  0
   29.4210   28.6240   48.1690 N   0  0  0  0  0  0  0  0  0  0  0  0
   29.9960   28.8920   46.9800 C   0  0  0  0  0  0  0  0  0  0  0  0
   31.3330   28.6070   46.8030 C   0  0  0  0  0  0  0  0  0  0  0  0
   32.0480   28.0520   47.8590 C   0  0  0  0  0  0  0  0  0  0  0  0
   33.2680   27.7250   47.8880 O   0  0  0  0  0  0  0  0  0  0  0  0
   31.4260   27.7980   49.0410 N   0  0  0  0  0  0  0  0  0  0  0  0
   30.1160   28.0850   49.1890 C   0  0  0  0  0  0  0  0  0  0  0  0
   29.5240   27.8580   50.2740 O   0  0  0  0  0  0  0  0  0  0  0  0
   32.7317   30.8564   47.4051 H   0  0  0  0  0  0  0  0  0  0  0  0
   31.8018   35.5730   43.2976 H   0  0  0  0  0  0  0  0  0  0  0  0
   33.9413   32.9344   40.7301 H   0  0  0  0  0  0  0  0  0  0  0  0
   30.5021   34.4147   45.2648 H   0  0  0  0  0  0  0  0  0  0  0  0
   30.5901   32.6383   45.4035 H   0  0  0  0  0  0  0  0  0  0  0  0
   28.4221   28.8373   48.3014 H   0  0  0  0  0  0  0  0  0  0  0  0
   29.4066   29.3321   46.1621 H   0  0  0  0  0  0  0  0  0  0  0  0
   31.9548   27.3866   49.8233 H   0  0  0  0  0  0  0  0  0  0  0  0
  2  1  2  0
  2 12  1  0
  2  3  1  0
  4  2  1  0
  5  6  2  0
  5  4  1  0
  6 11  1  0
  7  6  1  0
  8  7  2  0
  9  8  1  0
  9 10  2  0
 10  5  1  0
 12 15  1  0
 13 19  1  0
 14 13  1  0
 15 14  2  0
 15 16  1  0
 16 17  2  0
 16 18  1  0
 18 19  1  0
 19 20  2  0
  3 21  1  0
  7 22  1  0
  9 23  1  0
 11 24  1  0
 11 25  1  0
 13 26  1  0
 14 27  1  0
 18 28  1  0
M  ISO  6  21   3  22  14  23  14  26   9  27  14  28   9
M  END
>  <minimizedAffinity>  (1) 
-4.11503172

>  <minimizedRMSD>  (1) 
7.27842283

$$$$
