
     RDKit          3D

 31 32  0  0  0  0  0  0  0  0999 V2000
   35.8290   30.5720   49.3910 C   0  0  0  0  0  0  0  0  0  0  0  0
   36.2290   29.9980   50.5840 C   0  0  0  0  0  0  0  0  0  0  0  0
   37.5150   30.2410   51.0370 C   0  0  0  0  0  0  0  0  0  0  0  0
   38.3450   31.0370   50.2960 N   0  0  0  0  0  0  0  0  0  0  0  0
   37.9100   31.5810   49.1260 C   0  0  0  0  0  0  0  0  0  0  0  0
   36.6530   31.3540   48.6660 N   0  0  0  0  0  0  0  0  0  0  0  0
   35.2460   29.2050   51.2200 N   0  0  0  0  0  0  0  0  0  0  0  0
   34.5800   30.4370   48.7850 O   0  0  0  0  0  0  0  0  0  0  0  0
   34.9440   29.3670   46.3550 O   0  0  0  0  0  0  0  0  0  0  0  0
   34.2430   29.1690   47.6630 P   0  0  1  0  0  0  0  0  0  0  0  0
   34.7380   27.7310   48.4150 O   0  0  0  0  0  0  0  0  0  0  0  0
   32.5870   29.1580   47.3110 O   0  0  0  0  0  0  0  0  0  0  0  0
   32.0300   27.8880   47.4720 C   0  0  0  0  0  0  0  0  0  0  0  0
   30.7920   27.7060   46.6120 C   0  0  0  0  0  0  0  0  0  0  0  0
   30.1510   26.5020   47.3050 C   0  0  0  0  0  0  0  0  0  0  0  0
   30.3560   26.8120   48.7710 C   0  0  0  0  0  0  0  0  0  0  0  0
   31.4410   27.8400   48.8700 C   0  0  0  0  0  0  0  0  0  0  0  0
   37.8650   29.7991   51.9816 H   0  0  0  0  0  0  0  0  0  0  0  0
   38.5909   32.2173   48.5416 H   0  0  0  0  0  0  0  0  0  0  0  0
   35.4589   28.7396   52.1139 H   0  0  0  0  0  0  0  0  0  0  0  0
   34.3171   29.0928   50.7894 H   0  0  0  0  0  0  0  0  0  0  0  0
   34.6996   27.8425   49.3980 H   0  0  0  0  0  0  0  0  0  0  0  0
   32.8124   27.1506   47.2392 H   0  0  0  0  0  0  0  0  0  0  0  0
   31.0520   27.4829   45.5667 H   0  0  0  0  0  0  0  0  0  0  0  0
   30.1463   28.5937   46.5415 H   0  0  0  0  0  0  0  0  0  0  0  0
   29.0809   26.4279   47.0614 H   0  0  0  0  0  0  0  0  0  0  0  0
   30.5864   25.5396   46.9980 H   0  0  0  0  0  0  0  0  0  0  0  0
   29.4251   27.2064   49.2046 H   0  0  0  0  0  0  0  0  0  0  0  0
   30.6349   25.9021   49.3226 H   0  0  0  0  0  0  0  0  0  0  0  0
   32.2015   27.5364   49.6045 H   0  0  0  0  0  0  0  0  0  0  0  0
   31.0676   28.8186   49.2059 H   0  0  0  0  0  0  0  0  0  0  0  0
  1  2  2  0
  2  3  1  0
  2  7  1  0
  4  3  2  0
  5  4  1  0
  6  5  2  0
  6  1  1  0
  8  1  1  0
 10  9  2  0
 10 11  1  0
 10  8  1  0
 12 13  1  0
 12 10  1  0
 13 17  1  0
 14 15  1  0
 14 13  1  0
 15 16  1  0
 16 17  1  0
  3 18  1  0
  5 19  1  0
  7 20  1  0
  7 21  1  0
 11 22  1  0
 13 23  1  0
 14 24  1  0
 14 25  1  0
 15 26  1  0
 15 27  1  0
 16 28  1  0
 16 29  1  0
 17 30  1  0
 17 31  1  0
M  ISO  8  18  14  19  14  22   3  23  13  24  13  25  13  26  13  27  13
M  ISO  4  28  13  29  13  30  13  31  13
M  END
>  <minimizedAffinity>  (1) 
-3.9816668

>  <minimizedRMSD>  (1) 
1.54226196

$$$$
