
     RDKit          3D

 28 29  0  0  0  0  0  0  0  0999 V2000
   35.5470   30.0710   46.4730 O   0  0  0  0  0  0  0  0  0  0  0  0
   34.3730   29.9290   47.3950 P   0  0  1  0  0  0  0  0  0  0  0  0
   34.0520   28.3140   47.7840 O   0  0  0  0  0  0  0  0  0  0  0  0
   34.6530   30.7330   48.8960 O   0  0  0  0  0  0  0  0  0  0  0  0
   35.8920   30.7040   49.5360 C   0  0  0  0  0  0  0  0  0  0  0  0
   36.2330   29.9270   50.6370 C   0  0  0  0  0  0  0  0  0  0  0  0
   37.5180   30.0300   51.1430 C   0  0  0  0  0  0  0  0  0  0  0  0
   38.4070   30.8880   50.5460 N   0  0  0  0  0  0  0  0  0  0  0  0
   38.0300   31.6270   49.4720 C   0  0  0  0  0  0  0  0  0  0  0  0
   36.7640   31.5360   48.9630 N   0  0  0  0  0  0  0  0  0  0  0  0
   35.2040   29.1050   51.1220 N   0  0  0  0  0  0  0  0  0  0  0  0
   33.0600   30.6530   46.6240 O   0  0  0  0  0  0  0  0  0  0  0  0
   32.1480   30.0750   45.8010 C   0  0  0  0  0  0  0  0  0  0  0  0
   31.0110   29.4230   46.2130 C   0  0  0  0  0  0  0  0  0  0  0  0
   30.0740   28.8300   45.3910 C   0  0  0  0  0  0  0  0  0  0  0  0
   30.2980   28.8930   44.0220 C   0  0  0  0  0  0  0  0  0  0  0  0
   31.4260   29.5350   43.5530 C   0  0  0  0  0  0  0  0  0  0  0  0
   32.3270   30.1110   44.4230 C   0  0  0  0  0  0  0  0  0  0  0  0
   34.0312   28.2095   48.7682 H   0  0  0  0  0  0  0  0  0  0  0  0
   37.8226   29.4307   52.0137 H   0  0  0  0  0  0  0  0  0  0  0  0
   38.7541   32.3099   49.0036 H   0  0  0  0  0  0  0  0  0  0  0  0
   35.3714   28.4963   51.9358 H   0  0  0  0  0  0  0  0  0  0  0  0
   34.2814   29.1105   50.6641 H   0  0  0  0  0  0  0  0  0  0  0  0
   30.8310   29.3686   47.2968 H   0  0  0  0  0  0  0  0  0  0  0  0
   29.1863   28.3281   45.8035 H   0  0  0  0  0  0  0  0  0  0  0  0
   29.5848   28.4366   43.3198 H   0  0  0  0  0  0  0  0  0  0  0  0
   31.6088   29.5879   42.4696 H   0  0  0  0  0  0  0  0  0  0  0  0
   33.2152   30.6148   44.0140 H   0  0  0  0  0  0  0  0  0  0  0  0
  2  1  2  0
  2  3  1  0
  2  4  1  0
  4  5  1  0
  5  6  2  0
  6 11  1  0
  6  7  1  0
  8  7  2  0
  9  8  1  0
 10  9  2  0
 10  5  1  0
 12  2  1  0
 13 14  2  0
 13 12  1  0
 15 14  1  0
 16 15  2  0
 17 16  1  0
 17 18  2  0
 18 13  1  0
  3 19  1  0
  7 20  1  0
  9 21  1  0
 11 22  1  0
 11 23  1  0
 14 24  1  0
 15 25  1  0
 16 26  1  0
 17 27  1  0
 18 28  1  0
M  ISO  8  19   3  20  14  21  14  24  14  25  14  26  14  27  14  28  14
M  END
>  <minimizedAffinity>  (1) 
-3.9036715

>  <minimizedRMSD>  (1) 
0.926958203

$$$$
