
     RDKit          3D

 46 49  0  0  1  0  0  0  0  0999 V2000
   39.6100   30.5970   45.0540 C   0  0  0  0  0  0  0  0  0  0  0  0
   38.7450   32.0590   46.9250 C   0  0  1  0  0  0  0  0  0  0  0  0
   39.7970   32.9060   46.2420 C   0  0  0  0  0  0  0  0  0  0  0  0
   39.9000   31.4460   46.2450 C   0  0  2  0  0  0  0  0  0  0  0  0
   38.6990   32.1810   48.4170 C   0  0  0  0  0  0  0  0  0  0  0  0
   37.3330   29.8820   51.0280 C   0  0  0  0  0  0  0  0  0  0  0  0
   38.0730   30.9080   50.3880 C   0  0  0  0  0  0  0  0  0  0  0  0
   37.9080   31.1020   49.0470 C   0  0  0  0  0  0  0  0  0  0  0  0
   37.0540   30.3120   48.3980 N   0  0  0  0  0  0  0  0  0  0  0  0
   36.3540   29.3460   48.9940 C   0  0  0  0  0  0  0  0  0  0  0  0
   36.5060   29.1460   50.3060 N   0  0  0  0  0  0  0  0  0  0  0  0
   40.4090   30.9640   43.8230 C   0  0  0  0  0  0  0  0  0  0  0  0
   39.4450   28.7770   43.1630 C   0  0  0  0  0  0  0  0  0  0  0  0
   40.3440   29.8100   42.8710 C   0  0  0  0  0  0  0  0  0  0  0  0
   41.1310   29.7310   41.7250 C   0  0  0  0  0  0  0  0  0  0  0  0
   41.0370   28.6510   40.8750 C   0  0  0  0  0  0  0  0  0  0  0  0
   41.6840   28.3650   39.7290 N   0  0  0  0  0  0  0  0  0  0  0  0
   41.2090   27.1850   39.3080 C   0  0  0  0  0  0  0  0  0  0  0  0
   40.2470   26.6740   40.1600 C   0  0  0  0  0  0  0  0  0  0  0  0
   40.1550   27.6360   41.1590 C   0  0  0  0  0  0  0  0  0  0  0  0
   39.3730   27.7060   42.2920 C   0  0  0  0  0  0  0  0  0  0  0  0
   38.4260   26.5900   42.5640 C   0  0  0  0  0  0  0  0  0  0  0  0
   39.0110   25.5480   43.4780 C   0  0  0  0  0  0  0  0  0  0  0  0
   39.8346   29.5516   45.3123 H   0  0  0  0  0  0  0  0  0  0  0  0
   38.5508   30.7551   44.8028 H   0  0  0  0  0  0  0  0  0  0  0  0
   37.6598   31.8903   46.8624 H   0  0  0  0  0  0  0  0  0  0  0  0
   40.4942   33.5097   46.8416 H   0  0  0  0  0  0  0  0  0  0  0  0
   39.7899   33.6877   45.4681 H   0  0  0  0  0  0  0  0  0  0  0  0
   40.7309   30.7772   46.5139 H   0  0  0  0  0  0  0  0  0  0  0  0
   39.7268   32.1391   48.8067 H   0  0  0  0  0  0  0  0  0  0  0  0
   38.2142   33.1380   48.6603 H   0  0  0  0  0  0  0  0  0  0  0  0
   37.4452   29.7015   52.1073 H   0  0  0  0  0  0  0  0  0  0  0  0
   38.7686   31.5373   50.9626 H   0  0  0  0  0  0  0  0  0  0  0  0
   35.6599   28.7215   48.4124 H   0  0  0  0  0  0  0  0  0  0  0  0
   39.9799   31.8611   43.3527 H   0  0  0  0  0  0  0  0  0  0  0  0
   41.4532   31.1787   44.0940 H   0  0  0  0  0  0  0  0  0  0  0  0
   38.8125   28.8167   44.0621 H   0  0  0  0  0  0  0  0  0  0  0  0
   41.8375   30.5422   41.4952 H   0  0  0  0  0  0  0  0  0  0  0  0
   42.4027   28.9403   39.2670 H   0  0  0  0  0  0  0  0  0  0  0  0
   41.5455   26.6807   38.3902 H   0  0  0  0  0  0  0  0  0  0  0  0
   39.6879   25.7311   40.0688 H   0  0  0  0  0  0  0  0  0  0  0  0
   37.5203   27.0022   43.0329 H   0  0  0  0  0  0  0  0  0  0  0  0
   38.1986   26.1031   41.6042 H   0  0  0  0  0  0  0  0  0  0  0  0
   38.8451   25.8434   44.5245 H   0  0  0  0  0  0  0  0  0  0  0  0
   38.5246   24.5797   43.2889 H   0  0  0  0  0  0  0  0  0  0  0  0
   40.0910   25.4590   43.2889 H   0  0  0  0  0  0  0  0  0  0  0  0
  1  4  1  0
  2  5  1  0
  3  4  1  0
  3  2  1  0
  4  2  1  0
  5  8  1  0
  7  6  2  0
  8  7  1  0
  9 10  1  0
  9  8  2  0
 10 11  2  0
 11  6  1  0
 12  1  1  0
 14 13  2  0
 14 12  1  0
 15 14  1  0
 16 20  1  0
 16 15  2  0
 17 16  1  0
 18 17  1  0
 18 19  2  0
 19 20  1  0
 20 21  2  0
 21 22  1  0
 21 13  1  0
 22 23  1  0
  1 24  1  0
  1 25  1  0
  2 26  1  6
  3 27  1  0
  3 28  1  0
  4 29  1  1
  5 30  1  0
  5 31  1  0
  6 32  1  0
  7 33  1  0
 10 34  1  0
 12 35  1  0
 12 36  1  0
 13 37  1  0
 15 38  1  0
 17 39  1  0
 18 40  1  0
 19 41  1  0
 22 42  1  0
 22 43  1  0
 23 44  1  0
 23 45  1  0
 23 46  1  0
M  ISO  8  24   8  25   8  26  13  27  13  28  13  29  13  30   8  31   8
M  ISO  8  32  14  33  14  34  14  35   8  36   8  37  14  38  14  39   9
M  ISO  7  40  14  41  14  42   8  43   8  44   8  45   8  46   8
M  END
>  <minimizedAffinity>  (1) 
-5.81598091

>  <minimizedRMSD>  (1) 
0.186398178

$$$$
