
     RDKit          3D

 42 45  0  0  1  0  0  0  0  0999 V2000
   39.6040   30.6870   45.0530 C   0  0  0  0  0  0  0  0  0  0  0  0
   38.7950   32.2230   46.8870 C   0  0  1  0  0  0  0  0  0  0  0  0
   39.8930   33.0040   46.2030 C   0  0  0  0  0  0  0  0  0  0  0  0
   39.9170   31.5290   46.2350 C   0  0  2  0  0  0  0  0  0  0  0  0
   38.6890   32.4030   48.3620 C   0  0  0  0  0  0  0  0  0  0  0  0
   37.4490   30.0200   50.9850 C   0  0  0  0  0  0  0  0  0  0  0  0
   38.1630   31.0860   50.3450 C   0  0  0  0  0  0  0  0  0  0  0  0
   37.9420   31.2990   49.0000 C   0  0  0  0  0  0  0  0  0  0  0  0
   37.0730   30.5050   48.3550 N   0  0  0  0  0  0  0  0  0  0  0  0
   36.4090   29.5090   48.9610 C   0  0  0  0  0  0  0  0  0  0  0  0
   36.6020   29.2800   50.2600 N   0  0  0  0  0  0  0  0  0  0  0  0
   40.4450   30.9860   43.8300 C   0  0  0  0  0  0  0  0  0  0  0  0
   39.4590   28.8020   43.2250 C   0  0  0  0  0  0  0  0  0  0  0  0
   40.3460   29.8150   42.9050 C   0  0  0  0  0  0  0  0  0  0  0  0
   41.1100   29.7170   41.7480 C   0  0  0  0  0  0  0  0  0  0  0  0
   41.0040   28.6300   40.9110 C   0  0  0  0  0  0  0  0  0  0  0  0
   41.6250   28.3170   39.7590 N   0  0  0  0  0  0  0  0  0  0  0  0
   41.1280   27.1210   39.3680 C   0  0  0  0  0  0  0  0  0  0  0  0
   40.1890   26.6380   40.2420 C   0  0  0  0  0  0  0  0  0  0  0  0
   40.1150   27.6140   41.2310 C   0  0  0  0  0  0  0  0  0  0  0  0
   39.3620   27.7130   42.3730 C   0  0  0  0  0  0  0  0  0  0  0  0
   38.4580   26.6310   42.6550 N   0  0  0  0  0  0  0  0  0  0  0  0
   39.7616   29.6341   45.3295 H   0  0  0  0  0  0  0  0  0  0  0  0
   38.5620   30.9076   44.7783 H   0  0  0  0  0  0  0  0  0  0  0  0
   37.7049   32.0953   46.8144 H   0  0  0  0  0  0  0  0  0  0  0  0
   40.6144   33.5816   46.7996 H   0  0  0  0  0  0  0  0  0  0  0  0
   39.9352   33.7714   45.4160 H   0  0  0  0  0  0  0  0  0  0  0  0
   40.6991   30.8145   46.5312 H   0  0  0  0  0  0  0  0  0  0  0  0
   39.7019   32.4405   48.7893 H   0  0  0  0  0  0  0  0  0  0  0  0
   38.1430   33.3387   48.5527 H   0  0  0  0  0  0  0  0  0  0  0  0
   37.5952   29.8136   52.0555 H   0  0  0  0  0  0  0  0  0  0  0  0
   38.8663   31.7155   50.9098 H   0  0  0  0  0  0  0  0  0  0  0  0
   35.7082   28.8839   48.3882 H   0  0  0  0  0  0  0  0  0  0  0  0
   40.0682   31.8902   43.3296 H   0  0  0  0  0  0  0  0  0  0  0  0
   41.4924   31.1581   44.1186 H   0  0  0  0  0  0  0  0  0  0  0  0
   38.8445   28.8598   44.1355 H   0  0  0  0  0  0  0  0  0  0  0  0
   41.8134   30.5245   41.4965 H   0  0  0  0  0  0  0  0  0  0  0  0
   42.3382   28.8775   39.2710 H   0  0  0  0  0  0  0  0  0  0  0  0
   41.4415   26.5963   38.4535 H   0  0  0  0  0  0  0  0  0  0  0  0
   39.6243   25.6963   40.1766 H   0  0  0  0  0  0  0  0  0  0  0  0
   37.8704   26.6579   43.5005 H   0  0  0  0  0  0  0  0  0  0  0  0
   38.3980   25.8290   42.0115 H   0  0  0  0  0  0  0  0  0  0  0  0
  1  4  1  0
  2  5  1  0
  3  4  1  0
  3  2  1  0
  4  2  1  0
  5  8  1  0
  7  6  2  0
  8  7  1  0
  9 10  1  0
  9  8  2  0
 10 11  2  0
 11  6  1  0
 12  1  1  0
 14 13  2  0
 14 12  1  0
 15 14  1  0
 16 20  1  0
 16 15  2  0
 17 16  1  0
 18 17  1  0
 18 19  2  0
 19 20  1  0
 20 21  2  0
 21 22  1  0
 21 13  1  0
  1 23  1  0
  1 24  1  0
  2 25  1  6
  3 26  1  0
  3 27  1  0
  4 28  1  1
  5 29  1  0
  5 30  1  0
  6 31  1  0
  7 32  1  0
 10 33  1  0
 12 34  1  0
 12 35  1  0
 13 36  1  0
 15 37  1  0
 17 38  1  0
 18 39  1  0
 19 40  1  0
 22 41  1  0
 22 42  1  0
M  ISO  8  23   8  24   8  25  13  26  13  27  13  28  13  29   8  30   8
M  ISO  8  31  14  32  14  33  14  34   8  35   8  36  14  37  14  38   9
M  ISO  2  39  14  40  14
M  END
>  <minimizedAffinity>  (1) 
-5.72687912

>  <minimizedRMSD>  (1) 
0.0785564184

$$$$
