
     RDKit          3D

 40 42  0  0  1  0  0  0  0  0999 V2000
   38.8560   32.4010   47.8620 C   0  0  2  0  0  0  0  0  0  0  0  0
   38.2050   31.3800   48.7590 C   0  0  1  0  0  0  0  0  0  0  0  0
   38.7200   31.9250   50.1000 C   0  0  0  0  0  0  0  0  0  0  0  0
   38.3950   33.2630   49.9940 O   0  0  0  0  0  0  0  0  0  0  0  0
   38.6480   33.6690   48.7080 C   0  0  0  0  0  0  0  0  0  0  0  0
   36.8430   31.5910   48.6860 O   0  0  0  0  0  0  0  0  0  0  0  0
   35.9220   29.8610   46.9780 O   0  0  0  0  0  0  0  0  0  0  0  0
   35.9720   30.1730   48.4500 P   0  0  1  0  0  0  0  0  0  0  0  0
   36.7550   28.8730   49.2410 O   0  0  0  0  0  0  0  0  0  0  0  0
   34.3980   30.3390   49.0750 O   0  0  0  0  0  0  0  0  0  0  0  0
   34.1300   29.1970   49.8050 C   0  0  0  0  0  0  0  0  0  0  0  0
   33.2710   28.2290   49.0870 C   0  0  0  0  0  0  0  0  0  0  0  0
   33.9040   27.3420   48.2490 C   0  0  0  0  0  0  0  0  0  0  0  0
   33.1490   26.4010   47.5420 C   0  0  0  0  0  0  0  0  0  0  0  0
   31.7990   26.4240   47.7350 N   0  0  0  0  0  0  0  0  0  0  0  0
   31.1960   27.3060   48.5640 C   0  0  0  0  0  0  0  0  0  0  0  0
   31.9360   28.2100   49.2410 N   0  0  0  0  0  0  0  0  0  0  0  0
   38.1490   32.4400   46.6660 O   0  0  0  0  0  0  0  0  0  0  0  0
   38.7180   32.2430   45.4070 C   0  0  0  0  0  0  0  0  0  0  0  0
   39.9400   31.6020   45.4070 C   0  0  0  0  0  0  0  0  0  0  0  0
   40.5690   31.3690   44.2020 C   0  0  0  0  0  0  0  0  0  0  0  0
   39.9480   31.7870   43.0460 C   0  0  0  0  0  0  0  0  0  0  0  0
   38.7080   32.4360   43.0510 C   0  0  0  0  0  0  0  0  0  0  0  0
   38.1240   32.6450   44.2520 N   0  0  0  0  0  0  0  0  0  0  0  0
   39.9065   32.2304   47.5841 H   0  0  0  0  0  0  0  0  0  0  0  0
   38.4020   30.3167   48.5574 H   0  0  0  0  0  0  0  0  0  0  0  0
   38.2063   31.4524   50.9502 H   0  0  0  0  0  0  0  0  0  0  0  0
   39.7881   31.7350   50.2819 H   0  0  0  0  0  0  0  0  0  0  0  0
   39.5538   34.2925   48.6812 H   0  0  0  0  0  0  0  0  0  0  0  0
   37.8118   34.2665   48.3160 H   0  0  0  0  0  0  0  0  0  0  0  0
   36.6834   28.9919   50.2212 H   0  0  0  0  0  0  0  0  0  0  0  0
   35.0840   28.7051   50.0458 H   0  0  0  0  0  0  0  0  0  0  0  0
   33.5839   29.5090   50.7075 H   0  0  0  0  0  0  0  0  0  0  0  0
   34.9977   27.3723   48.1353 H   0  0  0  0  0  0  0  0  0  0  0  0
   33.6215   25.6765   46.8624 H   0  0  0  0  0  0  0  0  0  0  0  0
   30.1030   27.2870   48.6867 H   0  0  0  0  0  0  0  0  0  0  0  0
   40.4043   31.2825   46.3516 H   0  0  0  0  0  0  0  0  0  0  0  0
   41.5440   30.8611   44.1651 H   0  0  0  0  0  0  0  0  0  0  0  0
   40.4455   31.6038   42.0822 H   0  0  0  0  0  0  0  0  0  0  0  0
   38.2286   32.7625   42.1164 H   0  0  0  0  0  0  0  0  0  0  0  0
  1  5  1  0
  1  2  1  0
  2  3  1  0
  4  3  1  0
  5  4  1  0
  6  2  1  0
  8  7  2  0
  8  6  1  0
  8 10  1  0
  8  9  1  0
 10 11  1  0
 12 17  1  0
 12 11  1  0
 13 12  2  0
 14 15  2  0
 14 13  1  0
 15 16  1  0
 16 17  2  0
 18  1  1  0
 19 20  2  0
 19 18  1  0
 21 20  1  0
 22 23  1  0
 22 21  2  0
 23 24  2  0
 24 19  1  0
  1 25  1  6
  2 26  1  6
  3 27  1  0
  3 28  1  0
  5 29  1  0
  5 30  1  0
  9 31  1  0
 11 32  1  0
 11 33  1  0
 13 34  1  0
 14 35  1  0
 16 36  1  0
 20 37  1  0
 21 38  1  0
 22 39  1  0
 23 40  1  0
M  ISO  8  25  13  26  13  27  13  28  13  29  13  30  13  31   3  32   8
M  ISO  8  33   8  34  14  35  14  36  14  37  14  38  14  39  14  40  14
M  END
>  <minimizedAffinity>  (1) 
-4.93941879

>  <minimizedRMSD>  (1) 
0.242638171

$$$$
