
     RDKit          3D

 42 45  0  0  1  0  0  0  0  0999 V2000
   39.5400   30.6670   45.0900 C   0  0  0  0  0  0  0  0  0  0  0  0
   38.7470   32.2170   46.9210 C   0  0  1  0  0  0  0  0  0  0  0  0
   39.8580   32.9810   46.2400 C   0  0  0  0  0  0  0  0  0  0  0  0
   39.8690   31.5050   46.2710 C   0  0  2  0  0  0  0  0  0  0  0  0
   38.6900   32.3790   48.4080 C   0  0  0  0  0  0  0  0  0  0  0  0
   37.4300   30.0040   51.0230 C   0  0  0  0  0  0  0  0  0  0  0  0
   38.1380   31.0640   50.3810 C   0  0  0  0  0  0  0  0  0  0  0  0
   37.9440   31.2740   49.0470 C   0  0  0  0  0  0  0  0  0  0  0  0
   37.0850   30.4580   48.4070 N   0  0  0  0  0  0  0  0  0  0  0  0
   36.4200   29.4650   49.0040 C   0  0  0  0  0  0  0  0  0  0  0  0
   36.6020   29.2500   50.3080 N   0  0  0  0  0  0  0  0  0  0  0  0
   40.2610   31.0630   43.8100 C   0  0  0  0  0  0  0  0  0  0  0  0
   39.5010   28.7640   43.2780 C   0  0  0  0  0  0  0  0  0  0  0  0
   40.2390   29.8720   42.8980 C   0  0  0  0  0  0  0  0  0  0  0  0
   40.9400   29.8630   41.6910 C   0  0  0  0  0  0  0  0  0  0  0  0
   40.9050   28.7520   40.8640 C   0  0  0  0  0  0  0  0  0  0  0  0
   41.4860   28.5130   39.6790 N   0  0  0  0  0  0  0  0  0  0  0  0
   41.1210   27.2750   39.3170 C   0  0  0  0  0  0  0  0  0  0  0  0
   40.3050   26.6880   40.2460 C   0  0  0  0  0  0  0  0  0  0  0  0
   40.1680   27.6450   41.2430 C   0  0  0  0  0  0  0  0  0  0  0  0
   39.4840   27.6680   42.4320 C   0  0  0  0  0  0  0  0  0  0  0  0
   38.7060   26.4800   42.8180 C   0  0  0  0  0  0  0  0  0  0  0  0
   39.1300   25.5930   43.5750 O   0  0  0  0  0  0  0  0  0  0  0  0
   39.8046   29.6253   45.3243 H   0  0  0  0  0  0  0  0  0  0  0  0
   38.4660   30.8074   44.8983 H   0  0  0  0  0  0  0  0  0  0  0  0
   37.6543   32.1174   46.8436 H   0  0  0  0  0  0  0  0  0  0  0  0
   40.5835   33.5509   46.8391 H   0  0  0  0  0  0  0  0  0  0  0  0
   39.9111   33.7466   45.4519 H   0  0  0  0  0  0  0  0  0  0  0  0
   40.6453   30.7842   46.5673 H   0  0  0  0  0  0  0  0  0  0  0  0
   39.7157   32.3940   48.8052 H   0  0  0  0  0  0  0  0  0  0  0  0
   38.1685   33.3213   48.6320 H   0  0  0  0  0  0  0  0  0  0  0  0
   37.5683   29.8135   52.0975 H   0  0  0  0  0  0  0  0  0  0  0  0
   38.8289   31.7013   50.9525 H   0  0  0  0  0  0  0  0  0  0  0  0
   35.7301   28.8318   48.4269 H   0  0  0  0  0  0  0  0  0  0  0  0
   39.7456   31.9106   43.3346 H   0  0  0  0  0  0  0  0  0  0  0  0
   41.2953   31.3695   44.0249 H   0  0  0  0  0  0  0  0  0  0  0  0
   38.9434   28.7546   44.2261 H   0  0  0  0  0  0  0  0  0  0  0  0
   41.5253   30.7457   41.3938 H   0  0  0  0  0  0  0  0  0  0  0  0
   42.0937   29.1551   39.1505 H   0  0  0  0  0  0  0  0  0  0  0  0
   41.4397   26.7883   38.3834 H   0  0  0  0  0  0  0  0  0  0  0  0
   39.8580   25.6835   40.2108 H   0  0  0  0  0  0  0  0  0  0  0  0
   37.6895   26.3721   42.4118 H   0  0  0  0  0  0  0  0  0  0  0  0
  1  4  1  0
  2  5  1  0
  3  4  1  0
  3  2  1  0
  4  2  1  0
  5  8  1  0
  7  6  2  0
  8  7  1  0
  9 10  1  0
  9  8  2  0
 10 11  2  0
 11  6  1  0
 12  1  1  0
 14 13  2  0
 14 12  1  0
 15 14  1  0
 16 20  1  0
 16 15  2  0
 17 16  1  0
 18 17  1  0
 18 19  2  0
 19 20  1  0
 20 21  2  0
 21 22  1  0
 21 13  1  0
 22 23  2  0
  1 24  1  0
  1 25  1  0
  2 26  1  6
  3 27  1  0
  3 28  1  0
  4 29  1  1
  5 30  1  0
  5 31  1  0
  6 32  1  0
  7 33  1  0
 10 34  1  0
 12 35  1  0
 12 36  1  0
 13 37  1  0
 15 38  1  0
 17 39  1  0
 18 40  1  0
 19 41  1  0
 22 42  1  0
M  ISO  8  24   8  25   8  26  13  27  13  28  13  29  13  30   8  31   8
M  ISO  8  32  14  33  14  34  14  35   8  36   8  37  14  38  14  39   9
M  ISO  3  40  14  41  14  42   6
M  END
>  <minimizedAffinity>  (1) 
-5.72416258

>  <minimizedRMSD>  (1) 
0.208211377

$$$$
