
     RDKit          3D

 33 34  0  0  1  0  0  0  0  0999 V2000
   35.8880   29.8340   46.9540 O   0  0  0  0  0  0  0  0  0  0  0  0
   35.9620   30.1610   48.4210 P   0  0  2  0  0  0  0  0  0  0  0  0
   36.7530   28.8740   49.2160 O   0  0  0  0  0  0  0  0  0  0  0  0
   34.3940   30.3440   49.0570 O   0  0  0  0  0  0  0  0  0  0  0  0
   34.1280   29.2030   49.7940 C   0  0  0  0  0  0  0  0  0  0  0  0
   33.2680   28.2310   49.0860 C   0  0  0  0  0  0  0  0  0  0  0  0
   33.8950   27.3340   48.2550 C   0  0  0  0  0  0  0  0  0  0  0  0
   33.1360   26.3900   47.5570 C   0  0  0  0  0  0  0  0  0  0  0  0
   31.7870   26.4210   47.7520 N   0  0  0  0  0  0  0  0  0  0  0  0
   31.1890   27.3140   48.5770 C   0  0  0  0  0  0  0  0  0  0  0  0
   31.9330   28.2300   49.2520 N   0  0  0  0  0  0  0  0  0  0  0  0
   36.8460   31.5790   48.6310 O   0  0  0  0  0  0  0  0  0  0  0  0
   38.8630   32.3820   47.8060 C   0  0  2  0  0  0  0  0  0  0  0  0
   38.2050   31.3700   48.7080 C   0  0  1  0  0  0  0  0  0  0  0  0
   38.7140   31.9190   50.0520 C   0  0  0  0  0  0  0  0  0  0  0  0
   38.3950   33.2510   49.9410 O   0  0  0  0  0  0  0  0  0  0  0  0
   38.6540   33.6520   48.6490 C   0  0  0  0  0  0  0  0  0  0  0  0
   38.1440   32.4350   46.6170 O   0  0  0  0  0  0  0  0  0  0  0  0
   38.8330   32.4430   45.4000 C   0  0  0  0  0  0  0  0  0  0  0  0
   39.7440   33.3150   45.2550 O   0  0  0  0  0  0  0  0  0  0  0  0
   36.6783   28.9955   50.1957 H   0  0  0  0  0  0  0  0  0  0  0  0
   35.0831   28.7129   50.0338 H   0  0  0  0  0  0  0  0  0  0  0  0
   33.5837   29.5198   50.6959 H   0  0  0  0  0  0  0  0  0  0  0  0
   34.9887   27.3586   48.1396 H   0  0  0  0  0  0  0  0  0  0  0  0
   33.6045   25.6577   46.8831 H   0  0  0  0  0  0  0  0  0  0  0  0
   30.0962   27.2978   48.7013 H   0  0  0  0  0  0  0  0  0  0  0  0
   39.9106   32.1974   47.5258 H   0  0  0  0  0  0  0  0  0  0  0  0
   38.4027   30.3061   48.5105 H   0  0  0  0  0  0  0  0  0  0  0  0
   38.1940   31.4504   50.9005 H   0  0  0  0  0  0  0  0  0  0  0  0
   39.7806   31.7270   50.2404 H   0  0  0  0  0  0  0  0  0  0  0  0
   39.5609   34.2739   48.6231 H   0  0  0  0  0  0  0  0  0  0  0  0
   37.8188   34.2481   48.2526 H   0  0  0  0  0  0  0  0  0  0  0  0
   38.5955   31.7240   44.6021 H   0  0  0  0  0  0  0  0  0  0  0  0
  2  1  2  0
  2 12  1  0
  2  4  1  0
  2  3  1  0
  4  5  1  0
  6 11  1  0
  6  5  1  0
  7  6  2  0
  8  9  2  0
  8  7  1  0
  9 10  1  0
 10 11  2  0
 12 14  1  0
 13 17  1  0
 13 14  1  0
 14 15  1  0
 16 15  1  0
 17 16  1  0
 18 13  1  0
 19 18  1  0
 20 19  2  0
  3 21  1  0
  5 22  1  0
  5 23  1  0
  7 24  1  0
  8 25  1  0
 10 26  1  0
 13 27  1  6
 14 28  1  6
 15 29  1  0
 15 30  1  0
 17 31  1  0
 17 32  1  0
 19 33  1  0
M  ISO  8  21   3  22   8  23   8  24  14  25  14  26  14  27  13  28  13
M  ISO  5  29  13  30  13  31  13  32  13  33   6
M  END
>  <minimizedAffinity>  (1) 
-4.00108337

>  <minimizedRMSD>  (1) 
0.257207125

$$$$
