
     RDKit          3D

 41 44  0  0  1  0  0  0  0  0999 V2000
   39.5850   30.6550   45.0980 C   0  0  0  0  0  0  0  0  0  0  0  0
   38.7630   32.2070   46.9140 C   0  0  1  0  0  0  0  0  0  0  0  0
   39.8610   32.9840   46.2250 C   0  0  0  0  0  0  0  0  0  0  0  0
   39.8910   31.5110   46.2700 C   0  0  2  0  0  0  0  0  0  0  0  0
   38.6840   32.3850   48.3960 C   0  0  0  0  0  0  0  0  0  0  0  0
   37.4380   30.0210   51.0240 C   0  0  0  0  0  0  0  0  0  0  0  0
   38.1410   31.0800   50.3730 C   0  0  0  0  0  0  0  0  0  0  0  0
   37.9370   31.2760   49.0360 C   0  0  0  0  0  0  0  0  0  0  0  0
   37.0900   30.4650   48.4110 N   0  0  0  0  0  0  0  0  0  0  0  0
   36.4270   29.4700   49.0100 C   0  0  0  0  0  0  0  0  0  0  0  0
   36.6160   29.2660   50.3180 N   0  0  0  0  0  0  0  0  0  0  0  0
   40.4190   30.9720   43.8800 C   0  0  0  0  0  0  0  0  0  0  0  0
   39.4330   28.8000   43.2440 C   0  0  0  0  0  0  0  0  0  0  0  0
   40.3250   29.8130   42.9360 C   0  0  0  0  0  0  0  0  0  0  0  0
   41.1080   29.7280   41.7820 C   0  0  0  0  0  0  0  0  0  0  0  0
   40.9920   28.6320   40.9450 C   0  0  0  0  0  0  0  0  0  0  0  0
   41.6160   28.3180   39.7980 N   0  0  0  0  0  0  0  0  0  0  0  0
   41.1250   27.1370   39.4010 C   0  0  0  0  0  0  0  0  0  0  0  0
   40.1650   26.6420   40.2770 C   0  0  0  0  0  0  0  0  0  0  0  0
   40.0930   27.6160   41.2610 C   0  0  0  0  0  0  0  0  0  0  0  0
   39.3330   27.7190   42.4010 C   0  0  0  0  0  0  0  0  0  0  0  0
   38.4570   26.6690   42.6540 O   0  0  0  0  0  0  0  0  0  0  0  0
   39.7638   29.6063   45.3779 H   0  0  0  0  0  0  0  0  0  0  0  0
   38.5358   30.8443   44.8271 H   0  0  0  0  0  0  0  0  0  0  0  0
   37.6723   32.0851   46.8393 H   0  0  0  0  0  0  0  0  0  0  0  0
   40.5791   33.5695   46.8180 H   0  0  0  0  0  0  0  0  0  0  0  0
   39.9023   33.7439   45.4308 H   0  0  0  0  0  0  0  0  0  0  0  0
   40.6762   30.8030   46.5737 H   0  0  0  0  0  0  0  0  0  0  0  0
   39.7037   32.4139   48.8076 H   0  0  0  0  0  0  0  0  0  0  0  0
   38.1520   33.3252   48.6034 H   0  0  0  0  0  0  0  0  0  0  0  0
   37.5793   29.8366   52.0992 H   0  0  0  0  0  0  0  0  0  0  0  0
   38.8322   31.7244   50.9360 H   0  0  0  0  0  0  0  0  0  0  0  0
   35.7388   28.8311   48.4372 H   0  0  0  0  0  0  0  0  0  0  0  0
   40.0368   31.8813   43.3930 H   0  0  0  0  0  0  0  0  0  0  0  0
   41.4663   31.1430   44.1697 H   0  0  0  0  0  0  0  0  0  0  0  0
   38.8130   28.8594   44.1507 H   0  0  0  0  0  0  0  0  0  0  0  0
   41.8172   30.5328   41.5385 H   0  0  0  0  0  0  0  0  0  0  0  0
   42.3340   28.8778   39.3163 H   0  0  0  0  0  0  0  0  0  0  0  0
   41.4448   26.6174   38.4857 H   0  0  0  0  0  0  0  0  0  0  0  0
   39.5981   25.7020   40.2061 H   0  0  0  0  0  0  0  0  0  0  0  0
   37.8830   26.6866   43.4604 H   0  0  0  0  0  0  0  0  0  0  0  0
  1  4  1  0
  2  5  1  0
  3  4  1  0
  3  2  1  0
  4  2  1  0
  5  8  1  0
  7  6  2  0
  8  7  1  0
  9 10  1  0
  9  8  2  0
 10 11  2  0
 11  6  1  0
 12  1  1  0
 14 13  2  0
 14 12  1  0
 15 14  1  0
 16 20  1  0
 16 15  2  0
 17 16  1  0
 18 17  1  0
 18 19  2  0
 19 20  1  0
 20 21  2  0
 21 22  1  0
 21 13  1  0
  1 23  1  0
  1 24  1  0
  2 25  1  6
  3 26  1  0
  3 27  1  0
  4 28  1  1
  5 29  1  0
  5 30  1  0
  6 31  1  0
  7 32  1  0
 10 33  1  0
 12 34  1  0
 12 35  1  0
 13 36  1  0
 15 37  1  0
 17 38  1  0
 18 39  1  0
 19 40  1  0
 22 41  1  0
M  ISO  8  23   8  24   8  25  13  26  13  27  13  28  13  29   8  30   8
M  ISO  8  31  14  32  14  33  14  34   8  35   8  36  14  37  14  38   9
M  ISO  3  39  14  40  14  41   3
M  END
>  <minimizedAffinity>  (1) 
-5.72389126

>  <minimizedRMSD>  (1) 
0.0757003874

$$$$
