
     RDKit          3D

 38 40  0  0  0  0  0  0  0  0999 V2000
   35.9580   30.1110   48.4200 C   0  0  0  0  0  0  0  0  0  0  0  0
   35.8630   29.2250   49.4120 C   0  0  0  0  0  0  0  0  0  0  0  0
   34.7960   28.4520   49.5750 C   0  0  0  0  0  0  0  0  0  0  0  0
   33.7820   28.5780   48.6940 N   0  0  0  0  0  0  0  0  0  0  0  0
   33.8520   29.4560   47.6840 C   0  0  0  0  0  0  0  0  0  0  0  0
   34.9360   30.2270   47.5380 N   0  0  0  0  0  0  0  0  0  0  0  0
   31.9180   28.3960   46.6360 C   0  0  0  0  0  0  0  0  0  0  0  0
   32.7230   29.5270   46.7750 C   0  0  0  0  0  0  0  0  0  0  0  0
   32.4920   30.7150   46.1260 C   0  0  0  0  0  0  0  0  0  0  0  0
   31.4060   30.8520   45.2700 C   0  0  0  0  0  0  0  0  0  0  0  0
   30.5550   29.7740   45.0770 C   0  0  0  0  0  0  0  0  0  0  0  0
   30.8680   28.6340   45.7650 C   0  0  0  0  0  0  0  0  0  0  0  0
   32.1840   26.9270   47.4590 S   0  0  0  0  0  0  0  0  0  0  0  0
   31.3530   26.0060   46.6220 O   0  0  0  0  0  0  0  0  0  0  0  0
   31.4590   26.8180   48.7400 O   0  0  0  0  0  0  0  0  0  0  0  0
   33.3470   25.7270   47.0820 C   0  0  0  0  0  0  0  0  0  0  0  0
   34.1500   25.1890   46.2240 C   0  0  0  0  0  0  0  0  0  0  0  0
   35.1070   24.0510   46.2250 C   0  0  0  0  0  0  0  0  0  0  0  0
   38.2270   32.9320   49.0990 C   0  0  0  0  0  0  0  0  0  0  0  0
   39.1340   32.8410   48.0090 C   0  0  0  0  0  0  0  0  0  0  0  0
   38.9390   31.8020   47.0670 C   0  0  0  0  0  0  0  0  0  0  0  0
   37.8940   30.9390   47.2470 N   0  0  0  0  0  0  0  0  0  0  0  0
   37.0660   31.0520   48.2750 C   0  0  0  0  0  0  0  0  0  0  0  0
   37.2320   32.0510   49.2040 N   0  0  0  0  0  0  0  0  0  0  0  0
   36.6989   29.1312   50.1209 H   0  0  0  0  0  0  0  0  0  0  0  0
   34.7403   27.7305   50.4034 H   0  0  0  0  0  0  0  0  0  0  0  0
   33.1720   31.5649   46.2850 H   0  0  0  0  0  0  0  0  0  0  0  0
   31.2233   31.8047   44.7513 H   0  0  0  0  0  0  0  0  0  0  0  0
   29.6814   29.8323   44.4111 H   0  0  0  0  0  0  0  0  0  0  0  0
   30.1882   27.7844   45.6033 H   0  0  0  0  0  0  0  0  0  0  0  0
   33.4665   25.1373   48.0028 H   0  0  0  0  0  0  0  0  0  0  0  0
   34.1173   25.7003   45.2506 H   0  0  0  0  0  0  0  0  0  0  0  0
   35.3425   23.7709   47.2623 H   0  0  0  0  0  0  0  0  0  0  0  0
   34.6558   23.1920   45.7067 H   0  0  0  0  0  0  0  0  0  0  0  0
   36.0306   24.3482   45.7067 H   0  0  0  0  0  0  0  0  0  0  0  0
   38.3452   33.7251   49.8521 H   0  0  0  0  0  0  0  0  0  0  0  0
   39.9627   33.5562   47.9003 H   0  0  0  0  0  0  0  0  0  0  0  0
   39.6155   31.6913   46.2067 H   0  0  0  0  0  0  0  0  0  0  0  0
  1  2  2  0
  2  3  1  0
  4  3  2  0
  5  4  1  0
  6  5  2  0
  6  1  1  0
  7  8  2  0
  7 13  1  0
  8  5  1  0
  9  8  1  0
 10  9  2  0
 11 10  1  0
 11 12  2  0
 12  7  1  0
 13 15  2  0
 14 13  2  0
 16 13  1  0
 17 18  1  0
 17 16  2  0
 19 24  2  0
 20 19  1  0
 21 22  1  0
 21 20  2  0
 22 23  2  0
 23  1  1  0
 23 24  1  0
  2 25  1  0
  3 26  1  0
  9 27  1  0
 10 28  1  0
 11 29  1  0
 12 30  1  0
 16 31  1  0
 17 32  1  0
 18 33  1  0
 18 34  1  0
 18 35  1  0
 19 36  1  0
 20 37  1  0
 21 38  1  0
M  ISO  8  25  14  26  14  27  14  28  14  29  14  30  14  33   8  34   8
M  ISO  4  35   8  36  14  37  14  38  14
M  END
>  <minimizedAffinity>  (1) 
-5.30327988

>  <minimizedRMSD>  (1) 
1.01864922

$$$$
