
     RDKit          3D

 50 53  0  0  0  0  0  0  0  0999 V2000
   34.2320   28.8470   48.0150 C   0  0  0  0  0  0  0  0  0  0  0  0
   34.1980   27.5210   48.2650 C   0  0  0  0  0  0  0  0  0  0  0  0
   33.2050   26.7570   47.7900 C   0  0  0  0  0  0  0  0  0  0  0  0
   32.2250   27.3350   47.0490 N   0  0  0  0  0  0  0  0  0  0  0  0
   32.2670   28.6400   46.8090 C   0  0  0  0  0  0  0  0  0  0  0  0
   33.2570   29.4080   47.2810 N   0  0  0  0  0  0  0  0  0  0  0  0
   29.8770   29.1000   46.4750 C   0  0  0  0  0  0  0  0  0  0  0  0
   31.1870   29.1410   45.9920 C   0  0  0  0  0  0  0  0  0  0  0  0
   31.5360   29.6170   44.7440 C   0  0  0  0  0  0  0  0  0  0  0  0
   30.5520   30.0850   43.9030 C   0  0  0  0  0  0  0  0  0  0  0  0
   29.2310   30.0810   44.2930 C   0  0  0  0  0  0  0  0  0  0  0  0
   28.9800   29.5960   45.5360 C   0  0  0  0  0  0  0  0  0  0  0  0
   29.4200   28.5560   47.9800 S   0  0  0  0  0  0  0  0  0  0  0  0
   28.8320   27.1850   47.5130 O   0  0  0  0  0  0  0  0  0  0  0  0
   28.2820   29.4310   48.4430 O   0  0  0  0  0  0  0  0  0  0  0  0
   29.7250   27.8830   49.3950 C   0  0  0  0  0  0  0  0  0  0  0  0
   29.1860   26.6530   49.8380 F   0  0  0  0  0  0  0  0  0  0  0  0
   28.9670   28.5760   50.4470 F   0  0  0  0  0  0  0  0  0  0  0  0
   30.8910   28.2000   50.1410 F   0  0  0  0  0  0  0  0  0  0  0  0
   36.5200   30.6970   50.2200 C   0  0  0  0  0  0  0  0  0  0  0  0
   37.3350   31.3780   49.2960 C   0  0  0  0  0  0  0  0  0  0  0  0
   37.0860   31.1930   47.9420 C   0  0  0  0  0  0  0  0  0  0  0  0
   36.0700   30.3620   47.6050 N   0  0  0  0  0  0  0  0  0  0  0  0
   35.2930   29.7130   48.5100 C   0  0  0  0  0  0  0  0  0  0  0  0
   35.5300   29.8890   49.8120 N   0  0  0  0  0  0  0  0  0  0  0  0
   37.8680   31.8490   46.8600 C   0  0  0  0  0  0  0  0  0  0  0  0
   39.0910   32.5510   47.3970 C   0  0  0  0  0  0  0  0  0  0  0  0
   39.9060   33.0620   46.2290 C   0  0  0  0  0  0  0  0  0  0  0  0
   40.2690   31.9410   45.2750 C   0  0  0  0  0  0  0  0  0  0  0  0
   39.7060   30.6250   45.8270 C   0  0  0  0  0  0  0  0  0  0  0  0
   38.1940   30.7850   45.8390 C   0  0  0  0  0  0  0  0  0  0  0  0
   34.9961   27.0615   48.8666 H   0  0  0  0  0  0  0  0  0  0  0  0
   33.1840   25.6769   47.9974 H   0  0  0  0  0  0  0  0  0  0  0  0
   32.5888   29.6222   44.4252 H   0  0  0  0  0  0  0  0  0  0  0  0
   30.8238   30.4667   42.9078 H   0  0  0  0  0  0  0  0  0  0  0  0
   28.4280   30.4485   43.6371 H   0  0  0  0  0  0  0  0  0  0  0  0
   27.9233   29.5955   45.8415 H   0  0  0  0  0  0  0  0  0  0  0  0
   36.6984   30.8300   51.2973 H   0  0  0  0  0  0  0  0  0  0  0  0
   38.1463   32.0381   49.6367 H   0  0  0  0  0  0  0  0  0  0  0  0
   37.2807   32.6471   46.3823 H   0  0  0  0  0  0  0  0  0  0  0  0
   38.7847   33.3949   48.0326 H   0  0  0  0  0  0  0  0  0  0  0  0
   39.6920   31.8524   47.9976 H   0  0  0  0  0  0  0  0  0  0  0  0
   39.3190   33.8177   45.6864 H   0  0  0  0  0  0  0  0  0  0  0  0
   40.8368   33.4980   46.6208 H   0  0  0  0  0  0  0  0  0  0  0  0
   41.3632   31.8682   45.1883 H   0  0  0  0  0  0  0  0  0  0  0  0
   39.8447   32.1427   44.2804 H   0  0  0  0  0  0  0  0  0  0  0  0
   39.9958   29.7844   45.1794 H   0  0  0  0  0  0  0  0  0  0  0  0
   40.0955   30.4122   46.8335 H   0  0  0  0  0  0  0  0  0  0  0  0
   37.8395   31.0948   44.8449 H   0  0  0  0  0  0  0  0  0  0  0  0
   37.7018   29.8347   46.0932 H   0  0  0  0  0  0  0  0  0  0  0  0
  1  2  2  0
  1 24  1  0
  3  2  1  0
  4  3  2  0
  5  4  1  0
  5  6  2  0
  6  1  1  0
  7 13  1  0
  8  7  2  0
  8  5  1  0
  9  8  1  0
 10 11  1  0
 10  9  2  0
 11 12  2  0
 12  7  1  0
 13 15  2  0
 13 16  1  0
 14 13  2  0
 16 17  1  0
 16 19  1  0
 16 18  1  0
 21 20  2  0
 22 21  1  0
 23 22  2  0
 23 24  1  0
 24 25  2  0
 25 20  1  0
 26 27  1  0
 26 22  1  0
 28 27  1  0
 29 30  1  0
 29 28  1  0
 30 31  1  0
 31 26  1  0
  2 32  1  0
  3 33  1  0
  9 34  1  0
 10 35  1  0
 11 36  1  0
 12 37  1  0
 20 38  1  0
 21 39  1  0
 26 40  1  0
 27 41  1  0
 27 42  1  0
 28 43  1  0
 28 44  1  0
 29 45  1  0
 29 46  1  0
 30 47  1  0
 30 48  1  0
 31 49  1  0
 31 50  1  0
M  ISO  8  32  14  33  14  34  14  35  14  36  14  37  14  38  14  39  14
M  ISO  8  40  13  41  13  42  13  43  13  44  13  45  13  46  13  47  13
M  ISO  3  48  13  49  13  50  13
M  END
>  <minimizedAffinity>  (1) 
-6.96107435

>  <minimizedRMSD>  (1) 
2.23978424

$$$$
