
     RDKit          3D

 41 44  0  0  0  0  0  0  0  0999 V2000
   35.4770   29.5330   48.4220 C   0  0  0  0  0  0  0  0  0  0  0  0
   35.2820   28.5890   49.3430 C   0  0  0  0  0  0  0  0  0  0  0  0
   34.3990   27.6030   49.1520 C   0  0  0  0  0  0  0  0  0  0  0  0
   33.6920   27.5700   47.9940 N   0  0  0  0  0  0  0  0  0  0  0  0
   33.8880   28.5090   47.0800 C   0  0  0  0  0  0  0  0  0  0  0  0
   34.7710   29.5030   47.2620 N   0  0  0  0  0  0  0  0  0  0  0  0
   31.7250   28.1200   45.9770 C   0  0  0  0  0  0  0  0  0  0  0  0
   33.1000   28.3570   45.8790 C   0  0  0  0  0  0  0  0  0  0  0  0
   33.7850   28.4370   44.6830 C   0  0  0  0  0  0  0  0  0  0  0  0
   33.0940   28.2740   43.5050 C   0  0  0  0  0  0  0  0  0  0  0  0
   31.7450   28.0360   43.4980 C   0  0  0  0  0  0  0  0  0  0  0  0
   31.1480   27.9730   44.7220 C   0  0  0  0  0  0  0  0  0  0  0  0
   30.8610   28.0390   47.3980 S   0  0  0  0  0  0  0  0  0  0  0  0
   30.1520   26.6760   47.1050 O   0  0  0  0  0  0  0  0  0  0  0  0
   29.8290   29.1370   47.3570 O   0  0  0  0  0  0  0  0  0  0  0  0
   30.7230   27.7130   48.9550 C   0  0  0  0  0  0  0  0  0  0  0  0
   30.2980   26.4710   49.4850 F   0  0  0  0  0  0  0  0  0  0  0  0
   29.5090   28.3410   49.4910 F   0  0  0  0  0  0  0  0  0  0  0  0
   31.4400   28.4460   49.9420 F   0  0  0  0  0  0  0  0  0  0  0  0
   37.2700   32.4690   49.7200 C   0  0  0  0  0  0  0  0  0  0  0  0
   38.2970   32.6520   48.7690 C   0  0  0  0  0  0  0  0  0  0  0  0
   38.3440   31.7460   47.6910 C   0  0  0  0  0  0  0  0  0  0  0  0
   37.4110   30.7770   47.6470 N   0  0  0  0  0  0  0  0  0  0  0  0
   36.4290   30.6240   48.5820 C   0  0  0  0  0  0  0  0  0  0  0  0
   36.3720   31.4730   49.6070 N   0  0  0  0  0  0  0  0  0  0  0  0
   39.3680   31.8500   46.6530 C   0  0  0  0  0  0  0  0  0  0  0  0
   39.8580   33.0480   46.1740 C   0  0  0  0  0  0  0  0  0  0  0  0
   40.8170   32.7510   45.1980 C   0  0  0  0  0  0  0  0  0  0  0  0
   40.8390   31.3550   45.1530 C   0  0  0  0  0  0  0  0  0  0  0  0
   39.9720   30.8960   46.0260 O   0  0  0  0  0  0  0  0  0  0  0  0
   35.8591   28.6218   50.2789 H   0  0  0  0  0  0  0  0  0  0  0  0
   34.2481   26.8311   49.9211 H   0  0  0  0  0  0  0  0  0  0  0  0
   34.8682   28.6284   44.6724 H   0  0  0  0  0  0  0  0  0  0  0  0
   33.6354   28.3360   42.5495 H   0  0  0  0  0  0  0  0  0  0  0  0
   31.1793   27.9041   42.5639 H   0  0  0  0  0  0  0  0  0  0  0  0
   30.0651   27.7800   44.7148 H   0  0  0  0  0  0  0  0  0  0  0  0
   37.2020   33.1578   50.5749 H   0  0  0  0  0  0  0  0  0  0  0  0
   39.0293   33.4671   48.8654 H   0  0  0  0  0  0  0  0  0  0  0  0
   39.5511   34.0529   46.4996 H   0  0  0  0  0  0  0  0  0  0  0  0
   41.4161   33.4558   44.6028 H   0  0  0  0  0  0  0  0  0  0  0  0
   41.4754   30.7432   44.4968 H   0  0  0  0  0  0  0  0  0  0  0  0
  1 24  1  0
  1  2  2  0
  3  2  1  0
  4  3  2  0
  5  6  2  0
  5  4  1  0
  6  1  1  0
  7 13  1  0
  8  7  2  0
  8  5  1  0
  9  8  1  0
 10  9  2  0
 11 10  1  0
 11 12  2  0
 12  7  1  0
 13 16  1  0
 14 13  2  0
 15 13  2  0
 16 17  1  0
 16 18  1  0
 16 19  1  0
 21 20  2  0
 22 21  1  0
 23 22  2  0
 23 24  1  0
 24 25  2  0
 25 20  1  0
 26 22  1  0
 27 26  2  0
 28 27  1  0
 29 28  2  0
 29 30  1  0
 30 26  1  0
  2 31  1  0
  3 32  1  0
  9 33  1  0
 10 34  1  0
 11 35  1  0
 12 36  1  0
 20 37  1  0
 21 38  1  0
 27 39  1  0
 28 40  1  0
 29 41  1  0
M  ISO  8  31  14  32  14  33  14  34  14  35  14  36  14  37  14  38  14
M  ISO  3  39  14  40  14  41  14
M  END
>  <minimizedAffinity>  (1) 
-6.57839584

>  <minimizedRMSD>  (1) 
0.671099901

$$$$
