
     RDKit          3D

 28 29  0  0  0  0  0  0  0  0999 V2000
   36.4570   29.9710   48.7490 N   0  0  0  0  0  0  0  0  0  0  0  0
   35.3780   29.6900   47.8120 C   0  0  0  0  0  0  0  0  0  0  0  0
   34.0760   29.3750   48.4790 C   0  0  0  0  0  0  0  0  0  0  0  0
   34.1220   28.7420   49.7330 N   0  0  0  0  0  0  0  0  0  0  0  0
   35.1830   29.2640   50.5960 C   0  0  0  0  0  0  0  0  0  0  0  0
   36.4720   29.0370   49.8160 C   0  0  0  0  0  0  0  0  0  0  0  0
   37.3570   31.0620   48.5670 C   0  0  0  0  0  0  0  0  0  0  0  0
   37.9390   31.7590   49.6370 C   0  0  0  0  0  0  0  0  0  0  0  0
   38.8090   32.8150   49.3460 C   0  0  0  0  0  0  0  0  0  0  0  0
   39.0570   33.1240   48.0450 N   0  0  0  0  0  0  0  0  0  0  0  0
   38.4700   32.4230   47.0300 C   0  0  0  0  0  0  0  0  0  0  0  0
   37.6380   31.4140   47.2840 N   0  0  0  0  0  0  0  0  0  0  0  0
   39.9330   32.3830   45.0220 C   0  0  0  0  0  0  0  0  0  0  0  0
   40.8130   31.7880   45.6830 O   0  0  0  0  0  0  0  0  0  0  0  0
   38.7150   32.7320   45.6630 N   0  0  0  0  0  0  0  0  0  0  0  0
   35.6696   28.8287   47.1931 H   0  0  0  0  0  0  0  0  0  0  0  0
   35.2235   30.6000   47.2136 H   0  0  0  0  0  0  0  0  0  0  0  0
   33.5353   30.3240   48.6094 H   0  0  0  0  0  0  0  0  0  0  0  0
   33.5927   28.6431   47.8151 H   0  0  0  0  0  0  0  0  0  0  0  0
   33.2168   28.8806   50.2045 H   0  0  0  0  0  0  0  0  0  0  0  0
   35.0317   30.3362   50.7895 H   0  0  0  0  0  0  0  0  0  0  0  0
   35.2003   28.7667   51.5770 H   0  0  0  0  0  0  0  0  0  0  0  0
   36.5047   28.0099   49.4236 H   0  0  0  0  0  0  0  0  0  0  0  0
   37.3570   29.1720   50.4552 H   0  0  0  0  0  0  0  0  0  0  0  0
   37.7167   31.4820   50.6781 H   0  0  0  0  0  0  0  0  0  0  0  0
   39.2850   33.3864   50.1565 H   0  0  0  0  0  0  0  0  0  0  0  0
   40.0998   32.6313   43.9635 H   0  0  0  0  0  0  0  0  0  0  0  0
   37.9881   33.2228   45.1229 H   0  0  0  0  0  0  0  0  0  0  0  0
  1  6  1  0
  2  3  1  0
  2  1  1  0
  3  4  1  0
  4  5  1  0
  6  5  1  0
  7  1  1  0
  7  8  2  0
  9  8  1  0
 10  9  2  0
 11 12  2  0
 11 10  1  0
 12  7  1  0
 13 15  1  0
 13 14  2  0
 15 11  1  0
  2 16  1  0
  2 17  1  0
  3 18  1  0
  3 19  1  0
  4 20  1  0
  5 21  1  0
  5 22  1  0
  6 23  1  0
  6 24  1  0
  8 25  1  0
  9 26  1  0
 13 27  1  0
 15 28  1  0
M  ISO  8  16  13  17  13  18  13  19  13  20   5  21  13  22  13  23  13
M  ISO  4  24  13  25  14  26  14  27   6
M  END
>  <minimizedAffinity>  (1) 
-5.11723566

>  <minimizedRMSD>  (1) 
6.17466354

$$$$
