
     RDKit          3D

 30 31  0  0  0  0  0  0  0  0999 V2000
   36.4290   30.0870   48.6810 N   0  0  0  0  0  0  0  0  0  0  0  0
   35.3950   29.8310   47.6930 C   0  0  0  0  0  0  0  0  0  0  0  0
   34.1040   29.3860   48.2700 C   0  0  0  0  0  0  0  0  0  0  0  0
   34.1380   28.6670   49.4930 N   0  0  0  0  0  0  0  0  0  0  0  0
   35.1440   29.1580   50.4260 C   0  0  0  0  0  0  0  0  0  0  0  0
   36.4510   29.0630   49.6910 C   0  0  0  0  0  0  0  0  0  0  0  0
   37.2990   31.2150   48.6360 C   0  0  0  0  0  0  0  0  0  0  0  0
   37.3970   32.1470   49.6740 C   0  0  0  0  0  0  0  0  0  0  0  0
   38.2860   33.2200   49.5230 C   0  0  0  0  0  0  0  0  0  0  0  0
   39.0090   33.2990   48.3750 N   0  0  0  0  0  0  0  0  0  0  0  0
   38.8830   32.3670   47.3890 C   0  0  0  0  0  0  0  0  0  0  0  0
   38.0390   31.3260   47.5010 N   0  0  0  0  0  0  0  0  0  0  0  0
   39.7070   32.5270   46.1720 C   0  0  0  0  0  0  0  0  0  0  0  0
   40.2670   31.1510   45.8120 C   0  0  0  0  0  0  0  0  0  0  0  0
   35.7562   29.0483   47.0097 H   0  0  0  0  0  0  0  0  0  0  0  0
   35.2018   30.7853   47.1812 H   0  0  0  0  0  0  0  0  0  0  0  0
   33.4913   30.2846   48.4348 H   0  0  0  0  0  0  0  0  0  0  0  0
   33.7065   28.6678   47.5377 H   0  0  0  0  0  0  0  0  0  0  0  0
   33.2135   28.7412   49.9410 H   0  0  0  0  0  0  0  0  0  0  0  0
   34.9340   30.2013   50.7043 H   0  0  0  0  0  0  0  0  0  0  0  0
   35.1561   28.5746   51.3585 H   0  0  0  0  0  0  0  0  0  0  0  0
   36.5532   28.0720   49.2247 H   0  0  0  0  0  0  0  0  0  0  0  0
   37.3019   29.1982   50.3749 H   0  0  0  0  0  0  0  0  0  0  0  0
   36.7915   32.0406   50.5862 H   0  0  0  0  0  0  0  0  0  0  0  0
   38.3956   33.9779   50.3126 H   0  0  0  0  0  0  0  0  0  0  0  0
   39.0877   32.9081   45.3466 H   0  0  0  0  0  0  0  0  0  0  0  0
   40.5230   33.2434   46.3481 H   0  0  0  0  0  0  0  0  0  0  0  0
   40.4934   30.5947   46.7336 H   0  0  0  0  0  0  0  0  0  0  0  0
   39.5234   30.5955   45.2217 H   0  0  0  0  0  0  0  0  0  0  0  0
   41.1872   31.2726   45.2217 H   0  0  0  0  0  0  0  0  0  0  0  0
  1  6  1  0
  2  3  1  0
  2  1  1  0
  3  4  1  0
  4  5  1  0
  6  5  1  0
  7  1  1  0
  7  8  2  0
  9  8  1  0
 10  9  2  0
 11 12  2  0
 11 10  1  0
 12  7  1  0
 13 11  1  0
 14 13  1  0
  2 15  1  0
  2 16  1  0
  3 17  1  0
  3 18  1  0
  4 19  1  0
  5 20  1  0
  5 21  1  0
  6 22  1  0
  6 23  1  0
  8 24  1  0
  9 25  1  0
 13 26  1  0
 13 27  1  0
 14 28  1  0
 14 29  1  0
 14 30  1  0
M  ISO  8  15  13  16  13  17  13  18  13  19   5  20  13  21  13  22  13
M  ISO  8  23  13  24  14  25  14  26   8  27   8  28   8  29   8  30   8
M  END
>  <minimizedAffinity>  (1) 
-4.90464258

>  <minimizedRMSD>  (1) 
5.7332921

$$$$
