
     RDKit          3D

 44 47  0  0  1  0  0  0  0  0999 V2000
   35.0630   29.6090   47.5730 C   0  0  0  0  0  0  0  0  0  0  0  0
   35.2200   30.0370   46.2540 C   0  0  0  0  0  0  0  0  0  0  0  0
   34.1810   29.8730   45.3560 C   0  0  0  0  0  0  0  0  0  0  0  0
   33.0270   29.2880   45.8090 N   0  0  0  0  0  0  0  0  0  0  0  0
   32.9090   28.8850   47.0940 C   0  0  0  0  0  0  0  0  0  0  0  0
   33.9230   29.0450   47.9730 N   0  0  0  0  0  0  0  0  0  0  0  0
   36.1050   29.7540   48.5460 N   0  0  0  0  0  0  0  0  0  0  0  0
   36.1860   28.8910   49.7130 C   0  0  0  0  0  0  0  0  0  0  0  0
   36.4960   29.5980   50.9900 C   0  0  0  0  0  0  0  0  0  0  0  0
   37.2250   30.8040   50.9290 N   0  0  0  0  0  0  0  0  0  0  0  0
   36.9360   31.6000   49.7450 C   0  0  0  0  0  0  0  0  0  0  0  0
   37.1610   30.6900   48.5520 C   0  0  0  0  0  0  0  0  0  0  0  0
   31.6670   28.2690   47.5370 C   0  0  0  0  0  0  0  0  0  0  0  0
   31.6790   27.0640   48.2080 C   0  0  0  0  0  0  0  0  0  0  0  0
   30.5290   26.4290   48.6540 C   0  0  0  0  0  0  0  0  0  0  0  0
   29.3640   27.0800   48.3830 N   0  0  0  0  0  0  0  0  0  0  0  0
   29.3650   28.2440   47.7320 C   0  0  0  0  0  0  0  0  0  0  0  0
   30.4940   28.8700   47.2940 N   0  0  0  0  0  0  0  0  0  0  0  0
   27.4750   29.2660   48.8890 C   0  0  1  0  0  0  0  0  0  0  0  0
   28.0060   28.8100   47.5240 C   0  0  2  0  0  0  0  0  0  0  0  0
   26.9960   27.7380   47.2020 C   0  0  0  0  0  0  0  0  0  0  0  0
   26.6740   27.1330   48.4050 O   0  0  0  0  0  0  0  0  0  0  0  0
   26.9230   27.9980   49.4400 C   0  0  0  0  0  0  0  0  0  0  0  0
   28.4990   29.8100   49.6510 O   0  0  0  0  0  0  0  0  0  0  0  0
   36.1633   30.5015   45.9309 H   0  0  0  0  0  0  0  0  0  0  0  0
   34.2776   30.2018   44.3107 H   0  0  0  0  0  0  0  0  0  0  0  0
   35.2185   28.3807   49.8298 H   0  0  0  0  0  0  0  0  0  0  0  0
   37.0208   28.1984   49.5303 H   0  0  0  0  0  0  0  0  0  0  0  0
   35.5364   29.8224   51.4788 H   0  0  0  0  0  0  0  0  0  0  0  0
   37.1616   28.9065   51.5273 H   0  0  0  0  0  0  0  0  0  0  0  0
   36.9969   31.3649   51.7622 H   0  0  0  0  0  0  0  0  0  0  0  0
   35.8929   31.9487   49.7662 H   0  0  0  0  0  0  0  0  0  0  0  0
   37.5810   32.4897   49.6953 H   0  0  0  0  0  0  0  0  0  0  0  0
   38.1260   30.1710   48.6487 H   0  0  0  0  0  0  0  0  0  0  0  0
   37.1818   31.2664   47.6153 H   0  0  0  0  0  0  0  0  0  0  0  0
   32.6492   26.5822   48.3991 H   0  0  0  0  0  0  0  0  0  0  0  0
   30.5563   25.4680   49.1885 H   0  0  0  0  0  0  0  0  0  0  0  0
   26.7209   30.0662   48.8578 H   0  0  0  0  0  0  0  0  0  0  0  0
   28.1041   29.5742   46.7389 H   0  0  0  0  0  0  0  0  0  0  0  0
   26.0989   28.1841   46.7479 H   0  0  0  0  0  0  0  0  0  0  0  0
   27.4014   27.0096   46.4843 H   0  0  0  0  0  0  0  0  0  0  0  0
   27.6516   27.5476   50.1301 H   0  0  0  0  0  0  0  0  0  0  0  0
   25.9900   28.2043   49.9849 H   0  0  0  0  0  0  0  0  0  0  0  0
   28.2899   29.6989   50.6123 H   0  0  0  0  0  0  0  0  0  0  0  0
  1  6  1  0
  1  7  1  0
  2  1  2  0
  3  4  2  0
  3  2  1  0
  4  5  1  0
  5 13  1  0
  5  6  2  0
  7 12  1  0
  7  8  1  0
  8  9  1  0
 10  9  1  0
 11 10  1  0
 12 11  1  0
 13 14  2  0
 14 15  1  0
 16 15  2  0
 17 16  1  0
 18 13  1  0
 18 17  2  0
 19 23  1  0
 19 24  1  0
 20 17  1  0
 20 19  1  0
 21 20  1  0
 21 22  1  0
 22 23  1  0
  2 25  1  0
  3 26  1  0
  8 27  1  0
  8 28  1  0
  9 29  1  0
  9 30  1  0
 10 31  1  0
 11 32  1  0
 11 33  1  0
 12 34  1  0
 12 35  1  0
 14 36  1  0
 15 37  1  0
 19 38  1  6
 20 39  1  6
 21 40  1  0
 21 41  1  0
 23 42  1  0
 23 43  1  0
 24 44  1  0
M  ISO  8  25  14  26  14  27  13  28  13  29  13  30  13  31   5  32  13
M  ISO  8  33  13  34  13  35  13  36  14  37  14  38  13  39  13  40  13
M  ISO  4  41  13  42  13  43  13  44   3
M  END
>  <minimizedAffinity>  (1) 
-5.92534637

>  <minimizedRMSD>  (1) 
0.628363252

$$$$
