
     RDKit          3D

 42 45  0  0  0  0  0  0  0  0999 V2000
   34.9900   29.5050   47.6540 C   0  0  0  0  0  0  0  0  0  0  0  0
   35.1500   30.0050   46.3610 C   0  0  0  0  0  0  0  0  0  0  0  0
   34.1240   29.8990   45.4320 C   0  0  0  0  0  0  0  0  0  0  0  0
   32.9710   29.2920   45.8430 N   0  0  0  0  0  0  0  0  0  0  0  0
   32.8380   28.8110   47.1130 C   0  0  0  0  0  0  0  0  0  0  0  0
   33.8380   28.9190   48.0030 N   0  0  0  0  0  0  0  0  0  0  0  0
   36.0120   29.5890   48.6460 N   0  0  0  0  0  0  0  0  0  0  0  0
   35.9590   28.8140   49.8660 C   0  0  0  0  0  0  0  0  0  0  0  0
   36.3240   29.5590   51.1040 C   0  0  0  0  0  0  0  0  0  0  0  0
   37.1990   30.6630   50.9750 N   0  0  0  0  0  0  0  0  0  0  0  0
   37.0300   31.4010   49.7320 C   0  0  0  0  0  0  0  0  0  0  0  0
   37.1820   30.3930   48.6130 C   0  0  0  0  0  0  0  0  0  0  0  0
   31.5840   28.1730   47.4930 C   0  0  0  0  0  0  0  0  0  0  0  0
   31.4280   27.6370   48.7400 C   0  0  0  0  0  0  0  0  0  0  0  0
   30.2630   27.0190   49.1610 C   0  0  0  0  0  0  0  0  0  0  0  0
   29.2680   26.9750   48.2470 N   0  0  0  0  0  0  0  0  0  0  0  0
   29.4170   27.5010   47.0180 C   0  0  0  0  0  0  0  0  0  0  0  0
   30.5690   28.1000   46.6330 N   0  0  0  0  0  0  0  0  0  0  0  0
   28.3250   27.4450   46.0360 C   0  0  0  0  0  0  0  0  0  0  0  0
   28.4000   26.5220   45.0120 C   0  0  0  0  0  0  0  0  0  0  0  0
   27.3920   26.4250   44.0540 C   0  0  0  0  0  0  0  0  0  0  0  0
   26.3130   27.2810   44.1580 C   0  0  0  0  0  0  0  0  0  0  0  0
   26.2250   28.2090   45.1790 C   0  0  0  0  0  0  0  0  0  0  0  0
   27.2250   28.2990   46.1220 C   0  0  0  0  0  0  0  0  0  0  0  0
   36.0967   30.4870   46.0757 H   0  0  0  0  0  0  0  0  0  0  0  0
   34.2345   30.2871   44.4087 H   0  0  0  0  0  0  0  0  0  0  0  0
   34.9328   28.4363   49.9855 H   0  0  0  0  0  0  0  0  0  0  0  0
   36.7089   28.0168   49.7556 H   0  0  0  0  0  0  0  0  0  0  0  0
   35.3901   29.9309   51.5506 H   0  0  0  0  0  0  0  0  0  0  0  0
   36.8831   28.8315   51.7107 H   0  0  0  0  0  0  0  0  0  0  0  0
   37.0288   31.3065   51.7610 H   0  0  0  0  0  0  0  0  0  0  0  0
   36.0319   31.8620   49.6959 H   0  0  0  0  0  0  0  0  0  0  0  0
   37.7708   32.2094   49.6441 H   0  0  0  0  0  0  0  0  0  0  0  0
   38.0759   29.7732   48.7763 H   0  0  0  0  0  0  0  0  0  0  0  0
   37.3015   30.8891   47.6385 H   0  0  0  0  0  0  0  0  0  0  0  0
   32.2703   27.6997   49.4447 H   0  0  0  0  0  0  0  0  0  0  0  0
   30.1545   26.5932   50.1694 H   0  0  0  0  0  0  0  0  0  0  0  0
   29.2700   25.8517   44.9511 H   0  0  0  0  0  0  0  0  0  0  0  0
   27.4541   25.6885   43.2393 H   0  0  0  0  0  0  0  0  0  0  0  0
   25.5063   27.2231   43.4124 H   0  0  0  0  0  0  0  0  0  0  0  0
   25.3536   28.8777   45.2385 H   0  0  0  0  0  0  0  0  0  0  0  0
   27.1570   29.0369   46.9349 H   0  0  0  0  0  0  0  0  0  0  0  0
  1  6  1  0
  1  7  1  0
  2  1  2  0
  3  4  2  0
  3  2  1  0
  4  5  1  0
  5 13  1  0
  5  6  2  0
  7  8  1  0
  8  9  1  0
 10  9  1  0
 11 10  1  0
 12  7  1  0
 12 11  1  0
 13 14  2  0
 14 15  1  0
 16 15  2  0
 17 16  1  0
 18 17  2  0
 18 13  1  0
 19 24  1  0
 19 17  1  0
 20 19  2  0
 21 22  2  0
 21 20  1  0
 22 23  1  0
 23 24  2  0
  2 25  1  0
  3 26  1  0
  8 27  1  0
  8 28  1  0
  9 29  1  0
  9 30  1  0
 10 31  1  0
 11 32  1  0
 11 33  1  0
 12 34  1  0
 12 35  1  0
 14 36  1  0
 15 37  1  0
 20 38  1  0
 21 39  1  0
 22 40  1  0
 23 41  1  0
 24 42  1  0
M  ISO  8  25  14  26  14  27  13  28  13  29  13  30  13  31   5  32  13
M  ISO  8  33  13  34  13  35  13  36  14  37  14  38  14  39  14  40  14
M  ISO  2  41  14  42  14
M  END
>  <minimizedAffinity>  (1) 
-5.43057013

>  <minimizedRMSD>  (1) 
0.965761542

$$$$
