
     RDKit          3D

 36 38  0  0  0  0  0  0  0  0999 V2000
   35.0160   29.5910   47.5600 C   0  0  0  0  0  0  0  0  0  0  0  0
   35.1730   29.9750   46.2420 C   0  0  0  0  0  0  0  0  0  0  0  0
   34.1440   29.8160   45.3370 C   0  0  0  0  0  0  0  0  0  0  0  0
   32.9750   29.2700   45.7930 N   0  0  0  0  0  0  0  0  0  0  0  0
   32.8420   28.8990   47.0920 C   0  0  0  0  0  0  0  0  0  0  0  0
   33.8490   29.0520   47.9850 N   0  0  0  0  0  0  0  0  0  0  0  0
   36.0450   29.7300   48.5410 N   0  0  0  0  0  0  0  0  0  0  0  0
   36.1160   28.8760   49.7130 C   0  0  0  0  0  0  0  0  0  0  0  0
   36.4220   29.5820   50.9860 C   0  0  0  0  0  0  0  0  0  0  0  0
   37.1930   30.7600   50.9090 N   0  0  0  0  0  0  0  0  0  0  0  0
   36.8860   31.5690   49.7310 C   0  0  0  0  0  0  0  0  0  0  0  0
   37.1100   30.6670   48.5440 C   0  0  0  0  0  0  0  0  0  0  0  0
   31.5730   28.3200   47.5280 C   0  0  0  0  0  0  0  0  0  0  0  0
   31.5550   27.3780   48.5340 C   0  0  0  0  0  0  0  0  0  0  0  0
   30.3870   26.7960   48.9890 C   0  0  0  0  0  0  0  0  0  0  0  0
   29.2500   27.2110   48.3820 N   0  0  0  0  0  0  0  0  0  0  0  0
   29.2720   28.1260   47.4070 C   0  0  0  0  0  0  0  0  0  0  0  0
   30.4270   28.6860   46.9750 N   0  0  0  0  0  0  0  0  0  0  0  0
   26.8160   27.9710   47.2220 C   0  0  0  0  0  0  0  0  0  0  0  0
   26.8550   27.1130   48.1440 O   0  0  0  0  0  0  0  0  0  0  0  0
   28.0520   28.5330   46.7970 N   0  0  0  0  0  0  0  0  0  0  0  0
   36.1271   30.4114   45.9114 H   0  0  0  0  0  0  0  0  0  0  0  0
   34.2592   30.1176   44.2854 H   0  0  0  0  0  0  0  0  0  0  0  0
   35.1453   28.3714   49.8272 H   0  0  0  0  0  0  0  0  0  0  0  0
   36.9506   28.1812   49.5378 H   0  0  0  0  0  0  0  0  0  0  0  0
   35.4626   29.8464   51.4548 H   0  0  0  0  0  0  0  0  0  0  0  0
   37.0454   28.8762   51.5545 H   0  0  0  0  0  0  0  0  0  0  0  0
   37.0132   31.3253   51.7510 H   0  0  0  0  0  0  0  0  0  0  0  0
   35.8404   31.9092   49.7618 H   0  0  0  0  0  0  0  0  0  0  0  0
   37.5177   32.4682   49.6813 H   0  0  0  0  0  0  0  0  0  0  0  0
   38.0739   30.1458   48.6398 H   0  0  0  0  0  0  0  0  0  0  0  0
   37.1348   31.2428   47.6070 H   0  0  0  0  0  0  0  0  0  0  0  0
   32.5084   27.0774   48.9931 H   0  0  0  0  0  0  0  0  0  0  0  0
   30.3814   26.0444   49.7922 H   0  0  0  0  0  0  0  0  0  0  0  0
   25.8631   28.2738   46.7634 H   0  0  0  0  0  0  0  0  0  0  0  0
   28.0641   29.2369   46.0452 H   0  0  0  0  0  0  0  0  0  0  0  0
  1  6  1  0
  1  7  1  0
  2  1  2  0
  3  4  2  0
  3  2  1  0
  4  5  1  0
  5 13  1  0
  5  6  2  0
  7 12  1  0
  7  8  1  0
  8  9  1  0
 10  9  1  0
 11 10  1  0
 12 11  1  0
 13 14  2  0
 14 15  1  0
 16 15  2  0
 17 16  1  0
 18 17  2  0
 18 13  1  0
 19 20  2  0
 21 19  1  0
 21 17  1  0
  2 22  1  0
  3 23  1  0
  8 24  1  0
  8 25  1  0
  9 26  1  0
  9 27  1  0
 10 28  1  0
 11 29  1  0
 11 30  1  0
 12 31  1  0
 12 32  1  0
 14 33  1  0
 15 34  1  0
 19 35  1  0
 21 36  1  0
M  ISO  8  22  14  23  14  24  13  25  13  26  13  27  13  28   5  29  13
M  ISO  6  30  13  31  13  32  13  33  14  34  14  35   6
M  END
>  <minimizedAffinity>  (1) 
-5.29305983

>  <minimizedRMSD>  (1) 
0.155948028

$$$$
