
     RDKit          3D

 34 36  0  0  0  0  0  0  0  0999 V2000
   34.9730   29.5640   47.5630 C   0  0  0  0  0  0  0  0  0  0  0  0
   35.1430   29.9490   46.2380 C   0  0  0  0  0  0  0  0  0  0  0  0
   34.1120   29.7950   45.3380 C   0  0  0  0  0  0  0  0  0  0  0  0
   32.9460   29.2590   45.8040 N   0  0  0  0  0  0  0  0  0  0  0  0
   32.8060   28.8940   47.0940 C   0  0  0  0  0  0  0  0  0  0  0  0
   33.8120   29.0410   47.9890 N   0  0  0  0  0  0  0  0  0  0  0  0
   36.0090   29.7000   48.5480 N   0  0  0  0  0  0  0  0  0  0  0  0
   36.0690   28.8580   49.7290 C   0  0  0  0  0  0  0  0  0  0  0  0
   36.3790   29.5700   50.9960 C   0  0  0  0  0  0  0  0  0  0  0  0
   37.1540   30.7480   50.9110 N   0  0  0  0  0  0  0  0  0  0  0  0
   36.8690   31.5450   49.7220 C   0  0  0  0  0  0  0  0  0  0  0  0
   37.0910   30.6210   48.5460 C   0  0  0  0  0  0  0  0  0  0  0  0
   31.5320   28.3260   47.5310 C   0  0  0  0  0  0  0  0  0  0  0  0
   31.4800   27.5300   48.6650 C   0  0  0  0  0  0  0  0  0  0  0  0
   30.3040   26.9630   49.1280 C   0  0  0  0  0  0  0  0  0  0  0  0
   29.2010   27.2390   48.3970 N   0  0  0  0  0  0  0  0  0  0  0  0
   29.2540   28.0090   47.3020 C   0  0  0  0  0  0  0  0  0  0  0  0
   30.4110   28.5560   46.8600 N   0  0  0  0  0  0  0  0  0  0  0  0
   28.0130   28.2530   46.5750 C   0  0  0  0  0  0  0  0  0  0  0  0
   26.9310   27.8550   47.1070 O   0  0  0  0  0  0  0  0  0  0  0  0
   36.1013   30.3768   45.9084 H   0  0  0  0  0  0  0  0  0  0  0  0
   34.2236   30.0922   44.2848 H   0  0  0  0  0  0  0  0  0  0  0  0
   35.0929   28.3645   49.8455 H   0  0  0  0  0  0  0  0  0  0  0  0
   36.8983   28.1549   49.5620 H   0  0  0  0  0  0  0  0  0  0  0  0
   35.4212   29.8393   51.4651 H   0  0  0  0  0  0  0  0  0  0  0  0
   37.0022   28.8660   51.5670 H   0  0  0  0  0  0  0  0  0  0  0  0
   36.9645   31.3242   51.7434 H   0  0  0  0  0  0  0  0  0  0  0  0
   35.8281   31.9004   49.7391 H   0  0  0  0  0  0  0  0  0  0  0  0
   37.5134   32.4347   49.6661 H   0  0  0  0  0  0  0  0  0  0  0  0
   38.0457   30.0862   48.6576 H   0  0  0  0  0  0  0  0  0  0  0  0
   37.1343   31.1824   47.6011 H   0  0  0  0  0  0  0  0  0  0  0  0
   32.4108   27.3410   49.2198 H   0  0  0  0  0  0  0  0  0  0  0  0
   30.2701   26.3318   50.0283 H   0  0  0  0  0  0  0  0  0  0  0  0
   28.0146   28.7636   45.6007 H   0  0  0  0  0  0  0  0  0  0  0  0
  1  6  1  0
  1  7  1  0
  2  1  2  0
  3  4  2  0
  3  2  1  0
  4  5  1  0
  5 13  1  0
  5  6  2  0
  7  8  1  0
  8  9  1  0
 10  9  1  0
 11 10  1  0
 12  7  1  0
 12 11  1  0
 13 14  2  0
 14 15  1  0
 16 15  2  0
 17 16  1  0
 18 17  2  0
 18 13  1  0
 19 20  2  0
 19 17  1  0
  2 21  1  0
  3 22  1  0
  8 23  1  0
  8 24  1  0
  9 25  1  0
  9 26  1  0
 10 27  1  0
 11 28  1  0
 11 29  1  0
 12 30  1  0
 12 31  1  0
 14 32  1  0
 15 33  1  0
 19 34  1  0
M  ISO  8  21  14  22  14  23  13  24  13  25  13  26  13  27   5  28  13
M  ISO  6  29  13  30  13  31  13  32  14  33  14  34   6
M  END
>  <minimizedAffinity>  (1) 
-4.66959429

>  <minimizedRMSD>  (1) 
0.174265012

$$$$
