
     RDKit          3D

 35 37  0  0  0  0  0  0  0  0999 V2000
   35.0980   29.6270   47.5600 C   0  0  0  0  0  0  0  0  0  0  0  0
   35.2710   30.0460   46.2530 C   0  0  0  0  0  0  0  0  0  0  0  0
   34.2420   29.9000   45.3260 C   0  0  0  0  0  0  0  0  0  0  0  0
   33.0760   29.3290   45.7730 N   0  0  0  0  0  0  0  0  0  0  0  0
   32.9380   28.9300   47.0540 C   0  0  0  0  0  0  0  0  0  0  0  0
   33.9460   29.0760   47.9510 N   0  0  0  0  0  0  0  0  0  0  0  0
   36.1230   29.7550   48.5530 N   0  0  0  0  0  0  0  0  0  0  0  0
   36.1720   28.9000   49.7190 C   0  0  0  0  0  0  0  0  0  0  0  0
   36.4850   29.5970   50.9990 C   0  0  0  0  0  0  0  0  0  0  0  0
   37.1990   30.8020   50.9320 N   0  0  0  0  0  0  0  0  0  0  0  0
   36.9630   31.5900   49.7490 C   0  0  0  0  0  0  0  0  0  0  0  0
   37.2010   30.6750   48.5720 C   0  0  0  0  0  0  0  0  0  0  0  0
   31.6780   28.3300   47.4730 C   0  0  0  0  0  0  0  0  0  0  0  0
   31.6480   27.4390   48.5200 C   0  0  0  0  0  0  0  0  0  0  0  0
   30.4750   26.8330   48.9660 C   0  0  0  0  0  0  0  0  0  0  0  0
   29.3440   27.1810   48.2940 N   0  0  0  0  0  0  0  0  0  0  0  0
   29.3840   28.0580   47.2660 C   0  0  0  0  0  0  0  0  0  0  0  0
   30.5380   28.6280   46.8570 N   0  0  0  0  0  0  0  0  0  0  0  0
   28.1330   28.4170   46.5530 C   0  0  0  0  0  0  0  0  0  0  0  0
   36.2259   30.4966   45.9445 H   0  0  0  0  0  0  0  0  0  0  0  0
   34.3581   30.2275   44.2823 H   0  0  0  0  0  0  0  0  0  0  0  0
   35.1915   28.4132   49.8265 H   0  0  0  0  0  0  0  0  0  0  0  0
   36.9951   28.1911   49.5459 H   0  0  0  0  0  0  0  0  0  0  0  0
   35.5284   29.8103   51.4983 H   0  0  0  0  0  0  0  0  0  0  0  0
   37.1565   28.9075   51.5317 H   0  0  0  0  0  0  0  0  0  0  0  0
   36.9410   31.3712   51.7507 H   0  0  0  0  0  0  0  0  0  0  0  0
   35.9274   31.9606   49.7393 H   0  0  0  0  0  0  0  0  0  0  0  0
   37.6282   32.4654   49.7141 H   0  0  0  0  0  0  0  0  0  0  0  0
   38.1547   30.1404   48.6930 H   0  0  0  0  0  0  0  0  0  0  0  0
   37.2560   31.2428   47.6315 H   0  0  0  0  0  0  0  0  0  0  0  0
   32.5922   27.1936   49.0282 H   0  0  0  0  0  0  0  0  0  0  0  0
   30.4641   26.1213   49.8047 H   0  0  0  0  0  0  0  0  0  0  0  0
   27.3450   28.6431   47.2864 H   0  0  0  0  0  0  0  0  0  0  0  0
   28.3111   29.3003   45.9221 H   0  0  0  0  0  0  0  0  0  0  0  0
   27.8156   27.5737   45.9221 H   0  0  0  0  0  0  0  0  0  0  0  0
  1  6  1  0
  1  7  1  0
  2  1  2  0
  3  4  2  0
  3  2  1  0
  4  5  1  0
  5 13  1  0
  5  6  2  0
  7 12  1  0
  7  8  1  0
  8  9  1  0
 10  9  1  0
 11 10  1  0
 12 11  1  0
 13 14  2  0
 14 15  1  0
 16 15  2  0
 17 16  1  0
 18 17  2  0
 18 13  1  0
 19 17  1  0
  2 20  1  0
  3 21  1  0
  8 22  1  0
  8 23  1  0
  9 24  1  0
  9 25  1  0
 10 26  1  0
 11 27  1  0
 11 28  1  0
 12 29  1  0
 12 30  1  0
 14 31  1  0
 15 32  1  0
 19 33  1  0
 19 34  1  0
 19 35  1  0
M  ISO  8  20  14  21  14  22  13  23  13  24  13  25  13  26   5  27  13
M  ISO  8  28  13  29  13  30  13  31  14  32  14  33   8  34   8  35   8
M  END
>  <minimizedAffinity>  (1) 
-4.64581871

>  <minimizedRMSD>  (1) 
0.0213214755

$$$$
