
     RDKit          3D

 35 37  0  0  0  0  0  0  0  0999 V2000
   35.0260   29.6020   47.5520 C   0  0  0  0  0  0  0  0  0  0  0  0
   35.2100   30.0030   46.2370 C   0  0  0  0  0  0  0  0  0  0  0  0
   34.1770   29.8520   45.3190 C   0  0  0  0  0  0  0  0  0  0  0  0
   33.0130   29.3050   45.7720 N   0  0  0  0  0  0  0  0  0  0  0  0
   32.8650   28.9210   47.0690 C   0  0  0  0  0  0  0  0  0  0  0  0
   33.8620   29.0670   47.9560 N   0  0  0  0  0  0  0  0  0  0  0  0
   36.0540   29.7350   48.5330 N   0  0  0  0  0  0  0  0  0  0  0  0
   36.1230   28.8800   49.7080 C   0  0  0  0  0  0  0  0  0  0  0  0
   36.4170   29.5860   50.9820 C   0  0  0  0  0  0  0  0  0  0  0  0
   37.1920   30.7570   50.9100 N   0  0  0  0  0  0  0  0  0  0  0  0
   36.8900   31.5760   49.7420 C   0  0  0  0  0  0  0  0  0  0  0  0
   37.1260   30.6570   48.5520 C   0  0  0  0  0  0  0  0  0  0  0  0
   31.5980   28.3420   47.4970 C   0  0  0  0  0  0  0  0  0  0  0  0
   31.5830   27.3280   48.4290 C   0  0  0  0  0  0  0  0  0  0  0  0
   30.4080   26.7410   48.8720 C   0  0  0  0  0  0  0  0  0  0  0  0
   29.2570   27.2360   48.3210 N   0  0  0  0  0  0  0  0  0  0  0  0
   29.2880   28.2230   47.4150 C   0  0  0  0  0  0  0  0  0  0  0  0
   30.4450   28.7970   46.9840 N   0  0  0  0  0  0  0  0  0  0  0  0
   28.0150   28.7270   46.8460 C   0  0  0  0  0  0  0  0  0  0  0  0
   27.6290   29.9070   47.4540 F   0  0  0  0  0  0  0  0  0  0  0  0
   27.0210   27.7700   47.0890 F   0  0  0  0  0  0  0  0  0  0  0  0
   28.1240   28.8370   45.4850 F   0  0  0  0  0  0  0  0  0  0  0  0
   36.1695   30.4388   45.9217 H   0  0  0  0  0  0  0  0  0  0  0  0
   34.2939   30.1612   44.2698 H   0  0  0  0  0  0  0  0  0  0  0  0
   35.1544   28.3699   49.8162 H   0  0  0  0  0  0  0  0  0  0  0  0
   36.9631   28.1906   49.5376 H   0  0  0  0  0  0  0  0  0  0  0  0
   35.4537   29.8557   51.4394 H   0  0  0  0  0  0  0  0  0  0  0  0
   37.0299   28.8787   51.5601 H   0  0  0  0  0  0  0  0  0  0  0  0
   37.0176   31.3173   51.7565 H   0  0  0  0  0  0  0  0  0  0  0  0
   35.8444   31.9166   49.7673 H   0  0  0  0  0  0  0  0  0  0  0  0
   37.5127   32.4817   49.6974 H   0  0  0  0  0  0  0  0  0  0  0  0
   38.0819   30.1250   48.6673 H   0  0  0  0  0  0  0  0  0  0  0  0
   37.1735   31.2286   47.6134 H   0  0  0  0  0  0  0  0  0  0  0  0
   32.5398   26.9704   48.8373 H   0  0  0  0  0  0  0  0  0  0  0  0
   30.4010   25.9314   49.6167 H   0  0  0  0  0  0  0  0  0  0  0  0
  1  6  1  0
  1  7  1  0
  2  1  2  0
  3  4  2  0
  3  2  1  0
  4  5  1  0
  5 13  1  0
  5  6  2  0
  7 12  1  0
  7  8  1  0
  8  9  1  0
 10  9  1  0
 11 10  1  0
 12 11  1  0
 13 14  2  0
 14 15  1  0
 16 15  2  0
 17 16  1  0
 18 17  2  0
 18 13  1  0
 19 21  1  0
 19 17  1  0
 19 20  1  0
 22 19  1  0
  2 23  1  0
  3 24  1  0
  8 25  1  0
  8 26  1  0
  9 27  1  0
  9 28  1  0
 10 29  1  0
 11 30  1  0
 11 31  1  0
 12 32  1  0
 12 33  1  0
 14 34  1  0
 15 35  1  0
M  ISO  8  23  14  24  14  25  13  26  13  27  13  28  13  29   5  30  13
M  ISO  5  31  13  32  13  33  13  34  14  35  14
M  END
>  <minimizedAffinity>  (1) 
-4.99458408

>  <minimizedRMSD>  (1) 
0.218829453

$$$$
