
     RDKit          3D

 30 32  0  0  1  0  0  0  0  0999 V2000
   38.1370   30.6710   47.6050 C   0  0  2  0  0  0  0  0  0  0  0  0
   36.6850   30.5820   47.3220 C   0  0  0  0  0  0  0  0  0  0  0  0
   37.2140   31.4960   48.3990 C   0  0  1  0  0  0  0  0  0  0  0  0
   40.1670   33.2910   45.8750 C   0  0  0  0  0  0  0  0  0  0  0  0
   40.7300   32.5440   44.8380 C   0  0  0  0  0  0  0  0  0  0  0  0
   40.4200   31.1590   44.7190 C   0  0  0  0  0  0  0  0  0  0  0  0
   39.5850   30.6250   45.6280 N   0  0  0  0  0  0  0  0  0  0  0  0
   39.0430   31.3730   46.6360 C   0  0  0  0  0  0  0  0  0  0  0  0
   39.3330   32.6980   46.7580 N   0  0  0  0  0  0  0  0  0  0  0  0
   36.9590   31.2800   49.8400 C   0  0  0  0  0  0  0  0  0  0  0  0
   35.7310   30.4060   50.0370 C   0  0  0  0  0  0  0  0  0  0  0  0
   36.2030   29.2870   50.9330 C   0  0  0  0  0  0  0  0  0  0  0  0
   37.2730   29.9890   51.7650 C   0  0  0  0  0  0  0  0  0  0  0  0
   38.0500   30.7000   50.6510 C   0  0  0  0  0  0  0  0  0  0  0  0
   38.9112   29.9238   47.8339 H   0  0  0  0  0  0  0  0  0  0  0  0
   36.2762   31.0026   46.3914 H   0  0  0  0  0  0  0  0  0  0  0  0
   35.9433   29.7710   47.2764 H   0  0  0  0  0  0  0  0  0  0  0  0
   37.1286   32.5686   48.6275 H   0  0  0  0  0  0  0  0  0  0  0  0
   40.4021   34.3611   45.9731 H   0  0  0  0  0  0  0  0  0  0  0  0
   41.4091   33.0227   44.1171 H   0  0  0  0  0  0  0  0  0  0  0  0
   40.8487   30.5473   43.9115 H   0  0  0  0  0  0  0  0  0  0  0  0
   36.8305   32.3078   50.2102 H   0  0  0  0  0  0  0  0  0  0  0  0
   34.9222   30.9749   50.5188 H   0  0  0  0  0  0  0  0  0  0  0  0
   35.3242   30.0357   49.0845 H   0  0  0  0  0  0  0  0  0  0  0  0
   35.3869   28.9084   51.5659 H   0  0  0  0  0  0  0  0  0  0  0  0
   36.5678   28.4029   50.3897 H   0  0  0  0  0  0  0  0  0  0  0  0
   36.8336   30.7034   52.4767 H   0  0  0  0  0  0  0  0  0  0  0  0
   37.8768   29.3244   52.4004 H   0  0  0  0  0  0  0  0  0  0  0  0
   38.6495   29.9883   50.0645 H   0  0  0  0  0  0  0  0  0  0  0  0
   38.7736   31.4426   51.0183 H   0  0  0  0  0  0  0  0  0  0  0  0
  1  3  1  0
  2  1  1  0
  2  3  1  0
  3 10  1  0
  4  9  2  0
  5  4  1  0
  6  5  2  0
  6  7  1  0
  7  8  2  0
  8  9  1  0
  8  1  1  0
 10 11  1  0
 10 14  1  0
 11 12  1  0
 12 13  1  0
 14 13  1  0
  1 15  1  1
  2 16  1  0
  2 17  1  0
  3 18  1  6
  4 19  1  0
  5 20  1  0
  6 21  1  0
 10 22  1  0
 11 23  1  0
 11 24  1  0
 12 25  1  0
 12 26  1  0
 13 27  1  0
 13 28  1  0
 14 29  1  0
 14 30  1  0
M  ISO  8  15  13  16  13  17  13  18  13  19  14  20  14  21  14  22  13
M  ISO  8  23  13  24  13  25  13  26  13  27  13  28  13  29  13  30  13
M  END
>  <minimizedAffinity>  (1) 
-5.94027519

>  <minimizedRMSD>  (1) 
3.51407743

$$$$
