
     RDKit          3D

 32 33  0  0  0  0  0  0  0  0999 V2000
   37.9640   31.3800   47.9740 Cl  0  0  0  0  0  0  0  0  0  0  0  0
   36.6620   30.6960   47.0240 C   0  0  0  0  0  0  0  0  0  0  0  0
   36.7800   30.6830   45.6580 C   0  0  0  0  0  0  0  0  0  0  0  0
   35.7700   30.1500   44.9010 C   0  0  0  0  0  0  0  0  0  0  0  0
   34.6590   29.6410   45.5170 C   0  0  0  0  0  0  0  0  0  0  0  0
   34.5620   29.6650   46.9000 C   0  0  0  0  0  0  0  0  0  0  0  0
   35.5670   30.1970   47.6890 C   0  0  0  0  0  0  0  0  0  0  0  0
   39.2700   33.0040   44.2430 C   0  0  0  0  0  0  0  0  0  0  0  0
   40.2280   32.0900   43.7210 C   0  0  0  0  0  0  0  0  0  0  0  0
   39.9820   30.7200   43.8750 C   0  0  0  0  0  0  0  0  0  0  0  0
   38.8470   30.3560   44.5120 N   0  0  0  0  0  0  0  0  0  0  0  0
   37.9580   31.2220   44.9960 C   0  0  0  0  0  0  0  0  0  0  0  0
   38.1840   32.5240   44.8530 N   0  0  0  0  0  0  0  0  0  0  0  0
   40.9550   29.8510   43.3450 N   0  0  0  0  0  0  0  0  0  0  0  0
   35.5140   30.2470   49.1710 C   0  0  0  0  0  0  0  0  0  0  0  0
   36.0160   29.0600   49.8700 C   0  0  0  0  0  0  0  0  0  0  0  0
   37.2920   30.0500   51.8260 C   0  0  0  0  0  0  0  0  0  0  0  0
   38.2120   30.4830   51.1040 O   0  0  0  0  0  0  0  0  0  0  0  0
   36.1910   29.3480   51.2810 N   0  0  0  0  0  0  0  0  0  0  0  0
   35.8517   30.1313   43.8042 H   0  0  0  0  0  0  0  0  0  0  0  0
   33.8435   29.2131   44.9154 H   0  0  0  0  0  0  0  0  0  0  0  0
   33.6641   29.2510   47.3820 H   0  0  0  0  0  0  0  0  0  0  0  0
   39.4221   34.0890   44.1453 H   0  0  0  0  0  0  0  0  0  0  0  0
   41.1346   32.4490   43.2118 H   0  0  0  0  0  0  0  0  0  0  0  0
   40.8334   28.8314   43.4254 H   0  0  0  0  0  0  0  0  0  0  0  0
   41.7883   30.2350   42.8769 H   0  0  0  0  0  0  0  0  0  0  0  0
   36.1111   31.1100   49.5007 H   0  0  0  0  0  0  0  0  0  0  0  0
   34.4468   30.3151   49.4286 H   0  0  0  0  0  0  0  0  0  0  0  0
   35.2951   28.2373   49.7535 H   0  0  0  0  0  0  0  0  0  0  0  0
   36.9861   28.7721   49.4387 H   0  0  0  0  0  0  0  0  0  0  0  0
   37.3375   30.2178   52.9122 H   0  0  0  0  0  0  0  0  0  0  0  0
   35.4633   29.0186   51.9312 H   0  0  0  0  0  0  0  0  0  0  0  0
  2  7  2  0
  2  1  1  0
  3  2  1  0
  4  5  1  0
  4  3  2  0
  5  6  2  0
  6  7  1  0
  7 15  1  0
  8 13  2  0
  9 10  2  0
  9  8  1  0
 10 11  1  0
 11 12  2  0
 12  3  1  0
 13 12  1  0
 14 10  1  0
 15 16  1  0
 16 19  1  0
 18 17  2  0
 19 17  1  0
  4 20  1  0
  5 21  1  0
  6 22  1  0
  8 23  1  0
  9 24  1  0
 14 25  1  0
 14 26  1  0
 15 27  1  0
 15 28  1  0
 16 29  1  0
 16 30  1  0
 17 31  1  0
 19 32  1  0
M  ISO  8  20  14  21  14  22  14  23  14  24  14  27   8  28   8  29   8
M  ISO  2  30   8  31   6
M  END
>  <minimizedAffinity>  (1) 
-5.40988207

>  <minimizedRMSD>  (1) 
1.39460516

$$$$
