
     RDKit          3D

 29 30  0  0  0  0  0  0  0  0999 V2000
   38.3760   31.3580   48.6650 Cl  0  0  0  0  0  0  0  0  0  0  0  0
   37.0480   30.7700   47.7040 C   0  0  0  0  0  0  0  0  0  0  0  0
   37.1380   30.8170   46.3360 C   0  0  0  0  0  0  0  0  0  0  0  0
   36.1050   30.3590   45.5680 C   0  0  0  0  0  0  0  0  0  0  0  0
   34.9790   29.8530   46.1830 C   0  0  0  0  0  0  0  0  0  0  0  0
   34.9120   29.8160   47.5770 C   0  0  0  0  0  0  0  0  0  0  0  0
   35.9530   30.2780   48.3720 C   0  0  0  0  0  0  0  0  0  0  0  0
   39.7820   33.1080   45.1730 C   0  0  0  0  0  0  0  0  0  0  0  0
   40.5860   32.2370   44.3960 C   0  0  0  0  0  0  0  0  0  0  0  0
   40.1830   30.9120   44.3100 C   0  0  0  0  0  0  0  0  0  0  0  0
   39.0640   30.5130   44.9570 N   0  0  0  0  0  0  0  0  0  0  0  0
   38.3200   31.3470   45.6830 C   0  0  0  0  0  0  0  0  0  0  0  0
   38.6920   32.6350   45.7800 N   0  0  0  0  0  0  0  0  0  0  0  0
   41.0070   30.0600   43.5240 N   0  0  0  0  0  0  0  0  0  0  0  0
   35.9040   30.2490   49.8320 C   0  0  0  0  0  0  0  0  0  0  0  0
   35.0440   29.2120   50.4520 C   0  0  0  0  0  0  0  0  0  0  0  0
   35.3500   29.2000   51.8330 O   0  0  0  0  0  0  0  0  0  0  0  0
   36.1707   30.3935   44.4705 H   0  0  0  0  0  0  0  0  0  0  0  0
   34.1386   29.4808   45.5787 H   0  0  0  0  0  0  0  0  0  0  0  0
   34.0103   29.4100   48.0588 H   0  0  0  0  0  0  0  0  0  0  0  0
   40.0552   34.1686   45.2751 H   0  0  0  0  0  0  0  0  0  0  0  0
   41.4905   32.5959   43.8832 H   0  0  0  0  0  0  0  0  0  0  0  0
   40.7654   29.0644   43.4181 H   0  0  0  0  0  0  0  0  0  0  0  0
   41.8454   30.4386   43.0607 H   0  0  0  0  0  0  0  0  0  0  0  0
   36.9300   30.0918   50.1963 H   0  0  0  0  0  0  0  0  0  0  0  0
   35.4530   31.2089   50.1238 H   0  0  0  0  0  0  0  0  0  0  0  0
   33.9830   29.4601   50.3013 H   0  0  0  0  0  0  0  0  0  0  0  0
   35.2251   28.2262   49.9988 H   0  0  0  0  0  0  0  0  0  0  0  0
   34.5108   29.2329   52.3572 H   0  0  0  0  0  0  0  0  0  0  0  0
  2  7  2  0
  2  1  1  0
  3  2  1  0
  4  5  1  0
  4  3  2  0
  5  6  2  0
  6  7  1  0
  7 15  1  0
  8 13  2  0
  9  8  1  0
 10  9  2  0
 10 11  1  0
 11 12  2  0
 12 13  1  0
 12  3  1  0
 14 10  1  0
 15 16  1  0
 16 17  1  0
  4 18  1  0
  5 19  1  0
  6 20  1  0
  8 21  1  0
  9 22  1  0
 14 23  1  0
 14 24  1  0
 15 25  1  0
 15 26  1  0
 16 27  1  0
 16 28  1  0
 17 29  1  0
M  ISO  8  18  14  19  14  20  14  21  14  22  14  25   8  26   8  27   8
M  ISO  2  28   8  29   3
M  END
>  <minimizedAffinity>  (1) 
-5.34655333

>  <minimizedRMSD>  (1) 
0.49826768

$$$$
