
     RDKit          3D

 40 42  0  0  0  0  0  0  0  0999 V2000
   37.6570   30.4430   48.5180 Cl  0  0  0  0  0  0  0  0  0  0  0  0
   36.4830   30.2950   47.2110 C   0  0  0  0  0  0  0  0  0  0  0  0
   36.8360   30.6850   45.9550 C   0  0  0  0  0  0  0  0  0  0  0  0
   35.9360   30.5730   44.9320 C   0  0  0  0  0  0  0  0  0  0  0  0
   34.6780   30.0630   45.1980 C   0  0  0  0  0  0  0  0  0  0  0  0
   34.3670   29.6780   46.5010 C   0  0  0  0  0  0  0  0  0  0  0  0
   35.2490   29.7820   47.5330 C   0  0  0  0  0  0  0  0  0  0  0  0
   39.8310   32.8470   45.9520 C   0  0  0  0  0  0  0  0  0  0  0  0
   40.6890   32.1230   45.0840 C   0  0  0  0  0  0  0  0  0  0  0  0
   40.2060   30.9400   44.5470 C   0  0  0  0  0  0  0  0  0  0  0  0
   38.9500   30.5170   44.8610 N   0  0  0  0  0  0  0  0  0  0  0  0
   38.1620   31.2250   45.6850 C   0  0  0  0  0  0  0  0  0  0  0  0
   38.6050   32.3790   46.2220 N   0  0  0  0  0  0  0  0  0  0  0  0
   41.0760   30.2340   43.6840 N   0  0  0  0  0  0  0  0  0  0  0  0
   34.9090   29.3890   48.8830 C   0  0  0  0  0  0  0  0  0  0  0  0
   34.1720   28.1530   49.1010 C   0  0  0  0  0  0  0  0  0  0  0  0
   32.8640   28.3840   49.4390 O   0  0  0  0  0  0  0  0  0  0  0  0
   32.5580   26.5720   47.5520 O   0  0  0  0  0  0  0  0  0  0  0  0
   31.8240   27.5910   48.3880 P   0  0  2  0  0  0  0  0  0  0  0  0
   31.1180   28.8050   47.4010 O   0  0  0  0  0  0  0  0  0  0  0  0
   30.5800   26.8260   49.1940 O   0  0  0  0  0  0  0  0  0  0  0  0
   29.4310   27.5100   49.6380 C   0  0  0  0  0  0  0  0  0  0  0  0
   28.7920   26.9510   50.7200 C   0  0  0  0  0  0  0  0  0  0  0  0
   27.3920   28.0840   50.9950 S   0  0  0  0  0  0  0  0  0  0  0  0
   27.9420   29.1660   49.5280 C   0  0  0  0  0  0  0  0  0  0  0  0
   28.8590   28.6120   49.1810 N   0  0  0  0  0  0  0  0  0  0  0  0
   36.2082   30.8838   43.9125 H   0  0  0  0  0  0  0  0  0  0  0  0
   33.9345   29.9628   44.3936 H   0  0  0  0  0  0  0  0  0  0  0  0
   33.3650   29.2723   46.7045 H   0  0  0  0  0  0  0  0  0  0  0  0
   40.1719   33.7909   46.4024 H   0  0  0  0  0  0  0  0  0  0  0  0
   41.6995   32.4870   44.8463 H   0  0  0  0  0  0  0  0  0  0  0  0
   42.0159   30.6049   43.4841 H   0  0  0  0  0  0  0  0  0  0  0  0
   40.7697   29.3489   43.2553 H   0  0  0  0  0  0  0  0  0  0  0  0
   35.8539   29.3015   49.4393 H   0  0  0  0  0  0  0  0  0  0  0  0
   34.2096   30.1710   49.2135 H   0  0  0  0  0  0  0  0  0  0  0  0
   34.1993   27.5564   48.1772 H   0  0  0  0  0  0  0  0  0  0  0  0
   34.6478   27.6185   49.9364 H   0  0  0  0  0  0  0  0  0  0  0  0
   30.7125   29.5023   47.9749 H   0  0  0  0  0  0  0  0  0  0  0  0
   29.0601   26.0436   51.2810 H   0  0  0  0  0  0  0  0  0  0  0  0
   27.4871   30.0840   49.1277 H   0  0  0  0  0  0  0  0  0  0  0  0
  2  7  2  0
  2  1  1  0
  3  2  1  0
  4  5  1  0
  4  3  2  0
  5  6  2  0
  6  7  1  0
  7 15  1  0
  8 13  2  0
  9  8  1  0
 10 11  1  0
 10  9  2  0
 11 12  2  0
 12  3  1  0
 12 13  1  0
 14 10  1  0
 15 16  1  0
 16 17  1  0
 19 18  2  0
 19 21  1  0
 19 17  1  0
 20 19  1  0
 21 22  1  0
 22 23  2  0
 23 24  1  0
 25 24  1  0
 26 25  2  0
 26 22  1  0
  4 27  1  0
  5 28  1  0
  6 29  1  0
  8 30  1  0
  9 31  1  0
 14 32  1  0
 14 33  1  0
 15 34  1  0
 15 35  1  0
 16 36  1  0
 16 37  1  0
 20 38  1  0
 23 39  1  0
 25 40  1  0
M  ISO  8  27  14  28  14  29  14  30  14  31  14  34   8  35   8  36   8
M  ISO  4  37   8  38   3  39  14  40  14
M  END
>  <minimizedAffinity>  (1) 
-6.22261953

>  <minimizedRMSD>  (1) 
1.32277989

$$$$
