
     RDKit          3D

 38 39  0  0  0  0  0  0  0  0999 V2000
   37.6400   30.4390   48.5180 Cl  0  0  0  0  0  0  0  0  0  0  0  0
   36.4710   30.2900   47.2040 C   0  0  0  0  0  0  0  0  0  0  0  0
   36.8250   30.6900   45.9470 C   0  0  0  0  0  0  0  0  0  0  0  0
   35.9280   30.5790   44.9210 C   0  0  0  0  0  0  0  0  0  0  0  0
   34.6750   30.0590   45.1830 C   0  0  0  0  0  0  0  0  0  0  0  0
   34.3630   29.6650   46.4840 C   0  0  0  0  0  0  0  0  0  0  0  0
   35.2410   29.7680   47.5190 C   0  0  0  0  0  0  0  0  0  0  0  0
   39.8240   32.8530   45.9830 C   0  0  0  0  0  0  0  0  0  0  0  0
   40.6890   32.1180   45.1000 C   0  0  0  0  0  0  0  0  0  0  0  0
   40.2050   30.9260   44.5390 C   0  0  0  0  0  0  0  0  0  0  0  0
   38.9470   30.5170   44.8490 N   0  0  0  0  0  0  0  0  0  0  0  0
   38.1540   31.2360   45.6900 C   0  0  0  0  0  0  0  0  0  0  0  0
   38.5980   32.3770   46.2360 N   0  0  0  0  0  0  0  0  0  0  0  0
   41.0670   30.2350   43.6890 N   0  0  0  0  0  0  0  0  0  0  0  0
   34.8990   29.3680   48.8670 C   0  0  0  0  0  0  0  0  0  0  0  0
   34.1480   28.1470   49.0840 C   0  0  0  0  0  0  0  0  0  0  0  0
   32.8430   28.3890   49.4280 O   0  0  0  0  0  0  0  0  0  0  0  0
   32.5160   26.5270   47.5980 O   0  0  0  0  0  0  0  0  0  0  0  0
   31.7940   27.5850   48.3950 P   0  0  2  0  0  0  0  0  0  0  0  0
   31.1150   28.7870   47.3760 O   0  0  0  0  0  0  0  0  0  0  0  0
   30.5240   26.8640   49.2030 O   0  0  0  0  0  0  0  0  0  0  0  0
   29.6970   27.5410   50.0900 C   0  0  0  0  0  0  0  0  0  0  0  0
   28.9660   26.8150   50.7930 O   0  0  0  0  0  0  0  0  0  0  0  0
   29.6480   28.9390   50.2250 N   0  0  0  0  0  0  0  0  0  0  0  0
   36.1994   30.8984   43.9040 H   0  0  0  0  0  0  0  0  0  0  0  0
   33.9338   29.9572   44.3766 H   0  0  0  0  0  0  0  0  0  0  0  0
   33.3627   29.2526   46.6825 H   0  0  0  0  0  0  0  0  0  0  0  0
   40.1642   33.7921   46.4437 H   0  0  0  0  0  0  0  0  0  0  0  0
   41.7021   32.4801   44.8706 H   0  0  0  0  0  0  0  0  0  0  0  0
   42.0091   30.6053   43.4988 H   0  0  0  0  0  0  0  0  0  0  0  0
   40.7618   29.3541   43.2511 H   0  0  0  0  0  0  0  0  0  0  0  0
   35.8449   29.2633   49.4186 H   0  0  0  0  0  0  0  0  0  0  0  0
   34.2090   30.1567   49.2015 H   0  0  0  0  0  0  0  0  0  0  0  0
   34.1648   27.5530   48.1583 H   0  0  0  0  0  0  0  0  0  0  0  0
   34.6198   27.6075   49.9185 H   0  0  0  0  0  0  0  0  0  0  0  0
   30.7118   29.5008   47.9310 H   0  0  0  0  0  0  0  0  0  0  0  0
   29.0067   29.3684   50.9071 H   0  0  0  0  0  0  0  0  0  0  0  0
   30.2534   29.5342   49.6419 H   0  0  0  0  0  0  0  0  0  0  0  0
  2  7  2  0
  2  1  1  0
  3  2  1  0
  4  5  1  0
  4  3  2  0
  5  6  2  0
  6  7  1  0
  7 15  1  0
  8 13  2  0
  9  8  1  0
 10 11  1  0
 10  9  2  0
 11 12  2  0
 12  3  1  0
 12 13  1  0
 14 10  1  0
 15 16  1  0
 16 17  1  0
 19 18  2  0
 19 21  1  0
 19 17  1  0
 20 19  1  0
 21 22  1  0
 22 24  1  0
 22 23  2  0
  4 25  1  0
  5 26  1  0
  6 27  1  0
  8 28  1  0
  9 29  1  0
 14 30  1  0
 14 31  1  0
 15 32  1  0
 15 33  1  0
 16 34  1  0
 16 35  1  0
 20 36  1  0
 24 37  1  0
 24 38  1  0
M  ISO  8  25  14  26  14  27  14  28  14  29  14  32   8  33   8  34   8
M  ISO  2  35   8  36   3
M  END
>  <minimizedAffinity>  (1) 
-6.00638056

>  <minimizedRMSD>  (1) 
0.468624741

$$$$
