
     RDKit          3D

 40 41  0  0  0  0  0  0  0  0999 V2000
   37.6420   30.4380   48.5220 Cl  0  0  0  0  0  0  0  0  0  0  0  0
   36.4750   30.2910   47.2080 C   0  0  0  0  0  0  0  0  0  0  0  0
   36.8260   30.6900   45.9550 C   0  0  0  0  0  0  0  0  0  0  0  0
   35.9290   30.5800   44.9280 C   0  0  0  0  0  0  0  0  0  0  0  0
   34.6740   30.0610   45.1880 C   0  0  0  0  0  0  0  0  0  0  0  0
   34.3640   29.6660   46.4920 C   0  0  0  0  0  0  0  0  0  0  0  0
   35.2460   29.7690   47.5270 C   0  0  0  0  0  0  0  0  0  0  0  0
   39.8230   32.8480   45.9710 C   0  0  0  0  0  0  0  0  0  0  0  0
   40.6840   32.1250   45.0980 C   0  0  0  0  0  0  0  0  0  0  0  0
   40.2000   30.9290   44.5410 C   0  0  0  0  0  0  0  0  0  0  0  0
   38.9440   30.5170   44.8570 N   0  0  0  0  0  0  0  0  0  0  0  0
   38.1520   31.2360   45.6940 C   0  0  0  0  0  0  0  0  0  0  0  0
   38.5970   32.3750   46.2320 N   0  0  0  0  0  0  0  0  0  0  0  0
   41.0710   30.2310   43.6810 N   0  0  0  0  0  0  0  0  0  0  0  0
   34.9070   29.3570   48.8720 C   0  0  0  0  0  0  0  0  0  0  0  0
   34.1510   28.1230   49.0780 C   0  0  0  0  0  0  0  0  0  0  0  0
   32.8410   28.3860   49.4340 O   0  0  0  0  0  0  0  0  0  0  0  0
   32.5100   26.5570   47.5560 O   0  0  0  0  0  0  0  0  0  0  0  0
   31.7950   27.5880   48.3950 P   0  0  2  0  0  0  0  0  0  0  0  0
   31.0930   28.8010   47.4030 O   0  0  0  0  0  0  0  0  0  0  0  0
   30.5450   26.8260   49.1980 O   0  0  0  0  0  0  0  0  0  0  0  0
   29.8140   27.7540   49.9050 C   0  0  0  0  0  0  0  0  0  0  0  0
   28.7930   27.0710   50.7970 C   0  0  0  0  0  0  0  0  0  0  0  0
   36.2018   30.8994   43.9114 H   0  0  0  0  0  0  0  0  0  0  0  0
   33.9322   29.9608   44.3820 H   0  0  0  0  0  0  0  0  0  0  0  0
   33.3641   29.2537   46.6926 H   0  0  0  0  0  0  0  0  0  0  0  0
   40.1621   33.7891   46.4285 H   0  0  0  0  0  0  0  0  0  0  0  0
   41.6954   32.4906   44.8669 H   0  0  0  0  0  0  0  0  0  0  0  0
   42.0112   30.6041   43.4866 H   0  0  0  0  0  0  0  0  0  0  0  0
   40.7675   29.3477   43.2468 H   0  0  0  0  0  0  0  0  0  0  0  0
   35.8537   29.2476   49.4213 H   0  0  0  0  0  0  0  0  0  0  0  0
   34.2183   30.1424   49.2168 H   0  0  0  0  0  0  0  0  0  0  0  0
   34.1580   27.5394   48.1456 H   0  0  0  0  0  0  0  0  0  0  0  0
   34.6249   27.5597   49.8954 H   0  0  0  0  0  0  0  0  0  0  0  0
   30.6880   29.5008   47.9742 H   0  0  0  0  0  0  0  0  0  0  0  0
   30.4958   28.3507   50.5288 H   0  0  0  0  0  0  0  0  0  0  0  0
   29.2820   28.4009   49.1919 H   0  0  0  0  0  0  0  0  0  0  0  0
   29.0529   27.2449   51.8516 H   0  0  0  0  0  0  0  0  0  0  0  0
   27.7938   27.4831   50.5929 H   0  0  0  0  0  0  0  0  0  0  0  0
   28.7925   25.9901   50.5929 H   0  0  0  0  0  0  0  0  0  0  0  0
  2  7  2  0
  2  1  1  0
  3  2  1  0
  4  5  1  0
  4  3  2  0
  5  6  2  0
  6  7  1  0
  7 15  1  0
  8 13  2  0
  9  8  1  0
 10 11  1  0
 10  9  2  0
 11 12  2  0
 12  3  1  0
 12 13  1  0
 14 10  1  0
 15 16  1  0
 16 17  1  0
 19 18  2  0
 19 21  1  0
 19 17  1  0
 20 19  1  0
 21 22  1  0
 22 23  1  0
  4 24  1  0
  5 25  1  0
  6 26  1  0
  8 27  1  0
  9 28  1  0
 14 29  1  0
 14 30  1  0
 15 31  1  0
 15 32  1  0
 16 33  1  0
 16 34  1  0
 20 35  1  0
 22 36  1  0
 22 37  1  0
 23 38  1  0
 23 39  1  0
 23 40  1  0
M  ISO  8  24  14  25  14  26  14  27  14  28  14  31   8  32   8  33   8
M  ISO  7  34   8  35   3  36   8  37   8  38   8  39   8  40   8
M  END
>  <minimizedAffinity>  (1) 
-5.54971075

>  <minimizedRMSD>  (1) 
0.107795663

$$$$
