
     RDKit          3D

 24 26  0  0  1  0  0  0  0  0999 V2000
   37.0790   30.0420   49.4410 C   0  0  2  0  0  0  0  0  0  0  0  0
   37.2060   30.5040   50.8400 C   0  0  0  0  0  0  0  0  0  0  0  0
   37.2500   31.4840   49.6900 C   0  0  1  0  0  0  0  0  0  0  0  0
   34.0240   29.7230   47.3580 C   0  0  0  0  0  0  0  0  0  0  0  0
   33.4010   28.5800   47.9210 C   0  0  0  0  0  0  0  0  0  0  0  0
   34.0450   27.9430   49.0200 C   0  0  0  0  0  0  0  0  0  0  0  0
   35.2100   28.4640   49.4570 N   0  0  0  0  0  0  0  0  0  0  0  0
   35.7740   29.5550   48.8940 C   0  0  0  0  0  0  0  0  0  0  0  0
   35.2060   30.1880   47.8600 N   0  0  0  0  0  0  0  0  0  0  0  0
   38.5440   32.1960   49.4850 C   0  0  0  0  0  0  0  0  0  0  0  0
   38.9130   32.6830   48.1280 C   0  0  0  0  0  0  0  0  0  0  0  0
   38.5430   33.6400   49.2600 C   0  0  0  0  0  0  0  0  0  0  0  0
   37.6077   29.2800   48.8496 H   0  0  0  0  0  0  0  0  0  0  0  0
   36.3352   30.4787   51.5116 H   0  0  0  0  0  0  0  0  0  0  0  0
   37.8627   30.2618   51.6886 H   0  0  0  0  0  0  0  0  0  0  0  0
   36.6948   32.3672   49.3410 H   0  0  0  0  0  0  0  0  0  0  0  0
   33.5511   30.2395   46.5097 H   0  0  0  0  0  0  0  0  0  0  0  0
   32.4502   28.1975   47.5214 H   0  0  0  0  0  0  0  0  0  0  0  0
   33.6063   27.0543   49.4973 H   0  0  0  0  0  0  0  0  0  0  0  0
   39.0330   31.5358   50.2165 H   0  0  0  0  0  0  0  0  0  0  0  0
   38.2287   32.5351   47.2795 H   0  0  0  0  0  0  0  0  0  0  0  0
   39.7693   32.5562   47.4493 H   0  0  0  0  0  0  0  0  0  0  0  0
   39.3163   34.2703   49.7234 H   0  0  0  0  0  0  0  0  0  0  0  0
   37.8085   34.4487   49.3887 H   0  0  0  0  0  0  0  0  0  0  0  0
  1  3  1  0
  1  2  1  0
  3  2  1  0
  4  9  2  0
  4  5  1  0
  5  6  2  0
  6  7  1  0
  8  1  1  0
  8  7  2  0
  9  8  1  0
 10  3  1  0
 11 12  1  0
 11 10  1  0
 12 10  1  0
  1 13  1  6
  2 14  1  0
  2 15  1  0
  3 16  1  1
  4 17  1  0
  5 18  1  0
  6 19  1  0
 10 20  1  0
 11 21  1  0
 11 22  1  0
 12 23  1  0
 12 24  1  0
M  ISO  8  13  13  14  13  15  13  16  13  17  14  18  14  19  14  20  13
M  ISO  4  21  13  22  13  23  13  24  13
M  END
>  <minimizedAffinity>  (1) 
-4.91554499

>  <minimizedRMSD>  (1) 
4.8560605

$$$$
