
     RDKit          3D

 21 22  0  0  0  0  0  0  0  0999 V2000
   37.7860   33.2510   49.4680 Cl  0  0  0  0  0  0  0  0  0  0  0  0
   38.3270   32.3180   48.0920 C   0  0  0  0  0  0  0  0  0  0  0  0
   37.8280   31.0480   47.8470 C   0  0  0  0  0  0  0  0  0  0  0  0
   38.2980   30.3760   46.7510 C   0  0  0  0  0  0  0  0  0  0  0  0
   39.2370   30.9190   45.9010 C   0  0  0  0  0  0  0  0  0  0  0  0
   39.7170   32.2050   46.1820 C   0  0  0  0  0  0  0  0  0  0  0  0
   40.9090   32.8550   45.0760 Cl  0  0  0  0  0  0  0  0  0  0  0  0
   39.2700   32.9190   47.2800 C   0  0  0  0  0  0  0  0  0  0  0  0
   36.2250   29.4320   50.8740 C   0  0  0  0  0  0  0  0  0  0  0  0
   37.1820   29.9190   49.9780 C   0  0  0  0  0  0  0  0  0  0  0  0
   36.8360   30.5350   48.7900 C   0  0  0  0  0  0  0  0  0  0  0  0
   35.5020   30.6370   48.5510 N   0  0  0  0  0  0  0  0  0  0  0  0
   34.5780   30.1710   49.4080 C   0  0  0  0  0  0  0  0  0  0  0  0
   34.9280   29.5760   50.5530 N   0  0  0  0  0  0  0  0  0  0  0  0
   38.5250   29.7690   50.3120 O   0  0  0  0  0  0  0  0  0  0  0  0
   37.9127   29.3672   46.5414 H   0  0  0  0  0  0  0  0  0  0  0  0
   39.5995   30.3586   45.0266 H   0  0  0  0  0  0  0  0  0  0  0  0
   39.6512   33.9275   47.4983 H   0  0  0  0  0  0  0  0  0  0  0  0
   36.5251   28.9454   51.8138 H   0  0  0  0  0  0  0  0  0  0  0  0
   33.5114   30.2813   49.1625 H   0  0  0  0  0  0  0  0  0  0  0  0
   39.2276   30.1027   49.6996 H   0  0  0  0  0  0  0  0  0  0  0  0
  2  1  1  0
  3  2  2  0
  3 11  1  0
  4  3  1  0
  5  6  1  0
  5  4  2  0
  6  8  2  0
  7  6  1  0
  8  2  1  0
 10 15  1  0
 10  9  2  0
 11 10  1  0
 12 11  2  0
 12 13  1  0
 13 14  2  0
 14  9  1  0
  4 16  1  0
  5 17  1  0
  8 18  1  0
  9 19  1  0
 13 20  1  0
 15 21  1  0
M  ISO  6  16  14  17  14  18  14  19  14  20  14  21   3
M  END
>  <minimizedAffinity>  (1) 
-5.90968561

>  <minimizedRMSD>  (1) 
0.468995541

$$$$
