
     RDKit          3D

 24 25  0  0  0  0  0  0  0  0999 V2000
   35.1690   28.1870   49.2120 C   0  0  0  0  0  0  0  0  0  0  0  0
   36.1490   29.1910   49.2160 C   0  0  0  0  0  0  0  0  0  0  0  0
   36.0040   30.3780   48.5210 C   0  0  0  0  0  0  0  0  0  0  0  0
   34.8490   30.5050   47.8330 N   0  0  0  0  0  0  0  0  0  0  0  0
   33.9000   29.5510   47.8200 C   0  0  0  0  0  0  0  0  0  0  0  0
   34.0580   28.4160   48.4950 N   0  0  0  0  0  0  0  0  0  0  0  0
   37.7010   30.3600   46.1090 Cl  0  0  0  0  0  0  0  0  0  0  0  0
   37.8700   31.4840   47.4360 C   0  0  0  0  0  0  0  0  0  0  0  0
   37.0200   31.4120   48.5290 C   0  0  0  0  0  0  0  0  0  0  0  0
   37.2190   32.3360   49.5320 C   0  0  0  0  0  0  0  0  0  0  0  0
   38.2070   33.2990   49.4800 C   0  0  0  0  0  0  0  0  0  0  0  0
   39.0350   33.3320   48.3630 C   0  0  0  0  0  0  0  0  0  0  0  0
   40.2730   34.5640   48.3320 Cl  0  0  0  0  0  0  0  0  0  0  0  0
   38.8750   32.4280   47.3300 C   0  0  0  0  0  0  0  0  0  0  0  0
   37.4460   29.2620   51.3790 C   0  0  0  0  0  0  0  0  0  0  0  0
   36.4810   29.7810   52.0000 O   0  0  0  0  0  0  0  0  0  0  0  0
   37.3270   28.9460   49.9770 N   0  0  0  0  0  0  0  0  0  0  0  0
   35.3057   27.2509   49.7733 H   0  0  0  0  0  0  0  0  0  0  0  0
   32.9784   29.7126   47.2416 H   0  0  0  0  0  0  0  0  0  0  0  0
   36.5614   32.3049   50.4132 H   0  0  0  0  0  0  0  0  0  0  0  0
   38.3358   34.0208   50.3000 H   0  0  0  0  0  0  0  0  0  0  0  0
   39.5298   32.4585   46.4467 H   0  0  0  0  0  0  0  0  0  0  0  0
   38.3857   29.0484   51.9095 H   0  0  0  0  0  0  0  0  0  0  0  0
   38.1360   28.5211   49.5017 H   0  0  0  0  0  0  0  0  0  0  0  0
  1  2  2  0
  2 17  1  0
  3  9  1  0
  3  2  1  0
  4  3  2  0
  5  4  1  0
  5  6  2  0
  6  1  1  0
  7  8  1  0
  8  9  2  0
  9 10  1  0
 11 10  2  0
 12 11  1  0
 13 12  1  0
 14  8  1  0
 14 12  2  0
 15 16  2  0
 17 15  1  0
  1 18  1  0
  5 19  1  0
 10 20  1  0
 11 21  1  0
 14 22  1  0
 15 23  1  0
 17 24  1  0
M  ISO  6  18  14  19  14  20  14  21  14  22  14  23   6
M  END
>  <minimizedAffinity>  (1) 
-5.28564024

>  <minimizedRMSD>  (1) 
2.96686363

$$$$
