
     RDKit          3D

 23 24  0  0  0  0  0  0  0  0999 V2000
   36.1680   29.3400   50.6560 C   0  0  0  0  0  0  0  0  0  0  0  0
   37.1310   29.9070   49.8210 C   0  0  0  0  0  0  0  0  0  0  0  0
   36.8700   30.3890   48.5450 C   0  0  0  0  0  0  0  0  0  0  0  0
   35.5720   30.2670   48.1490 N   0  0  0  0  0  0  0  0  0  0  0  0
   34.6450   29.7170   48.9600 C   0  0  0  0  0  0  0  0  0  0  0  0
   34.9260   29.2670   50.1730 N   0  0  0  0  0  0  0  0  0  0  0  0
   37.6170   33.1160   49.3570 Cl  0  0  0  0  0  0  0  0  0  0  0  0
   38.2890   32.2570   47.9980 C   0  0  0  0  0  0  0  0  0  0  0  0
   37.8810   30.9760   47.6860 C   0  0  0  0  0  0  0  0  0  0  0  0
   38.4580   30.3690   46.6020 C   0  0  0  0  0  0  0  0  0  0  0  0
   39.4200   30.9840   45.8210 C   0  0  0  0  0  0  0  0  0  0  0  0
   39.8030   32.3010   46.1870 C   0  0  0  0  0  0  0  0  0  0  0  0
   41.0170   33.0260   45.1680 Cl  0  0  0  0  0  0  0  0  0  0  0  0
   39.2500   32.9380   47.2610 C   0  0  0  0  0  0  0  0  0  0  0  0
   38.4640   29.9910   50.3250 N   0  0  0  0  0  0  0  0  0  0  0  0
   33.3880   29.6910   48.3590 O   0  0  0  0  0  0  0  0  0  0  0  0
   36.4196   28.9717   51.6615 H   0  0  0  0  0  0  0  0  0  0  0  0
   38.1426   29.3480   46.3412 H   0  0  0  0  0  0  0  0  0  0  0  0
   39.8682   30.4751   44.9549 H   0  0  0  0  0  0  0  0  0  0  0  0
   39.5559   33.9587   47.5341 H   0  0  0  0  0  0  0  0  0  0  0  0
   39.2091   30.4020   49.7446 H   0  0  0  0  0  0  0  0  0  0  0  0
   38.6807   29.6406   51.2690 H   0  0  0  0  0  0  0  0  0  0  0  0
   32.6140   29.3121   48.8464 H   0  0  0  0  0  0  0  0  0  0  0  0
  2 15  1  0
  2  1  2  0
  3  2  1  0
  4  3  2  0
  4  5  1  0
  5  6  2  0
  6  1  1  0
  8  7  1  0
  9  8  2  0
  9  3  1  0
 10  9  1  0
 11 12  1  0
 11 10  2  0
 12 14  2  0
 13 12  1  0
 14  8  1  0
 16  5  1  0
  1 17  1  0
 10 18  1  0
 11 19  1  0
 14 20  1  0
 15 21  1  0
 15 22  1  0
 16 23  1  0
M  ISO  5  17  14  18  14  19  14  20  14  23   3
M  END
>  <minimizedAffinity>  (1) 
-6.07167387

>  <minimizedRMSD>  (1) 
0.349677503

$$$$
