
     RDKit          3D

 19 20  0  0  1  0  0  0  0  0999 V2000
   38.5380   31.9040   49.2380 C   0  0  2  0  0  0  0  0  0  0  0  0
   38.3620   33.3660   49.1120 C   0  0  0  0  0  0  0  0  0  0  0  0
   38.2910   32.4680   47.9000 C   0  0  1  0  0  0  0  0  0  0  0  0
   35.3750   30.0550   49.8540 C   0  0  0  0  0  0  0  0  0  0  0  0
   35.6550   29.4110   51.0630 C   0  0  0  0  0  0  0  0  0  0  0  0
   36.9200   29.6190   51.6780 C   0  0  0  0  0  0  0  0  0  0  0  0
   37.7920   30.4440   51.0410 N   0  0  0  0  0  0  0  0  0  0  0  0
   37.4980   31.0570   49.8690 C   0  0  0  0  0  0  0  0  0  0  0  0
   36.3000   30.8710   49.2710 N   0  0  0  0  0  0  0  0  0  0  0  0
   39.4330   32.5580   46.9210 C   0  0  0  0  0  0  0  0  0  0  0  0
   39.6630   31.4220   46.5290 O   0  0  0  0  0  0  0  0  0  0  0  0
   39.3185   31.2717   49.6865 H   0  0  0  0  0  0  0  0  0  0  0  0
   37.4512   33.8481   49.4967 H   0  0  0  0  0  0  0  0  0  0  0  0
   38.9472   34.2529   49.3966 H   0  0  0  0  0  0  0  0  0  0  0  0
   37.5607   32.2642   47.1031 H   0  0  0  0  0  0  0  0  0  0  0  0
   34.3999   29.9023   49.3684 H   0  0  0  0  0  0  0  0  0  0  0  0
   34.9079   28.7533   51.5313 H   0  0  0  0  0  0  0  0  0  0  0  0
   37.1818   29.1326   52.6293 H   0  0  0  0  0  0  0  0  0  0  0  0
   39.9610   33.4735   46.6159 H   0  0  0  0  0  0  0  0  0  0  0  0
  1  8  1  0
  2  1  1  0
  3  2  1  0
  3  1  1  0
  4  5  2  0
  5  6  1  0
  7  6  2  0
  8  7  1  0
  9  4  1  0
  9  8  2  0
 10  3  1  0
 11 10  2  0
  1 12  1  6
  2 13  1  0
  2 14  1  0
  3 15  1  6
  4 16  1  0
  5 17  1  0
  6 18  1  0
 10 19  1  0
M  ISO  8  12  13  13  13  14  13  15  13  16  14  17  14  18  14  19   6
M  END
>  <minimizedAffinity>  (1) 
-4.40172529

>  <minimizedRMSD>  (1) 
4.78979158

$$$$
