
     RDKit          3D

 28 29  0  0  0  0  0  0  0  0999 V2000
   36.2290   29.2470   50.4550 C   0  0  0  0  0  0  0  0  0  0  0  0
   37.2010   29.8590   49.6660 C   0  0  0  0  0  0  0  0  0  0  0  0
   36.9560   30.3490   48.3970 C   0  0  0  0  0  0  0  0  0  0  0  0
   35.6750   30.1910   47.9600 N   0  0  0  0  0  0  0  0  0  0  0  0
   34.7310   29.6030   48.7140 C   0  0  0  0  0  0  0  0  0  0  0  0
   34.9900   29.1380   49.9350 N   0  0  0  0  0  0  0  0  0  0  0  0
   37.6180   33.0810   49.2620 Cl  0  0  0  0  0  0  0  0  0  0  0  0
   38.3410   32.2660   47.9090 C   0  0  0  0  0  0  0  0  0  0  0  0
   37.9730   30.9870   47.5750 C   0  0  0  0  0  0  0  0  0  0  0  0
   38.5930   30.4110   46.4890 C   0  0  0  0  0  0  0  0  0  0  0  0
   39.5530   31.0540   45.7370 C   0  0  0  0  0  0  0  0  0  0  0  0
   39.8960   32.3590   46.1200 C   0  0  0  0  0  0  0  0  0  0  0  0
   41.1130   33.1520   45.1530 Cl  0  0  0  0  0  0  0  0  0  0  0  0
   39.3000   32.9750   47.2010 C   0  0  0  0  0  0  0  0  0  0  0  0
   38.5010   29.9740   50.2110 N   0  0  0  0  0  0  0  0  0  0  0  0
   33.5070   29.5570   48.0570 O   0  0  0  0  0  0  0  0  0  0  0  0
   32.0200   27.8940   46.6640 O   0  0  0  0  0  0  0  0  0  0  0  0
   32.6910   28.0530   48.0290 P   0  0  0  0  0  0  0  0  0  0  0  0
   33.8180   26.8290   48.1740 O   0  0  0  0  0  0  0  0  0  0  0  0
   31.4850   27.9730   49.2000 O   0  0  0  0  0  0  0  0  0  0  0  0
   36.4631   28.8684   51.4609 H   0  0  0  0  0  0  0  0  0  0  0  0
   38.3081   29.3866   46.2073 H   0  0  0  0  0  0  0  0  0  0  0  0
   40.0292   30.5650   44.8744 H   0  0  0  0  0  0  0  0  0  0  0  0
   39.5773   33.9987   47.4929 H   0  0  0  0  0  0  0  0  0  0  0  0
   39.2514   30.4193   49.6637 H   0  0  0  0  0  0  0  0  0  0  0  0
   38.6974   29.6125   51.1552 H   0  0  0  0  0  0  0  0  0  0  0  0
   33.9858   26.6468   49.1325 H   0  0  0  0  0  0  0  0  0  0  0  0
   31.8966   28.0003   50.1000 H   0  0  0  0  0  0  0  0  0  0  0  0
  2 15  1  0
  2  1  2  0
  3  2  1  0
  4  3  2  0
  4  5  1  0
  5  6  2  0
  6  1  1  0
  8  7  1  0
  9  8  2  0
  9  3  1  0
 10  9  1  0
 11 12  1  0
 11 10  2  0
 12 14  2  0
 13 12  1  0
 14  8  1  0
 16  5  1  0
 17 18  2  0
 18 16  1  0
 18 19  1  0
 18 20  1  0
  1 21  1  0
 10 22  1  0
 11 23  1  0
 14 24  1  0
 15 25  1  0
 15 26  1  0
 19 27  1  0
 20 28  1  0
M  ISO  6  21  14  22  14  23  14  24  14  27   3  28   3
M  END
>  <minimizedAffinity>  (1) 
-5.90153456

>  <minimizedRMSD>  (1) 
1.94405425

$$$$
