
     RDKit          3D

 25 26  0  0  0  0  0  0  0  0999 V2000
   36.5020   29.5440   51.2030 C   0  0  0  0  0  0  0  0  0  0  0  0
   37.3330   30.1540   50.2670 C   0  0  0  0  0  0  0  0  0  0  0  0
   36.9970   30.3480   48.9490 C   0  0  0  0  0  0  0  0  0  0  0  0
   35.7650   29.8960   48.5990 N   0  0  0  0  0  0  0  0  0  0  0  0
   34.9560   29.3040   49.5040 C   0  0  0  0  0  0  0  0  0  0  0  0
   35.3040   29.1270   50.7740 N   0  0  0  0  0  0  0  0  0  0  0  0
   37.4910   33.1900   49.5410 Cl  0  0  0  0  0  0  0  0  0  0  0  0
   38.1710   32.3180   48.1840 C   0  0  0  0  0  0  0  0  0  0  0  0
   37.8840   30.9900   47.9860 C   0  0  0  0  0  0  0  0  0  0  0  0
   38.4550   30.3720   46.8970 C   0  0  0  0  0  0  0  0  0  0  0  0
   39.2890   31.0360   46.0180 C   0  0  0  0  0  0  0  0  0  0  0  0
   39.5460   32.4070   46.2790 C   0  0  0  0  0  0  0  0  0  0  0  0
   40.6090   33.1860   45.1260 Cl  0  0  0  0  0  0  0  0  0  0  0  0
   38.9970   33.0500   47.3470 C   0  0  0  0  0  0  0  0  0  0  0  0
   38.6110   30.5950   50.7420 N   0  0  0  0  0  0  0  0  0  0  0  0
   33.6400   28.8620   48.9720 C   0  0  0  0  0  0  0  0  0  0  0  0
   36.8158   29.4105   52.2488 H   0  0  0  0  0  0  0  0  0  0  0  0
   38.2391   29.3081   46.7195 H   0  0  0  0  0  0  0  0  0  0  0  0
   39.7348   30.5237   45.1527 H   0  0  0  0  0  0  0  0  0  0  0  0
   39.2025   34.1136   47.5381 H   0  0  0  0  0  0  0  0  0  0  0  0
   39.2700   31.0536   50.0968 H   0  0  0  0  0  0  0  0  0  0  0  0
   38.8706   30.4534   51.7286 H   0  0  0  0  0  0  0  0  0  0  0  0
   32.9636   28.6348   49.8092 H   0  0  0  0  0  0  0  0  0  0  0  0
   33.2054   29.6635   48.3566 H   0  0  0  0  0  0  0  0  0  0  0  0
   33.7773   27.9607   48.3566 H   0  0  0  0  0  0  0  0  0  0  0  0
  2 15  1  0
  2  1  2  0
  3  2  1  0
  4  3  2  0
  4  5  1  0
  5  6  2  0
  6  1  1  0
  8  7  1  0
  9  8  2  0
  9  3  1  0
 10  9  1  0
 11 12  1  0
 11 10  2  0
 12 14  2  0
 13 12  1  0
 14  8  1  0
 16  5  1  0
  1 17  1  0
 10 18  1  0
 11 19  1  0
 14 20  1  0
 15 21  1  0
 15 22  1  0
 16 23  1  0
 16 24  1  0
 16 25  1  0
M  ISO  7  17  14  18  14  19  14  20  14  23   8  24   8  25   8
M  END
>  <minimizedAffinity>  (1) 
-5.89896774

>  <minimizedRMSD>  (1) 
0.684458256

$$$$
