
     RDKit          3D

 35 37  0  0  0  0  0  0  0  0999 V2000
   35.5180   28.3330   49.7490 C   0  0  0  0  0  0  0  0  0  0  0  0
   36.5050   29.3000   49.5280 C   0  0  0  0  0  0  0  0  0  0  0  0
   36.4050   30.2730   48.5550 C   0  0  0  0  0  0  0  0  0  0  0  0
   35.2750   30.2320   47.8160 N   0  0  0  0  0  0  0  0  0  0  0  0
   34.3260   29.3060   48.0250 C   0  0  0  0  0  0  0  0  0  0  0  0
   34.4420   28.3860   48.9610 N   0  0  0  0  0  0  0  0  0  0  0  0
   36.3000   32.5120   50.4800 Cl  0  0  0  0  0  0  0  0  0  0  0  0
   37.4620   32.3620   49.1910 C   0  0  0  0  0  0  0  0  0  0  0  0
   37.4400   31.2780   48.3310 C   0  0  0  0  0  0  0  0  0  0  0  0
   38.3920   31.2500   47.3510 C   0  0  0  0  0  0  0  0  0  0  0  0
   39.3480   32.2190   47.1800 C   0  0  0  0  0  0  0  0  0  0  0  0
   39.3300   33.3050   48.0800 C   0  0  0  0  0  0  0  0  0  0  0  0
   40.5500   34.5280   47.8500 Cl  0  0  0  0  0  0  0  0  0  0  0  0
   38.3920   33.3840   49.0870 C   0  0  0  0  0  0  0  0  0  0  0  0
   32.1690   28.4340   47.0540 C   0  0  0  0  0  0  0  0  0  0  0  0
   33.1610   29.3870   47.1490 C   0  0  0  0  0  0  0  0  0  0  0  0
   32.9820   30.4850   46.3250 C   0  0  0  0  0  0  0  0  0  0  0  0
   31.9120   30.6620   45.4570 C   0  0  0  0  0  0  0  0  0  0  0  0
   30.9560   29.6840   45.4020 C   0  0  0  0  0  0  0  0  0  0  0  0
   31.0910   28.5700   46.2060 C   0  0  0  0  0  0  0  0  0  0  0  0
   32.3300   27.0110   48.0720 S   0  0  0  0  0  0  0  0  0  0  0  0
   31.0020   26.5950   48.6370 O   0  0  0  0  0  0  0  0  0  0  0  0
   32.8100   25.8300   47.2570 O   0  0  0  0  0  0  0  0  0  0  0  0
   37.6660   29.2530   50.3690 N   0  0  0  0  0  0  0  0  0  0  0  0
   35.6235   27.5680   50.5324 H   0  0  0  0  0  0  0  0  0  0  0  0
   38.3918   30.3974   46.6560 H   0  0  0  0  0  0  0  0  0  0  0  0
   40.0959   32.1520   46.3762 H   0  0  0  0  0  0  0  0  0  0  0  0
   38.3820   34.2326   49.7868 H   0  0  0  0  0  0  0  0  0  0  0  0
   33.7446   31.2770   46.3603 H   0  0  0  0  0  0  0  0  0  0  0  0
   31.8351   31.5633   44.8311 H   0  0  0  0  0  0  0  0  0  0  0  0
   30.0931   29.7842   44.7272 H   0  0  0  0  0  0  0  0  0  0  0  0
   30.3271   27.7793   46.1693 H   0  0  0  0  0  0  0  0  0  0  0  0
   33.2125   27.3428   49.0660 H   0  0  0  0  0  0  0  0  0  0  0  0
   38.4201   29.9436   50.2450 H   0  0  0  0  0  0  0  0  0  0  0  0
   37.7456   28.5287   51.0969 H   0  0  0  0  0  0  0  0  0  0  0  0
  2  1  2  0
  2 24  1  0
  3  2  1  0
  4  5  1  0
  4  3  2  0
  5  6  2  0
  6  1  1  0
  8  7  1  0
  9  3  1  0
  9  8  2  0
 10  9  1  0
 11 10  2  0
 11 12  1  0
 12 14  2  0
 13 12  1  0
 14  8  1  0
 15 16  2  0
 15 21  1  0
 16  5  1  0
 17 16  1  0
 18 17  2  0
 19 18  1  0
 19 20  2  0
 20 15  1  0
 21 22  2  0
 23 21  2  0
  1 25  1  0
 10 26  1  0
 11 27  1  0
 14 28  1  0
 17 29  1  0
 18 30  1  0
 19 31  1  0
 20 32  1  0
 21 33  1  0
 24 34  1  0
 24 35  1  0
M  ISO  8  25  14  26  14  27  14  28  14  29  14  30  14  31  14  32  14
M  ISO  1  33  11
M  END
>  <minimizedAffinity>  (1) 
-5.85492754

>  <minimizedRMSD>  (1) 
2.02267385

$$$$
