
     RDKit          3D

 41 43  0  0  0  0  0  0  0  0999 V2000
   35.0060   28.2050   49.2690 C   0  0  0  0  0  0  0  0  0  0  0  0
   36.0150   29.1570   49.1840 C   0  0  0  0  0  0  0  0  0  0  0  0
   35.9940   30.1880   48.2800 C   0  0  0  0  0  0  0  0  0  0  0  0
   34.9170   30.2400   47.4690 N   0  0  0  0  0  0  0  0  0  0  0  0
   33.9480   29.3180   47.5620 C   0  0  0  0  0  0  0  0  0  0  0  0
   34.0020   28.3520   48.4180 N   0  0  0  0  0  0  0  0  0  0  0  0
   36.0750   32.2080   50.3760 Cl  0  0  0  0  0  0  0  0  0  0  0  0
   37.2110   32.1180   49.0850 C   0  0  0  0  0  0  0  0  0  0  0  0
   37.0980   31.1390   48.1460 C   0  0  0  0  0  0  0  0  0  0  0  0
   38.0450   31.1120   47.1320 C   0  0  0  0  0  0  0  0  0  0  0  0
   39.0760   32.0030   47.0180 C   0  0  0  0  0  0  0  0  0  0  0  0
   39.1460   33.0040   48.0230 C   0  0  0  0  0  0  0  0  0  0  0  0
   40.4510   34.1520   47.9020 Cl  0  0  0  0  0  0  0  0  0  0  0  0
   38.2200   33.0670   49.0570 C   0  0  0  0  0  0  0  0  0  0  0  0
   31.6820   28.7110   46.6840 C   0  0  0  0  0  0  0  0  0  0  0  0
   32.7940   29.5270   46.6870 C   0  0  0  0  0  0  0  0  0  0  0  0
   32.8190   30.5220   45.7380 C   0  0  0  0  0  0  0  0  0  0  0  0
   31.8200   30.7300   44.8070 C   0  0  0  0  0  0  0  0  0  0  0  0
   30.7360   29.9110   44.8140 C   0  0  0  0  0  0  0  0  0  0  0  0
   30.6960   28.9200   45.7550 C   0  0  0  0  0  0  0  0  0  0  0  0
   31.5560   27.4820   47.9290 S   0  0  0  0  0  0  0  0  0  0  0  0
   30.3330   26.7770   47.5820 O   0  0  0  0  0  0  0  0  0  0  0  0
   32.3900   26.2800   47.5280 O   0  0  0  0  0  0  0  0  0  0  0  0
   31.0080   27.7680   49.5090 C   0  0  0  0  0  0  0  0  0  0  0  0
   29.6070   27.1640   49.6880 C   0  0  0  0  0  0  0  0  0  0  0  0
   37.1010   29.0310   50.1100 N   0  0  0  0  0  0  0  0  0  0  0  0
   35.0393   27.3813   49.9973 H   0  0  0  0  0  0  0  0  0  0  0  0
   37.9608   30.3226   46.3705 H   0  0  0  0  0  0  0  0  0  0  0  0
   39.8068   31.9478   46.1977 H   0  0  0  0  0  0  0  0  0  0  0  0
   38.2860   33.8468   49.8300 H   0  0  0  0  0  0  0  0  0  0  0  0
   33.6893   31.1945   45.7191 H   0  0  0  0  0  0  0  0  0  0  0  0
   31.9007   31.5448   44.0725 H   0  0  0  0  0  0  0  0  0  0  0  0
   29.9195   30.0406   44.0883 H   0  0  0  0  0  0  0  0  0  0  0  0
   29.8222   28.2519   45.7673 H   0  0  0  0  0  0  0  0  0  0  0  0
   31.7008   27.3035   50.2261 H   0  0  0  0  0  0  0  0  0  0  0  0
   30.9630   28.8523   49.6884 H   0  0  0  0  0  0  0  0  0  0  0  0
   29.3836   27.0677   50.7608 H   0  0  0  0  0  0  0  0  0  0  0  0
   28.8615   27.8207   49.2157 H   0  0  0  0  0  0  0  0  0  0  0  0
   29.5727   26.1711   49.2157 H   0  0  0  0  0  0  0  0  0  0  0  0
   37.8755   29.7097   50.0908 H   0  0  0  0  0  0  0  0  0  0  0  0
   37.1072   28.2617   50.7949 H   0  0  0  0  0  0  0  0  0  0  0  0
  2  1  2  0
  2 26  1  0
  3  2  1  0
  4  5  1  0
  4  3  2  0
  5  6  2  0
  6  1  1  0
  8  7  1  0
  9  3  1  0
  9  8  2  0
 10  9  1  0
 11 10  2  0
 11 12  1  0
 12 14  2  0
 13 12  1  0
 14  8  1  0
 15 16  2  0
 15 21  1  0
 16  5  1  0
 17 16  1  0
 18 19  1  0
 18 17  2  0
 19 20  2  0
 20 15  1  0
 21 24  1  0
 22 21  2  0
 23 21  2  0
 24 25  1  0
  1 27  1  0
 10 28  1  0
 11 29  1  0
 14 30  1  0
 17 31  1  0
 18 32  1  0
 19 33  1  0
 20 34  1  0
 24 35  1  0
 24 36  1  0
 25 37  1  0
 25 38  1  0
 25 39  1  0
 26 40  1  0
 26 41  1  0
M  ISO  8  27  14  28  14  29  14  30  14  31  14  32  14  33  14  34  14
M  ISO  5  35   8  36   8  37   8  38   8  39   8
M  END
>  <minimizedAffinity>  (1) 
-5.84809399

>  <minimizedRMSD>  (1) 
0.688935816

$$$$
