
     RDKit          3D

 38 40  0  0  0  0  0  0  0  0999 V2000
   35.0110   28.1870   49.2250 C   0  0  0  0  0  0  0  0  0  0  0  0
   36.0130   29.1460   49.1640 C   0  0  0  0  0  0  0  0  0  0  0  0
   35.9760   30.2090   48.3000 C   0  0  0  0  0  0  0  0  0  0  0  0
   34.8870   30.2800   47.5040 N   0  0  0  0  0  0  0  0  0  0  0  0
   33.9250   29.3600   47.5660 C   0  0  0  0  0  0  0  0  0  0  0  0
   34.0020   28.3600   48.3930 N   0  0  0  0  0  0  0  0  0  0  0  0
   36.0390   32.1740   50.4420 Cl  0  0  0  0  0  0  0  0  0  0  0  0
   37.1760   32.1310   49.1480 C   0  0  0  0  0  0  0  0  0  0  0  0
   37.0740   31.1700   48.1880 C   0  0  0  0  0  0  0  0  0  0  0  0
   38.0270   31.1770   47.1780 C   0  0  0  0  0  0  0  0  0  0  0  0
   39.0480   32.0780   47.0900 C   0  0  0  0  0  0  0  0  0  0  0  0
   39.1070   33.0580   48.1170 C   0  0  0  0  0  0  0  0  0  0  0  0
   40.3990   34.2190   48.0250 Cl  0  0  0  0  0  0  0  0  0  0  0  0
   38.1820   33.0850   49.1330 C   0  0  0  0  0  0  0  0  0  0  0  0
   31.7060   28.7100   46.5980 C   0  0  0  0  0  0  0  0  0  0  0  0
   32.7740   29.5650   46.6790 C   0  0  0  0  0  0  0  0  0  0  0  0
   32.7870   30.6160   45.7950 C   0  0  0  0  0  0  0  0  0  0  0  0
   31.8030   30.8440   44.8460 C   0  0  0  0  0  0  0  0  0  0  0  0
   30.7550   29.9750   44.7800 C   0  0  0  0  0  0  0  0  0  0  0  0
   30.7290   28.9240   45.6600 C   0  0  0  0  0  0  0  0  0  0  0  0
   31.6140   27.3980   47.7710 S   0  0  0  0  0  0  0  0  0  0  0  0
   30.4320   26.6370   47.3920 O   0  0  0  0  0  0  0  0  0  0  0  0
   32.5380   26.2910   47.3650 O   0  0  0  0  0  0  0  0  0  0  0  0
   31.0430   27.6270   49.3570 C   0  0  0  0  0  0  0  0  0  0  0  0
   37.0950   29.0180   50.0960 N   0  0  0  0  0  0  0  0  0  0  0  0
   35.0556   27.3374   49.9223 H   0  0  0  0  0  0  0  0  0  0  0  0
   37.9540   30.4054   46.3974 H   0  0  0  0  0  0  0  0  0  0  0  0
   39.7825   32.0474   46.2717 H   0  0  0  0  0  0  0  0  0  0  0  0
   38.2388   33.8505   49.9209 H   0  0  0  0  0  0  0  0  0  0  0  0
   33.6305   31.3204   45.8432 H   0  0  0  0  0  0  0  0  0  0  0  0
   31.8662   31.7043   44.1635 H   0  0  0  0  0  0  0  0  0  0  0  0
   29.9521   30.1132   44.0409 H   0  0  0  0  0  0  0  0  0  0  0  0
   29.8853   28.2198   45.6113 H   0  0  0  0  0  0  0  0  0  0  0  0
   31.8173   27.3164   50.0739 H   0  0  0  0  0  0  0  0  0  0  0  0
   30.8055   28.6899   49.5113 H   0  0  0  0  0  0  0  0  0  0  0  0
   30.1369   27.0227   49.5113 H   0  0  0  0  0  0  0  0  0  0  0  0
   37.8630   29.7044   50.0910 H   0  0  0  0  0  0  0  0  0  0  0  0
   37.1043   28.2397   50.7706 H   0  0  0  0  0  0  0  0  0  0  0  0
  2  1  2  0
  2 25  1  0
  3  2  1  0
  4  5  1  0
  4  3  2  0
  5  6  2  0
  6  1  1  0
  8  7  1  0
  9  3  1  0
  9  8  2  0
 10  9  1  0
 11 10  2  0
 11 12  1  0
 12 14  2  0
 13 12  1  0
 14  8  1  0
 15 16  2  0
 15 21  1  0
 16  5  1  0
 17 16  1  0
 18 17  2  0
 19 18  1  0
 19 20  2  0
 20 15  1  0
 21 24  1  0
 22 21  2  0
 23 21  2  0
  1 26  1  0
 10 27  1  0
 11 28  1  0
 14 29  1  0
 17 30  1  0
 18 31  1  0
 19 32  1  0
 20 33  1  0
 24 34  1  0
 24 35  1  0
 24 36  1  0
 25 37  1  0
 25 38  1  0
M  ISO  8  26  14  27  14  28  14  29  14  30  14  31  14  32  14  33  14
M  ISO  3  34   8  35   8  36   8
M  END
>  <minimizedAffinity>  (1) 
-5.75409269

>  <minimizedRMSD>  (1) 
0.65884304

$$$$
