
     RDKit          3D

 27 29  0  0  0  0  0  0  0  0999 V2000
   36.1600   29.4610   49.3770 C   0  0  0  0  0  0  0  0  0  0  0  0
   36.3640   30.4190   48.3870 C   0  0  0  0  0  0  0  0  0  0  0  0
   35.5400   30.3510   47.2710 C   0  0  0  0  0  0  0  0  0  0  0  0
   34.5900   29.3740   47.1970 N   0  0  0  0  0  0  0  0  0  0  0  0
   34.4290   28.4670   48.1810 C   0  0  0  0  0  0  0  0  0  0  0  0
   35.2220   28.5190   49.2720 N   0  0  0  0  0  0  0  0  0  0  0  0
   33.4120   27.4400   48.0750 C   0  0  0  0  0  0  0  0  0  0  0  0
   33.7030   26.2260   47.5030 C   0  0  0  0  0  0  0  0  0  0  0  0
   32.7590   25.2220   47.3840 C   0  0  0  0  0  0  0  0  0  0  0  0
   31.5060   25.5210   47.8780 C   0  0  0  0  0  0  0  0  0  0  0  0
   31.1760   26.7380   48.4620 C   0  0  0  0  0  0  0  0  0  0  0  0
   32.1640   27.6740   48.5400 N   0  0  0  0  0  0  0  0  0  0  0  0
   37.3660   31.4760   48.4300 C   0  0  0  0  0  0  0  0  0  0  0  0
   37.5190   32.3050   49.5170 C   0  0  0  0  0  0  0  0  0  0  0  0
   38.4620   33.3150   49.5810 C   0  0  0  0  0  0  0  0  0  0  0  0
   39.2730   33.5030   48.5300 N   0  0  0  0  0  0  0  0  0  0  0  0
   39.1220   32.6840   47.4550 C   0  0  0  0  0  0  0  0  0  0  0  0
   38.1990   31.7080   47.4160 N   0  0  0  0  0  0  0  0  0  0  0  0
   36.7939   29.4821   50.2757 H   0  0  0  0  0  0  0  0  0  0  0  0
   35.6522   31.0785   46.4536 H   0  0  0  0  0  0  0  0  0  0  0  0
   34.7209   26.0459   47.1268 H   0  0  0  0  0  0  0  0  0  0  0  0
   32.9919   24.2495   46.9258 H   0  0  0  0  0  0  0  0  0  0  0  0
   30.7231   24.7517   47.8054 H   0  0  0  0  0  0  0  0  0  0  0  0
   30.1638   26.9370   48.8439 H   0  0  0  0  0  0  0  0  0  0  0  0
   36.8557   32.1568   50.3819 H   0  0  0  0  0  0  0  0  0  0  0  0
   38.5448   33.9504   50.4751 H   0  0  0  0  0  0  0  0  0  0  0  0
   39.7799   32.8257   46.5849 H   0  0  0  0  0  0  0  0  0  0  0  0
  2 13  1  0
  2  1  2  0
  3  2  1  0
  4  3  2  0
  4  5  1  0
  5  6  2  0
  6  1  1  0
  7  5  1  0
  7 12  1  0
  8  7  2  0
  9  8  1  0
  9 10  2  0
 10 11  1  0
 11 12  2  0
 13 14  2  0
 14 15  1  0
 16 15  2  0
 17 16  1  0
 18 17  2  0
 18 13  1  0
  1 19  1  0
  3 20  1  0
  8 21  1  0
  9 22  1  0
 10 23  1  0
 11 24  1  0
 14 25  1  0
 15 26  1  0
 17 27  1  0
M  ISO  8  19  14  20  14  21  14  22  14  23  14  24  14  25  14  26  14
M  ISO  1  27  14
M  END
>  <minimizedAffinity>  (1) 
-5.30504227

>  <minimizedRMSD>  (1) 
3.97074819

$$$$
