
     RDKit          3D

 19 20  0  0  1  0  0  0  0  0999 V2000
   36.8290   29.7050   49.3970 C   0  0  2  0  0  0  0  0  0  0  0  0
   35.5820   29.2890   48.7220 C   0  0  0  0  0  0  0  0  0  0  0  0
   35.5550   29.9120   50.1050 C   0  0  1  0  0  0  0  0  0  0  0  0
   38.2780   33.1300   49.2230 C   0  0  0  0  0  0  0  0  0  0  0  0
   39.0240   33.0760   48.0350 C   0  0  0  0  0  0  0  0  0  0  0  0
   39.0110   31.8530   47.3020 C   0  0  0  0  0  0  0  0  0  0  0  0
   38.2940   30.8120   47.7740 N   0  0  0  0  0  0  0  0  0  0  0  0
   37.5830   30.9080   48.9340 C   0  0  0  0  0  0  0  0  0  0  0  0
   37.5700   32.0500   49.6540 N   0  0  0  0  0  0  0  0  0  0  0  0
   35.1830   29.1330   51.2500 N   0  0  0  0  0  0  0  0  0  0  0  0
   37.7719   29.1846   49.6208 H   0  0  0  0  0  0  0  0  0  0  0  0
   35.2084   29.8523   47.8542 H   0  0  0  0  0  0  0  0  0  0  0  0
   35.2058   28.3576   48.2738 H   0  0  0  0  0  0  0  0  0  0  0  0
   35.0624   30.7764   50.5742 H   0  0  0  0  0  0  0  0  0  0  0  0
   38.2653   34.0578   49.8138 H   0  0  0  0  0  0  0  0  0  0  0  0
   39.5978   33.9457   47.6824 H   0  0  0  0  0  0  0  0  0  0  0  0
   39.5780   31.7594   46.3641 H   0  0  0  0  0  0  0  0  0  0  0  0
   35.4281   29.6462   52.1088 H   0  0  0  0  0  0  0  0  0  0  0  0
   34.1680   28.9590   51.2318 H   0  0  0  0  0  0  0  0  0  0  0  0
  1  3  1  0
  2  1  1  0
  2  3  1  0
  3 10  1  0
  4  9  2  0
  5  4  1  0
  6  7  1  0
  6  5  2  0
  7  8  2  0
  8  1  1  0
  8  9  1  0
  1 11  1  1
  2 12  1  0
  2 13  1  0
  3 14  1  6
  4 15  1  0
  5 16  1  0
  6 17  1  0
 10 18  1  0
 10 19  1  0
M  ISO  8  11  13  12  13  13  13  14  13  15  14  16  14  17  14  18   5
M  ISO  1  19   5
M  END
>  <minimizedAffinity>  (1) 
-3.86188006

>  <minimizedRMSD>  (1) 
0.984981716

$$$$
