
     RDKit          3D

 47 51  0  0  1  0  0  0  0  0999 V2000
   36.9240   30.8420   48.7170 N   0  0  0  0  0  0  0  0  0  0  0  0
   37.5400   30.6040   50.0060 C   0  0  0  0  0  0  0  0  0  0  0  0
   38.6920   31.5100   50.3020 C   0  0  0  0  0  0  0  0  0  0  0  0
   38.4490   32.8890   49.7170 C   0  0  0  0  0  0  0  0  0  0  0  0
   38.4330   32.7300   48.2280 C   0  0  0  0  0  0  0  0  0  0  0  0
   37.3690   31.7910   47.7520 C   0  0  1  0  0  0  0  0  0  0  0  0
   39.2530   31.1700   46.4980 C   0  0  0  0  0  0  0  0  0  0  0  0
   37.8710   31.1470   46.4990 C   0  0  0  0  0  0  0  0  0  0  0  0
   37.2020   30.5870   45.4330 C   0  0  0  0  0  0  0  0  0  0  0  0
   37.9240   30.0590   44.3840 C   0  0  0  0  0  0  0  0  0  0  0  0
   37.4330   29.4850   43.2850 N   0  0  0  0  0  0  0  0  0  0  0  0
   38.4910   29.1200   42.5410 C   0  0  0  0  0  0  0  0  0  0  0  0
   39.6050   29.4800   43.2050 N   0  0  0  0  0  0  0  0  0  0  0  0
   39.3020   30.0810   44.3790 C   0  0  0  0  0  0  0  0  0  0  0  0
   39.9920   30.6360   45.4370 C   0  0  0  0  0  0  0  0  0  0  0  0
   35.6320   28.7780   48.9540 C   0  0  0  0  0  0  0  0  0  0  0  0
   35.7810   30.0500   48.4120 C   0  0  0  0  0  0  0  0  0  0  0  0
   34.7760   30.5040   47.5720 C   0  0  0  0  0  0  0  0  0  0  0  0
   33.7070   29.6950   47.3210 N   0  0  0  0  0  0  0  0  0  0  0  0
   33.5920   28.4760   47.8570 C   0  0  0  0  0  0  0  0  0  0  0  0
   34.5630   28.0240   48.6760 N   0  0  0  0  0  0  0  0  0  0  0  0
   32.4490   27.6380   47.5750 C   0  0  0  0  0  0  0  0  0  0  0  0
   32.5450   26.2810   47.5730 C   0  0  0  0  0  0  0  0  0  0  0  0
   31.4990   25.4320   47.3140 C   0  0  0  0  0  0  0  0  0  0  0  0
   30.3050   26.0740   47.0460 C   0  0  0  0  0  0  0  0  0  0  0  0
   30.1290   27.4800   47.0310 C   0  0  0  0  0  0  0  0  0  0  0  0
   31.2500   28.2170   47.3060 N   0  0  0  0  0  0  0  0  0  0  0  0
   36.7776   30.7465   50.7861 H   0  0  0  0  0  0  0  0  0  0  0  0
   37.9366   29.5782   49.9865 H   0  0  0  0  0  0  0  0  0  0  0  0
   38.8141   31.5957   51.3918 H   0  0  0  0  0  0  0  0  0  0  0  0
   39.6015   31.0875   49.8500 H   0  0  0  0  0  0  0  0  0  0  0  0
   37.4835   33.2838   50.0662 H   0  0  0  0  0  0  0  0  0  0  0  0
   39.2325   33.5946   50.0304 H   0  0  0  0  0  0  0  0  0  0  0  0
   38.2601   33.7160   47.7719 H   0  0  0  0  0  0  0  0  0  0  0  0
   39.4035   32.3053   47.9318 H   0  0  0  0  0  0  0  0  0  0  0  0
   36.4570   32.3740   47.5563 H   0  0  0  0  0  0  0  0  0  0  0  0
   39.7838   31.6183   47.3508 H   0  0  0  0  0  0  0  0  0  0  0  0
   36.1024   30.5614   45.4189 H   0  0  0  0  0  0  0  0  0  0  0  0
   36.4390   29.3484   43.0523 H   0  0  0  0  0  0  0  0  0  0  0  0
   38.4532   28.6167   41.5636 H   0  0  0  0  0  0  0  0  0  0  0  0
   41.0917   30.6580   45.4460 H   0  0  0  0  0  0  0  0  0  0  0  0
   36.4094   28.3839   49.6251 H   0  0  0  0  0  0  0  0  0  0  0  0
   34.8398   31.5023   47.1145 H   0  0  0  0  0  0  0  0  0  0  0  0
   33.5261   25.8351   47.7936 H   0  0  0  0  0  0  0  0  0  0  0  0
   31.6017   24.3368   47.3192 H   0  0  0  0  0  0  0  0  0  0  0  0
   29.4271   25.4479   46.8284 H   0  0  0  0  0  0  0  0  0  0  0  0
   29.1576   27.9478   46.8132 H   0  0  0  0  0  0  0  0  0  0  0  0
  1  2  1  0
  2  3  1  0
  4  3  1  0
  5  4  1  0
  6  5  1  0
  6  1  1  0
  7  8  2  0
  8  6  1  0
  9  8  1  0
 10  9  2  0
 11 10  1  0
 12 13  2  0
 12 11  1  0
 13 14  1  0
 14 10  1  0
 14 15  2  0
 15  7  1  0
 17  1  1  0
 17 16  2  0
 18 17  1  0
 19 18  2  0
 19 20  1  0
 20 21  2  0
 21 16  1  0
 22 20  1  0
 23 22  2  0
 24 23  1  0
 25 24  2  0
 26 25  1  0
 26 27  2  0
 27 22  1  0
  2 28  1  0
  2 29  1  0
  3 30  1  0
  3 31  1  0
  4 32  1  0
  4 33  1  0
  5 34  1  0
  5 35  1  0
  6 36  1  6
  7 37  1  0
  9 38  1  0
 11 39  1  0
 12 40  1  0
 15 41  1  0
 16 42  1  0
 18 43  1  0
 23 44  1  0
 24 45  1  0
 25 46  1  0
 26 47  1  0
M  ISO  8  28  13  29  13  30  13  31  13  32  13  33  13  34  13  35  13
M  ISO  8  36  13  37  14  38  14  39   9  40  14  41  14  42  14  43  14
M  ISO  4  44  14  45  14  46  14  47  14
M  END
>  <minimizedAffinity>  (1) 
-6.32326555

>  <minimizedRMSD>  (1) 
1.31388009

$$$$
