
     RDKit          3D

 44 47  0  0  1  0  0  0  0  0999 V2000
   36.4640   30.4130   48.4500 N   0  0  0  0  0  0  0  0  0  0  0  0
   37.0850   30.0670   49.7150 C   0  0  0  0  0  0  0  0  0  0  0  0
   38.3450   30.8180   49.9940 C   0  0  0  0  0  0  0  0  0  0  0  0
   38.1970   32.2580   49.5110 C   0  0  0  0  0  0  0  0  0  0  0  0
   38.1310   32.1650   48.0180 C   0  0  0  0  0  0  0  0  0  0  0  0
   36.9610   31.3650   47.5160 C   0  0  1  0  0  0  0  0  0  0  0  0
   39.8950   31.4630   46.4970 Cl  0  0  0  0  0  0  0  0  0  0  0  0
   38.5610   30.8330   45.5940 C   0  0  0  0  0  0  0  0  0  0  0  0
   37.3260   30.8570   46.1880 C   0  0  0  0  0  0  0  0  0  0  0  0
   36.3330   30.3200   45.3500 C   0  0  0  0  0  0  0  0  0  0  0  0
   36.5450   29.8210   44.0830 C   0  0  0  0  0  0  0  0  0  0  0  0
   37.8150   29.8390   43.5710 C   0  0  0  0  0  0  0  0  0  0  0  0
   38.8320   30.3530   44.3460 C   0  0  0  0  0  0  0  0  0  0  0  0
   40.4490   30.3700   43.6840 Cl  0  0  0  0  0  0  0  0  0  0  0  0
   35.0350   28.4300   48.5470 C   0  0  0  0  0  0  0  0  0  0  0  0
   35.2550   29.7420   48.1470 C   0  0  0  0  0  0  0  0  0  0  0  0
   34.2250   30.3420   47.4480 C   0  0  0  0  0  0  0  0  0  0  0  0
   33.0840   29.6490   47.1910 N   0  0  0  0  0  0  0  0  0  0  0  0
   32.9150   28.3780   47.5970 C   0  0  0  0  0  0  0  0  0  0  0  0
   33.9000   27.7830   48.2740 N   0  0  0  0  0  0  0  0  0  0  0  0
   31.6890   27.6620   47.3120 C   0  0  0  0  0  0  0  0  0  0  0  0
   31.7150   26.3640   46.9040 C   0  0  0  0  0  0  0  0  0  0  0  0
   30.5690   25.6520   46.6250 C   0  0  0  0  0  0  0  0  0  0  0  0
   29.3960   26.3250   46.7820 C   0  0  0  0  0  0  0  0  0  0  0  0
   29.3060   27.6710   47.2030 C   0  0  0  0  0  0  0  0  0  0  0  0
   30.4970   28.2950   47.4570 N   0  0  0  0  0  0  0  0  0  0  0  0
   36.3688   30.2795   50.5224 H   0  0  0  0  0  0  0  0  0  0  0  0
   37.3531   29.0016   49.6591 H   0  0  0  0  0  0  0  0  0  0  0  0
   38.5429   30.8128   51.0760 H   0  0  0  0  0  0  0  0  0  0  0  0
   39.1821   30.3384   49.4656 H   0  0  0  0  0  0  0  0  0  0  0  0
   37.2756   32.7065   49.9109 H   0  0  0  0  0  0  0  0  0  0  0  0
   39.0299   32.8928   49.8475 H   0  0  0  0  0  0  0  0  0  0  0  0
   38.0570   33.1835   47.6090 H   0  0  0  0  0  0  0  0  0  0  0  0
   39.0426   31.6463   47.6864 H   0  0  0  0  0  0  0  0  0  0  0  0
   36.0699   32.0001   47.4036 H   0  0  0  0  0  0  0  0  0  0  0  0
   35.3036   30.2962   45.7370 H   0  0  0  0  0  0  0  0  0  0  0  0
   35.7093   29.4156   43.4937 H   0  0  0  0  0  0  0  0  0  0  0  0
   38.0191   29.4512   42.5621 H   0  0  0  0  0  0  0  0  0  0  0  0
   35.8232   27.9064   49.1079 H   0  0  0  0  0  0  0  0  0  0  0  0
   34.3283   31.3802   47.0996 H   0  0  0  0  0  0  0  0  0  0  0  0
   32.6885   25.8640   46.7927 H   0  0  0  0  0  0  0  0  0  0  0  0
   30.5999   24.6030   46.2953 H   0  0  0  0  0  0  0  0  0  0  0  0
   28.4603   25.7878   46.5679 H   0  0  0  0  0  0  0  0  0  0  0  0
   28.3401   28.1844   47.3191 H   0  0  0  0  0  0  0  0  0  0  0  0
  1  2  1  0
  2  3  1  0
  4  3  1  0
  5  4  1  0
  6  5  1  0
  6  1  1  0
  8  9  2  0
  8  7  1  0
  9  6  1  0
 10  9  1  0
 11 10  2  0
 12 11  1  0
 12 13  2  0
 13  8  1  0
 14 13  1  0
 16  1  1  0
 16 15  2  0
 17 16  1  0
 18 17  2  0
 18 19  1  0
 19 20  2  0
 20 15  1  0
 21 26  1  0
 21 19  1  0
 22 21  2  0
 23 24  2  0
 23 22  1  0
 24 25  1  0
 25 26  2  0
  2 27  1  0
  2 28  1  0
  3 29  1  0
  3 30  1  0
  4 31  1  0
  4 32  1  0
  5 33  1  0
  5 34  1  0
  6 35  1  6
 10 36  1  0
 11 37  1  0
 12 38  1  0
 15 39  1  0
 17 40  1  0
 22 41  1  0
 23 42  1  0
 24 43  1  0
 25 44  1  0
M  ISO  8  27  13  28  13  29  13  30  13  31  13  32  13  33  13  34  13
M  ISO  8  35  13  36  14  37  14  38  14  39  14  40  14  41  14  42  14
M  ISO  2  43  14  44  14
M  END
>  <minimizedAffinity>  (1) 
-5.95414305

>  <minimizedRMSD>  (1) 
1.35774529

$$$$
