
     RDKit          3D

 44 47  0  0  1  0  0  0  0  0999 V2000
   37.1850   31.0910   48.4700 N   0  0  0  0  0  0  0  0  0  0  0  0
   37.8640   31.1560   49.7630 C   0  0  0  0  0  0  0  0  0  0  0  0
   38.9790   32.1370   49.8120 C   0  0  0  0  0  0  0  0  0  0  0  0
   38.7050   33.3260   48.8940 C   0  0  0  0  0  0  0  0  0  0  0  0
   38.7150   32.7360   47.5150 C   0  0  0  0  0  0  0  0  0  0  0  0
   37.5430   31.8190   47.3000 C   0  0  1  0  0  0  0  0  0  0  0  0
   40.4000   31.0260   46.3520 Cl  0  0  0  0  0  0  0  0  0  0  0  0
   38.9390   30.5630   45.5240 C   0  0  0  0  0  0  0  0  0  0  0  0
   37.7650   30.9920   46.0830 C   0  0  0  0  0  0  0  0  0  0  0  0
   36.6370   30.5790   45.3540 C   0  0  0  0  0  0  0  0  0  0  0  0
   36.6300   29.8300   44.2070 C   0  0  0  0  0  0  0  0  0  0  0  0
   37.8420   29.4360   43.7070 C   0  0  0  0  0  0  0  0  0  0  0  0
   38.9890   29.8080   44.3730 C   0  0  0  0  0  0  0  0  0  0  0  0
   36.0760   28.9880   49.0600 C   0  0  0  0  0  0  0  0  0  0  0  0
   36.0660   30.2200   48.4190 C   0  0  0  0  0  0  0  0  0  0  0  0
   34.9110   30.5540   47.7340 C   0  0  0  0  0  0  0  0  0  0  0  0
   33.8630   29.6870   47.7150 N   0  0  0  0  0  0  0  0  0  0  0  0
   33.9030   28.5030   48.3430 C   0  0  0  0  0  0  0  0  0  0  0  0
   35.0200   28.1660   49.0140 N   0  0  0  0  0  0  0  0  0  0  0  0
   32.7740   27.5990   48.3080 C   0  0  0  0  0  0  0  0  0  0  0  0
   32.8430   26.4200   47.6300 C   0  0  0  0  0  0  0  0  0  0  0  0
   31.8070   25.5200   47.5620 C   0  0  0  0  0  0  0  0  0  0  0  0
   30.6800   25.8910   48.2320 C   0  0  0  0  0  0  0  0  0  0  0  0
   30.5520   27.0860   48.9450 C   0  0  0  0  0  0  0  0  0  0  0  0
   31.6360   27.9390   48.9670 N   0  0  0  0  0  0  0  0  0  0  0  0
   37.1245   31.4344   50.5283 H   0  0  0  0  0  0  0  0  0  0  0  0
   38.3050   30.1641   49.9408 H   0  0  0  0  0  0  0  0  0  0  0  0
   39.0940   32.4990   50.8443 H   0  0  0  0  0  0  0  0  0  0  0  0
   39.8988   31.6381   49.4728 H   0  0  0  0  0  0  0  0  0  0  0  0
   37.7265   33.7753   49.1190 H   0  0  0  0  0  0  0  0  0  0  0  0
   39.4459   34.1302   49.0136 H   0  0  0  0  0  0  0  0  0  0  0  0
   38.6715   33.5507   46.7772 H   0  0  0  0  0  0  0  0  0  0  0  0
   39.6383   32.1499   47.3968 H   0  0  0  0  0  0  0  0  0  0  0  0
   36.6457   32.4248   47.1053 H   0  0  0  0  0  0  0  0  0  0  0  0
   35.6570   30.8896   45.7453 H   0  0  0  0  0  0  0  0  0  0  0  0
   35.6887   29.5563   43.7080 H   0  0  0  0  0  0  0  0  0  0  0  0
   37.8990   28.8326   42.7890 H   0  0  0  0  0  0  0  0  0  0  0  0
   39.9664   29.4952   43.9769 H   0  0  0  0  0  0  0  0  0  0  0  0
   36.9723   28.6803   49.6185 H   0  0  0  0  0  0  0  0  0  0  0  0
   34.8406   31.5169   47.2069 H   0  0  0  0  0  0  0  0  0  0  0  0
   33.7797   26.1747   47.1081 H   0  0  0  0  0  0  0  0  0  0  0  0
   31.8817   24.5722   47.0088 H   0  0  0  0  0  0  0  0  0  0  0  0
   29.8181   25.2079   48.2103 H   0  0  0  0  0  0  0  0  0  0  0  0
   29.6191   27.3378   49.4706 H   0  0  0  0  0  0  0  0  0  0  0  0
  1  2  1  0
  2  3  1  0
  4  3  1  0
  5  4  1  0
  6  5  1  0
  6  1  1  0
  8  9  2  0
  8  7  1  0
  9  6  1  0
 10  9  1  0
 11 10  2  0
 12 11  1  0
 12 13  2  0
 13  8  1  0
 15  1  1  0
 15 14  2  0
 16 15  1  0
 17 16  2  0
 17 18  1  0
 18 19  2  0
 19 14  1  0
 20 18  1  0
 20 25  1  0
 21 20  2  0
 22 21  1  0
 22 23  2  0
 23 24  1  0
 24 25  2  0
  2 26  1  0
  2 27  1  0
  3 28  1  0
  3 29  1  0
  4 30  1  0
  4 31  1  0
  5 32  1  0
  5 33  1  0
  6 34  1  6
 10 35  1  0
 11 36  1  0
 12 37  1  0
 13 38  1  0
 14 39  1  0
 16 40  1  0
 21 41  1  0
 22 42  1  0
 23 43  1  0
 24 44  1  0
M  ISO  8  26  13  27  13  28  13  29  13  30  13  31  13  32  13  33  13
M  ISO  8  34  13  35  14  36  14  37  14  38  14  39  14  40  14  41  14
M  ISO  3  42  14  43  14  44  14
M  END
>  <minimizedAffinity>  (1) 
-5.81354189

>  <minimizedRMSD>  (1) 
1.15951419

$$$$
