
     RDKit          3D

 41 44  0  0  1  0  0  0  0  0999 V2000
   37.4950   31.2580   48.6530 N   0  0  0  0  0  0  0  0  0  0  0  0
   38.1290   31.3000   49.9470 C   0  0  0  0  0  0  0  0  0  0  0  0
   39.1750   32.3570   50.0750 C   0  0  0  0  0  0  0  0  0  0  0  0
   38.8190   33.5820   49.2550 C   0  0  0  0  0  0  0  0  0  0  0  0
   38.8320   33.1580   47.8180 C   0  0  0  0  0  0  0  0  0  0  0  0
   37.8500   32.0590   47.5300 C   0  0  1  0  0  0  0  0  0  0  0  0
   36.3540   29.1900   49.2880 C   0  0  0  0  0  0  0  0  0  0  0  0
   36.4230   30.3340   48.4960 C   0  0  0  0  0  0  0  0  0  0  0  0
   35.4090   30.5170   47.5680 C   0  0  0  0  0  0  0  0  0  0  0  0
   34.4170   29.5860   47.4810 N   0  0  0  0  0  0  0  0  0  0  0  0
   34.3770   28.5010   48.2510 C   0  0  0  0  0  0  0  0  0  0  0  0
   35.3580   28.3040   49.1620 N   0  0  0  0  0  0  0  0  0  0  0  0
   33.3090   27.5290   48.1390 C   0  0  0  0  0  0  0  0  0  0  0  0
   33.5070   26.3230   47.5430 C   0  0  0  0  0  0  0  0  0  0  0  0
   32.5200   25.3730   47.4170 C   0  0  0  0  0  0  0  0  0  0  0  0
   31.3010   25.7290   47.9420 C   0  0  0  0  0  0  0  0  0  0  0  0
   31.0350   26.9700   48.5720 C   0  0  0  0  0  0  0  0  0  0  0  0
   32.0880   27.8440   48.6450 N   0  0  0  0  0  0  0  0  0  0  0  0
   38.3960   31.1960   46.4190 C   0  0  0  0  0  0  0  0  0  0  0  0
   39.7860   31.2490   46.3260 C   0  0  0  0  0  0  0  0  0  0  0  0
   40.1940   30.4460   45.2990 N   0  0  0  0  0  0  0  0  0  0  0  0
   39.0490   29.9240   44.7890 C   0  0  0  0  0  0  0  0  0  0  0  0
   37.9540   30.3530   45.4400 N   0  0  0  0  0  0  0  0  0  0  0  0
   37.3547   31.4855   50.7060 H   0  0  0  0  0  0  0  0  0  0  0  0
   38.6343   30.3329   50.0861 H   0  0  0  0  0  0  0  0  0  0  0  0
   39.2651   32.6466   51.1324 H   0  0  0  0  0  0  0  0  0  0  0  0
   40.1272   31.9522   49.7016 H   0  0  0  0  0  0  0  0  0  0  0  0
   37.8193   33.9469   49.5334 H   0  0  0  0  0  0  0  0  0  0  0  0
   39.5346   34.3983   49.4328 H   0  0  0  0  0  0  0  0  0  0  0  0
   38.5812   34.0272   47.1922 H   0  0  0  0  0  0  0  0  0  0  0  0
   39.8376   32.7726   47.5940 H   0  0  0  0  0  0  0  0  0  0  0  0
   36.9126   32.5511   47.2316 H   0  0  0  0  0  0  0  0  0  0  0  0
   37.1390   29.0097   50.0372 H   0  0  0  0  0  0  0  0  0  0  0  0
   35.4051   31.4000   46.9120 H   0  0  0  0  0  0  0  0  0  0  0  0
   34.5057   26.0958   47.1418 H   0  0  0  0  0  0  0  0  0  0  0  0
   32.6936   24.4010   46.9322 H   0  0  0  0  0  0  0  0  0  0  0  0
   30.4778   25.0031   47.8684 H   0  0  0  0  0  0  0  0  0  0  0  0
   30.0430   27.2170   48.9780 H   0  0  0  0  0  0  0  0  0  0  0  0
   40.4475   31.8418   46.9749 H   0  0  0  0  0  0  0  0  0  0  0  0
   41.1586   30.2742   44.9812 H   0  0  0  0  0  0  0  0  0  0  0  0
   39.0206   29.2277   43.9379 H   0  0  0  0  0  0  0  0  0  0  0  0
  1  2  1  0
  2  3  1  0
  4  3  1  0
  5  4  1  0
  6  5  1  0
  6  1  1  0
  8  1  1  0
  8  7  2  0
  9  8  1  0
 10  9  2  0
 10 11  1  0
 11 12  2  0
 12  7  1  0
 13 11  1  0
 13 18  1  0
 14 13  2  0
 15 14  1  0
 15 16  2  0
 16 17  1  0
 17 18  2  0
 19  6  1  0
 20 19  2  0
 21 20  1  0
 22 21  1  0
 22 23  2  0
 23 19  1  0
  2 24  1  0
  2 25  1  0
  3 26  1  0
  3 27  1  0
  4 28  1  0
  4 29  1  0
  5 30  1  0
  5 31  1  0
  6 32  1  6
  7 33  1  0
  9 34  1  0
 14 35  1  0
 15 36  1  0
 16 37  1  0
 17 38  1  0
 20 39  1  0
 21 40  1  0
 22 41  1  0
M  ISO  8  24  13  25  13  26  13  27  13  28  13  29  13  30  13  31  13
M  ISO  8  32  13  33  14  34  14  35  14  36  14  37  14  38  14  39  14
M  ISO  2  40   9  41  14
M  END
>  <minimizedAffinity>  (1) 
-5.78461599

>  <minimizedRMSD>  (1) 
1.22940361

$$$$
