
     RDKit          3D

 30 32  0  0  1  0  0  0  0  0999 V2000
   37.2580   31.3370   49.1370 C   0  0  0  0  0  0  0  0  0  0  0  0
   37.4190   32.6160   49.6970 C   0  0  0  0  0  0  0  0  0  0  0  0
   38.3650   33.4330   49.0730 C   0  0  0  0  0  0  0  0  0  0  0  0
   39.0600   32.9640   47.9890 N   0  0  0  0  0  0  0  0  0  0  0  0
   38.8710   31.7270   47.4860 C   0  0  0  0  0  0  0  0  0  0  0  0
   37.9580   30.9040   48.0690 N   0  0  0  0  0  0  0  0  0  0  0  0
   36.2260   30.4450   49.7720 C   0  0  0  0  0  0  0  0  0  0  0  0
   36.2490   29.0000   49.5700 C   0  0  0  0  0  0  0  0  0  0  0  0
   36.7930   29.5520   50.8610 C   0  0  0  0  0  0  0  0  0  0  0  0
   39.7910   32.3540   45.2440 C   0  0  1  0  0  0  0  0  0  0  0  0
   39.6700   31.3070   46.3090 C   0  0  2  0  0  0  0  0  0  0  0  0
   39.1370   30.2100   45.6440 O   0  0  0  0  0  0  0  0  0  0  0  0
   38.2540   30.6670   44.7070 C   0  0  0  0  0  0  0  0  0  0  0  0
   38.5460   32.0990   44.4200 C   0  0  1  0  0  0  0  0  0  0  0  0
   39.8430   33.6560   45.7280 O   0  0  0  0  0  0  0  0  0  0  0  0
   37.5350   32.9140   44.9280 O   0  0  0  0  0  0  0  0  0  0  0  0
   36.8385   32.9516   50.5690 H   0  0  0  0  0  0  0  0  0  0  0  0
   38.5514   34.4493   49.4505 H   0  0  0  0  0  0  0  0  0  0  0  0
   35.4198   31.1841   49.6544 H   0  0  0  0  0  0  0  0  0  0  0  0
   35.3060   28.4336   49.5732 H   0  0  0  0  0  0  0  0  0  0  0  0
   36.6502   28.3399   48.7869 H   0  0  0  0  0  0  0  0  0  0  0  0
   37.8746   29.5365   51.0606 H   0  0  0  0  0  0  0  0  0  0  0  0
   36.6019   29.3924   51.9324 H   0  0  0  0  0  0  0  0  0  0  0  0
   40.7340   32.2782   44.6828 H   0  0  0  0  0  0  0  0  0  0  0  0
   40.6447   31.0844   46.7676 H   0  0  0  0  0  0  0  0  0  0  0  0
   38.3583   30.0776   43.7841 H   0  0  0  0  0  0  0  0  0  0  0  0
   37.2263   30.5670   45.0862 H   0  0  0  0  0  0  0  0  0  0  0  0
   38.6429   32.3030   43.3434 H   0  0  0  0  0  0  0  0  0  0  0  0
   39.8424   33.6404   46.7179 H   0  0  0  0  0  0  0  0  0  0  0  0
   37.5605   32.8935   45.9175 H   0  0  0  0  0  0  0  0  0  0  0  0
  1  2  2  0
  1  7  1  0
  3  2  1  0
  4  3  2  0
  5  4  1  0
  5  6  2  0
  6  1  1  0
  7  9  1  0
  8  7  1  0
  8  9  1  0
 10 15  1  0
 10 11  1  0
 11  5  1  0
 12 11  1  0
 13 12  1  0
 14 13  1  0
 14 16  1  0
 14 10  1  0
  2 17  1  0
  3 18  1  0
  7 19  1  0
  8 20  1  0
  8 21  1  0
  9 22  1  0
  9 23  1  0
 10 24  1  6
 11 25  1  1
 13 26  1  0
 13 27  1  0
 14 28  1  6
 15 29  1  0
 16 30  1  0
M  ISO  8  17  14  18  14  19  13  20  13  21  13  22  13  23  13  24  13
M  ISO  6  25  13  26  13  27  13  28  13  29   3  30   3
M  END
>  <minimizedAffinity>  (1) 
-6.17190266

>  <minimizedRMSD>  (1) 
0.602203369

$$$$
