
     RDKit          3D

 20 21  0  0  0  0  0  0  0  0999 V2000
   37.4430   31.3210   49.0720 C   0  0  0  0  0  0  0  0  0  0  0  0
   37.7680   32.5870   49.5870 C   0  0  0  0  0  0  0  0  0  0  0  0
   38.6830   33.3310   48.8300 C   0  0  0  0  0  0  0  0  0  0  0  0
   39.1870   32.8070   47.6820 N   0  0  0  0  0  0  0  0  0  0  0  0
   38.8430   31.5690   47.2180 C   0  0  0  0  0  0  0  0  0  0  0  0
   37.9540   30.8170   47.9320 N   0  0  0  0  0  0  0  0  0  0  0  0
   36.4400   30.5120   49.8520 C   0  0  0  0  0  0  0  0  0  0  0  0
   36.3650   29.0620   49.7090 C   0  0  0  0  0  0  0  0  0  0  0  0
   37.0760   29.6220   50.9090 C   0  0  0  0  0  0  0  0  0  0  0  0
   39.4490   31.0850   45.9520 C   0  0  0  0  0  0  0  0  0  0  0  0
   39.2380   31.9880   44.9370 F   0  0  0  0  0  0  0  0  0  0  0  0
   40.8220   30.9110   46.0800 F   0  0  0  0  0  0  0  0  0  0  0  0
   38.9410   29.8740   45.5550 F   0  0  0  0  0  0  0  0  0  0  0  0
   37.3331   32.9689   50.5224 H   0  0  0  0  0  0  0  0  0  0  0  0
   38.9913   34.3330   49.1630 H   0  0  0  0  0  0  0  0  0  0  0  0
   35.6668   31.2922   49.7928 H   0  0  0  0  0  0  0  0  0  0  0  0
   35.3994   28.5510   49.8370 H   0  0  0  0  0  0  0  0  0  0  0  0
   36.6424   28.3541   48.9141 H   0  0  0  0  0  0  0  0  0  0  0  0
   38.1706   29.5504   50.9906 H   0  0  0  0  0  0  0  0  0  0  0  0
   36.9961   29.5086   52.0002 H   0  0  0  0  0  0  0  0  0  0  0  0
  1  2  2  0
  1  7  1  0
  3  2  1  0
  4  3  2  0
  5  4  1  0
  5  6  2  0
  6  1  1  0
  7  9  1  0
  8  7  1  0
  8  9  1  0
 10 12  1  0
 10  5  1  0
 11 10  1  0
 13 10  1  0
  2 14  1  0
  3 15  1  0
  7 16  1  0
  8 17  1  0
  8 18  1  0
  9 19  1  0
  9 20  1  0
M  ISO  7  14  14  15  14  16  13  17  13  18  13  19  13  20  13
M  END
>  <minimizedAffinity>  (1) 
-5.07745695

>  <minimizedRMSD>  (1) 
0.547159791

$$$$
