
     RDKit          3D

 26 28  0  0  1  0  0  0  0  0999 V2000
   37.3450   31.1670   48.8170 C   0  0  0  0  0  0  0  0  0  0  0  0
   36.3980   30.3430   48.1970 C   0  0  0  0  0  0  0  0  0  0  0  0
   35.9460   29.2920   48.9580 C   0  0  0  0  0  0  0  0  0  0  0  0
   36.4090   29.0970   50.2240 N   0  0  0  0  0  0  0  0  0  0  0  0
   37.3290   29.9220   50.7850 C   0  0  0  0  0  0  0  0  0  0  0  0
   37.8120   30.9830   50.0710 N   0  0  0  0  0  0  0  0  0  0  0  0
   37.8270   29.7610   52.1070 N   0  0  0  0  0  0  0  0  0  0  0  0
   37.8480   32.3570   48.0210 C   0  0  1  0  0  0  0  0  0  0  0  0
   38.9730   33.1370   48.4760 C   0  0  0  0  0  0  0  0  0  0  0  0
   39.2490   32.1090   47.4400 C   0  0  2  0  0  0  0  0  0  0  0  0
   39.3810   32.5650   46.0110 C   0  0  0  0  0  0  0  0  0  0  0  0
   40.7240   32.5560   45.3540 C   0  0  0  0  0  0  0  0  0  0  0  0
   39.6870   31.5720   44.9460 C   0  0  0  0  0  0  0  0  0  0  0  0
   36.0409   30.5243   47.1725 H   0  0  0  0  0  0  0  0  0  0  0  0
   35.2009   28.5994   48.5395 H   0  0  0  0  0  0  0  0  0  0  0  0
   38.5258   30.4205   52.4780 H   0  0  0  0  0  0  0  0  0  0  0  0
   37.4890   28.9848   52.6937 H   0  0  0  0  0  0  0  0  0  0  0  0
   36.8455   32.6554   47.6805 H   0  0  0  0  0  0  0  0  0  0  0  0
   39.0349   34.2026   48.2102 H   0  0  0  0  0  0  0  0  0  0  0  0
   39.3985   33.3459   49.4686 H   0  0  0  0  0  0  0  0  0  0  0  0
   39.9701   31.2833   47.3496 H   0  0  0  0  0  0  0  0  0  0  0  0
   38.5961   33.3190   46.1703 H   0  0  0  0  0  0  0  0  0  0  0  0
   41.0084   33.3707   44.6718 H   0  0  0  0  0  0  0  0  0  0  0  0
   41.7634   32.4902   45.7079 H   0  0  0  0  0  0  0  0  0  0  0  0
   39.2060   31.6581   43.9605 H   0  0  0  0  0  0  0  0  0  0  0  0
   39.6444   30.4753   44.8725 H   0  0  0  0  0  0  0  0  0  0  0  0
  1  6  1  0
  2  1  2  0
  2  3  1  0
  3  4  2  0
  4  5  1  0
  5  7  1  0
  6  5  2  0
  8  9  1  0
  8  1  1  0
 10  8  1  0
 10  9  1  0
 11 10  1  0
 12 11  1  0
 13 12  1  0
 13 11  1  0
  2 14  1  0
  3 15  1  0
  7 16  1  0
  7 17  1  0
  8 18  1  6
  9 19  1  0
  9 20  1  0
 10 21  1  1
 11 22  1  0
 12 23  1  0
 12 24  1  0
 13 25  1  0
 13 26  1  0
M  ISO  8  14  14  15  14  18  13  19  13  20  13  21  13  22  13  23  13
M  ISO  3  24  13  25  13  26  13
M  END
>  <minimizedAffinity>  (1) 
-5.02800751

>  <minimizedRMSD>  (1) 
5.64466524

$$$$
