
     RDKit          3D

 29 30  0  0  1  0  0  0  0  0999 V2000
   36.4500   29.2540   49.9180 C   0  0  1  0  0  0  0  0  0  0  0  0
   35.5050   29.3540   51.0020 C   0  0  0  0  0  0  0  0  0  0  0  0
   35.0230   29.1310   49.6040 C   0  0  2  0  0  0  0  0  0  0  0  0
   37.1560   30.4700   49.3920 C   0  0  0  0  0  0  0  0  0  0  0  0
   36.8740   31.6880   50.0610 C   0  0  0  0  0  0  0  0  0  0  0  0
   37.5310   32.7860   49.5620 C   0  0  0  0  0  0  0  0  0  0  0  0
   38.3810   32.6470   48.4920 N   0  0  0  0  0  0  0  0  0  0  0  0
   38.6160   31.4620   47.8880 C   0  0  0  0  0  0  0  0  0  0  0  0
   37.9790   30.3520   48.3620 N   0  0  0  0  0  0  0  0  0  0  0  0
   39.4800   31.3380   46.7930 N   0  0  0  0  0  0  0  0  0  0  0  0
   34.6030   27.8180   49.3240 O   0  0  0  0  0  0  0  0  0  0  0  0
   33.0930   26.4640   47.7340 O   0  0  0  0  0  0  0  0  0  0  0  0
   33.2860   27.8290   48.3060 P   0  0  1  0  0  0  0  0  0  0  0  0
   31.8550   28.1450   49.2300 O   0  0  0  0  0  0  0  0  0  0  0  0
   33.5030   29.0310   47.1500 O   0  0  0  0  0  0  0  0  0  0  0  0
   32.5030   29.7710   46.5640 C   0  0  0  0  0  0  0  0  0  0  0  0
   31.4270   29.2280   46.2030 O   0  0  0  0  0  0  0  0  0  0  0  0
   32.8800   31.1600   46.4480 N   0  0  0  0  0  0  0  0  0  0  0  0
   37.3488   28.6368   49.7726 H   0  0  0  0  0  0  0  0  0  0  0  0
   35.4320   28.5460   51.7448 H   0  0  0  0  0  0  0  0  0  0  0  0
   35.2976   30.0948   51.7882 H   0  0  0  0  0  0  0  0  0  0  0  0
   34.3132   29.6297   48.9276 H   0  0  0  0  0  0  0  0  0  0  0  0
   36.1822   31.7488   50.9141 H   0  0  0  0  0  0  0  0  0  0  0  0
   37.3768   33.7749   50.0184 H   0  0  0  0  0  0  0  0  0  0  0  0
   39.9673   32.1675   46.4250 H   0  0  0  0  0  0  0  0  0  0  0  0
   39.6282   30.4173   46.3556 H   0  0  0  0  0  0  0  0  0  0  0  0
   32.0685   28.0978   50.1955 H   0  0  0  0  0  0  0  0  0  0  0  0
   32.2281   31.8371   46.0267 H   0  0  0  0  0  0  0  0  0  0  0  0
   33.8008   31.4737   46.7866 H   0  0  0  0  0  0  0  0  0  0  0  0
  1  2  1  0
  3  1  1  0
  3  2  1  0
  4  1  1  0
  4  5  2  0
  6  5  1  0
  7  6  2  0
  8  9  2  0
  8  7  1  0
  9  4  1  0
 10  8  1  0
 11  3  1  0
 13 12  2  0
 13 14  1  0
 13 11  1  0
 15 13  1  0
 16 15  1  0
 17 16  2  0
 18 16  1  0
  1 19  1  1
  2 20  1  0
  2 21  1  0
  3 22  1  6
  5 23  1  0
  6 24  1  0
 10 25  1  0
 10 26  1  0
 14 27  1  0
 18 28  1  0
 18 29  1  0
M  ISO  7  19  13  20  13  21  13  22  13  23  14  24  14  27   3
M  END
>  <minimizedAffinity>  (1) 
-5.44387245

>  <minimizedRMSD>  (1) 
2.84558582

$$$$
