
     RDKit          3D

 35 37  0  0  1  0  0  0  0  0999 V2000
   36.0110   29.8620   49.6140 C   0  0  1  0  0  0  0  0  0  0  0  0
   34.6310   30.2200   49.8590 C   0  0  0  0  0  0  0  0  0  0  0  0
   34.9770   29.3700   48.7020 C   0  0  2  0  0  0  0  0  0  0  0  0
   36.9760   30.8750   49.0690 C   0  0  0  0  0  0  0  0  0  0  0  0
   37.8290   31.4920   50.0170 C   0  0  0  0  0  0  0  0  0  0  0  0
   38.7020   32.4110   49.4840 C   0  0  0  0  0  0  0  0  0  0  0  0
   38.6990   32.6670   48.1350 N   0  0  0  0  0  0  0  0  0  0  0  0
   37.8650   32.0520   47.2710 C   0  0  0  0  0  0  0  0  0  0  0  0
   36.9820   31.1310   47.7680 N   0  0  0  0  0  0  0  0  0  0  0  0
   37.8680   32.3090   45.8980 N   0  0  0  0  0  0  0  0  0  0  0  0
   34.6740   28.0090   48.8070 O   0  0  0  0  0  0  0  0  0  0  0  0
   33.1780   26.1730   47.7960 O   0  0  0  0  0  0  0  0  0  0  0  0
   33.2790   27.6610   47.9560 P   0  0  1  0  0  0  0  0  0  0  0  0
   31.9240   28.1020   48.8850 O   0  0  0  0  0  0  0  0  0  0  0  0
   33.2880   28.4660   46.4860 O   0  0  0  0  0  0  0  0  0  0  0  0
   32.8610   31.1230   46.6010 F   0  0  0  0  0  0  0  0  0  0  0  0
   32.0730   30.2970   45.8430 C   0  0  0  0  0  0  0  0  0  0  0  0
   32.2410   28.9100   45.7390 C   0  0  0  0  0  0  0  0  0  0  0  0
   31.3530   28.2330   44.9290 C   0  0  0  0  0  0  0  0  0  0  0  0
   30.3480   28.8780   44.2490 C   0  0  0  0  0  0  0  0  0  0  0  0
   30.1760   30.2310   44.3440 C   0  0  0  0  0  0  0  0  0  0  0  0
   31.0460   30.9400   45.1470 C   0  0  0  0  0  0  0  0  0  0  0  0
   36.7936   29.4113   50.2420 H   0  0  0  0  0  0  0  0  0  0  0  0
   34.0952   29.7886   50.7174 H   0  0  0  0  0  0  0  0  0  0  0  0
   34.0854   31.1657   49.9932 H   0  0  0  0  0  0  0  0  0  0  0  0
   34.7903   29.4151   47.6189 H   0  0  0  0  0  0  0  0  0  0  0  0
   37.7957   31.2555   51.0907 H   0  0  0  0  0  0  0  0  0  0  0  0
   39.4056   32.9432   50.1410 H   0  0  0  0  0  0  0  0  0  0  0  0
   38.5245   32.9982   45.5045 H   0  0  0  0  0  0  0  0  0  0  0  0
   37.2137   31.8093   45.2791 H   0  0  0  0  0  0  0  0  0  0  0  0
   32.1459   28.0298   49.8471 H   0  0  0  0  0  0  0  0  0  0  0  0
   31.4525   27.1425   44.8241 H   0  0  0  0  0  0  0  0  0  0  0  0
   29.6667   28.2926   43.6141 H   0  0  0  0  0  0  0  0  0  0  0  0
   29.3684   30.7392   43.7968 H   0  0  0  0  0  0  0  0  0  0  0  0
   30.9290   32.0297   45.2408 H   0  0  0  0  0  0  0  0  0  0  0  0
  1  2  1  0
  3 11  1  0
  3  1  1  0
  3  2  1  0
  4  1  1  0
  4  5  2  0
  6  5  1  0
  7  6  2  0
  8  9  2  0
  8  7  1  0
  9  4  1  0
 10  8  1  0
 13 12  2  0
 13 11  1  0
 13 14  1  0
 15 13  1  0
 17 16  1  0
 18 17  2  0
 18 15  1  0
 19 18  1  0
 20 21  1  0
 20 19  2  0
 21 22  2  0
 22 17  1  0
  1 23  1  1
  2 24  1  0
  2 25  1  0
  3 26  1  6
  5 27  1  0
  6 28  1  0
 10 29  1  0
 10 30  1  0
 14 31  1  0
 19 32  1  0
 20 33  1  0
 21 34  1  0
 22 35  1  0
M  ISO  8  23  13  24  13  25  13  26  13  27  14  28  14  31   3  32  14
M  ISO  3  33  14  34  14  35  14
M  END
>  <minimizedAffinity>  (1) 
-5.15389538

>  <minimizedRMSD>  (1) 
3.3933692

$$$$
