
     RDKit          3D

 24 26  0  0  1  0  0  0  0  0999 V2000
   38.4360   32.1370   49.6990 C   0  0  2  0  0  0  0  0  0  0  0  0
   38.1510   33.4570   49.1410 C   0  0  0  0  0  0  0  0  0  0  0  0
   38.8880   32.4450   48.3130 C   0  0  2  0  0  0  0  0  0  0  0  0
   35.1130   30.4370   49.8150 C   0  0  0  0  0  0  0  0  0  0  0  0
   35.4920   29.1370   50.1630 C   0  0  0  0  0  0  0  0  0  0  0  0
   36.8620   28.8420   50.3510 C   0  0  0  0  0  0  0  0  0  0  0  0
   37.7750   29.8540   50.1840 N   0  0  0  0  0  0  0  0  0  0  0  0
   37.3640   31.0940   49.8480 C   0  0  0  0  0  0  0  0  0  0  0  0
   36.0520   31.4030   49.6610 N   0  0  0  0  0  0  0  0  0  0  0  0
   38.0130   31.6050   46.9660 S   0  0  0  0  0  0  0  0  0  0  0  0
   39.1520   31.1220   45.6750 C   0  0  0  0  0  0  0  0  0  0  0  0
   38.7310   30.6570   44.4820 N   0  0  0  0  0  0  0  0  0  0  0  0
   39.8070   30.3740   43.7110 C   0  0  0  0  0  0  0  0  0  0  0  0
   40.9070   30.6720   44.4450 N   0  0  0  0  0  0  0  0  0  0  0  0
   40.4950   31.1240   45.6330 N   0  0  0  0  0  0  0  0  0  0  0  0
   38.9053   31.8141   50.6400 H   0  0  0  0  0  0  0  0  0  0  0  0
   37.1181   33.7317   48.8810 H   0  0  0  0  0  0  0  0  0  0  0  0
   38.3481   34.4919   49.4575 H   0  0  0  0  0  0  0  0  0  0  0  0
   39.8402   32.4419   47.7622 H   0  0  0  0  0  0  0  0  0  0  0  0
   34.0499   30.6769   49.6657 H   0  0  0  0  0  0  0  0  0  0  0  0
   34.7321   28.3517   50.2893 H   0  0  0  0  0  0  0  0  0  0  0  0
   37.1882   27.8276   50.6241 H   0  0  0  0  0  0  0  0  0  0  0  0
   39.7917   29.9779   42.6849 H   0  0  0  0  0  0  0  0  0  0  0  0
   41.8857   30.5685   44.1412 H   0  0  0  0  0  0  0  0  0  0  0  0
  1  8  1  0
  2  1  1  0
  3  2  1  0
  3  1  1  0
  4  5  2  0
  5  6  1  0
  7  6  2  0
  8  7  1  0
  9  4  1  0
  9  8  2  0
 10  3  1  0
 11 10  1  0
 12 11  1  0
 13 14  1  0
 13 12  2  0
 14 15  1  0
 15 11  2  0
  1 16  1  1
  2 17  1  0
  2 18  1  0
  3 19  1  1
  4 20  1  0
  5 21  1  0
  6 22  1  0
 13 23  1  0
 14 24  1  0
M  ISO  8  16  13  17  13  18  13  19  13  20  14  21  14  22  14  23  14
M  ISO  1  24   9
M  END
>  <minimizedAffinity>  (1) 
-5.00276709

>  <minimizedRMSD>  (1) 
6.27545452

$$$$
