
     RDKit          3D

 31 32  0  0  1  0  0  0  0  0999 V2000
   37.1880   31.8320   48.8720 C   0  0  1  0  0  0  0  0  0  0  0  0
   36.2960   30.9350   48.1800 C   0  0  0  0  0  0  0  0  0  0  0  0
   37.3300   30.3940   49.1120 C   0  0  2  0  0  0  0  0  0  0  0  0
   38.3150   32.5160   48.1510 C   0  0  0  0  0  0  0  0  0  0  0  0
   38.9470   33.5670   48.8500 C   0  0  0  0  0  0  0  0  0  0  0  0
   39.9790   34.1690   48.1720 C   0  0  0  0  0  0  0  0  0  0  0  0
   40.3270   33.7520   46.9340 N   0  0  0  0  0  0  0  0  0  0  0  0
   39.6930   32.7320   46.2920 C   0  0  0  0  0  0  0  0  0  0  0  0
   38.6540   32.1020   46.9340 N   0  0  0  0  0  0  0  0  0  0  0  0
   40.0470   32.2670   45.0210 N   0  0  0  0  0  0  0  0  0  0  0  0
   36.8520   29.9430   50.3470 O   0  0  0  0  0  0  0  0  0  0  0  0
   34.7970   28.9130   51.5280 O   0  0  0  0  0  0  0  0  0  0  0  0
   35.2800   29.4100   50.2060 P   0  0  1  0  0  0  0  0  0  0  0  0
   34.2500   30.7450   49.8200 O   0  0  0  0  0  0  0  0  0  0  0  0
   35.2050   28.2530   48.9850 O   0  0  0  0  0  0  0  0  0  0  0  0
   33.9210   28.0780   48.4950 C   0  0  0  0  0  0  0  0  0  0  0  0
   33.9380   26.7540   47.7240 C   0  0  0  0  0  0  0  0  0  0  0  0
   37.0106   32.7243   49.4903 H   0  0  0  0  0  0  0  0  0  0  0  0
   35.2318   30.8957   48.4557 H   0  0  0  0  0  0  0  0  0  0  0  0
   36.0290   30.7608   47.1272 H   0  0  0  0  0  0  0  0  0  0  0  0
   38.1447   29.6581   49.0436 H   0  0  0  0  0  0  0  0  0  0  0  0
   38.6375   33.8794   49.8583 H   0  0  0  0  0  0  0  0  0  0  0  0
   40.5278   34.9988   48.6412 H   0  0  0  0  0  0  0  0  0  0  0  0
   40.8203   32.7123   44.5066 H   0  0  0  0  0  0  0  0  0  0  0  0
   39.5343   31.4793   44.5996 H   0  0  0  0  0  0  0  0  0  0  0  0
   33.9263   31.1646   50.6562 H   0  0  0  0  0  0  0  0  0  0  0  0
   33.1995   28.0281   49.3238 H   0  0  0  0  0  0  0  0  0  0  0  0
   33.6194   28.9157   47.8490 H   0  0  0  0  0  0  0  0  0  0  0  0
   33.9488   25.9154   48.4357 H   0  0  0  0  0  0  0  0  0  0  0  0
   33.0406   26.6865   47.0914 H   0  0  0  0  0  0  0  0  0  0  0  0
   34.8368   26.7096   47.0914 H   0  0  0  0  0  0  0  0  0  0  0  0
  1  3  1  0
  2  1  1  0
  2  3  1  0
  3 11  1  0
  4  5  2  0
  4  1  1  0
  6  5  1  0
  7  6  2  0
  8  9  2  0
  8  7  1  0
  9  4  1  0
 10  8  1  0
 13 11  1  0
 13 12  2  0
 14 13  1  0
 15 13  1  0
 16 15  1  0
 17 16  1  0
  1 18  1  1
  2 19  1  0
  2 20  1  0
  3 21  1  6
  5 22  1  0
  6 23  1  0
 10 24  1  0
 10 25  1  0
 14 26  1  0
 16 27  1  0
 16 28  1  0
 17 29  1  0
 17 30  1  0
 17 31  1  0
M  ISO  8  18  13  19  13  20  13  21  13  22  14  23  14  26   3  27   8
M  ISO  4  28   8  29   8  30   8  31   8
M  END
>  <minimizedAffinity>  (1) 
-4.36101198

>  <minimizedRMSD>  (1) 
1.21971011

$$$$
