
     RDKit          3D

 28 29  0  0  1  0  0  0  0  0999 V2000
   37.0020   31.5240   48.6560 C   0  0  1  0  0  0  0  0  0  0  0  0
   36.2410   30.8750   47.6170 C   0  0  0  0  0  0  0  0  0  0  0  0
   37.2040   30.0900   48.4490 C   0  0  2  0  0  0  0  0  0  0  0  0
   38.1500   32.4280   48.3160 C   0  0  0  0  0  0  0  0  0  0  0  0
   38.5050   33.3700   49.3130 C   0  0  0  0  0  0  0  0  0  0  0  0
   39.5590   34.1850   48.9820 C   0  0  0  0  0  0  0  0  0  0  0  0
   40.1800   34.0560   47.7790 N   0  0  0  0  0  0  0  0  0  0  0  0
   39.8080   33.1340   46.8480 C   0  0  0  0  0  0  0  0  0  0  0  0
   38.7580   32.3060   47.1470 N   0  0  0  0  0  0  0  0  0  0  0  0
   40.4430   32.9830   45.6080 N   0  0  0  0  0  0  0  0  0  0  0  0
   36.6220   29.2600   49.4160 O   0  0  0  0  0  0  0  0  0  0  0  0
   34.5930   27.6890   49.6920 O   0  0  0  0  0  0  0  0  0  0  0  0
   35.0240   28.9670   49.0480 P   0  0  1  0  0  0  0  0  0  0  0  0
   34.0380   30.1890   49.7810 O   0  0  0  0  0  0  0  0  0  0  0  0
   34.8290   28.9940   47.3790 O   0  0  0  0  0  0  0  0  0  0  0  0
   33.8330   28.1410   46.9380 C   0  0  0  0  0  0  0  0  0  0  0  0
   36.7107   32.1660   49.5004 H   0  0  0  0  0  0  0  0  0  0  0  0
   36.4659   31.0797   46.5599 H   0  0  0  0  0  0  0  0  0  0  0  0
   35.1722   30.7887   47.3717 H   0  0  0  0  0  0  0  0  0  0  0  0
   38.0646   29.4340   48.2512 H   0  0  0  0  0  0  0  0  0  0  0  0
   37.9780   33.4426   50.2758 H   0  0  0  0  0  0  0  0  0  0  0  0
   39.9038   34.9481   49.6952 H   0  0  0  0  0  0  0  0  0  0  0  0
   41.2349   33.5920   45.3574 H   0  0  0  0  0  0  0  0  0  0  0  0
   40.1178   32.2630   44.9472 H   0  0  0  0  0  0  0  0  0  0  0  0
   34.0982   30.1144   50.7664 H   0  0  0  0  0  0  0  0  0  0  0  0
   33.3180   27.6999   47.8041 H   0  0  0  0  0  0  0  0  0  0  0  0
   33.1104   28.7046   46.3296 H   0  0  0  0  0  0  0  0  0  0  0  0
   34.2788   27.3403   46.3296 H   0  0  0  0  0  0  0  0  0  0  0  0
  2  3  1  0
  2  1  1  0
  3  1  1  0
  3 11  1  0
  4  1  1  0
  4  5  2  0
  6  5  1  0
  7  6  2  0
  8  9  2  0
  8  7  1  0
  9  4  1  0
 10  8  1  0
 13 11  1  0
 13 12  2  0
 13 14  1  0
 15 13  1  0
 16 15  1  0
  1 17  1  1
  2 18  1  0
  2 19  1  0
  3 20  1  6
  5 21  1  0
  6 22  1  0
 10 23  1  0
 10 24  1  0
 14 25  1  0
 16 26  1  0
 16 27  1  0
 16 28  1  0
M  ISO  8  17  13  18  13  19  13  20  13  21  14  22  14  25   3  26   8
M  ISO  2  27   8  28   8
M  END
>  <minimizedAffinity>  (1) 
-4.35017395

>  <minimizedRMSD>  (1) 
0.195639402

$$$$
