
     RDKit          3D

 37 38  0  0  0  0  0  0  0  0999 V2000
   36.9956   31.5588   48.6745 C   0  0  1  0  0  0  0  0  0  0  0  0
   36.2197   30.9155   47.6419 C   0  0  0  0  0  0  0  0  0  0  0  0
   37.1853   30.1231   48.4687 C   0  0  2  0  0  0  0  0  0  0  0  0
   38.1526   32.4468   48.3240 C   0  0  0  0  0  0  0  0  0  0  0  0
   38.5389   33.3706   49.3284 C   0  0  0  0  0  0  0  0  0  0  0  0
   39.5993   34.1818   48.9930 C   0  0  0  0  0  0  0  0  0  0  0  0
   40.1954   34.0555   47.7621 N   0  0  0  0  0  0  0  0  0  0  0  0
   39.7864   33.1551   46.8389 C   0  0  0  0  0  0  0  0  0  0  0  0
   38.7362   32.3338   47.1373 N   0  0  0  0  0  0  0  0  0  0  0  0
   40.3982   33.0244   45.5818 N   0  0  0  0  0  0  0  0  0  0  0  0
   36.5884   29.3071   49.4461 O   0  0  0  0  0  0  0  0  0  0  0  0
   34.6135   27.6738   49.6978 O   0  0  0  0  0  0  0  0  0  0  0  0
   35.0112   28.9572   49.0429 P   0  0  1  0  0  0  0  0  0  0  0  0
   33.9654   30.1567   49.7158 O   0  0  0  0  0  0  0  0  0  0  0  0
   34.8669   28.9469   47.3609 O   0  0  0  0  0  0  0  0  0  0  0  0
   36.5577   31.8257   49.6980 H   0  0  0  0  0  0  0  0  0  0  0  0
   36.5258   31.1127   46.5934 H   0  0  0  0  0  0  0  0  0  0  0  0
   35.1882   31.1608   47.8087 H   0  0  0  0  0  0  0  0  0  0  0  0
   37.8441   29.5646   47.8224 H   0  0  0  0  0  0  0  0  0  0  0  0
   38.0843   33.4745   50.2820 H   0  0  0  0  0  0  0  0  0  0  0  0
   39.9863   34.9276   49.6760 H   0  0  0  0  0  0  0  0  0  0  0  0
   40.2513   32.2004   44.9909 H   0  0  0  0  0  0  0  0  0  0  0  0
   41.0201   33.8080   45.2604 H   0  0  0  0  0  0  0  0  0  0  0  0
   33.0367   29.9749   49.3862 H   0  0  0  0  0  0  0  0  0  0  0  0
   33.7403   28.2489   47.0079 C   0  0  0  0  0  0  0  0  0  0  0  0
   32.9459   28.9011   45.9944 N   0  0  0  0  0  4  0  0  0  0  0  0
   32.7981   30.3201   46.2367 C   0  0  0  0  0  0  0  0  0  0  0  0
   33.7012   30.8513   45.9086 H   0  0  0  0  0  0  0  0  0  0  0  0
   33.4693   28.7375   44.6515 C   0  0  0  0  0  0  0  0  0  0  0  0
   32.9456   29.5119   44.0250 H   0  0  0  0  0  0  0  0  0  0  0  0
   33.0639   28.0675   47.8840 H   0  0  0  0  0  0  0  0  0  0  0  0
   34.0391   27.2522   46.6315 H   0  0  0  0  0  0  0  0  0  0  0  0
   31.9793   28.5046   45.9897 H   0  0  0  0  0  0  0  0  0  0  0  0
   32.6023   30.5190   47.3233 H   0  0  0  0  0  0  0  0  0  0  0  0
   31.9112   30.6791   45.6454 H   0  0  0  0  0  0  0  0  0  0  0  0
   33.2003   27.7650   44.1958 H   0  0  0  0  0  0  0  0  0  0  0  0
   34.5577   28.9422   44.5995 H   0  0  0  0  0  0  0  0  0  0  0  0
  2  3  1  0
  2  1  1  0
  3  1  1  0
  3 11  1  0
  4  1  1  0
  4  5  2  0
  6  5  1  0
  7  6  2  0
  8  9  2  0
  8  7  1  0
  9  4  1  0
 10  8  1  0
 13 11  1  6
 13 12  2  0
 13 14  1  0
 15 13  1  0
  1 16  1  1
  2 17  1  0
  2 18  1  0
  3 19  1  6
  5 20  1  0
  6 21  1  0
 10 22  1  0
 10 23  1  0
 14 24  1  0
 25 26  1  0
 26 27  1  0
 27 28  1  0
 26 29  1  0
 29 30  1  0
 25 31  1  0
 25 32  1  0
 26 33  1  0
 27 34  1  0
 27 35  1  0
 29 36  1  0
 29 37  1  0
 15 25  1  0
M  CHG  1  26   1
M  END
>  <DihAtoms>  (1) 
12,14,24,25

>  <DihDeg>  (1) 
-179.9994169018545

$$$$
