
     RDKit          3D

 36 38  0  0  0  0  0  0  0  0999 V2000
   37.7090   30.5140   46.9640 Cl  0  0  0  0  0  0  0  0  0  0  0  0
   38.3260   31.8760   47.8740 C   0  0  0  0  0  0  0  0  0  0  0  0
   37.9720   31.9980   49.1850 C   0  0  0  0  0  0  0  0  0  0  0  0
   38.4980   33.1040   49.8570 C   0  0  0  0  0  0  0  0  0  0  0  0
   39.3290   34.0010   49.1840 C   0  0  0  0  0  0  0  0  0  0  0  0
   39.6510   33.8280   47.8650 C   0  0  0  0  0  0  0  0  0  0  0  0
   39.1420   32.7440   47.1890 C   0  0  0  0  0  0  0  0  0  0  0  0
   37.5490   30.3500   51.0100 C   0  0  0  0  0  0  0  0  0  0  0  0
   37.1040   31.0680   49.9000 C   0  0  0  0  0  0  0  0  0  0  0  0
   35.7860   30.8670   49.4880 C   0  0  0  0  0  0  0  0  0  0  0  0
   35.0090   29.9940   50.1770 N   0  0  0  0  0  0  0  0  0  0  0  0
   35.4760   29.3160   51.2490 C   0  0  0  0  0  0  0  0  0  0  0  0
   36.7550   29.4960   51.6670 N   0  0  0  0  0  0  0  0  0  0  0  0
   39.4730   32.5290   45.7600 C   0  0  0  0  0  0  0  0  0  0  0  0
   38.2400   32.4880   44.9000 C   0  0  0  0  0  0  0  0  0  0  0  0
   38.6710   32.5450   43.4570 C   0  0  0  0  0  0  0  0  0  0  0  0
   40.1070   32.2060   43.2290 C   0  0  0  0  0  0  0  0  0  0  0  0
   40.6230   31.0720   44.0860 C   0  0  0  0  0  0  0  0  0  0  0  0
   40.2370   31.2410   45.5360 C   0  0  0  0  0  0  0  0  0  0  0  0
   38.2570   33.2681   50.9177 H   0  0  0  0  0  0  0  0  0  0  0  0
   39.7348   34.8676   49.7266 H   0  0  0  0  0  0  0  0  0  0  0  0
   40.3080   34.5463   47.3527 H   0  0  0  0  0  0  0  0  0  0  0  0
   38.5838   30.4899   51.3559 H   0  0  0  0  0  0  0  0  0  0  0  0
   35.3836   31.4076   48.6187 H   0  0  0  0  0  0  0  0  0  0  0  0
   34.8176   28.6161   51.7844 H   0  0  0  0  0  0  0  0  0  0  0  0
   40.1022   33.3851   45.4748 H   0  0  0  0  0  0  0  0  0  0  0  0
   37.6864   31.5560   45.0868 H   0  0  0  0  0  0  0  0  0  0  0  0
   37.5842   33.3393   45.1348 H   0  0  0  0  0  0  0  0  0  0  0  0
   38.0549   31.8352   42.8855 H   0  0  0  0  0  0  0  0  0  0  0  0
   38.5385   33.5870   43.1304 H   0  0  0  0  0  0  0  0  0  0  0  0
   40.2307   31.9235   42.1731 H   0  0  0  0  0  0  0  0  0  0  0  0
   40.6885   33.0982   43.5042 H   0  0  0  0  0  0  0  0  0  0  0  0
   40.2030   30.1258   43.7142 H   0  0  0  0  0  0  0  0  0  0  0  0
   41.7212   31.0702   44.0237 H   0  0  0  0  0  0  0  0  0  0  0  0
   39.6050   30.3932   45.8389 H   0  0  0  0  0  0  0  0  0  0  0  0
   41.1579   31.2769   46.1365 H   0  0  0  0  0  0  0  0  0  0  0  0
  1  2  1  0
  2  3  2  0
  3  4  1  0
  3  9  1  0
  5  4  2  0
  6  5  1  0
  7  6  2  0
  7  2  1  0
  8 13  2  0
  9  8  1  0
 10  9  2  0
 10 11  1  0
 11 12  2  0
 12 13  1  0
 14  7  1  0
 15 14  1  0
 16 15  1  0
 17 16  1  0
 17 18  1  0
 18 19  1  0
 19 14  1  0
  4 20  1  0
  5 21  1  0
  6 22  1  0
  8 23  1  0
 10 24  1  0
 12 25  1  0
 14 26  1  0
 15 27  1  0
 15 28  1  0
 16 29  1  0
 16 30  1  0
 17 31  1  0
 17 32  1  0
 18 33  1  0
 18 34  1  0
 19 35  1  0
 19 36  1  0
M  ISO  8  20  14  21  14  22  14  23  14  24  14  25  14  26  13  27  13
M  ISO  8  28  13  29  13  30  13  31  13  32  13  33  13  34  13  35  13
M  ISO  1  36  13
M  END
>  <minimizedAffinity>  (1) 
-6.78563309

>  <minimizedRMSD>  (1) 
0.740313828

$$$$
