
     RDKit          3D

 35 37  0  0  0  0  0  0  0  0999 V2000
   37.7530   30.2810   46.8450 Cl  0  0  0  0  0  0  0  0  0  0  0  0
   38.3780   31.7120   47.6480 C   0  0  0  0  0  0  0  0  0  0  0  0
   38.0360   31.9120   48.9400 C   0  0  0  0  0  0  0  0  0  0  0  0
   38.5730   33.0760   49.5150 C   0  0  0  0  0  0  0  0  0  0  0  0
   39.3870   33.9290   48.7810 C   0  0  0  0  0  0  0  0  0  0  0  0
   39.6960   33.6650   47.4690 C   0  0  0  0  0  0  0  0  0  0  0  0
   39.1720   32.5240   46.8980 C   0  0  0  0  0  0  0  0  0  0  0  0
   37.6820   30.3870   50.8780 C   0  0  0  0  0  0  0  0  0  0  0  0
   37.1900   31.0450   49.7370 C   0  0  0  0  0  0  0  0  0  0  0  0
   35.8590   30.8370   49.3930 C   0  0  0  0  0  0  0  0  0  0  0  0
   35.1120   30.0120   50.1780 N   0  0  0  0  0  0  0  0  0  0  0  0
   35.6040   29.3990   51.2580 C   0  0  0  0  0  0  0  0  0  0  0  0
   36.9030   29.5830   51.6180 N   0  0  0  0  0  0  0  0  0  0  0  0
   39.5180   32.2910   45.5360 N   0  0  0  0  0  0  0  0  0  0  0  0
   40.7380   31.5690   45.2290 C   0  0  0  0  0  0  0  0  0  0  0  0
   40.6850   30.8580   43.8920 C   0  0  0  0  0  0  0  0  0  0  0  0
   40.0420   31.8340   42.9130 C   0  0  0  0  0  0  0  0  0  0  0  0
   38.5830   31.8990   43.3340 C   0  0  0  0  0  0  0  0  0  0  0  0
   38.5770   32.8210   44.5600 C   0  0  0  0  0  0  0  0  0  0  0  0
   38.3449   33.3158   50.5640 H   0  0  0  0  0  0  0  0  0  0  0  0
   39.7918   34.8330   49.2594 H   0  0  0  0  0  0  0  0  0  0  0  0
   40.3416   34.3428   46.8913 H   0  0  0  0  0  0  0  0  0  0  0  0
   38.7318   30.5350   51.1714 H   0  0  0  0  0  0  0  0  0  0  0  0
   35.4210   31.3258   48.5103 H   0  0  0  0  0  0  0  0  0  0  0  0
   34.9565   28.7431   51.8585 H   0  0  0  0  0  0  0  0  0  0  0  0
   41.5738   32.2840   45.2128 H   0  0  0  0  0  0  0  0  0  0  0  0
   40.8697   30.8007   46.0051 H   0  0  0  0  0  0  0  0  0  0  0  0
   41.7004   30.5977   43.5586 H   0  0  0  0  0  0  0  0  0  0  0  0
   40.1101   29.9226   43.9593 H   0  0  0  0  0  0  0  0  0  0  0  0
   40.1317   31.4638   41.8811 H   0  0  0  0  0  0  0  0  0  0  0  0
   40.5251   32.8221   42.9331 H   0  0  0  0  0  0  0  0  0  0  0  0
   37.9642   32.3201   42.5279 H   0  0  0  0  0  0  0  0  0  0  0  0
   38.1674   30.9051   43.5564 H   0  0  0  0  0  0  0  0  0  0  0  0
   38.8809   33.8358   44.2636 H   0  0  0  0  0  0  0  0  0  0  0  0
   37.5673   32.8674   44.9939 H   0  0  0  0  0  0  0  0  0  0  0  0
  1  2  1  0
  2  3  2  0
  3  4  1  0
  3  9  1  0
  5  4  2  0
  6  5  1  0
  7  6  2  0
  7  2  1  0
  8 13  2  0
  9  8  1  0
 10  9  2  0
 10 11  1  0
 11 12  2  0
 12 13  1  0
 14  7  1  0
 15 14  1  0
 16 15  1  0
 17 18  1  0
 17 16  1  0
 18 19  1  0
 19 14  1  0
  4 20  1  0
  5 21  1  0
  6 22  1  0
  8 23  1  0
 10 24  1  0
 12 25  1  0
 15 26  1  0
 15 27  1  0
 16 28  1  0
 16 29  1  0
 17 30  1  0
 17 31  1  0
 18 32  1  0
 18 33  1  0
 19 34  1  0
 19 35  1  0
M  ISO  8  20  14  21  14  22  14  23  14  24  14  25  14  26  13  27  13
M  ISO  8  28  13  29  13  30  13  31  13  32  13  33  13  34  13  35  13
M  END
>  <minimizedAffinity>  (1) 
-6.32242584

>  <minimizedRMSD>  (1) 
0.689743996

$$$$
