
     RDKit          3D

 26 27  0  0  0  0  0  0  0  0999 V2000
   38.2950   30.2610   47.0460 Cl  0  0  0  0  0  0  0  0  0  0  0  0
   38.6400   31.7570   47.8720 C   0  0  0  0  0  0  0  0  0  0  0  0
   38.0220   32.0100   49.0700 C   0  0  0  0  0  0  0  0  0  0  0  0
   38.3430   33.2180   49.6690 C   0  0  0  0  0  0  0  0  0  0  0  0
   39.2350   34.1030   49.0760 C   0  0  0  0  0  0  0  0  0  0  0  0
   39.8290   33.8130   47.8810 C   0  0  0  0  0  0  0  0  0  0  0  0
   39.5260   32.6040   47.2530 C   0  0  0  0  0  0  0  0  0  0  0  0
   37.4380   30.3690   50.8440 C   0  0  0  0  0  0  0  0  0  0  0  0
   37.0820   31.1040   49.7170 C   0  0  0  0  0  0  0  0  0  0  0  0
   35.7890   30.9460   49.2170 C   0  0  0  0  0  0  0  0  0  0  0  0
   34.9450   30.0880   49.8540 N   0  0  0  0  0  0  0  0  0  0  0  0
   35.3200   29.3970   50.9380 C   0  0  0  0  0  0  0  0  0  0  0  0
   36.5780   29.5330   51.4450 N   0  0  0  0  0  0  0  0  0  0  0  0
   40.1160   32.2830   46.0380 O   0  0  0  0  0  0  0  0  0  0  0  0
   39.9840   34.2910   44.3410 O   0  0  0  0  0  0  0  0  0  0  0  0
   39.4200   32.8860   44.5790 P   0  0  0  0  0  0  0  0  0  0  0  0
   39.8720   31.9630   43.2630 O   0  0  0  0  0  0  0  0  0  0  0  0
   37.7540   32.9680   44.7860 O   0  0  0  0  0  0  0  0  0  0  0  0
   37.8826   33.4812   50.6327 H   0  0  0  0  0  0  0  0  0  0  0  0
   39.4668   35.0540   49.5779 H   0  0  0  0  0  0  0  0  0  0  0  0
   40.5346   34.5205   47.4210 H   0  0  0  0  0  0  0  0  0  0  0  0
   38.4532   30.4766   51.2535 H   0  0  0  0  0  0  0  0  0  0  0  0
   35.4586   31.5025   48.3275 H   0  0  0  0  0  0  0  0  0  0  0  0
   34.6071   28.7141   51.4232 H   0  0  0  0  0  0  0  0  0  0  0  0
   40.2849   31.1199   43.5774 H   0  0  0  0  0  0  0  0  0  0  0  0
   37.5417   32.9784   45.7529 H   0  0  0  0  0  0  0  0  0  0  0  0
  1  2  1  0
  2  3  2  0
  3  4  1  0
  3  9  1  0
  5  4  2  0
  6  5  1  0
  7  2  1  0
  7  6  2  0
  8 13  2  0
  9  8  1  0
 10  9  2  0
 10 11  1  0
 11 12  2  0
 12 13  1  0
 14  7  1  0
 15 16  2  0
 16 18  1  0
 16 14  1  0
 17 16  1  0
  4 19  1  0
  5 20  1  0
  6 21  1  0
  8 22  1  0
 10 23  1  0
 12 24  1  0
 17 25  1  0
 18 26  1  0
M  ISO  8  19  14  20  14  21  14  22  14  23  14  24  14  25   3  26   3
M  END
>  <minimizedAffinity>  (1) 
-5.94329596

>  <minimizedRMSD>  (1) 
0.835670352

$$$$
