
     RDKit          3D

 26 28  0  0  0  0  0  0  0  0999 V2000
   37.5010   30.2260   46.9660 Cl  0  0  0  0  0  0  0  0  0  0  0  0
   38.1580   31.6150   47.7720 C   0  0  0  0  0  0  0  0  0  0  0  0
   37.8090   31.8250   49.0850 C   0  0  0  0  0  0  0  0  0  0  0  0
   38.3640   32.9530   49.7040 C   0  0  0  0  0  0  0  0  0  0  0  0
   39.2170   33.7810   48.9810 C   0  0  0  0  0  0  0  0  0  0  0  0
   39.5370   33.5380   47.6830 C   0  0  0  0  0  0  0  0  0  0  0  0
   38.9850   32.4110   47.0560 C   0  0  0  0  0  0  0  0  0  0  0  0
   37.3690   30.2730   50.9980 C   0  0  0  0  0  0  0  0  0  0  0  0
   36.9250   30.9690   49.8520 C   0  0  0  0  0  0  0  0  0  0  0  0
   35.5960   30.7910   49.4840 C   0  0  0  0  0  0  0  0  0  0  0  0
   34.8050   29.9730   50.2270 N   0  0  0  0  0  0  0  0  0  0  0  0
   35.2610   29.3310   51.3050 C   0  0  0  0  0  0  0  0  0  0  0  0
   36.5590   29.4750   51.7070 N   0  0  0  0  0  0  0  0  0  0  0  0
   39.4290   32.2760   45.6720 C   0  0  0  0  0  0  0  0  0  0  0  0
   40.1850   31.1910   45.3350 C   0  0  0  0  0  0  0  0  0  0  0  0
   40.4890   31.4160   43.5120 S   0  0  0  0  0  0  0  0  0  0  0  0
   39.4770   33.0270   43.5570 C   0  0  0  0  0  0  0  0  0  0  0  0
   39.1880   33.0690   44.6410 N   0  0  0  0  0  0  0  0  0  0  0  0
   38.1271   33.1821   50.7535 H   0  0  0  0  0  0  0  0  0  0  0  0
   39.6474   34.6632   49.4776 H   0  0  0  0  0  0  0  0  0  0  0  0
   40.2141   34.2103   47.1358 H   0  0  0  0  0  0  0  0  0  0  0  0
   38.4145   30.3899   51.3192 H   0  0  0  0  0  0  0  0  0  0  0  0
   35.1894   31.3065   48.6014 H   0  0  0  0  0  0  0  0  0  0  0  0
   34.5841   28.6786   51.8762 H   0  0  0  0  0  0  0  0  0  0  0  0
   40.5327   30.3759   45.9866 H   0  0  0  0  0  0  0  0  0  0  0  0
   39.2397   33.7269   42.7422 H   0  0  0  0  0  0  0  0  0  0  0  0
  1  2  1  0
  2  3  2  0
  3  4  1  0
  3  9  1  0
  5  4  2  0
  6  5  1  0
  7  6  2  0
  7  2  1  0
  8 13  2  0
  9  8  1  0
 10  9  2  0
 10 11  1  0
 11 12  2  0
 12 13  1  0
 14  7  1  0
 15 14  2  0
 16 17  1  0
 16 15  1  0
 17 18  2  0
 18 14  1  0
  4 19  1  0
  5 20  1  0
  6 21  1  0
  8 22  1  0
 10 23  1  0
 12 24  1  0
 15 25  1  0
 17 26  1  0
M  ISO  8  19  14  20  14  21  14  22  14  23  14  24  14  25  14  26  14
M  END
>  <minimizedAffinity>  (1) 
-5.91580153

>  <minimizedRMSD>  (1) 
0.870745301

$$$$
