
     RDKit          3D

 23 24  0  0  0  0  0  0  0  0999 V2000
   38.4960   30.6540   46.7160 Cl  0  0  0  0  0  0  0  0  0  0  0  0
   38.8950   32.0860   47.6360 C   0  0  0  0  0  0  0  0  0  0  0  0
   38.3870   32.2090   48.8870 C   0  0  0  0  0  0  0  0  0  0  0  0
   38.7450   33.3820   49.5710 C   0  0  0  0  0  0  0  0  0  0  0  0
   39.5720   34.3230   48.9590 C   0  0  0  0  0  0  0  0  0  0  0  0
   40.0590   34.1520   47.6960 C   0  0  0  0  0  0  0  0  0  0  0  0
   39.7040   33.0020   47.0290 C   0  0  0  0  0  0  0  0  0  0  0  0
   38.0320   30.3230   50.4830 C   0  0  0  0  0  0  0  0  0  0  0  0
   37.5250   31.2390   49.5390 C   0  0  0  0  0  0  0  0  0  0  0  0
   36.1680   31.1810   49.2540 C   0  0  0  0  0  0  0  0  0  0  0  0
   35.4050   30.2550   49.8930 N   0  0  0  0  0  0  0  0  0  0  0  0
   35.9090   29.3950   50.7840 C   0  0  0  0  0  0  0  0  0  0  0  0
   37.2390   29.4230   51.0880 N   0  0  0  0  0  0  0  0  0  0  0  0
   40.2290   32.7990   45.6480 C   0  0  0  0  0  0  0  0  0  0  0  0
   38.3725   33.5587   50.5908 H   0  0  0  0  0  0  0  0  0  0  0  0
   39.8410   35.2343   49.5133 H   0  0  0  0  0  0  0  0  0  0  0  0
   40.7107   34.9049   47.2287 H   0  0  0  0  0  0  0  0  0  0  0  0
   39.1036   30.3457   50.7304 H   0  0  0  0  0  0  0  0  0  0  0  0
   35.7184   31.8712   48.5249 H   0  0  0  0  0  0  0  0  0  0  0  0
   35.2498   28.6629   51.2733 H   0  0  0  0  0  0  0  0  0  0  0  0
   41.2538   32.4027   45.6999 H   0  0  0  0  0  0  0  0  0  0  0  0
   39.5863   32.0846   45.1127 H   0  0  0  0  0  0  0  0  0  0  0  0
   40.2341   33.7600   45.1127 H   0  0  0  0  0  0  0  0  0  0  0  0
  1  2  1  0
  2  3  2  0
  3  9  1  0
  3  4  1  0
  5  4  2  0
  6  5  1  0
  7  2  1  0
  7  6  2  0
  8 13  2  0
  9  8  1  0
 10  9  2  0
 10 11  1  0
 11 12  2  0
 12 13  1  0
 14  7  1  0
  4 15  1  0
  5 16  1  0
  6 17  1  0
  8 18  1  0
 10 19  1  0
 12 20  1  0
 14 21  1  0
 14 22  1  0
 14 23  1  0
M  ISO  8  15  14  16  14  17  14  18  14  19  14  20  14  21   8  22   8
M  ISO  1  23   8
M  END
>  <minimizedAffinity>  (1) 
-5.68488121

>  <minimizedRMSD>  (1) 
0.128419057

$$$$
