
     RDKit          3D

 21 22  0  0  0  0  0  0  0  0999 V2000
   38.4150   30.6040   46.7890 Cl  0  0  0  0  0  0  0  0  0  0  0  0
   38.8350   32.0500   47.6930 C   0  0  0  0  0  0  0  0  0  0  0  0
   38.3380   32.1990   48.9530 C   0  0  0  0  0  0  0  0  0  0  0  0
   38.7110   33.3650   49.6060 C   0  0  0  0  0  0  0  0  0  0  0  0
   39.5390   34.2870   48.9760 C   0  0  0  0  0  0  0  0  0  0  0  0
   40.0090   34.0880   47.7120 C   0  0  0  0  0  0  0  0  0  0  0  0
   39.6470   32.9370   47.0500 C   0  0  0  0  0  0  0  0  0  0  0  0
   37.9390   30.4170   50.6540 C   0  0  0  0  0  0  0  0  0  0  0  0
   37.4650   31.2290   49.6230 C   0  0  0  0  0  0  0  0  0  0  0  0
   36.1330   31.0980   49.2400 C   0  0  0  0  0  0  0  0  0  0  0  0
   35.3730   30.1840   49.8960 N   0  0  0  0  0  0  0  0  0  0  0  0
   35.8480   29.4150   50.8820 C   0  0  0  0  0  0  0  0  0  0  0  0
   37.1340   29.5280   51.2660 N   0  0  0  0  0  0  0  0  0  0  0  0
   40.1350   32.7490   45.7620 O   0  0  0  0  0  0  0  0  0  0  0  0
   38.3500   33.5607   50.6265 H   0  0  0  0  0  0  0  0  0  0  0  0
   39.8232   35.2039   49.5132 H   0  0  0  0  0  0  0  0  0  0  0  0
   40.6630   34.8308   47.2318 H   0  0  0  0  0  0  0  0  0  0  0  0
   38.9883   30.5047   50.9722 H   0  0  0  0  0  0  0  0  0  0  0  0
   35.7104   31.7144   48.4329 H   0  0  0  0  0  0  0  0  0  0  0  0
   35.1877   28.6896   51.3797 H   0  0  0  0  0  0  0  0  0  0  0  0
   40.7216   33.4320   45.3503 H   0  0  0  0  0  0  0  0  0  0  0  0
  1  2  1  0
  2  3  2  0
  3  4  1  0
  3  9  1  0
  5  4  2  0
  6  5  1  0
  7  2  1  0
  7  6  2  0
  8 13  2  0
  9  8  1  0
 10  9  2  0
 10 11  1  0
 11 12  2  0
 12 13  1  0
 14  7  1  0
  4 15  1  0
  5 16  1  0
  6 17  1  0
  8 18  1  0
 10 19  1  0
 12 20  1  0
 14 21  1  0
M  ISO  7  15  14  16  14  17  14  18  14  19  14  20  14  21   3
M  END
>  <minimizedAffinity>  (1) 
-5.46306992

>  <minimizedRMSD>  (1) 
0.019542655

$$$$
