
     RDKit          3D

 27 28  0  0  0  0  0  0  0  0999 V2000
   38.1080   30.6470   46.8290 Cl  0  0  0  0  0  0  0  0  0  0  0  0
   38.6440   32.0410   47.7400 C   0  0  0  0  0  0  0  0  0  0  0  0
   38.2620   32.1640   49.0400 C   0  0  0  0  0  0  0  0  0  0  0  0
   38.7150   33.2850   49.7100 C   0  0  0  0  0  0  0  0  0  0  0  0
   39.5170   34.2050   49.0410 C   0  0  0  0  0  0  0  0  0  0  0  0
   39.8720   34.0390   47.7410 C   0  0  0  0  0  0  0  0  0  0  0  0
   39.4270   32.9270   47.0620 C   0  0  0  0  0  0  0  0  0  0  0  0
   37.9360   30.3660   50.7540 C   0  0  0  0  0  0  0  0  0  0  0  0
   37.4130   31.1880   49.7440 C   0  0  0  0  0  0  0  0  0  0  0  0
   36.0690   31.0510   49.4310 C   0  0  0  0  0  0  0  0  0  0  0  0
   35.3480   30.1310   50.1220 N   0  0  0  0  0  0  0  0  0  0  0  0
   35.8670   29.3640   51.0740 C   0  0  0  0  0  0  0  0  0  0  0  0
   37.1600   29.4770   51.3940 N   0  0  0  0  0  0  0  0  0  0  0  0
   39.7980   32.7710   45.7390 O   0  0  0  0  0  0  0  0  0  0  0  0
   40.9100   32.0560   45.2970 C   0  0  0  0  0  0  0  0  0  0  0  0
   40.6400   31.1070   44.1600 C   0  0  0  0  0  0  0  0  0  0  0  0
   38.4438   33.4486   50.7634 H   0  0  0  0  0  0  0  0  0  0  0  0
   39.8741   35.0937   49.5820 H   0  0  0  0  0  0  0  0  0  0  0  0
   40.5066   34.7829   47.2371 H   0  0  0  0  0  0  0  0  0  0  0  0
   38.9985   30.4515   51.0255 H   0  0  0  0  0  0  0  0  0  0  0  0
   35.6023   31.6674   48.6486 H   0  0  0  0  0  0  0  0  0  0  0  0
   35.2324   28.6352   51.5995 H   0  0  0  0  0  0  0  0  0  0  0  0
   41.6716   32.7777   44.9667 H   0  0  0  0  0  0  0  0  0  0  0  0
   41.2372   31.4371   46.1455 H   0  0  0  0  0  0  0  0  0  0  0  0
   40.3599   30.1225   44.5628 H   0  0  0  0  0  0  0  0  0  0  0  0
   39.8175   31.4983   43.5432 H   0  0  0  0  0  0  0  0  0  0  0  0
   41.5453   31.0068   43.5432 H   0  0  0  0  0  0  0  0  0  0  0  0
  1  2  1  0
  2  3  2  0
  3  4  1  0
  3  9  1  0
  5  4  2  0
  6  5  1  0
  7  2  1  0
  7  6  2  0
  8 13  2  0
  9  8  1  0
 10  9  2  0
 10 11  1  0
 11 12  2  0
 12 13  1  0
 14  7  1  0
 15 14  1  0
 16 15  1  0
  4 17  1  0
  5 18  1  0
  6 19  1  0
  8 20  1  0
 10 21  1  0
 12 22  1  0
 15 23  1  0
 15 24  1  0
 16 25  1  0
 16 26  1  0
 16 27  1  0
M  ISO  8  17  14  18  14  19  14  20  14  21  14  22  14  23   8  24   8
M  ISO  3  25   8  26   8  27   8
M  END
>  <minimizedAffinity>  (1) 
-5.5878396

>  <minimizedRMSD>  (1) 
0.837342083

$$$$
