
     RDKit          3D

 48 51  0  0  1  0  0  0  0  0999 V2000
   37.8750   32.4880   43.3550 C   0  0  2  0  0  0  0  0  0  0  0  0
   36.4380   32.6640   42.7850 C   0  0  0  0  0  0  0  0  0  0  0  0
   36.0120   31.4260   42.1090 C   0  0  0  0  0  0  0  0  0  0  0  0
   36.7610   31.2450   40.8150 C   0  0  0  0  0  0  0  0  0  0  0  0
   38.0330   31.9970   40.8940 C   0  0  0  0  0  0  0  0  0  0  0  0
   38.6720   31.9290   42.2540 C   0  0  2  0  0  0  0  0  0  0  0  0
   39.4930   30.7370   42.5330 C   0  0  2  0  0  0  0  0  0  0  0  0
   40.6990   30.6750   41.5990 C   0  0  0  0  0  0  0  0  0  0  0  0
   41.2150   29.2910   42.0190 C   0  0  0  0  0  0  0  0  0  0  0  0
   40.1400   28.6130   42.5670 O   0  0  0  0  0  0  0  0  0  0  0  0
   38.9790   29.3780   42.3230 C   0  0  0  0  0  0  0  0  0  0  0  0
   37.7310   31.6110   44.3850 O   0  0  0  0  0  0  0  0  0  0  0  0
   36.0710   30.1060   46.2330 Cl  0  0  0  0  0  0  0  0  0  0  0  0
   37.3700   31.1590   46.7090 C   0  0  0  0  0  0  0  0  0  0  0  0
   37.6320   31.2950   48.0460 C   0  0  0  0  0  0  0  0  0  0  0  0
   38.6670   32.1420   48.3840 C   0  0  0  0  0  0  0  0  0  0  0  0
   39.3720   32.7960   47.3940 C   0  0  0  0  0  0  0  0  0  0  0  0
   39.0800   32.6360   46.0640 C   0  0  0  0  0  0  0  0  0  0  0  0
   38.0590   31.8010   45.7180 C   0  0  0  0  0  0  0  0  0  0  0  0
   37.5580   29.8510   50.0940 C   0  0  0  0  0  0  0  0  0  0  0  0
   36.8830   30.5990   49.1050 C   0  0  0  0  0  0  0  0  0  0  0  0
   35.4980   30.6550   49.1610 C   0  0  0  0  0  0  0  0  0  0  0  0
   34.8700   29.9890   50.1610 N   0  0  0  0  0  0  0  0  0  0  0  0
   35.5280   29.2870   51.0870 C   0  0  0  0  0  0  0  0  0  0  0  0
   36.8700   29.2120   51.0610 N   0  0  0  0  0  0  0  0  0  0  0  0
   38.3647   33.4047   43.7153 H   0  0  0  0  0  0  0  0  0  0  0  0
   35.7437   32.8875   43.6084 H   0  0  0  0  0  0  0  0  0  0  0  0
   36.4343   33.4920   42.0608 H   0  0  0  0  0  0  0  0  0  0  0  0
   36.2131   30.5673   42.7665 H   0  0  0  0  0  0  0  0  0  0  0  0
   34.9361   31.4933   41.8900 H   0  0  0  0  0  0  0  0  0  0  0  0
   36.1557   31.6281   39.9802 H   0  0  0  0  0  0  0  0  0  0  0  0
   36.9665   30.1775   40.6470 H   0  0  0  0  0  0  0  0  0  0  0  0
   38.7337   31.5792   40.1561 H   0  0  0  0  0  0  0  0  0  0  0  0
   37.8041   33.0535   40.6903 H   0  0  0  0  0  0  0  0  0  0  0  0
   39.4744   32.6785   42.1869 H   0  0  0  0  0  0  0  0  0  0  0  0
   39.6266   30.9168   43.6099 H   0  0  0  0  0  0  0  0  0  0  0  0
   40.4083   30.7083   40.5386 H   0  0  0  0  0  0  0  0  0  0  0  0
   41.4168   31.5048   41.6776 H   0  0  0  0  0  0  0  0  0  0  0  0
   41.5985   28.7478   41.1427 H   0  0  0  0  0  0  0  0  0  0  0  0
   42.0371   29.3796   42.7444 H   0  0  0  0  0  0  0  0  0  0  0  0
   38.1770   29.1344   43.0354 H   0  0  0  0  0  0  0  0  0  0  0  0
   38.5243   29.2116   41.3353 H   0  0  0  0  0  0  0  0  0  0  0  0
   38.9300   32.2959   49.4409 H   0  0  0  0  0  0  0  0  0  0  0  0
   40.1947   33.4673   47.6813 H   0  0  0  0  0  0  0  0  0  0  0  0
   39.6563   33.1691   45.2935 H   0  0  0  0  0  0  0  0  0  0  0  0
   38.6561   29.7891   50.0752 H   0  0  0  0  0  0  0  0  0  0  0  0
   34.9249   31.2243   48.4143 H   0  0  0  0  0  0  0  0  0  0  0  0
   34.9675   28.7660   51.8772 H   0  0  0  0  0  0  0  0  0  0  0  0
  1 12  1  0
  2  1  1  0
  3  2  1  0
  4  5  1  0
  4  3  1  0
  5  6  1  0
  6  7  1  0
  6  1  1  0
  7  8  1  0
  8  9  1  0
  9 10  1  0
 11  7  1  0
 11 10  1  0
 12 19  1  0
 13 14  1  0
 14 15  2  0
 15 16  1  0
 15 21  1  0
 17 16  2  0
 18 17  1  0
 19 18  2  0
 19 14  1  0
 20 25  2  0
 21 22  2  0
 21 20  1  0
 22 23  1  0
 23 24  2  0
 25 24  1  0
  1 26  1  1
  2 27  1  0
  2 28  1  0
  3 29  1  0
  3 30  1  0
  4 31  1  0
  4 32  1  0
  5 33  1  0
  5 34  1  0
  6 35  1  6
  7 36  1  1
  8 37  1  0
  8 38  1  0
  9 39  1  0
  9 40  1  0
 11 41  1  0
 11 42  1  0
 16 43  1  0
 17 44  1  0
 18 45  1  0
 20 46  1  0
 22 47  1  0
 24 48  1  0
M  ISO  8  26  13  27  13  28  13  29  13  30  13  31  13  32  13  33  13
M  ISO  8  34  13  35  13  36  13  37  13  38  13  39  13  40  13  41  13
M  ISO  7  42  13  43  14  44  14  45  14  46  14  47  14  48  14
M  END
>  <minimizedAffinity>  (1) 
-5.75160694

>  <minimizedRMSD>  (1) 
2.28701115

$$$$
