
     RDKit          3D

 41 43  0  0  1  0  0  0  0  0999 V2000
   37.7430   30.6080   50.7640 C   0  0  0  0  0  0  0  0  0  0  0  0
   38.3850   31.2760   49.7110 C   0  0  0  0  0  0  0  0  0  0  0  0
   38.0450   30.9430   48.4190 C   0  0  0  0  0  0  0  0  0  0  0  0
   37.1170   29.9930   48.2600 N   0  0  0  0  0  0  0  0  0  0  0  0
   36.5080   29.3590   49.2690 C   0  0  0  0  0  0  0  0  0  0  0  0
   36.8180   29.6630   50.5350 N   0  0  0  0  0  0  0  0  0  0  0  0
   38.5830   31.5030   47.2400 N   0  0  0  0  0  0  0  0  0  0  0  0
   38.8230   32.8890   47.0470 C   0  0  0  0  0  0  0  0  0  0  0  0
   40.1110   33.2980   46.4120 C   0  0  0  0  0  0  0  0  0  0  0  0
   40.7240   32.3780   45.4290 C   0  0  0  0  0  0  0  0  0  0  0  0
   40.4710   30.9620   45.8160 C   0  0  0  0  0  0  0  0  0  0  0  0
   38.9860   30.8050   46.0850 C   0  0  2  0  0  0  0  0  0  0  0  0
   38.1140   30.7140   44.9070 C   0  0  0  0  0  0  0  0  0  0  0  0
   38.4920   29.5520   43.9640 C   0  0  0  0  0  0  0  0  0  0  0  0
   37.8700   29.7300   42.6240 C   0  0  0  0  0  0  0  0  0  0  0  0
   36.8550   30.8340   42.6730 C   0  0  0  0  0  0  0  0  0  0  0  0
   35.9220   30.7800   43.8390 C   0  0  0  0  0  0  0  0  0  0  0  0
   36.6440   30.4960   45.1460 C   0  0  0  0  0  0  0  0  0  0  0  0
   38.0037   30.8646   51.8014 H   0  0  0  0  0  0  0  0  0  0  0  0
   39.1424   32.0478   49.9126 H   0  0  0  0  0  0  0  0  0  0  0  0
   35.7525   28.5879   49.0578 H   0  0  0  0  0  0  0  0  0  0  0  0
   38.0100   33.2764   46.4154 H   0  0  0  0  0  0  0  0  0  0  0  0
   38.8767   33.3018   48.0652 H   0  0  0  0  0  0  0  0  0  0  0  0
   39.9332   34.2543   45.8983 H   0  0  0  0  0  0  0  0  0  0  0  0
   40.8297   33.3292   47.2442 H   0  0  0  0  0  0  0  0  0  0  0  0
   41.8089   32.5558   45.3935 H   0  0  0  0  0  0  0  0  0  0  0  0
   40.2784   32.5631   44.4405 H   0  0  0  0  0  0  0  0  0  0  0  0
   40.7747   30.2920   44.9981 H   0  0  0  0  0  0  0  0  0  0  0  0
   41.0505   30.7031   46.7144 H   0  0  0  0  0  0  0  0  0  0  0  0
   38.7951   29.7665   46.3933 H   0  0  0  0  0  0  0  0  0  0  0  0
   38.2795   31.7170   44.4869 H   0  0  0  0  0  0  0  0  0  0  0  0
   39.5858   29.5209   43.8518 H   0  0  0  0  0  0  0  0  0  0  0  0
   38.1229   28.6120   44.4001 H   0  0  0  0  0  0  0  0  0  0  0  0
   37.3762   28.7939   42.3242 H   0  0  0  0  0  0  0  0  0  0  0  0
   38.6513   29.9894   41.8944 H   0  0  0  0  0  0  0  0  0  0  0  0
   37.3940   31.7922   42.7108 H   0  0  0  0  0  0  0  0  0  0  0  0
   36.2317   30.7200   41.7738 H   0  0  0  0  0  0  0  0  0  0  0  0
   35.4059   31.7477   43.9236 H   0  0  0  0  0  0  0  0  0  0  0  0
   35.2119   29.9586   43.6627 H   0  0  0  0  0  0  0  0  0  0  0  0
   36.4640   29.4561   45.4563 H   0  0  0  0  0  0  0  0  0  0  0  0
   36.2783   31.1600   45.9431 H   0  0  0  0  0  0  0  0  0  0  0  0
  2  1  2  0
  3  2  1  0
  4  3  2  0
  4  5  1  0
  5  6  2  0
  6  1  1  0
  7  3  1  0
  8  7  1  0
  9  8  1  0
 10 11  1  0
 10  9  1  0
 11 12  1  0
 12  7  1  0
 13 18  1  0
 13 12  1  0
 14 13  1  0
 15 16  1  0
 15 14  1  0
 16 17  1  0
 17 18  1  0
  1 19  1  0
  2 20  1  0
  5 21  1  0
  8 22  1  0
  8 23  1  0
  9 24  1  0
  9 25  1  0
 10 26  1  0
 10 27  1  0
 11 28  1  0
 11 29  1  0
 12 30  1  1
 13 31  1  0
 14 32  1  0
 14 33  1  0
 15 34  1  0
 15 35  1  0
 16 36  1  0
 16 37  1  0
 17 38  1  0
 17 39  1  0
 18 40  1  0
 18 41  1  0
M  ISO  8  19  14  20  14  21  14  22  13  23  13  24  13  25  13  26  13
M  ISO  8  27  13  28  13  29  13  30  13  31  13  32  13  33  13  34  13
M  ISO  7  35  13  36  13  37  13  38  13  39  13  40  13  41  13
M  END
>  <minimizedAffinity>  (1) 
-5.54651642

>  <minimizedRMSD>  (1) 
2.09450555

$$$$
