
     RDKit          3D

 35 37  0  0  1  0  0  0  0  0999 V2000
   37.2410   29.2730   50.2720 C   0  0  0  0  0  0  0  0  0  0  0  0
   37.8890   30.4790   49.9870 C   0  0  0  0  0  0  0  0  0  0  0  0
   37.5310   31.1550   48.8130 C   0  0  0  0  0  0  0  0  0  0  0  0
   36.5840   30.6000   48.0360 N   0  0  0  0  0  0  0  0  0  0  0  0
   35.9750   29.4450   48.3250 C   0  0  0  0  0  0  0  0  0  0  0  0
   36.3030   28.7660   49.4570 N   0  0  0  0  0  0  0  0  0  0  0  0
   38.0690   32.3750   48.3370 N   0  0  0  0  0  0  0  0  0  0  0  0
   38.2690   33.5480   49.1510 C   0  0  0  0  0  0  0  0  0  0  0  0
   39.5580   34.2520   49.0060 C   0  0  0  0  0  0  0  0  0  0  0  0
   40.1560   34.2930   47.6410 C   0  0  0  0  0  0  0  0  0  0  0  0
   39.9960   32.9430   46.9880 C   0  0  0  0  0  0  0  0  0  0  0  0
   38.4960   32.6430   47.0040 C   0  0  1  0  0  0  0  0  0  0  0  0
   40.7090   30.8420   46.0140 Cl  0  0  0  0  0  0  0  0  0  0  0  0
   39.0410   30.7380   45.4290 C   0  0  0  0  0  0  0  0  0  0  0  0
   38.1390   31.6560   45.9800 C   0  0  0  0  0  0  0  0  0  0  0  0
   36.8620   31.4800   45.4460 C   0  0  0  0  0  0  0  0  0  0  0  0
   36.5060   30.5470   44.5090 C   0  0  0  0  0  0  0  0  0  0  0  0
   37.4690   29.6960   44.0360 C   0  0  0  0  0  0  0  0  0  0  0  0
   38.7460   29.7790   44.4860 C   0  0  0  0  0  0  0  0  0  0  0  0
   37.5071   28.7255   51.1882 H   0  0  0  0  0  0  0  0  0  0  0  0
   38.6559   30.8844   50.6634 H   0  0  0  0  0  0  0  0  0  0  0  0
   35.2079   29.0436   47.6464 H   0  0  0  0  0  0  0  0  0  0  0  0
   37.4706   34.2633   48.9042 H   0  0  0  0  0  0  0  0  0  0  0  0
   38.2587   33.1814   50.1880 H   0  0  0  0  0  0  0  0  0  0  0  0
   39.4075   35.2912   49.3339 H   0  0  0  0  0  0  0  0  0  0  0  0
   40.2699   33.6733   49.6129 H   0  0  0  0  0  0  0  0  0  0  0  0
   39.6432   35.0565   47.0376 H   0  0  0  0  0  0  0  0  0  0  0  0
   41.2246   34.5439   47.7134 H   0  0  0  0  0  0  0  0  0  0  0  0
   40.5453   32.1767   47.5546 H   0  0  0  0  0  0  0  0  0  0  0  0
   40.3969   32.9405   45.9636 H   0  0  0  0  0  0  0  0  0  0  0  0
   37.9146   33.5269   46.7029 H   0  0  0  0  0  0  0  0  0  0  0  0
   36.0701   32.1509   45.8104 H   0  0  0  0  0  0  0  0  0  0  0  0
   35.4701   30.4826   44.1446 H   0  0  0  0  0  0  0  0  0  0  0  0
   37.2045   28.9380   43.2841 H   0  0  0  0  0  0  0  0  0  0  0  0
   39.5240   29.0993   44.1082 H   0  0  0  0  0  0  0  0  0  0  0  0
  2  1  2  0
  3  2  1  0
  4  5  1  0
  4  3  2  0
  5  6  2  0
  6  1  1  0
  7  3  1  0
  7  8  1  0
  9  8  1  0
 10  9  1  0
 11 12  1  0
 11 10  1  0
 12  7  1  0
 14 15  2  0
 14 13  1  0
 15 12  1  0
 16 15  1  0
 17 16  2  0
 18 19  2  0
 18 17  1  0
 19 14  1  0
  1 20  1  0
  2 21  1  0
  5 22  1  0
  8 23  1  0
  8 24  1  0
  9 25  1  0
  9 26  1  0
 10 27  1  0
 10 28  1  0
 11 29  1  0
 11 30  1  0
 12 31  1  6
 16 32  1  0
 17 33  1  0
 18 34  1  0
 19 35  1  0
M  ISO  8  20  14  21  14  22  14  23  13  24  13  25  13  26  13  27  13
M  ISO  8  28  13  29  13  30  13  31  13  32  14  33  14  34  14  35  14
M  END
>  <minimizedAffinity>  (1) 
-5.30210257

>  <minimizedRMSD>  (1) 
2.24708676

$$$$
