
     RDKit          3D

 29 30  0  0  1  0  0  0  0  0999 V2000
   36.8830   29.7520   51.5700 C   0  0  0  0  0  0  0  0  0  0  0  0
   37.5890   30.7230   50.8700 C   0  0  0  0  0  0  0  0  0  0  0  0
   37.0960   31.1400   49.6420 C   0  0  0  0  0  0  0  0  0  0  0  0
   35.9530   30.5730   49.1980 N   0  0  0  0  0  0  0  0  0  0  0  0
   35.2860   29.6320   49.8920 C   0  0  0  0  0  0  0  0  0  0  0  0
   35.7600   29.2190   51.0940 N   0  0  0  0  0  0  0  0  0  0  0  0
   37.6640   32.1110   48.7820 N   0  0  0  0  0  0  0  0  0  0  0  0
   38.1740   33.3730   49.2040 C   0  0  0  0  0  0  0  0  0  0  0  0
   39.4770   33.8070   48.6570 C   0  0  0  0  0  0  0  0  0  0  0  0
   39.7350   33.4530   47.2250 C   0  0  0  0  0  0  0  0  0  0  0  0
   39.3290   32.0150   47.0060 C   0  0  0  0  0  0  0  0  0  0  0  0
   37.8250   32.0020   47.3670 C   0  0  1  0  0  0  0  0  0  0  0  0
   36.8850   30.5820   45.4350 C   0  0  0  0  0  0  0  0  0  0  0  0
   36.9460   31.4470   44.5320 O   0  0  0  0  0  0  0  0  0  0  0  0
   37.2910   30.8170   46.7730 N   0  0  0  0  0  0  0  0  0  0  0  0
   37.2631   29.4142   52.5454 H   0  0  0  0  0  0  0  0  0  0  0  0
   38.5161   31.1505   51.2795 H   0  0  0  0  0  0  0  0  0  0  0  0
   34.3598   29.1994   49.4858 H   0  0  0  0  0  0  0  0  0  0  0  0
   37.4315   34.1361   48.9277 H   0  0  0  0  0  0  0  0  0  0  0  0
   38.3522   33.2534   50.2829 H   0  0  0  0  0  0  0  0  0  0  0  0
   39.5336   34.9017   48.7492 H   0  0  0  0  0  0  0  0  0  0  0  0
   40.2390   33.2680   49.2391 H   0  0  0  0  0  0  0  0  0  0  0  0
   39.1448   34.1092   46.5685 H   0  0  0  0  0  0  0  0  0  0  0  0
   40.8019   33.5831   46.9910 H   0  0  0  0  0  0  0  0  0  0  0  0
   39.4838   31.7185   45.9581 H   0  0  0  0  0  0  0  0  0  0  0  0
   39.9189   31.3082   47.6080 H   0  0  0  0  0  0  0  0  0  0  0  0
   37.2638   32.8618   46.9724 H   0  0  0  0  0  0  0  0  0  0  0  0
   36.4955   29.5863   45.1765 H   0  0  0  0  0  0  0  0  0  0  0  0
   37.1855   30.0153   47.4110 H   0  0  0  0  0  0  0  0  0  0  0  0
  2  1  2  0
  3  2  1  0
  4  3  2  0
  4  5  1  0
  5  6  2  0
  6  1  1  0
  7  8  1  0
  7  3  1  0
  9  8  1  0
 10  9  1  0
 11 10  1  0
 11 12  1  0
 12  7  1  0
 13 15  1  0
 14 13  2  0
 15 12  1  0
  1 16  1  0
  2 17  1  0
  5 18  1  0
  8 19  1  0
  8 20  1  0
  9 21  1  0
  9 22  1  0
 10 23  1  0
 10 24  1  0
 11 25  1  0
 11 26  1  0
 12 27  1  6
 13 28  1  0
 15 29  1  0
M  ISO  8  16  14  17  14  18  14  19  13  20  13  21  13  22  13  23  13
M  ISO  5  24  13  25  13  26  13  27  13  28   6
M  END
>  <minimizedAffinity>  (1) 
-5.08890438

>  <minimizedRMSD>  (1) 
1.14276028

$$$$
