
     RDKit          3D

 31 32  0  0  1  0  0  0  0  0999 V2000
   36.8670   29.7190   51.4940 C   0  0  0  0  0  0  0  0  0  0  0  0
   37.5930   30.7350   50.8620 C   0  0  0  0  0  0  0  0  0  0  0  0
   37.1020   31.1930   49.6310 C   0  0  0  0  0  0  0  0  0  0  0  0
   35.9720   30.6310   49.1460 N   0  0  0  0  0  0  0  0  0  0  0  0
   35.3070   29.6520   49.7960 C   0  0  0  0  0  0  0  0  0  0  0  0
   35.7580   29.1950   50.9780 N   0  0  0  0  0  0  0  0  0  0  0  0
   37.6840   32.2120   48.8260 N   0  0  0  0  0  0  0  0  0  0  0  0
   38.1530   33.4630   49.3010 C   0  0  0  0  0  0  0  0  0  0  0  0
   39.4660   33.9230   48.8080 C   0  0  0  0  0  0  0  0  0  0  0  0
   39.7950   33.6070   47.3880 C   0  0  0  0  0  0  0  0  0  0  0  0
   39.3830   32.1740   47.0850 C   0  0  0  0  0  0  0  0  0  0  0  0
   37.8860   32.1260   47.4050 C   0  0  1  0  0  0  0  0  0  0  0  0
   37.3190   30.9030   46.7480 C   0  0  0  0  0  0  0  0  0  0  0  0
   38.3620   30.4440   45.7210 C   0  0  0  0  0  0  0  0  0  0  0  0
   37.2291   29.3368   52.4598 H   0  0  0  0  0  0  0  0  0  0  0  0
   38.5059   31.1545   51.3099 H   0  0  0  0  0  0  0  0  0  0  0  0
   34.3926   29.2264   49.3571 H   0  0  0  0  0  0  0  0  0  0  0  0
   37.4093   34.2234   49.0203 H   0  0  0  0  0  0  0  0  0  0  0  0
   38.2903   33.3217   50.3832 H   0  0  0  0  0  0  0  0  0  0  0  0
   39.5012   35.0164   48.9232 H   0  0  0  0  0  0  0  0  0  0  0  0
   40.2085   33.3746   49.4063 H   0  0  0  0  0  0  0  0  0  0  0  0
   39.2516   34.2943   46.7229 H   0  0  0  0  0  0  0  0  0  0  0  0
   40.8767   33.7224   47.2252 H   0  0  0  0  0  0  0  0  0  0  0  0
   39.5616   31.9343   46.0264 H   0  0  0  0  0  0  0  0  0  0  0  0
   39.9583   31.4420   47.6709 H   0  0  0  0  0  0  0  0  0  0  0  0
   37.3391   32.9894   46.9983 H   0  0  0  0  0  0  0  0  0  0  0  0
   37.1472   30.1142   47.4951 H   0  0  0  0  0  0  0  0  0  0  0  0
   36.3528   31.1181   46.2682 H   0  0  0  0  0  0  0  0  0  0  0  0
   39.2468   30.0546   46.2459 H   0  0  0  0  0  0  0  0  0  0  0  0
   37.9318   29.6521   45.0903 H   0  0  0  0  0  0  0  0  0  0  0  0
   38.6553   31.2962   45.0903 H   0  0  0  0  0  0  0  0  0  0  0  0
  2  1  2  0
  3  2  1  0
  4  3  2  0
  4  5  1  0
  5  6  2  0
  6  1  1  0
  7  8  1  0
  7  3  1  0
  9  8  1  0
 10  9  1  0
 11 10  1  0
 11 12  1  0
 12  7  1  0
 13 12  1  0
 14 13  1  0
  1 15  1  0
  2 16  1  0
  5 17  1  0
  8 18  1  0
  8 19  1  0
  9 20  1  0
  9 21  1  0
 10 22  1  0
 10 23  1  0
 11 24  1  0
 11 25  1  0
 12 26  1  6
 13 27  1  0
 13 28  1  0
 14 29  1  0
 14 30  1  0
 14 31  1  0
M  ISO  8  15  14  16  14  17  14  18  13  19  13  20  13  21  13  22  13
M  ISO  8  23  13  24  13  25  13  26  13  27   8  28   8  29   8  30   8
M  ISO  1  31   8
M  END
>  <minimizedAffinity>  (1) 
-5.07832909

>  <minimizedRMSD>  (1) 
0.983804762

$$$$
