
     RDKit          3D

 28 29  0  0  1  0  0  0  0  0999 V2000
   37.6630   30.1900   51.1300 C   0  0  0  0  0  0  0  0  0  0  0  0
   38.2640   30.9600   50.1250 C   0  0  0  0  0  0  0  0  0  0  0  0
   37.8020   30.7800   48.8120 C   0  0  0  0  0  0  0  0  0  0  0  0
   36.8140   29.8840   48.6020 N   0  0  0  0  0  0  0  0  0  0  0  0
   36.2610   29.1650   49.5910 C   0  0  0  0  0  0  0  0  0  0  0  0
   36.6900   29.3190   50.8660 N   0  0  0  0  0  0  0  0  0  0  0  0
   38.2940   31.4720   47.6780 N   0  0  0  0  0  0  0  0  0  0  0  0
   38.5750   32.8550   47.6010 C   0  0  0  0  0  0  0  0  0  0  0  0
   39.8750   33.2520   46.9750 C   0  0  0  0  0  0  0  0  0  0  0  0
   40.2920   32.4610   45.7910 C   0  0  0  0  0  0  0  0  0  0  0  0
   40.0530   30.9910   46.0550 C   0  0  0  0  0  0  0  0  0  0  0  0
   38.5870   30.8720   46.4240 C   0  0  2  0  0  0  0  0  0  0  0  0
   37.6790   31.2200   45.2870 C   0  0  0  0  0  0  0  0  0  0  0  0
   38.1780   30.5430   44.1650 F   0  0  0  0  0  0  0  0  0  0  0  0
   37.5720   32.5310   44.9740 F   0  0  0  0  0  0  0  0  0  0  0  0
   36.4200   30.6980   45.4950 F   0  0  0  0  0  0  0  0  0  0  0  0
   38.0051   30.3084   52.1687 H   0  0  0  0  0  0  0  0  0  0  0  0
   39.0658   31.6768   50.3560 H   0  0  0  0  0  0  0  0  0  0  0  0
   35.4572   28.4488   49.3653 H   0  0  0  0  0  0  0  0  0  0  0  0
   37.7692   33.3250   47.0181 H   0  0  0  0  0  0  0  0  0  0  0  0
   38.6483   33.1894   48.6464 H   0  0  0  0  0  0  0  0  0  0  0  0
   39.7926   34.3043   46.6654 H   0  0  0  0  0  0  0  0  0  0  0  0
   40.6428   33.0686   47.7411 H   0  0  0  0  0  0  0  0  0  0  0  0
   41.3615   32.6291   45.5963 H   0  0  0  0  0  0  0  0  0  0  0  0
   39.7052   32.7757   44.9155 H   0  0  0  0  0  0  0  0  0  0  0  0
   40.2706   30.3993   45.1536 H   0  0  0  0  0  0  0  0  0  0  0  0
   40.7047   30.6117   46.8559 H   0  0  0  0  0  0  0  0  0  0  0  0
   38.3644   29.8091   46.5989 H   0  0  0  0  0  0  0  0  0  0  0  0
  2  1  2  0
  3  2  1  0
  4  3  2  0
  4  5  1  0
  5  6  2  0
  6  1  1  0
  7  3  1  0
  8  7  1  0
  9  8  1  0
 10 11  1  0
 10  9  1  0
 11 12  1  0
 12  7  1  0
 13 16  1  0
 13 12  1  0
 14 13  1  0
 15 13  1  0
  1 17  1  0
  2 18  1  0
  5 19  1  0
  8 20  1  0
  8 21  1  0
  9 22  1  0
  9 23  1  0
 10 24  1  0
 10 25  1  0
 11 26  1  0
 11 27  1  0
 12 28  1  1
M  ISO  8  17  14  18  14  19  14  20  13  21  13  22  13  23  13  24  13
M  ISO  4  25  13  26  13  27  13  28  13
M  END
>  <minimizedAffinity>  (1) 
-5.32421255

>  <minimizedRMSD>  (1) 
1.35673428

$$$$
