
     RDKit          3D

 38 41  0  0  0  0  0  0  0  0999 V2000
   36.3990   30.9110   45.7120 Cl  0  0  0  0  0  0  0  0  0  0  0  0
   36.6860   30.7680   47.4220 C   0  0  0  0  0  0  0  0  0  0  0  0
   37.9490   31.0940   47.8730 C   0  0  0  0  0  0  0  0  0  0  0  0
   38.1840   30.9800   49.2390 C   0  0  0  0  0  0  0  0  0  0  0  0
   37.1930   30.5620   50.0780 C   0  0  0  0  0  0  0  0  0  0  0  0
   35.9450   30.2510   49.5490 C   0  0  0  0  0  0  0  0  0  0  0  0
   35.6350   30.3370   48.2210 C   0  0  0  0  0  0  0  0  0  0  0  0
   40.2050   33.3120   46.0800 C   0  0  0  0  0  0  0  0  0  0  0  0
   40.9190   32.4620   45.2120 C   0  0  0  0  0  0  0  0  0  0  0  0
   40.6030   31.1000   45.2610 C   0  0  0  0  0  0  0  0  0  0  0  0
   39.6410   30.6800   46.1270 N   0  0  0  0  0  0  0  0  0  0  0  0
   38.9900   31.5410   46.9330 C   0  0  0  0  0  0  0  0  0  0  0  0
   39.2790   32.8280   46.8980 N   0  0  0  0  0  0  0  0  0  0  0  0
   34.0540   29.9450   47.5340 S   0  0  0  0  0  0  0  0  0  0  0  0
   33.7710   29.2000   44.4940 Cl  0  0  0  0  0  0  0  0  0  0  0  0
   33.7970   27.9590   45.7390 C   0  0  0  0  0  0  0  0  0  0  0  0
   33.9200   28.2100   47.1090 C   0  0  0  0  0  0  0  0  0  0  0  0
   33.9290   27.1590   47.9970 C   0  0  0  0  0  0  0  0  0  0  0  0
   33.8190   25.8790   47.5540 C   0  0  0  0  0  0  0  0  0  0  0  0
   33.6940   25.5730   46.2070 C   0  0  0  0  0  0  0  0  0  0  0  0
   33.6880   26.6340   45.3480 C   0  0  0  0  0  0  0  0  0  0  0  0
   33.5590   26.3300   43.9280 C   0  0  0  0  0  0  0  0  0  0  0  0
   32.4490   26.1510   43.1660 C   0  0  0  0  0  0  0  0  0  0  0  0
   32.7460   25.8830   41.8900 N   0  0  0  0  0  0  0  0  0  0  0  0
   34.0790   25.8900   41.8190 C   0  0  0  0  0  0  0  0  0  0  0  0
   34.5640   26.1570   43.0390 N   0  0  0  0  0  0  0  0  0  0  0  0
   39.1755   31.2285   49.6455 H   0  0  0  0  0  0  0  0  0  0  0  0
   37.3785   30.4721   51.1585 H   0  0  0  0  0  0  0  0  0  0  0  0
   35.1595   29.9153   50.2420 H   0  0  0  0  0  0  0  0  0  0  0  0
   40.4181   34.3912   46.0795 H   0  0  0  0  0  0  0  0  0  0  0  0
   41.6882   32.8508   44.5285 H   0  0  0  0  0  0  0  0  0  0  0  0
   41.1231   30.3811   44.6108 H   0  0  0  0  0  0  0  0  0  0  0  0
   34.0261   27.3566   49.0748 H   0  0  0  0  0  0  0  0  0  0  0  0
   33.8294   25.0592   48.2873 H   0  0  0  0  0  0  0  0  0  0  0  0
   33.6049   24.5358   45.8516 H   0  0  0  0  0  0  0  0  0  0  0  0
   31.4221   26.2188   43.5545 H   0  0  0  0  0  0  0  0  0  0  0  0
   32.0834   25.7075   41.1212 H   0  0  0  0  0  0  0  0  0  0  0  0
   34.6768   25.7078   40.9138 H   0  0  0  0  0  0  0  0  0  0  0  0
  1  2  1  0
  2  3  2  0
  2  7  1  0
  3  4  1  0
  4  5  2  0
  6  5  1  0
  7  6  2  0
  8 13  2  0
  9 10  2  0
  9  8  1  0
 10 11  1  0
 11 12  2  0
 12  3  1  0
 13 12  1  0
 14  7  1  0
 15 16  1  0
 16 17  2  0
 17 14  1  0
 17 18  1  0
 19 18  2  0
 20 19  1  0
 21 16  1  0
 21 20  2  0
 22 21  1  0
 23 22  2  0
 24 23  1  0
 25 24  1  0
 25 26  2  0
 26 22  1  0
  4 27  1  0
  5 28  1  0
  6 29  1  0
  8 30  1  0
  9 31  1  0
 10 32  1  0
 18 33  1  0
 19 34  1  0
 20 35  1  0
 23 36  1  0
 24 37  1  0
 25 38  1  0
M  ISO  8  27  14  28  14  29  14  30  14  31  14  32  14  33  14  34  14
M  ISO  4  35  14  36  14  37   9  38  14
M  END
>  <minimizedAffinity>  (1) 
-5.60336542

>  <minimizedRMSD>  (1) 
0.200109869

$$$$
