
     RDKit          3D

 21 22  0  0  0  0  0  0  0  0999 V2000
   38.3000   33.3960   49.3770 Cl  0  0  0  0  0  0  0  0  0  0  0  0
   38.7400   32.4860   47.9590 C   0  0  0  0  0  0  0  0  0  0  0  0
   38.2600   31.2330   47.7590 C   0  0  0  0  0  0  0  0  0  0  0  0
   38.6650   30.5920   46.6080 C   0  0  0  0  0  0  0  0  0  0  0  0
   39.5040   31.1380   45.6790 C   0  0  0  0  0  0  0  0  0  0  0  0
   39.9760   32.4010   45.9010 C   0  0  0  0  0  0  0  0  0  0  0  0
   39.5970   33.1020   47.0570 C   0  0  0  0  0  0  0  0  0  0  0  0
   36.9330   29.4550   50.8220 C   0  0  0  0  0  0  0  0  0  0  0  0
   37.8200   29.9960   49.8880 C   0  0  0  0  0  0  0  0  0  0  0  0
   37.3690   30.6600   48.7500 C   0  0  0  0  0  0  0  0  0  0  0  0
   36.0150   30.7480   48.6050 N   0  0  0  0  0  0  0  0  0  0  0  0
   35.1750   30.2220   49.5140 C   0  0  0  0  0  0  0  0  0  0  0  0
   35.6160   29.5810   50.6130 N   0  0  0  0  0  0  0  0  0  0  0  0
   40.0790   34.3930   47.2830 O   0  0  0  0  0  0  0  0  0  0  0  0
   38.2880   29.5748   46.4259 H   0  0  0  0  0  0  0  0  0  0  0  0
   39.7917   30.5770   44.7776 H   0  0  0  0  0  0  0  0  0  0  0  0
   40.6542   32.8694   45.1726 H   0  0  0  0  0  0  0  0  0  0  0  0
   37.3100   28.9341   51.7145 H   0  0  0  0  0  0  0  0  0  0  0  0
   38.9024   29.8949   50.0558 H   0  0  0  0  0  0  0  0  0  0  0  0
   34.0910   30.3187   49.3543 H   0  0  0  0  0  0  0  0  0  0  0  0
   39.8107   34.8858   48.0986 H   0  0  0  0  0  0  0  0  0  0  0  0
  2  1  1  0
  3  2  2  0
  3 10  1  0
  4  3  1  0
  5  6  1  0
  5  4  2  0
  6  7  2  0
  7 14  1  0
  7  2  1  0
  9  8  2  0
 10  9  1  0
 11 10  2  0
 11 12  1  0
 12 13  2  0
 13  8  1  0
  4 15  1  0
  5 16  1  0
  6 17  1  0
  8 18  1  0
  9 19  1  0
 12 20  1  0
 14 21  1  0
M  ISO  7  15  14  16  14  17  14  18  14  19  14  20  14  21   3
M  END
>  <minimizedAffinity>  (1) 
-5.7000041

>  <minimizedRMSD>  (1) 
0.119968727

$$$$
