
     RDKit          3D

 31 33  0  0  0  0  0  0  0  0999 V2000
   38.1720   30.8930   47.8420 Cl  0  0  0  0  0  0  0  0  0  0  0  0
   36.8810   30.5480   46.7220 C   0  0  0  0  0  0  0  0  0  0  0  0
   35.7180   30.0300   47.1690 C   0  0  0  0  0  0  0  0  0  0  0  0
   34.7550   29.7940   46.2000 C   0  0  0  0  0  0  0  0  0  0  0  0
   34.9000   30.0390   44.8720 C   0  0  0  0  0  0  0  0  0  0  0  0
   36.1000   30.5660   44.4540 C   0  0  0  0  0  0  0  0  0  0  0  0
   37.1170   30.8310   45.3820 C   0  0  0  0  0  0  0  0  0  0  0  0
   36.4260   29.1250   50.7650 C   0  0  0  0  0  0  0  0  0  0  0  0
   36.6220   29.3790   49.3990 C   0  0  0  0  0  0  0  0  0  0  0  0
   35.5490   29.7630   48.5790 C   0  0  0  0  0  0  0  0  0  0  0  0
   34.3510   29.8670   49.1840 N   0  0  0  0  0  0  0  0  0  0  0  0
   34.1640   29.6240   50.4900 C   0  0  0  0  0  0  0  0  0  0  0  0
   35.1910   29.2550   51.2820 N   0  0  0  0  0  0  0  0  0  0  0  0
   39.3590   30.7080   44.2160 C   0  0  0  0  0  0  0  0  0  0  0  0
   38.3910   31.3930   44.9230 C   0  0  0  0  0  0  0  0  0  0  0  0
   38.5480   32.7210   45.2710 C   0  0  0  0  0  0  0  0  0  0  0  0
   39.7250   33.3620   44.8850 C   0  0  0  0  0  0  0  0  0  0  0  0
   40.6990   32.6800   44.1760 C   0  0  0  0  0  0  0  0  0  0  0  0
   40.5270   31.3360   43.8290 C   0  0  0  0  0  0  0  0  0  0  0  0
   38.8690   28.2030   43.6500 N   0  0  0  0  0  0  0  0  0  0  0  0
   39.0800   29.3240   43.9110 C   0  0  0  0  0  0  0  0  0  0  0  0
   33.7948   29.3739   46.5341 H   0  0  0  0  0  0  0  0  0  0  0  0
   34.0902   29.8246   44.1591 H   0  0  0  0  0  0  0  0  0  0  0  0
   36.2623   30.7804   43.3874 H   0  0  0  0  0  0  0  0  0  0  0  0
   37.2696   28.8241   51.4035 H   0  0  0  0  0  0  0  0  0  0  0  0
   37.6278   29.2761   48.9657 H   0  0  0  0  0  0  0  0  0  0  0  0
   33.1574   29.7274   50.9214 H   0  0  0  0  0  0  0  0  0  0  0  0
   37.7693   33.2557   45.8347 H   0  0  0  0  0  0  0  0  0  0  0  0
   39.8808   34.4191   45.1463 H   0  0  0  0  0  0  0  0  0  0  0  0
   41.6211   33.2024   43.8814 H   0  0  0  0  0  0  0  0  0  0  0  0
   41.2999   30.7944   43.2639 H   0  0  0  0  0  0  0  0  0  0  0  0
  2  3  2  0
  2  1  1  0
  3 10  1  0
  4  3  1  0
  5  4  2  0
  6  5  1  0
  6  7  2  0
  7  2  1  0
  8 13  2  0
  9  8  1  0
 10 11  1  0
 10  9  2  0
 11 12  2  0
 12 13  1  0
 14 15  2  0
 15 16  1  0
 15  7  1  0
 17 16  2  0
 18 17  1  0
 19 18  2  0
 19 14  1  0
 20 21  3  0
 21 14  1  0
  4 22  1  0
  5 23  1  0
  6 24  1  0
  8 25  1  0
  9 26  1  0
 12 27  1  0
 16 28  1  0
 17 29  1  0
 18 30  1  0
 19 31  1  0
M  ISO  8  22  14  23  14  24  14  25  14  26  14  27  14  28  14  29  14
M  ISO  2  30  14  31  14
M  END
>  <minimizedAffinity>  (1) 
-5.30081987

>  <minimizedRMSD>  (1) 
4.11748171

$$$$
