
     RDKit          3D

 34 36  0  0  0  0  0  0  0  0999 V2000
   38.2730   30.9650   47.8220 Cl  0  0  0  0  0  0  0  0  0  0  0  0
   36.9920   30.6010   46.7050 C   0  0  0  0  0  0  0  0  0  0  0  0
   35.8190   30.0690   47.1480 C   0  0  0  0  0  0  0  0  0  0  0  0
   34.8580   29.8110   46.1940 C   0  0  0  0  0  0  0  0  0  0  0  0
   35.0070   30.0500   44.8630 C   0  0  0  0  0  0  0  0  0  0  0  0
   36.2000   30.5880   44.4410 C   0  0  0  0  0  0  0  0  0  0  0  0
   37.2110   30.8710   45.3580 C   0  0  0  0  0  0  0  0  0  0  0  0
   36.5220   29.2150   50.7650 C   0  0  0  0  0  0  0  0  0  0  0  0
   36.7160   29.4550   49.4010 C   0  0  0  0  0  0  0  0  0  0  0  0
   35.6610   29.8130   48.5670 C   0  0  0  0  0  0  0  0  0  0  0  0
   34.4500   29.9110   49.1720 N   0  0  0  0  0  0  0  0  0  0  0  0
   34.2560   29.6840   50.4760 C   0  0  0  0  0  0  0  0  0  0  0  0
   35.2880   29.3360   51.2760 N   0  0  0  0  0  0  0  0  0  0  0  0
   38.4510   31.4310   44.9070 N   0  0  0  0  0  0  0  0  0  0  0  0
   38.7480   32.8490   44.8310 C   0  0  0  0  0  0  0  0  0  0  0  0
   40.0860   32.9490   44.0980 C   0  0  0  0  0  0  0  0  0  0  0  0
   39.9110   32.2480   42.8580 N   0  0  0  0  0  0  0  0  0  0  0  0
   39.8170   30.8310   43.0480 C   0  0  0  0  0  0  0  0  0  0  0  0
   39.4940   30.5020   44.4920 C   0  0  0  0  0  0  0  0  0  0  0  0
   33.9036   29.3817   46.5327 H   0  0  0  0  0  0  0  0  0  0  0  0
   34.2016   29.8210   44.1496 H   0  0  0  0  0  0  0  0  0  0  0  0
   36.3576   30.7965   43.3725 H   0  0  0  0  0  0  0  0  0  0  0  0
   37.3680   28.9315   51.4084 H   0  0  0  0  0  0  0  0  0  0  0  0
   37.7265   29.3585   48.9773 H   0  0  0  0  0  0  0  0  0  0  0  0
   33.2463   29.7816   50.9013 H   0  0  0  0  0  0  0  0  0  0  0  0
   37.9624   33.3765   44.2702 H   0  0  0  0  0  0  0  0  0  0  0  0
   38.7946   33.3096   45.8288 H   0  0  0  0  0  0  0  0  0  0  0  0
   40.3405   34.0023   43.9090 H   0  0  0  0  0  0  0  0  0  0  0  0
   40.9045   32.5175   44.6928 H   0  0  0  0  0  0  0  0  0  0  0  0
   40.7155   32.4484   42.2469 H   0  0  0  0  0  0  0  0  0  0  0  0
   39.0220   30.4323   42.4007 H   0  0  0  0  0  0  0  0  0  0  0  0
   40.7847   30.3757   42.7905 H   0  0  0  0  0  0  0  0  0  0  0  0
   39.1340   29.4658   44.5739 H   0  0  0  0  0  0  0  0  0  0  0  0
   40.3856   30.5958   45.1294 H   0  0  0  0  0  0  0  0  0  0  0  0
  2  3  2  0
  2  1  1  0
  3 10  1  0
  4  3  1  0
  5  4  2  0
  6  5  1  0
  6  7  2  0
  7  2  1  0
  8 13  2  0
  9  8  1  0
 10 11  1  0
 10  9  2  0
 11 12  2  0
 12 13  1  0
 14  7  1  0
 15 14  1  0
 16 15  1  0
 17 18  1  0
 17 16  1  0
 18 19  1  0
 19 14  1  0
  4 20  1  0
  5 21  1  0
  6 22  1  0
  8 23  1  0
  9 24  1  0
 12 25  1  0
 15 26  1  0
 15 27  1  0
 16 28  1  0
 16 29  1  0
 17 30  1  0
 18 31  1  0
 18 32  1  0
 19 33  1  0
 19 34  1  0
M  ISO  8  20  14  21  14  22  14  23  14  24  14  25  14  26  13  27  13
M  ISO  7  28  13  29  13  30   5  31  13  32  13  33  13  34  13
M  END
>  <minimizedAffinity>  (1) 
-5.14580727

>  <minimizedRMSD>  (1) 
3.80051899

$$$$
