
     RDKit          3D

 47 51  0  0  1  0  0  0  0  0999 V2000
   38.5030   31.8040   44.6810 N   0  0  0  0  0  0  0  0  0  0  0  0
   39.0180   33.0460   45.1890 C   0  0  0  0  0  0  0  0  0  0  0  0
   40.1670   33.4490   44.2770 C   0  0  0  0  0  0  0  0  0  0  0  0
   39.6640   33.4310   42.9440 N   0  0  0  0  0  0  0  0  0  0  0  0
   39.3850   32.1150   42.4800 C   0  0  0  0  0  0  0  0  0  0  0  0
   39.3000   31.1470   43.6450 C   0  0  2  0  0  0  0  0  0  0  0  0
   38.7620   29.8720   43.2480 N   0  0  0  0  0  0  0  0  0  0  0  0
   38.9370   28.7360   43.9450 C   0  0  0  0  0  0  0  0  0  0  0  0
   38.3140   27.7180   43.3190 N   0  0  0  0  0  0  0  0  0  0  0  0
   37.7340   28.1800   42.2180 C   0  0  0  0  0  0  0  0  0  0  0  0
   36.9730   27.6760   41.1810 C   0  0  0  0  0  0  0  0  0  0  0  0
   36.5350   28.4690   40.1840 N   0  0  0  0  0  0  0  0  0  0  0  0
   36.8190   29.7950   40.1540 C   0  0  0  0  0  0  0  0  0  0  0  0
   37.5590   30.2980   41.1590 N   0  0  0  0  0  0  0  0  0  0  0  0
   38.0100   29.5320   42.1640 C   0  0  0  0  0  0  0  0  0  0  0  0
   36.6650   26.2860   41.1950 N   0  0  0  0  0  0  0  0  0  0  0  0
   38.3680   31.2260   47.5780 Cl  0  0  0  0  0  0  0  0  0  0  0  0
   37.1070   30.8240   46.4450 C   0  0  0  0  0  0  0  0  0  0  0  0
   35.9830   30.2160   46.8830 C   0  0  0  0  0  0  0  0  0  0  0  0
   35.0160   29.9520   45.9150 C   0  0  0  0  0  0  0  0  0  0  0  0
   35.1310   30.2580   44.5960 C   0  0  0  0  0  0  0  0  0  0  0  0
   36.2910   30.8760   44.1870 C   0  0  0  0  0  0  0  0  0  0  0  0
   37.2900   31.1660   45.1000 C   0  0  0  0  0  0  0  0  0  0  0  0
   36.7810   29.2280   50.4240 C   0  0  0  0  0  0  0  0  0  0  0  0
   36.9450   29.5450   49.0680 C   0  0  0  0  0  0  0  0  0  0  0  0
   35.8350   29.8750   48.2790 C   0  0  0  0  0  0  0  0  0  0  0  0
   34.6090   29.8700   48.8860 N   0  0  0  0  0  0  0  0  0  0  0  0
   34.4680   29.5620   50.1920 C   0  0  0  0  0  0  0  0  0  0  0  0
   35.5410   29.2420   50.9650 N   0  0  0  0  0  0  0  0  0  0  0  0
   38.2332   33.8166   45.1730 H   0  0  0  0  0  0  0  0  0  0  0  0
   39.3583   32.9370   46.2293 H   0  0  0  0  0  0  0  0  0  0  0  0
   40.5183   34.4590   44.5350 H   0  0  0  0  0  0  0  0  0  0  0  0
   41.0167   32.7590   44.3863 H   0  0  0  0  0  0  0  0  0  0  0  0
   38.7948   33.9827   42.9123 H   0  0  0  0  0  0  0  0  0  0  0  0
   38.4263   32.1171   41.9406 H   0  0  0  0  0  0  0  0  0  0  0  0
   40.1967   31.7947   41.8102 H   0  0  0  0  0  0  0  0  0  0  0  0
   40.3017   30.9129   44.0347 H   0  0  0  0  0  0  0  0  0  0  0  0
   39.5031   28.6502   44.8843 H   0  0  0  0  0  0  0  0  0  0  0  0
   36.4572   30.4365   39.3370 H   0  0  0  0  0  0  0  0  0  0  0  0
   36.0998   25.8761   40.4378 H   0  0  0  0  0  0  0  0  0  0  0  0
   37.0074   25.6903   41.9624 H   0  0  0  0  0  0  0  0  0  0  0  0
   34.0894   29.4585   46.2434 H   0  0  0  0  0  0  0  0  0  0  0  0
   34.3280   30.0210   43.8826 H   0  0  0  0  0  0  0  0  0  0  0  0
   36.4249   31.1411   43.1278 H   0  0  0  0  0  0  0  0  0  0  0  0
   37.6532   28.9701   51.0427 H   0  0  0  0  0  0  0  0  0  0  0  0
   37.9502   29.5346   48.6213 H   0  0  0  0  0  0  0  0  0  0  0  0
   33.4640   29.5698   50.6415 H   0  0  0  0  0  0  0  0  0  0  0  0
  1 23  1  0
  1  2  1  0
  3  2  1  0
  4  3  1  0
  5  4  1  0
  5  6  1  0
  6  1  1  0
  7  6  1  0
  7  8  1  0
  9  8  2  0
 10  9  1  0
 11 16  1  0
 11 10  2  0
 12 11  1  0
 13 12  2  0
 13 14  1  0
 14 15  2  0
 15 10  1  0
 15  7  1  0
 18 19  2  0
 18 17  1  0
 19 26  1  0
 20 19  1  0
 21 20  2  0
 22 21  1  0
 22 23  2  0
 23 18  1  0
 24 29  2  0
 25 24  1  0
 26 27  1  0
 26 25  2  0
 27 28  2  0
 28 29  1  0
  2 30  1  0
  2 31  1  0
  3 32  1  0
  3 33  1  0
  4 34  1  0
  5 35  1  0
  5 36  1  0
  6 37  1  1
  8 38  1  0
 13 39  1  0
 16 40  1  0
 16 41  1  0
 20 42  1  0
 21 43  1  0
 22 44  1  0
 24 45  1  0
 25 46  1  0
 28 47  1  0
M  ISO  8  30  13  31  13  32  13  33  13  34   5  35  13  36  13  37  13
M  ISO  8  38  14  39  14  42  14  43  14  44  14  45  14  46  14  47  14
M  END
>  <minimizedAffinity>  (1) 
-5.47752762

>  <minimizedRMSD>  (1) 
1.6668613

$$$$
