
     RDKit          3D

 50 53  0  0  1  0  0  0  0  0999 V2000
   36.2850   30.8050   44.1670 N   0  0  0  0  0  0  0  0  0  0  0  0
   35.7590   31.9640   43.4240 C   0  0  0  0  0  0  0  0  0  0  0  0
   36.8410   32.4020   42.4790 C   0  0  0  0  0  0  0  0  0  0  0  0
   37.2920   31.2950   41.7570 N   0  0  0  0  0  0  0  0  0  0  0  0
   37.9070   30.2760   42.5330 C   0  0  0  0  0  0  0  0  0  0  0  0
   37.6590   30.4980   44.0060 C   0  0  1  0  0  0  0  0  0  0  0  0
   36.7120   31.1090   47.0670 Cl  0  0  0  0  0  0  0  0  0  0  0  0
   35.5840   29.9930   46.3740 C   0  0  0  0  0  0  0  0  0  0  0  0
   34.8440   29.2000   47.1820 C   0  0  0  0  0  0  0  0  0  0  0  0
   33.9340   28.3600   46.5390 C   0  0  0  0  0  0  0  0  0  0  0  0
   33.7570   28.2980   45.1870 C   0  0  0  0  0  0  0  0  0  0  0  0
   34.5340   29.1240   44.4050 C   0  0  0  0  0  0  0  0  0  0  0  0
   35.4670   29.9880   45.0000 C   0  0  0  0  0  0  0  0  0  0  0  0
   36.4540   29.2010   50.5810 C   0  0  0  0  0  0  0  0  0  0  0  0
   36.2990   29.1430   49.1890 C   0  0  0  0  0  0  0  0  0  0  0  0
   35.0230   29.2430   48.6100 C   0  0  0  0  0  0  0  0  0  0  0  0
   33.9540   29.3950   49.4590 N   0  0  0  0  0  0  0  0  0  0  0  0
   34.1320   29.4480   50.7950 C   0  0  0  0  0  0  0  0  0  0  0  0
   35.3620   29.3540   51.3650 N   0  0  0  0  0  0  0  0  0  0  0  0
   38.7190   31.1570   44.7810 C   0  0  0  0  0  0  0  0  0  0  0  0
   38.7780   32.6950   44.5570 C   0  0  0  0  0  0  0  0  0  0  0  0
   39.7300   33.2420   45.6000 C   0  0  0  0  0  0  0  0  0  0  0  0
   41.1110   32.7740   45.3070 C   0  0  0  0  0  0  0  0  0  0  0  0
   41.1430   31.2640   45.1850 C   0  0  0  0  0  0  0  0  0  0  0  0
   40.1260   30.8360   44.1830 C   0  0  0  0  0  0  0  0  0  0  0  0
   34.8587   31.6761   42.8614 H   0  0  0  0  0  0  0  0  0  0  0  0
   35.4804   32.7782   44.1091 H   0  0  0  0  0  0  0  0  0  0  0  0
   36.4412   33.1564   41.7854 H   0  0  0  0  0  0  0  0  0  0  0  0
   37.6753   32.8390   43.0474 H   0  0  0  0  0  0  0  0  0  0  0  0
   36.4839   30.8811   41.2706 H   0  0  0  0  0  0  0  0  0  0  0  0
   37.4916   29.3003   42.2407 H   0  0  0  0  0  0  0  0  0  0  0  0
   38.9915   30.3014   42.3510 H   0  0  0  0  0  0  0  0  0  0  0  0
   37.8073   29.5821   44.5969 H   0  0  0  0  0  0  0  0  0  0  0  0
   33.3155   27.7011   47.1661 H   0  0  0  0  0  0  0  0  0  0  0  0
   33.0214   27.6140   44.7387 H   0  0  0  0  0  0  0  0  0  0  0  0
   34.4231   29.1066   43.3107 H   0  0  0  0  0  0  0  0  0  0  0  0
   37.4543   29.1228   51.0318 H   0  0  0  0  0  0  0  0  0  0  0  0
   37.1825   29.0183   48.5457 H   0  0  0  0  0  0  0  0  0  0  0  0
   33.2527   29.5713   51.4444 H   0  0  0  0  0  0  0  0  0  0  0  0
   38.5071   30.8303   45.8098 H   0  0  0  0  0  0  0  0  0  0  0  0
   39.1512   32.9184   43.5466 H   0  0  0  0  0  0  0  0  0  0  0  0
   37.7808   33.1502   44.6490 H   0  0  0  0  0  0  0  0  0  0  0  0
   39.7036   34.3415   45.5794 H   0  0  0  0  0  0  0  0  0  0  0  0
   39.4263   32.8858   46.5954 H   0  0  0  0  0  0  0  0  0  0  0  0
   41.4522   33.2212   44.3617 H   0  0  0  0  0  0  0  0  0  0  0  0
   41.7732   33.0793   46.1306 H   0  0  0  0  0  0  0  0  0  0  0  0
   42.1422   30.9417   44.8569 H   0  0  0  0  0  0  0  0  0  0  0  0
   40.9184   30.8077   46.1604 H   0  0  0  0  0  0  0  0  0  0  0  0
   40.2165   29.7564   43.9927 H   0  0  0  0  0  0  0  0  0  0  0  0
   40.2731   31.3644   43.2295 H   0  0  0  0  0  0  0  0  0  0  0  0
  1 13  1  0
  2  1  1  0
  3  2  1  0
  4  3  1  0
  4  5  1  0
  5  6  1  0
  6  1  1  0
  6 20  1  0
  8  7  1  0
  8  9  2  0
  9 16  1  0
 10  9  1  0
 11 10  2  0
 12 13  2  0
 12 11  1  0
 13  8  1  0
 14 19  2  0
 15 14  1  0
 16 15  2  0
 16 17  1  0
 17 18  2  0
 18 19  1  0
 21 20  1  0
 21 22  1  0
 23 22  1  0
 24 23  1  0
 25 20  1  0
 25 24  1  0
  2 26  1  0
  2 27  1  0
  3 28  1  0
  3 29  1  0
  4 30  1  0
  5 31  1  0
  5 32  1  0
  6 33  1  1
 10 34  1  0
 11 35  1  0
 12 36  1  0
 14 37  1  0
 15 38  1  0
 18 39  1  0
 20 40  1  0
 21 41  1  0
 21 42  1  0
 22 43  1  0
 22 44  1  0
 23 45  1  0
 23 46  1  0
 24 47  1  0
 24 48  1  0
 25 49  1  0
 25 50  1  0
M  ISO  8  26  13  27  13  28  13  29  13  30   5  31  13  32  13  33  13
M  ISO  8  34  14  35  14  36  14  37  14  38  14  39  14  40  13  41  13
M  ISO  8  42  13  43  13  44  13  45  13  46  13  47  13  48  13  49  13
M  ISO  1  50  13
M  END
>  <minimizedAffinity>  (1) 
-5.18334484

>  <minimizedRMSD>  (1) 
2.26951456

$$$$
