
     RDKit          3D

 35 37  0  0  1  0  0  0  0  0999 V2000
   38.2340   31.2490   47.6070 Cl  0  0  0  0  0  0  0  0  0  0  0  0
   36.9850   30.6910   46.5200 C   0  0  0  0  0  0  0  0  0  0  0  0
   35.8920   30.0710   47.0230 C   0  0  0  0  0  0  0  0  0  0  0  0
   34.9310   29.6800   46.0910 C   0  0  0  0  0  0  0  0  0  0  0  0
   35.0290   29.8790   44.7460 C   0  0  0  0  0  0  0  0  0  0  0  0
   36.1590   30.5120   44.2800 C   0  0  0  0  0  0  0  0  0  0  0  0
   37.1470   30.9240   45.1560 C   0  0  0  0  0  0  0  0  0  0  0  0
   38.3270   31.5690   44.6690 N   0  0  0  0  0  0  0  0  0  0  0  0
   38.4930   32.9810   44.4440 C   0  0  0  0  0  0  0  0  0  0  0  0
   39.7790   33.1720   43.6820 C   0  0  0  0  0  0  0  0  0  0  0  0
   39.7420   32.3010   42.5550 N   0  0  0  0  0  0  0  0  0  0  0  0
   39.8270   30.9290   42.9190 C   0  0  0  0  0  0  0  0  0  0  0  0
   39.4800   30.7320   44.3680 C   0  0  1  0  0  0  0  0  0  0  0  0
   40.8590   30.9670   45.4990 S   0  0  0  0  0  0  0  0  0  0  0  0
   36.7120   29.2990   50.6080 C   0  0  0  0  0  0  0  0  0  0  0  0
   36.8560   29.4980   49.2300 C   0  0  0  0  0  0  0  0  0  0  0  0
   35.7700   29.8480   48.4440 C   0  0  0  0  0  0  0  0  0  0  0  0
   34.5710   29.9820   49.0860 N   0  0  0  0  0  0  0  0  0  0  0  0
   34.4210   29.7910   50.4060 C   0  0  0  0  0  0  0  0  0  0  0  0
   35.4930   29.4490   51.1750 N   0  0  0  0  0  0  0  0  0  0  0  0
   34.0295   29.1749   46.4682 H   0  0  0  0  0  0  0  0  0  0  0  0
   34.2360   29.5467   44.0599 H   0  0  0  0  0  0  0  0  0  0  0  0
   36.2774   30.6918   43.2013 H   0  0  0  0  0  0  0  0  0  0  0  0
   37.6477   33.3693   43.8569 H   0  0  0  0  0  0  0  0  0  0  0  0
   38.5259   33.5237   45.4002 H   0  0  0  0  0  0  0  0  0  0  0  0
   39.8656   34.2162   43.3471 H   0  0  0  0  0  0  0  0  0  0  0  0
   40.6453   32.9435   44.3202 H   0  0  0  0  0  0  0  0  0  0  0  0
   40.5343   32.5277   41.9371 H   0  0  0  0  0  0  0  0  0  0  0  0
   39.1271   30.3488   42.2997 H   0  0  0  0  0  0  0  0  0  0  0  0
   40.8601   30.5876   42.7572 H   0  0  0  0  0  0  0  0  0  0  0  0
   39.2202   29.6755   44.5305 H   0  0  0  0  0  0  0  0  0  0  0  0
   40.4085   30.8902   46.7905 H   0  0  0  0  0  0  0  0  0  0  0  0
   37.5811   29.0235   51.2235 H   0  0  0  0  0  0  0  0  0  0  0  0
   37.8451   29.3748   48.7646 H   0  0  0  0  0  0  0  0  0  0  0  0
   33.4301   29.9108   50.8684 H   0  0  0  0  0  0  0  0  0  0  0  0
  2  3  2  0
  2  1  1  0
  3 17  1  0
  4  3  1  0
  5  4  2  0
  6  5  1  0
  6  7  2  0
  7  2  1  0
  8  7  1  0
  9  8  1  0
 10  9  1  0
 11 12  1  0
 11 10  1  0
 12 13  1  0
 13  8  1  0
 13 14  1  0
 15 20  2  0
 16 15  1  0
 17 18  1  0
 17 16  2  0
 18 19  2  0
 19 20  1  0
  4 21  1  0
  5 22  1  0
  6 23  1  0
  9 24  1  0
  9 25  1  0
 10 26  1  0
 10 27  1  0
 11 28  1  0
 12 29  1  0
 12 30  1  0
 13 31  1  6
 14 32  1  0
 15 33  1  0
 16 34  1  0
 19 35  1  0
M  ISO  8  21  14  22  14  23  14  24  13  25  13  26  13  27  13  28   5
M  ISO  7  29  13  30  13  31  13  32  11  33  14  34  14  35  14
M  END
>  <minimizedAffinity>  (1) 
-5.00114536

>  <minimizedRMSD>  (1) 
0.291394979

$$$$
