
     RDKit          3D

 36 38  0  0  1  0  0  0  0  0999 V2000
   37.5310   29.7870   50.1840 C   0  0  0  0  0  0  0  0  0  0  0  0
   38.3800   30.3620   49.2200 C   0  0  0  0  0  0  0  0  0  0  0  0
   37.9010   30.7150   47.9650 C   0  0  0  0  0  0  0  0  0  0  0  0
   36.5830   30.4510   47.7950 N   0  0  0  0  0  0  0  0  0  0  0  0
   35.7650   29.9080   48.6960 C   0  0  0  0  0  0  0  0  0  0  0  0
   36.2460   29.5710   49.9060 N   0  0  0  0  0  0  0  0  0  0  0  0
   39.2520   32.5880   47.2400 C   0  0  0  0  0  0  0  0  0  0  0  0
   38.8390   31.2980   47.0390 C   0  0  0  0  0  0  0  0  0  0  0  0
   39.3530   30.6380   45.9530 C   0  0  0  0  0  0  0  0  0  0  0  0
   40.2300   31.2130   45.1040 C   0  0  0  0  0  0  0  0  0  0  0  0
   40.6690   32.5170   45.2750 C   0  0  0  0  0  0  0  0  0  0  0  0
   40.1590   33.1780   46.3580 C   0  0  0  0  0  0  0  0  0  0  0  0
   39.6240   34.5030   48.6330 N   0  0  0  0  0  0  0  0  0  0  0  0
   38.8680   33.4830   48.2940 C   0  0  0  0  0  0  0  0  0  0  0  0
   37.8610   33.7390   49.2440 N   0  0  0  0  0  0  0  0  0  0  0  0
   39.3280   35.1530   49.3960 H   0  0  0  0  0  0  0  0  0  0  0  0
   33.7510   29.5180   50.5320 O   0  0  0  0  0  0  0  0  0  0  0  0
   33.6190   28.9180   49.4130 C   0  0  0  0  0  0  0  0  0  0  0  0
   34.3330   29.6870   48.3380 C   0  0  2  0  0  0  0  0  0  0  0  0
   34.2010   28.7590   47.1530 C   0  0  0  0  0  0  0  0  0  0  0  0
   33.8490   27.4150   47.7520 C   0  0  0  0  0  0  0  0  0  0  0  0
   33.0060   27.7490   48.8780 N   0  0  0  0  0  0  0  0  0  0  0  0
   37.9304   29.5145   51.1721 H   0  0  0  0  0  0  0  0  0  0  0  0
   39.4386   30.5344   49.4641 H   0  0  0  0  0  0  0  0  0  0  0  0
   39.0386   29.6005   45.7667 H   0  0  0  0  0  0  0  0  0  0  0  0
   40.6078   30.6301   44.2511 H   0  0  0  0  0  0  0  0  0  0  0  0
   41.3821   32.9897   44.5836 H   0  0  0  0  0  0  0  0  0  0  0  0
   40.4759   34.2153   46.5414 H   0  0  0  0  0  0  0  0  0  0  0  0
   37.9464   34.5441   49.8807 H   0  0  0  0  0  0  0  0  0  0  0  0
   37.0389   33.1212   49.3023 H   0  0  0  0  0  0  0  0  0  0  0  0
   33.9248   30.6932   48.1619 H   0  0  0  0  0  0  0  0  0  0  0  0
   35.1497   28.7000   46.5994 H   0  0  0  0  0  0  0  0  0  0  0  0
   33.4419   29.1059   46.4365 H   0  0  0  0  0  0  0  0  0  0  0  0
   33.3049   26.7929   47.0261 H   0  0  0  0  0  0  0  0  0  0  0  0
   34.7363   26.8335   48.0428 H   0  0  0  0  0  0  0  0  0  0  0  0
   32.1641   27.2591   49.2129 H   0  0  0  0  0  0  0  0  0  0  0  0
  2  1  2  0
  3  2  1  0
  4  3  2  0
  4  5  1  0
  5  6  2  0
  6  1  1  0
  7 14  1  0
  8  7  2  0
  8  3  1  0
  9  8  1  0
 10 11  1  0
 10  9  2  0
 11 12  2  0
 12  7  1  0
 13 16  1  0
 14 13  2  0
 14 15  1  0
 18 17  2  0
 19  5  1  0
 19 18  1  0
 20 21  1  0
 20 19  1  0
 21 22  1  0
 22 18  1  0
  1 23  1  0
  2 24  1  0
  9 25  1  0
 10 26  1  0
 11 27  1  0
 12 28  1  0
 15 29  1  0
 15 30  1  0
 19 31  1  6
 20 32  1  0
 20 33  1  0
 21 34  1  0
 21 35  1  0
 22 36  1  0
M  ISO  8  23  14  24  14  25  14  26  14  27  14  28  14  31  13  32  13
M  ISO  4  33  13  34  13  35  13  36  10
M  END
>  <minimizedAffinity>  (1) 
-6.50502586

>  <minimizedRMSD>  (1) 
1.59983122

$$$$
