
     RDKit          3D

 37 39  0  0  0  0  0  0  0  0999 V2000
   39.1410   32.5250   47.3920 C   0  0  0  0  0  0  0  0  0  0  0  0
   38.7940   31.2270   47.1490 C   0  0  0  0  0  0  0  0  0  0  0  0
   39.3360   30.6360   46.0260 C   0  0  0  0  0  0  0  0  0  0  0  0
   40.1710   31.2910   45.1970 C   0  0  0  0  0  0  0  0  0  0  0  0
   40.5390   32.6080   45.4220 C   0  0  0  0  0  0  0  0  0  0  0  0
   40.0020   33.2020   46.5350 C   0  0  0  0  0  0  0  0  0  0  0  0
   37.4880   29.7610   50.3180 C   0  0  0  0  0  0  0  0  0  0  0  0
   38.3110   30.4090   49.3730 C   0  0  0  0  0  0  0  0  0  0  0  0
   37.8980   30.5540   48.0540 C   0  0  0  0  0  0  0  0  0  0  0  0
   36.6760   30.0260   47.8020 N   0  0  0  0  0  0  0  0  0  0  0  0
   35.8910   29.4120   48.6880 C   0  0  0  0  0  0  0  0  0  0  0  0
   36.3060   29.2800   49.9590 N   0  0  0  0  0  0  0  0  0  0  0  0
   34.6270   28.9020   48.2880 N   0  0  0  0  0  0  0  0  0  0  0  0
   34.1530   27.5330   48.3380 C   0  0  0  0  0  0  0  0  0  0  0  0
   33.1610   27.4170   47.1770 C   0  0  0  0  0  0  0  0  0  0  0  0
   33.1440   28.7960   46.5460 C   0  0  0  0  0  0  0  0  0  0  0  0
   33.5280   29.6690   47.7340 C   0  0  0  0  0  0  0  0  0  0  0  0
   39.4420   34.3780   48.8790 N   0  0  0  0  0  0  0  0  0  0  0  0
   38.7210   33.3520   48.4860 C   0  0  0  0  0  0  0  0  0  0  0  0
   37.7060   33.5310   49.4430 N   0  0  0  0  0  0  0  0  0  0  0  0
   39.1570   34.9320   49.7210 H   0  0  0  0  0  0  0  0  0  0  0  0
   39.0764   29.5913   45.7996 H   0  0  0  0  0  0  0  0  0  0  0  0
   40.5719   30.7663   44.3172 H   0  0  0  0  0  0  0  0  0  0  0  0
   41.2218   33.1452   44.7473 H   0  0  0  0  0  0  0  0  0  0  0  0
   40.2606   34.2478   46.7573 H   0  0  0  0  0  0  0  0  0  0  0  0
   37.8289   29.6543   51.3584 H   0  0  0  0  0  0  0  0  0  0  0  0
   39.2898   30.8036   49.6834 H   0  0  0  0  0  0  0  0  0  0  0  0
   34.9880   26.8292   48.2055 H   0  0  0  0  0  0  0  0  0  0  0  0
   33.6887   27.2905   49.3053 H   0  0  0  0  0  0  0  0  0  0  0  0
   33.4994   26.6626   46.4515 H   0  0  0  0  0  0  0  0  0  0  0  0
   32.1624   27.1006   47.5128 H   0  0  0  0  0  0  0  0  0  0  0  0
   33.8797   28.8762   45.7322 H   0  0  0  0  0  0  0  0  0  0  0  0
   32.1863   29.0666   46.0774 H   0  0  0  0  0  0  0  0  0  0  0  0
   33.8534   30.6696   47.4132 H   0  0  0  0  0  0  0  0  0  0  0  0
   32.7075   29.8658   48.4397 H   0  0  0  0  0  0  0  0  0  0  0  0
   37.7649   34.3076   50.1171 H   0  0  0  0  0  0  0  0  0  0  0  0
   36.9038   32.8855   49.4698 H   0  0  0  0  0  0  0  0  0  0  0  0
  1 19  1  0
  2  1  2  0
  2  9  1  0
  3  2  1  0
  4  5  1  0
  4  3  2  0
  5  6  2  0
  6  1  1  0
  8  7  2  0
  9  8  1  0
 10  9  2  0
 10 11  1  0
 11 12  2  0
 12  7  1  0
 13 14  1  0
 13 11  1  0
 15 14  1  0
 16 15  1  0
 16 17  1  0
 17 13  1  0
 18 21  1  0
 19 18  2  0
 19 20  1  0
  3 22  1  0
  4 23  1  0
  5 24  1  0
  6 25  1  0
  7 26  1  0
  8 27  1  0
 14 28  1  0
 14 29  1  0
 15 30  1  0
 15 31  1  0
 16 32  1  0
 16 33  1  0
 17 34  1  0
 17 35  1  0
 20 36  1  0
 20 37  1  0
M  ISO  8  22  14  23  14  24  14  25  14  26  14  27  14  28  13  29  13
M  ISO  6  30  13  31  13  32  13  33  13  34  13  35  13
M  END
>  <minimizedAffinity>  (1) 
-6.34512997

>  <minimizedRMSD>  (1) 
1.57390201

$$$$
