
     RDKit          3D

 37 38  0  0  0  0  0  0  0  0999 V2000
   38.8682   32.3495   47.5324 C   0  0  0  0  0  0  0  0  0  0  0  0
   38.3325   31.1126   47.3322 C   0  0  0  0  0  0  0  0  0  0  0  0
   38.7901   30.4054   46.2460 C   0  0  0  0  0  0  0  0  0  0  0  0
   39.7221   30.8883   45.4039 C   0  0  0  0  0  0  0  0  0  0  0  0
   40.2854   32.1446   45.5816 C   0  0  0  0  0  0  0  0  0  0  0  0
   39.8309   32.8560   46.6670 C   0  0  0  0  0  0  0  0  0  0  0  0
   36.8438   29.3120   50.2414 C   0  0  0  0  0  0  0  0  0  0  0  0
   37.7487   29.8364   49.2993 C   0  0  0  0  0  0  0  0  0  0  0  0
   37.3306   30.6219   48.2453 C   0  0  0  0  0  0  0  0  0  0  0  0
   35.9916   30.8215   48.2257 N   0  0  0  0  0  0  0  0  0  0  0  0
   35.1117   30.3367   49.1055 C   0  0  0  0  0  0  0  0  0  0  0  0
   35.5490   29.5738   50.1229 N   0  0  0  0  0  0  0  0  0  0  0  0
   39.3495   34.3140   48.8215 N   0  0  0  0  0  0  0  0  0  0  0  0
   38.5737   33.2711   48.5885 C   0  0  0  0  0  0  0  0  0  0  0  0
   37.6637   33.5506   49.6226 N   0  0  0  0  0  0  0  0  0  0  0  0
   39.1465   34.9476   49.6311 H   0  0  0  0  0  0  0  0  0  0  0  0
   38.3636   29.4169   46.0844 H   0  0  0  0  0  0  0  0  0  0  0  0
   40.0251   30.2555   44.5680 H   0  0  0  0  0  0  0  0  0  0  0  0
   41.0292   32.4823   44.8750 H   0  0  0  0  0  0  0  0  0  0  0  0
   40.3181   33.8216   46.7327 H   0  0  0  0  0  0  0  0  0  0  0  0
   37.2093   28.6984   51.0568 H   0  0  0  0  0  0  0  0  0  0  0  0
   38.7989   29.6041   49.4245 H   0  0  0  0  0  0  0  0  0  0  0  0
   37.8201   33.0791   50.5414 H   0  0  0  0  0  0  0  0  0  0  0  0
   36.8452   34.1944   49.5368 H   0  0  0  0  0  0  0  0  0  0  0  0
   33.6665   30.6503   48.9423 C   0  0  0  0  0  0  0  0  0  0  0  0
   33.3033   31.9765   49.3086 N   0  0  0  0  0  4  0  0  0  0  0  0
   32.8732   32.7582   48.1529 C   0  0  0  0  0  0  0  0  0  0  0  0
   32.2596   33.6066   48.4684 H   0  0  0  0  0  0  0  0  0  0  0  0
   34.3400   32.6884   50.0229 C   0  0  0  0  0  0  0  0  0  0  0  0
   35.3062   32.7008   49.4744 H   0  0  0  0  0  0  0  0  0  0  0  0
   33.1065   29.8408   49.4708 H   0  0  0  0  0  0  0  0  0  0  0  0
   33.3934   30.5049   47.8569 H   0  0  0  0  0  0  0  0  0  0  0  0
   32.4746   31.9343   49.9452 H   0  0  0  0  0  0  0  0  0  0  0  0
   32.2114   32.0853   47.5419 H   0  0  0  0  0  0  0  0  0  0  0  0
   33.7140   33.0288   47.4982 H   0  0  0  0  0  0  0  0  0  0  0  0
   34.4348   32.3224   51.0642 H   0  0  0  0  0  0  0  0  0  0  0  0
   34.0470   33.7556   50.1062 H   0  0  0  0  0  0  0  0  0  0  0  0
  1 14  1  0
  2  1  2  0
  2  9  1  0
  3  2  1  0
  4  5  1  0
  4  3  2  0
  5  6  2  0
  6  1  1  0
  8  7  2  0
  9  8  1  0
 10  9  2  0
 10 11  1  0
 11 12  2  0
 12  7  1  0
 13 16  1  0
 14 13  2  0
 14 15  1  0
  3 17  1  0
  4 18  1  0
  5 19  1  0
  6 20  1  0
  7 21  1  0
  8 22  1  0
 15 23  1  0
 15 24  1  0
 25 26  1  0
 26 27  1  0
 27 28  1  0
 26 29  1  0
 29 30  1  0
 25 31  1  0
 25 32  1  0
 26 33  1  0
 27 34  1  0
 27 35  1  0
 29 36  1  0
 29 37  1  0
 11 25  1  0
M  CHG  1  26   1
M  END
>  <DihAtoms>  (1) 
9,10,24,25

>  <DihDeg>  (1) 
90.00034001864586

$$$$
