
     RDKit          3D

 42 44  0  0  1  0  0  0  0  0999 V2000
   37.5530   29.8880   50.3070 C   0  0  0  0  0  0  0  0  0  0  0  0
   38.3770   30.4920   49.3330 C   0  0  0  0  0  0  0  0  0  0  0  0
   37.9290   30.6310   48.0190 C   0  0  0  0  0  0  0  0  0  0  0  0
   36.6790   30.1400   47.8160 N   0  0  0  0  0  0  0  0  0  0  0  0
   35.8990   29.5680   48.7360 C   0  0  0  0  0  0  0  0  0  0  0  0
   36.3340   29.4390   49.9920 N   0  0  0  0  0  0  0  0  0  0  0  0
   34.6020   29.0980   48.3700 N   0  0  0  0  0  0  0  0  0  0  0  0
   33.9890   27.9770   49.0530 C   0  0  0  0  0  0  0  0  0  0  0  0
   33.7850   26.9190   47.9540 C   0  0  0  0  0  0  0  0  0  0  0  0
   32.8180   27.4940   46.9660 C   0  0  0  0  0  0  0  0  0  0  0  0
   33.4040   28.7160   46.3060 C   0  0  0  0  0  0  0  0  0  0  0  0
   33.8690   29.7490   47.2900 C   0  0  2  0  0  0  0  0  0  0  0  0
   39.1980   32.5480   47.2840 C   0  0  0  0  0  0  0  0  0  0  0  0
   38.8300   31.2560   47.0970 C   0  0  0  0  0  0  0  0  0  0  0  0
   39.3630   30.6040   45.9990 C   0  0  0  0  0  0  0  0  0  0  0  0
   40.2040   31.1950   45.1440 C   0  0  0  0  0  0  0  0  0  0  0  0
   40.5960   32.5190   45.3120 C   0  0  0  0  0  0  0  0  0  0  0  0
   40.0750   33.1690   46.3940 C   0  0  0  0  0  0  0  0  0  0  0  0
   39.5700   34.3930   48.7580 N   0  0  0  0  0  0  0  0  0  0  0  0
   38.7730   33.4190   48.3510 C   0  0  0  0  0  0  0  0  0  0  0  0
   37.7360   33.6910   49.2430 N   0  0  0  0  0  0  0  0  0  0  0  0
   39.2590   35.0200   49.5310 H   0  0  0  0  0  0  0  0  0  0  0  0
   34.7810   30.6420   46.5790 N   0  0  0  0  0  0  0  0  0  0  0  0
   37.9190   29.7854   51.3393 H   0  0  0  0  0  0  0  0  0  0  0  0
   39.3774   30.8549   49.6114 H   0  0  0  0  0  0  0  0  0  0  0  0
   34.6516   27.5938   49.8430 H   0  0  0  0  0  0  0  0  0  0  0  0
   33.0457   28.2537   49.5466 H   0  0  0  0  0  0  0  0  0  0  0  0
   34.7428   26.6979   47.4602 H   0  0  0  0  0  0  0  0  0  0  0  0
   33.3997   25.9806   48.3795 H   0  0  0  0  0  0  0  0  0  0  0  0
   32.5936   26.7396   46.1975 H   0  0  0  0  0  0  0  0  0  0  0  0
   31.8970   27.7814   47.4944 H   0  0  0  0  0  0  0  0  0  0  0  0
   34.2624   28.4051   45.6925 H   0  0  0  0  0  0  0  0  0  0  0  0
   32.6094   29.1745   45.6991 H   0  0  0  0  0  0  0  0  0  0  0  0
   33.0134   30.2974   47.7110 H   0  0  0  0  0  0  0  0  0  0  0  0
   39.0829   29.5551   45.8221 H   0  0  0  0  0  0  0  0  0  0  0  0
   40.5941   30.6222   44.2898 H   0  0  0  0  0  0  0  0  0  0  0  0
   41.2863   33.0141   44.6132 H   0  0  0  0  0  0  0  0  0  0  0  0
   40.3562   34.2178   46.5699 H   0  0  0  0  0  0  0  0  0  0  0  0
   37.8219   34.4710   49.9102 H   0  0  0  0  0  0  0  0  0  0  0  0
   36.8842   33.1119   49.2346 H   0  0  0  0  0  0  0  0  0  0  0  0
   35.3330   31.1825   47.2603 H   0  0  0  0  0  0  0  0  0  0  0  0
   35.4149   30.0856   45.9877 H   0  0  0  0  0  0  0  0  0  0  0  0
  2  1  2  0
  3  2  1  0
  4  3  2  0
  4  5  1  0
  5  6  2  0
  6  1  1  0
  7  5  1  0
  7  8  1  0
  9  8  1  0
 10  9  1  0
 11 10  1  0
 11 12  1  0
 12  7  1  0
 13 20  1  0
 14 13  2  0
 14  3  1  0
 15 14  1  0
 16 17  1  0
 16 15  2  0
 17 18  2  0
 18 13  1  0
 19 22  1  0
 20 19  2  0
 20 21  1  0
 23 12  1  0
  1 24  1  0
  2 25  1  0
  8 26  1  0
  8 27  1  0
  9 28  1  0
  9 29  1  0
 10 30  1  0
 10 31  1  0
 11 32  1  0
 11 33  1  0
 12 34  1  1
 15 35  1  0
 16 36  1  0
 17 37  1  0
 18 38  1  0
 21 39  1  0
 21 40  1  0
 23 41  1  0
 23 42  1  0
M  ISO  8  24  14  25  14  26  13  27  13  28  13  29  13  30  13  31  13
M  ISO  8  32  13  33  13  34  13  35  14  36  14  37  14  38  14  41   5
M  ISO  1  42   5
M  END
>  <minimizedAffinity>  (1) 
-7.29495621

>  <minimizedRMSD>  (1) 
0.184390858

$$$$
