
     RDKit          3D

 44 46  0  0  1  0  0  0  0  0999 V2000
   37.2440   30.1660   50.1140 C   0  0  0  0  0  0  0  0  0  0  0  0
   38.1420   30.7050   49.1690 C   0  0  0  0  0  0  0  0  0  0  0  0
   37.8650   30.6780   47.8100 C   0  0  0  0  0  0  0  0  0  0  0  0
   36.6750   30.0920   47.5220 N   0  0  0  0  0  0  0  0  0  0  0  0
   35.8120   29.5760   48.4050 C   0  0  0  0  0  0  0  0  0  0  0  0
   36.1040   29.6170   49.7070 N   0  0  0  0  0  0  0  0  0  0  0  0
   34.5970   28.9940   47.9330 N   0  0  0  0  0  0  0  0  0  0  0  0
   33.9610   27.9110   48.6610 C   0  0  0  0  0  0  0  0  0  0  0  0
   33.9440   26.7360   47.6880 C   0  0  0  0  0  0  0  0  0  0  0  0
   33.0790   27.1380   46.5370 C   0  0  0  0  0  0  0  0  0  0  0  0
   33.6960   28.3090   45.8070 C   0  0  0  0  0  0  0  0  0  0  0  0
   33.9710   29.4750   46.7140 C   0  0  1  0  0  0  0  0  0  0  0  0
   39.2710   32.5200   47.1470 C   0  0  0  0  0  0  0  0  0  0  0  0
   38.8410   31.2510   46.9370 C   0  0  0  0  0  0  0  0  0  0  0  0
   39.3890   30.5770   45.8660 C   0  0  0  0  0  0  0  0  0  0  0  0
   40.3050   31.1180   45.0470 C   0  0  0  0  0  0  0  0  0  0  0  0
   40.7630   32.4220   45.2420 C   0  0  0  0  0  0  0  0  0  0  0  0
   40.2240   33.0940   46.3030 C   0  0  0  0  0  0  0  0  0  0  0  0
   39.6500   34.3870   48.5890 N   0  0  0  0  0  0  0  0  0  0  0  0
   38.8460   33.4100   48.1940 C   0  0  0  0  0  0  0  0  0  0  0  0
   37.8050   33.7050   49.0750 N   0  0  0  0  0  0  0  0  0  0  0  0
   39.3160   35.0420   49.3430 H   0  0  0  0  0  0  0  0  0  0  0  0
   32.2770   31.1070   45.9400 C   0  0  0  0  0  0  0  0  0  0  0  0
   32.7480   31.1320   44.7690 O   0  0  0  0  0  0  0  0  0  0  0  0
   32.8330   30.3030   46.9740 N   0  0  0  0  0  0  0  0  0  0  0  0
   37.4869   30.2000   51.1863 H   0  0  0  0  0  0  0  0  0  0  0  0
   39.0826   31.1566   49.5174 H   0  0  0  0  0  0  0  0  0  0  0  0
   34.5399   27.6585   49.5617 H   0  0  0  0  0  0  0  0  0  0  0  0
   32.9500   28.1800   49.0009 H   0  0  0  0  0  0  0  0  0  0  0  0
   34.9641   26.5204   47.3374 H   0  0  0  0  0  0  0  0  0  0  0  0
   33.5565   25.8282   48.1736 H   0  0  0  0  0  0  0  0  0  0  0  0
   32.9782   26.2896   45.8441 H   0  0  0  0  0  0  0  0  0  0  0  0
   32.0890   27.4316   46.9162 H   0  0  0  0  0  0  0  0  0  0  0  0
   34.6444   27.9826   45.3553 H   0  0  0  0  0  0  0  0  0  0  0  0
   32.9771   28.6425   45.0441 H   0  0  0  0  0  0  0  0  0  0  0  0
   34.6646   30.1451   46.1849 H   0  0  0  0  0  0  0  0  0  0  0  0
   39.0594   29.5454   45.6732 H   0  0  0  0  0  0  0  0  0  0  0  0
   40.7006   30.5245   44.2095 H   0  0  0  0  0  0  0  0  0  0  0  0
   41.5129   32.8813   44.5812 H   0  0  0  0  0  0  0  0  0  0  0  0
   40.5530   34.1251   46.4994 H   0  0  0  0  0  0  0  0  0  0  0  0
   37.8925   34.4957   49.7293 H   0  0  0  0  0  0  0  0  0  0  0  0
   36.9490   33.1321   49.0711 H   0  0  0  0  0  0  0  0  0  0  0  0
   31.4015   31.7319   46.1703 H   0  0  0  0  0  0  0  0  0  0  0  0
   32.4141   30.3170   47.9149 H   0  0  0  0  0  0  0  0  0  0  0  0
  2  1  2  0
  3  2  1  0
  4  3  2  0
  4  5  1  0
  5  6  2  0
  6  1  1  0
  7  5  1  0
  7  8  1  0
  9  8  1  0
 10  9  1  0
 11 10  1  0
 11 12  1  0
 12 25  1  0
 12  7  1  0
 13 20  1  0
 14 13  2  0
 14  3  1  0
 15 14  1  0
 16 17  1  0
 16 15  2  0
 17 18  2  0
 18 13  1  0
 19 22  1  0
 20 19  2  0
 20 21  1  0
 23 25  1  0
 24 23  2  0
  1 26  1  0
  2 27  1  0
  8 28  1  0
  8 29  1  0
  9 30  1  0
  9 31  1  0
 10 32  1  0
 10 33  1  0
 11 34  1  0
 11 35  1  0
 12 36  1  6
 15 37  1  0
 16 38  1  0
 17 39  1  0
 18 40  1  0
 21 41  1  0
 21 42  1  0
 23 43  1  0
 25 44  1  0
M  ISO  8  26  14  27  14  28  13  29  13  30  13  31  13  32  13  33  13
M  ISO  8  34  13  35  13  36  13  37  14  38  14  39  14  40  14  43   6
M  END
>  <minimizedAffinity>  (1) 
-7.12684393

>  <minimizedRMSD>  (1) 
0.658443034

$$$$
