
     RDKit          3D

 47 50  0  0  1  0  0  0  0  0999 V2000
   37.0260   29.8970   50.1380 C   0  0  0  0  0  0  0  0  0  0  0  0
   37.9400   30.5060   49.2460 C   0  0  0  0  0  0  0  0  0  0  0  0
   37.7000   30.5170   47.8660 C   0  0  0  0  0  0  0  0  0  0  0  0
   36.5420   29.9000   47.5380 N   0  0  0  0  0  0  0  0  0  0  0  0
   35.6740   29.3230   48.3690 C   0  0  0  0  0  0  0  0  0  0  0  0
   35.9160   29.3210   49.6780 N   0  0  0  0  0  0  0  0  0  0  0  0
   34.4970   28.7190   47.8300 N   0  0  0  0  0  0  0  0  0  0  0  0
   33.8750   27.5870   48.4920 C   0  0  0  0  0  0  0  0  0  0  0  0
   33.9310   26.4500   47.4780 C   0  0  0  0  0  0  0  0  0  0  0  0
   33.0860   26.8650   46.3170 C   0  0  0  0  0  0  0  0  0  0  0  0
   33.6480   28.0960   45.6690 C   0  0  0  0  0  0  0  0  0  0  0  0
   33.9010   29.2320   46.6010 C   0  0  1  0  0  0  0  0  0  0  0  0
   39.0870   32.4130   47.3420 C   0  0  0  0  0  0  0  0  0  0  0  0
   38.6780   31.1550   47.0420 C   0  0  0  0  0  0  0  0  0  0  0  0
   39.2500   30.5610   45.9340 C   0  0  0  0  0  0  0  0  0  0  0  0
   40.1660   31.1640   45.1650 C   0  0  0  0  0  0  0  0  0  0  0  0
   40.6040   32.4570   45.4510 C   0  0  0  0  0  0  0  0  0  0  0  0
   40.0460   33.0530   46.5440 C   0  0  0  0  0  0  0  0  0  0  0  0
   39.3710   34.2610   48.8330 N   0  0  0  0  0  0  0  0  0  0  0  0
   38.6440   33.2310   48.4340 C   0  0  0  0  0  0  0  0  0  0  0  0
   37.6280   33.4110   49.3720 N   0  0  0  0  0  0  0  0  0  0  0  0
   39.0250   34.8610   49.6240 H   0  0  0  0  0  0  0  0  0  0  0  0
   32.7150   30.0970   46.8560 C   0  0  0  0  0  0  0  0  0  0  0  0
   32.4590   31.2630   45.8770 C   0  0  0  0  0  0  0  0  0  0  0  0
   31.6100   30.0190   45.8390 C   0  0  0  0  0  0  0  0  0  0  0  0
   37.2331   29.8991   51.2183 H   0  0  0  0  0  0  0  0  0  0  0  0
   38.8517   30.9774   49.6417 H   0  0  0  0  0  0  0  0  0  0  0  0
   34.4312   27.3194   49.4025 H   0  0  0  0  0  0  0  0  0  0  0  0
   32.8437   27.8091   48.8037 H   0  0  0  0  0  0  0  0  0  0  0  0
   34.9683   26.2845   47.1515 H   0  0  0  0  0  0  0  0  0  0  0  0
   33.5642   25.5107   47.9175 H   0  0  0  0  0  0  0  0  0  0  0  0
   33.0582   26.0489   45.5799 H   0  0  0  0  0  0  0  0  0  0  0  0
   32.0707   27.0860   46.6780 H   0  0  0  0  0  0  0  0  0  0  0  0
   34.6013   27.8265   45.1910 H   0  0  0  0  0  0  0  0  0  0  0  0
   32.8880   28.4447   44.9542 H   0  0  0  0  0  0  0  0  0  0  0  0
   34.6110   29.9110   46.1061 H   0  0  0  0  0  0  0  0  0  0  0  0
   38.9372   29.5401   45.6695 H   0  0  0  0  0  0  0  0  0  0  0  0
   40.5788   30.6318   44.2953 H   0  0  0  0  0  0  0  0  0  0  0  0
   41.3561   32.9668   44.8309 H   0  0  0  0  0  0  0  0  0  0  0  0
   40.3600   34.0734   46.8090 H   0  0  0  0  0  0  0  0  0  0  0  0
   37.6821   34.1868   50.0474 H   0  0  0  0  0  0  0  0  0  0  0  0
   36.8234   32.7682   49.3895 H   0  0  0  0  0  0  0  0  0  0  0  0
   32.7922   30.0064   47.9495 H   0  0  0  0  0  0  0  0  0  0  0  0
   32.0359   32.2098   46.2438 H   0  0  0  0  0  0  0  0  0  0  0  0
   33.0647   31.8206   45.1474 H   0  0  0  0  0  0  0  0  0  0  0  0
   30.5615   30.0642   46.1686 H   0  0  0  0  0  0  0  0  0  0  0  0
   31.3392   29.2982   45.0535 H   0  0  0  0  0  0  0  0  0  0  0  0
  2  1  2  0
  3  2  1  0
  4  3  2  0
  4  5  1  0
  5  6  2  0
  6  1  1  0
  7  5  1  0
  7  8  1  0
  9  8  1  0
 10  9  1  0
 11 10  1  0
 11 12  1  0
 12 23  1  0
 12  7  1  0
 13 20  1  0
 14 13  2  0
 14  3  1  0
 15 14  1  0
 16 17  1  0
 16 15  2  0
 17 18  2  0
 18 13  1  0
 19 22  1  0
 20 19  2  0
 20 21  1  0
 24 23  1  0
 25 24  1  0
 25 23  1  0
  1 26  1  0
  2 27  1  0
  8 28  1  0
  8 29  1  0
  9 30  1  0
  9 31  1  0
 10 32  1  0
 10 33  1  0
 11 34  1  0
 11 35  1  0
 12 36  1  6
 15 37  1  0
 16 38  1  0
 17 39  1  0
 18 40  1  0
 21 41  1  0
 21 42  1  0
 23 43  1  0
 24 44  1  0
 24 45  1  0
 25 46  1  0
 25 47  1  0
M  ISO  8  26  14  27  14  28  13  29  13  30  13  31  13  32  13  33  13
M  ISO  8  34  13  35  13  36  13  37  14  38  14  39  14  40  14  43  13
M  ISO  4  44  13  45  13  46  13  47  13
M  END
>  <minimizedAffinity>  (1) 
-6.59466934

>  <minimizedRMSD>  (1) 
1.13323188

$$$$
