
     RDKit          3D

 20 21  0  0  0  0  0  0  0  0999 V2000
   37.0000   29.5130   50.6760 C   0  0  0  0  0  0  0  0  0  0  0  0
   37.8800   30.0010   49.7010 C   0  0  0  0  0  0  0  0  0  0  0  0
   37.4170   30.6600   48.5640 C   0  0  0  0  0  0  0  0  0  0  0  0
   36.0690   30.7900   48.4720 N   0  0  0  0  0  0  0  0  0  0  0  0
   35.2270   30.3200   49.4100 C   0  0  0  0  0  0  0  0  0  0  0  0
   35.6860   29.6900   50.4980 N   0  0  0  0  0  0  0  0  0  0  0  0
   38.4170   33.4280   49.3100 Br  0  0  0  0  0  0  0  0  0  0  0  0
   38.8540   32.4310   47.7390 C   0  0  0  0  0  0  0  0  0  0  0  0
   38.3170   31.1750   47.5370 C   0  0  0  0  0  0  0  0  0  0  0  0
   38.6660   30.5010   46.3860 C   0  0  0  0  0  0  0  0  0  0  0  0
   39.5290   31.0790   45.4740 C   0  0  0  0  0  0  0  0  0  0  0  0
   40.0740   32.3500   45.6750 C   0  0  0  0  0  0  0  0  0  0  0  0
   39.7160   33.0220   46.8370 C   0  0  0  0  0  0  0  0  0  0  0  0
   37.3814   28.9955   51.5686 H   0  0  0  0  0  0  0  0  0  0  0  0
   38.9625   29.8605   49.8364 H   0  0  0  0  0  0  0  0  0  0  0  0
   34.1431   30.4557   49.2806 H   0  0  0  0  0  0  0  0  0  0  0  0
   38.2558   29.4988   46.1926 H   0  0  0  0  0  0  0  0  0  0  0  0
   39.7946   30.5222   44.5633 H   0  0  0  0  0  0  0  0  0  0  0  0
   40.7594   32.8006   44.9421 H   0  0  0  0  0  0  0  0  0  0  0  0
   40.1195   34.0253   47.0384 H   0  0  0  0  0  0  0  0  0  0  0  0
  2  1  2  0
  3  2  1  0
  4  3  2  0
  4  5  1  0
  5  6  2  0
  6  1  1  0
  8  7  1  0
  9  8  2  0
  9  3  1  0
 10  9  1  0
 11 12  1  0
 11 10  2  0
 12 13  2  0
 13  8  1  0
  1 14  1  0
  2 15  1  0
  5 16  1  0
 10 17  1  0
 11 18  1  0
 12 19  1  0
 13 20  1  0
M  ISO  7  14  14  15  14  16  14  17  14  18  14  19  14  20  14
M  END
>  <minimizedAffinity>  (1) 
-5.20317364

>  <minimizedRMSD>  (1) 
0.81908083

$$$$
