
     RDKit          3D

 31 34  0  0  0  0  0  0  0  0999 V2000
   36.9987   29.5117   50.6757 C   0  0  0  0  0  0  0  0  0  0  0  0
   37.8789   29.9994   49.6995 C   0  0  0  0  0  0  0  0  0  0  0  0
   37.4086   30.6593   48.5627 C   0  0  0  0  0  0  0  0  0  0  0  0
   36.0674   30.7915   48.4731 N   0  0  0  0  0  0  0  0  0  0  0  0
   35.2305   30.3187   49.4178 C   0  0  0  0  0  0  0  0  0  0  0  0
   35.6872   29.6893   50.5012 N   0  0  0  0  0  0  0  0  0  0  0  0
   38.4093   33.4275   49.3138 Br  0  0  0  0  0  0  0  0  0  0  0  0
   38.8559   32.4315   47.7333 C   0  0  0  0  0  0  0  0  0  0  0  0
   38.3158   31.1754   47.5322 C   0  0  0  0  0  0  0  0  0  0  0  0
   38.6672   30.5080   46.3883 C   0  0  0  0  0  0  0  0  0  0  0  0
   39.5313   31.0776   45.4737 C   0  0  0  0  0  0  0  0  0  0  0  0
   40.0804   32.3516   45.6756 C   0  0  0  0  0  0  0  0  0  0  0  0
   39.7208   33.0184   46.8321 C   0  0  0  0  0  0  0  0  0  0  0  0
   37.5469   29.0392   51.4664 H   0  0  0  0  0  0  0  0  0  0  0  0
   38.9711   29.9153   49.7299 H   0  0  0  0  0  0  0  0  0  0  0  0
   34.1605   30.4664   49.2704 H   0  0  0  0  0  0  0  0  0  0  0  0
   38.2419   29.5218   46.2324 H   0  0  0  0  0  0  0  0  0  0  0  0
   39.7985   30.5366   44.5751 H   0  0  0  0  0  0  0  0  0  0  0  0
   40.7582   32.8049   44.9638 H   0  0  0  0  0  0  0  0  0  0  0  0
   40.2470   34.3318   47.1051 N   0  0  0  0  0  0  0  0  0  0  0  0
   39.8137   35.4844   46.5800 C   0  0  0  0  0  0  0  0  0  0  0  0
   38.9989   35.5717   45.8721 H   0  0  0  0  0  0  0  0  0  0  0  0
   40.5742   36.4921   47.0943 N   0  0  0  0  0  0  0  0  0  0  0  0
   41.4508   35.9269   47.9191 C   0  0  0  0  0  0  0  0  0  0  0  0
   42.4623   36.4866   48.7078 C   0  0  0  0  0  0  0  0  0  0  0  0
   42.6644   37.5509   48.7375 H   0  0  0  0  0  0  0  0  0  0  0  0
   43.2052   35.6520   49.4547 N   0  0  0  0  0  0  0  0  0  0  0  0
   43.0341   34.3283   49.4865 C   0  0  0  0  0  0  0  0  0  0  0  0
   43.6053   33.6228   50.0693 H   0  0  0  0  0  0  0  0  0  0  0  0
   42.0639   33.7770   48.7318 N   0  0  0  0  0  0  0  0  0  0  0  0
   41.2716   34.5511   47.9510 C   0  0  0  0  0  0  0  0  0  0  0  0
  2  1  2  0
  3  2  1  0
  4  3  2  0
  4  5  1  0
  5  6  2  0
  6  1  1  0
  8  7  1  0
  9  8  2  0
  9  3  1  0
 10  9  1  0
 11 12  1  0
 11 10  2  0
 12 13  2  0
 13  8  1  0
  1 14  1  0
  2 15  1  0
  5 16  1  0
 10 17  1  0
 11 18  1  0
 12 19  1  0
 20 21  1  0
 21 22  1  0
 21 23  2  0
 23 24  1  0
 24 25  2  0
 25 26  1  0
 25 27  1  0
 27 28  2  0
 28 29  1  0
 28 30  1  0
 30 31  2  0
 31 20  1  0
 31 24  1  0
 13 20  1  0
M  END
>  <DihAtoms>  (1) 
11,12,19,20

>  <DihDeg>  (1) 
109.52068518622661

$$$$
