
     RDKit          3D

 27 29  0  0  0  0  0  0  0  0999 V2000
   36.9962   29.5086   50.6715 C   0  0  0  0  0  0  0  0  0  0  0  0
   37.8807   29.9963   49.6975 C   0  0  0  0  0  0  0  0  0  0  0  0
   37.4260   30.6556   48.5707 C   0  0  0  0  0  0  0  0  0  0  0  0
   36.0703   30.7972   48.4735 N   0  0  0  0  0  0  0  0  0  0  0  0
   35.2349   30.3253   49.4134 C   0  0  0  0  0  0  0  0  0  0  0  0
   35.6763   29.6921   50.4951 N   0  0  0  0  0  0  0  0  0  0  0  0
   38.4104   33.4263   49.3129 Br  0  0  0  0  0  0  0  0  0  0  0  0
   38.8504   32.4373   47.7473 C   0  0  0  0  0  0  0  0  0  0  0  0
   38.3251   31.1761   47.5365 C   0  0  0  0  0  0  0  0  0  0  0  0
   38.6718   30.4994   46.3904 C   0  0  0  0  0  0  0  0  0  0  0  0
   39.5300   31.0816   45.4757 C   0  0  0  0  0  0  0  0  0  0  0  0
   40.0697   32.3506   45.6695 C   0  0  0  0  0  0  0  0  0  0  0  0
   39.7102   33.0135   46.8249 C   0  0  0  0  0  0  0  0  0  0  0  0
   37.3886   28.9993   51.5373 H   0  0  0  0  0  0  0  0  0  0  0  0
   38.9584   29.8504   49.8346 H   0  0  0  0  0  0  0  0  0  0  0  0
   34.1701   30.4899   49.2414 H   0  0  0  0  0  0  0  0  0  0  0  0
   38.2423   29.5295   46.2702 H   0  0  0  0  0  0  0  0  0  0  0  0
   39.8027   30.5484   44.5734 H   0  0  0  0  0  0  0  0  0  0  0  0
   40.7442   32.8319   44.9709 H   0  0  0  0  0  0  0  0  0  0  0  0
   40.2416   34.3486   47.0886 C   0  0  0  0  0  0  0  0  0  0  0  0
   39.5221   35.4359   47.5394 C   0  0  0  0  0  0  0  0  0  0  0  0
   38.4667   35.4886   47.7705 H   0  0  0  0  0  0  0  0  0  0  0  0
   40.3789   36.5355   47.6708 C   0  0  0  0  0  0  0  0  0  0  0  0
   40.1043   37.5404   48.0074 H   0  0  0  0  0  0  0  0  0  0  0  0
   41.6178   36.0190   47.2727 C   0  0  0  0  0  0  0  0  0  0  0  0
   42.5270   36.6065   47.2502 H   0  0  0  0  0  0  0  0  0  0  0  0
   41.4677   34.7605   46.9522 O   0  0  0  0  0  0  0  0  0  0  0  0
  2  1  2  0
  3  2  1  0
  4  3  2  0
  4  5  1  0
  5  6  2  0
  6  1  1  0
  8  7  1  0
  9  8  2  0
  9  3  1  0
 10  9  1  0
 11 12  1  0
 11 10  2  0
 12 13  2  0
 13  8  1  0
  1 14  1  0
  2 15  1  0
  5 16  1  0
 10 17  1  0
 11 18  1  0
 12 19  1  0
 20 21  2  0
 21 22  1  0
 21 23  1  0
 23 24  1  0
 23 25  2  0
 25 26  1  0
 25 27  1  0
 27 20  1  0
 13 20  1  0
M  END
>  <DihAtoms>  (1) 
11,12,19,20

>  <DihDeg>  (1) 
0.002538189166423626

$$$$
