
     RDKit          3D

 22 23  0  0  0  0  0  0  0  0999 V2000
   36.6770   32.1320   50.1580 Br  0  0  0  0  0  0  0  0  0  0  0  0
   37.6100   31.8270   48.5080 C   0  0  0  0  0  0  0  0  0  0  0  0
   37.1900   30.8240   47.6660 C   0  0  0  0  0  0  0  0  0  0  0  0
   37.8960   30.6400   46.4840 C   0  0  0  0  0  0  0  0  0  0  0  0
   38.9730   31.4430   46.1840 C   0  0  0  0  0  0  0  0  0  0  0  0
   39.3970   32.4630   47.0450 C   0  0  0  0  0  0  0  0  0  0  0  0
   38.6860   32.6350   48.2180 C   0  0  0  0  0  0  0  0  0  0  0  0
   34.9870   28.3510   49.4940 C   0  0  0  0  0  0  0  0  0  0  0  0
   36.0900   29.1140   49.1080 C   0  0  0  0  0  0  0  0  0  0  0  0
   36.0450   30.0310   48.0690 C   0  0  0  0  0  0  0  0  0  0  0  0
   34.8360   30.1380   47.4430 N   0  0  0  0  0  0  0  0  0  0  0  0
   33.7710   29.3980   47.8200 C   0  0  0  0  0  0  0  0  0  0  0  0
   33.8400   28.5200   48.8240 N   0  0  0  0  0  0  0  0  0  0  0  0
   39.0860   33.6830   49.1510 C   0  0  0  0  0  0  0  0  0  0  0  0
   39.8760   34.5940   48.7860 O   0  0  0  0  0  0  0  0  0  0  0  0
   37.5926   29.8479   45.7836 H   0  0  0  0  0  0  0  0  0  0  0  0
   39.5159   31.2790   45.2415 H   0  0  0  0  0  0  0  0  0  0  0  0
   40.2591   33.1002   46.7984 H   0  0  0  0  0  0  0  0  0  0  0  0
   35.0578   27.6323   50.3238 H   0  0  0  0  0  0  0  0  0  0  0  0
   37.0369   28.9820   49.6521 H   0  0  0  0  0  0  0  0  0  0  0  0
   32.8184   29.5221   47.2842 H   0  0  0  0  0  0  0  0  0  0  0  0
   38.6954   33.6777   50.1793 H   0  0  0  0  0  0  0  0  0  0  0  0
  2  1  1  0
  3 10  1  0
  3  2  2  0
  4  3  1  0
  5  4  2  0
  5  6  1  0
  6  7  2  0
  7  2  1  0
  7 14  1  0
  9  8  2  0
 10  9  1  0
 11 12  1  0
 11 10  2  0
 12 13  2  0
 13  8  1  0
 15 14  2  0
  4 16  1  0
  5 17  1  0
  6 18  1  0
  8 19  1  0
  9 20  1  0
 12 21  1  0
 14 22  1  0
M  ISO  7  16  14  17  14  18  14  19  14  20  14  21  14  22   6
M  END
>  <minimizedAffinity>  (1) 
-5.1418128

>  <minimizedRMSD>  (1) 
1.93714535

$$$$
