
     RDKit          3D

 27 29  0  0  0  0  0  0  0  0999 V2000
   37.0050   29.5195   50.6770 C   0  0  0  0  0  0  0  0  0  0  0  0
   37.8820   30.0102   49.7027 C   0  0  0  0  0  0  0  0  0  0  0  0
   37.4101   30.6661   48.5564 C   0  0  0  0  0  0  0  0  0  0  0  0
   36.0709   30.7837   48.4698 N   0  0  0  0  0  0  0  0  0  0  0  0
   35.2297   30.3102   49.4092 C   0  0  0  0  0  0  0  0  0  0  0  0
   35.6901   29.6889   50.4939 N   0  0  0  0  0  0  0  0  0  0  0  0
   38.4157   33.4293   49.3129 Br  0  0  0  0  0  0  0  0  0  0  0  0
   38.8591   32.4299   47.7365 C   0  0  0  0  0  0  0  0  0  0  0  0
   38.3078   31.1790   47.5401 C   0  0  0  0  0  0  0  0  0  0  0  0
   38.6575   30.5052   46.3823 C   0  0  0  0  0  0  0  0  0  0  0  0
   39.5233   31.0724   45.4697 C   0  0  0  0  0  0  0  0  0  0  0  0
   40.0780   32.3430   45.6784 C   0  0  0  0  0  0  0  0  0  0  0  0
   39.7229   33.0226   46.8501 C   0  0  0  0  0  0  0  0  0  0  0  0
   37.5627   29.0444   51.4868 H   0  0  0  0  0  0  0  0  0  0  0  0
   38.9661   29.9284   49.7487 H   0  0  0  0  0  0  0  0  0  0  0  0
   34.1501   30.3894   49.3676 H   0  0  0  0  0  0  0  0  0  0  0  0
   38.2297   29.5228   46.2193 H   0  0  0  0  0  0  0  0  0  0  0  0
   39.8011   30.5521   44.5628 H   0  0  0  0  0  0  0  0  0  0  0  0
   40.7577   32.8313   44.9998 H   0  0  0  0  0  0  0  0  0  0  0  0
   40.2750   34.3489   47.1120 C   0  0  0  0  0  0  0  0  0  0  0  0
   41.4475   34.6119   47.7903 C   0  0  0  0  0  0  0  0  0  0  0  0
   42.1348   33.9001   48.2293 H   0  0  0  0  0  0  0  0  0  0  0  0
   41.6323   35.9787   47.8338 C   0  0  0  0  0  0  0  0  0  0  0  0
   42.4371   36.5785   48.2795 H   0  0  0  0  0  0  0  0  0  0  0  0
   40.5823   36.5281   47.1889 N   0  0  0  0  0  0  0  0  0  0  0  0
   40.3210   37.5196   46.9876 H   0  0  0  0  0  0  0  0  0  0  0  0
   39.7754   35.5452   46.7605 N   0  0  0  0  0  0  0  0  0  0  0  0
  2  1  2  0
  3  2  1  0
  4  3  2  0
  4  5  1  0
  5  6  2  0
  6  1  1  0
  8  7  1  0
  9  8  2  0
  9  3  1  0
 10  9  1  0
 11 12  1  0
 11 10  2  0
 12 13  2  0
 13  8  1  0
  1 14  1  0
  2 15  1  0
  5 16  1  0
 10 17  1  0
 11 18  1  0
 12 19  1  0
 20 21  1  0
 21 22  1  0
 21 23  2  0
 23 24  1  0
 23 25  1  0
 25 26  1  0
 25 27  1  0
 27 20  2  0
 13 20  1  0
M  END
>  <DihAtoms>  (1) 
11,12,19,20

>  <DihDeg>  (1) 
-0.0006688339346978605

$$$$
