
     RDKit          3D

 28 30  0  0  0  0  0  0  0  0999 V2000
   38.1260   31.2500   48.3090 Br  0  0  0  0  0  0  0  0  0  0  0  0
   36.9050   30.6730   46.9670 C   0  0  0  0  0  0  0  0  0  0  0  0
   35.7590   30.0000   47.3170 C   0  0  0  0  0  0  0  0  0  0  0  0
   34.8910   29.5990   46.2980 C   0  0  0  0  0  0  0  0  0  0  0  0
   35.1870   29.8750   44.9840 C   0  0  0  0  0  0  0  0  0  0  0  0
   36.3490   30.5570   44.6230 C   0  0  0  0  0  0  0  0  0  0  0  0
   37.2010   30.9490   45.6440 C   0  0  0  0  0  0  0  0  0  0  0  0
   36.2240   29.0210   50.9270 C   0  0  0  0  0  0  0  0  0  0  0  0
   36.5000   29.2310   49.5590 C   0  0  0  0  0  0  0  0  0  0  0  0
   35.5230   29.7550   48.7430 C   0  0  0  0  0  0  0  0  0  0  0  0
   34.3060   30.0520   49.3110 N   0  0  0  0  0  0  0  0  0  0  0  0
   34.0630   29.8430   50.6230 C   0  0  0  0  0  0  0  0  0  0  0  0
   35.0080   29.3340   51.4230 N   0  0  0  0  0  0  0  0  0  0  0  0
   38.4290   31.6640   45.3200 C   0  0  0  0  0  0  0  0  0  0  0  0
   38.5500   32.8160   44.5940 C   0  0  0  0  0  0  0  0  0  0  0  0
   39.8340   33.1830   44.5000 N   0  0  0  0  0  0  0  0  0  0  0  0
   40.5490   32.2730   45.1640 C   0  0  0  0  0  0  0  0  0  0  0  0
   39.7160   31.3400   45.6720 N   0  0  0  0  0  0  0  0  0  0  0  0
   41.9350   32.2220   45.3500 O   0  0  0  0  0  0  0  0  0  0  0  0
   33.9657   29.0595   46.5485 H   0  0  0  0  0  0  0  0  0  0  0  0
   34.4899   29.5498   44.1976 H   0  0  0  0  0  0  0  0  0  0  0  0
   36.5802   30.7752   43.5699 H   0  0  0  0  0  0  0  0  0  0  0  0
   36.9979   28.6032   51.5877 H   0  0  0  0  0  0  0  0  0  0  0  0
   37.4884   28.9779   49.1479 H   0  0  0  0  0  0  0  0  0  0  0  0
   33.0763   30.0941   51.0394 H   0  0  0  0  0  0  0  0  0  0  0  0
   37.7080   33.3659   44.1483 H   0  0  0  0  0  0  0  0  0  0  0  0
   40.2004   34.0107   44.0084 H   0  0  0  0  0  0  0  0  0  0  0  0
   42.3377   31.4821   45.8701 H   0  0  0  0  0  0  0  0  0  0  0  0
  2  3  2  0
  2  1  1  0
  3 10  1  0
  4  3  1  0
  5  4  2  0
  6  5  1  0
  6  7  2  0
  7  2  1  0
  8 13  2  0
  9  8  1  0
 10 11  1  0
 10  9  2  0
 11 12  2  0
 12 13  1  0
 14  7  1  0
 14 18  1  0
 15 14  2  0
 16 15  1  0
 16 17  1  0
 17 19  1  0
 17 18  2  0
  4 20  1  0
  5 21  1  0
  6 22  1  0
  8 23  1  0
  9 24  1  0
 12 25  1  0
 15 26  1  0
 16 27  1  0
 19 28  1  0
M  ISO  8  20  14  21  14  22  14  23  14  24  14  25  14  26  14  27   9
M  ISO  1  28   3
M  END
>  <minimizedAffinity>  (1) 
-4.8080225

>  <minimizedRMSD>  (1) 
0.415295035

$$$$
