
     RDKit          3D

 35 37  0  0  0  0  0  0  0  0999 V2000
   36.7230   30.9330   47.0190 Br  0  0  0  0  0  0  0  0  0  0  0  0
   35.2890   29.6670   46.9760 C   0  0  0  0  0  0  0  0  0  0  0  0
   34.9540   28.9580   48.1070 C   0  0  0  0  0  0  0  0  0  0  0  0
   33.9020   28.0540   48.0220 C   0  0  0  0  0  0  0  0  0  0  0  0
   33.2230   27.8840   46.8360 C   0  0  0  0  0  0  0  0  0  0  0  0
   33.5630   28.6020   45.6900 C   0  0  0  0  0  0  0  0  0  0  0  0
   34.6200   29.5060   45.7840 C   0  0  0  0  0  0  0  0  0  0  0  0
   37.8030   29.7210   50.4600 C   0  0  0  0  0  0  0  0  0  0  0  0
   37.0850   29.4710   49.2760 C   0  0  0  0  0  0  0  0  0  0  0  0
   35.7360   29.2160   49.3210 C   0  0  0  0  0  0  0  0  0  0  0  0
   35.1350   29.2140   50.5580 N   0  0  0  0  0  0  0  0  0  0  0  0
   35.8330   29.4540   51.6860 C   0  0  0  0  0  0  0  0  0  0  0  0
   37.1490   29.7050   51.6460 N   0  0  0  0  0  0  0  0  0  0  0  0
   35.0080   30.2760   44.6050 C   0  0  0  0  0  0  0  0  0  0  0  0
   34.1640   30.8920   43.7250 C   0  0  0  0  0  0  0  0  0  0  0  0
   34.8570   31.5030   42.7670 N   0  0  0  0  0  0  0  0  0  0  0  0
   36.1440   31.2820   43.0260 C   0  0  0  0  0  0  0  0  0  0  0  0
   36.2700   30.5260   44.1560 N   0  0  0  0  0  0  0  0  0  0  0  0
   37.2640   31.7340   42.2790 N   0  0  0  0  0  0  0  0  0  0  0  0
   38.6970   32.4310   42.9300 S   0  0  0  0  0  0  0  0  0  0  0  0
   39.7950   31.3760   42.9650 O   0  0  0  0  0  0  0  0  0  0  0  0
   38.4940   32.9070   44.3340 O   0  0  0  0  0  0  0  0  0  0  0  0
   39.2180   33.7310   41.9970 O   0  0  0  0  0  0  0  0  0  0  0  0
   33.6098   27.4706   48.9076 H   0  0  0  0  0  0  0  0  0  0  0  0
   32.3923   27.1643   46.7916 H   0  0  0  0  0  0  0  0  0  0  0  0
   33.0168   28.4602   44.7458 H   0  0  0  0  0  0  0  0  0  0  0  0
   38.8829   29.9270   50.4228 H   0  0  0  0  0  0  0  0  0  0  0  0
   37.6074   29.4798   48.3080 H   0  0  0  0  0  0  0  0  0  0  0  0
   35.3138   29.4437   52.6557 H   0  0  0  0  0  0  0  0  0  0  0  0
   33.0664   30.8841   43.7979 H   0  0  0  0  0  0  0  0  0  0  0  0
   34.4722   32.0422   41.9783 H   0  0  0  0  0  0  0  0  0  0  0  0
   37.2144   31.6359   41.2549 H   0  0  0  0  0  0  0  0  0  0  0  0
   40.0174   31.1623   43.9057 H   0  0  0  0  0  0  0  0  0  0  0  0
   38.7928   32.2064   44.9664 H   0  0  0  0  0  0  0  0  0  0  0  0
   39.5127   34.4663   42.5908 H   0  0  0  0  0  0  0  0  0  0  0  0
  2  1  1  0
  2  3  2  0
  3 10  1  0
  4  3  1  0
  5  4  2  0
  6  7  2  0
  6  5  1  0
  7  2  1  0
  8 13  2  0
  9 10  2  0
  9  8  1  0
 10 11  1  0
 11 12  2  0
 13 12  1  0
 14  7  1  0
 15 14  2  0
 16 17  1  0
 16 15  1  0
 17 18  2  0
 18 14  1  0
 19 20  1  0
 19 17  1  0
 20 21  1  0
 20 22  1  0
 23 20  1  0
  4 24  1  0
  5 25  1  0
  6 26  1  0
  8 27  1  0
  9 28  1  0
 12 29  1  0
 15 30  1  0
 16 31  1  0
 19 32  1  0
 21 33  1  0
 22 34  1  0
 23 35  1  0
M  ISO  8  24  14  25  14  26  14  27  14  28  14  29  14  30  14  31   9
M  ISO  3  33   3  34   3  35   3
M  END
>  <minimizedAffinity>  (1) 
-4.76015043

>  <minimizedRMSD>  (1) 
4.11194801

$$$$
