
     RDKit          3D

 31 33  0  0  1  0  0  0  0  0999 V2000
   37.5460   29.8350   50.5830 C   0  0  0  0  0  0  0  0  0  0  0  0
   37.7010   30.1690   49.2130 C   0  0  0  0  0  0  0  0  0  0  0  0
   36.5800   30.2670   48.4120 C   0  0  0  0  0  0  0  0  0  0  0  0
   35.3530   30.0360   48.9640 N   0  0  0  0  0  0  0  0  0  0  0  0
   35.2150   29.7140   50.2830 C   0  0  0  0  0  0  0  0  0  0  0  0
   36.3060   29.6160   51.0810 N   0  0  0  0  0  0  0  0  0  0  0  0
   36.6750   30.6050   47.0440 N   0  0  0  0  0  0  0  0  0  0  0  0
   35.8100   30.1220   46.1300 C   0  0  0  0  0  0  0  0  0  0  0  0
   35.8900   30.4560   44.7880 C   0  0  0  0  0  0  0  0  0  0  0  0
   36.9150   31.3280   44.3950 C   0  0  0  0  0  0  0  0  0  0  0  0
   37.0380   31.6660   43.2010 O   0  0  0  0  0  0  0  0  0  0  0  0
   37.7880   31.8150   45.3250 N   0  0  0  0  0  0  0  0  0  0  0  0
   37.6180   31.4250   46.5960 C   0  0  0  0  0  0  0  0  0  0  0  0
   38.4360   31.8890   47.4360 O   0  0  0  0  0  0  0  0  0  0  0  0
   38.8150   32.7020   44.8660 C   0  0  2  0  0  0  0  0  0  0  0  0
   39.5310   32.0330   43.7100 C   0  0  0  0  0  0  0  0  0  0  0  0
   40.7240   31.4530   44.3900 C   0  0  0  0  0  0  0  0  0  0  0  0
   40.9550   32.1360   45.5500 O   0  0  0  0  0  0  0  0  0  0  0  0
   39.9150   32.9910   45.7930 C   0  0  0  0  0  0  0  0  0  0  0  0
   38.4272   29.7545   51.2364 H   0  0  0  0  0  0  0  0  0  0  0  0
   38.7021   30.3478   48.7936 H   0  0  0  0  0  0  0  0  0  0  0  0
   34.2135   29.5331   50.7004 H   0  0  0  0  0  0  0  0  0  0  0  0
   35.0135   29.4394   46.4610 H   0  0  0  0  0  0  0  0  0  0  0  0
   35.1748   30.0514   44.0567 H   0  0  0  0  0  0  0  0  0  0  0  0
   38.2692   33.6349   44.6614 H   0  0  0  0  0  0  0  0  0  0  0  0
   39.8230   32.7642   42.9418 H   0  0  0  0  0  0  0  0  0  0  0  0
   38.9190   31.2934   43.1730 H   0  0  0  0  0  0  0  0  0  0  0  0
   40.5387   30.3929   44.6177 H   0  0  0  0  0  0  0  0  0  0  0  0
   41.6013   31.5348   43.7315 H   0  0  0  0  0  0  0  0  0  0  0  0
   40.2522   34.0281   45.6493 H   0  0  0  0  0  0  0  0  0  0  0  0
   39.5660   32.8579   46.8277 H   0  0  0  0  0  0  0  0  0  0  0  0
  1  6  2  0
  2  1  1  0
  3  4  1  0
  3  2  2  0
  4  5  2  0
  5  6  1  0
  7  3  1  0
  8  7  1  0
  9  8  2  0
 10  9  1  0
 10 12  1  0
 11 10  2  0
 12 13  1  0
 13  7  1  0
 13 14  2  0
 15 12  1  0
 15 19  1  0
 16 17  1  0
 16 15  1  0
 17 18  1  0
 18 19  1  0
  1 20  1  0
  2 21  1  0
  5 22  1  0
  8 23  1  0
  9 24  1  0
 15 25  1  6
 16 26  1  0
 16 27  1  0
 17 28  1  0
 17 29  1  0
 19 30  1  0
 19 31  1  0
M  ISO  8  20  14  21  14  22  14  23  14  24  14  25  13  26  13  27  13
M  ISO  4  28  13  29  13  30  13  31  13
M  END
>  <minimizedAffinity>  (1) 
-5.59063482

>  <minimizedRMSD>  (1) 
3.1725378

$$$$
