
     RDKit          3D

 34 37  0  0  0  0  0  0  0  0999 V2000
   37.3900   31.1740   46.9790 N   0  0  0  0  0  0  0  0  0  0  0  0
   36.7660   30.8950   45.8020 C   0  0  0  0  0  0  0  0  0  0  0  0
   37.2230   31.3900   44.5880 C   0  0  0  0  0  0  0  0  0  0  0  0
   38.3660   32.1980   44.6160 C   0  0  0  0  0  0  0  0  0  0  0  0
   38.8200   32.6700   43.5490 O   0  0  0  0  0  0  0  0  0  0  0  0
   38.9950   32.4790   45.7980 N   0  0  0  0  0  0  0  0  0  0  0  0
   38.4600   31.9450   46.9020 C   0  0  0  0  0  0  0  0  0  0  0  0
   39.0570   32.2230   47.9640 O   0  0  0  0  0  0  0  0  0  0  0  0
   36.5680   31.0970   43.3570 N   0  0  0  0  0  0  0  0  0  0  0  0
   36.6460   29.9400   42.6780 C   0  0  0  0  0  0  0  0  0  0  0  0
   35.9220   29.9840   41.5720 N   0  0  0  0  0  0  0  0  0  0  0  0
   35.3330   31.1900   41.4820 C   0  0  0  0  0  0  0  0  0  0  0  0
   34.4900   31.7710   40.5620 C   0  0  0  0  0  0  0  0  0  0  0  0
   34.0910   33.0280   40.8100 N   0  0  0  0  0  0  0  0  0  0  0  0
   34.4790   33.7250   41.9010 C   0  0  0  0  0  0  0  0  0  0  0  0
   35.3160   33.1390   42.8080 N   0  0  0  0  0  0  0  0  0  0  0  0
   35.7540   31.8750   42.6190 C   0  0  0  0  0  0  0  0  0  0  0  0
   37.2740   29.5850   50.3320 C   0  0  0  0  0  0  0  0  0  0  0  0
   37.7480   30.0880   49.1130 C   0  0  0  0  0  0  0  0  0  0  0  0
   36.9140   30.6660   48.1920 C   0  0  0  0  0  0  0  0  0  0  0  0
   35.5930   30.7390   48.4970 N   0  0  0  0  0  0  0  0  0  0  0  0
   35.1010   30.2590   49.6720 C   0  0  0  0  0  0  0  0  0  0  0  0
   35.9350   29.6860   50.5860 N   0  0  0  0  0  0  0  0  0  0  0  0
   40.1760   33.3150   45.8280 C   0  0  0  0  0  0  0  0  0  0  0  0
   40.0820   34.2810   44.8710 F   0  0  0  0  0  0  0  0  0  0  0  0
   41.3400   32.6100   45.5700 F   0  0  0  0  0  0  0  0  0  0  0  0
   40.2520   33.9430   47.0640 F   0  0  0  0  0  0  0  0  0  0  0  0
   35.8704   30.2565   45.8130 H   0  0  0  0  0  0  0  0  0  0  0  0
   37.2356   29.0691   43.0003 H   0  0  0  0  0  0  0  0  0  0  0  0
   34.1583   31.2293   39.6639 H   0  0  0  0  0  0  0  0  0  0  0  0
   34.1242   34.7544   42.0572 H   0  0  0  0  0  0  0  0  0  0  0  0
   37.9572   29.1240   51.0605 H   0  0  0  0  0  0  0  0  0  0  0  0
   38.8225   30.0167   48.8885 H   0  0  0  0  0  0  0  0  0  0  0  0
   34.0245   30.3338   49.8854 H   0  0  0  0  0  0  0  0  0  0  0  0
  1 20  1  0
  2  1  1  0
  3  4  1  0
  3  2  2  0
  4  6  1  0
  5  4  2  0
  6 24  1  0
  6  7  1  0
  7  1  1  0
  7  8  2  0
  9  3  1  0
 10  9  1  0
 11 10  2  0
 12 11  1  0
 12 17  2  0
 13 14  2  0
 13 12  1  0
 14 15  1  0
 15 16  2  0
 17 16  1  0
 17  9  1  0
 18 23  2  0
 19 18  1  0
 20 21  1  0
 20 19  2  0
 21 22  2  0
 22 23  1  0
 24 27  1  0
 25 24  1  0
 26 24  1  0
  2 28  1  0
 10 29  1  0
 13 30  1  0
 15 31  1  0
 18 32  1  0
 19 33  1  0
 22 34  1  0
M  ISO  7  28  14  29  14  30  14  31  14  32  14  33  14  34  14
M  END
>  <minimizedAffinity>  (1) 
-6.47095203

>  <minimizedRMSD>  (1) 
0.249425039

$$$$
