
     RDKit          3D

 33 35  0  0  0  0  0  0  0  0999 V2000
   37.5770   31.0450   47.3220 N   0  0  0  0  0  0  0  0  0  0  0  0
   36.8650   30.6920   46.2190 C   0  0  0  0  0  0  0  0  0  0  0  0
   37.1800   31.1630   44.9510 C   0  0  0  0  0  0  0  0  0  0  0  0
   38.2820   32.0320   44.8500 C   0  0  0  0  0  0  0  0  0  0  0  0
   38.6050   32.4810   43.7240 O   0  0  0  0  0  0  0  0  0  0  0  0
   38.9960   32.3840   45.9590 N   0  0  0  0  0  0  0  0  0  0  0  0
   38.5910   31.8640   47.1200 C   0  0  0  0  0  0  0  0  0  0  0  0
   39.2680   32.2110   48.1140 O   0  0  0  0  0  0  0  0  0  0  0  0
   37.4440   30.6090   51.0050 C   0  0  0  0  0  0  0  0  0  0  0  0
   37.7910   31.0960   49.7330 C   0  0  0  0  0  0  0  0  0  0  0  0
   37.2440   30.5670   48.5920 C   0  0  0  0  0  0  0  0  0  0  0  0
   36.3470   29.5490   48.7260 N   0  0  0  0  0  0  0  0  0  0  0  0
   35.9950   29.0590   49.9500 C   0  0  0  0  0  0  0  0  0  0  0  0
   36.5390   29.5860   51.0820 N   0  0  0  0  0  0  0  0  0  0  0  0
   36.4190   30.7880   43.7630 C   0  0  0  0  0  0  0  0  0  0  0  0
   36.7370   29.5830   43.1400 C   0  0  0  0  0  0  0  0  0  0  0  0
   36.0670   29.1480   42.0070 C   0  0  0  0  0  0  0  0  0  0  0  0
   35.0590   29.9250   41.4770 C   0  0  0  0  0  0  0  0  0  0  0  0
   34.7410   31.1300   42.0990 C   0  0  0  0  0  0  0  0  0  0  0  0
   35.4100   31.5470   43.2150 C   0  0  0  0  0  0  0  0  0  0  0  0
   40.1310   33.2770   45.8450 C   0  0  0  0  0  0  0  0  0  0  0  0
   39.9290   34.1590   44.8330 F   0  0  0  0  0  0  0  0  0  0  0  0
   41.3110   32.6090   45.5570 F   0  0  0  0  0  0  0  0  0  0  0  0
   40.2580   33.9900   47.0300 F   0  0  0  0  0  0  0  0  0  0  0  0
   36.0099   30.0098   46.3348 H   0  0  0  0  0  0  0  0  0  0  0  0
   37.8884   31.0391   51.9146 H   0  0  0  0  0  0  0  0  0  0  0  0
   38.5165   31.9187   49.6509 H   0  0  0  0  0  0  0  0  0  0  0  0
   35.2694   28.2355   50.0227 H   0  0  0  0  0  0  0  0  0  0  0  0
   37.5413   28.9601   43.5584 H   0  0  0  0  0  0  0  0  0  0  0  0
   36.3371   28.1917   41.5352 H   0  0  0  0  0  0  0  0  0  0  0  0
   34.5151   29.5989   40.5782 H   0  0  0  0  0  0  0  0  0  0  0  0
   33.9375   31.7567   41.6847 H   0  0  0  0  0  0  0  0  0  0  0  0
   35.1379   32.5046   43.6830 H   0  0  0  0  0  0  0  0  0  0  0  0
  1 11  1  0
  2  1  1  0
  3  2  2  0
  4  3  1  0
  4  6  1  0
  5  4  2  0
  6  7  1  0
  7  1  1  0
  7  8  2  0
  9 14  2  0
 10  9  1  0
 11 12  1  0
 11 10  2  0
 12 13  2  0
 13 14  1  0
 15  3  1  0
 16 15  2  0
 17 16  1  0
 18 17  2  0
 18 19  1  0
 19 20  2  0
 20 15  1  0
 21  6  1  0
 21 24  1  0
 22 21  1  0
 23 21  1  0
  2 25  1  0
  9 26  1  0
 10 27  1  0
 13 28  1  0
 16 29  1  0
 17 30  1  0
 18 31  1  0
 19 32  1  0
 20 33  1  0
M  ISO  8  25  14  26  14  27  14  28  14  29  14  30  14  31  14  32  14
M  ISO  1  33  14
M  END
>  <minimizedAffinity>  (1) 
-6.29076767

>  <minimizedRMSD>  (1) 
0.839128435

$$$$
