
     RDKit          3D

 43 47  0  0  0  0  0  0  0  0999 V2000
   37.3500   31.1380   47.1110 N   0  0  0  0  0  0  0  0  0  0  0  0
   36.7150   30.8950   45.9390 C   0  0  0  0  0  0  0  0  0  0  0  0
   37.1640   31.4180   44.7320 C   0  0  0  0  0  0  0  0  0  0  0  0
   38.3160   32.2220   44.7650 C   0  0  0  0  0  0  0  0  0  0  0  0
   38.7540   32.7150   43.7020 O   0  0  0  0  0  0  0  0  0  0  0  0
   38.9500   32.4620   45.9570 N   0  0  0  0  0  0  0  0  0  0  0  0
   38.4240   31.9050   47.0440 C   0  0  0  0  0  0  0  0  0  0  0  0
   39.0430   32.1560   48.1050 O   0  0  0  0  0  0  0  0  0  0  0  0
   36.5180   31.1850   43.4570 C   0  0  0  0  0  0  0  0  0  0  0  0
   36.7300   30.0480   42.7020 C   0  0  0  0  0  0  0  0  0  0  0  0
   36.1360   29.7840   41.4830 C   0  0  0  0  0  0  0  0  0  0  0  0
   35.2550   30.7390   40.9730 C   0  0  0  0  0  0  0  0  0  0  0  0
   35.0710   31.8620   41.7580 C   0  0  0  0  0  0  0  0  0  0  0  0
   35.6690   32.0720   42.9350 N   0  0  0  0  0  0  0  0  0  0  0  0
   34.1740   32.8450   41.2490 N   0  0  0  0  0  0  0  0  0  0  0  0
   34.2230   33.2900   39.9590 C   0  0  0  0  0  0  0  0  0  0  0  0
   33.2790   34.2240   39.6870 N   0  0  0  0  0  0  0  0  0  0  0  0
   32.6050   34.3760   40.8550 C   0  0  0  0  0  0  0  0  0  0  0  0
   31.5520   35.1390   41.2920 C   0  0  0  0  0  0  0  0  0  0  0  0
   31.0840   35.0730   42.5580 N   0  0  0  0  0  0  0  0  0  0  0  0
   31.6550   34.2260   43.4630 C   0  0  0  0  0  0  0  0  0  0  0  0
   32.7010   33.4540   43.0700 N   0  0  0  0  0  0  0  0  0  0  0  0
   33.1560   33.5320   41.8030 C   0  0  0  0  0  0  0  0  0  0  0  0
   37.2610   29.4370   50.4180 C   0  0  0  0  0  0  0  0  0  0  0  0
   37.7410   29.9690   49.2000 C   0  0  0  0  0  0  0  0  0  0  0  0
   36.8900   30.6060   48.3220 C   0  0  0  0  0  0  0  0  0  0  0  0
   35.6030   30.6960   48.6750 N   0  0  0  0  0  0  0  0  0  0  0  0
   35.1000   30.1970   49.8390 C   0  0  0  0  0  0  0  0  0  0  0  0
   35.9590   29.5660   50.7020 N   0  0  0  0  0  0  0  0  0  0  0  0
   40.1350   33.2920   45.9780 C   0  0  0  0  0  0  0  0  0  0  0  0
   40.0510   34.2730   45.0390 F   0  0  0  0  0  0  0  0  0  0  0  0
   41.3040   32.5860   45.7110 F   0  0  0  0  0  0  0  0  0  0  0  0
   40.2300   33.9000   47.2310 F   0  0  0  0  0  0  0  0  0  0  0  0
   35.8146   30.2631   45.9429 H   0  0  0  0  0  0  0  0  0  0  0  0
   37.4250   29.2950   43.1020 H   0  0  0  0  0  0  0  0  0  0  0  0
   36.3496   28.8549   40.9342 H   0  0  0  0  0  0  0  0  0  0  0  0
   34.7408   30.6067   40.0096 H   0  0  0  0  0  0  0  0  0  0  0  0
   34.9518   32.9286   39.2185 H   0  0  0  0  0  0  0  0  0  0  0  0
   31.0704   35.8307   40.5851 H   0  0  0  0  0  0  0  0  0  0  0  0
   31.2744   34.1695   44.4935 H   0  0  0  0  0  0  0  0  0  0  0  0
   37.9415   28.9285   51.1168 H   0  0  0  0  0  0  0  0  0  0  0  0
   38.8077   29.8736   48.9491 H   0  0  0  0  0  0  0  0  0  0  0  0
   34.0316   30.2978   50.0804 H   0  0  0  0  0  0  0  0  0  0  0  0
  1 26  1  0
  2  1  1  0
  3  4  1  0
  3  2  2  0
  4  6  1  0
  5  4  2  0
  6 30  1  0
  6  7  1  0
  7  1  1  0
  7  8  2  0
  9  3  1  0
 10  9  2  0
 11 10  1  0
 12 11  2  0
 12 13  1  0
 13 14  2  0
 14  9  1  0
 15 13  1  0
 15 23  1  0
 16 15  1  0
 17 16  2  0
 17 18  1  0
 18 19  2  0
 18 23  1  0
 19 20  1  0
 20 21  2  0
 22 21  1  0
 23 22  2  0
 24 29  2  0
 25 24  1  0
 26 27  1  0
 26 25  2  0
 27 28  2  0
 28 29  1  0
 30 33  1  0
 31 30  1  0
 32 30  1  0
  2 34  1  0
 10 35  1  0
 11 36  1  0
 12 37  1  0
 16 38  1  0
 19 39  1  0
 21 40  1  0
 24 41  1  0
 25 42  1  0
 28 43  1  0
M  ISO  8  34  14  35  14  36  14  37  14  38  14  39  14  40  14  41  14
M  ISO  2  42  14  43  14
M  END
>  <minimizedAffinity>  (1) 
-7.4185133

>  <minimizedRMSD>  (1) 
0.506993353

$$$$
