
     RDKit          3D

 38 40  0  0  0  0  0  0  0  0999 V2000
   37.3840   31.1890   47.0460 N   0  0  0  0  0  0  0  0  0  0  0  0
   36.7230   30.9340   45.8830 C   0  0  0  0  0  0  0  0  0  0  0  0
   37.1660   31.4530   44.6730 C   0  0  0  0  0  0  0  0  0  0  0  0
   38.3130   32.2460   44.6770 C   0  0  0  0  0  0  0  0  0  0  0  0
   38.7410   32.7300   43.6040 O   0  0  0  0  0  0  0  0  0  0  0  0
   38.9720   32.4970   45.8510 N   0  0  0  0  0  0  0  0  0  0  0  0
   38.4550   31.9460   46.9530 C   0  0  0  0  0  0  0  0  0  0  0  0
   39.0880   32.2020   48.0000 O   0  0  0  0  0  0  0  0  0  0  0  0
   37.3490   29.5540   50.3800 C   0  0  0  0  0  0  0  0  0  0  0  0
   37.8070   30.0760   49.1560 C   0  0  0  0  0  0  0  0  0  0  0  0
   36.9390   30.6670   48.2640 C   0  0  0  0  0  0  0  0  0  0  0  0
   35.6310   30.7220   48.6170 N   0  0  0  0  0  0  0  0  0  0  0  0
   35.1640   30.2260   49.7940 C   0  0  0  0  0  0  0  0  0  0  0  0
   36.0380   29.6460   50.6600 N   0  0  0  0  0  0  0  0  0  0  0  0
   36.4990   31.2130   43.4040 C   0  0  0  0  0  0  0  0  0  0  0  0
   36.7840   30.1570   42.5830 C   0  0  0  0  0  0  0  0  0  0  0  0
   36.1790   29.8910   41.3740 C   0  0  0  0  0  0  0  0  0  0  0  0
   35.1910   30.7680   40.9430 C   0  0  0  0  0  0  0  0  0  0  0  0
   34.9080   31.8460   41.7940 C   0  0  0  0  0  0  0  0  0  0  0  0
   35.5410   32.0340   42.9530 N   0  0  0  0  0  0  0  0  0  0  0  0
   33.9470   32.8140   41.5090 O   0  0  0  0  0  0  0  0  0  0  0  0
   31.8940   34.1730   42.3430 O   0  0  0  0  0  0  0  0  0  0  0  0
   33.2050   33.5710   42.8560 P   0  0  0  0  0  0  0  0  0  0  0  0
   32.7760   32.4410   44.0490 O   0  0  0  0  0  0  0  0  0  0  0  0
   34.2010   34.7770   43.5010 O   0  0  0  0  0  0  0  0  0  0  0  0
   40.1600   33.3190   45.8590 C   0  0  0  0  0  0  0  0  0  0  0  0
   40.0750   34.2810   44.9020 F   0  0  0  0  0  0  0  0  0  0  0  0
   41.3170   32.6110   45.5970 F   0  0  0  0  0  0  0  0  0  0  0  0
   40.2600   33.9600   47.0940 F   0  0  0  0  0  0  0  0  0  0  0  0
   35.8209   30.3049   45.9021 H   0  0  0  0  0  0  0  0  0  0  0  0
   38.0459   29.0830   51.0889 H   0  0  0  0  0  0  0  0  0  0  0  0
   38.8765   30.0111   48.9071 H   0  0  0  0  0  0  0  0  0  0  0  0
   34.0945   30.2929   50.0422 H   0  0  0  0  0  0  0  0  0  0  0  0
   37.5651   29.4584   42.9173 H   0  0  0  0  0  0  0  0  0  0  0  0
   36.4675   29.0166   40.7721 H   0  0  0  0  0  0  0  0  0  0  0  0
   34.6616   30.6249   39.9895 H   0  0  0  0  0  0  0  0  0  0  0  0
   32.9254   32.8344   44.9451 H   0  0  0  0  0  0  0  0  0  0  0  0
   34.1687   34.7379   44.4897 H   0  0  0  0  0  0  0  0  0  0  0  0
  1 11  1  0
  2  1  1  0
  3  4  1  0
  3  2  2  0
  4  6  1  0
  5  4  2  0
  6 26  1  0
  6  7  1  0
  7  1  1  0
  7  8  2  0
  9 14  2  0
 10  9  1  0
 11 12  1  0
 11 10  2  0
 12 13  2  0
 13 14  1  0
 15  3  1  0
 16 15  2  0
 17 16  1  0
 18 17  2  0
 18 19  1  0
 19 20  2  0
 20 15  1  0
 21 19  1  0
 21 23  1  0
 22 23  2  0
 23 25  1  0
 23 24  1  0
 26 29  1  0
 27 26  1  0
 28 26  1  0
  2 30  1  0
  9 31  1  0
 10 32  1  0
 13 33  1  0
 16 34  1  0
 17 35  1  0
 18 36  1  0
 24 37  1  0
 25 38  1  0
M  ISO  8  30  14  31  14  32  14  33  14  34  14  35  14  36  14  37   3
M  ISO  1  38   3
M  END
>  <minimizedAffinity>  (1) 
-6.94443083

>  <minimizedRMSD>  (1) 
1.62513983

$$$$
