
     RDKit          3D

 33 35  0  0  0  0  0  0  0  0999 V2000
   37.3700   31.0600   47.1420 N   0  0  0  0  0  0  0  0  0  0  0  0
   36.7730   30.7200   45.9670 C   0  0  0  0  0  0  0  0  0  0  0  0
   37.2440   31.1980   44.7480 C   0  0  0  0  0  0  0  0  0  0  0  0
   38.3650   32.0510   44.7690 C   0  0  0  0  0  0  0  0  0  0  0  0
   38.8210   32.5040   43.6920 O   0  0  0  0  0  0  0  0  0  0  0  0
   38.9530   32.3830   45.9610 N   0  0  0  0  0  0  0  0  0  0  0  0
   38.4140   31.8640   47.0580 C   0  0  0  0  0  0  0  0  0  0  0  0
   38.9860   32.1960   48.1270 O   0  0  0  0  0  0  0  0  0  0  0  0
   37.2430   29.4700   50.5040 C   0  0  0  0  0  0  0  0  0  0  0  0
   37.7400   29.9510   49.2800 C   0  0  0  0  0  0  0  0  0  0  0  0
   36.8900   30.5750   48.3670 C   0  0  0  0  0  0  0  0  0  0  0  0
   35.6000   30.6900   48.7090 N   0  0  0  0  0  0  0  0  0  0  0  0
   35.0850   30.2370   49.8810 C   0  0  0  0  0  0  0  0  0  0  0  0
   35.9360   29.6260   50.7690 N   0  0  0  0  0  0  0  0  0  0  0  0
   36.6550   30.8750   43.4710 C   0  0  0  0  0  0  0  0  0  0  0  0
   37.0560   29.8130   42.7060 C   0  0  0  0  0  0  0  0  0  0  0  0
   36.5200   29.4670   41.4790 C   0  0  0  0  0  0  0  0  0  0  0  0
   35.4890   30.2500   40.9660 C   0  0  0  0  0  0  0  0  0  0  0  0
   35.1130   31.3160   41.7750 C   0  0  0  0  0  0  0  0  0  0  0  0
   35.6700   31.6020   42.9550 N   0  0  0  0  0  0  0  0  0  0  0  0
   33.7940   32.4230   41.2520 S   0  0  0  0  0  0  0  0  0  0  0  0
   40.1020   33.2560   45.9710 C   0  0  0  0  0  0  0  0  0  0  0  0
   39.9560   34.2370   45.0400 F   0  0  0  0  0  0  0  0  0  0  0  0
   41.2940   32.6170   45.6890 F   0  0  0  0  0  0  0  0  0  0  0  0
   40.1680   33.8840   47.2210 F   0  0  0  0  0  0  0  0  0  0  0  0
   35.8988   30.0525   45.9814 H   0  0  0  0  0  0  0  0  0  0  0  0
   37.9092   28.9774   51.2276 H   0  0  0  0  0  0  0  0  0  0  0  0
   38.8073   29.8343   49.0405 H   0  0  0  0  0  0  0  0  0  0  0  0
   34.0163   30.3561   50.1126 H   0  0  0  0  0  0  0  0  0  0  0  0
   37.8693   29.1848   43.0985 H   0  0  0  0  0  0  0  0  0  0  0  0
   36.8980   28.5964   40.9230 H   0  0  0  0  0  0  0  0  0  0  0  0
   35.0103   30.0416   39.9978 H   0  0  0  0  0  0  0  0  0  0  0  0
   33.1718   32.9452   42.3552 H   0  0  0  0  0  0  0  0  0  0  0  0
  1 11  1  0
  2  1  1  0
  3  4  1  0
  3  2  2  0
  4  6  1  0
  5  4  2  0
  6 22  1  0
  6  7  1  0
  7  1  1  0
  7  8  2  0
  9 14  2  0
 10  9  1  0
 11 12  1  0
 11 10  2  0
 12 13  2  0
 13 14  1  0
 15  3  1  0
 16 15  2  0
 17 16  1  0
 18 17  2  0
 18 19  1  0
 19 20  2  0
 20 15  1  0
 21 19  1  0
 22 25  1  0
 23 22  1  0
 24 22  1  0
  2 26  1  0
  9 27  1  0
 10 28  1  0
 13 29  1  0
 16 30  1  0
 17 31  1  0
 18 32  1  0
 21 33  1  0
M  ISO  8  26  14  27  14  28  14  29  14  30  14  31  14  32  14  33  11
M  END
>  <minimizedAffinity>  (1) 
-6.14792824

>  <minimizedRMSD>  (1) 
0.0437717065

$$$$
