
     RDKit          3D

 27 28  0  0  0  0  0  0  0  0999 V2000
   36.7500   31.1830   49.0850 C   0  0  0  0  0  0  0  0  0  0  0  0
   37.1940   32.2280   49.8950 C   0  0  0  0  0  0  0  0  0  0  0  0
   38.1570   33.1100   49.3710 C   0  0  0  0  0  0  0  0  0  0  0  0
   38.5980   32.8810   48.0890 N   0  0  0  0  0  0  0  0  0  0  0  0
   38.1380   31.8610   47.3520 C   0  0  0  0  0  0  0  0  0  0  0  0
   37.2260   31.0200   47.8380 N   0  0  0  0  0  0  0  0  0  0  0  0
   38.6660   31.7210   46.0380 N   0  0  0  0  0  0  0  0  0  0  0  0
   39.8520   30.9130   45.8240 C   0  0  0  0  0  0  0  0  0  0  0  0
   40.8160   31.5740   44.8680 C   0  0  0  0  0  0  0  0  0  0  0  0
   40.1670   32.0980   43.7030 N   0  0  0  0  0  0  0  0  0  0  0  0
   38.7560   31.8650   43.6470 C   0  0  0  0  0  0  0  0  0  0  0  0
   38.0380   32.3760   44.8860 C   0  0  0  0  0  0  0  0  0  0  0  0
   35.7260   30.2440   49.6370 C   0  0  0  0  0  0  0  0  0  0  0  0
   34.4900   30.8840   49.7050 F   0  0  0  0  0  0  0  0  0  0  0  0
   35.7300   29.1160   48.8800 F   0  0  0  0  0  0  0  0  0  0  0  0
   36.0930   29.9750   50.9600 F   0  0  0  0  0  0  0  0  0  0  0  0
   36.8024   32.3589   50.9146 H   0  0  0  0  0  0  0  0  0  0  0  0
   38.5428   33.9516   49.9650 H   0  0  0  0  0  0  0  0  0  0  0  0
   40.3569   30.7591   46.7891 H   0  0  0  0  0  0  0  0  0  0  0  0
   39.5381   29.9546   45.3848 H   0  0  0  0  0  0  0  0  0  0  0  0
   41.3202   32.3997   45.3914 H   0  0  0  0  0  0  0  0  0  0  0  0
   41.5308   30.8076   44.5339 H   0  0  0  0  0  0  0  0  0  0  0  0
   40.3251   33.1155   43.6783 H   0  0  0  0  0  0  0  0  0  0  0  0
   38.3473   32.3784   42.7641 H   0  0  0  0  0  0  0  0  0  0  0  0
   38.5961   30.7782   43.5891 H   0  0  0  0  0  0  0  0  0  0  0  0
   38.1478   33.4677   44.9644 H   0  0  0  0  0  0  0  0  0  0  0  0
   36.9623   32.1505   44.8409 H   0  0  0  0  0  0  0  0  0  0  0  0
  1 13  1  0
  1  2  2  0
  3  2  1  0
  4  3  2  0
  5  6  2  0
  5  4  1  0
  6  1  1  0
  7  5  1  0
  8  7  1  0
  9  8  1  0
 10  9  1  0
 11 10  1  0
 11 12  1  0
 12  7  1  0
 13 14  1  0
 13 16  1  0
 15 13  1  0
  2 17  1  0
  3 18  1  0
  8 19  1  0
  8 20  1  0
  9 21  1  0
  9 22  1  0
 10 23  1  0
 11 24  1  0
 11 25  1  0
 12 26  1  0
 12 27  1  0
M  ISO  8  17  14  18  14  19  13  20  13  21  13  22  13  23   5  24  13
M  ISO  3  25  13  26  13  27  13
M  END
>  <minimizedAffinity>  (1) 
-5.81806087

>  <minimizedRMSD>  (1) 
2.94758654

$$$$
