
     RDKit          3D

 33 34  0  0  1  0  0  0  0  0999 V2000
   37.5360   30.9460   49.6180 C   0  0  0  0  0  0  0  0  0  0  0  0
   37.4540   32.2950   49.9630 C   0  0  0  0  0  0  0  0  0  0  0  0
   37.9060   33.2450   49.0380 C   0  0  0  0  0  0  0  0  0  0  0  0
   38.4040   32.7900   47.8410 N   0  0  0  0  0  0  0  0  0  0  0  0
   38.4640   31.4830   47.5520 C   0  0  0  0  0  0  0  0  0  0  0  0
   38.0370   30.5800   48.4290 N   0  0  0  0  0  0  0  0  0  0  0  0
   38.9960   31.1230   46.2940 N   0  0  0  0  0  0  0  0  0  0  0  0
   40.4110   30.8800   46.1460 C   0  0  0  0  0  0  0  0  0  0  0  0
   40.9800   31.4930   44.8850 C   0  0  0  0  0  0  0  0  0  0  0  0
   40.1580   31.2260   43.7390 N   0  0  0  0  0  0  0  0  0  0  0  0
   39.0120   30.4170   43.9920 C   0  0  0  0  0  0  0  0  0  0  0  0
   38.1520   30.9850   45.1060 C   0  0  2  0  0  0  0  0  0  0  0  0
   37.0560   29.9320   50.6020 C   0  0  0  0  0  0  0  0  0  0  0  0
   35.6730   29.9570   50.6690 F   0  0  0  0  0  0  0  0  0  0  0  0
   37.5790   28.7200   50.2460 F   0  0  0  0  0  0  0  0  0  0  0  0
   37.5340   30.3290   51.8570 F   0  0  0  0  0  0  0  0  0  0  0  0
   37.6590   32.3670   44.7510 C   0  0  0  0  0  0  0  0  0  0  0  0
   36.8330   32.3800   43.4960 C   0  0  0  0  0  0  0  0  0  0  0  0
   37.0451   32.6048   50.9360 H   0  0  0  0  0  0  0  0  0  0  0  0
   37.8636   34.3209   49.2628 H   0  0  0  0  0  0  0  0  0  0  0  0
   40.9344   31.3092   47.0131 H   0  0  0  0  0  0  0  0  0  0  0  0
   40.5562   29.7916   46.0811 H   0  0  0  0  0  0  0  0  0  0  0  0
   41.0553   32.5818   45.0221 H   0  0  0  0  0  0  0  0  0  0  0  0
   41.9686   31.0452   44.7057 H   0  0  0  0  0  0  0  0  0  0  0  0
   40.7377   30.7469   43.0352 H   0  0  0  0  0  0  0  0  0  0  0  0
   38.4097   30.3567   43.0735 H   0  0  0  0  0  0  0  0  0  0  0  0
   39.3602   29.4215   44.3045 H   0  0  0  0  0  0  0  0  0  0  0  0
   37.2937   30.3172   45.2716 H   0  0  0  0  0  0  0  0  0  0  0  0
   37.0449   32.7462   45.5811 H   0  0  0  0  0  0  0  0  0  0  0  0
   38.5407   33.0012   44.5767 H   0  0  0  0  0  0  0  0  0  0  0  0
   35.7653   32.3968   43.7600 H   0  0  0  0  0  0  0  0  0  0  0  0
   37.0786   33.2744   42.9046 H   0  0  0  0  0  0  0  0  0  0  0  0
   37.0504   31.4783   42.9046 H   0  0  0  0  0  0  0  0  0  0  0  0
  1  2  2  0
  1 13  1  0
  3  2  1  0
  4  3  2  0
  5  4  1  0
  5  6  2  0
  6  1  1  0
  7  5  1  0
  8  7  1  0
  9  8  1  0
 10 11  1  0
 10  9  1  0
 11 12  1  0
 12  7  1  0
 13 14  1  0
 13 16  1  0
 15 13  1  0
 17 12  1  0
 18 17  1  0
  2 19  1  0
  3 20  1  0
  8 21  1  0
  8 22  1  0
  9 23  1  0
  9 24  1  0
 10 25  1  0
 11 26  1  0
 11 27  1  0
 12 28  1  1
 17 29  1  0
 17 30  1  0
 18 31  1  0
 18 32  1  0
 18 33  1  0
M  ISO  8  19  14  20  14  21  13  22  13  23  13  24  13  25   5  26  13
M  ISO  7  27  13  28  13  29   8  30   8  31   8  32   8  33   8
M  END
>  <minimizedAffinity>  (1) 
-5.51459265

>  <minimizedRMSD>  (1) 
1.51313257

$$$$
