
     RDKit          3D

 40 42  0  0  1  0  0  0  0  0999 V2000
   35.1790   29.8110   46.8670 C   0  0  0  0  0  0  0  0  0  0  0  0
   35.2180   30.4050   48.2530 C   0  0  0  0  0  0  0  0  0  0  0  0
   36.5030   30.9810   48.4570 N   0  0  0  0  0  0  0  0  0  0  0  0
   36.5860   31.8610   49.5880 C   0  0  0  0  0  0  0  0  0  0  0  0
   37.0310   31.2570   50.8750 C   0  0  0  0  0  0  0  0  0  0  0  0
   38.1130   30.3210   50.7300 N   0  0  0  0  0  0  0  0  0  0  0  0
   37.7040   29.3390   49.6940 C   0  0  0  0  0  0  0  0  0  0  0  0
   37.6300   30.1440   48.4140 C   0  0  2  0  0  0  0  0  0  0  0  0
   38.8090   30.9960   48.4510 N   0  0  0  0  0  0  0  0  0  0  0  0
   36.2060   30.7700   45.6900 S   0  0  0  0  0  0  0  0  0  0  0  0
   37.8700   29.8490   43.5870 C   0  0  2  0  0  0  0  0  0  0  0  0
   36.6400   30.2330   42.9040 C   0  0  0  0  0  0  0  0  0  0  0  0
   36.5340   29.6980   44.2750 C   0  0  2  0  0  0  0  0  0  0  0  0
   39.6310   33.0650   44.2690 C   0  0  0  0  0  0  0  0  0  0  0  0
   40.5460   32.6610   45.2570 C   0  0  0  0  0  0  0  0  0  0  0  0
   40.5470   31.2810   45.6870 C   0  0  0  0  0  0  0  0  0  0  0  0
   39.6470   30.4570   45.0970 N   0  0  0  0  0  0  0  0  0  0  0  0
   38.7860   30.8760   44.1570 C   0  0  0  0  0  0  0  0  0  0  0  0
   38.7550   32.1710   43.7240 N   0  0  0  0  0  0  0  0  0  0  0  0
   35.5566   28.7787   46.9107 H   0  0  0  0  0  0  0  0  0  0  0  0
   34.1379   29.8350   46.5126 H   0  0  0  0  0  0  0  0  0  0  0  0
   34.4437   31.1806   48.3470 H   0  0  0  0  0  0  0  0  0  0  0  0
   35.0291   29.6246   49.0049 H   0  0  0  0  0  0  0  0  0  0  0  0
   37.2939   32.6638   49.3343 H   0  0  0  0  0  0  0  0  0  0  0  0
   35.5544   32.1977   49.7683 H   0  0  0  0  0  0  0  0  0  0  0  0
   37.3592   32.0665   51.5436 H   0  0  0  0  0  0  0  0  0  0  0  0
   36.1748   30.6986   51.2814 H   0  0  0  0  0  0  0  0  0  0  0  0
   38.9681   30.8125   50.4331 H   0  0  0  0  0  0  0  0  0  0  0  0
   38.4496   28.5352   49.6048 H   0  0  0  0  0  0  0  0  0  0  0  0
   36.7485   28.8506   49.9358 H   0  0  0  0  0  0  0  0  0  0  0  0
   37.5739   29.5017   47.5228 H   0  0  0  0  0  0  0  0  0  0  0  0
   39.0672   31.1826   49.4305 H   0  0  0  0  0  0  0  0  0  0  0  0
   39.5898   30.5226   47.9743 H   0  0  0  0  0  0  0  0  0  0  0  0
   38.7143   29.2021   43.3064 H   0  0  0  0  0  0  0  0  0  0  0  0
   36.4304   31.2965   42.7168 H   0  0  0  0  0  0  0  0  0  0  0  0
   36.1835   29.9651   41.9397 H   0  0  0  0  0  0  0  0  0  0  0  0
   35.9427   28.8917   44.7336 H   0  0  0  0  0  0  0  0  0  0  0  0
   39.6208   34.1120   43.9317 H   0  0  0  0  0  0  0  0  0  0  0  0
   41.2499   33.3835   45.6958 H   0  0  0  0  0  0  0  0  0  0  0  0
   41.2444   30.9171   46.4559 H   0  0  0  0  0  0  0  0  0  0  0  0
  1  2  1  0
  2  3  1  0
  3  4  1  0
  4  5  1  0
  6  5  1  0
  7  6  1  0
  8  9  1  0
  8  3  1  0
  8  7  1  0
 10  1  1  0
 11 18  1  0
 11 13  1  0
 12 11  1  0
 12 13  1  0
 13 10  1  0
 14 15  2  0
 15 16  1  0
 17 16  2  0
 18 17  1  0
 19 18  2  0
 19 14  1  0
  1 20  1  0
  1 21  1  0
  2 22  1  0
  2 23  1  0
  4 24  1  0
  4 25  1  0
  5 26  1  0
  5 27  1  0
  6 28  1  0
  7 29  1  0
  7 30  1  0
  8 31  1  6
  9 32  1  0
  9 33  1  0
 11 34  1  6
 12 35  1  0
 12 36  1  0
 13 37  1  6
 14 38  1  0
 15 39  1  0
 16 40  1  0
M  ISO  8  20   8  21   8  22   8  23   8  24  13  25  13  26  13  27  13
M  ISO  8  28   5  29  13  30  13  31  13  32   5  33   5  34  13  35  13
M  ISO  5  36  13  37  13  38  14  39  14  40  14
M  END
>  <minimizedAffinity>  (1) 
-4.12302303

>  <minimizedRMSD>  (1) 
0.203803629

$$$$
