
     RDKit          3D

 32 34  0  0  0  0  0  0  0  0999 V2000
   36.4090   30.5360   46.6010 C   0  0  0  0  0  0  0  0  0  0  0  0
   35.1280   30.0320   46.5320 C   0  0  0  0  0  0  0  0  0  0  0  0
   34.5670   29.7420   45.2980 C   0  0  0  0  0  0  0  0  0  0  0  0
   35.2300   29.9340   44.1070 C   0  0  0  0  0  0  0  0  0  0  0  0
   36.5080   30.4380   44.1730 C   0  0  0  0  0  0  0  0  0  0  0  0
   37.0690   30.7270   45.3990 C   0  0  0  0  0  0  0  0  0  0  0  0
   37.4050   30.2940   50.1120 C   0  0  0  0  0  0  0  0  0  0  0  0
   38.1920   31.4450   50.2930 C   0  0  0  0  0  0  0  0  0  0  0  0
   38.3690   32.2950   49.1930 C   0  0  0  0  0  0  0  0  0  0  0  0
   37.7680   31.9430   48.0340 N   0  0  0  0  0  0  0  0  0  0  0  0
   37.0230   30.8420   47.8830 C   0  0  0  0  0  0  0  0  0  0  0  0
   36.8490   30.0270   48.9280 N   0  0  0  0  0  0  0  0  0  0  0  0
   37.2250   29.3970   51.3000 C   0  0  0  0  0  0  0  0  0  0  0  0
   35.8610   29.1510   51.4740 F   0  0  0  0  0  0  0  0  0  0  0  0
   37.9370   28.2660   51.0830 F   0  0  0  0  0  0  0  0  0  0  0  0
   37.6390   30.0800   52.4230 F   0  0  0  0  0  0  0  0  0  0  0  0
   38.4140   31.2650   45.3260 C   0  0  0  0  0  0  0  0  0  0  0  0
   39.6110   30.6110   45.5580 C   0  0  0  0  0  0  0  0  0  0  0  0
   40.8210   31.2530   45.4430 C   0  0  0  0  0  0  0  0  0  0  0  0
   40.8380   32.5830   45.0880 C   0  0  0  0  0  0  0  0  0  0  0  0
   39.6550   33.2240   44.8600 C   0  0  0  0  0  0  0  0  0  0  0  0
   38.4840   32.5800   44.9780 N   0  0  0  0  0  0  0  0  0  0  0  0
   34.5524   29.8604   47.4536 H   0  0  0  0  0  0  0  0  0  0  0  0
   33.5437   29.3394   45.2691 H   0  0  0  0  0  0  0  0  0  0  0  0
   34.7575   29.6944   43.1430 H   0  0  0  0  0  0  0  0  0  0  0  0
   37.0812   30.6101   43.2500 H   0  0  0  0  0  0  0  0  0  0  0  0
   38.6534   31.6708   51.2657 H   0  0  0  0  0  0  0  0  0  0  0  0
   38.9725   33.2115   49.2693 H   0  0  0  0  0  0  0  0  0  0  0  0
   39.5939   29.5485   45.8422 H   0  0  0  0  0  0  0  0  0  0  0  0
   41.7605   30.7128   45.6316 H   0  0  0  0  0  0  0  0  0  0  0  0
   41.7920   33.1216   44.9895 H   0  0  0  0  0  0  0  0  0  0  0  0
   39.6617   34.2863   44.5747 H   0  0  0  0  0  0  0  0  0  0  0  0
  1 11  1  0
  2  1  2  0
  3  2  1  0
  4  5  1  0
  4  3  2  0
  5  6  2  0
  6  1  1  0
  7  8  2  0
  7 13  1  0
  9  8  1  0
 10  9  2  0
 11 10  1  0
 11 12  2  0
 12  7  1  0
 13 14  1  0
 13 16  1  0
 15 13  1  0
 17  6  1  0
 17 18  2  0
 19 18  1  0
 20 19  2  0
 21 22  2  0
 21 20  1  0
 22 17  1  0
  2 23  1  0
  3 24  1  0
  4 25  1  0
  5 26  1  0
  8 27  1  0
  9 28  1  0
 18 29  1  0
 19 30  1  0
 20 31  1  0
 21 32  1  0
M  ISO  8  23  14  24  14  25  14  26  14  27  14  28  14  29  14  30  14
M  ISO  2  31  14  32  14
M  END
>  <minimizedAffinity>  (1) 
-7.20630121

>  <minimizedRMSD>  (1) 
0.353160083

$$$$
