
     RDKit          3D

 31 33  0  0  0  0  0  0  0  0999 V2000
   36.4820   30.5680   46.5860 C   0  0  0  0  0  0  0  0  0  0  0  0
   35.2220   30.0040   46.4880 C   0  0  0  0  0  0  0  0  0  0  0  0
   34.6670   29.7170   45.2540 C   0  0  0  0  0  0  0  0  0  0  0  0
   35.3230   29.9690   44.0750 C   0  0  0  0  0  0  0  0  0  0  0  0
   36.5940   30.5370   44.1500 C   0  0  0  0  0  0  0  0  0  0  0  0
   37.1170   30.8110   45.3960 C   0  0  0  0  0  0  0  0  0  0  0  0
   37.4190   30.3280   50.1050 C   0  0  0  0  0  0  0  0  0  0  0  0
   38.1910   31.4690   50.3030 C   0  0  0  0  0  0  0  0  0  0  0  0
   38.3850   32.3180   49.2120 C   0  0  0  0  0  0  0  0  0  0  0  0
   37.8080   31.9700   48.0390 N   0  0  0  0  0  0  0  0  0  0  0  0
   37.0710   30.8660   47.8760 C   0  0  0  0  0  0  0  0  0  0  0  0
   36.8830   30.0520   48.9170 N   0  0  0  0  0  0  0  0  0  0  0  0
   37.2150   29.4170   51.2920 C   0  0  0  0  0  0  0  0  0  0  0  0
   35.8590   29.1560   51.4500 F   0  0  0  0  0  0  0  0  0  0  0  0
   37.9270   28.2720   51.0630 F   0  0  0  0  0  0  0  0  0  0  0  0
   37.6390   30.0850   52.4190 F   0  0  0  0  0  0  0  0  0  0  0  0
   38.4380   31.4160   45.2970 C   0  0  0  0  0  0  0  0  0  0  0  0
   39.5340   30.5930   45.4710 C   0  0  0  0  0  0  0  0  0  0  0  0
   40.8070   31.1640   45.3780 C   0  0  0  0  0  0  0  0  0  0  0  0
   41.0070   32.4630   45.1320 N   0  0  0  0  0  0  0  0  0  0  0  0
   39.9130   33.2430   44.9690 C   0  0  0  0  0  0  0  0  0  0  0  0
   38.6440   32.7410   45.0470 N   0  0  0  0  0  0  0  0  0  0  0  0
   34.6544   29.7810   47.4035 H   0  0  0  0  0  0  0  0  0  0  0  0
   33.6625   29.2702   45.2161 H   0  0  0  0  0  0  0  0  0  0  0  0
   34.8621   29.7311   43.1050 H   0  0  0  0  0  0  0  0  0  0  0  0
   37.1657   30.7611   43.2373 H   0  0  0  0  0  0  0  0  0  0  0  0
   38.6329   31.6939   51.2849 H   0  0  0  0  0  0  0  0  0  0  0  0
   38.9847   33.2357   49.3027 H   0  0  0  0  0  0  0  0  0  0  0  0
   39.4088   29.5197   45.6767 H   0  0  0  0  0  0  0  0  0  0  0  0
   41.6844   30.5146   45.5135 H   0  0  0  0  0  0  0  0  0  0  0  0
   40.0495   34.3157   44.7672 H   0  0  0  0  0  0  0  0  0  0  0  0
  1 11  1  0
  2  1  2  0
  3  2  1  0
  4  5  1  0
  4  3  2  0
  5  6  2  0
  6  1  1  0
  7  8  2  0
  7 13  1  0
  9  8  1  0
 10  9  2  0
 11 10  1  0
 11 12  2  0
 12  7  1  0
 13 14  1  0
 13 16  1  0
 15 13  1  0
 17  6  1  0
 17 18  2  0
 19 18  1  0
 20 19  2  0
 21 22  2  0
 21 20  1  0
 22 17  1  0
  2 23  1  0
  3 24  1  0
  4 25  1  0
  5 26  1  0
  8 27  1  0
  9 28  1  0
 18 29  1  0
 19 30  1  0
 21 31  1  0
M  ISO  8  23  14  24  14  25  14  26  14  27  14  28  14  29  14  30  14
M  ISO  1  31  14
M  END
>  <minimizedAffinity>  (1) 
-7.01359797

>  <minimizedRMSD>  (1) 
0.400292337

$$$$
