
     RDKit          3D

 26 27  0  0  0  0  0  0  0  0999 V2000
   37.6430   30.6860   49.7700 C   0  0  0  0  0  0  0  0  0  0  0  0
   38.0480   31.9600   50.1630 C   0  0  0  0  0  0  0  0  0  0  0  0
   38.4070   32.8610   49.1440 C   0  0  0  0  0  0  0  0  0  0  0  0
   38.3320   32.4250   47.8610 N   0  0  0  0  0  0  0  0  0  0  0  0
   37.9310   31.1730   47.5280 C   0  0  0  0  0  0  0  0  0  0  0  0
   37.5900   30.3140   48.4810 N   0  0  0  0  0  0  0  0  0  0  0  0
   37.8860   30.8050   46.1220 C   0  0  0  0  0  0  0  0  0  0  0  0
   36.6660   30.5090   45.5320 C   0  0  0  0  0  0  0  0  0  0  0  0
   36.6230   30.1600   44.1910 C   0  0  0  0  0  0  0  0  0  0  0  0
   37.7630   30.0900   43.3960 C   0  0  0  0  0  0  0  0  0  0  0  0
   38.9650   30.3860   43.9880 C   0  0  0  0  0  0  0  0  0  0  0  0
   38.9970   30.7320   45.3210 C   0  0  0  0  0  0  0  0  0  0  0  0
   40.3340   31.0370   45.8910 C   0  0  0  0  0  0  0  0  0  0  0  0
   37.2600   29.7270   50.8660 C   0  0  0  0  0  0  0  0  0  0  0  0
   35.8680   29.6040   50.9090 F   0  0  0  0  0  0  0  0  0  0  0  0
   37.8700   28.5460   50.6290 F   0  0  0  0  0  0  0  0  0  0  0  0
   37.6270   30.2910   52.0770 F   0  0  0  0  0  0  0  0  0  0  0  0
   38.0854   32.2486   51.2238 H   0  0  0  0  0  0  0  0  0  0  0  0
   38.7371   33.8836   49.3790 H   0  0  0  0  0  0  0  0  0  0  0  0
   35.7396   30.5509   46.1237 H   0  0  0  0  0  0  0  0  0  0  0  0
   35.6481   29.9290   43.7369 H   0  0  0  0  0  0  0  0  0  0  0  0
   37.7029   29.8084   42.3344 H   0  0  0  0  0  0  0  0  0  0  0  0
   39.8956   30.3473   43.4028 H   0  0  0  0  0  0  0  0  0  0  0  0
   40.2760   31.0238   46.9894 H   0  0  0  0  0  0  0  0  0  0  0  0
   41.0579   30.2809   45.5529 H   0  0  0  0  0  0  0  0  0  0  0  0
   40.6584   32.0322   45.5529 H   0  0  0  0  0  0  0  0  0  0  0  0
  1  2  2  0
  1 14  1  0
  3  2  1  0
  4  3  2  0
  5  4  1  0
  5  6  2  0
  6  1  1  0
  7  5  1  0
  8  7  2  0
  9  8  1  0
 10 11  1  0
 10  9  2  0
 11 12  2  0
 12 13  1  0
 12  7  1  0
 14 15  1  0
 14 17  1  0
 16 14  1  0
  2 18  1  0
  3 19  1  0
  8 20  1  0
  9 21  1  0
 10 22  1  0
 11 23  1  0
 13 24  1  0
 13 25  1  0
 13 26  1  0
M  ISO  8  18  14  19  14  20  14  21  14  22  14  23  14  24   8  25   8
M  ISO  1  26   8
M  END
>  <minimizedAffinity>  (1) 
-5.8110261

>  <minimizedRMSD>  (1) 
1.54364288

$$$$
