
     RDKit          3D

 33 35  0  0  0  0  0  0  0  0999 V2000
   35.7390   30.1340   46.6410 C   0  0  0  0  0  0  0  0  0  0  0  0
   34.5090   29.5200   46.6600 C   0  0  0  0  0  0  0  0  0  0  0  0
   33.9410   29.0850   45.4810 C   0  0  0  0  0  0  0  0  0  0  0  0
   34.5470   29.2340   44.2610 C   0  0  0  0  0  0  0  0  0  0  0  0
   35.7780   29.8450   44.2180 C   0  0  0  0  0  0  0  0  0  0  0  0
   36.3520   30.2840   45.4010 C   0  0  0  0  0  0  0  0  0  0  0  0
   36.5270   32.7180   43.6590 Cl  0  0  0  0  0  0  0  0  0  0  0  0
   37.8900   32.0670   44.5540 C   0  0  0  0  0  0  0  0  0  0  0  0
   37.6580   30.9290   45.3210 C   0  0  0  0  0  0  0  0  0  0  0  0
   38.7550   30.4370   46.0170 C   0  0  0  0  0  0  0  0  0  0  0  0
   40.0310   30.9570   46.0210 C   0  0  0  0  0  0  0  0  0  0  0  0
   40.1900   32.0980   45.2270 C   0  0  0  0  0  0  0  0  0  0  0  0
   41.7850   32.8170   45.1830 Cl  0  0  0  0  0  0  0  0  0  0  0  0
   39.1430   32.6450   44.5070 C   0  0  0  0  0  0  0  0  0  0  0  0
   36.9490   30.2640   50.0970 C   0  0  0  0  0  0  0  0  0  0  0  0
   37.5590   31.5250   50.1710 C   0  0  0  0  0  0  0  0  0  0  0  0
   37.5410   32.3140   49.0200 C   0  0  0  0  0  0  0  0  0  0  0  0
   36.9430   31.8210   47.9130 N   0  0  0  0  0  0  0  0  0  0  0  0
   36.3670   30.6060   47.8740 C   0  0  0  0  0  0  0  0  0  0  0  0
   36.3770   29.8420   48.9680 N   0  0  0  0  0  0  0  0  0  0  0  0
   36.9590   29.3970   51.3360 C   0  0  0  0  0  0  0  0  0  0  0  0
   35.6600   29.0270   51.6440 F   0  0  0  0  0  0  0  0  0  0  0  0
   37.7840   28.3440   51.0990 F   0  0  0  0  0  0  0  0  0  0  0  0
   37.4040   30.2040   52.3850 F   0  0  0  0  0  0  0  0  0  0  0  0
   33.9793   29.3761   47.6132 H   0  0  0  0  0  0  0  0  0  0  0  0
   32.9565   28.5961   45.5218 H   0  0  0  0  0  0  0  0  0  0  0  0
   34.0620   28.8747   43.3414 H   0  0  0  0  0  0  0  0  0  0  0  0
   36.2995   29.9834   43.2594 H   0  0  0  0  0  0  0  0  0  0  0  0
   38.5875   29.5384   46.6289 H   0  0  0  0  0  0  0  0  0  0  0  0
   40.8546   30.5128   46.5993 H   0  0  0  0  0  0  0  0  0  0  0  0
   39.3094   33.5437   43.8949 H   0  0  0  0  0  0  0  0  0  0  0  0
   38.0326   31.8778   51.0990 H   0  0  0  0  0  0  0  0  0  0  0  0
   38.0022   33.3126   49.0140 H   0  0  0  0  0  0  0  0  0  0  0  0
  1  2  2  0
  1 19  1  0
  3  2  1  0
  4  3  2  0
  5  4  1  0
  5  6  2  0
  6  1  1  0
  7  8  1  0
  8  9  2  0
  9  6  1  0
  9 10  1  0
 10 11  2  0
 12 11  1  0
 13 12  1  0
 14  8  1  0
 14 12  2  0
 15 16  2  0
 15 21  1  0
 17 16  1  0
 18 17  2  0
 19 18  1  0
 19 20  2  0
 20 15  1  0
 21 22  1  0
 21 24  1  0
 23 21  1  0
  2 25  1  0
  3 26  1  0
  4 27  1  0
  5 28  1  0
 10 29  1  0
 11 30  1  0
 14 31  1  0
 16 32  1  0
 17 33  1  0
M  ISO  8  25  14  26  14  27  14  28  14  29  14  30  14  31  14  32  14
M  ISO  1  33  14
M  END
>  <minimizedAffinity>  (1) 
-5.71478128

>  <minimizedRMSD>  (1) 
0.760462463

$$$$
