
     RDKit          3D

 24 25  0  0  0  0  0  0  0  0999 V2000
   37.4340   30.2790   50.0500 C   0  0  0  0  0  0  0  0  0  0  0  0
   38.2620   31.3990   50.2110 C   0  0  0  0  0  0  0  0  0  0  0  0
   38.4670   32.2160   49.0930 C   0  0  0  0  0  0  0  0  0  0  0  0
   37.8540   31.8720   47.9340 N   0  0  0  0  0  0  0  0  0  0  0  0
   37.0640   30.7830   47.8170 C   0  0  0  0  0  0  0  0  0  0  0  0
   36.8630   29.9980   48.8800 N   0  0  0  0  0  0  0  0  0  0  0  0
   36.4410   30.4780   46.5420 C   0  0  0  0  0  0  0  0  0  0  0  0
   35.1220   30.0970   46.4680 C   0  0  0  0  0  0  0  0  0  0  0  0
   34.5460   29.8110   45.2480 C   0  0  0  0  0  0  0  0  0  0  0  0
   35.2510   29.8900   44.0520 C   0  0  0  0  0  0  0  0  0  0  0  0
   36.5690   30.2710   44.1170 C   0  0  0  0  0  0  0  0  0  0  0  0
   37.1390   30.5560   45.3420 C   0  0  0  0  0  0  0  0  0  0  0  0
   38.4760   30.9400   45.3900 O   0  0  0  0  0  0  0  0  0  0  0  0
   37.2160   29.4000   51.2570 C   0  0  0  0  0  0  0  0  0  0  0  0
   35.8410   29.1860   51.4120 F   0  0  0  0  0  0  0  0  0  0  0  0
   37.9240   28.2640   51.0860 F   0  0  0  0  0  0  0  0  0  0  0  0
   37.6030   30.1280   52.3790 F   0  0  0  0  0  0  0  0  0  0  0  0
   38.7325   31.6269   51.1788 H   0  0  0  0  0  0  0  0  0  0  0  0
   39.1058   33.1095   49.1531 H   0  0  0  0  0  0  0  0  0  0  0  0
   34.5227   30.0199   47.3872 H   0  0  0  0  0  0  0  0  0  0  0  0
   33.4887   29.5089   45.2199 H   0  0  0  0  0  0  0  0  0  0  0  0
   34.7712   29.6562   43.0901 H   0  0  0  0  0  0  0  0  0  0  0  0
   37.1677   30.3487   43.1975 H   0  0  0  0  0  0  0  0  0  0  0  0
   38.9004   31.1479   46.2599 H   0  0  0  0  0  0  0  0  0  0  0  0
  1  2  2  0
  1 14  1  0
  3  2  1  0
  4  3  2  0
  5  4  1  0
  5  6  2  0
  6  1  1  0
  7  5  1  0
  8  7  2  0
  9  8  1  0
 10 11  1  0
 10  9  2  0
 11 12  2  0
 12 13  1  0
 12  7  1  0
 14 15  1  0
 14 17  1  0
 16 14  1  0
  2 18  1  0
  3 19  1  0
  8 20  1  0
  9 21  1  0
 10 22  1  0
 11 23  1  0
 13 24  1  0
M  ISO  7  18  14  19  14  20  14  21  14  22  14  23  14  24   3
M  END
>  <minimizedAffinity>  (1) 
-5.5019927

>  <minimizedRMSD>  (1) 
0.165839911

$$$$
