
     RDKit          3D

 39 41  0  0  1  0  0  0  0  0999 V2000
   34.9940   29.8530   46.5840 C   0  0  0  0  0  0  0  0  0  0  0  0
   35.5780   29.5300   47.9400 C   0  0  0  0  0  0  0  0  0  0  0  0
   36.3710   30.6290   48.3600 N   0  0  0  0  0  0  0  0  0  0  0  0
   35.8960   31.2930   49.5350 C   0  0  0  0  0  0  0  0  0  0  0  0
   36.4320   30.8300   50.8440 C   0  0  0  0  0  0  0  0  0  0  0  0
   37.8390   30.5050   50.8290 N   0  0  0  0  0  0  0  0  0  0  0  0
   38.0760   29.6140   49.6930 C   0  0  0  0  0  0  0  0  0  0  0  0
   37.7770   30.4580   48.4630 C   0  0  2  0  0  0  0  0  0  0  0  0
   38.3970   32.1120   49.0170 S   0  0  0  0  0  0  0  0  0  0  0  0
   36.2070   30.7560   45.5450 S   0  0  0  0  0  0  0  0  0  0  0  0
   37.9640   29.8340   43.5240 C   0  0  2  0  0  0  0  0  0  0  0  0
   36.7730   30.2210   42.7780 C   0  0  0  0  0  0  0  0  0  0  0  0
   36.5970   29.6880   44.1440 C   0  0  2  0  0  0  0  0  0  0  0  0
   39.7370   33.0350   44.2700 C   0  0  0  0  0  0  0  0  0  0  0  0
   40.5640   32.6310   45.3350 C   0  0  0  0  0  0  0  0  0  0  0  0
   40.4920   31.2800   45.7790 C   0  0  0  0  0  0  0  0  0  0  0  0
   39.6310   30.4400   45.1570 N   0  0  0  0  0  0  0  0  0  0  0  0
   38.8540   30.8700   44.1370 C   0  0  0  0  0  0  0  0  0  0  0  0
   38.8830   32.1550   43.6710 N   0  0  0  0  0  0  0  0  0  0  0  0
   34.7153   28.9160   46.0797 H   0  0  0  0  0  0  0  0  0  0  0  0
   34.1096   30.4915   46.7260 H   0  0  0  0  0  0  0  0  0  0  0  0
   34.7665   29.3598   48.6629 H   0  0  0  0  0  0  0  0  0  0  0  0
   36.1944   28.6210   47.8790 H   0  0  0  0  0  0  0  0  0  0  0  0
   36.1443   32.3599   49.4349 H   0  0  0  0  0  0  0  0  0  0  0  0
   34.8206   31.0648   49.5733 H   0  0  0  0  0  0  0  0  0  0  0  0
   36.2707   31.6278   51.5839 H   0  0  0  0  0  0  0  0  0  0  0  0
   35.8970   29.9016   51.0926 H   0  0  0  0  0  0  0  0  0  0  0  0
   38.3967   31.3645   50.7234 H   0  0  0  0  0  0  0  0  0  0  0  0
   39.1211   29.2709   49.6820 H   0  0  0  0  0  0  0  0  0  0  0  0
   37.4491   28.7112   49.7376 H   0  0  0  0  0  0  0  0  0  0  0  0
   38.1899   30.0446   47.5310 H   0  0  0  0  0  0  0  0  0  0  0  0
   38.4143   32.1581   50.3861 H   0  0  0  0  0  0  0  0  0  0  0  0
   38.8188   29.1823   43.2902 H   0  0  0  0  0  0  0  0  0  0  0  0
   36.5767   31.2848   42.5788 H   0  0  0  0  0  0  0  0  0  0  0  0
   36.3652   29.9535   41.7921 H   0  0  0  0  0  0  0  0  0  0  0  0
   35.9781   28.8855   44.5718 H   0  0  0  0  0  0  0  0  0  0  0  0
   39.7797   34.0754   43.9153 H   0  0  0  0  0  0  0  0  0  0  0  0
   41.2513   33.3438   45.8141 H   0  0  0  0  0  0  0  0  0  0  0  0
   41.1217   30.9265   46.6088 H   0  0  0  0  0  0  0  0  0  0  0  0
  1  2  1  0
  2  3  1  0
  3  8  1  0
  3  4  1  0
  4  5  1  0
  6  5  1  0
  7  6  1  0
  8  9  1  0
  8  7  1  0
 10  1  1  0
 11 18  1  0
 11 13  1  0
 12 11  1  0
 12 13  1  0
 13 10  1  0
 14 15  2  0
 15 16  1  0
 17 16  2  0
 18 17  1  0
 19 18  2  0
 19 14  1  0
  1 20  1  0
  1 21  1  0
  2 22  1  0
  2 23  1  0
  4 24  1  0
  4 25  1  0
  5 26  1  0
  5 27  1  0
  6 28  1  0
  7 29  1  0
  7 30  1  0
  8 31  1  6
  9 32  1  0
 11 33  1  6
 12 34  1  0
 12 35  1  0
 13 36  1  6
 14 37  1  0
 15 38  1  0
 16 39  1  0
M  ISO  8  20   8  21   8  22   8  23   8  24  13  25  13  26  13  27  13
M  ISO  8  28   5  29  13  30  13  31  13  32  11  33  13  34  13  35  13
M  ISO  4  36  13  37  14  38  14  39  14
M  END
>  <minimizedAffinity>  (1) 
-3.71843553

>  <minimizedRMSD>  (1) 
0.587850928

$$$$
