
     RDKit          3D

 40 42  0  0  0  0  0  0  0  0999 V2000
   36.0750   30.4220   46.5970 C   0  0  0  0  0  0  0  0  0  0  0  0
   34.7580   29.9670   46.6300 C   0  0  0  0  0  0  0  0  0  0  0  0
   34.1190   29.6510   45.4510 C   0  0  0  0  0  0  0  0  0  0  0  0
   34.7080   29.7580   44.2180 C   0  0  0  0  0  0  0  0  0  0  0  0
   36.0270   30.2130   44.1740 C   0  0  0  0  0  0  0  0  0  0  0  0
   36.6510   30.5260   45.3700 C   0  0  0  0  0  0  0  0  0  0  0  0
   37.9810   30.9700   45.1340 N   0  0  0  0  0  0  0  0  0  0  0  0
   39.3060   30.4260   45.1500 C   0  0  0  0  0  0  0  0  0  0  0  0
   40.1390   31.2800   46.0730 C   0  0  0  0  0  0  0  0  0  0  0  0
   40.3200   32.5730   45.4510 N   0  0  0  0  0  0  0  0  0  0  0  0
   39.3270   32.8950   44.4880 C   0  0  0  0  0  0  0  0  0  0  0  0
   37.9650   32.3540   44.7770 C   0  0  0  0  0  0  0  0  0  0  0  0
   37.3100   30.2810   50.0300 C   0  0  0  0  0  0  0  0  0  0  0  0
   38.0750   31.4590   50.1310 C   0  0  0  0  0  0  0  0  0  0  0  0
   38.1480   32.2780   49.0040 C   0  0  0  0  0  0  0  0  0  0  0  0
   37.4760   31.8710   47.9010 N   0  0  0  0  0  0  0  0  0  0  0  0
   36.7600   30.7600   47.8190 C   0  0  0  0  0  0  0  0  0  0  0  0
   36.6740   29.9530   48.8950 N   0  0  0  0  0  0  0  0  0  0  0  0
   37.2350   29.4080   51.2570 C   0  0  0  0  0  0  0  0  0  0  0  0
   35.8840   29.1370   51.5190 F   0  0  0  0  0  0  0  0  0  0  0  0
   37.9360   28.2910   51.0350 F   0  0  0  0  0  0  0  0  0  0  0  0
   37.6940   30.1440   52.3300 F   0  0  0  0  0  0  0  0  0  0  0  0
   38.9410   33.5100   49.0870 C   0  0  0  0  0  0  0  0  0  0  0  0
   34.2325   29.8610   47.5905 H   0  0  0  0  0  0  0  0  0  0  0  0
   33.0800   29.2935   45.5020 H   0  0  0  0  0  0  0  0  0  0  0  0
   34.1628   29.4957   43.2993 H   0  0  0  0  0  0  0  0  0  0  0  0
   36.5562   30.3200   43.2156 H   0  0  0  0  0  0  0  0  0  0  0  0
   39.2815   29.3897   45.5181 H   0  0  0  0  0  0  0  0  0  0  0  0
   39.7339   30.4218   44.1367 H   0  0  0  0  0  0  0  0  0  0  0  0
   39.6228   31.3994   47.0370 H   0  0  0  0  0  0  0  0  0  0  0  0
   41.1146   30.8050   46.2533 H   0  0  0  0  0  0  0  0  0  0  0  0
   40.3017   33.2923   46.1880 H   0  0  0  0  0  0  0  0  0  0  0  0
   39.6529   32.4962   43.5160 H   0  0  0  0  0  0  0  0  0  0  0  0
   39.2307   33.9907   44.5019 H   0  0  0  0  0  0  0  0  0  0  0  0
   37.5293   32.9262   45.6093 H   0  0  0  0  0  0  0  0  0  0  0  0
   37.3691   32.4511   43.8575 H   0  0  0  0  0  0  0  0  0  0  0  0
   38.5954   31.7234   51.0634 H   0  0  0  0  0  0  0  0  0  0  0  0
   39.1074   33.7685   50.1432 H   0  0  0  0  0  0  0  0  0  0  0  0
   39.9102   33.3564   48.5900 H   0  0  0  0  0  0  0  0  0  0  0  0
   38.3998   34.3286   48.5900 H   0  0  0  0  0  0  0  0  0  0  0  0
  1  2  2  0
  1 17  1  0
  3  2  1  0
  4  3  2  0
  5  4  1  0
  5  6  2  0
  6  1  1  0
  7  8  1  0
  7  6  1  0
  8  9  1  0
 10  9  1  0
 11 12  1  0
 11 10  1  0
 12  7  1  0
 13 14  2  0
 13 19  1  0
 15 23  1  0
 15 14  1  0
 16 15  2  0
 17 16  1  0
 17 18  2  0
 18 13  1  0
 19 20  1  0
 19 22  1  0
 21 19  1  0
  2 24  1  0
  3 25  1  0
  4 26  1  0
  5 27  1  0
  8 28  1  0
  8 29  1  0
  9 30  1  0
  9 31  1  0
 10 32  1  0
 11 33  1  0
 11 34  1  0
 12 35  1  0
 12 36  1  0
 14 37  1  0
 23 38  1  0
 23 39  1  0
 23 40  1  0
M  ISO  8  24  14  25  14  26  14  27  14  28  13  29  13  30  13  31  13
M  ISO  8  32   5  33  13  34  13  35  13  36  13  37  14  38   8  39   8
M  ISO  1  40   8
M  END
>  <minimizedAffinity>  (1) 
-7.21034527

>  <minimizedRMSD>  (1) 
0.139244005

$$$$
