
     RDKit          3D

 11 11  0  0  0  0  0  0  0  0999 V2000
   37.3670   30.2110   51.3500 C   0  0  0  0  0  0  0  0  0  0  0  0
   38.0130   30.7090   50.2090 C   0  0  0  0  0  0  0  0  0  0  0  0
   37.4940   30.3550   48.9650 C   0  0  0  0  0  0  0  0  0  0  0  0
   36.3950   29.5510   48.9280 N   0  0  0  0  0  0  0  0  0  0  0  0
   35.8020   29.0920   50.0430 C   0  0  0  0  0  0  0  0  0  0  0  0
   36.2870   29.4210   51.2570 N   0  0  0  0  0  0  0  0  0  0  0  0
   38.1820   30.8950   47.4060 S   0  0  0  0  0  0  0  0  0  0  0  0
   37.7553   30.4746   52.3449 H   0  0  0  0  0  0  0  0  0  0  0  0
   38.8984   31.3564   50.2931 H   0  0  0  0  0  0  0  0  0  0  0  0
   34.9162   28.4445   49.9648 H   0  0  0  0  0  0  0  0  0  0  0  0
   39.2439   31.7285   47.6397 H   0  0  0  0  0  0  0  0  0  0  0  0
  2  1  2  0
  3  2  1  0
  4  3  2  0
  4  5  1  0
  5  6  2  0
  6  1  1  0
  7  3  1  0
  1  8  1  0
  2  9  1  0
  5 10  1  0
  7 11  1  0
M  ISO  4   8  14   9  14  10  14  11  11
M  END
>  <minimizedAffinity>  (1) 
-3.15195775

>  <minimizedRMSD>  (1) 
0.198761567

$$$$
