
     RDKit          3D

 53 57  0  0  0  0  0  0  0  0999 V2000
   33.2820   29.7500   44.9350 C   0  0  0  0  0  0  0  0  0  0  0  0
   32.9030   30.9380   44.3250 C   0  0  0  0  0  0  0  0  0  0  0  0
   32.0930   30.8930   43.2020 C   0  0  0  0  0  0  0  0  0  0  0  0
   31.6310   29.7290   42.6420 C   0  0  0  0  0  0  0  0  0  0  0  0
   32.0070   28.5450   43.2500 C   0  0  0  0  0  0  0  0  0  0  0  0
   32.8170   28.6070   44.3700 C   0  0  0  0  0  0  0  0  0  0  0  0
   33.1010   27.2970   44.8560 N   0  0  0  0  0  0  0  0  0  0  0  0
   32.5600   26.3660   45.8010 C   0  0  0  0  0  0  0  0  0  0  0  0
   33.6760   25.9870   46.7460 C   0  0  0  0  0  0  0  0  0  0  0  0
   34.6300   25.1840   46.0190 N   0  0  0  0  0  0  0  0  0  0  0  0
   34.6180   25.3950   44.6130 C   0  0  0  0  0  0  0  0  0  0  0  0
   34.2690   26.7820   44.1820 C   0  0  0  0  0  0  0  0  0  0  0  0
   34.4940   29.3480   48.3600 C   0  0  0  0  0  0  0  0  0  0  0  0
   35.7830   29.8770   48.2820 C   0  0  0  0  0  0  0  0  0  0  0  0
   36.2370   30.3670   47.0600 C   0  0  0  0  0  0  0  0  0  0  0  0
   35.3470   30.2800   46.0240 N   0  0  0  0  0  0  0  0  0  0  0  0
   34.1250   29.7770   46.0990 C   0  0  0  0  0  0  0  0  0  0  0  0
   33.7120   29.3110   47.2890 N   0  0  0  0  0  0  0  0  0  0  0  0
   37.4900   31.0180   46.7590 C   0  0  0  0  0  0  0  0  0  0  0  0
   38.1640   30.5600   45.6300 C   0  0  0  0  0  0  0  0  0  0  0  0
   39.3730   31.0390   45.1810 C   0  0  0  0  0  0  0  0  0  0  0  0
   39.9920   32.0490   45.8800 C   0  0  0  0  0  0  0  0  0  0  0  0
   39.3820   32.5470   47.0090 C   0  0  0  0  0  0  0  0  0  0  0  0
   39.9880   33.5320   47.7550 C   0  0  0  0  0  0  0  0  0  0  0  0
   39.4250   34.0370   48.9260 C   0  0  0  0  0  0  0  0  0  0  0  0
   38.1970   33.4780   49.3040 C   0  0  0  0  0  0  0  0  0  0  0  0
   37.6210   32.4960   48.5320 C   0  0  0  0  0  0  0  0  0  0  0  0
   38.1800   32.0080   47.3810 C   0  0  0  0  0  0  0  0  0  0  0  0
   34.0430   28.8330   49.6990 C   0  0  0  0  0  0  0  0  0  0  0  0
   32.7680   28.2560   49.5380 F   0  0  0  0  0  0  0  0  0  0  0  0
   34.9340   27.9410   50.1480 F   0  0  0  0  0  0  0  0  0  0  0  0
   33.8740   29.9060   50.5380 F   0  0  0  0  0  0  0  0  0  0  0  0
   33.2418   31.9036   44.7285 H   0  0  0  0  0  0  0  0  0  0  0  0
   31.8038   31.8449   42.7326 H   0  0  0  0  0  0  0  0  0  0  0  0
   30.9895   29.7370   41.7484 H   0  0  0  0  0  0  0  0  0  0  0  0
   31.6699   27.5764   42.8523 H   0  0  0  0  0  0  0  0  0  0  0  0
   31.7355   26.8328   46.3598 H   0  0  0  0  0  0  0  0  0  0  0  0
   32.1638   25.4767   45.2890 H   0  0  0  0  0  0  0  0  0  0  0  0
   34.1667   26.8952   47.1259 H   0  0  0  0  0  0  0  0  0  0  0  0
   33.2750   25.4206   47.5995 H   0  0  0  0  0  0  0  0  0  0  0  0
   35.5726   25.4048   46.3707 H   0  0  0  0  0  0  0  0  0  0  0  0
   35.6200   25.1598   44.2248 H   0  0  0  0  0  0  0  0  0  0  0  0
   33.8280   24.7426   44.2127 H   0  0  0  0  0  0  0  0  0  0  0  0
   35.1209   27.4430   44.3994 H   0  0  0  0  0  0  0  0  0  0  0  0
   34.0443   26.7491   43.1057 H   0  0  0  0  0  0  0  0  0  0  0  0
   36.4299   29.9065   49.1712 H   0  0  0  0  0  0  0  0  0  0  0  0
   37.6928   29.7517   45.0516 H   0  0  0  0  0  0  0  0  0  0  0  0
   39.8378   30.6204   44.2762 H   0  0  0  0  0  0  0  0  0  0  0  0
   40.9583   32.4520   45.5425 H   0  0  0  0  0  0  0  0  0  0  0  0
   40.9528   33.9360   47.4145 H   0  0  0  0  0  0  0  0  0  0  0  0
   39.9144   34.8254   49.5166 H   0  0  0  0  0  0  0  0  0  0  0  0
   37.6934   33.8246   50.2185 H   0  0  0  0  0  0  0  0  0  0  0  0
   36.6566   32.0790   48.8577 H   0  0  0  0  0  0  0  0  0  0  0  0
  1 17  1  0
  2  1  2  0
  3  2  1  0
  4  3  2  0
  4  5  1  0
  5  6  2  0
  6  7  1  0
  6  1  1  0
  7  8  1  0
  8  9  1  0
 10  9  1  0
 11 10  1  0
 12 11  1  0
 12  7  1  0
 13 29  1  0
 14 13  2  0
 15 14  1  0
 16 17  1  0
 16 15  2  0
 17 18  2  0
 18 13  1  0
 19 15  1  0
 19 28  1  0
 20 19  2  0
 21 20  1  0
 21 22  2  0
 22 23  1  0
 23 28  2  0
 23 24  1  0
 24 25  2  0
 25 26  1  0
 27 26  2  0
 28 27  1  0
 29 31  1  0
 29 32  1  0
 30 29  1  0
  2 33  1  0
  3 34  1  0
  4 35  1  0
  5 36  1  0
  8 37  1  0
  8 38  1  0
  9 39  1  0
  9 40  1  0
 10 41  1  0
 11 42  1  0
 11 43  1  0
 12 44  1  0
 12 45  1  0
 14 46  1  0
 20 47  1  0
 21 48  1  0
 22 49  1  0
 24 50  1  0
 25 51  1  0
 26 52  1  0
 27 53  1  0
M  ISO  8  33  14  34  14  35  14  36  14  37  13  38  13  39  13  40  13
M  ISO  8  41   5  42  13  43  13  44  13  45  13  46  14  47  14  48  14
M  ISO  5  49  14  50  14  51  14  52  14  53  14
M  END
>  <minimizedAffinity>  (1) 
-6.61928988

>  <minimizedRMSD>  (1) 
4.77856112

$$$$
