
     RDKit          3D

 24 25  0  0  0  0  0  0  0  0999 V2000
   34.4740   30.4450   49.7400 O   0  0  0  0  0  0  0  0  0  0  0  0
   35.1840   29.3980   48.9080 P   0  0  2  0  0  0  0  0  0  0  0  0
   34.6420   27.8940   49.4780 O   0  0  0  0  0  0  0  0  0  0  0  0
   36.8590   29.5720   49.1270 O   0  0  0  0  0  0  0  0  0  0  0  0
   38.4080   32.8730   49.3220 C   0  0  0  0  0  0  0  0  0  0  0  0
   39.0730   32.8880   48.0530 C   0  0  0  0  0  0  0  0  0  0  0  0
   38.9380   31.7640   47.2290 C   0  0  0  0  0  0  0  0  0  0  0  0
   38.1870   30.7250   47.6750 N   0  0  0  0  0  0  0  0  0  0  0  0
   37.5730   30.7400   48.8750 C   0  0  0  0  0  0  0  0  0  0  0  0
   37.6840   31.8080   49.6930 N   0  0  0  0  0  0  0  0  0  0  0  0
   34.6980   29.5830   47.3220 O   0  0  0  0  0  0  0  0  0  0  0  0
   33.4010   29.6320   46.8490 C   0  0  0  0  0  0  0  0  0  0  0  0
   32.7580   30.5520   46.0470 C   0  0  0  0  0  0  0  0  0  0  0  0
   31.4350   30.3580   45.7200 C   0  0  0  0  0  0  0  0  0  0  0  0
   30.7990   29.2890   46.1810 N   0  0  0  0  0  0  0  0  0  0  0  0
   31.3920   28.3800   46.9590 C   0  0  0  0  0  0  0  0  0  0  0  0
   32.6890   28.5540   47.2900 N   0  0  0  0  0  0  0  0  0  0  0  0
   34.6429   27.8965   50.4680 H   0  0  0  0  0  0  0  0  0  0  0  0
   38.4921   33.7393   49.9946 H   0  0  0  0  0  0  0  0  0  0  0  0
   39.6708   33.7553   47.7360 H   0  0  0  0  0  0  0  0  0  0  0  0
   39.4282   31.7240   46.2451 H   0  0  0  0  0  0  0  0  0  0  0  0
   33.2982   31.4337   45.6718 H   0  0  0  0  0  0  0  0  0  0  0  0
   30.9095   31.0835   45.0816 H   0  0  0  0  0  0  0  0  0  0  0  0
   30.8336   27.5052   47.3236 H   0  0  0  0  0  0  0  0  0  0  0  0
  2  4  1  0
  2  3  1  0
  2  1  2  0
  5 10  2  0
  6  5  1  0
  7  8  1  0
  7  6  2  0
  8  9  2  0
  9  4  1  0
  9 10  1  0
 11  2  1  0
 12 17  1  0
 12 11  1  0
 13 12  2  0
 14 13  1  0
 14 15  2  0
 15 16  1  0
 16 17  2  0
  3 18  1  0
  5 19  1  0
  6 20  1  0
  7 21  1  0
 13 22  1  0
 14 23  1  0
 16 24  1  0
M  ISO  7  18   3  19  14  20  14  21  14  22  14  23  14  24  14
M  END
>  <minimizedAffinity>  (1) 
-4.39427233

>  <minimizedRMSD>  (1) 
2.40301585

$$$$
