
     RDKit          3D

 27 29  0  0  0  0  0  0  0  0999 V2000
   35.5990   30.0750   47.5940 C   0  0  0  0  0  0  0  0  0  0  0  0
   34.5680   29.0310   47.4760 C   0  0  0  0  0  0  0  0  0  0  0  0
   34.1850   30.4920   47.4540 C   0  0  0  0  0  0  0  0  0  0  0  0
   38.7310   30.7210   45.7120 C   0  0  0  0  0  0  0  0  0  0  0  0
   38.2680   30.8690   44.3790 C   0  0  0  0  0  0  0  0  0  0  0  0
   36.8670   30.7430   44.1540 C   0  0  0  0  0  0  0  0  0  0  0  0
   36.0680   30.4920   45.2120 N   0  0  0  0  0  0  0  0  0  0  0  0
   36.5440   30.3570   46.4720 C   0  0  0  0  0  0  0  0  0  0  0  0
   37.8550   30.4680   46.7280 N   0  0  0  0  0  0  0  0  0  0  0  0
   35.6310   27.9680   49.3430 F   0  0  0  0  0  0  0  0  0  0  0  0
   36.1900   29.1670   49.7160 C   0  0  0  0  0  0  0  0  0  0  0  0
   36.2420   30.3050   48.9350 C   0  0  0  0  0  0  0  0  0  0  0  0
   36.8340   31.4530   49.4190 C   0  0  0  0  0  0  0  0  0  0  0  0
   37.3680   31.4390   50.6870 C   0  0  0  0  0  0  0  0  0  0  0  0
   37.3130   30.2850   51.4720 C   0  0  0  0  0  0  0  0  0  0  0  0
   36.7140   29.1160   50.9900 C   0  0  0  0  0  0  0  0  0  0  0  0
   34.4961   28.4283   46.5586 H   0  0  0  0  0  0  0  0  0  0  0  0
   34.2720   28.1553   48.0722 H   0  0  0  0  0  0  0  0  0  0  0  0
   33.8358   30.9580   46.5208 H   0  0  0  0  0  0  0  0  0  0  0  0
   33.4956   31.1304   48.0260 H   0  0  0  0  0  0  0  0  0  0  0  0
   39.8057   30.8109   45.9288 H   0  0  0  0  0  0  0  0  0  0  0  0
   38.9636   31.0730   43.5517 H   0  0  0  0  0  0  0  0  0  0  0  0
   36.4469   30.8477   43.1428 H   0  0  0  0  0  0  0  0  0  0  0  0
   36.8784   32.3630   48.8026 H   0  0  0  0  0  0  0  0  0  0  0  0
   37.8435   32.3467   51.0869 H   0  0  0  0  0  0  0  0  0  0  0  0
   37.7465   30.2954   52.4829 H   0  0  0  0  0  0  0  0  0  0  0  0
   36.6637   28.2008   51.5981 H   0  0  0  0  0  0  0  0  0  0  0  0
  1 12  1  0
  2  1  1  0
  3  2  1  0
  3  1  1  0
  4  9  2  0
  5  4  1  0
  6  5  2  0
  6  7  1  0
  7  8  2  0
  8  9  1  0
  8  1  1  0
 10 11  1  0
 11 16  2  0
 12 13  2  0
 12 11  1  0
 13 14  1  0
 14 15  2  0
 16 15  1  0
  2 17  1  0
  2 18  1  0
  3 19  1  0
  3 20  1  0
  4 21  1  0
  5 22  1  0
  6 23  1  0
 13 24  1  0
 14 25  1  0
 15 26  1  0
 16 27  1  0
M  ISO  8  17  13  18  13  19  13  20  13  21  14  22  14  23  14  24  14
M  ISO  3  25  14  26  14  27  14
M  END
>  <minimizedAffinity>  (1) 
-5.00938749

>  <minimizedRMSD>  (1) 
3.73100495

$$$$
