
     RDKit          3D

 24 26  0  0  0  0  0  0  0  0999 V2000
   36.2310   30.1760   48.4460 C   0  0  0  0  0  0  0  0  0  0  0  0
   35.1960   29.3110   47.8690 C   0  0  0  0  0  0  0  0  0  0  0  0
   34.8180   30.6240   48.5230 C   0  0  0  0  0  0  0  0  0  0  0  0
   38.9830   32.4310   47.3550 C   0  0  0  0  0  0  0  0  0  0  0  0
   38.8680   32.3800   45.9590 C   0  0  0  0  0  0  0  0  0  0  0  0
   37.8450   31.5730   45.3970 C   0  0  0  0  0  0  0  0  0  0  0  0
   37.0350   30.8960   46.2400 N   0  0  0  0  0  0  0  0  0  0  0  0
   37.1690   30.9640   47.5940 C   0  0  0  0  0  0  0  0  0  0  0  0
   38.1280   31.7190   48.1430 N   0  0  0  0  0  0  0  0  0  0  0  0
   36.8400   29.8580   49.7740 C   0  0  0  0  0  0  0  0  0  0  0  0
   36.6880   30.6090   50.9350 C   0  0  0  0  0  0  0  0  0  0  0  0
   37.3970   30.0060   51.9550 C   0  0  0  0  0  0  0  0  0  0  0  0
   37.9600   28.9040   51.3820 N   0  0  0  0  0  0  0  0  0  0  0  0
   37.6230   28.8320   50.0980 N   0  0  0  0  0  0  0  0  0  0  0  0
   35.1189   29.1969   46.7777 H   0  0  0  0  0  0  0  0  0  0  0  0
   34.8963   28.2606   47.9988 H   0  0  0  0  0  0  0  0  0  0  0  0
   34.2907   30.6304   49.4884 H   0  0  0  0  0  0  0  0  0  0  0  0
   34.2603   31.5220   48.2187 H   0  0  0  0  0  0  0  0  0  0  0  0
   39.7671   33.0487   47.8172 H   0  0  0  0  0  0  0  0  0  0  0  0
   39.5534   32.9511   45.3154 H   0  0  0  0  0  0  0  0  0  0  0  0
   37.7153   31.5008   44.3071 H   0  0  0  0  0  0  0  0  0  0  0  0
   36.0986   31.5333   51.0258 H   0  0  0  0  0  0  0  0  0  0  0  0
   37.4876   30.3406   52.9990 H   0  0  0  0  0  0  0  0  0  0  0  0
   38.5596   28.2256   51.8730 H   0  0  0  0  0  0  0  0  0  0  0  0
  1  3  1  0
  1 10  1  0
  2  1  1  0
  2  3  1  0
  4  9  2  0
  5  4  1  0
  6  5  2  0
  6  7  1  0
  7  8  2  0
  8  9  1  0
  8  1  1  0
 10 14  2  0
 10 11  1  0
 11 12  2  0
 13 12  1  0
 14 13  1  0
  2 15  1  0
  2 16  1  0
  3 17  1  0
  3 18  1  0
  4 19  1  0
  5 20  1  0
  6 21  1  0
 11 22  1  0
 12 23  1  0
 13 24  1  0
M  ISO  8  15  13  16  13  17  13  18  13  19  14  20  14  21  14  22  14
M  ISO  2  23  14  24   9
M  END
>  <minimizedAffinity>  (1) 
-4.57908392

>  <minimizedRMSD>  (1) 
2.59521461

$$$$
