
     RDKit          3D

 19 20  0  0  0  0  0  0  0  0999 V2000
   36.4140   30.0320   49.9590 C   0  0  0  0  0  0  0  0  0  0  0  0
   35.6630   29.0460   49.1110 C   0  0  0  0  0  0  0  0  0  0  0  0
   34.9610   30.1140   49.8840 C   0  0  0  0  0  0  0  0  0  0  0  0
   38.0810   33.2780   49.1810 C   0  0  0  0  0  0  0  0  0  0  0  0
   38.8760   32.9200   48.1000 C   0  0  0  0  0  0  0  0  0  0  0  0
   38.8680   31.5900   47.5950 C   0  0  0  0  0  0  0  0  0  0  0  0
   38.0590   30.7060   48.1930 N   0  0  0  0  0  0  0  0  0  0  0  0
   37.2770   31.0390   49.2400 C   0  0  0  0  0  0  0  0  0  0  0  0
   37.2970   32.3090   49.7210 N   0  0  0  0  0  0  0  0  0  0  0  0
   37.1900   29.3130   51.0230 C   0  0  0  0  0  0  0  0  0  0  0  0
   37.3440   29.9720   52.0180 O   0  0  0  0  0  0  0  0  0  0  0  0
   35.5845   27.9937   49.4215 H   0  0  0  0  0  0  0  0  0  0  0  0
   35.6948   28.7261   48.0590 H   0  0  0  0  0  0  0  0  0  0  0  0
   34.4874   30.9523   49.3521 H   0  0  0  0  0  0  0  0  0  0  0  0
   34.1499   30.1212   50.6270 H   0  0  0  0  0  0  0  0  0  0  0  0
   38.0860   34.3021   49.5826 H   0  0  0  0  0  0  0  0  0  0  0  0
   39.5210   33.6755   47.6276 H   0  0  0  0  0  0  0  0  0  0  0  0
   39.5026   31.2986   46.7451 H   0  0  0  0  0  0  0  0  0  0  0  0
   37.5777   28.2903   50.9057 H   0  0  0  0  0  0  0  0  0  0  0  0
  1 10  1  0
  2  3  1  0
  2  1  1  0
  3  1  1  0
  4  9  2  0
  5  4  1  0
  6  5  2  0
  6  7  1  0
  7  8  2  0
  8  9  1  0
  8  1  1  0
 10 11  2  0
  2 12  1  0
  2 13  1  0
  3 14  1  0
  3 15  1  0
  4 16  1  0
  5 17  1  0
  6 18  1  0
 10 19  1  0
M  ISO  8  12  13  13  13  14  13  15  13  16  14  17  14  18  14  19   6
M  END
>  <minimizedAffinity>  (1) 
-4.47443771

>  <minimizedRMSD>  (1) 
1.4014442

$$$$
