
     RDKit          3D

 26 28  0  0  0  0  0  0  0  0999 V2000
   35.6270   30.0160   47.5980 C   0  0  0  0  0  0  0  0  0  0  0  0
   34.7060   28.9880   47.0930 C   0  0  0  0  0  0  0  0  0  0  0  0
   34.1930   30.3710   47.4400 C   0  0  0  0  0  0  0  0  0  0  0  0
   38.3450   32.2140   46.3470 C   0  0  0  0  0  0  0  0  0  0  0  0
   38.4260   31.8680   44.9960 C   0  0  0  0  0  0  0  0  0  0  0  0
   37.5450   30.8860   44.5160 C   0  0  0  0  0  0  0  0  0  0  0  0
   36.6710   30.3330   45.3840 N   0  0  0  0  0  0  0  0  0  0  0  0
   36.6050   30.6830   46.7020 C   0  0  0  0  0  0  0  0  0  0  0  0
   37.4380   31.6180   47.1730 N   0  0  0  0  0  0  0  0  0  0  0  0
   36.1830   29.8870   48.9970 C   0  0  0  0  0  0  0  0  0  0  0  0
   37.5080   30.0770   49.2680 C   0  0  0  0  0  0  0  0  0  0  0  0
   37.9710   29.9430   50.5720 C   0  0  0  0  0  0  0  0  0  0  0  0
   37.0860   29.6230   51.5740 C   0  0  0  0  0  0  0  0  0  0  0  0
   35.7480   29.4340   51.2880 C   0  0  0  0  0  0  0  0  0  0  0  0
   35.3400   29.5730   50.0060 N   0  0  0  0  0  0  0  0  0  0  0  0
   34.4409   28.1275   47.7249 H   0  0  0  0  0  0  0  0  0  0  0  0
   34.6694   28.3436   46.2023 H   0  0  0  0  0  0  0  0  0  0  0  0
   33.8778   31.0608   46.6432 H   0  0  0  0  0  0  0  0  0  0  0  0
   33.4071   30.7763   48.0944 H   0  0  0  0  0  0  0  0  0  0  0  0
   39.0237   32.9795   46.7512 H   0  0  0  0  0  0  0  0  0  0  0  0
   39.1567   32.3496   44.3296 H   0  0  0  0  0  0  0  0  0  0  0  0
   37.5662   30.5754   43.4610 H   0  0  0  0  0  0  0  0  0  0  0  0
   38.2060   30.3350   48.4579 H   0  0  0  0  0  0  0  0  0  0  0  0
   39.0368   30.0918   50.8001 H   0  0  0  0  0  0  0  0  0  0  0  0
   37.4450   29.5170   52.6083 H   0  0  0  0  0  0  0  0  0  0  0  0
   35.0323   29.1769   52.0828 H   0  0  0  0  0  0  0  0  0  0  0  0
  1 10  1  0
  2  3  1  0
  2  1  1  0
  3  1  1  0
  4  9  2  0
  5  4  1  0
  6  5  2  0
  6  7  1  0
  7  8  2  0
  8  9  1  0
  8  1  1  0
 10 11  2  0
 10 15  1  0
 11 12  1  0
 12 13  2  0
 14 13  1  0
 15 14  2  0
  2 16  1  0
  2 17  1  0
  3 18  1  0
  3 19  1  0
  4 20  1  0
  5 21  1  0
  6 22  1  0
 11 23  1  0
 12 24  1  0
 13 25  1  0
 14 26  1  0
M  ISO  8  16  13  17  13  18  13  19  13  20  14  21  14  22  14  23  14
M  ISO  3  24  14  25  14  26  14
M  END
>  <minimizedAffinity>  (1) 
-4.61347294

>  <minimizedRMSD>  (1) 
3.6057837

$$$$
