
     RDKit          3D

 33 36  0  0  0  0  0  0  0  0999 V2000
   38.6080   31.2880   44.7140 C   0  0  0  0  0  0  0  0  0  0  0  0
   38.5460   29.9690   44.3630 C   0  0  0  0  0  0  0  0  0  0  0  0
   37.6610   29.5690   43.3630 C   0  0  0  0  0  0  0  0  0  0  0  0
   36.8620   30.5280   42.7480 C   0  0  0  0  0  0  0  0  0  0  0  0
   36.9380   31.8700   43.1190 C   0  0  0  0  0  0  0  0  0  0  0  0
   37.8120   32.1870   44.0890 N   0  0  0  0  0  0  0  0  0  0  0  0
   36.1220   32.9060   42.5000 C   0  0  0  0  0  0  0  0  0  0  0  0
   34.7970   33.1590   42.7670 C   0  0  0  0  0  0  0  0  0  0  0  0
   34.4030   34.2030   41.9840 N   0  0  0  0  0  0  0  0  0  0  0  0
   35.4750   34.5970   41.2380 C   0  0  0  0  0  0  0  0  0  0  0  0
   36.5150   33.7920   41.5680 N   0  0  0  0  0  0  0  0  0  0  0  0
   39.5480   31.7530   45.7920 C   0  0  0  0  0  0  0  0  0  0  0  0
   40.9930   31.4800   45.6280 C   0  0  0  0  0  0  0  0  0  0  0  0
   40.4770   32.8830   45.4760 C   0  0  0  0  0  0  0  0  0  0  0  0
   37.6720   30.6330   48.7780 C   0  0  0  0  0  0  0  0  0  0  0  0
   37.7340   31.7620   49.6160 C   0  0  0  0  0  0  0  0  0  0  0  0
   38.4180   32.9040   49.1460 C   0  0  0  0  0  0  0  0  0  0  0  0
   38.9800   32.8570   47.9150 N   0  0  0  0  0  0  0  0  0  0  0  0
   38.9080   31.7550   47.1210 C   0  0  0  0  0  0  0  0  0  0  0  0
   38.2650   30.6770   47.5590 N   0  0  0  0  0  0  0  0  0  0  0  0
   39.1881   29.2300   44.8646 H   0  0  0  0  0  0  0  0  0  0  0  0
   37.5953   28.5122   43.0648 H   0  0  0  0  0  0  0  0  0  0  0  0
   36.1603   30.2230   41.9577 H   0  0  0  0  0  0  0  0  0  0  0  0
   34.1664   32.6150   43.4856 H   0  0  0  0  0  0  0  0  0  0  0  0
   33.4618   34.6207   41.9599 H   0  0  0  0  0  0  0  0  0  0  0  0
   35.4925   35.4164   40.5043 H   0  0  0  0  0  0  0  0  0  0  0  0
   41.6040   31.2111   46.5023 H   0  0  0  0  0  0  0  0  0  0  0  0
   41.5884   30.7996   45.0015 H   0  0  0  0  0  0  0  0  0  0  0  0
   40.7046   33.6411   46.2399 H   0  0  0  0  0  0  0  0  0  0  0  0
   40.5315   33.6571   44.6964 H   0  0  0  0  0  0  0  0  0  0  0  0
   37.1479   29.7241   49.1083 H   0  0  0  0  0  0  0  0  0  0  0  0
   37.2625   31.7548   50.6098 H   0  0  0  0  0  0  0  0  0  0  0  0
   38.4926   33.8103   49.7650 H   0  0  0  0  0  0  0  0  0  0  0  0
  1 12  1  0
  2  1  2  0
  3  2  1  0
  4  5  1  0
  4  3  2  0
  5  6  2  0
  6  1  1  0
  7  8  2  0
  7  5  1  0
  9  8  1  0
 10 11  2  0
 10  9  1  0
 11  7  1  0
 12 19  1  0
 13 12  1  0
 14 13  1  0
 14 12  1  0
 15 16  2  0
 17 16  1  0
 18 17  2  0
 19 20  2  0
 19 18  1  0
 20 15  1  0
  2 21  1  0
  3 22  1  0
  4 23  1  0
  8 24  1  0
  9 25  1  0
 10 26  1  0
 13 27  1  0
 13 28  1  0
 14 29  1  0
 14 30  1  0
 15 31  1  0
 16 32  1  0
 17 33  1  0
M  ISO  8  21  14  22  14  23  14  24  14  25   9  26  14  27  13  28  13
M  ISO  5  29  13  30  13  31  14  32  14  33  14
M  END
>  <minimizedAffinity>  (1) 
-5.32847309

>  <minimizedRMSD>  (1) 
7.9575305

$$$$
