
     RDKit          3D

 28 30  0  0  0  0  0  0  0  0999 V2000
   39.3780   31.7690   45.7980 C   0  0  0  0  0  0  0  0  0  0  0  0
   40.7800   31.3100   45.7020 C   0  0  0  0  0  0  0  0  0  0  0  0
   40.4520   32.7480   45.4360 C   0  0  0  0  0  0  0  0  0  0  0  0
   37.1070   31.2920   48.6830 C   0  0  0  0  0  0  0  0  0  0  0  0
   37.4990   32.3290   49.5500 C   0  0  0  0  0  0  0  0  0  0  0  0
   38.5420   33.1910   49.1380 C   0  0  0  0  0  0  0  0  0  0  0  0
   39.1070   32.9710   47.9280 N   0  0  0  0  0  0  0  0  0  0  0  0
   38.7110   31.9630   47.1050 C   0  0  0  0  0  0  0  0  0  0  0  0
   37.7200   31.1320   47.4810 N   0  0  0  0  0  0  0  0  0  0  0  0
   38.4050   31.3610   44.7270 C   0  0  0  0  0  0  0  0  0  0  0  0
   38.3390   30.0690   44.3010 C   0  0  0  0  0  0  0  0  0  0  0  0
   37.4220   29.7110   43.3140 C   0  0  0  0  0  0  0  0  0  0  0  0
   36.5920   30.6940   42.7860 C   0  0  0  0  0  0  0  0  0  0  0  0
   36.6700   32.0150   43.2310 C   0  0  0  0  0  0  0  0  0  0  0  0
   37.5790   32.3020   44.1910 N   0  0  0  0  0  0  0  0  0  0  0  0
   35.8110   33.0270   42.6800 C   0  0  0  0  0  0  0  0  0  0  0  0
   34.5660   32.8990   42.7460 O   0  0  0  0  0  0  0  0  0  0  0  0
   41.3301   31.0319   46.6131 H   0  0  0  0  0  0  0  0  0  0  0  0
   41.2999   30.5172   45.1442 H   0  0  0  0  0  0  0  0  0  0  0  0
   40.7552   33.5255   46.1527 H   0  0  0  0  0  0  0  0  0  0  0  0
   40.6244   33.4499   44.6068 H   0  0  0  0  0  0  0  0  0  0  0  0
   36.2994   30.6068   48.9803 H   0  0  0  0  0  0  0  0  0  0  0  0
   37.0064   32.4658   50.5240 H   0  0  0  0  0  0  0  0  0  0  0  0
   38.8836   34.0152   49.7815 H   0  0  0  0  0  0  0  0  0  0  0  0
   39.0073   29.3104   44.7345 H   0  0  0  0  0  0  0  0  0  0  0  0
   37.3562   28.6716   42.9598 H   0  0  0  0  0  0  0  0  0  0  0  0
   35.8634   30.4268   42.0064 H   0  0  0  0  0  0  0  0  0  0  0  0
   36.2470   33.9153   42.1996 H   0  0  0  0  0  0  0  0  0  0  0  0
  1  8  1  0
  2  1  1  0
  3  2  1  0
  3  1  1  0
  4  5  2  0
  6  5  1  0
  7  6  2  0
  8  9  2  0
  8  7  1  0
  9  4  1  0
 10  1  1  0
 11 10  2  0
 12 11  1  0
 13 14  1  0
 13 12  2  0
 14 15  2  0
 15 10  1  0
 16 17  2  0
 16 14  1  0
  2 18  1  0
  2 19  1  0
  3 20  1  0
  3 21  1  0
  4 22  1  0
  5 23  1  0
  6 24  1  0
 11 25  1  0
 12 26  1  0
 13 27  1  0
 16 28  1  0
M  ISO  8  18  13  19  13  20  13  21  13  22  14  23  14  24  14  25  14
M  ISO  3  26  14  27  14  28   6
M  END
>  <minimizedAffinity>  (1) 
-4.74540758

>  <minimizedRMSD>  (1) 
6.46681261

$$$$
