
     RDKit          3D

 18 19  0  0  0  0  0  0  0  0999 V2000
   37.2150   29.7760   51.3510 C   0  0  0  0  0  0  0  0  0  0  0  0
   38.0250   30.7340   50.7230 C   0  0  0  0  0  0  0  0  0  0  0  0
   37.4880   31.4050   49.6220 C   0  0  0  0  0  0  0  0  0  0  0  0
   36.2260   31.0970   49.2250 N   0  0  0  0  0  0  0  0  0  0  0  0
   35.4790   30.1780   49.8460 C   0  0  0  0  0  0  0  0  0  0  0  0
   35.9790   29.5160   50.9140 N   0  0  0  0  0  0  0  0  0  0  0  0
   38.3660   32.6520   48.7000 S   0  0  0  0  0  0  0  0  0  0  0  0
   39.0420   31.9890   47.1400 C   0  0  0  0  0  0  0  0  0  0  0  0
   39.7220   32.8140   46.2810 C   0  0  0  0  0  0  0  0  0  0  0  0
   38.4770   32.2580   45.8450 C   0  0  0  0  0  0  0  0  0  0  0  0
   37.6052   29.2275   52.2210 H   0  0  0  0  0  0  0  0  0  0  0  0
   39.0421   30.9481   51.0832 H   0  0  0  0  0  0  0  0  0  0  0  0
   34.4613   29.9612   49.4893 H   0  0  0  0  0  0  0  0  0  0  0  0
   39.2583   31.0574   47.6834 H   0  0  0  0  0  0  0  0  0  0  0  0
   39.7920   33.8899   46.4992 H   0  0  0  0  0  0  0  0  0  0  0  0
   40.7434   32.8233   45.8729 H   0  0  0  0  0  0  0  0  0  0  0  0
   37.5856   32.8949   45.7466 H   0  0  0  0  0  0  0  0  0  0  0  0
   38.1303   31.6596   44.9896 H   0  0  0  0  0  0  0  0  0  0  0  0
  2  1  2  0
  3  2  1  0
  4  3  2  0
  4  5  1  0
  5  6  2  0
  6  1  1  0
  7  3  1  0
  8  7  1  0
  9  8  1  0
 10  9  1  0
 10  8  1  0
  1 11  1  0
  2 12  1  0
  5 13  1  0
  8 14  1  0
  9 15  1  0
  9 16  1  0
 10 17  1  0
 10 18  1  0
M  ISO  8  11  14  12  14  13  14  14  13  15  13  16  13  17  13  18  13
M  END
>  <minimizedAffinity>  (1) 
-3.87639332

>  <minimizedRMSD>  (1) 
2.12360406

$$$$
