
     RDKit          3D

 17 17  0  0  0  0  0  0  0  0999 V2000
   37.3730   30.2170   51.3420 C   0  0  0  0  0  0  0  0  0  0  0  0
   38.0060   30.6990   50.1820 C   0  0  0  0  0  0  0  0  0  0  0  0
   37.4750   30.3340   48.9500 C   0  0  0  0  0  0  0  0  0  0  0  0
   36.3690   29.5290   48.9330 N   0  0  0  0  0  0  0  0  0  0  0  0
   35.7940   29.0900   50.0560 C   0  0  0  0  0  0  0  0  0  0  0  0
   36.2880   29.4280   51.2690 N   0  0  0  0  0  0  0  0  0  0  0  0
   38.1560   30.8570   47.3900 S   0  0  0  0  0  0  0  0  0  0  0  0
   38.9380   32.4680   47.4740 C   0  0  0  0  0  0  0  0  0  0  0  0
   39.7180   32.7070   46.1820 C   0  0  0  0  0  0  0  0  0  0  0  0
   37.7744   30.4916   52.3287 H   0  0  0  0  0  0  0  0  0  0  0  0
   38.8940   31.3449   50.2476 H   0  0  0  0  0  0  0  0  0  0  0  0
   34.9058   28.4442   49.9934 H   0  0  0  0  0  0  0  0  0  0  0  0
   38.1692   33.2461   47.5906 H   0  0  0  0  0  0  0  0  0  0  0  0
   39.6217   32.5062   48.3348 H   0  0  0  0  0  0  0  0  0  0  0  0
   40.7436   33.0213   46.4257 H   0  0  0  0  0  0  0  0  0  0  0  0
   39.7491   31.7772   45.5951 H   0  0  0  0  0  0  0  0  0  0  0  0
   39.2228   33.4946   45.5951 H   0  0  0  0  0  0  0  0  0  0  0  0
  2  1  2  0
  3  2  1  0
  4  3  2  0
  4  5  1  0
  5  6  2  0
  6  1  1  0
  7  8  1  0
  7  3  1  0
  9  8  1  0
  1 10  1  0
  2 11  1  0
  5 12  1  0
  8 13  1  0
  8 14  1  0
  9 15  1  0
  9 16  1  0
  9 17  1  0
M  ISO  8  10  14  11  14  12  14  13   8  14   8  15   8  16   8  17   8
M  END
>  <minimizedAffinity>  (1) 
-3.65385127

>  <minimizedRMSD>  (1) 
0.682862878

$$$$
