
     RDKit          3D

 14 14  0  0  0  0  0  0  0  0999 V2000
   37.2950   29.9950   51.2540 C   0  0  0  0  0  0  0  0  0  0  0  0
   38.1080   30.8390   50.4980 C   0  0  0  0  0  0  0  0  0  0  0  0
   37.5960   31.3310   49.3040 C   0  0  0  0  0  0  0  0  0  0  0  0
   36.3280   30.9580   48.9430 N   0  0  0  0  0  0  0  0  0  0  0  0
   35.5780   30.1450   49.6970 C   0  0  0  0  0  0  0  0  0  0  0  0
   36.0670   29.6610   50.8600 N   0  0  0  0  0  0  0  0  0  0  0  0
   38.4740   32.4170   48.2030 S   0  0  0  0  0  0  0  0  0  0  0  0
   39.1960   31.5770   46.7870 C   0  0  0  0  0  0  0  0  0  0  0  0
   37.6789   29.5933   52.2034 H   0  0  0  0  0  0  0  0  0  0  0  0
   39.1203   31.1061   50.8357 H   0  0  0  0  0  0  0  0  0  0  0  0
   34.5641   29.8711   49.3700 H   0  0  0  0  0  0  0  0  0  0  0  0
   39.8757   30.7862   47.1372 H   0  0  0  0  0  0  0  0  0  0  0  0
   38.3959   31.1300   46.1787 H   0  0  0  0  0  0  0  0  0  0  0  0
   39.7582   32.3009   46.1787 H   0  0  0  0  0  0  0  0  0  0  0  0
  2  1  2  0
  3  2  1  0
  4  3  2  0
  4  5  1  0
  5  6  2  0
  6  1  1  0
  7  3  1  0
  8  7  1  0
  1  9  1  0
  2 10  1  0
  5 11  1  0
  8 12  1  0
  8 13  1  0
  8 14  1  0
M  ISO  6   9  14  10  14  11  14  12   8  13   8  14   8
M  END
>  <minimizedAffinity>  (1) 
-3.21799707

>  <minimizedRMSD>  (1) 
1.17730534

$$$$
