
     RDKit          3D

 51 54  0  0  1  0  0  0  0  0999 V2000
   37.1490   29.2830   50.4200 C   0  0  0  0  0  0  0  0  0  0  0  0
   37.3080   30.6400   50.7290 C   0  0  0  0  0  0  0  0  0  0  0  0
   36.5930   31.5650   49.9460 C   0  0  0  0  0  0  0  0  0  0  0  0
   35.8020   31.0810   48.9500 N   0  0  0  0  0  0  0  0  0  0  0  0
   35.6850   29.7610   48.6950 C   0  0  0  0  0  0  0  0  0  0  0  0
   36.3560   28.8760   49.4290 N   0  0  0  0  0  0  0  0  0  0  0  0
   34.8480   29.3460   47.6540 N   0  0  0  0  0  0  0  0  0  0  0  0
   34.1680   28.0410   47.6650 C   0  0  0  0  0  0  0  0  0  0  0  0
   32.7020   28.2320   47.4850 C   0  0  0  0  0  0  0  0  0  0  0  0
   32.3030   29.5320   47.1280 N   0  0  0  0  0  0  0  0  0  0  0  0
   33.1580   30.1800   46.1770 C   0  0  0  0  0  0  0  0  0  0  0  0
   34.5880   30.1630   46.4970 C   0  0  2  0  0  0  0  0  0  0  0  0
   35.3130   29.6650   45.3770 N   0  0  0  0  0  0  0  0  0  0  0  0
   36.6120   30.2680   45.1920 C   0  0  0  0  0  0  0  0  0  0  0  0
   36.9200   30.2170   43.7110 C   0  0  0  0  0  0  0  0  0  0  0  0
   35.7700   29.5070   43.1250 C   0  0  0  0  0  0  0  0  0  0  0  0
   34.6400   29.6920   44.1460 C   0  0  2  0  0  0  0  0  0  0  0  0
   33.9740   30.8460   43.6900 N   0  0  0  0  0  0  0  0  0  0  0  0
   34.5950   31.8680   43.0070 C   0  0  0  0  0  0  0  0  0  0  0  0
   33.6170   33.0600   42.9600 C   0  0  0  0  0  0  0  0  0  0  0  0
   32.4190   32.7830   42.1130 C   0  0  0  0  0  0  0  0  0  0  0  0
   32.3350   31.2960   41.8880 C   0  0  0  0  0  0  0  0  0  0  0  0
   32.6840   30.5630   43.1580 C   0  0  0  0  0  0  0  0  0  0  0  0
   37.6937   28.5325   51.0116 H   0  0  0  0  0  0  0  0  0  0  0  0
   37.9638   30.9685   51.5488 H   0  0  0  0  0  0  0  0  0  0  0  0
   36.6710   32.6461   50.1332 H   0  0  0  0  0  0  0  0  0  0  0  0
   34.5582   27.4194   46.8456 H   0  0  0  0  0  0  0  0  0  0  0  0
   34.3529   27.5443   48.6289 H   0  0  0  0  0  0  0  0  0  0  0  0
   32.3645   27.5445   46.6954 H   0  0  0  0  0  0  0  0  0  0  0  0
   32.2475   28.0342   48.4670 H   0  0  0  0  0  0  0  0  0  0  0  0
   31.3569   29.4780   46.7245 H   0  0  0  0  0  0  0  0  0  0  0  0
   32.8413   31.2304   46.0978 H   0  0  0  0  0  0  0  0  0  0  0  0
   33.0522   29.6120   45.2410 H   0  0  0  0  0  0  0  0  0  0  0  0
   34.9123   31.1890   46.7252 H   0  0  0  0  0  0  0  0  0  0  0  0
   36.5961   31.3120   45.5383 H   0  0  0  0  0  0  0  0  0  0  0  0
   37.3786   29.7310   45.7698 H   0  0  0  0  0  0  0  0  0  0  0  0
   37.0045   31.2319   43.2953 H   0  0  0  0  0  0  0  0  0  0  0  0
   37.8762   29.7171   43.4973 H   0  0  0  0  0  0  0  0  0  0  0  0
   35.4939   29.9483   42.1559 H   0  0  0  0  0  0  0  0  0  0  0  0
   35.9886   28.4463   42.9323 H   0  0  0  0  0  0  0  0  0  0  0  0
   33.8332   28.9543   44.2676 H   0  0  0  0  0  0  0  0  0  0  0  0
   35.5183   32.1608   43.5284 H   0  0  0  0  0  0  0  0  0  0  0  0
   34.8611   31.5465   41.9892 H   0  0  0  0  0  0  0  0  0  0  0  0
   33.2816   33.2818   43.9839 H   0  0  0  0  0  0  0  0  0  0  0  0
   34.1507   33.9131   42.5158 H   0  0  0  0  0  0  0  0  0  0  0  0
   31.5113   33.1338   42.6258 H   0  0  0  0  0  0  0  0  0  0  0  0
   32.5046   33.3086   41.1505 H   0  0  0  0  0  0  0  0  0  0  0  0
   31.3118   31.0307   41.5835 H   0  0  0  0  0  0  0  0  0  0  0  0
   33.0450   31.0092   41.0983 H   0  0  0  0  0  0  0  0  0  0  0  0
   31.9365   30.8289   43.9200 H   0  0  0  0  0  0  0  0  0  0  0  0
   32.6898   29.4937   42.8998 H   0  0  0  0  0  0  0  0  0  0  0  0
  1  2  2  0
  3  2  1  0
  4  3  2  0
  5  4  1  0
  5  6  2  0
  6  1  1  0
  7  8  1  0
  7  5  1  0
  9  8  1  0
 10  9  1  0
 11 12  1  0
 11 10  1  0
 12  7  1  0
 13 14  1  0
 13 12  1  0
 15 14  1  0
 16 15  1  0
 16 17  1  0
 17 13  1  0
 18 17  1  0
 19 18  1  0
 20 19  1  0
 21 20  1  0
 22 21  1  0
 22 23  1  0
 23 18  1  0
  1 24  1  0
  2 25  1  0
  3 26  1  0
  8 27  1  0
  8 28  1  0
  9 29  1  0
  9 30  1  0
 10 31  1  0
 11 32  1  0
 11 33  1  0
 12 34  1  1
 14 35  1  0
 14 36  1  0
 15 37  1  0
 15 38  1  0
 16 39  1  0
 16 40  1  0
 17 41  1  1
 19 42  1  0
 19 43  1  0
 20 44  1  0
 20 45  1  0
 21 46  1  0
 21 47  1  0
 22 48  1  0
 22 49  1  0
 23 50  1  0
 23 51  1  0
M  ISO  8  24  14  25  14  26  14  27  13  28  13  29  13  30  13  31   5
M  ISO  8  32  13  33  13  34  13  35  13  36  13  37  13  38  13  39  13
M  ISO  8  40  13  41  13  42  13  43  13  44  13  45  13  46  13  47  13
M  ISO  4  48  13  49  13  50  13  51  13
M  END
>  <minimizedAffinity>  (1) 
-4.85787916

>  <minimizedRMSD>  (1) 
0.487002879

$$$$
