
     RDKit          3D

 46 49  0  0  1  0  0  0  0  0999 V2000
   37.2650   29.2660   50.5580 C   0  0  0  0  0  0  0  0  0  0  0  0
   37.4150   30.6460   50.8390 C   0  0  0  0  0  0  0  0  0  0  0  0
   36.6570   31.5310   50.0790 C   0  0  0  0  0  0  0  0  0  0  0  0
   35.8300   31.0230   49.1250 N   0  0  0  0  0  0  0  0  0  0  0  0
   35.7210   29.7180   48.8960 C   0  0  0  0  0  0  0  0  0  0  0  0
   36.4360   28.8320   49.6090 N   0  0  0  0  0  0  0  0  0  0  0  0
   34.8410   29.2490   47.8870 N   0  0  0  0  0  0  0  0  0  0  0  0
   34.2140   27.9440   47.9660 C   0  0  0  0  0  0  0  0  0  0  0  0
   32.7300   28.0740   47.8170 C   0  0  0  0  0  0  0  0  0  0  0  0
   32.2640   29.2690   47.3230 N   0  0  0  0  0  0  0  0  0  0  0  0
   33.0920   30.1370   46.5280 C   0  0  0  0  0  0  0  0  0  0  0  0
   34.5240   30.0550   46.7220 C   0  0  2  0  0  0  0  0  0  0  0  0
   35.2590   29.4820   45.6010 N   0  0  0  0  0  0  0  0  0  0  0  0
   36.3780   30.3450   45.2130 C   0  0  0  0  0  0  0  0  0  0  0  0
   36.4950   30.2770   43.7050 C   0  0  0  0  0  0  0  0  0  0  0  0
   35.5180   29.2240   43.3400 C   0  0  0  0  0  0  0  0  0  0  0  0
   34.4700   29.2790   44.4490 C   0  0  1  0  0  0  0  0  0  0  0  0
   31.7580   29.1140   43.5260 F   0  0  0  0  0  0  0  0  0  0  0  0
   32.4860   27.9880   43.8360 C   0  0  0  0  0  0  0  0  0  0  0  0
   33.7890   27.9900   44.3010 C   0  0  0  0  0  0  0  0  0  0  0  0
   34.2860   26.7290   44.5590 C   0  0  0  0  0  0  0  0  0  0  0  0
   33.5860   25.5560   44.3860 C   0  0  0  0  0  0  0  0  0  0  0  0
   32.2890   25.5950   43.9200 C   0  0  0  0  0  0  0  0  0  0  0  0
   31.7490   26.8350   43.6470 C   0  0  0  0  0  0  0  0  0  0  0  0
   37.8471   28.5343   51.1374 H   0  0  0  0  0  0  0  0  0  0  0  0
   38.0999   31.0020   51.6227 H   0  0  0  0  0  0  0  0  0  0  0  0
   36.7245   32.6163   50.2453 H   0  0  0  0  0  0  0  0  0  0  0  0
   34.6053   27.3035   47.1618 H   0  0  0  0  0  0  0  0  0  0  0  0
   34.4387   27.4963   48.9453 H   0  0  0  0  0  0  0  0  0  0  0  0
   32.3916   27.2774   47.1381 H   0  0  0  0  0  0  0  0  0  0  0  0
   32.3286   28.0060   48.8389 H   0  0  0  0  0  0  0  0  0  0  0  0
   31.4435   29.0417   46.7433 H   0  0  0  0  0  0  0  0  0  0  0  0
   32.7886   31.1718   46.7451 H   0  0  0  0  0  0  0  0  0  0  0  0
   32.9299   29.8074   45.4911 H   0  0  0  0  0  0  0  0  0  0  0  0
   34.8375   31.1027   46.8401 H   0  0  0  0  0  0  0  0  0  0  0  0
   36.1827   31.3802   45.5294 H   0  0  0  0  0  0  0  0  0  0  0  0
   37.3109   30.0131   45.6920 H   0  0  0  0  0  0  0  0  0  0  0  0
   36.2287   31.2397   43.2443 H   0  0  0  0  0  0  0  0  0  0  0  0
   37.5162   30.0582   43.3597 H   0  0  0  0  0  0  0  0  0  0  0  0
   35.0619   29.4380   42.3622 H   0  0  0  0  0  0  0  0  0  0  0  0
   35.9840   28.2315   43.2517 H   0  0  0  0  0  0  0  0  0  0  0  0
   33.6877   30.0522   44.4599 H   0  0  0  0  0  0  0  0  0  0  0  0
   35.3187   26.6553   44.9307 H   0  0  0  0  0  0  0  0  0  0  0  0
   34.0600   24.5910   44.6188 H   0  0  0  0  0  0  0  0  0  0  0  0
   31.7073   24.6733   43.7716 H   0  0  0  0  0  0  0  0  0  0  0  0
   30.7168   26.9065   43.2735 H   0  0  0  0  0  0  0  0  0  0  0  0
  1  2  2  0
  3  2  1  0
  4  3  2  0
  5  4  1  0
  5  6  2  0
  6  1  1  0
  7  8  1  0
  7  5  1  0
  9  8  1  0
 10  9  1  0
 11 12  1  0
 11 10  1  0
 12  7  1  0
 13 14  1  0
 13 12  1  0
 15 14  1  0
 16 15  1  0
 16 17  1  0
 17 13  1  0
 18 19  1  0
 19 20  2  0
 20 17  1  0
 20 21  1  0
 22 21  2  0
 23 22  1  0
 24 19  1  0
 24 23  2  0
  1 25  1  0
  2 26  1  0
  3 27  1  0
  8 28  1  0
  8 29  1  0
  9 30  1  0
  9 31  1  0
 10 32  1  0
 11 33  1  0
 11 34  1  0
 12 35  1  1
 14 36  1  0
 14 37  1  0
 15 38  1  0
 15 39  1  0
 16 40  1  0
 16 41  1  0
 17 42  1  6
 21 43  1  0
 22 44  1  0
 23 45  1  0
 24 46  1  0
M  ISO  8  25  14  26  14  27  14  28  13  29  13  30  13  31  13  32   5
M  ISO  8  33  13  34  13  35  13  36  13  37  13  38  13  39  13  40  13
M  ISO  6  41  13  42  13  43  14  44  14  45  14  46  14
M  END
>  <minimizedAffinity>  (1) 
-4.7678256

>  <minimizedRMSD>  (1) 
0.287782699

$$$$
