
     RDKit          3D

 29 30  0  0  1  0  0  0  0  0999 V2000
   35.5410   30.2790   49.7490 C   0  0  2  0  0  0  0  0  0  0  0  0
   36.4250   31.2190   48.9550 C   0  0  0  0  0  0  0  0  0  0  0  0
   37.8850   30.8990   49.0990 C   0  0  2  0  0  0  0  0  0  0  0  0
   38.2980   30.9090   50.5510 C   0  0  0  0  0  0  0  0  0  0  0  0
   37.3940   30.0910   51.4240 C   0  0  0  0  0  0  0  0  0  0  0  0
   36.3080   29.3750   50.6550 C   0  0  0  0  0  0  0  0  0  0  0  0
   34.7650   29.4140   48.8110 C   0  0  0  0  0  0  0  0  0  0  0  0
   34.2610   30.0370   47.6540 C   0  0  0  0  0  0  0  0  0  0  0  0
   33.5360   29.2490   46.7710 C   0  0  0  0  0  0  0  0  0  0  0  0
   33.3380   27.9120   47.0520 N   0  0  0  0  0  0  0  0  0  0  0  0
   33.8470   27.3520   48.1930 C   0  0  0  0  0  0  0  0  0  0  0  0
   34.5450   28.0990   49.0460 N   0  0  0  0  0  0  0  0  0  0  0  0
   38.6500   31.9980   48.3830 C   0  0  0  0  0  0  0  0  0  0  0  0
   34.8887   30.9163   50.3641 H   0  0  0  0  0  0  0  0  0  0  0  0
   36.2531   32.2465   49.3080 H   0  0  0  0  0  0  0  0  0  0  0  0
   36.1624   31.1055   47.8929 H   0  0  0  0  0  0  0  0  0  0  0  0
   38.0910   29.9021   48.6823 H   0  0  0  0  0  0  0  0  0  0  0  0
   39.3184   30.5054   50.6278 H   0  0  0  0  0  0  0  0  0  0  0  0
   38.2400   31.9499   50.9019 H   0  0  0  0  0  0  0  0  0  0  0  0
   38.0021   29.3404   51.9502 H   0  0  0  0  0  0  0  0  0  0  0  0
   36.8980   30.7840   52.1195 H   0  0  0  0  0  0  0  0  0  0  0  0
   35.6085   28.9241   51.3743 H   0  0  0  0  0  0  0  0  0  0  0  0
   36.7965   28.6164   50.0258 H   0  0  0  0  0  0  0  0  0  0  0  0
   34.4347   31.1053   47.4575 H   0  0  0  0  0  0  0  0  0  0  0  0
   33.1211   29.6878   45.8516 H   0  0  0  0  0  0  0  0  0  0  0  0
   33.6794   26.2857   48.4048 H   0  0  0  0  0  0  0  0  0  0  0  0
   39.1141   32.6647   49.1247 H   0  0  0  0  0  0  0  0  0  0  0  0
   39.4322   31.5496   47.7528 H   0  0  0  0  0  0  0  0  0  0  0  0
   37.9579   32.5758   47.7528 H   0  0  0  0  0  0  0  0  0  0  0  0
  1  6  1  0
  2  3  1  0
  2  1  1  0
  3  4  1  0
  4  5  1  0
  6  5  1  0
  7 12  1  0
  7  1  1  0
  8  7  2  0
  9 10  2  0
  9  8  1  0
 10 11  1  0
 11 12  2  0
 13  3  1  0
  1 14  1  1
  2 15  1  0
  2 16  1  0
  3 17  1  6
  4 18  1  0
  4 19  1  0
  5 20  1  0
  5 21  1  0
  6 22  1  0
  6 23  1  0
  8 24  1  0
  9 25  1  0
 11 26  1  0
 13 27  1  0
 13 28  1  0
 13 29  1  0
M  ISO  8  14  13  15  13  16  13  17  13  18  13  19  13  20  13  21  13
M  ISO  8  22  13  23  13  24  14  25  14  26  14  27   8  28   8  29   8
M  END
>  <minimizedAffinity>  (1) 
-5.27579927

>  <minimizedRMSD>  (1) 
0.0962874144

$$$$
