
     RDKit          3D

 36 38  0  0  1  0  0  0  0  0999 V2000
   35.3330   30.3420   49.9920 C   0  0  2  0  0  0  0  0  0  0  0  0
   36.2530   31.3240   49.3070 C   0  0  0  0  0  0  0  0  0  0  0  0
   37.6970   30.9080   49.3780 C   0  0  2  0  0  0  0  0  0  0  0  0
   38.1940   30.6080   50.7520 C   0  0  0  0  0  0  0  0  0  0  0  0
   37.1760   29.8850   51.6140 C   0  0  0  0  0  0  0  0  0  0  0  0
   36.0460   29.3070   50.7910 C   0  0  0  0  0  0  0  0  0  0  0  0
   34.5000   29.6430   48.9760 C   0  0  0  0  0  0  0  0  0  0  0  0
   34.4670   30.2260   47.6950 C   0  0  0  0  0  0  0  0  0  0  0  0
   33.6640   29.5760   46.7360 C   0  0  0  0  0  0  0  0  0  0  0  0
   32.9700   28.4350   47.0830 N   0  0  0  0  0  0  0  0  0  0  0  0
   33.0430   27.9200   48.3350 C   0  0  0  0  0  0  0  0  0  0  0  0
   33.8050   28.5300   49.2560 N   0  0  0  0  0  0  0  0  0  0  0  0
   38.5770   30.5620   46.5870 Cl  0  0  0  0  0  0  0  0  0  0  0  0
   38.9440   32.0110   47.5320 C   0  0  0  0  0  0  0  0  0  0  0  0
   38.4760   32.0500   48.8410 C   0  0  0  0  0  0  0  0  0  0  0  0
   38.8180   33.2200   49.4800 C   0  0  0  0  0  0  0  0  0  0  0  0
   39.5420   34.2260   48.8780 C   0  0  0  0  0  0  0  0  0  0  0  0
   39.9690   34.1080   47.5730 C   0  0  0  0  0  0  0  0  0  0  0  0
   39.6600   32.9620   46.8770 C   0  0  0  0  0  0  0  0  0  0  0  0
   34.7216   30.9372   50.6862 H   0  0  0  0  0  0  0  0  0  0  0  0
   36.1446   32.3056   49.7915 H   0  0  0  0  0  0  0  0  0  0  0  0
   35.9687   31.3629   48.2451 H   0  0  0  0  0  0  0  0  0  0  0  0
   37.8092   29.9719   48.8113 H   0  0  0  0  0  0  0  0  0  0  0  0
   39.0916   29.9776   50.6687 H   0  0  0  0  0  0  0  0  0  0  0  0
   38.4076   31.5711   51.2387 H   0  0  0  0  0  0  0  0  0  0  0  0
   37.6805   29.0668   52.1489 H   0  0  0  0  0  0  0  0  0  0  0  0
   36.7464   30.6141   52.3168 H   0  0  0  0  0  0  0  0  0  0  0  0
   35.3253   28.8272   51.4696 H   0  0  0  0  0  0  0  0  0  0  0  0
   36.4826   28.5838   50.0864 H   0  0  0  0  0  0  0  0  0  0  0  0
   35.0355   31.1369   47.4561 H   0  0  0  0  0  0  0  0  0  0  0  0
   33.5909   29.9771   45.7143 H   0  0  0  0  0  0  0  0  0  0  0  0
   32.4823   27.0097   48.5938 H   0  0  0  0  0  0  0  0  0  0  0  0
   38.4975   33.3589   50.5231 H   0  0  0  0  0  0  0  0  0  0  0  0
   39.7825   35.1361   49.4471 H   0  0  0  0  0  0  0  0  0  0  0  0
   40.5458   34.9146   47.0969 H   0  0  0  0  0  0  0  0  0  0  0  0
   39.9793   32.8216   45.8338 H   0  0  0  0  0  0  0  0  0  0  0  0
  1  6  1  0
  2  3  1  0
  2  1  1  0
  3  4  1  0
  4  5  1  0
  6  5  1  0
  7 12  1  0
  7  1  1  0
  8  7  2  0
  9 10  2  0
  9  8  1  0
 10 11  1  0
 11 12  2  0
 13 14  1  0
 14 15  2  0
 15  3  1  0
 15 16  1  0
 17 16  2  0
 18 17  1  0
 19 14  1  0
 19 18  2  0
  1 20  1  1
  2 21  1  0
  2 22  1  0
  3 23  1  6
  4 24  1  0
  4 25  1  0
  5 26  1  0
  5 27  1  0
  6 28  1  0
  6 29  1  0
  8 30  1  0
  9 31  1  0
 11 32  1  0
 16 33  1  0
 17 34  1  0
 18 35  1  0
 19 36  1  0
M  ISO  8  20  13  21  13  22  13  23  13  24  13  25  13  26  13  27  13
M  ISO  8  28  13  29  13  30  14  31  14  32  14  33  14  34  14  35  14
M  ISO  1  36  14
M  END
>  <minimizedAffinity>  (1) 
-7.22455454

>  <minimizedRMSD>  (1) 
1.14706528

$$$$
