
     RDKit          3D

 48 51  0  0  1  0  0  0  0  0999 V2000
   35.1440   30.2500   50.0980 C   0  0  2  0  0  0  0  0  0  0  0  0
   36.0750   31.1970   49.4390 C   0  0  0  0  0  0  0  0  0  0  0  0
   37.5360   30.7500   49.5330 C   0  0  2  0  0  0  0  0  0  0  0  0
   37.9980   30.5220   50.9020 C   0  0  0  0  0  0  0  0  0  0  0  0
   36.9640   29.8340   51.7870 C   0  0  0  0  0  0  0  0  0  0  0  0
   35.8520   29.2350   50.9730 C   0  0  0  0  0  0  0  0  0  0  0  0
   38.0910   30.4360   46.6500 Cl  0  0  0  0  0  0  0  0  0  0  0  0
   38.6540   31.8150   47.5790 C   0  0  0  0  0  0  0  0  0  0  0  0
   38.3000   31.8740   48.9170 C   0  0  0  0  0  0  0  0  0  0  0  0
   38.7610   33.0000   49.5440 C   0  0  0  0  0  0  0  0  0  0  0  0
   39.5040   33.9750   48.9120 C   0  0  0  0  0  0  0  0  0  0  0  0
   39.8200   33.8440   47.5660 C   0  0  0  0  0  0  0  0  0  0  0  0
   39.3780   32.7250   46.8810 C   0  0  0  0  0  0  0  0  0  0  0  0
   39.7000   32.5940   45.5150 N   0  0  0  0  0  0  0  0  0  0  0  0
   39.7870   33.6090   44.4710 C   0  0  0  0  0  0  0  0  0  0  0  0
   39.6930   32.7720   43.2000 C   0  0  0  0  0  0  0  0  0  0  0  0
   40.5850   31.5900   43.5840 C   0  0  0  0  0  0  0  0  0  0  0  0
   40.0100   31.2720   44.9620 C   0  0  0  0  0  0  0  0  0  0  0  0
   34.3130   29.4990   49.1430 C   0  0  0  0  0  0  0  0  0  0  0  0
   34.3760   29.9440   47.8220 C   0  0  0  0  0  0  0  0  0  0  0  0
   33.6140   29.2560   46.8690 C   0  0  0  0  0  0  0  0  0  0  0  0
   32.8410   28.1740   47.2800 N   0  0  0  0  0  0  0  0  0  0  0  0
   32.8140   27.7840   48.5720 C   0  0  0  0  0  0  0  0  0  0  0  0
   33.5470   28.4550   49.4610 N   0  0  0  0  0  0  0  0  0  0  0  0
   34.5074   30.8992   50.7171 H   0  0  0  0  0  0  0  0  0  0  0  0
   35.9761   32.1808   49.9211 H   0  0  0  0  0  0  0  0  0  0  0  0
   35.8078   31.2382   48.3727 H   0  0  0  0  0  0  0  0  0  0  0  0
   37.6739   29.7814   49.0302 H   0  0  0  0  0  0  0  0  0  0  0  0
   38.8989   29.8919   50.8649 H   0  0  0  0  0  0  0  0  0  0  0  0
   38.1969   31.5092   51.3447 H   0  0  0  0  0  0  0  0  0  0  0  0
   37.4584   29.0350   52.3590 H   0  0  0  0  0  0  0  0  0  0  0  0
   36.5305   30.5879   52.4606 H   0  0  0  0  0  0  0  0  0  0  0  0
   35.1162   28.7900   51.6590 H   0  0  0  0  0  0  0  0  0  0  0  0
   36.3006   28.4832   50.3070 H   0  0  0  0  0  0  0  0  0  0  0  0
   38.5260   33.1346   50.6102 H   0  0  0  0  0  0  0  0  0  0  0  0
   39.8463   34.8564   49.4741 H   0  0  0  0  0  0  0  0  0  0  0  0
   40.4116   34.6164   47.0527 H   0  0  0  0  0  0  0  0  0  0  0  0
   38.9544   34.3245   44.5399 H   0  0  0  0  0  0  0  0  0  0  0  0
   40.6968   34.2247   44.5282 H   0  0  0  0  0  0  0  0  0  0  0  0
   40.0872   33.3125   42.3268 H   0  0  0  0  0  0  0  0  0  0  0  0
   38.6696   32.4990   42.9033 H   0  0  0  0  0  0  0  0  0  0  0  0
   40.4697   30.7465   42.8874 H   0  0  0  0  0  0  0  0  0  0  0  0
   41.6655   31.7955   43.5654 H   0  0  0  0  0  0  0  0  0  0  0  0
   39.1012   30.6581   44.8770 H   0  0  0  0  0  0  0  0  0  0  0  0
   40.7018   30.6944   45.5928 H   0  0  0  0  0  0  0  0  0  0  0  0
   35.0013   30.8037   47.5393 H   0  0  0  0  0  0  0  0  0  0  0  0
   33.6263   29.5657   45.8136 H   0  0  0  0  0  0  0  0  0  0  0  0
   32.1984   26.9281   48.8858 H   0  0  0  0  0  0  0  0  0  0  0  0
  1  6  1  0
  2  3  1  0
  2  1  1  0
  3  4  1  0
  4  5  1  0
  6  5  1  0
  7  8  1  0
  8  9  2  0
  9  3  1  0
  9 10  1  0
 11 10  2  0
 12 11  1  0
 13 12  2  0
 13  8  1  0
 14 13  1  0
 15 14  1  0
 16 17  1  0
 16 15  1  0
 17 18  1  0
 18 14  1  0
 19 24  1  0
 19  1  1  0
 20 19  2  0
 21 22  2  0
 21 20  1  0
 22 23  1  0
 23 24  2  0
  1 25  1  1
  2 26  1  0
  2 27  1  0
  3 28  1  6
  4 29  1  0
  4 30  1  0
  5 31  1  0
  5 32  1  0
  6 33  1  0
  6 34  1  0
 10 35  1  0
 11 36  1  0
 12 37  1  0
 15 38  1  0
 15 39  1  0
 16 40  1  0
 16 41  1  0
 17 42  1  0
 17 43  1  0
 18 44  1  0
 18 45  1  0
 20 46  1  0
 21 47  1  0
 23 48  1  0
M  ISO  8  25  13  26  13  27  13  28  13  29  13  30  13  31  13  32  13
M  ISO  8  33  13  34  13  35  14  36  14  37  14  38  13  39  13  40  13
M  ISO  8  41  13  42  13  43  13  44  13  45  13  46  14  47  14  48  14
M  END
>  <minimizedAffinity>  (1) 
-7.76591587

>  <minimizedRMSD>  (1) 
0.404945344

$$$$
