
     RDKit          3D

 37 39  0  0  1  0  0  0  0  0999 V2000
   35.3420   30.3770   49.9910 C   0  0  2  0  0  0  0  0  0  0  0  0
   36.2610   31.3590   49.3710 C   0  0  0  0  0  0  0  0  0  0  0  0
   37.7290   30.9090   49.4200 C   0  0  2  0  0  0  0  0  0  0  0  0
   38.2190   30.5930   50.7620 C   0  0  0  0  0  0  0  0  0  0  0  0
   37.1840   29.8910   51.6380 C   0  0  0  0  0  0  0  0  0  0  0  0
   36.0580   29.3310   50.8130 C   0  0  0  0  0  0  0  0  0  0  0  0
   38.5750   30.6090   46.6090 Cl  0  0  0  0  0  0  0  0  0  0  0  0
   38.9580   32.0310   47.5650 C   0  0  0  0  0  0  0  0  0  0  0  0
   38.4750   32.0780   48.8650 C   0  0  0  0  0  0  0  0  0  0  0  0
   38.8030   33.2430   49.5190 C   0  0  0  0  0  0  0  0  0  0  0  0
   39.5380   34.2530   48.9350 C   0  0  0  0  0  0  0  0  0  0  0  0
   39.9860   34.1270   47.6270 C   0  0  0  0  0  0  0  0  0  0  0  0
   39.6840   32.9740   46.9200 C   0  0  0  0  0  0  0  0  0  0  0  0
   40.2550   32.8030   45.2400 S   0  0  0  0  0  0  0  0  0  0  0  0
   34.5060   29.6660   49.0080 C   0  0  0  0  0  0  0  0  0  0  0  0
   34.5130   30.2100   47.7230 C   0  0  0  0  0  0  0  0  0  0  0  0
   33.7430   29.5620   46.7460 C   0  0  0  0  0  0  0  0  0  0  0  0
   33.0230   28.4280   47.0980 N   0  0  0  0  0  0  0  0  0  0  0  0
   33.0490   27.9420   48.3520 C   0  0  0  0  0  0  0  0  0  0  0  0
   33.7890   28.5740   49.2690 N   0  0  0  0  0  0  0  0  0  0  0  0
   34.7069   30.9938   50.6438 H   0  0  0  0  0  0  0  0  0  0  0  0
   36.1678   32.3153   49.9066 H   0  0  0  0  0  0  0  0  0  0  0  0
   35.9783   31.4569   48.3125 H   0  0  0  0  0  0  0  0  0  0  0  0
   37.8613   29.9716   48.8598 H   0  0  0  0  0  0  0  0  0  0  0  0
   39.0970   29.9372   50.6667 H   0  0  0  0  0  0  0  0  0  0  0  0
   38.4629   31.5478   51.2508 H   0  0  0  0  0  0  0  0  0  0  0  0
   37.6730   29.0691   52.1814 H   0  0  0  0  0  0  0  0  0  0  0  0
   36.7665   30.6280   52.3398 H   0  0  0  0  0  0  0  0  0  0  0  0
   35.3299   28.8602   51.4899 H   0  0  0  0  0  0  0  0  0  0  0  0
   36.4975   28.6084   50.1096 H   0  0  0  0  0  0  0  0  0  0  0  0
   38.4629   33.3750   50.5567 H   0  0  0  0  0  0  0  0  0  0  0  0
   39.7704   35.1627   49.5081 H   0  0  0  0  0  0  0  0  0  0  0  0
   40.5724   34.9311   47.1584 H   0  0  0  0  0  0  0  0  0  0  0  0
   41.5674   32.4100   45.2415 H   0  0  0  0  0  0  0  0  0  0  0  0
   35.0986   31.1105   47.4859 H   0  0  0  0  0  0  0  0  0  0  0  0
   33.7100   29.9465   45.7159 H   0  0  0  0  0  0  0  0  0  0  0  0
   32.4733   27.0431   48.6176 H   0  0  0  0  0  0  0  0  0  0  0  0
  1  6  1  0
  2  3  1  0
  2  1  1  0
  3  4  1  0
  4  5  1  0
  6  5  1  0
  7  8  1  0
  8  9  2  0
  9  3  1  0
  9 10  1  0
 11 10  2  0
 12 11  1  0
 13  8  1  0
 13 12  2  0
 14 13  1  0
 15 20  1  0
 15  1  1  0
 16 15  2  0
 17 18  2  0
 17 16  1  0
 18 19  1  0
 19 20  2  0
  1 21  1  1
  2 22  1  0
  2 23  1  0
  3 24  1  6
  4 25  1  0
  4 26  1  0
  5 27  1  0
  5 28  1  0
  6 29  1  0
  6 30  1  0
 10 31  1  0
 11 32  1  0
 12 33  1  0
 14 34  1  0
 16 35  1  0
 17 36  1  0
 19 37  1  0
M  ISO  8  21  13  22  13  23  13  24  13  25  13  26  13  27  13  28  13
M  ISO  8  29  13  30  13  31  14  32  14  33  14  34  11  35  14  36  14
M  ISO  1  37  14
M  END
>  <minimizedAffinity>  (1) 
-7.52518463

>  <minimizedRMSD>  (1) 
0.0494915769

$$$$
