
     RDKit          3D

 41 43  0  0  1  0  0  0  0  0999 V2000
   35.3030   30.2900   49.7230 C   0  0  2  0  0  0  0  0  0  0  0  0
   36.2330   31.2990   49.2340 C   0  0  0  0  0  0  0  0  0  0  0  0
   37.7220   30.8540   49.3630 C   0  0  2  0  0  0  0  0  0  0  0  0
   38.1160   30.5350   50.7160 C   0  0  0  0  0  0  0  0  0  0  0  0
   37.0380   29.8020   51.5160 C   0  0  0  0  0  0  0  0  0  0  0  0
   35.9820   29.2410   50.6110 C   0  0  0  0  0  0  0  0  0  0  0  0
   38.6370   30.6560   46.5650 Cl  0  0  0  0  0  0  0  0  0  0  0  0
   38.9860   32.0390   47.5690 C   0  0  0  0  0  0  0  0  0  0  0  0
   38.4710   32.0380   48.8410 C   0  0  0  0  0  0  0  0  0  0  0  0
   38.7640   33.1860   49.5550 C   0  0  0  0  0  0  0  0  0  0  0  0
   39.5050   34.2340   49.0470 C   0  0  0  0  0  0  0  0  0  0  0  0
   39.9970   34.1560   47.7410 C   0  0  0  0  0  0  0  0  0  0  0  0
   39.7250   33.0170   46.9800 C   0  0  0  0  0  0  0  0  0  0  0  0
   40.2240   32.9390   45.6580 N   0  0  0  0  0  0  0  0  0  0  0  0
   34.5470   29.5560   48.7120 C   0  0  0  0  0  0  0  0  0  0  0  0
   34.9070   29.8490   47.4040 C   0  0  0  0  0  0  0  0  0  0  0  0
   34.2690   29.1820   46.3650 C   0  0  0  0  0  0  0  0  0  0  0  0
   33.2860   28.2410   46.6930 N   0  0  0  0  0  0  0  0  0  0  0  0
   32.9670   27.9890   47.9670 C   0  0  0  0  0  0  0  0  0  0  0  0
   33.6070   28.6530   48.9340 N   0  0  0  0  0  0  0  0  0  0  0  0
   31.9310   27.0010   48.3280 C   0  0  0  0  0  0  0  0  0  0  0  0
   34.5934   30.9123   50.2880 H   0  0  0  0  0  0  0  0  0  0  0  0
   36.0894   32.2218   49.8152 H   0  0  0  0  0  0  0  0  0  0  0  0
   36.0233   31.4559   48.1656 H   0  0  0  0  0  0  0  0  0  0  0  0
   37.9192   29.9216   48.8137 H   0  0  0  0  0  0  0  0  0  0  0  0
   39.0115   29.8974   50.6753 H   0  0  0  0  0  0  0  0  0  0  0  0
   38.3022   31.4900   51.2292 H   0  0  0  0  0  0  0  0  0  0  0  0
   37.5044   28.9790   52.0773 H   0  0  0  0  0  0  0  0  0  0  0  0
   36.5646   30.5189   52.2030 H   0  0  0  0  0  0  0  0  0  0  0  0
   35.2112   28.7627   51.2332 H   0  0  0  0  0  0  0  0  0  0  0  0
   36.4833   28.5297   49.9382 H   0  0  0  0  0  0  0  0  0  0  0  0
   38.3856   33.2683   50.5846 H   0  0  0  0  0  0  0  0  0  0  0  0
   39.7064   35.1221   49.6641 H   0  0  0  0  0  0  0  0  0  0  0  0
   40.5902   34.9803   47.3185 H   0  0  0  0  0  0  0  0  0  0  0  0
   40.7783   33.7156   45.2701 H   0  0  0  0  0  0  0  0  0  0  0  0
   40.0329   32.1056   45.0837 H   0  0  0  0  0  0  0  0  0  0  0  0
   35.6851   30.5974   47.1930 H   0  0  0  0  0  0  0  0  0  0  0  0
   34.5288   29.3874   45.3160 H   0  0  0  0  0  0  0  0  0  0  0  0
   31.8572   26.9306   49.4233 H   0  0  0  0  0  0  0  0  0  0  0  0
   30.9621   27.3181   47.9148 H   0  0  0  0  0  0  0  0  0  0  0  0
   32.2018   26.0182   47.9148 H   0  0  0  0  0  0  0  0  0  0  0  0
  1  6  1  0
  2  3  1  0
  2  1  1  0
  3  4  1  0
  4  5  1  0
  6  5  1  0
  7  8  1  0
  8  9  2  0
  9  3  1  0
  9 10  1  0
 11 10  2  0
 12 11  1  0
 13  8  1  0
 13 12  2  0
 14 13  1  0
 15 20  1  0
 15  1  1  0
 16 15  2  0
 17 18  2  0
 17 16  1  0
 18 19  1  0
 19 21  1  0
 19 20  2  0
  1 22  1  1
  2 23  1  0
  2 24  1  0
  3 25  1  6
  4 26  1  0
  4 27  1  0
  5 28  1  0
  5 29  1  0
  6 30  1  0
  6 31  1  0
 10 32  1  0
 11 33  1  0
 12 34  1  0
 14 35  1  0
 14 36  1  0
 16 37  1  0
 17 38  1  0
 21 39  1  0
 21 40  1  0
 21 41  1  0
M  ISO  8  22  13  23  13  24  13  25  13  26  13  27  13  28  13  29  13
M  ISO  8  30  13  31  13  32  14  33  14  34  14  37  14  38  14  39   8
M  ISO  2  40   8  41   8
M  END
>  <minimizedAffinity>  (1) 
-7.68478918

>  <minimizedRMSD>  (1) 
0.321167707

$$$$
