
     RDKit          3D

 40 42  0  0  1  0  0  0  0  0999 V2000
   35.2870   30.3880   49.8470 C   0  0  2  0  0  0  0  0  0  0  0  0
   36.2230   31.3820   49.3380 C   0  0  0  0  0  0  0  0  0  0  0  0
   37.7030   30.8920   49.3800 C   0  0  2  0  0  0  0  0  0  0  0  0
   38.1530   30.5240   50.6990 C   0  0  0  0  0  0  0  0  0  0  0  0
   37.0990   29.7920   51.5290 C   0  0  0  0  0  0  0  0  0  0  0  0
   35.9800   29.2910   50.6660 C   0  0  0  0  0  0  0  0  0  0  0  0
   34.4600   29.7070   48.8550 C   0  0  0  0  0  0  0  0  0  0  0  0
   34.6060   30.1900   47.5640 C   0  0  0  0  0  0  0  0  0  0  0  0
   33.8830   29.5910   46.5380 C   0  0  0  0  0  0  0  0  0  0  0  0
   33.0390   28.5240   46.8630 N   0  0  0  0  0  0  0  0  0  0  0  0
   32.9250   28.0870   48.1220 C   0  0  0  0  0  0  0  0  0  0  0  0
   33.6380   28.6930   49.0710 N   0  0  0  0  0  0  0  0  0  0  0  0
   32.0640   27.0030   48.4420 N   0  0  0  0  0  0  0  0  0  0  0  0
   38.6110   30.6740   46.5790 Cl  0  0  0  0  0  0  0  0  0  0  0  0
   38.9780   32.0550   47.5790 C   0  0  0  0  0  0  0  0  0  0  0  0
   38.4610   32.0670   48.8490 C   0  0  0  0  0  0  0  0  0  0  0  0
   38.7650   33.2140   49.5580 C   0  0  0  0  0  0  0  0  0  0  0  0
   39.5190   34.2510   49.0460 C   0  0  0  0  0  0  0  0  0  0  0  0
   40.0110   34.1590   47.7430 C   0  0  0  0  0  0  0  0  0  0  0  0
   39.7260   33.0190   46.9920 C   0  0  0  0  0  0  0  0  0  0  0  0
   40.2310   32.9280   45.6660 N   0  0  0  0  0  0  0  0  0  0  0  0
   34.6267   31.0127   50.4665 H   0  0  0  0  0  0  0  0  0  0  0  0
   36.1363   32.2925   49.9491 H   0  0  0  0  0  0  0  0  0  0  0  0
   35.9658   31.5724   48.2856 H   0  0  0  0  0  0  0  0  0  0  0  0
   37.8450   29.9696   48.7977 H   0  0  0  0  0  0  0  0  0  0  0  0
   39.0299   29.8680   50.5957 H   0  0  0  0  0  0  0  0  0  0  0  0
   38.3863   31.4587   51.2300 H   0  0  0  0  0  0  0  0  0  0  0  0
   37.5714   28.9375   52.0356 H   0  0  0  0  0  0  0  0  0  0  0  0
   36.6830   30.4973   52.2635 H   0  0  0  0  0  0  0  0  0  0  0  0
   35.2288   28.8160   51.3142 H   0  0  0  0  0  0  0  0  0  0  0  0
   36.4228   28.5869   49.9462 H   0  0  0  0  0  0  0  0  0  0  0  0
   35.2818   31.0323   47.3547 H   0  0  0  0  0  0  0  0  0  0  0  0
   33.9723   29.9461   45.5007 H   0  0  0  0  0  0  0  0  0  0  0  0
   31.9863   26.6772   49.4160 H   0  0  0  0  0  0  0  0  0  0  0  0
   31.5175   26.5430   47.7000 H   0  0  0  0  0  0  0  0  0  0  0  0
   38.3854   33.3055   50.5864 H   0  0  0  0  0  0  0  0  0  0  0  0
   39.7298   35.1402   49.6583 H   0  0  0  0  0  0  0  0  0  0  0  0
   40.6143   34.9732   47.3151 H   0  0  0  0  0  0  0  0  0  0  0  0
   40.7949   33.6965   45.2758 H   0  0  0  0  0  0  0  0  0  0  0  0
   40.0329   32.0935   45.0956 H   0  0  0  0  0  0  0  0  0  0  0  0
  1  6  1  0
  2  3  1  0
  2  1  1  0
  3  4  1  0
  4  5  1  0
  6  5  1  0
  7 12  1  0
  7  1  1  0
  8  7  2  0
  9 10  2  0
  9  8  1  0
 10 11  1  0
 11 13  1  0
 11 12  2  0
 14 15  1  0
 15 16  2  0
 16  3  1  0
 16 17  1  0
 18 17  2  0
 19 18  1  0
 20 15  1  0
 20 19  2  0
 21 20  1  0
  1 22  1  1
  2 23  1  0
  2 24  1  0
  3 25  1  6
  4 26  1  0
  4 27  1  0
  5 28  1  0
  5 29  1  0
  6 30  1  0
  6 31  1  0
  8 32  1  0
  9 33  1  0
 13 34  1  0
 13 35  1  0
 17 36  1  0
 18 37  1  0
 19 38  1  0
 21 39  1  0
 21 40  1  0
M  ISO  8  22  13  23  13  24  13  25  13  26  13  27  13  28  13  29  13
M  ISO  7  30  13  31  13  32  14  33  14  36  14  37  14  38  14
M  END
>  <minimizedAffinity>  (1) 
-7.62163067

>  <minimizedRMSD>  (1) 
0.173401847

$$$$
