
     RDKit          3D

 39 41  0  0  1  0  0  0  0  0999 V2000
   35.3000   30.2630   49.7520 C   0  0  2  0  0  0  0  0  0  0  0  0
   36.2120   31.3140   49.3230 C   0  0  0  0  0  0  0  0  0  0  0  0
   37.7080   30.8970   49.4420 C   0  0  2  0  0  0  0  0  0  0  0  0
   38.0980   30.5220   50.7820 C   0  0  0  0  0  0  0  0  0  0  0  0
   37.0320   29.7250   51.5330 C   0  0  0  0  0  0  0  0  0  0  0  0
   36.0000   29.1820   50.5880 C   0  0  0  0  0  0  0  0  0  0  0  0
   38.4770   30.9300   46.5920 Cl  0  0  0  0  0  0  0  0  0  0  0  0
   38.8890   32.2240   47.6890 C   0  0  0  0  0  0  0  0  0  0  0  0
   38.4390   32.1150   48.9810 C   0  0  0  0  0  0  0  0  0  0  0  0
   38.7780   33.1970   49.7740 C   0  0  0  0  0  0  0  0  0  0  0  0
   39.5010   34.2820   49.3180 C   0  0  0  0  0  0  0  0  0  0  0  0
   39.9220   34.3130   47.9860 C   0  0  0  0  0  0  0  0  0  0  0  0
   39.6020   33.2460   47.1520 C   0  0  0  0  0  0  0  0  0  0  0  0
   40.0310   33.2780   45.7990 N   0  0  0  0  0  0  0  0  0  0  0  0
   34.5680   29.5640   48.6990 C   0  0  0  0  0  0  0  0  0  0  0  0
   34.9700   29.8900   47.4120 C   0  0  0  0  0  0  0  0  0  0  0  0
   34.3530   29.2560   46.3380 C   0  0  0  0  0  0  0  0  0  0  0  0
   33.3580   28.3220   46.6080 N   0  0  0  0  0  0  0  0  0  0  0  0
   32.9920   28.0290   47.8690 C   0  0  0  0  0  0  0  0  0  0  0  0
   33.6140   28.6640   48.8690 N   0  0  0  0  0  0  0  0  0  0  0  0
   31.7110   26.8270   48.1890 S   0  0  0  0  0  0  0  0  0  0  0  0
   34.5725   30.8400   50.3418 H   0  0  0  0  0  0  0  0  0  0  0  0
   36.0436   32.2030   49.9485 H   0  0  0  0  0  0  0  0  0  0  0  0
   36.0075   31.5187   48.2617 H   0  0  0  0  0  0  0  0  0  0  0  0
   37.9278   29.9967   48.8494 H   0  0  0  0  0  0  0  0  0  0  0  0
   39.0095   29.9095   50.7196 H   0  0  0  0  0  0  0  0  0  0  0  0
   38.2560   31.4548   51.3432 H   0  0  0  0  0  0  0  0  0  0  0  0
   37.5134   28.8877   52.0595 H   0  0  0  0  0  0  0  0  0  0  0  0
   36.5333   30.3951   52.2487 H   0  0  0  0  0  0  0  0  0  0  0  0
   35.2376   28.6489   51.1751 H   0  0  0  0  0  0  0  0  0  0  0  0
   36.5253   28.5203   49.8835 H   0  0  0  0  0  0  0  0  0  0  0  0
   38.4540   33.1929   50.8252 H   0  0  0  0  0  0  0  0  0  0  0  0
   39.7429   35.1133   49.9966 H   0  0  0  0  0  0  0  0  0  0  0  0
   40.4978   35.1681   47.6024 H   0  0  0  0  0  0  0  0  0  0  0  0
   40.5703   34.0826   45.4486 H   0  0  0  0  0  0  0  0  0  0  0  0
   39.8030   32.4967   45.1678 H   0  0  0  0  0  0  0  0  0  0  0  0
   35.7613   30.6353   47.2437 H   0  0  0  0  0  0  0  0  0  0  0  0
   34.6443   29.4872   45.3028 H   0  0  0  0  0  0  0  0  0  0  0  0
   31.5522   26.6780   49.5416 H   0  0  0  0  0  0  0  0  0  0  0  0
  1  6  1  0
  2  3  1  0
  2  1  1  0
  3  4  1  0
  4  5  1  0
  6  5  1  0
  7  8  1  0
  8  9  2  0
  9  3  1  0
  9 10  1  0
 11 10  2  0
 12 11  1  0
 13  8  1  0
 13 12  2  0
 14 13  1  0
 15 20  1  0
 15  1  1  0
 16 15  2  0
 17 18  2  0
 17 16  1  0
 18 19  1  0
 19 21  1  0
 19 20  2  0
  1 22  1  1
  2 23  1  0
  2 24  1  0
  3 25  1  6
  4 26  1  0
  4 27  1  0
  5 28  1  0
  5 29  1  0
  6 30  1  0
  6 31  1  0
 10 32  1  0
 11 33  1  0
 12 34  1  0
 14 35  1  0
 14 36  1  0
 16 37  1  0
 17 38  1  0
 21 39  1  0
M  ISO  8  22  13  23  13  24  13  25  13  26  13  27  13  28  13  29  13
M  ISO  8  30  13  31  13  32  14  33  14  34  14  37  14  38  14  39  11
M  END
>  <minimizedAffinity>  (1) 
-7.53190184

>  <minimizedRMSD>  (1) 
0.408798873

$$$$
