
     RDKit          3D

 34 36  0  0  0  0  0  0  0  0999 V2000
   37.0910   30.9790   44.1810 Cl  0  0  0  0  0  0  0  0  0  0  0  0
   38.3600   31.9210   44.9170 C   0  0  0  0  0  0  0  0  0  0  0  0
   38.4040   32.0100   46.2740 C   0  0  0  0  0  0  0  0  0  0  0  0
   39.4430   32.7770   46.7930 C   0  0  0  0  0  0  0  0  0  0  0  0
   40.3690   33.4060   45.9670 C   0  0  0  0  0  0  0  0  0  0  0  0
   40.2700   33.2770   44.6010 C   0  0  0  0  0  0  0  0  0  0  0  0
   39.2310   32.5100   44.0610 C   0  0  0  0  0  0  0  0  0  0  0  0
   37.5260   31.5540   48.5610 C   0  0  0  0  0  0  0  0  0  0  0  0
   37.4580   31.3690   47.1810 C   0  0  0  0  0  0  0  0  0  0  0  0
   36.4440   30.5420   46.6990 C   0  0  0  0  0  0  0  0  0  0  0  0
   35.5920   29.9740   47.5980 N   0  0  0  0  0  0  0  0  0  0  0  0
   35.6820   30.1700   48.9090 C   0  0  0  0  0  0  0  0  0  0  0  0
   36.6490   30.9610   49.3850 N   0  0  0  0  0  0  0  0  0  0  0  0
   35.1820   29.2480   51.1760 C   0  0  0  0  0  0  0  0  0  0  0  0
   36.3760   29.4870   51.5620 O   0  0  0  0  0  0  0  0  0  0  0  0
   34.7930   29.5760   49.8470 N   0  0  0  0  0  0  0  0  0  0  0  0
   40.7500   30.2470   42.9620 Cl  0  0  0  0  0  0  0  0  0  0  0  0
   39.8950   31.4140   41.9970 C   0  0  0  0  0  0  0  0  0  0  0  0
   39.2150   32.4360   42.6230 C   0  0  0  0  0  0  0  0  0  0  0  0
   38.5310   33.3710   41.8630 C   0  0  0  0  0  0  0  0  0  0  0  0
   38.5420   33.2610   40.4720 C   0  0  0  0  0  0  0  0  0  0  0  0
   39.2370   32.2190   39.8670 C   0  0  0  0  0  0  0  0  0  0  0  0
   39.2420   32.0940   38.1040 Cl  0  0  0  0  0  0  0  0  0  0  0  0
   39.9200   31.2860   40.6180 C   0  0  0  0  0  0  0  0  0  0  0  0
   39.5342   32.8886   47.8835 H   0  0  0  0  0  0  0  0  0  0  0  0
   41.1798   34.0061   46.4059 H   0  0  0  0  0  0  0  0  0  0  0  0
   40.9985   33.7706   43.9410 H   0  0  0  0  0  0  0  0  0  0  0  0
   38.3126   32.1976   48.9817 H   0  0  0  0  0  0  0  0  0  0  0  0
   36.3347   30.3530   45.6209 H   0  0  0  0  0  0  0  0  0  0  0  0
   34.4584   28.7911   51.8672 H   0  0  0  0  0  0  0  0  0  0  0  0
   33.8269   29.3748   49.5519 H   0  0  0  0  0  0  0  0  0  0  0  0
   37.9849   34.1916   42.3512 H   0  0  0  0  0  0  0  0  0  0  0  0
   38.0029   33.9958   39.8560 H   0  0  0  0  0  0  0  0  0  0  0  0
   40.4690   30.4637   40.1359 H   0  0  0  0  0  0  0  0  0  0  0  0
  1  2  1  0
  2  3  2  0
  3  4  1  0
  3  9  1  0
  5  4  2  0
  6  5  1  0
  7  6  2  0
  7  2  1  0
  8 13  2  0
  9  8  1  0
 10  9  2  0
 10 11  1  0
 11 12  2  0
 12 13  1  0
 12 16  1  0
 14 15  2  0
 16 14  1  0
 18 19  2  0
 18 17  1  0
 19  7  1  0
 20 19  1  0
 21 20  2  0
 22 21  1  0
 22 24  2  0
 23 22  1  0
 24 18  1  0
  4 25  1  0
  5 26  1  0
  6 27  1  0
  8 28  1  0
 10 29  1  0
 14 30  1  0
 16 31  1  0
 20 32  1  0
 21 33  1  0
 24 34  1  0
M  ISO  8  25  14  26  14  27  14  28  14  29  14  30   6  32  14  33  14
M  ISO  1  34  14
M  END
>  <minimizedAffinity>  (1) 
-6.29232359

>  <minimizedRMSD>  (1) 
2.58587742

$$$$
