
     RDKit          3D

 28 29  0  0  1  0  0  0  0  0999 V2000
   38.3440   32.5400   46.6590 N   0  0  0  0  0  0  0  0  0  0  0  0
   37.3660   31.5060   46.7950 C   0  0  1  0  0  0  0  0  0  0  0  0
   37.3200   30.6540   45.5540 C   0  0  0  0  0  0  0  0  0  0  0  0
   38.6300   30.0830   45.3630 N   0  0  0  0  0  0  0  0  0  0  0  0
   39.4910   31.2010   44.9930 C   0  0  0  0  0  0  0  0  0  0  0  0
   39.6340   32.0440   46.2530 C   0  0  1  0  0  0  0  0  0  0  0  0
   40.4400   33.2720   45.8170 C   0  0  0  0  0  0  0  0  0  0  0  0
   41.6500   32.9210   45.2840 F   0  0  0  0  0  0  0  0  0  0  0  0
   39.7390   33.8970   44.7770 F   0  0  0  0  0  0  0  0  0  0  0  0
   40.5250   34.2070   46.8340 F   0  0  0  0  0  0  0  0  0  0  0  0
   37.7560   30.3540   48.1700 S   0  0  0  0  0  0  0  0  0  0  0  0
   34.8190   29.1980   50.7250 C   0  0  0  0  0  0  0  0  0  0  0  0
   36.0630   29.6620   50.2850 C   0  0  0  0  0  0  0  0  0  0  0  0
   36.2480   29.7820   48.9240 C   0  0  0  0  0  0  0  0  0  0  0  0
   35.2140   29.4450   48.0740 N   0  0  0  0  0  0  0  0  0  0  0  0
   34.0480   29.0070   48.5430 C   0  0  0  0  0  0  0  0  0  0  0  0
   33.8330   28.8770   49.8730 N   0  0  0  0  0  0  0  0  0  0  0  0
   38.0140   33.2132   45.9528 H   0  0  0  0  0  0  0  0  0  0  0  0
   36.4133   32.0231   46.9822 H   0  0  0  0  0  0  0  0  0  0  0  0
   36.5768   29.8525   45.6776 H   0  0  0  0  0  0  0  0  0  0  0  0
   37.0341   31.2603   44.6819 H   0  0  0  0  0  0  0  0  0  0  0  0
   38.9625   29.6452   46.2340 H   0  0  0  0  0  0  0  0  0  0  0  0
   40.4743   30.8351   44.6625 H   0  0  0  0  0  0  0  0  0  0  0  0
   39.0672   31.7824   44.1609 H   0  0  0  0  0  0  0  0  0  0  0  0
   40.0891   31.4625   47.0683 H   0  0  0  0  0  0  0  0  0  0  0  0
   34.6429   29.0927   51.8057 H   0  0  0  0  0  0  0  0  0  0  0  0
   36.8614   29.9207   50.9960 H   0  0  0  0  0  0  0  0  0  0  0  0
   33.2452   28.7462   47.8376 H   0  0  0  0  0  0  0  0  0  0  0  0
  1  2  1  0
  2 11  1  0
  3  2  1  0
  4  3  1  0
  5  4  1  0
  5  6  1  0
  6  1  1  0
  7  6  1  0
  7 10  1  0
  8  7  1  0
  9  7  1  0
 11 14  1  0
 13 12  2  0
 14 13  1  0
 15 16  1  0
 15 14  2  0
 16 17  2  0
 17 12  1  0
  1 18  1  0
  2 19  1  1
  3 20  1  0
  3 21  1  0
  4 22  1  0
  5 23  1  0
  5 24  1  0
  6 25  1  1
 12 26  1  0
 13 27  1  0
 16 28  1  0
M  ISO  8  18   5  19  13  20  13  21  13  22   5  23  13  24  13  25  13
M  ISO  3  26  14  27  14  28  14
M  END
>  <minimizedAffinity>  (1) 
-4.74776411

>  <minimizedRMSD>  (1) 
1.98546934

$$$$
