
     RDKit          3D

 32 34  0  0  0  0  0  0  0  0999 V2000
   37.5890   30.4160   46.2790 Cl  0  0  0  0  0  0  0  0  0  0  0  0
   38.4120   31.7870   46.9640 C   0  0  0  0  0  0  0  0  0  0  0  0
   38.2440   32.0600   48.2840 C   0  0  0  0  0  0  0  0  0  0  0  0
   38.9420   33.1810   48.7560 C   0  0  0  0  0  0  0  0  0  0  0  0
   39.7380   33.9440   47.9250 C   0  0  0  0  0  0  0  0  0  0  0  0
   39.8680   33.6130   46.5860 C   0  0  0  0  0  0  0  0  0  0  0  0
   39.1810   32.5020   46.1050 C   0  0  0  0  0  0  0  0  0  0  0  0
   41.4500   30.7330   45.5280 Cl  0  0  0  0  0  0  0  0  0  0  0  0
   40.4090   31.4260   44.3070 C   0  0  0  0  0  0  0  0  0  0  0  0
   39.3780   32.2390   44.7000 C   0  0  0  0  0  0  0  0  0  0  0  0
   38.5480   32.7930   43.7290 C   0  0  0  0  0  0  0  0  0  0  0  0
   38.7910   32.5020   42.3860 C   0  0  0  0  0  0  0  0  0  0  0  0
   39.8560   31.6650   42.0230 C   0  0  0  0  0  0  0  0  0  0  0  0
   40.1040   31.3400   40.3180 Cl  0  0  0  0  0  0  0  0  0  0  0  0
   40.6690   31.1240   42.9780 C   0  0  0  0  0  0  0  0  0  0  0  0
   37.9340   30.7380   50.3680 C   0  0  0  0  0  0  0  0  0  0  0  0
   37.4210   31.2900   49.1960 C   0  0  0  0  0  0  0  0  0  0  0  0
   36.0690   31.0720   48.9300 C   0  0  0  0  0  0  0  0  0  0  0  0
   35.3250   30.3430   49.8110 N   0  0  0  0  0  0  0  0  0  0  0  0
   35.8640   29.8290   50.9300 C   0  0  0  0  0  0  0  0  0  0  0  0
   37.1590   30.0250   51.2070 N   0  0  0  0  0  0  0  0  0  0  0  0
   35.0480   29.0760   51.8200 N   0  0  0  0  0  0  0  0  0  0  0  0
   38.8530   33.4598   49.8164 H   0  0  0  0  0  0  0  0  0  0  0  0
   40.2710   34.8180   48.3276 H   0  0  0  0  0  0  0  0  0  0  0  0
   40.5006   34.2152   45.9173 H   0  0  0  0  0  0  0  0  0  0  0  0
   37.7137   33.4499   44.0161 H   0  0  0  0  0  0  0  0  0  0  0  0
   38.1434   32.9317   41.6076 H   0  0  0  0  0  0  0  0  0  0  0  0
   41.5067   30.4671   42.7011 H   0  0  0  0  0  0  0  0  0  0  0  0
   38.9958   30.8881   50.6133 H   0  0  0  0  0  0  0  0  0  0  0  0
   35.6079   31.4834   48.0199 H   0  0  0  0  0  0  0  0  0  0  0  0
   35.4537   28.6789   52.6794 H   0  0  0  0  0  0  0  0  0  0  0  0
   34.0517   28.9280   51.6048 H   0  0  0  0  0  0  0  0  0  0  0  0
  1  2  1  0
  2  3  2  0
  3  4  1  0
  3 17  1  0
  5  4  2  0
  6  5  1  0
  7  6  2  0
  7  2  1  0
  9 10  2  0
  9  8  1  0
 10  7  1  0
 11 10  1  0
 12 11  2  0
 13 12  1  0
 13 15  2  0
 14 13  1  0
 15  9  1  0
 16 21  2  0
 17 16  1  0
 18 17  2  0
 18 19  1  0
 19 20  2  0
 20 21  1  0
 20 22  1  0
  4 23  1  0
  5 24  1  0
  6 25  1  0
 11 26  1  0
 12 27  1  0
 15 28  1  0
 16 29  1  0
 18 30  1  0
 22 31  1  0
 22 32  1  0
M  ISO  8  23  14  24  14  25  14  26  14  27  14  28  14  29  14  30  14
M  END
>  <minimizedAffinity>  (1) 
-5.86586905

>  <minimizedRMSD>  (1) 
0.529358864

$$$$
