
     RDKit          3D

 34 36  0  0  0  0  0  0  0  0999 V2000
   34.6960   28.7120   49.7140 C   0  0  0  0  0  0  0  0  0  0  0  0
   33.5780   28.1050   48.9240 C   0  0  0  0  0  0  0  0  0  0  0  0
   33.8880   27.4440   47.6800 C   0  0  0  0  0  0  0  0  0  0  0  0
   32.2800   26.9140   47.1480 S   0  0  0  0  0  0  0  0  0  0  0  0
   31.4160   27.6400   48.6450 C   0  0  0  0  0  0  0  0  0  0  0  0
   32.3180   28.1190   49.2630 N   0  0  0  0  0  0  0  0  0  0  0  0
   29.9600   27.6740   49.0690 N   0  0  0  0  0  0  0  0  0  0  0  0
   29.2400   26.9540   50.0630 C   0  0  0  0  0  0  0  0  0  0  0  0
   28.3180   28.0280   50.6470 C   0  0  0  0  0  0  0  0  0  0  0  0
   28.3920   29.2060   49.6900 C   0  0  0  0  0  0  0  0  0  0  0  0
   29.0070   28.5370   48.4550 C   0  0  0  0  0  0  0  0  0  0  0  0
   34.6470   30.1960   49.7040 C   0  0  0  0  0  0  0  0  0  0  0  0
   37.7440   32.2510   49.5120 C   0  0  0  0  0  0  0  0  0  0  0  0
   38.4280   31.6660   48.4250 C   0  0  0  0  0  0  0  0  0  0  0  0
   37.8220   30.5830   47.7790 C   0  0  0  0  0  0  0  0  0  0  0  0
   36.6160   30.1530   48.2250 N   0  0  0  0  0  0  0  0  0  0  0  0
   35.9990   30.7510   49.2780 C   0  0  0  0  0  0  0  0  0  0  0  0
   36.5550   31.7790   49.9050 N   0  0  0  0  0  0  0  0  0  0  0  0
   34.6256   28.3620   50.7545 H   0  0  0  0  0  0  0  0  0  0  0  0
   35.6445   28.4018   49.2512 H   0  0  0  0  0  0  0  0  0  0  0  0
   34.8632   27.3051   47.1905 H   0  0  0  0  0  0  0  0  0  0  0  0
   28.6605   26.1322   49.6171 H   0  0  0  0  0  0  0  0  0  0  0  0
   29.8869   26.4760   50.8133 H   0  0  0  0  0  0  0  0  0  0  0  0
   27.2862   27.6523   50.7122 H   0  0  0  0  0  0  0  0  0  0  0  0
   28.6247   28.3140   51.6639 H   0  0  0  0  0  0  0  0  0  0  0  0
   27.3940   29.6148   49.4738 H   0  0  0  0  0  0  0  0  0  0  0  0
   28.9607   30.0668   50.0715 H   0  0  0  0  0  0  0  0  0  0  0  0
   29.4915   29.2717   47.7951 H   0  0  0  0  0  0  0  0  0  0  0  0
   28.2822   28.0268   47.8036 H   0  0  0  0  0  0  0  0  0  0  0  0
   33.8745   30.5316   48.9964 H   0  0  0  0  0  0  0  0  0  0  0  0
   34.4058   30.5594   50.7138 H   0  0  0  0  0  0  0  0  0  0  0  0
   38.1930   33.1040   50.0419 H   0  0  0  0  0  0  0  0  0  0  0  0
   39.4055   32.0489   48.0964 H   0  0  0  0  0  0  0  0  0  0  0  0
   38.3137   30.0907   46.9270 H   0  0  0  0  0  0  0  0  0  0  0  0
  2  6  1  0
  2  1  1  0
  3  2  2  0
  4  3  1  0
  4  5  1  0
  5  7  1  0
  5  6  2  0
  7  8  1  0
  8  9  1  0
 10  9  1  0
 11  7  1  0
 11 10  1  0
 12  1  1  0
 13 18  2  0
 14 13  1  0
 15 16  1  0
 15 14  2  0
 16 17  2  0
 17 12  1  0
 17 18  1  0
  1 19  1  0
  1 20  1  0
  3 21  1  0
  8 22  1  0
  8 23  1  0
  9 24  1  0
  9 25  1  0
 10 26  1  0
 10 27  1  0
 11 28  1  0
 11 29  1  0
 12 30  1  0
 12 31  1  0
 13 32  1  0
 14 33  1  0
 15 34  1  0
M  ISO  8  19   8  20   8  21  14  22  13  23  13  24  13  25  13  26  13
M  ISO  8  27  13  28  13  29  13  30   8  31   8  32  14  33  14  34  14
M  END
>  <minimizedAffinity>  (1) 
-5.43865204

>  <minimizedRMSD>  (1) 
2.02541471

$$$$
