
     RDKit          3D

 28 30  0  0  0  0  0  0  0  0999 V2000
   34.9730   28.5190   49.3400 C   0  0  0  0  0  0  0  0  0  0  0  0
   33.7040   28.1680   48.6090 C   0  0  0  0  0  0  0  0  0  0  0  0
   33.7640   28.0140   47.1760 C   0  0  0  0  0  0  0  0  0  0  0  0
   32.0650   27.6180   46.8220 S   0  0  0  0  0  0  0  0  0  0  0  0
   31.5330   27.7160   48.6140 C   0  0  0  0  0  0  0  0  0  0  0  0
   32.5460   27.9940   49.1830 N   0  0  0  0  0  0  0  0  0  0  0  0
   30.0570   27.4400   48.8850 C   0  0  0  0  0  0  0  0  0  0  0  0
   29.0950   27.2600   47.9690 C   0  0  0  0  0  0  0  0  0  0  0  0
   27.6260   26.9860   48.9960 S   0  0  0  0  0  0  0  0  0  0  0  0
   28.6490   27.1780   50.5840 C   0  0  0  0  0  0  0  0  0  0  0  0
   29.7050   27.3750   50.1540 N   0  0  0  0  0  0  0  0  0  0  0  0
   34.9790   29.9090   49.8460 C   0  0  0  0  0  0  0  0  0  0  0  0
   37.7180   32.3970   49.4690 C   0  0  0  0  0  0  0  0  0  0  0  0
   38.4470   31.8780   48.3890 C   0  0  0  0  0  0  0  0  0  0  0  0
   37.9920   30.6910   47.8080 C   0  0  0  0  0  0  0  0  0  0  0  0
   36.8800   30.0940   48.3040 N   0  0  0  0  0  0  0  0  0  0  0  0
   36.2140   30.6400   49.3500 C   0  0  0  0  0  0  0  0  0  0  0  0
   36.6210   31.7620   49.9200 N   0  0  0  0  0  0  0  0  0  0  0  0
   35.8214   28.3923   48.6515 H   0  0  0  0  0  0  0  0  0  0  0  0
   35.0491   27.8502   50.2100 H   0  0  0  0  0  0  0  0  0  0  0  0
   34.6204   28.1135   46.4928 H   0  0  0  0  0  0  0  0  0  0  0  0
   29.1762   27.2748   46.8721 H   0  0  0  0  0  0  0  0  0  0  0  0
   28.3243   27.1179   51.6333 H   0  0  0  0  0  0  0  0  0  0  0  0
   34.0792   30.4304   49.4876 H   0  0  0  0  0  0  0  0  0  0  0  0
   34.9886   29.8915   50.9458 H   0  0  0  0  0  0  0  0  0  0  0  0
   38.0456   33.3300   49.9508 H   0  0  0  0  0  0  0  0  0  0  0  0
   39.3460   32.3877   48.0122 H   0  0  0  0  0  0  0  0  0  0  0  0
   38.5299   30.2460   46.9579 H   0  0  0  0  0  0  0  0  0  0  0  0
  1 12  1  0
  2  6  1  0
  2  1  1  0
  3  2  2  0
  4  3  1  0
  4  5  1  0
  5  7  1  0
  5  6  2  0
  7 11  1  0
  8  7  2  0
  8  9  1  0
  9 10  1  0
 11 10  2  0
 13 18  2  0
 14 13  1  0
 15 16  1  0
 15 14  2  0
 16 17  2  0
 17 12  1  0
 17 18  1  0
  1 19  1  0
  1 20  1  0
  3 21  1  0
  8 22  1  0
 10 23  1  0
 12 24  1  0
 12 25  1  0
 13 26  1  0
 14 27  1  0
 15 28  1  0
M  ISO  8  19   8  20   8  21  14  22  14  23  14  24   8  25   8  26  14
M  ISO  2  27  14  28  14
M  END
>  <minimizedAffinity>  (1) 
-5.14924812

>  <minimizedRMSD>  (1) 
1.48245823

$$$$
