
     RDKit          3D

 29 31  0  0  0  0  0  0  0  0999 V2000
   35.7030   28.8300   49.3220 C   0  0  0  0  0  0  0  0  0  0  0  0
   34.3890   28.6040   48.6300 C   0  0  0  0  0  0  0  0  0  0  0  0
   34.3340   28.7980   47.1840 C   0  0  0  0  0  0  0  0  0  0  0  0
   32.6290   28.4250   46.8660 S   0  0  0  0  0  0  0  0  0  0  0  0
   32.2370   28.0720   48.6630 C   0  0  0  0  0  0  0  0  0  0  0  0
   33.2800   28.2470   49.2200 N   0  0  0  0  0  0  0  0  0  0  0  0
   30.7960   27.6720   49.0010 C   0  0  0  0  0  0  0  0  0  0  0  0
   29.9330   26.9640   48.2320 C   0  0  0  0  0  0  0  0  0  0  0  0
   28.7880   26.9040   49.0360 C   0  0  0  0  0  0  0  0  0  0  0  0
   29.1030   27.5940   50.2100 C   0  0  0  0  0  0  0  0  0  0  0  0
   30.3400   28.0450   50.1440 O   0  0  0  0  0  0  0  0  0  0  0  0
   35.7590   30.1510   49.9880 C   0  0  0  0  0  0  0  0  0  0  0  0
   38.0410   32.9630   49.1900 C   0  0  0  0  0  0  0  0  0  0  0  0
   38.7390   32.5020   48.0760 C   0  0  0  0  0  0  0  0  0  0  0  0
   38.4110   31.2240   47.6130 C   0  0  0  0  0  0  0  0  0  0  0  0
   37.4540   30.5170   48.2590 N   0  0  0  0  0  0  0  0  0  0  0  0
   36.8110   31.0240   49.3410 C   0  0  0  0  0  0  0  0  0  0  0  0
   37.0850   32.2370   49.8230 N   0  0  0  0  0  0  0  0  0  0  0  0
   36.5108   28.7730   48.5776 H   0  0  0  0  0  0  0  0  0  0  0  0
   35.8181   28.0550   50.0941 H   0  0  0  0  0  0  0  0  0  0  0  0
   35.1300   29.0938   46.4848 H   0  0  0  0  0  0  0  0  0  0  0  0
   30.0921   26.5425   47.2285 H   0  0  0  0  0  0  0  0  0  0  0  0
   27.8340   26.4133   48.7929 H   0  0  0  0  0  0  0  0  0  0  0  0
   28.4213   27.7389   51.0610 H   0  0  0  0  0  0  0  0  0  0  0  0
   34.7783   30.6417   49.9026 H   0  0  0  0  0  0  0  0  0  0  0  0
   36.0182   30.0057   51.0471 H   0  0  0  0  0  0  0  0  0  0  0  0
   38.2766   33.9658   49.5759 H   0  0  0  0  0  0  0  0  0  0  0  0
   39.5103   33.1133   47.5847 H   0  0  0  0  0  0  0  0  0  0  0  0
   38.9229   30.7993   46.7369 H   0  0  0  0  0  0  0  0  0  0  0  0
  1 12  1  0
  2  6  1  0
  2  1  1  0
  3  2  2  0
  4  3  1  0
  4  5  1  0
  5  7  1  0
  5  6  2  0
  7 11  1  0
  8  7  2  0
  8  9  1  0
  9 10  2  0
 11 10  1  0
 13 18  2  0
 14 13  1  0
 15 14  2  0
 15 16  1  0
 16 17  2  0
 17 18  1  0
 17 12  1  0
  1 19  1  0
  1 20  1  0
  3 21  1  0
  8 22  1  0
  9 23  1  0
 10 24  1  0
 12 25  1  0
 12 26  1  0
 13 27  1  0
 14 28  1  0
 15 29  1  0
M  ISO  8  19   8  20   8  21  14  22  14  23  14  24  14  25   8  26   8
M  ISO  3  27  14  28  14  29  14
M  END
>  <minimizedAffinity>  (1) 
-5.09610653

>  <minimizedRMSD>  (1) 
0.997137725

$$$$
