
     RDKit          3D

 25 26  0  0  0  0  0  0  0  0999 V2000
   35.6900   28.8300   49.3250 C   0  0  0  0  0  0  0  0  0  0  0  0
   34.3980   28.6500   48.5760 C   0  0  0  0  0  0  0  0  0  0  0  0
   34.3600   29.0040   47.1760 C   0  0  0  0  0  0  0  0  0  0  0  0
   32.6790   28.6260   46.7640 S   0  0  0  0  0  0  0  0  0  0  0  0
   32.2460   28.0470   48.4970 C   0  0  0  0  0  0  0  0  0  0  0  0
   33.2820   28.1960   49.0770 N   0  0  0  0  0  0  0  0  0  0  0  0
   30.9050   27.5510   48.9080 C   0  0  0  0  0  0  0  0  0  0  0  0
   30.5570   28.0540   50.1650 F   0  0  0  0  0  0  0  0  0  0  0  0
   30.9320   26.1760   48.8910 F   0  0  0  0  0  0  0  0  0  0  0  0
   30.0090   28.0260   47.9930 F   0  0  0  0  0  0  0  0  0  0  0  0
   35.7280   30.1380   50.0240 C   0  0  0  0  0  0  0  0  0  0  0  0
   37.9810   33.0080   49.3040 C   0  0  0  0  0  0  0  0  0  0  0  0
   38.7070   32.5520   48.1910 C   0  0  0  0  0  0  0  0  0  0  0  0
   38.4130   31.2710   47.7060 C   0  0  0  0  0  0  0  0  0  0  0  0
   37.4530   30.5530   48.3350 N   0  0  0  0  0  0  0  0  0  0  0  0
   36.7860   31.0350   49.3980 C   0  0  0  0  0  0  0  0  0  0  0  0
   37.0440   32.2470   49.8800 N   0  0  0  0  0  0  0  0  0  0  0  0
   36.5272   28.7792   48.6133 H   0  0  0  0  0  0  0  0  0  0  0  0
   35.7706   28.0311   50.0769 H   0  0  0  0  0  0  0  0  0  0  0  0
   35.1613   29.4022   46.5362 H   0  0  0  0  0  0  0  0  0  0  0  0
   34.7443   30.6234   49.9414 H   0  0  0  0  0  0  0  0  0  0  0  0
   35.9764   29.9732   51.0829 H   0  0  0  0  0  0  0  0  0  0  0  0
   38.1870   34.0096   49.7093 H   0  0  0  0  0  0  0  0  0  0  0  0
   39.4780   33.1778   47.7178 H   0  0  0  0  0  0  0  0  0  0  0  0
   38.9479   30.8596   46.8373 H   0  0  0  0  0  0  0  0  0  0  0  0
  1 11  1  0
  2  6  1  0
  2  1  1  0
  3  2  2  0
  4  3  1  0
  4  5  1  0
  5  7  1  0
  5  6  2  0
  7  8  1  0
  9  7  1  0
 10  7  1  0
 12 17  2  0
 13 12  1  0
 14 13  2  0
 14 15  1  0
 15 16  2  0
 16 17  1  0
 16 11  1  0
  1 18  1  0
  1 19  1  0
  3 20  1  0
 11 21  1  0
 11 22  1  0
 12 23  1  0
 13 24  1  0
 14 25  1  0
M  ISO  8  18   8  19   8  20  14  21   8  22   8  23  14  24  14  25  14
M  END
>  <minimizedAffinity>  (1) 
-4.9466095

>  <minimizedRMSD>  (1) 
0.687739849

$$$$
