
     RDKit          3D

 26 27  0  0  0  0  0  0  0  0999 V2000
   35.7560   28.9220   49.2550 C   0  0  0  0  0  0  0  0  0  0  0  0
   34.4840   28.7240   48.4750 C   0  0  0  0  0  0  0  0  0  0  0  0
   34.3190   29.4770   47.2490 C   0  0  0  0  0  0  0  0  0  0  0  0
   32.7200   28.9250   46.7180 S   0  0  0  0  0  0  0  0  0  0  0  0
   32.4840   27.7780   48.1820 C   0  0  0  0  0  0  0  0  0  0  0  0
   33.4940   27.9310   48.7990 N   0  0  0  0  0  0  0  0  0  0  0  0
   30.3610   27.4270   49.3470 C   0  0  0  0  0  0  0  0  0  0  0  0
   29.7220   28.2750   50.0250 O   0  0  0  0  0  0  0  0  0  0  0  0
   31.3870   26.8980   48.5440 N   0  0  0  0  0  0  0  0  0  0  0  0
   35.7530   30.2490   49.9530 C   0  0  0  0  0  0  0  0  0  0  0  0
   38.0270   33.1150   49.2840 C   0  0  0  0  0  0  0  0  0  0  0  0
   38.8020   32.6520   48.2230 C   0  0  0  0  0  0  0  0  0  0  0  0
   38.5420   31.3640   47.7430 C   0  0  0  0  0  0  0  0  0  0  0  0
   37.5600   30.6360   48.3270 N   0  0  0  0  0  0  0  0  0  0  0  0
   36.8340   31.1370   49.3610 C   0  0  0  0  0  0  0  0  0  0  0  0
   37.0550   32.3600   49.8420 N   0  0  0  0  0  0  0  0  0  0  0  0
   36.6119   28.8795   48.5654 H   0  0  0  0  0  0  0  0  0  0  0  0
   35.8327   28.1267   50.0111 H   0  0  0  0  0  0  0  0  0  0  0  0
   35.0018   30.1974   46.7749 H   0  0  0  0  0  0  0  0  0  0  0  0
   29.7041   26.5500   49.4441 H   0  0  0  0  0  0  0  0  0  0  0  0
   31.3613   25.9195   48.2234 H   0  0  0  0  0  0  0  0  0  0  0  0
   34.7721   30.7294   49.8224 H   0  0  0  0  0  0  0  0  0  0  0  0
   35.9490   30.0990   51.0250 H   0  0  0  0  0  0  0  0  0  0  0  0
   38.2117   34.1248   49.6792 H   0  0  0  0  0  0  0  0  0  0  0  0
   39.5905   33.2771   47.7784 H   0  0  0  0  0  0  0  0  0  0  0  0
   39.1243   30.9499   46.9067 H   0  0  0  0  0  0  0  0  0  0  0  0
  1 10  1  0
  2  6  1  0
  2  1  1  0
  3  2  2  0
  4  3  1  0
  4  5  1  0
  5  9  1  0
  5  6  2  0
  7  8  2  0
  9  7  1  0
 11 16  2  0
 12 11  1  0
 13 12  2  0
 13 14  1  0
 14 15  2  0
 15 16  1  0
 15 10  1  0
  1 17  1  0
  1 18  1  0
  3 19  1  0
  7 20  1  0
  9 21  1  0
 10 22  1  0
 10 23  1  0
 11 24  1  0
 12 25  1  0
 13 26  1  0
M  ISO  8  17   8  18   8  19  14  20   6  22   8  23   8  24  14  25  14
M  ISO  1  26  14
M  END
>  <minimizedAffinity>  (1) 
-4.91909409

>  <minimizedRMSD>  (1) 
0.478697658

$$$$
