
     RDKit          3D

 29 31  0  0  0  0  0  0  0  0999 V2000
   35.5730   30.2470   49.8670 C   0  0  0  0  0  0  0  0  0  0  0  0
   38.0230   32.9920   49.3080 C   0  0  0  0  0  0  0  0  0  0  0  0
   38.7470   32.5360   48.1980 C   0  0  0  0  0  0  0  0  0  0  0  0
   38.3840   31.2960   47.6610 C   0  0  0  0  0  0  0  0  0  0  0  0
   37.3650   30.6070   48.2310 N   0  0  0  0  0  0  0  0  0  0  0  0
   36.6990   31.0950   49.3020 C   0  0  0  0  0  0  0  0  0  0  0  0
   37.0110   32.2740   49.8480 N   0  0  0  0  0  0  0  0  0  0  0  0
   35.5610   28.9140   49.2000 C   0  0  0  0  0  0  0  0  0  0  0  0
   34.2480   28.6650   48.5070 C   0  0  0  0  0  0  0  0  0  0  0  0
   34.0680   29.1690   47.1650 C   0  0  0  0  0  0  0  0  0  0  0  0
   32.4190   28.6410   46.8100 S   0  0  0  0  0  0  0  0  0  0  0  0
   32.1760   27.8210   48.4820 C   0  0  0  0  0  0  0  0  0  0  0  0
   33.2260   28.0250   49.0150 N   0  0  0  0  0  0  0  0  0  0  0  0
   30.9240   27.1260   48.8940 C   0  0  0  0  0  0  0  0  0  0  0  0
   29.6070   27.6390   48.4520 C   0  0  0  0  0  0  0  0  0  0  0  0
   30.0060   27.9140   49.8490 C   0  0  0  0  0  0  0  0  0  0  0  0
   35.7241   30.1129   50.9483 H   0  0  0  0  0  0  0  0  0  0  0  0
   34.6125   30.7519   49.6867 H   0  0  0  0  0  0  0  0  0  0  0  0
   38.2853   33.9628   49.7537 H   0  0  0  0  0  0  0  0  0  0  0  0
   39.5671   33.1287   47.7666 H   0  0  0  0  0  0  0  0  0  0  0  0
   38.9170   30.8867   46.7901 H   0  0  0  0  0  0  0  0  0  0  0  0
   36.3716   28.8769   48.4574 H   0  0  0  0  0  0  0  0  0  0  0  0
   35.7029   28.1387   49.9674 H   0  0  0  0  0  0  0  0  0  0  0  0
   34.7704   29.7316   46.5325 H   0  0  0  0  0  0  0  0  0  0  0  0
   31.4053   26.1375   48.8607 H   0  0  0  0  0  0  0  0  0  0  0  0
   29.5625   28.4660   47.7281 H   0  0  0  0  0  0  0  0  0  0  0  0
   28.7243   27.1724   47.9903 H   0  0  0  0  0  0  0  0  0  0  0  0
   29.5007   27.4007   50.6803 H   0  0  0  0  0  0  0  0  0  0  0  0
   30.1093   28.8134   50.4738 H   0  0  0  0  0  0  0  0  0  0  0  0
  2  7  2  0
  3  2  1  0
  4  3  2  0
  4  5  1  0
  5  6  2  0
  6  7  1  0
  6  1  1  0
  8  1  1  0
  9 13  1  0
  9  8  1  0
 10  9  2  0
 11 10  1  0
 11 12  1  0
 12 14  1  0
 12 13  2  0
 14 16  1  0
 15 14  1  0
 15 16  1  0
  1 17  1  0
  1 18  1  0
  2 19  1  0
  3 20  1  0
  4 21  1  0
  8 22  1  0
  8 23  1  0
 10 24  1  0
 14 25  1  0
 15 26  1  0
 15 27  1  0
 16 28  1  0
 16 29  1  0
M  ISO  8  17   8  18   8  19  14  20  14  21  14  22   8  23   8  24  14
M  ISO  5  25  13  26  13  27  13  28  13  29  13
M  END
>  <minimizedAffinity>  (1) 
-4.7903223

>  <minimizedRMSD>  (1) 
0.825392962

$$$$
