
     RDKit          3D

 24 25  0  0  0  0  0  0  0  0999 V2000
   36.0360   30.4120   49.9210 C   0  0  0  0  0  0  0  0  0  0  0  0
   38.1800   33.3720   49.2270 C   0  0  0  0  0  0  0  0  0  0  0  0
   38.9720   32.9170   48.1760 C   0  0  0  0  0  0  0  0  0  0  0  0
   38.7780   31.6130   47.7060 C   0  0  0  0  0  0  0  0  0  0  0  0
   37.8270   30.8540   48.3000 N   0  0  0  0  0  0  0  0  0  0  0  0
   37.0780   31.3360   49.3190 C   0  0  0  0  0  0  0  0  0  0  0  0
   37.2490   32.5700   49.7760 N   0  0  0  0  0  0  0  0  0  0  0  0
   36.0060   29.1300   49.1840 C   0  0  0  0  0  0  0  0  0  0  0  0
   34.7350   28.9570   48.3990 C   0  0  0  0  0  0  0  0  0  0  0  0
   34.5960   29.6360   47.1390 C   0  0  0  0  0  0  0  0  0  0  0  0
   32.9830   29.1230   46.6360 S   0  0  0  0  0  0  0  0  0  0  0  0
   32.6930   28.0610   48.1770 C   0  0  0  0  0  0  0  0  0  0  0  0
   33.7300   28.2200   48.7870 N   0  0  0  0  0  0  0  0  0  0  0  0
   31.5720   27.2130   48.6530 N   0  0  0  0  0  0  0  0  0  0  0  0
   36.2857   30.2199   50.9749 H   0  0  0  0  0  0  0  0  0  0  0  0
   35.0479   30.8902   49.8513 H   0  0  0  0  0  0  0  0  0  0  0  0
   38.3162   34.3937   49.6111 H   0  0  0  0  0  0  0  0  0  0  0  0
   39.7343   33.5689   47.7245 H   0  0  0  0  0  0  0  0  0  0  0  0
   39.3816   31.2156   46.8767 H   0  0  0  0  0  0  0  0  0  0  0  0
   36.8584   29.1004   48.4894 H   0  0  0  0  0  0  0  0  0  0  0  0
   36.0621   28.3150   49.9206 H   0  0  0  0  0  0  0  0  0  0  0  0
   35.3066   30.2996   46.6245 H   0  0  0  0  0  0  0  0  0  0  0  0
   31.6476   26.7166   49.5523 H   0  0  0  0  0  0  0  0  0  0  0  0
   30.7184   27.1208   48.0840 H   0  0  0  0  0  0  0  0  0  0  0  0
  2  7  2  0
  3  2  1  0
  4  3  2  0
  4  5  1  0
  5  6  2  0
  6  7  1  0
  6  1  1  0
  8  1  1  0
  9 13  1  0
  9  8  1  0
 10  9  2  0
 11 10  1  0
 11 12  1  0
 12 14  1  0
 12 13  2  0
  1 15  1  0
  1 16  1  0
  2 17  1  0
  3 18  1  0
  4 19  1  0
  8 20  1  0
  8 21  1  0
 10 22  1  0
 14 23  1  0
 14 24  1  0
M  ISO  8  15   8  16   8  17  14  18  14  19  14  20   8  21   8  22  14
M  END
>  <minimizedAffinity>  (1) 
-4.31642485

>  <minimizedRMSD>  (1) 
0.291039079

$$$$
