
     RDKit          3D

 23 24  0  0  0  0  0  0  0  0999 V2000
   35.7920   30.2200   49.9500 C   0  0  0  0  0  0  0  0  0  0  0  0
   38.0140   33.1210   49.2900 C   0  0  0  0  0  0  0  0  0  0  0  0
   38.8040   32.6520   48.2160 C   0  0  0  0  0  0  0  0  0  0  0  0
   38.5600   31.3410   47.7300 C   0  0  0  0  0  0  0  0  0  0  0  0
   37.5840   30.6230   48.3310 N   0  0  0  0  0  0  0  0  0  0  0  0
   36.8600   31.1150   49.3510 C   0  0  0  0  0  0  0  0  0  0  0  0
   37.0540   32.3370   49.8380 N   0  0  0  0  0  0  0  0  0  0  0  0
   35.7830   28.9090   49.2240 C   0  0  0  0  0  0  0  0  0  0  0  0
   34.5220   28.7410   48.4290 C   0  0  0  0  0  0  0  0  0  0  0  0
   34.4650   29.3370   47.1160 C   0  0  0  0  0  0  0  0  0  0  0  0
   32.8300   28.8840   46.5900 S   0  0  0  0  0  0  0  0  0  0  0  0
   32.4410   27.9640   48.1810 C   0  0  0  0  0  0  0  0  0  0  0  0
   33.4500   28.0990   48.8100 N   0  0  0  0  0  0  0  0  0  0  0  0
   30.9330   27.0560   48.7290 S   0  0  0  0  0  0  0  0  0  0  0  0
   36.0097   30.0494   51.0147 H   0  0  0  0  0  0  0  0  0  0  0  0
   34.8084   30.7028   49.8529 H   0  0  0  0  0  0  0  0  0  0  0  0
   38.1803   34.1339   49.6856 H   0  0  0  0  0  0  0  0  0  0  0  0
   39.5853   33.2847   47.7697 H   0  0  0  0  0  0  0  0  0  0  0  0
   39.1431   30.9243   46.8955 H   0  0  0  0  0  0  0  0  0  0  0  0
   36.6454   28.8698   48.5423 H   0  0  0  0  0  0  0  0  0  0  0  0
   35.8394   28.0984   49.9655 H   0  0  0  0  0  0  0  0  0  0  0  0
   35.2313   29.9181   46.5821 H   0  0  0  0  0  0  0  0  0  0  0  0
   30.8884   27.0291   50.0980 H   0  0  0  0  0  0  0  0  0  0  0  0
  2  7  2  0
  3  2  1  0
  4  3  2  0
  4  5  1  0
  5  6  2  0
  6  7  1  0
  6  1  1  0
  8  1  1  0
  9 13  1  0
  9  8  1  0
 10  9  2  0
 11 10  1  0
 11 12  1  0
 12 14  1  0
 12 13  2  0
  1 15  1  0
  1 16  1  0
  2 17  1  0
  3 18  1  0
  4 19  1  0
  8 20  1  0
  8 21  1  0
 10 22  1  0
 14 23  1  0
M  ISO  8  15   8  16   8  17  14  18  14  19  14  20   8  21   8  22  14
M  ISO  1  23  11
M  END
>  <minimizedAffinity>  (1) 
-4.3067646

>  <minimizedRMSD>  (1) 
0.440447062

$$$$
