
     RDKit          3D

 26 27  0  0  1  0  0  0  0  0999 V2000
   39.1700   32.7610   45.6380 N   0  0  0  0  0  0  0  0  0  0  0  0
   37.8730   32.3890   45.2100 C   0  0  1  0  0  0  0  0  0  0  0  0
   37.8080   32.2060   43.7150 C   0  0  0  0  0  0  0  0  0  0  0  0
   38.7660   31.1810   43.3620 N   0  0  0  0  0  0  0  0  0  0  0  0
   40.0710   31.8000   43.5990 C   0  0  0  0  0  0  0  0  0  0  0  0
   40.2000   31.9130   45.1160 C   0  0  1  0  0  0  0  0  0  0  0  0
   41.4220   32.5780   45.3360 O   0  0  0  0  0  0  0  0  0  0  0  0
   37.3600   30.7920   45.9340 S   0  0  0  0  0  0  0  0  0  0  0  0
   38.1140   31.2580   49.8920 C   0  0  0  0  0  0  0  0  0  0  0  0
   38.3450   31.1830   48.5170 C   0  0  0  0  0  0  0  0  0  0  0  0
   37.2510   30.9220   47.7090 C   0  0  0  0  0  0  0  0  0  0  0  0
   36.0210   30.7550   48.2980 N   0  0  0  0  0  0  0  0  0  0  0  0
   35.8580   30.8380   49.6170 C   0  0  0  0  0  0  0  0  0  0  0  0
   36.9140   31.0910   50.4220 N   0  0  0  0  0  0  0  0  0  0  0  0
   39.3526   33.7265   45.3290 H   0  0  0  0  0  0  0  0  0  0  0  0
   37.2127   33.2058   45.5367 H   0  0  0  0  0  0  0  0  0  0  0  0
   36.7961   31.8930   43.4183 H   0  0  0  0  0  0  0  0  0  0  0  0
   38.0401   33.1488   43.1981 H   0  0  0  0  0  0  0  0  0  0  0  0
   38.6645   30.9134   42.3726 H   0  0  0  0  0  0  0  0  0  0  0  0
   40.8750   31.1700   43.1908 H   0  0  0  0  0  0  0  0  0  0  0  0
   40.1521   32.7813   43.1085 H   0  0  0  0  0  0  0  0  0  0  0  0
   40.1358   30.9222   45.5895 H   0  0  0  0  0  0  0  0  0  0  0  0
   41.5802   32.6641   46.3095 H   0  0  0  0  0  0  0  0  0  0  0  0
   38.9631   31.4640   50.5603 H   0  0  0  0  0  0  0  0  0  0  0  0
   39.3507   31.3248   48.0946 H   0  0  0  0  0  0  0  0  0  0  0  0
   34.8581   30.6999   50.0541 H   0  0  0  0  0  0  0  0  0  0  0  0
  2  1  1  0
  2  8  1  0
  3  2  1  0
  4  5  1  0
  4  3  1  0
  5  6  1  0
  6  7  1  0
  6  1  1  0
  8 11  1  0
  9 14  2  0
 10  9  1  0
 11 12  1  0
 11 10  2  0
 12 13  2  0
 13 14  1  0
  1 15  1  0
  2 16  1  1
  3 17  1  0
  3 18  1  0
  4 19  1  0
  5 20  1  0
  5 21  1  0
  6 22  1  1
  7 23  1  0
  9 24  1  0
 10 25  1  0
 13 26  1  0
M  ISO  8  15   5  16  13  17  13  18  13  19   5  20  13  21  13  22  13
M  ISO  4  23   3  24  14  25  14  26  14
M  END
>  <minimizedAffinity>  (1) 
-4.31062889

>  <minimizedRMSD>  (1) 
1.2734288

$$$$
