
     RDKit          3D

 52 56  0  0  0  0  0  0  0  0999 V2000
   34.2960   28.0100   49.1790 C   0  0  0  0  0  0  0  0  0  0  0  0
   32.9940   28.0890   48.4600 C   0  0  0  0  0  0  0  0  0  0  0  0
   32.9840   28.6290   47.1330 C   0  0  0  0  0  0  0  0  0  0  0  0
   31.2700   28.5190   46.7160 S   0  0  0  0  0  0  0  0  0  0  0  0
   30.7760   27.7590   48.3770 C   0  0  0  0  0  0  0  0  0  0  0  0
   31.8380   27.7160   48.9070 N   0  0  0  0  0  0  0  0  0  0  0  0
   29.4850   27.3400   48.8880 N   0  0  0  0  0  0  0  0  0  0  0  0
   28.5420   26.8780   47.9250 C   0  0  0  0  0  0  0  0  0  0  0  0
   27.1360   26.8290   48.4210 C   0  0  0  0  0  0  0  0  0  0  0  0
   26.9570   27.4760   49.7270 N   0  0  0  0  0  0  0  0  0  0  0  0
   27.9030   26.8230   50.6160 C   0  0  0  0  0  0  0  0  0  0  0  0
   29.2500   27.4180   50.3190 C   0  0  0  0  0  0  0  0  0  0  0  0
   34.4850   29.1530   50.1210 C   0  0  0  0  0  0  0  0  0  0  0  0
   37.8330   30.7440   50.5010 C   0  0  0  0  0  0  0  0  0  0  0  0
   38.1480   31.0730   49.1950 C   0  0  0  0  0  0  0  0  0  0  0  0
   37.2290   30.7610   48.1650 C   0  0  0  0  0  0  0  0  0  0  0  0
   36.0740   30.1490   48.5490 N   0  0  0  0  0  0  0  0  0  0  0  0
   35.8080   29.8470   49.8330 C   0  0  0  0  0  0  0  0  0  0  0  0
   36.6810   30.1440   50.7750 N   0  0  0  0  0  0  0  0  0  0  0  0
   37.3420   31.0730   46.7670 C   0  0  0  0  0  0  0  0  0  0  0  0
   36.4320   30.4610   45.9110 C   0  0  0  0  0  0  0  0  0  0  0  0
   36.4000   30.6340   44.5460 C   0  0  0  0  0  0  0  0  0  0  0  0
   37.3170   31.4610   43.9370 C   0  0  0  0  0  0  0  0  0  0  0  0
   38.2390   32.0880   44.7290 C   0  0  0  0  0  0  0  0  0  0  0  0
   39.1960   32.8920   44.1580 C   0  0  0  0  0  0  0  0  0  0  0  0
   40.1760   33.5140   44.9240 C   0  0  0  0  0  0  0  0  0  0  0  0
   40.1690   33.3020   46.2890 C   0  0  0  0  0  0  0  0  0  0  0  0
   39.1910   32.4900   46.8100 C   0  0  0  0  0  0  0  0  0  0  0  0
   38.2140   31.8720   46.0730 C   0  0  0  0  0  0  0  0  0  0  0  0
   35.1109   28.0202   48.4402 H   0  0  0  0  0  0  0  0  0  0  0  0
   34.3036   27.0803   49.7669 H   0  0  0  0  0  0  0  0  0  0  0  0
   33.8222   29.0113   46.5320 H   0  0  0  0  0  0  0  0  0  0  0  0
   28.8341   25.8638   47.6151 H   0  0  0  0  0  0  0  0  0  0  0  0
   28.5593   27.5989   47.0943 H   0  0  0  0  0  0  0  0  0  0  0  0
   26.4899   27.3357   47.6890 H   0  0  0  0  0  0  0  0  0  0  0  0
   26.8712   25.7685   48.5442 H   0  0  0  0  0  0  0  0  0  0  0  0
   27.1614   28.4833   49.6608 H   0  0  0  0  0  0  0  0  0  0  0  0
   27.6288   27.0086   51.6650 H   0  0  0  0  0  0  0  0  0  0  0  0
   27.9069   25.7339   50.4612 H   0  0  0  0  0  0  0  0  0  0  0  0
   30.0297   26.8558   50.8539 H   0  0  0  0  0  0  0  0  0  0  0  0
   29.2785   28.4672   50.6481 H   0  0  0  0  0  0  0  0  0  0  0  0
   33.6612   29.8707   49.9938 H   0  0  0  0  0  0  0  0  0  0  0  0
   34.4916   28.7743   51.1537 H   0  0  0  0  0  0  0  0  0  0  0  0
   38.5371   30.9795   51.3126 H   0  0  0  0  0  0  0  0  0  0  0  0
   39.1004   31.5707   48.9600 H   0  0  0  0  0  0  0  0  0  0  0  0
   35.6835   29.7900   46.3577 H   0  0  0  0  0  0  0  0  0  0  0  0
   35.6428   30.1122   43.9424 H   0  0  0  0  0  0  0  0  0  0  0  0
   37.3083   31.6127   42.8475 H   0  0  0  0  0  0  0  0  0  0  0  0
   39.1867   33.0473   43.0691 H   0  0  0  0  0  0  0  0  0  0  0  0
   40.9358   34.1571   44.4558 H   0  0  0  0  0  0  0  0  0  0  0  0
   40.9235   33.7691   46.9390 H   0  0  0  0  0  0  0  0  0  0  0  0
   39.1919   32.3236   47.8973 H   0  0  0  0  0  0  0  0  0  0  0  0
  1 13  1  0
  2  6  1  0
  2  1  1  0
  3  2  2  0
  4  3  1  0
  4  5  1  0
  5  7  1  0
  5  6  2  0
  7 12  1  0
  8  9  1  0
  8  7  1  0
  9 10  1  0
 10 11  1  0
 12 11  1  0
 14 19  2  0
 15 14  1  0
 16 17  1  0
 16 15  2  0
 17 18  2  0
 18 13  1  0
 18 19  1  0
 20 16  1  0
 21 20  2  0
 22 21  1  0
 23 22  2  0
 23 24  1  0
 24 29  2  0
 25 24  1  0
 25 26  2  0
 26 27  1  0
 27 28  2  0
 29 20  1  0
 29 28  1  0
  1 30  1  0
  1 31  1  0
  3 32  1  0
  8 33  1  0
  8 34  1  0
  9 35  1  0
  9 36  1  0
 10 37  1  0
 11 38  1  0
 11 39  1  0
 12 40  1  0
 12 41  1  0
 13 42  1  0
 13 43  1  0
 14 44  1  0
 15 45  1  0
 21 46  1  0
 22 47  1  0
 23 48  1  0
 25 49  1  0
 26 50  1  0
 27 51  1  0
 28 52  1  0
M  ISO  8  30   8  31   8  32  14  33  13  34  13  35  13  36  13  37   5
M  ISO  8  38  13  39  13  40  13  41  13  42   8  43   8  44  14  45  14
M  ISO  7  46  14  47  14  48  14  49  14  50  14  51  14  52  14
M  END
>  <minimizedAffinity>  (1) 
-8.40031338

>  <minimizedRMSD>  (1) 
1.9025315

$$$$
