
     RDKit          3D

 46 49  0  0  0  0  0  0  0  0999 V2000
   34.1920   28.1830   49.0100 C   0  0  0  0  0  0  0  0  0  0  0  0
   32.8800   28.1380   48.2680 C   0  0  0  0  0  0  0  0  0  0  0  0
   32.8470   28.5250   46.8800 C   0  0  0  0  0  0  0  0  0  0  0  0
   31.1350   28.3010   46.5090 S   0  0  0  0  0  0  0  0  0  0  0  0
   30.6750   27.7260   48.2280 C   0  0  0  0  0  0  0  0  0  0  0  0
   31.7360   27.7780   48.7650 N   0  0  0  0  0  0  0  0  0  0  0  0
   29.4080   27.3120   48.8290 N   0  0  0  0  0  0  0  0  0  0  0  0
   28.4580   26.7410   47.9180 C   0  0  0  0  0  0  0  0  0  0  0  0
   27.0550   26.7290   48.4480 C   0  0  0  0  0  0  0  0  0  0  0  0
   26.8830   27.4630   49.6930 N   0  0  0  0  0  0  0  0  0  0  0  0
   27.8720   26.8870   50.6090 C   0  0  0  0  0  0  0  0  0  0  0  0
   29.1950   27.4940   50.2380 C   0  0  0  0  0  0  0  0  0  0  0  0
   34.2080   29.2460   50.0260 C   0  0  0  0  0  0  0  0  0  0  0  0
   37.4400   30.0140   51.6720 C   0  0  0  0  0  0  0  0  0  0  0  0
   38.1790   30.5710   50.6420 C   0  0  0  0  0  0  0  0  0  0  0  0
   37.5880   30.6920   49.3880 C   0  0  0  0  0  0  0  0  0  0  0  0
   36.3070   30.2450   49.2610 N   0  0  0  0  0  0  0  0  0  0  0  0
   35.6250   29.7100   50.2920 C   0  0  0  0  0  0  0  0  0  0  0  0
   36.1940   29.6010   51.4760 N   0  0  0  0  0  0  0  0  0  0  0  0
   38.9500   33.6590   49.3650 Br  0  0  0  0  0  0  0  0  0  0  0  0
   38.8170   32.4070   47.9480 C   0  0  0  0  0  0  0  0  0  0  0  0
   38.1930   31.2120   48.1780 C   0  0  0  0  0  0  0  0  0  0  0  0
   38.1360   30.4360   47.0410 C   0  0  0  0  0  0  0  0  0  0  0  0
   38.6420   30.8030   45.8170 C   0  0  0  0  0  0  0  0  0  0  0  0
   39.2600   32.0200   45.6510 C   0  0  0  0  0  0  0  0  0  0  0  0
   39.3380   32.8290   46.7630 C   0  0  0  0  0  0  0  0  0  0  0  0
   35.0026   28.3668   48.2894 H   0  0  0  0  0  0  0  0  0  0  0  0
   34.3291   27.2188   49.5214 H   0  0  0  0  0  0  0  0  0  0  0  0
   33.6653   28.8668   46.2291 H   0  0  0  0  0  0  0  0  0  0  0  0
   28.7589   25.7046   47.7052 H   0  0  0  0  0  0  0  0  0  0  0  0
   28.4577   27.3686   47.0146 H   0  0  0  0  0  0  0  0  0  0  0  0
   26.3956   27.1762   47.6896 H   0  0  0  0  0  0  0  0  0  0  0  0
   26.8062   25.6791   48.6622 H   0  0  0  0  0  0  0  0  0  0  0  0
   27.0630   28.4670   49.5498 H   0  0  0  0  0  0  0  0  0  0  0  0
   27.6174   27.1359   51.6498 H   0  0  0  0  0  0  0  0  0  0  0  0
   27.8992   25.7902   50.5293 H   0  0  0  0  0  0  0  0  0  0  0  0
   30.0000   26.9988   50.8008 H   0  0  0  0  0  0  0  0  0  0  0  0
   29.1957   28.5668   50.4810 H   0  0  0  0  0  0  0  0  0  0  0  0
   33.6104   30.0972   49.6677 H   0  0  0  0  0  0  0  0  0  0  0  0
   33.7842   28.8491   50.9603 H   0  0  0  0  0  0  0  0  0  0  0  0
   37.8931   29.9121   52.6692 H   0  0  0  0  0  0  0  0  0  0  0  0
   39.2114   30.9107   50.8114 H   0  0  0  0  0  0  0  0  0  0  0  0
   37.6506   29.4519   47.1184 H   0  0  0  0  0  0  0  0  0  0  0  0
   38.5517   30.1167   44.9621 H   0  0  0  0  0  0  0  0  0  0  0  0
   39.6712   32.3317   44.6795 H   0  0  0  0  0  0  0  0  0  0  0  0
   39.8207   33.8150   46.6938 H   0  0  0  0  0  0  0  0  0  0  0  0
  1 13  1  0
  2  6  1  0
  2  1  1  0
  3  2  2  0
  4  3  1  0
  4  5  1  0
  5  6  2  0
  5  7  1  0
  7 12  1  0
  8  9  1  0
  8  7  1  0
  9 10  1  0
 10 11  1  0
 12 11  1  0
 13 18  1  0
 15 14  2  0
 16 15  1  0
 17 16  2  0
 17 18  1  0
 18 19  2  0
 19 14  1  0
 21 22  2  0
 21 20  1  0
 22 16  1  0
 23 22  1  0
 24 23  2  0
 25 24  1  0
 25 26  2  0
 26 21  1  0
  1 27  1  0
  1 28  1  0
  3 29  1  0
  8 30  1  0
  8 31  1  0
  9 32  1  0
  9 33  1  0
 10 34  1  0
 11 35  1  0
 11 36  1  0
 12 37  1  0
 12 38  1  0
 13 39  1  0
 13 40  1  0
 14 41  1  0
 15 42  1  0
 23 43  1  0
 24 44  1  0
 25 45  1  0
 26 46  1  0
M  ISO  8  27   8  28   8  29  14  30  13  31  13  32  13  33  13  34   5
M  ISO  8  35  13  36  13  37  13  38  13  39   8  40   8  41  14  42  14
M  ISO  4  43  14  44  14  45  14  46  14
M  END
>  <minimizedAffinity>  (1) 
-7.94840527

>  <minimizedRMSD>  (1) 
2.08439684

$$$$
