
     RDKit          3D

 43 46  0  0  0  0  0  0  0  0999 V2000
   34.2250   28.0820   48.9480 C   0  0  0  0  0  0  0  0  0  0  0  0
   32.8930   28.1220   48.2420 C   0  0  0  0  0  0  0  0  0  0  0  0
   32.8250   28.6020   46.8780 C   0  0  0  0  0  0  0  0  0  0  0  0
   31.0990   28.4430   46.5490 S   0  0  0  0  0  0  0  0  0  0  0  0
   30.6730   27.7640   48.2460 C   0  0  0  0  0  0  0  0  0  0  0  0
   31.7550   27.7570   48.7480 N   0  0  0  0  0  0  0  0  0  0  0  0
   29.4090   27.3490   48.8330 N   0  0  0  0  0  0  0  0  0  0  0  0
   28.4390   26.8280   47.9160 C   0  0  0  0  0  0  0  0  0  0  0  0
   27.0430   26.8010   48.4520 C   0  0  0  0  0  0  0  0  0  0  0  0
   26.9050   27.4670   49.7500 N   0  0  0  0  0  0  0  0  0  0  0  0
   27.9020   26.8530   50.6100 C   0  0  0  0  0  0  0  0  0  0  0  0
   29.2210   27.4850   50.2490 C   0  0  0  0  0  0  0  0  0  0  0  0
   34.2450   28.9800   50.1170 C   0  0  0  0  0  0  0  0  0  0  0  0
   37.4960   30.1200   51.5010 C   0  0  0  0  0  0  0  0  0  0  0  0
   38.0790   30.8000   50.4350 C   0  0  0  0  0  0  0  0  0  0  0  0
   37.3450   30.8570   49.2520 C   0  0  0  0  0  0  0  0  0  0  0  0
   36.1280   30.2610   49.2020 N   0  0  0  0  0  0  0  0  0  0  0  0
   35.6160   29.6160   50.2700 C   0  0  0  0  0  0  0  0  0  0  0  0
   36.2880   29.5460   51.4020 N   0  0  0  0  0  0  0  0  0  0  0  0
   37.8330   31.5360   48.0570 C   0  0  0  0  0  0  0  0  0  0  0  0
   37.4340   31.1970   46.7700 C   0  0  0  0  0  0  0  0  0  0  0  0
   38.0780   32.0300   45.8540 C   0  0  0  0  0  0  0  0  0  0  0  0
   38.8500   32.8510   46.6170 N   0  0  0  0  0  0  0  0  0  0  0  0
   38.6900   32.5460   47.8750 N   0  0  0  0  0  0  0  0  0  0  0  0
   35.0115   28.3933   48.2448 H   0  0  0  0  0  0  0  0  0  0  0  0
   34.3980   27.0542   49.2998 H   0  0  0  0  0  0  0  0  0  0  0  0
   33.6308   28.9669   46.2241 H   0  0  0  0  0  0  0  0  0  0  0  0
   28.7284   25.7994   47.6548 H   0  0  0  0  0  0  0  0  0  0  0  0
   28.4314   27.5017   47.0465 H   0  0  0  0  0  0  0  0  0  0  0  0
   26.3826   27.3038   47.7302 H   0  0  0  0  0  0  0  0  0  0  0  0
   26.7717   25.7451   48.5983 H   0  0  0  0  0  0  0  0  0  0  0  0
   27.0831   28.4772   49.6569 H   0  0  0  0  0  0  0  0  0  0  0  0
   27.6640   27.0459   51.6665 H   0  0  0  0  0  0  0  0  0  0  0  0
   27.9310   25.7621   50.4718 H   0  0  0  0  0  0  0  0  0  0  0  0
   30.0367   26.9764   50.7838 H   0  0  0  0  0  0  0  0  0  0  0  0
   29.2243   28.5477   50.5331 H   0  0  0  0  0  0  0  0  0  0  0  0
   33.4917   29.7699   49.9807 H   0  0  0  0  0  0  0  0  0  0  0  0
   34.0188   28.3955   51.0210 H   0  0  0  0  0  0  0  0  0  0  0  0
   38.0427   30.0515   52.4531 H   0  0  0  0  0  0  0  0  0  0  0  0
   39.0701   31.2691   50.5224 H   0  0  0  0  0  0  0  0  0  0  0  0
   36.7227   30.3981   46.5135 H   0  0  0  0  0  0  0  0  0  0  0  0
   37.9827   32.0243   44.7581 H   0  0  0  0  0  0  0  0  0  0  0  0
   39.4639   33.5959   46.2576 H   0  0  0  0  0  0  0  0  0  0  0  0
  1 13  1  0
  2  6  1  0
  2  1  1  0
  3  2  2  0
  4  3  1  0
  4  5  1  0
  5  6  2  0
  5  7  1  0
  7 12  1  0
  8  9  1  0
  8  7  1  0
  9 10  1  0
 10 11  1  0
 12 11  1  0
 13 18  1  0
 15 14  2  0
 16 15  1  0
 17 16  2  0
 17 18  1  0
 18 19  2  0
 19 14  1  0
 20 16  1  0
 21 20  1  0
 22 23  1  0
 22 21  2  0
 23 24  1  0
 24 20  2  0
  1 25  1  0
  1 26  1  0
  3 27  1  0
  8 28  1  0
  8 29  1  0
  9 30  1  0
  9 31  1  0
 10 32  1  0
 11 33  1  0
 11 34  1  0
 12 35  1  0
 12 36  1  0
 13 37  1  0
 13 38  1  0
 14 39  1  0
 15 40  1  0
 21 41  1  0
 22 42  1  0
 23 43  1  0
M  ISO  8  25   8  26   8  27  14  28  13  29  13  30  13  31  13  32   5
M  ISO  8  33  13  34  13  35  13  36  13  37   8  38   8  39  14  40  14
M  ISO  3  41  14  42  14  43   9
M  END
>  <minimizedAffinity>  (1) 
-7.27630758

>  <minimizedRMSD>  (1) 
1.86967421

$$$$
