
     RDKit          3D

 43 46  0  0  0  0  0  0  0  0999 V2000
   34.2630   28.0770   48.8080 C   0  0  0  0  0  0  0  0  0  0  0  0
   32.9210   28.1200   48.1350 C   0  0  0  0  0  0  0  0  0  0  0  0
   32.8270   28.6130   46.7930 C   0  0  0  0  0  0  0  0  0  0  0  0
   31.0870   28.4560   46.4800 S   0  0  0  0  0  0  0  0  0  0  0  0
   30.6990   27.7560   48.1710 C   0  0  0  0  0  0  0  0  0  0  0  0
   31.7900   27.7470   48.6460 N   0  0  0  0  0  0  0  0  0  0  0  0
   29.4480   27.3280   48.7760 N   0  0  0  0  0  0  0  0  0  0  0  0
   28.4510   26.8410   47.8890 C   0  0  0  0  0  0  0  0  0  0  0  0
   27.0880   26.7590   48.4800 C   0  0  0  0  0  0  0  0  0  0  0  0
   26.9720   27.4430   49.7570 N   0  0  0  0  0  0  0  0  0  0  0  0
   27.9860   26.8200   50.6120 C   0  0  0  0  0  0  0  0  0  0  0  0
   29.2990   27.4240   50.2170 C   0  0  0  0  0  0  0  0  0  0  0  0
   34.2920   28.8740   50.0440 C   0  0  0  0  0  0  0  0  0  0  0  0
   37.4400   30.1290   51.5800 C   0  0  0  0  0  0  0  0  0  0  0  0
   38.1150   30.6740   50.4840 C   0  0  0  0  0  0  0  0  0  0  0  0
   37.4870   30.6040   49.2400 C   0  0  0  0  0  0  0  0  0  0  0  0
   36.2650   30.0250   49.1220 N   0  0  0  0  0  0  0  0  0  0  0  0
   35.6580   29.5100   50.2360 C   0  0  0  0  0  0  0  0  0  0  0  0
   36.2440   29.5670   51.4390 N   0  0  0  0  0  0  0  0  0  0  0  0
   38.1840   31.1710   48.0900 C   0  0  0  0  0  0  0  0  0  0  0  0
   38.7620   32.4160   48.0030 C   0  0  0  0  0  0  0  0  0  0  0  0
   39.2950   32.4810   46.7120 C   0  0  0  0  0  0  0  0  0  0  0  0
   39.0070   31.2710   46.0990 C   0  0  0  0  0  0  0  0  0  0  0  0
   38.3390   30.5220   46.9670 O   0  0  0  0  0  0  0  0  0  0  0  0
   35.0197   28.4720   48.1142 H   0  0  0  0  0  0  0  0  0  0  0  0
   34.4722   27.0310   49.0764 H   0  0  0  0  0  0  0  0  0  0  0  0
   33.6220   28.9889   46.1322 H   0  0  0  0  0  0  0  0  0  0  0  0
   28.7450   25.8329   47.5615 H   0  0  0  0  0  0  0  0  0  0  0  0
   28.3903   27.5613   47.0598 H   0  0  0  0  0  0  0  0  0  0  0  0
   26.3745   27.2115   47.7757 H   0  0  0  0  0  0  0  0  0  0  0  0
   26.8750   25.6950   48.6603 H   0  0  0  0  0  0  0  0  0  0  0  0
   27.1595   28.4498   49.6472 H   0  0  0  0  0  0  0  0  0  0  0  0
   27.7731   27.0306   51.6705 H   0  0  0  0  0  0  0  0  0  0  0  0
   27.9958   25.7270   50.4886 H   0  0  0  0  0  0  0  0  0  0  0  0
   30.1184   26.8802   50.7097 H   0  0  0  0  0  0  0  0  0  0  0  0
   29.3305   28.4796   50.5248 H   0  0  0  0  0  0  0  0  0  0  0  0
   33.5300   29.6650   49.9825 H   0  0  0  0  0  0  0  0  0  0  0  0
   34.0846   28.2127   50.8982 H   0  0  0  0  0  0  0  0  0  0  0  0
   37.9064   30.1659   52.5755 H   0  0  0  0  0  0  0  0  0  0  0  0
   39.1045   31.1407   50.5980 H   0  0  0  0  0  0  0  0  0  0  0  0
   38.7973   33.1928   48.7810 H   0  0  0  0  0  0  0  0  0  0  0  0
   39.8380   33.3285   46.2682 H   0  0  0  0  0  0  0  0  0  0  0  0
   39.2835   30.9829   45.0740 H   0  0  0  0  0  0  0  0  0  0  0  0
  1 13  1  0
  2  6  1  0
  2  1  1  0
  3  2  2  0
  4  3  1  0
  4  5  1  0
  5  6  2  0
  5  7  1  0
  7 12  1  0
  8  9  1  0
  8  7  1  0
  9 10  1  0
 10 11  1  0
 12 11  1  0
 13 18  1  0
 15 14  2  0
 16 15  1  0
 17 16  2  0
 17 18  1  0
 18 19  2  0
 19 14  1  0
 20 16  1  0
 21 20  2  0
 22 21  1  0
 23 22  2  0
 23 24  1  0
 24 20  1  0
  1 25  1  0
  1 26  1  0
  3 27  1  0
  8 28  1  0
  8 29  1  0
  9 30  1  0
  9 31  1  0
 10 32  1  0
 11 33  1  0
 11 34  1  0
 12 35  1  0
 12 36  1  0
 13 37  1  0
 13 38  1  0
 14 39  1  0
 15 40  1  0
 21 41  1  0
 22 42  1  0
 23 43  1  0
M  ISO  8  25   8  26   8  27  14  28  13  29  13  30  13  31  13  32   5
M  ISO  8  33  13  34  13  35  13  36  13  37   8  38   8  39  14  40  14
M  ISO  3  41  14  42  14  43  14
M  END
>  <minimizedAffinity>  (1) 
-7.13602686

>  <minimizedRMSD>  (1) 
1.66148567

$$$$
