
     RDKit          3D

 48 51  0  0  0  0  0  0  0  0999 V2000
   32.8830   28.0800   48.2550 C   0  0  0  0  0  0  0  0  0  0  0  0
   32.8170   28.6360   46.9350 C   0  0  0  0  0  0  0  0  0  0  0  0
   31.0740   28.5470   46.6110 S   0  0  0  0  0  0  0  0  0  0  0  0
   30.6560   27.7830   48.2690 C   0  0  0  0  0  0  0  0  0  0  0  0
   31.7400   27.7170   48.7510 N   0  0  0  0  0  0  0  0  0  0  0  0
   29.3830   27.3700   48.8450 N   0  0  0  0  0  0  0  0  0  0  0  0
   28.3910   26.9250   47.9340 C   0  0  0  0  0  0  0  0  0  0  0  0
   27.0020   26.9110   48.4850 C   0  0  0  0  0  0  0  0  0  0  0  0
   26.9010   27.5250   49.8160 N   0  0  0  0  0  0  0  0  0  0  0  0
   27.8860   26.8370   50.6380 C   0  0  0  0  0  0  0  0  0  0  0  0
   29.2150   27.4390   50.2790 C   0  0  0  0  0  0  0  0  0  0  0  0
   34.2240   27.9620   48.9360 C   0  0  0  0  0  0  0  0  0  0  0  0
   34.3440   28.8750   50.0870 C   0  0  0  0  0  0  0  0  0  0  0  0
   37.6030   30.3120   51.1650 C   0  0  0  0  0  0  0  0  0  0  0  0
   38.1490   30.7880   49.9710 C   0  0  0  0  0  0  0  0  0  0  0  0
   37.3790   30.6000   48.8250 C   0  0  0  0  0  0  0  0  0  0  0  0
   36.1780   29.9940   48.8820 N   0  0  0  0  0  0  0  0  0  0  0  0
   35.6950   29.5480   50.0820 C   0  0  0  0  0  0  0  0  0  0  0  0
   36.4160   29.7160   51.1950 N   0  0  0  0  0  0  0  0  0  0  0  0
   37.8680   31.0580   47.5800 N   0  0  0  0  0  0  0  0  0  0  0  0
   39.0000   31.9240   47.3200 C   0  0  0  0  0  0  0  0  0  0  0  0
   39.7350   31.1650   46.2320 C   0  0  0  0  0  0  0  0  0  0  0  0
   38.6050   30.5950   45.4040 C   0  0  0  0  0  0  0  0  0  0  0  0
   37.3440   30.7590   46.2620 C   0  0  0  0  0  0  0  0  0  0  0  0
   33.6277   29.0153   46.2956 H   0  0  0  0  0  0  0  0  0  0  0  0
   28.6465   25.9018   47.6214 H   0  0  0  0  0  0  0  0  0  0  0  0
   28.3886   27.6428   47.1005 H   0  0  0  0  0  0  0  0  0  0  0  0
   26.3466   27.4626   47.7949 H   0  0  0  0  0  0  0  0  0  0  0  0
   26.7016   25.8578   48.5873 H   0  0  0  0  0  0  0  0  0  0  0  0
   27.1144   28.5314   49.7652 H   0  0  0  0  0  0  0  0  0  0  0  0
   27.6706   26.9941   51.7052 H   0  0  0  0  0  0  0  0  0  0  0  0
   27.8731   25.7516   50.4600 H   0  0  0  0  0  0  0  0  0  0  0  0
   30.0214   26.8776   50.7736 H   0  0  0  0  0  0  0  0  0  0  0  0
   29.2535   28.4871   50.6108 H   0  0  0  0  0  0  0  0  0  0  0  0
   34.3529   26.9280   49.2886 H   0  0  0  0  0  0  0  0  0  0  0  0
   34.9999   28.2344   48.2054 H   0  0  0  0  0  0  0  0  0  0  0  0
   33.5567   29.6408   50.0265 H   0  0  0  0  0  0  0  0  0  0  0  0
   34.2356   28.2962   51.0161 H   0  0  0  0  0  0  0  0  0  0  0  0
   38.1680   30.4332   52.1010 H   0  0  0  0  0  0  0  0  0  0  0  0
   39.1307   31.2830   49.9372 H   0  0  0  0  0  0  0  0  0  0  0  0
   38.6735   32.9131   46.9664 H   0  0  0  0  0  0  0  0  0  0  0  0
   39.6141   32.1299   48.2091 H   0  0  0  0  0  0  0  0  0  0  0  0
   40.3644   31.8399   45.6333 H   0  0  0  0  0  0  0  0  0  0  0  0
   40.4211   30.3984   46.6214 H   0  0  0  0  0  0  0  0  0  0  0  0
   38.5024   31.1502   44.4599 H   0  0  0  0  0  0  0  0  0  0  0  0
   38.7841   29.5424   45.1393 H   0  0  0  0  0  0  0  0  0  0  0  0
   36.7202   31.5852   45.8902 H   0  0  0  0  0  0  0  0  0  0  0  0
   36.6985   29.8684   46.2495 H   0  0  0  0  0  0  0  0  0  0  0  0
  1  5  1  0
  1 12  1  0
  2  1  2  0
  3  2  1  0
  3  4  1  0
  4  5  2  0
  4  6  1  0
  6 11  1  0
  7  8  1  0
  7  6  1  0
  8  9  1  0
  9 10  1  0
 11 10  1  0
 12 13  1  0
 14 19  2  0
 15 14  1  0
 16 17  1  0
 16 15  2  0
 17 18  2  0
 18 13  1  0
 18 19  1  0
 20 16  1  0
 21 20  1  0
 22 21  1  0
 23 22  1  0
 23 24  1  0
 24 20  1  0
  2 25  1  0
  7 26  1  0
  7 27  1  0
  8 28  1  0
  8 29  1  0
  9 30  1  0
 10 31  1  0
 10 32  1  0
 11 33  1  0
 11 34  1  0
 12 35  1  0
 12 36  1  0
 13 37  1  0
 13 38  1  0
 14 39  1  0
 15 40  1  0
 21 41  1  0
 21 42  1  0
 22 43  1  0
 22 44  1  0
 23 45  1  0
 23 46  1  0
 24 47  1  0
 24 48  1  0
M  ISO  8  25  14  26  13  27  13  28  13  29  13  30   5  31  13  32  13
M  ISO  8  33  13  34  13  35   8  36   8  37   8  38   8  39  14  40  14
M  ISO  8  41  13  42  13  43  13  44  13  45  13  46  13  47  13  48  13
M  END
>  <minimizedAffinity>  (1) 
-6.99026966

>  <minimizedRMSD>  (1) 
1.46214581

$$$$
