
     RDKit          3D

 42 44  0  0  0  0  0  0  0  0999 V2000
   32.8310   28.0730   48.1870 C   0  0  0  0  0  0  0  0  0  0  0  0
   32.7490   28.5920   46.8510 C   0  0  0  0  0  0  0  0  0  0  0  0
   31.0040   28.4870   46.5610 S   0  0  0  0  0  0  0  0  0  0  0  0
   30.6020   27.7680   48.2410 C   0  0  0  0  0  0  0  0  0  0  0  0
   31.6940   27.7210   48.7080 N   0  0  0  0  0  0  0  0  0  0  0  0
   29.3420   27.3660   48.8530 N   0  0  0  0  0  0  0  0  0  0  0  0
   28.3260   26.9220   47.9530 C   0  0  0  0  0  0  0  0  0  0  0  0
   26.9470   26.9320   48.5270 C   0  0  0  0  0  0  0  0  0  0  0  0
   26.8720   27.5470   49.8570 N   0  0  0  0  0  0  0  0  0  0  0  0
   27.8640   26.8560   50.6540 C   0  0  0  0  0  0  0  0  0  0  0  0
   29.1990   27.4370   50.2790 C   0  0  0  0  0  0  0  0  0  0  0  0
   34.1760   27.9760   48.8610 C   0  0  0  0  0  0  0  0  0  0  0  0
   34.2510   28.8190   50.0650 C   0  0  0  0  0  0  0  0  0  0  0  0
   37.4410   30.1580   51.4330 C   0  0  0  0  0  0  0  0  0  0  0  0
   38.0900   30.6350   50.2920 C   0  0  0  0  0  0  0  0  0  0  0  0
   37.4190   30.4870   49.0770 C   0  0  0  0  0  0  0  0  0  0  0  0
   36.1980   29.9040   49.0390 N   0  0  0  0  0  0  0  0  0  0  0  0
   35.6170   29.4590   50.1840 C   0  0  0  0  0  0  0  0  0  0  0  0
   36.2400   29.5930   51.3420 N   0  0  0  0  0  0  0  0  0  0  0  0
   38.1180   30.9960   47.8770 C   0  0  0  0  0  0  0  0  0  0  0  0
   38.7110   32.3820   48.0850 C   0  0  0  0  0  0  0  0  0  0  0  0
   33.5493   28.9550   46.1893 H   0  0  0  0  0  0  0  0  0  0  0  0
   28.5637   25.8927   47.6463 H   0  0  0  0  0  0  0  0  0  0  0  0
   28.3210   27.6296   47.1108 H   0  0  0  0  0  0  0  0  0  0  0  0
   26.2903   27.4934   47.8461 H   0  0  0  0  0  0  0  0  0  0  0  0
   26.6343   25.8831   48.6370 H   0  0  0  0  0  0  0  0  0  0  0  0
   27.0895   28.5523   49.8024 H   0  0  0  0  0  0  0  0  0  0  0  0
   27.6683   27.0152   51.7247 H   0  0  0  0  0  0  0  0  0  0  0  0
   27.8372   25.7723   50.4675 H   0  0  0  0  0  0  0  0  0  0  0  0
   30.0028   26.8617   50.7616 H   0  0  0  0  0  0  0  0  0  0  0  0
   29.2618   28.4833   50.6125 H   0  0  0  0  0  0  0  0  0  0  0  0
   34.3546   26.9294   49.1485 H   0  0  0  0  0  0  0  0  0  0  0  0
   34.9383   28.3290   48.1509 H   0  0  0  0  0  0  0  0  0  0  0  0
   33.4867   29.6076   50.0021 H   0  0  0  0  0  0  0  0  0  0  0  0
   34.0766   28.1892   50.9498 H   0  0  0  0  0  0  0  0  0  0  0  0
   37.9271   30.2503   52.4154 H   0  0  0  0  0  0  0  0  0  0  0  0
   39.0829   31.1051   50.3482 H   0  0  0  0  0  0  0  0  0  0  0  0
   37.4001   31.0419   47.0448 H   0  0  0  0  0  0  0  0  0  0  0  0
   38.9491   30.3086   47.6607 H   0  0  0  0  0  0  0  0  0  0  0  0
   38.7981   32.5856   49.1625 H   0  0  0  0  0  0  0  0  0  0  0  0
   39.7075   32.4278   47.6214 H   0  0  0  0  0  0  0  0  0  0  0  0
   38.0560   33.1344   47.6214 H   0  0  0  0  0  0  0  0  0  0  0  0
  1  5  1  0
  1 12  1  0
  2  1  2  0
  3  2  1  0
  3  4  1  0
  4  5  2  0
  4  6  1  0
  6 11  1  0
  7  8  1  0
  7  6  1  0
  8  9  1  0
  9 10  1  0
 11 10  1  0
 12 13  1  0
 13 18  1  0
 15 14  2  0
 16 15  1  0
 17 16  2  0
 17 18  1  0
 18 19  2  0
 19 14  1  0
 20 21  1  0
 20 16  1  0
  2 22  1  0
  7 23  1  0
  7 24  1  0
  8 25  1  0
  8 26  1  0
  9 27  1  0
 10 28  1  0
 10 29  1  0
 11 30  1  0
 11 31  1  0
 12 32  1  0
 12 33  1  0
 13 34  1  0
 13 35  1  0
 14 36  1  0
 15 37  1  0
 20 38  1  0
 20 39  1  0
 21 40  1  0
 21 41  1  0
 21 42  1  0
M  ISO  8  22  14  23  13  24  13  25  13  26  13  27   5  28  13  29  13
M  ISO  8  30  13  31  13  32   8  33   8  34   8  35   8  36  14  37  14
M  ISO  5  38   8  39   8  40   8  41   8  42   8
M  END
>  <minimizedAffinity>  (1) 
-6.47371292

>  <minimizedRMSD>  (1) 
1.41490555

$$$$
