
     RDKit          3D

 38 40  0  0  0  0  0  0  0  0999 V2000
   34.0700   28.4960   48.3190 C   0  0  0  0  0  0  0  0  0  0  0  0
   34.1730   28.7670   46.9150 C   0  0  0  0  0  0  0  0  0  0  0  0
   32.5150   28.4350   46.3830 S   0  0  0  0  0  0  0  0  0  0  0  0
   31.8920   27.9750   48.1050 C   0  0  0  0  0  0  0  0  0  0  0  0
   32.8910   28.1220   48.7310 N   0  0  0  0  0  0  0  0  0  0  0  0
   30.5810   27.5600   48.5630 N   0  0  0  0  0  0  0  0  0  0  0  0
   29.7700   26.8580   47.6200 C   0  0  0  0  0  0  0  0  0  0  0  0
   28.3300   26.7800   47.9760 C   0  0  0  0  0  0  0  0  0  0  0  0
   27.9680   27.6250   49.1180 N   0  0  0  0  0  0  0  0  0  0  0  0
   28.8600   27.2170   50.1940 C   0  0  0  0  0  0  0  0  0  0  0  0
   30.1830   27.8740   49.9130 C   0  0  0  0  0  0  0  0  0  0  0  0
   35.2900   28.6570   49.1910 C   0  0  0  0  0  0  0  0  0  0  0  0
   35.2850   29.9450   49.9180 C   0  0  0  0  0  0  0  0  0  0  0  0
   37.6930   32.7500   49.5370 C   0  0  0  0  0  0  0  0  0  0  0  0
   38.4730   32.3580   48.4610 C   0  0  0  0  0  0  0  0  0  0  0  0
   38.1630   31.1300   47.8760 C   0  0  0  0  0  0  0  0  0  0  0  0
   37.1410   30.3870   48.3650 N   0  0  0  0  0  0  0  0  0  0  0  0
   36.4130   30.8250   49.4230 C   0  0  0  0  0  0  0  0  0  0  0  0
   36.6910   31.9900   49.9950 N   0  0  0  0  0  0  0  0  0  0  0  0
   38.8790   30.5960   46.7600 N   0  0  0  0  0  0  0  0  0  0  0  0
   35.0442   29.0925   46.3275 H   0  0  0  0  0  0  0  0  0  0  0  0
   30.1572   25.8322   47.5319 H   0  0  0  0  0  0  0  0  0  0  0  0
   29.8270   27.4246   46.6789 H   0  0  0  0  0  0  0  0  0  0  0  0
   27.7375   27.0973   47.1053 H   0  0  0  0  0  0  0  0  0  0  0  0
   28.1213   25.7386   48.2624 H   0  0  0  0  0  0  0  0  0  0  0  0
   28.1086   28.6196   48.8901 H   0  0  0  0  0  0  0  0  0  0  0  0
   28.4657   27.5530   51.1644 H   0  0  0  0  0  0  0  0  0  0  0  0
   28.9576   26.1223   50.2408 H   0  0  0  0  0  0  0  0  0  0  0  0
   30.9393   27.4986   50.6181 H   0  0  0  0  0  0  0  0  0  0  0  0
   30.0915   28.9638   50.0315 H   0  0  0  0  0  0  0  0  0  0  0  0
   35.3143   27.8361   49.9228 H   0  0  0  0  0  0  0  0  0  0  0  0
   36.1773   28.6369   48.5412 H   0  0  0  0  0  0  0  0  0  0  0  0
   34.3249   30.4546   49.7492 H   0  0  0  0  0  0  0  0  0  0  0  0
   35.4225   29.7530   50.9924 H   0  0  0  0  0  0  0  0  0  0  0  0
   37.9029   33.7117   50.0280 H   0  0  0  0  0  0  0  0  0  0  0  0
   39.2961   32.9842   48.0865 H   0  0  0  0  0  0  0  0  0  0  0  0
   39.6643   31.1230   46.3520 H   0  0  0  0  0  0  0  0  0  0  0  0
   38.6096   29.6842   46.3638 H   0  0  0  0  0  0  0  0  0  0  0  0
  1  5  1  0
  1 12  1  0
  2  1  2  0
  3  2  1  0
  3  4  1  0
  4  6  1  0
  4  5  2  0
  6 11  1  0
  7  8  1  0
  7  6  1  0
  8  9  1  0
  9 10  1  0
 11 10  1  0
 12 13  1  0
 14 19  2  0
 15 14  1  0
 16 17  1  0
 16 15  2  0
 17 18  2  0
 18 13  1  0
 18 19  1  0
 20 16  1  0
  2 21  1  0
  7 22  1  0
  7 23  1  0
  8 24  1  0
  8 25  1  0
  9 26  1  0
 10 27  1  0
 10 28  1  0
 11 29  1  0
 11 30  1  0
 12 31  1  0
 12 32  1  0
 13 33  1  0
 13 34  1  0
 14 35  1  0
 15 36  1  0
 20 37  1  0
 20 38  1  0
M  ISO  8  21  14  22  13  23  13  24  13  25  13  26   5  27  13  28  13
M  ISO  8  29  13  30  13  31   8  32   8  33   8  34   8  35  14  36  14
M  END
>  <minimizedAffinity>  (1) 
-5.69476032

>  <minimizedRMSD>  (1) 
0.573869526

$$$$
