
     RDKit          3D

 43 46  0  0  1  0  0  0  0  0999 V2000
   38.7680   32.3900   47.3560 C   0  0  0  0  0  0  0  0  0  0  0  0
   39.4350   33.6180   47.2600 C   0  0  0  0  0  0  0  0  0  0  0  0
   39.7730   34.3920   48.3550 C   0  0  0  0  0  0  0  0  0  0  0  0
   39.4450   33.9430   49.6310 C   0  0  0  0  0  0  0  0  0  0  0  0
   38.7860   32.7290   49.7080 C   0  0  0  0  0  0  0  0  0  0  0  0
   38.4330   31.9370   48.6260 C   0  0  0  0  0  0  0  0  0  0  0  0
   37.6440   30.7370   48.7700 C   0  0  1  0  0  0  0  0  0  0  0  0
   37.8730   30.2730   50.2630 C   0  0  0  0  0  0  0  0  0  0  0  0
   37.2040   28.9150   50.4840 C   0  0  0  0  0  0  0  0  0  0  0  0
   35.8150   28.9190   49.9430 C   0  0  0  0  0  0  0  0  0  0  0  0
   35.3740   30.3390   49.7690 C   0  0  0  0  0  0  0  0  0  0  0  0
   36.1660   30.9190   48.6160 C   0  0  2  0  0  0  0  0  0  0  0  0
   35.6360   30.1710   47.3720 C   0  0  0  0  0  0  0  0  0  0  0  0
   34.6130   29.1360   47.4900 C   0  0  0  0  0  0  0  0  0  0  0  0
   34.2540   30.4740   46.8810 C   0  0  0  0  0  0  0  0  0  0  0  0
   39.4540   30.5620   45.8930 C   0  0  0  0  0  0  0  0  0  0  0  0
   38.5950   31.6950   46.1270 C   0  0  0  0  0  0  0  0  0  0  0  0
   37.6800   31.9810   45.1520 C   0  0  0  0  0  0  0  0  0  0  0  0
   37.6170   31.2080   44.0460 N   0  0  0  0  0  0  0  0  0  0  0  0
   38.4480   30.1330   43.8500 C   0  0  0  0  0  0  0  0  0  0  0  0
   39.3920   29.7980   44.7940 N   0  0  0  0  0  0  0  0  0  0  0  0
   39.7046   33.9867   46.2593 H   0  0  0  0  0  0  0  0  0  0  0  0
   40.2947   35.3508   48.2193 H   0  0  0  0  0  0  0  0  0  0  0  0
   39.6966   34.5231   50.5311 H   0  0  0  0  0  0  0  0  0  0  0  0
   38.5202   32.3618   50.7102 H   0  0  0  0  0  0  0  0  0  0  0  0
   37.9580   30.0369   47.9818 H   0  0  0  0  0  0  0  0  0  0  0  0
   38.9520   30.1862   50.4585 H   0  0  0  0  0  0  0  0  0  0  0  0
   37.4343   31.0134   50.9481 H   0  0  0  0  0  0  0  0  0  0  0  0
   37.7889   28.1365   49.9722 H   0  0  0  0  0  0  0  0  0  0  0  0
   37.1627   28.7121   51.5643 H   0  0  0  0  0  0  0  0  0  0  0  0
   35.7941   28.4029   48.9718 H   0  0  0  0  0  0  0  0  0  0  0  0
   35.1397   28.3984   50.6379 H   0  0  0  0  0  0  0  0  0  0  0  0
   34.2983   30.3738   49.5419 H   0  0  0  0  0  0  0  0  0  0  0  0
   35.5473   30.9159   50.6894 H   0  0  0  0  0  0  0  0  0  0  0  0
   36.0323   32.0089   48.5507 H   0  0  0  0  0  0  0  0  0  0  0  0
   36.6443   30.1887   46.9326 H   0  0  0  0  0  0  0  0  0  0  0  0
   34.6634   28.2396   46.8544 H   0  0  0  0  0  0  0  0  0  0  0  0
   34.2160   28.5293   48.3172 H   0  0  0  0  0  0  0  0  0  0  0  0
   33.6121   31.1794   47.4290 H   0  0  0  0  0  0  0  0  0  0  0  0
   33.8100   30.8169   45.9348 H   0  0  0  0  0  0  0  0  0  0  0  0
   40.2022   30.3103   46.6591 H   0  0  0  0  0  0  0  0  0  0  0  0
   36.9984   32.8366   45.2677 H   0  0  0  0  0  0  0  0  0  0  0  0
   38.3587   29.5346   42.9313 H   0  0  0  0  0  0  0  0  0  0  0  0
  1  6  1  0
  2  1  2  0
  2  3  1  0
  3  4  2  0
  4  5  1  0
  6  7  1  0
  6  5  2  0
  7  8  1  0
  8  9  1  0
 10  9  1  0
 11 10  1  0
 12  7  1  0
 12 11  1  0
 13 14  1  0
 13 12  1  0
 15 13  1  0
 15 14  1  0
 16 17  2  0
 17  1  1  0
 18 17  1  0
 19 18  2  0
 20 19  1  0
 20 21  2  0
 21 16  1  0
  2 22  1  0
  3 23  1  0
  4 24  1  0
  5 25  1  0
  7 26  1  6
  8 27  1  0
  8 28  1  0
  9 29  1  0
  9 30  1  0
 10 31  1  0
 10 32  1  0
 11 33  1  0
 11 34  1  0
 12 35  1  6
 13 36  1  0
 14 37  1  0
 14 38  1  0
 15 39  1  0
 15 40  1  0
 16 41  1  0
 18 42  1  0
 20 43  1  0
M  ISO  8  22  14  23  14  24  14  25  14  26  13  27  13  28  13  29  13
M  ISO  8  30  13  31  13  32  13  33  13  34  13  35  13  36  13  37  13
M  ISO  6  38  13  39  13  40  13  41  14  42  14  43  14
M  END
>  <minimizedAffinity>  (1) 
-6.74572182

>  <minimizedRMSD>  (1) 
2.69663835

$$$$
