
     RDKit          3D

 38 40  0  0  1  0  0  0  0  0999 V2000
   37.7120   31.5800   45.8840 C   0  0  0  0  0  0  0  0  0  0  0  0
   38.4390   32.1280   44.8190 C   0  0  0  0  0  0  0  0  0  0  0  0
   39.5600   32.9190   44.9900 C   0  0  0  0  0  0  0  0  0  0  0  0
   40.0070   33.1990   46.2830 C   0  0  0  0  0  0  0  0  0  0  0  0
   39.2720   32.6490   47.3180 C   0  0  0  0  0  0  0  0  0  0  0  0
   38.1450   31.8570   47.1730 C   0  0  0  0  0  0  0  0  0  0  0  0
   37.3590   31.4190   48.3010 C   0  0  1  0  0  0  0  0  0  0  0  0
   37.6580   29.8750   48.4360 C   0  0  0  0  0  0  0  0  0  0  0  0
   36.7620   29.2610   49.5110 C   0  0  0  0  0  0  0  0  0  0  0  0
   36.7330   30.1270   50.7350 C   0  0  0  0  0  0  0  0  0  0  0  0
   37.9620   30.9890   50.7010 C   0  0  0  0  0  0  0  0  0  0  0  0
   37.7310   32.0250   49.6180 C   0  0  2  0  0  0  0  0  0  0  0  0
   36.6550   32.9220   50.1160 N   0  0  0  0  0  0  0  0  0  0  0  0
   36.8180   29.9650   44.2840 C   0  0  0  0  0  0  0  0  0  0  0  0
   36.6500   30.7110   45.5060 C   0  0  0  0  0  0  0  0  0  0  0  0
   35.4930   30.4990   46.1970 C   0  0  0  0  0  0  0  0  0  0  0  0
   34.5820   29.6190   45.7250 N   0  0  0  0  0  0  0  0  0  0  0  0
   34.7680   28.9200   44.5590 C   0  0  0  0  0  0  0  0  0  0  0  0
   35.9120   29.0950   43.8160 N   0  0  0  0  0  0  0  0  0  0  0  0
   38.1004   31.9180   43.7937 H   0  0  0  0  0  0  0  0  0  0  0  0
   40.0938   33.3232   44.1173 H   0  0  0  0  0  0  0  0  0  0  0  0
   40.8942   33.8223   46.4683 H   0  0  0  0  0  0  0  0  0  0  0  0
   39.6115   32.8585   48.3431 H   0  0  0  0  0  0  0  0  0  0  0  0
   36.3151   31.7055   48.1058 H   0  0  0  0  0  0  0  0  0  0  0  0
   37.4627   29.3806   47.4730 H   0  0  0  0  0  0  0  0  0  0  0  0
   38.7113   29.7348   48.7206 H   0  0  0  0  0  0  0  0  0  0  0  0
   35.7405   29.1605   49.1155 H   0  0  0  0  0  0  0  0  0  0  0  0
   37.1639   28.2744   49.7852 H   0  0  0  0  0  0  0  0  0  0  0  0
   35.8312   30.7568   50.7293 H   0  0  0  0  0  0  0  0  0  0  0  0
   36.7136   29.5121   51.6469 H   0  0  0  0  0  0  0  0  0  0  0  0
   38.1076   31.4818   51.6736 H   0  0  0  0  0  0  0  0  0  0  0  0
   38.8619   30.3911   50.4943 H   0  0  0  0  0  0  0  0  0  0  0  0
   38.6633   32.5762   49.4256 H   0  0  0  0  0  0  0  0  0  0  0  0
   36.6564   32.9209   51.1460 H   0  0  0  0  0  0  0  0  0  0  0  0
   36.8201   33.8793   49.7735 H   0  0  0  0  0  0  0  0  0  0  0  0
   37.7400   30.1180   43.7039 H   0  0  0  0  0  0  0  0  0  0  0  0
   35.3022   31.0420   47.1344 H   0  0  0  0  0  0  0  0  0  0  0  0
   33.9967   28.2147   44.2161 H   0  0  0  0  0  0  0  0  0  0  0  0
  1  6  2  0
  2  3  2  0
  2  1  1  0
  3  4  1  0
  4  5  2  0
  6  5  1  0
  6  7  1  0
  7  8  1  0
  7 12  1  0
  8  9  1  0
  9 10  1  0
 11 10  1  0
 12 13  1  0
 12 11  1  0
 14 15  2  0
 15  1  1  0
 15 16  1  0
 17 16  2  0
 18 17  1  0
 19 14  1  0
 19 18  2  0
  2 20  1  0
  3 21  1  0
  4 22  1  0
  5 23  1  0
  7 24  1  6
  8 25  1  0
  8 26  1  0
  9 27  1  0
  9 28  1  0
 10 29  1  0
 10 30  1  0
 11 31  1  0
 11 32  1  0
 12 33  1  6
 13 34  1  0
 13 35  1  0
 14 36  1  0
 16 37  1  0
 18 38  1  0
M  ISO  8  20  14  21  14  22  14  23  14  24  13  25  13  26  13  27  13
M  ISO  8  28  13  29  13  30  13  31  13  32  13  33  13  34   5  35   5
M  ISO  3  36  14  37  14  38  14
M  END
>  <minimizedAffinity>  (1) 
-5.39156818

>  <minimizedRMSD>  (1) 
0.511178374

$$$$
