
     RDKit          3D

 30 31  0  0  0  0  0  0  0  0999 V2000
   35.4190   30.4030   49.9130 C   0  0  0  0  0  0  0  0  0  0  0  0
   36.4250   31.1980   49.1150 C   0  0  0  0  0  0  0  0  0  0  0  0
   37.8180   30.6750   49.2570 C   0  0  0  0  0  0  0  0  0  0  0  0
   38.2760   30.5600   50.6880 C   0  0  0  0  0  0  0  0  0  0  0  0
   37.2210   30.0360   51.6120 C   0  0  0  0  0  0  0  0  0  0  0  0
   36.0400   29.4450   50.8740 C   0  0  0  0  0  0  0  0  0  0  0  0
   34.5310   29.6330   49.0220 C   0  0  0  0  0  0  0  0  0  0  0  0
   34.4250   30.0840   47.6940 C   0  0  0  0  0  0  0  0  0  0  0  0
   33.5910   29.4070   46.8080 C   0  0  0  0  0  0  0  0  0  0  0  0
   32.9090   28.3200   47.2880 N   0  0  0  0  0  0  0  0  0  0  0  0
   33.0340   27.9120   48.5670 C   0  0  0  0  0  0  0  0  0  0  0  0
   33.8290   28.5510   49.4280 N   0  0  0  0  0  0  0  0  0  0  0  0
   32.6000   30.7430   44.8910 C   0  0  0  0  0  0  0  0  0  0  0  0
   32.0050   31.5490   45.6460 O   0  0  0  0  0  0  0  0  0  0  0  0
   33.3640   29.7110   45.4630 N   0  0  0  0  0  0  0  0  0  0  0  0
   34.8546   31.1525   50.4872 H   0  0  0  0  0  0  0  0  0  0  0  0
   36.4039   32.2415   49.4623 H   0  0  0  0  0  0  0  0  0  0  0  0
   36.1463   31.1163   48.0540 H   0  0  0  0  0  0  0  0  0  0  0  0
   37.8636   29.6773   48.7960 H   0  0  0  0  0  0  0  0  0  0  0  0
   38.4853   31.3956   48.7615 H   0  0  0  0  0  0  0  0  0  0  0  0
   39.1395   29.8794   50.7237 H   0  0  0  0  0  0  0  0  0  0  0  0
   38.5302   31.5744   51.0290 H   0  0  0  0  0  0  0  0  0  0  0  0
   37.6655   29.2556   52.2472 H   0  0  0  0  0  0  0  0  0  0  0  0
   36.8505   30.8832   52.2078 H   0  0  0  0  0  0  0  0  0  0  0  0
   35.2803   29.1442   51.6105 H   0  0  0  0  0  0  0  0  0  0  0  0
   36.4087   28.5865   50.2935 H   0  0  0  0  0  0  0  0  0  0  0  0
   34.9953   30.9628   47.3586 H   0  0  0  0  0  0  0  0  0  0  0  0
   32.4681   27.0328   48.9086 H   0  0  0  0  0  0  0  0  0  0  0  0
   32.5250   30.8423   43.7981 H   0  0  0  0  0  0  0  0  0  0  0  0
   33.8263   29.0842   44.7890 H   0  0  0  0  0  0  0  0  0  0  0  0
  1  6  1  0
  2  3  1  0
  2  1  1  0
  3  4  1  0
  4  5  1  0
  6  5  1  0
  7 12  1  0
  7  1  1  0
  8  7  2  0
  9 10  2  0
  9  8  1  0
 10 11  1  0
 11 12  2  0
 13 15  1  0
 13 14  2  0
 15  9  1  0
  1 16  1  0
  2 17  1  0
  2 18  1  0
  3 19  1  0
  3 20  1  0
  4 21  1  0
  4 22  1  0
  5 23  1  0
  5 24  1  0
  6 25  1  0
  6 26  1  0
  8 27  1  0
 11 28  1  0
 13 29  1  0
 15 30  1  0
M  ISO  8  16  13  17  13  18  13  19  13  20  13  21  13  22  13  23  13
M  ISO  6  24  13  25  13  26  13  27  14  28  14  29   6
M  END
>  <minimizedAffinity>  (1) 
-5.29678774

>  <minimizedRMSD>  (1) 
0.644828141

$$$$
