
     RDKit          3D

 33 35  0  0  0  0  0  0  0  0999 V2000
   35.5420   30.2770   49.7630 C   0  0  0  0  0  0  0  0  0  0  0  0
   36.4250   31.2240   49.0740 C   0  0  0  0  0  0  0  0  0  0  0  0
   37.8830   30.8260   49.1580 C   0  0  0  0  0  0  0  0  0  0  0  0
   38.3440   30.7880   50.5950 C   0  0  0  0  0  0  0  0  0  0  0  0
   37.3430   30.1610   51.5190 C   0  0  0  0  0  0  0  0  0  0  0  0
   36.2520   29.4230   50.7700 C   0  0  0  0  0  0  0  0  0  0  0  0
   34.7700   29.3990   48.8740 C   0  0  0  0  0  0  0  0  0  0  0  0
   34.1670   30.0000   47.7590 C   0  0  0  0  0  0  0  0  0  0  0  0
   33.4070   29.1480   46.9280 C   0  0  0  0  0  0  0  0  0  0  0  0
   33.2950   27.8190   47.2320 N   0  0  0  0  0  0  0  0  0  0  0  0
   33.9060   27.2960   48.3280 C   0  0  0  0  0  0  0  0  0  0  0  0
   34.6300   28.0980   49.1250 N   0  0  0  0  0  0  0  0  0  0  0  0
   32.7070   29.6290   45.7120 C   0  0  0  0  0  0  0  0  0  0  0  0
   32.2610   31.0730   45.7790 C   0  0  0  0  0  0  0  0  0  0  0  0
   31.2360   30.0060   45.8410 C   0  0  0  0  0  0  0  0  0  0  0  0
   34.8375   30.9454   50.2796 H   0  0  0  0  0  0  0  0  0  0  0  0
   36.3036   32.2165   49.5324 H   0  0  0  0  0  0  0  0  0  0  0  0
   36.1419   31.2311   48.0111 H   0  0  0  0  0  0  0  0  0  0  0  0
   38.0115   29.8291   48.7111 H   0  0  0  0  0  0  0  0  0  0  0  0
   38.4842   31.5689   48.6133 H   0  0  0  0  0  0  0  0  0  0  0  0
   39.2785   30.2101   50.6474 H   0  0  0  0  0  0  0  0  0  0  0  0
   38.4838   31.8291   50.9216 H   0  0  0  0  0  0  0  0  0  0  0  0
   37.8649   29.4493   52.1755 H   0  0  0  0  0  0  0  0  0  0  0  0
   36.8679   30.9671   52.0973 H   0  0  0  0  0  0  0  0  0  0  0  0
   35.5144   29.0566   51.4992 H   0  0  0  0  0  0  0  0  0  0  0  0
   36.7334   28.6016   50.2190 H   0  0  0  0  0  0  0  0  0  0  0  0
   34.2797   31.0730   47.5444 H   0  0  0  0  0  0  0  0  0  0  0  0
   33.8081   26.2252   48.5598 H   0  0  0  0  0  0  0  0  0  0  0  0
   33.2797   28.9913   45.0226 H   0  0  0  0  0  0  0  0  0  0  0  0
   32.4813   31.6722   46.6748 H   0  0  0  0  0  0  0  0  0  0  0  0
   32.4153   31.9576   45.1436 H   0  0  0  0  0  0  0  0  0  0  0  0
   30.5533   29.8509   44.9926 H   0  0  0  0  0  0  0  0  0  0  0  0
   30.4278   29.7471   46.5409 H   0  0  0  0  0  0  0  0  0  0  0  0
  1  6  1  0
  2  3  1  0
  2  1  1  0
  3  4  1  0
  4  5  1  0
  6  5  1  0
  7 12  1  0
  7  1  1  0
  8  7  2  0
  9 10  2  0
  9  8  1  0
 10 11  1  0
 11 12  2  0
 13 14  1  0
 13 15  1  0
 13  9  1  0
 14 15  1  0
  1 16  1  0
  2 17  1  0
  2 18  1  0
  3 19  1  0
  3 20  1  0
  4 21  1  0
  4 22  1  0
  5 23  1  0
  5 24  1  0
  6 25  1  0
  6 26  1  0
  8 27  1  0
 11 28  1  0
 13 29  1  0
 14 30  1  0
 14 31  1  0
 15 32  1  0
 15 33  1  0
M  ISO  8  16  13  17  13  18  13  19  13  20  13  21  13  22  13  23  13
M  ISO  8  24  13  25  13  26  13  27  14  28  14  29  13  30  13  31  13
M  ISO  2  32  13  33  13
M  END
>  <minimizedAffinity>  (1) 
-5.0904398

>  <minimizedRMSD>  (1) 
0.220683828

$$$$
