
     RDKit          3D

 36 38  0  0  0  0  0  0  0  0999 V2000
   34.5980   29.5250   48.8990 C   0  0  0  0  0  0  0  0  0  0  0  0
   34.1230   30.1770   47.7460 C   0  0  0  0  0  0  0  0  0  0  0  0
   33.3150   29.4090   46.8850 C   0  0  0  0  0  0  0  0  0  0  0  0
   33.0370   28.0960   47.2040 N   0  0  0  0  0  0  0  0  0  0  0  0
   33.5290   27.5210   48.3400 C   0  0  0  0  0  0  0  0  0  0  0  0
   34.2950   28.2320   49.1660 N   0  0  0  0  0  0  0  0  0  0  0  0
   32.7850   29.9730   45.6950 N   0  0  0  0  0  0  0  0  0  0  0  0
   33.5810   30.4750   44.7160 C   0  0  0  0  0  0  0  0  0  0  0  0
   33.0180   31.0130   43.5780 C   0  0  0  0  0  0  0  0  0  0  0  0
   31.6570   31.0290   43.4600 C   0  0  0  0  0  0  0  0  0  0  0  0
   31.1370   31.5230   42.4180 O   0  0  0  0  0  0  0  0  0  0  0  0
   30.8650   30.5310   44.4360 N   0  0  0  0  0  0  0  0  0  0  0  0
   31.4570   30.0160   45.5270 C   0  0  0  0  0  0  0  0  0  0  0  0
   30.6220   29.5730   46.3850 O   0  0  0  0  0  0  0  0  0  0  0  0
   35.4490   30.3540   49.8100 C   0  0  0  0  0  0  0  0  0  0  0  0
   36.4430   31.1490   48.9900 C   0  0  0  0  0  0  0  0  0  0  0  0
   37.8550   30.6820   49.1800 C   0  0  0  0  0  0  0  0  0  0  0  0
   38.2810   30.6420   50.6190 C   0  0  0  0  0  0  0  0  0  0  0  0
   37.2350   30.0840   51.5360 C   0  0  0  0  0  0  0  0  0  0  0  0
   36.0920   29.4290   50.7870 C   0  0  0  0  0  0  0  0  0  0  0  0
   34.3688   31.2271   47.5293 H   0  0  0  0  0  0  0  0  0  0  0  0
   33.2933   26.4721   48.5730 H   0  0  0  0  0  0  0  0  0  0  0  0
   34.6748   30.4525   44.8308 H   0  0  0  0  0  0  0  0  0  0  0  0
   33.6537   31.4222   42.7790 H   0  0  0  0  0  0  0  0  0  0  0  0
   29.8390   30.5459   44.3461 H   0  0  0  0  0  0  0  0  0  0  0  0
   34.8585   31.0920   50.3728 H   0  0  0  0  0  0  0  0  0  0  0  0
   36.3790   32.2061   49.2875 H   0  0  0  0  0  0  0  0  0  0  0  0
   36.1865   31.0085   47.9296 H   0  0  0  0  0  0  0  0  0  0  0  0
   37.9467   29.6691   48.7609 H   0  0  0  0  0  0  0  0  0  0  0  0
   38.5077   31.4044   48.6680 H   0  0  0  0  0  0  0  0  0  0  0  0
   39.1828   30.0171   50.6981 H   0  0  0  0  0  0  0  0  0  0  0  0
   38.4649   31.6806   50.9314 H   0  0  0  0  0  0  0  0  0  0  0  0
   37.7037   29.3336   52.1896 H   0  0  0  0  0  0  0  0  0  0  0  0
   36.8176   30.9218   52.1139 H   0  0  0  0  0  0  0  0  0  0  0  0
   35.3347   29.1013   51.5144 H   0  0  0  0  0  0  0  0  0  0  0  0
   36.5037   28.5788   50.2233 H   0  0  0  0  0  0  0  0  0  0  0  0
  1  6  1  0
  1 15  1  0
  2  1  2  0
  3  4  2  0
  3  2  1  0
  4  5  1  0
  5  6  2  0
  7  3  1  0
  8  7  1  0
  9  8  2  0
 10  9  1  0
 10 12  1  0
 11 10  2  0
 12 13  1  0
 13  7  1  0
 13 14  2  0
 15 20  1  0
 16 17  1  0
 16 15  1  0
 17 18  1  0
 18 19  1  0
 20 19  1  0
  2 21  1  0
  5 22  1  0
  8 23  1  0
  9 24  1  0
 12 25  1  0
 15 26  1  0
 16 27  1  0
 16 28  1  0
 17 29  1  0
 17 30  1  0
 18 31  1  0
 18 32  1  0
 19 33  1  0
 19 34  1  0
 20 35  1  0
 20 36  1  0
M  ISO  8  21  14  22  14  23  14  24  14  25   9  26  13  27  13  28  13
M  ISO  8  29  13  30  13  31  13  32  13  33  13  34  13  35  13  36  13
M  END
>  <minimizedAffinity>  (1) 
-5.82023096

>  <minimizedRMSD>  (1) 
0.250909388

$$$$
