
     RDKit          3D

 39 41  0  0  1  0  0  0  0  0999 V2000
   34.7320   29.6270   48.4570 C   0  0  0  0  0  0  0  0  0  0  0  0
   33.9070   30.2770   47.5380 C   0  0  0  0  0  0  0  0  0  0  0  0
   33.1010   29.4810   46.7190 C   0  0  0  0  0  0  0  0  0  0  0  0
   33.1580   28.1010   46.8570 N   0  0  0  0  0  0  0  0  0  0  0  0
   33.9850   27.5130   47.7760 C   0  0  0  0  0  0  0  0  0  0  0  0
   34.7510   28.2740   48.5540 N   0  0  0  0  0  0  0  0  0  0  0  0
   32.2400   30.0360   45.7510 N   0  0  0  0  0  0  0  0  0  0  0  0
   32.7120   30.8120   44.7270 C   0  0  0  0  0  0  0  0  0  0  0  0
   31.8400   31.3390   43.7950 C   0  0  0  0  0  0  0  0  0  0  0  0
   30.5100   31.0640   43.9260 C   0  0  0  0  0  0  0  0  0  0  0  0
   29.7220   31.5550   43.0630 O   0  0  0  0  0  0  0  0  0  0  0  0
   30.0330   30.2920   44.9430 N   0  0  0  0  0  0  0  0  0  0  0  0
   30.9320   29.8090   45.8180 C   0  0  0  0  0  0  0  0  0  0  0  0
   30.3940   29.1040   46.7250 O   0  0  0  0  0  0  0  0  0  0  0  0
   35.5760   30.5140   49.3220 C   0  0  2  0  0  0  0  0  0  0  0  0
   36.6640   31.1480   48.4660 C   0  0  0  0  0  0  0  0  0  0  0  0
   38.0300   30.6410   48.7770 C   0  0  0  0  0  0  0  0  0  0  0  0
   38.3800   30.7440   50.2290 C   0  0  0  0  0  0  0  0  0  0  0  0
   37.2730   30.3610   51.1470 C   0  0  0  0  0  0  0  0  0  0  0  0
   36.1220   29.6860   50.4200 C   0  0  1  0  0  0  0  0  0  0  0  0
   35.0590   29.2580   51.3630 C   0  0  0  0  0  0  0  0  0  0  0  0
   33.8916   31.3742   47.4610 H   0  0  0  0  0  0  0  0  0  0  0  0
   34.0162   26.4175   47.8708 H   0  0  0  0  0  0  0  0  0  0  0  0
   33.7898   31.0165   44.6462 H   0  0  0  0  0  0  0  0  0  0  0  0
   32.2081   31.9644   42.9683 H   0  0  0  0  0  0  0  0  0  0  0  0
   29.0279   30.0877   45.0370 H   0  0  0  0  0  0  0  0  0  0  0  0
   34.9942   31.3353   49.7658 H   0  0  0  0  0  0  0  0  0  0  0  0
   36.6492   32.2353   48.6318 H   0  0  0  0  0  0  0  0  0  0  0  0
   36.4496   30.8848   47.4197 H   0  0  0  0  0  0  0  0  0  0  0  0
   38.0874   29.5841   48.4775 H   0  0  0  0  0  0  0  0  0  0  0  0
   38.7453   31.2665   48.2228 H   0  0  0  0  0  0  0  0  0  0  0  0
   39.2370   30.0832   50.4260 H   0  0  0  0  0  0  0  0  0  0  0  0
   38.6066   31.8019   50.4275 H   0  0  0  0  0  0  0  0  0  0  0  0
   37.6669   29.6676   51.9047 H   0  0  0  0  0  0  0  0  0  0  0  0
   36.8846   31.2825   51.6053 H   0  0  0  0  0  0  0  0  0  0  0  0
   36.5363   28.7818   49.9501 H   0  0  0  0  0  0  0  0  0  0  0  0
   35.4077   29.3984   52.3968 H   0  0  0  0  0  0  0  0  0  0  0  0
   34.1553   29.8623   51.1956 H   0  0  0  0  0  0  0  0  0  0  0  0
   34.8262   28.1960   51.1956 H   0  0  0  0  0  0  0  0  0  0  0  0
  1  6  1  0
  1 15  1  0
  2  1  2  0
  3  4  2  0
  3  2  1  0
  4  5  1  0
  5  6  2  0
  7 13  1  0
  7  3  1  0
  8  7  1  0
  9 10  1  0
  9  8  2  0
 10 12  1  0
 11 10  2  0
 12 13  1  0
 13 14  2  0
 15 20  1  0
 16 17  1  0
 16 15  1  0
 17 18  1  0
 18 19  1  0
 20 19  1  0
 20 21  1  0
  2 22  1  0
  5 23  1  0
  8 24  1  0
  9 25  1  0
 12 26  1  0
 15 27  1  1
 16 28  1  0
 16 29  1  0
 17 30  1  0
 17 31  1  0
 18 32  1  0
 18 33  1  0
 19 34  1  0
 19 35  1  0
 20 36  1  6
 21 37  1  0
 21 38  1  0
 21 39  1  0
M  ISO  8  22  14  23  14  24  14  25  14  26   9  27  13  28  13  29  13
M  ISO  8  30  13  31  13  32  13  33  13  34  13  35  13  36  13  37   8
M  ISO  2  38   8  39   8
M  END
>  <minimizedAffinity>  (1) 
-5.91298389

>  <minimizedRMSD>  (1) 
0.747241676

$$$$
