
     RDKit          3D

 24 25  0  0  0  0  0  0  0  0999 V2000
   37.7570   30.8210   50.9570 C   0  0  0  0  0  0  0  0  0  0  0  0
   37.6340   30.9710   49.5600 C   0  0  0  0  0  0  0  0  0  0  0  0
   36.7850   30.0740   48.9310 C   0  0  0  0  0  0  0  0  0  0  0  0
   36.1370   29.1320   49.6420 N   0  0  0  0  0  0  0  0  0  0  0  0
   36.2800   29.0170   50.9880 C   0  0  0  0  0  0  0  0  0  0  0  0
   37.1010   29.8740   51.6490 N   0  0  0  0  0  0  0  0  0  0  0  0
   38.3980   32.0330   48.9470 C   0  0  0  0  0  0  0  0  0  0  0  0
   38.8530   31.8140   47.6720 C   0  0  0  0  0  0  0  0  0  0  0  0
   39.5920   32.6990   46.9260 C   0  0  0  0  0  0  0  0  0  0  0  0
   39.9160   33.9410   47.5090 C   0  0  0  0  0  0  0  0  0  0  0  0
   39.4590   34.1660   48.7920 C   0  0  0  0  0  0  0  0  0  0  0  0
   38.7160   33.2570   49.5230 C   0  0  0  0  0  0  0  0  0  0  0  0
   35.3050   30.4060   47.1360 C   0  0  0  0  0  0  0  0  0  0  0  0
   34.2440   30.4440   47.8150 O   0  0  0  0  0  0  0  0  0  0  0  0
   36.6630   30.2300   47.5210 N   0  0  0  0  0  0  0  0  0  0  0  0
   38.4186   31.5090   51.5038 H   0  0  0  0  0  0  0  0  0  0  0  0
   35.7352   28.2359   51.5385 H   0  0  0  0  0  0  0  0  0  0  0  0
   38.6051   30.8481   47.2077 H   0  0  0  0  0  0  0  0  0  0  0  0
   39.9204   32.4470   45.9069 H   0  0  0  0  0  0  0  0  0  0  0  0
   40.5053   34.6953   46.9670 H   0  0  0  0  0  0  0  0  0  0  0  0
   39.7013   35.1300   49.2631 H   0  0  0  0  0  0  0  0  0  0  0  0
   38.3825   33.4988   50.5429 H   0  0  0  0  0  0  0  0  0  0  0  0
   35.1542   30.5311   46.0536 H   0  0  0  0  0  0  0  0  0  0  0  0
   37.4562   30.2171   46.8641 H   0  0  0  0  0  0  0  0  0  0  0  0
  1  6  2  0
  2  1  1  0
  3  2  2  0
  3  4  1  0
  4  5  2  0
  5  6  1  0
  7 12  1  0
  7  2  1  0
  8  7  2  0
  9 10  2  0
  9  8  1  0
 10 11  1  0
 11 12  2  0
 13 15  1  0
 13 14  2  0
 15  3  1  0
  1 16  1  0
  5 17  1  0
  8 18  1  0
  9 19  1  0
 10 20  1  0
 11 21  1  0
 12 22  1  0
 13 23  1  0
 15 24  1  0
M  ISO  8  16  14  17  14  18  14  19  14  20  14  21  14  22  14  23   6
M  END
>  <minimizedAffinity>  (1) 
-5.24934244

>  <minimizedRMSD>  (1) 
1.02933645

$$$$
