
     RDKit          3D

 32 34  0  0  0  0  0  0  0  0999 V2000
   37.7570   30.4580   50.6890 C   0  0  0  0  0  0  0  0  0  0  0  0
   37.2290   30.6440   49.3950 C   0  0  0  0  0  0  0  0  0  0  0  0
   35.9770   30.0970   49.1660 C   0  0  0  0  0  0  0  0  0  0  0  0
   35.3390   29.4320   50.1640 N   0  0  0  0  0  0  0  0  0  0  0  0
   35.8740   29.2740   51.3850 C   0  0  0  0  0  0  0  0  0  0  0  0
   37.1000   29.7950   51.6500 N   0  0  0  0  0  0  0  0  0  0  0  0
   38.0420   31.3800   48.4460 C   0  0  0  0  0  0  0  0  0  0  0  0
   38.5920   30.6610   47.4100 C   0  0  0  0  0  0  0  0  0  0  0  0
   39.3870   31.1940   46.4220 C   0  0  0  0  0  0  0  0  0  0  0  0
   39.6670   32.5750   46.4620 C   0  0  0  0  0  0  0  0  0  0  0  0
   39.1120   33.2990   47.5070 C   0  0  0  0  0  0  0  0  0  0  0  0
   38.3250   32.7290   48.4710 C   0  0  0  0  0  0  0  0  0  0  0  0
   35.4440   30.2850   47.8590 N   0  0  0  0  0  0  0  0  0  0  0  0
   34.0180   30.5210   47.5860 C   0  0  0  0  0  0  0  0  0  0  0  0
   33.8000   29.3520   46.6140 C   0  0  0  0  0  0  0  0  0  0  0  0
   34.9080   29.6810   45.6210 C   0  0  0  0  0  0  0  0  0  0  0  0
   35.9660   30.3190   46.5140 C   0  0  0  0  0  0  0  0  0  0  0  0
   38.7489   30.8743   50.9189 H   0  0  0  0  0  0  0  0  0  0  0  0
   35.3238   28.7269   52.1647 H   0  0  0  0  0  0  0  0  0  0  0  0
   38.3808   29.5822   47.3688 H   0  0  0  0  0  0  0  0  0  0  0  0
   39.7938   30.5589   45.6213 H   0  0  0  0  0  0  0  0  0  0  0  0
   40.2968   33.0565   45.6994 H   0  0  0  0  0  0  0  0  0  0  0  0
   39.3133   34.3790   47.5635 H   0  0  0  0  0  0  0  0  0  0  0  0
   37.9131   33.3554   49.2760 H   0  0  0  0  0  0  0  0  0  0  0  0
   33.3989   30.4334   48.4910 H   0  0  0  0  0  0  0  0  0  0  0  0
   33.7537   31.5208   47.2111 H   0  0  0  0  0  0  0  0  0  0  0  0
   33.9522   28.3758   47.0977 H   0  0  0  0  0  0  0  0  0  0  0  0
   32.7884   29.2620   46.1914 H   0  0  0  0  0  0  0  0  0  0  0  0
   34.5578   30.3858   44.8525 H   0  0  0  0  0  0  0  0  0  0  0  0
   35.2725   28.8064   45.0622 H   0  0  0  0  0  0  0  0  0  0  0  0
   36.9051   29.7491   46.4567 H   0  0  0  0  0  0  0  0  0  0  0  0
   36.1829   31.3501   46.1982 H   0  0  0  0  0  0  0  0  0  0  0  0
  1  6  2  0
  2  1  1  0
  3  2  2  0
  3  4  1  0
  4  5  2  0
  5  6  1  0
  7 12  1  0
  7  2  1  0
  8  7  2  0
  9 10  2  0
  9  8  1  0
 10 11  1  0
 11 12  2  0
 13  3  1  0
 14 13  1  0
 15 14  1  0
 16 17  1  0
 16 15  1  0
 17 13  1  0
  1 18  1  0
  5 19  1  0
  8 20  1  0
  9 21  1  0
 10 22  1  0
 11 23  1  0
 12 24  1  0
 14 25  1  0
 14 26  1  0
 15 27  1  0
 15 28  1  0
 16 29  1  0
 16 30  1  0
 17 31  1  0
 17 32  1  0
M  ISO  8  18  14  19  14  20  14  21  14  22  14  23  14  24  14  25  13
M  ISO  7  26  13  27  13  28  13  29  13  30  13  31  13  32  13
M  END
>  <minimizedAffinity>  (1) 
-5.24786997

>  <minimizedRMSD>  (1) 
1.24837458

$$$$
