
     RDKit          3D

 21 22  0  0  0  0  0  0  0  0999 V2000
   38.0260   31.3750   48.4720 C   0  0  0  0  0  0  0  0  0  0  0  0
   38.4330   30.6940   47.3520 C   0  0  0  0  0  0  0  0  0  0  0  0
   39.2180   31.2200   46.3440 C   0  0  0  0  0  0  0  0  0  0  0  0
   39.6390   32.5590   46.4660 C   0  0  0  0  0  0  0  0  0  0  0  0
   39.2300   33.2380   47.5900 C   0  0  0  0  0  0  0  0  0  0  0  0
   38.4450   32.6990   48.5900 C   0  0  0  0  0  0  0  0  0  0  0  0
   37.7150   30.5010   50.7290 C   0  0  0  0  0  0  0  0  0  0  0  0
   37.2040   30.6520   49.4200 C   0  0  0  0  0  0  0  0  0  0  0  0
   35.9610   30.0910   49.1790 C   0  0  0  0  0  0  0  0  0  0  0  0
   35.3130   29.4430   50.1730 N   0  0  0  0  0  0  0  0  0  0  0  0
   35.8280   29.3150   51.4130 C   0  0  0  0  0  0  0  0  0  0  0  0
   37.0410   29.8530   51.6830 N   0  0  0  0  0  0  0  0  0  0  0  0
   35.3130   30.2810   47.5240 S   0  0  0  0  0  0  0  0  0  0  0  0
   38.1089   29.6479   47.2489 H   0  0  0  0  0  0  0  0  0  0  0  0
   39.5053   30.6123   45.4733 H   0  0  0  0  0  0  0  0  0  0  0  0
   40.2649   33.0385   45.6989 H   0  0  0  0  0  0  0  0  0  0  0  0
   39.5509   34.2844   47.7001 H   0  0  0  0  0  0  0  0  0  0  0  0
   38.1560   33.3029   49.4628 H   0  0  0  0  0  0  0  0  0  0  0  0
   38.6986   30.9306   50.9698 H   0  0  0  0  0  0  0  0  0  0  0  0
   35.2695   28.7802   52.1953 H   0  0  0  0  0  0  0  0  0  0  0  0
   33.9998   30.6660   47.5891 H   0  0  0  0  0  0  0  0  0  0  0  0
  1  6  1  0
  1  8  1  0
  2  1  2  0
  3  4  2  0
  3  2  1  0
  4  5  1  0
  5  6  2  0
  7 12  2  0
  8  7  1  0
  9  8  2  0
  9 10  1  0
 10 11  2  0
 11 12  1  0
 13  9  1  0
  2 14  1  0
  3 15  1  0
  4 16  1  0
  5 17  1  0
  6 18  1  0
  7 19  1  0
 11 20  1  0
 13 21  1  0
M  ISO  8  14  14  15  14  16  14  17  14  18  14  19  14  20  14  21  11
M  END
>  <minimizedAffinity>  (1) 
-5.05120373

>  <minimizedRMSD>  (1) 
1.07920551

$$$$
