
     RDKit          3D

 26 27  0  0  0  0  0  0  0  0999 V2000
   38.0090   30.4420   50.4620 C   0  0  0  0  0  0  0  0  0  0  0  0
   37.3990   30.6120   49.1830 C   0  0  0  0  0  0  0  0  0  0  0  0
   36.0930   30.1530   49.0460 C   0  0  0  0  0  0  0  0  0  0  0  0
   35.4800   29.5780   50.1180 N   0  0  0  0  0  0  0  0  0  0  0  0
   36.0940   29.4320   51.3260 C   0  0  0  0  0  0  0  0  0  0  0  0
   37.3770   29.8730   51.4940 N   0  0  0  0  0  0  0  0  0  0  0  0
   38.1850   31.2390   48.1580 C   0  0  0  0  0  0  0  0  0  0  0  0
   38.5870   30.4470   47.1050 C   0  0  0  0  0  0  0  0  0  0  0  0
   39.3470   30.8920   46.0380 C   0  0  0  0  0  0  0  0  0  0  0  0
   39.7460   32.2450   46.0130 C   0  0  0  0  0  0  0  0  0  0  0  0
   39.3390   33.0450   47.0790 C   0  0  0  0  0  0  0  0  0  0  0  0
   38.5830   32.5770   48.1270 C   0  0  0  0  0  0  0  0  0  0  0  0
   38.1570   33.4220   49.2480 C   0  0  0  0  0  0  0  0  0  0  0  0
   35.3340   30.2610   47.7830 C   0  0  0  0  0  0  0  0  0  0  0  0
   34.0430   30.7730   48.0510 F   0  0  0  0  0  0  0  0  0  0  0  0
   35.8930   30.9800   46.7880 F   0  0  0  0  0  0  0  0  0  0  0  0
   35.0500   28.9770   47.2900 F   0  0  0  0  0  0  0  0  0  0  0  0
   39.0415   30.7935   50.6048 H   0  0  0  0  0  0  0  0  0  0  0  0
   35.5587   28.9606   52.1634 H   0  0  0  0  0  0  0  0  0  0  0  0
   38.2834   29.3898   47.1131 H   0  0  0  0  0  0  0  0  0  0  0  0
   39.6338   30.2062   45.2272 H   0  0  0  0  0  0  0  0  0  0  0  0
   40.3513   32.6503   45.1888 H   0  0  0  0  0  0  0  0  0  0  0  0
   39.6377   34.1037   47.0818 H   0  0  0  0  0  0  0  0  0  0  0  0
   38.4073   32.9256   50.1972 H   0  0  0  0  0  0  0  0  0  0  0  0
   38.6741   34.3913   49.1937 H   0  0  0  0  0  0  0  0  0  0  0  0
   37.0702   33.5827   49.1937 H   0  0  0  0  0  0  0  0  0  0  0  0
  1  6  2  0
  2  1  1  0
  3  2  2  0
  3  4  1  0
  4  5  2  0
  5  6  1  0
  7  2  1  0
  8  7  2  0
  9  8  1  0
 10  9  2  0
 10 11  1  0
 11 12  2  0
 12  7  1  0
 12 13  1  0
 14 15  1  0
 14  3  1  0
 16 14  1  0
 17 14  1  0
  1 18  1  0
  5 19  1  0
  8 20  1  0
  9 21  1  0
 10 22  1  0
 11 23  1  0
 13 24  1  0
 13 25  1  0
 13 26  1  0
M  ISO  8  18  14  19  14  20  14  21  14  22  14  23  14  24   8  25   8
M  ISO  1  26   8
M  END
>  <minimizedAffinity>  (1) 
-5.86957455

>  <minimizedRMSD>  (1) 
0.346990794

$$$$
