
     RDKit          3D

 37 39  0  0  0  0  0  0  0  0999 V2000
   33.9500   28.6310   45.8310 C   0  0  0  0  0  0  0  0  0  0  0  0
   34.1420   28.1150   44.5620 C   0  0  0  0  0  0  0  0  0  0  0  0
   35.1210   28.5750   43.6750 C   0  0  0  0  0  0  0  0  0  0  0  0
   35.9610   29.6300   44.1000 C   0  0  0  0  0  0  0  0  0  0  0  0
   35.7500   30.1220   45.3560 C   0  0  0  0  0  0  0  0  0  0  0  0
   34.7980   29.6700   46.2200 C   0  0  0  0  0  0  0  0  0  0  0  0
   33.2000   26.9170   47.3610 C   0  0  0  0  0  0  0  0  0  0  0  0
   32.8850   28.0540   46.6050 C   0  0  0  0  0  0  0  0  0  0  0  0
   31.5730   28.5430   46.6530 C   0  0  0  0  0  0  0  0  0  0  0  0
   30.6640   27.8960   47.4300 N   0  0  0  0  0  0  0  0  0  0  0  0
   30.9960   26.7900   48.1570 C   0  0  0  0  0  0  0  0  0  0  0  0
   32.2630   26.3060   48.1190 N   0  0  0  0  0  0  0  0  0  0  0  0
   31.0930   29.7420   45.9010 C   0  0  0  0  0  0  0  0  0  0  0  0
   29.7380   29.9670   46.2050 F   0  0  0  0  0  0  0  0  0  0  0  0
   31.7790   30.8780   46.1120 F   0  0  0  0  0  0  0  0  0  0  0  0
   31.0770   29.4580   44.5400 F   0  0  0  0  0  0  0  0  0  0  0  0
   34.5750   30.2990   47.8330 S   0  0  0  0  0  0  0  0  0  0  0  0
   34.8680   29.2460   50.7490 Cl  0  0  0  0  0  0  0  0  0  0  0  0
   36.1590   30.1370   49.9920 C   0  0  0  0  0  0  0  0  0  0  0  0
   36.0730   30.6470   48.7040 C   0  0  0  0  0  0  0  0  0  0  0  0
   37.1040   31.3630   48.1550 C   0  0  0  0  0  0  0  0  0  0  0  0
   38.2510   31.5590   48.9350 C   0  0  0  0  0  0  0  0  0  0  0  0
   38.3380   31.0440   50.2290 C   0  0  0  0  0  0  0  0  0  0  0  0
   37.2900   30.3330   50.7530 C   0  0  0  0  0  0  0  0  0  0  0  0
   37.4380   29.8090   52.1380 C   0  0  0  0  0  0  0  0  0  0  0  0
   33.4869   27.2955   44.2312 H   0  0  0  0  0  0  0  0  0  0  0  0
   35.2341   28.1289   42.6759 H   0  0  0  0  0  0  0  0  0  0  0  0
   36.7487   30.0359   43.4483 H   0  0  0  0  0  0  0  0  0  0  0  0
   36.3966   30.9445   45.6958 H   0  0  0  0  0  0  0  0  0  0  0  0
   34.2242   26.5163   47.3371 H   0  0  0  0  0  0  0  0  0  0  0  0
   30.2354   26.2901   48.7747 H   0  0  0  0  0  0  0  0  0  0  0  0
   37.0335   31.7704   47.1357 H   0  0  0  0  0  0  0  0  0  0  0  0
   39.0965   32.1279   48.5209 H   0  0  0  0  0  0  0  0  0  0  0  0
   39.2462   31.2084   50.8275 H   0  0  0  0  0  0  0  0  0  0  0  0
   37.2121   30.6087   52.8587 H   0  0  0  0  0  0  0  0  0  0  0  0
   36.7413   28.9713   52.2895 H   0  0  0  0  0  0  0  0  0  0  0  0
   38.4700   29.4596   52.2895 H   0  0  0  0  0  0  0  0  0  0  0  0
  1  6  1  0
  1  8  1  0
  2  1  2  0
  3  4  2  0
  3  2  1  0
  4  5  1  0
  5  6  2  0
  6 17  1  0
  7 12  2  0
  8  9  2  0
  8  7  1  0
  9 10  1  0
 10 11  2  0
 12 11  1  0
 13 15  1  0
 13 14  1  0
 13  9  1  0
 16 13  1  0
 17 20  1  0
 19 18  1  0
 19 24  2  0
 20 19  1  0
 21 20  2  0
 21 22  1  0
 22 23  2  0
 23 24  1  0
 24 25  1  0
  2 26  1  0
  3 27  1  0
  4 28  1  0
  5 29  1  0
  7 30  1  0
 11 31  1  0
 21 32  1  0
 22 33  1  0
 23 34  1  0
 25 35  1  0
 25 36  1  0
 25 37  1  0
M  ISO  8  26  14  27  14  28  14  29  14  30  14  31  14  32  14  33  14
M  ISO  4  34  14  35   8  36   8  37   8
M  END
>  <minimizedAffinity>  (1) 
-5.9757452

>  <minimizedRMSD>  (1) 
0.200866789

$$$$
