
     RDKit          3D

 36 38  0  0  0  0  0  0  0  0999 V2000
   34.0850   28.7430   45.8730 C   0  0  0  0  0  0  0  0  0  0  0  0
   34.2770   28.2800   44.5870 C   0  0  0  0  0  0  0  0  0  0  0  0
   35.2660   28.7480   43.7220 C   0  0  0  0  0  0  0  0  0  0  0  0
   36.1300   29.7630   44.1920 C   0  0  0  0  0  0  0  0  0  0  0  0
   35.9190   30.2090   45.4790 C   0  0  0  0  0  0  0  0  0  0  0  0
   34.9480   29.7430   46.3150 C   0  0  0  0  0  0  0  0  0  0  0  0
   33.3220   26.9930   47.3580 C   0  0  0  0  0  0  0  0  0  0  0  0
   33.0110   28.1450   46.6200 C   0  0  0  0  0  0  0  0  0  0  0  0
   31.6950   28.6210   46.6650 C   0  0  0  0  0  0  0  0  0  0  0  0
   30.7770   27.9530   47.4160 N   0  0  0  0  0  0  0  0  0  0  0  0
   31.1090   26.8360   48.1240 C   0  0  0  0  0  0  0  0  0  0  0  0
   32.3810   26.3590   48.0920 N   0  0  0  0  0  0  0  0  0  0  0  0
   31.2190   29.8270   45.9320 C   0  0  0  0  0  0  0  0  0  0  0  0
   29.8580   30.0450   46.2220 F   0  0  0  0  0  0  0  0  0  0  0  0
   31.8970   30.9670   46.1660 F   0  0  0  0  0  0  0  0  0  0  0  0
   31.2230   29.5750   44.5590 F   0  0  0  0  0  0  0  0  0  0  0  0
   34.7050   30.3230   47.9520 S   0  0  0  0  0  0  0  0  0  0  0  0
   35.1070   29.1550   50.8090 Cl  0  0  0  0  0  0  0  0  0  0  0  0
   36.3460   30.1430   50.0690 C   0  0  0  0  0  0  0  0  0  0  0  0
   36.2040   30.7100   48.8050 C   0  0  0  0  0  0  0  0  0  0  0  0
   37.1860   31.5000   48.2870 C   0  0  0  0  0  0  0  0  0  0  0  0
   38.3310   31.7240   49.0460 C   0  0  0  0  0  0  0  0  0  0  0  0
   38.4710   31.1530   50.3130 C   0  0  0  0  0  0  0  0  0  0  0  0
   37.4750   30.3520   50.8400 C   0  0  0  0  0  0  0  0  0  0  0  0
   37.6340   29.7790   52.1330 N   0  0  0  0  0  0  0  0  0  0  0  0
   33.6057   27.4897   44.2200 H   0  0  0  0  0  0  0  0  0  0  0  0
   35.3703   28.3399   42.7058 H   0  0  0  0  0  0  0  0  0  0  0  0
   36.9312   30.1766   43.5619 H   0  0  0  0  0  0  0  0  0  0  0  0
   36.5829   30.9991   45.8597 H   0  0  0  0  0  0  0  0  0  0  0  0
   34.3490   26.5993   47.3388 H   0  0  0  0  0  0  0  0  0  0  0  0
   30.3447   26.3193   48.7230 H   0  0  0  0  0  0  0  0  0  0  0  0
   37.0761   31.9513   47.2899 H   0  0  0  0  0  0  0  0  0  0  0  0
   39.1348   32.3579   48.6435 H   0  0  0  0  0  0  0  0  0  0  0  0
   39.3833   31.3426   50.8976 H   0  0  0  0  0  0  0  0  0  0  0  0
   38.4912   29.9599   52.6746 H   0  0  0  0  0  0  0  0  0  0  0  0
   36.8919   29.1834   52.5272 H   0  0  0  0  0  0  0  0  0  0  0  0
  1  6  1  0
  1  8  1  0
  2  1  2  0
  3  4  2  0
  3  2  1  0
  4  5  1  0
  5  6  2  0
  6 17  1  0
  7 12  2  0
  8  9  2  0
  8  7  1  0
  9 10  1  0
 10 11  2  0
 12 11  1  0
 13 15  1  0
 13 14  1  0
 13  9  1  0
 16 13  1  0
 17 20  1  0
 19 18  1  0
 19 24  2  0
 20 19  1  0
 21 20  2  0
 21 22  1  0
 22 23  2  0
 23 24  1  0
 24 25  1  0
  2 26  1  0
  3 27  1  0
  4 28  1  0
  5 29  1  0
  7 30  1  0
 11 31  1  0
 21 32  1  0
 22 33  1  0
 23 34  1  0
 25 35  1  0
 25 36  1  0
M  ISO  8  26  14  27  14  28  14  29  14  30  14  31  14  32  14  33  14
M  ISO  1  34  14
M  END
>  <minimizedAffinity>  (1) 
-5.9083271

>  <minimizedRMSD>  (1) 
0.0693932548

$$$$
