
     RDKit          3D

 41 43  0  0  1  0  0  0  0  0999 V2000
   38.5730   30.8940   46.9710 S   0  0  0  0  0  0  0  0  0  0  0  0
   35.9540   31.2750   50.0420 C   0  0  0  0  0  0  0  0  0  0  0  0
   37.1100   31.4040   49.2770 C   0  0  0  0  0  0  0  0  0  0  0  0
   37.1680   30.8050   48.0490 C   0  0  0  0  0  0  0  0  0  0  0  0
   36.0670   30.1060   47.6430 N   0  0  0  0  0  0  0  0  0  0  0  0
   34.9860   29.9990   48.3870 C   0  0  0  0  0  0  0  0  0  0  0  0
   34.9170   30.5810   49.5910 N   0  0  0  0  0  0  0  0  0  0  0  0
   33.8410   29.2690   47.9590 N   0  0  0  0  0  0  0  0  0  0  0  0
   33.0940   29.5920   46.7590 C   0  0  0  0  0  0  0  0  0  0  0  0
   32.3130   28.3990   46.2540 C   0  0  0  0  0  0  0  0  0  0  0  0
   32.9780   27.1560   46.4700 N   0  0  0  0  0  0  0  0  0  0  0  0
   33.4720   26.9190   47.7860 C   0  0  0  0  0  0  0  0  0  0  0  0
   33.2700   28.1260   48.6430 C   0  0  0  0  0  0  0  0  0  0  0  0
   39.8490   33.0500   45.9280 N   0  0  0  0  0  0  0  0  0  0  0  0
   38.5510   32.5010   46.0600 C   0  0  1  0  0  0  0  0  0  0  0  0
   37.9840   32.1900   44.6950 C   0  0  0  0  0  0  0  0  0  0  0  0
   38.8930   31.2320   44.0600 N   0  0  0  0  0  0  0  0  0  0  0  0
   40.1250   32.0000   43.7840 C   0  0  0  0  0  0  0  0  0  0  0  0
   40.7530   32.2690   45.1460 C   0  0  2  0  0  0  0  0  0  0  0  0
   41.1020   30.9900   45.7310 N   0  0  0  0  0  0  0  0  0  0  0  0
   35.8998   31.7536   51.0310 H   0  0  0  0  0  0  0  0  0  0  0  0
   37.9666   31.9809   49.6558 H   0  0  0  0  0  0  0  0  0  0  0  0
   32.3927   30.4092   46.9836 H   0  0  0  0  0  0  0  0  0  0  0  0
   33.8083   29.8924   45.9783 H   0  0  0  0  0  0  0  0  0  0  0  0
   32.1466   28.5227   45.1737 H   0  0  0  0  0  0  0  0  0  0  0  0
   31.3692   28.3655   46.8180 H   0  0  0  0  0  0  0  0  0  0  0  0
   32.3132   26.4022   46.2449 H   0  0  0  0  0  0  0  0  0  0  0  0
   32.9340   26.0670   48.2272 H   0  0  0  0  0  0  0  0  0  0  0  0
   34.5480   26.6978   47.7289 H   0  0  0  0  0  0  0  0  0  0  0  0
   33.7717   27.9830   49.6114 H   0  0  0  0  0  0  0  0  0  0  0  0
   32.1970   28.2885   48.8229 H   0  0  0  0  0  0  0  0  0  0  0  0
   39.7616   33.9765   45.4866 H   0  0  0  0  0  0  0  0  0  0  0  0
   37.9521   33.2454   46.6052 H   0  0  0  0  0  0  0  0  0  0  0  0
   36.9808   31.7498   44.7943 H   0  0  0  0  0  0  0  0  0  0  0  0
   37.8937   33.1045   44.0905 H   0  0  0  0  0  0  0  0  0  0  0  0
   39.0912   30.4454   44.6947 H   0  0  0  0  0  0  0  0  0  0  0  0
   40.8102   31.4136   43.1542 H   0  0  0  0  0  0  0  0  0  0  0  0
   39.9105   32.9334   43.2428 H   0  0  0  0  0  0  0  0  0  0  0  0
   41.6792   32.8587   45.0798 H   0  0  0  0  0  0  0  0  0  0  0  0
   41.0815   31.0652   46.7580 H   0  0  0  0  0  0  0  0  0  0  0  0
   40.4250   30.2765   45.4254 H   0  0  0  0  0  0  0  0  0  0  0  0
  1  4  1  0
  3  2  2  0
  4  3  1  0
  5  4  2  0
  5  6  1  0
  6  7  2  0
  7  2  1  0
  8  6  1  0
  8 13  1  0
  9  8  1  0
 10 11  1  0
 10  9  1  0
 11 12  1  0
 12 13  1  0
 14 15  1  0
 15  1  1  0
 16 15  1  0
 17 16  1  0
 18 17  1  0
 18 19  1  0
 19 20  1  0
 19 14  1  0
  2 21  1  0
  3 22  1  0
  9 23  1  0
  9 24  1  0
 10 25  1  0
 10 26  1  0
 11 27  1  0
 12 28  1  0
 12 29  1  0
 13 30  1  0
 13 31  1  0
 14 32  1  0
 15 33  1  1
 16 34  1  0
 16 35  1  0
 17 36  1  0
 18 37  1  0
 18 38  1  0
 19 39  1  6
 20 40  1  0
 20 41  1  0
M  ISO  8  21  14  22  14  23  13  24  13  25  13  26  13  27   5  28  13
M  ISO  8  29  13  30  13  31  13  32   5  33  13  34  13  35  13  36   5
M  ISO  5  37  13  38  13  39  13  40   5  41   5
M  END
>  <minimizedAffinity>  (1) 
-5.65501595

>  <minimizedRMSD>  (1) 
2.04322338

$$$$
