
     RDKit          3D

 40 42  0  0  0  0  0  0  0  0999 V2000
   31.8690   27.0680   47.0970 C   0  0  0  0  0  0  0  0  0  0  0  0
   31.6850   25.7540   46.7340 C   0  0  0  0  0  0  0  0  0  0  0  0
   32.6120   25.0140   46.0050 C   0  0  0  0  0  0  0  0  0  0  0  0
   33.8060   25.6460   45.6170 C   0  0  0  0  0  0  0  0  0  0  0  0
   33.9690   26.9500   45.9870 C   0  0  0  0  0  0  0  0  0  0  0  0
   33.0650   27.6770   46.7030 C   0  0  0  0  0  0  0  0  0  0  0  0
   30.8170   27.5570   49.2300 C   0  0  0  0  0  0  0  0  0  0  0  0
   30.7960   27.7010   47.8360 C   0  0  0  0  0  0  0  0  0  0  0  0
   29.7560   28.4310   47.2480 C   0  0  0  0  0  0  0  0  0  0  0  0
   28.8060   28.9700   48.0710 N   0  0  0  0  0  0  0  0  0  0  0  0
   28.8460   28.8170   49.4300 C   0  0  0  0  0  0  0  0  0  0  0  0
   29.8540   28.1080   50.0020 N   0  0  0  0  0  0  0  0  0  0  0  0
   29.6000   28.6690   45.7880 C   0  0  0  0  0  0  0  0  0  0  0  0
   28.4230   29.4040   45.5580 F   0  0  0  0  0  0  0  0  0  0  0  0
   30.6250   29.2910   45.1860 F   0  0  0  0  0  0  0  0  0  0  0  0
   29.3550   27.4600   45.1550 F   0  0  0  0  0  0  0  0  0  0  0  0
   33.3070   29.3340   47.1800 S   0  0  0  0  0  0  0  0  0  0  0  0
   34.4320   28.4140   49.9300 Cl  0  0  0  0  0  0  0  0  0  0  0  0
   35.4250   29.2950   48.8220 C   0  0  0  0  0  0  0  0  0  0  0  0
   34.9870   29.7500   47.5790 C   0  0  0  0  0  0  0  0  0  0  0  0
   35.8010   30.4520   46.7320 C   0  0  0  0  0  0  0  0  0  0  0  0
   37.1050   30.6970   47.1590 C   0  0  0  0  0  0  0  0  0  0  0  0
   37.5630   30.2580   48.3810 C   0  0  0  0  0  0  0  0  0  0  0  0
   36.7240   29.5490   49.2310 C   0  0  0  0  0  0  0  0  0  0  0  0
   37.2930   29.1180   50.5370 C   0  0  0  0  0  0  0  0  0  0  0  0
   37.3110   30.2210   51.5700 C   0  0  0  0  0  0  0  0  0  0  0  0
   30.7508   25.2589   47.0375 H   0  0  0  0  0  0  0  0  0  0  0  0
   32.4156   23.9646   45.7402 H   0  0  0  0  0  0  0  0  0  0  0  0
   34.5760   25.1129   45.0400 H   0  0  0  0  0  0  0  0  0  0  0  0
   34.9000   27.4519   45.6846 H   0  0  0  0  0  0  0  0  0  0  0  0
   31.6299   26.9867   49.7032 H   0  0  0  0  0  0  0  0  0  0  0  0
   28.0634   29.2672   50.0584 H   0  0  0  0  0  0  0  0  0  0  0  0
   35.4413   30.8079   45.7553 H   0  0  0  0  0  0  0  0  0  0  0  0
   37.7869   31.2564   46.5017 H   0  0  0  0  0  0  0  0  0  0  0  0
   38.5985   30.4698   48.6856 H   0  0  0  0  0  0  0  0  0  0  0  0
   36.6876   28.2854   50.9247 H   0  0  0  0  0  0  0  0  0  0  0  0
   38.3366   28.8204   50.3574 H   0  0  0  0  0  0  0  0  0  0  0  0
   37.3038   29.7798   52.5776 H   0  0  0  0  0  0  0  0  0  0  0  0
   38.2192   30.8283   51.4421 H   0  0  0  0  0  0  0  0  0  0  0  0
   36.4231   30.8577   51.4421 H   0  0  0  0  0  0  0  0  0  0  0  0
  1  8  1  0
  2  1  2  0
  3  2  1  0
  4  5  1  0
  4  3  2  0
  5  6  2  0
  6  1  1  0
  6 17  1  0
  7 12  2  0
  8  7  1  0
  9  8  2  0
  9 10  1  0
 10 11  2  0
 11 12  1  0
 13  9  1  0
 14 13  1  0
 15 13  1  0
 16 13  1  0
 17 20  1  0
 19 24  2  0
 19 18  1  0
 20 19  1  0
 21 22  1  0
 21 20  2  0
 22 23  2  0
 23 24  1  0
 24 25  1  0
 25 26  1  0
  2 27  1  0
  3 28  1  0
  4 29  1  0
  5 30  1  0
  7 31  1  0
 11 32  1  0
 21 33  1  0
 22 34  1  0
 23 35  1  0
 25 36  1  0
 25 37  1  0
 26 38  1  0
 26 39  1  0
 26 40  1  0
M  ISO  8  27  14  28  14  29  14  30  14  31  14  32  14  33  14  34  14
M  ISO  6  35  14  36   8  37   8  38   8  39   8  40   8
M  END
>  <minimizedAffinity>  (1) 
-5.63503027

>  <minimizedRMSD>  (1) 
2.87369394

$$$$
