
     RDKit          3D

 33 35  0  0  1  0  0  0  0  0999 V2000
   26.8890   29.0620   47.6580 C   0  0  1  0  0  0  0  0  0  0  0  0
   26.7330   27.7530   47.0030 C   0  0  0  0  0  0  0  0  0  0  0  0
   27.9810   27.0950   46.4860 C   0  0  0  0  0  0  0  0  0  0  0  0
   29.1880   27.2840   47.3280 C   0  0  0  0  0  0  0  0  0  0  0  0
   29.3730   28.6130   47.9640 C   0  0  0  0  0  0  0  0  0  0  0  0
   28.0860   29.1360   48.5400 C   0  0  2  0  0  0  0  0  0  0  0  0
   26.8680   30.1690   45.3550 C   0  0  0  0  0  0  0  0  0  0  0  0
   26.7360   30.2350   46.7660 C   0  0  0  0  0  0  0  0  0  0  0  0
   26.4450   31.4740   47.3010 C   0  0  0  0  0  0  0  0  0  0  0  0
   26.2980   32.5540   46.4890 N   0  0  0  0  0  0  0  0  0  0  0  0
   26.4330   32.4390   45.1410 C   0  0  0  0  0  0  0  0  0  0  0  0
   26.7200   31.2380   44.5820 N   0  0  0  0  0  0  0  0  0  0  0  0
   27.7530   28.3260   49.7740 C   0  0  0  0  0  0  0  0  0  0  0  0
   28.7410   27.6870   50.5320 C   0  0  0  0  0  0  0  0  0  0  0  0
   28.1520   27.0140   51.6090 C   0  0  0  0  0  0  0  0  0  0  0  0
   26.8460   27.2690   51.4620 N   0  0  0  0  0  0  0  0  0  0  0  0
   26.6080   28.0250   50.4070 N   0  0  0  0  0  0  0  0  0  0  0  0
   26.0168   29.1321   48.3246 H   0  0  0  0  0  0  0  0  0  0  0  0
   26.2756   27.0692   47.7332 H   0  0  0  0  0  0  0  0  0  0  0  0
   26.1241   27.9522   46.1088 H   0  0  0  0  0  0  0  0  0  0  0  0
   27.7881   26.0151   46.4047 H   0  0  0  0  0  0  0  0  0  0  0  0
   28.2027   27.5746   45.5212 H   0  0  0  0  0  0  0  0  0  0  0  0
   29.1502   26.5349   48.1327 H   0  0  0  0  0  0  0  0  0  0  0  0
   30.0354   27.1825   46.6340 H   0  0  0  0  0  0  0  0  0  0  0  0
   30.1144   28.5220   48.7715 H   0  0  0  0  0  0  0  0  0  0  0  0
   29.7161   29.3183   47.1928 H   0  0  0  0  0  0  0  0  0  0  0  0
   28.2786   30.2034   48.7231 H   0  0  0  0  0  0  0  0  0  0  0  0
   27.1004   29.2012   44.8866 H   0  0  0  0  0  0  0  0  0  0  0  0
   26.3316   31.5876   48.3892 H   0  0  0  0  0  0  0  0  0  0  0  0
   26.3087   33.3249   44.5009 H   0  0  0  0  0  0  0  0  0  0  0  0
   29.8189   27.7102   50.3141 H   0  0  0  0  0  0  0  0  0  0  0  0
   28.6452   26.4173   52.3905 H   0  0  0  0  0  0  0  0  0  0  0  0
   26.1147   26.9173   52.0963 H   0  0  0  0  0  0  0  0  0  0  0  0
  1  6  1  0
  2  1  1  0
  3  2  1  0
  3  4  1  0
  4  5  1  0
  5  6  1  0
  6 13  1  0
  7  8  2  0
  8  9  1  0
  8  1  1  0
 10  9  2  0
 11 10  1  0
 12 11  2  0
 12  7  1  0
 13 17  2  0
 13 14  1  0
 14 15  2  0
 16 15  1  0
 17 16  1  0
  1 18  1  1
  2 19  1  0
  2 20  1  0
  3 21  1  0
  3 22  1  0
  4 23  1  0
  4 24  1  0
  5 25  1  0
  5 26  1  0
  6 27  1  1
  7 28  1  0
  9 29  1  0
 11 30  1  0
 14 31  1  0
 15 32  1  0
 16 33  1  0
M  ISO  8  18  13  19  13  20  13  21  13  22  13  23  13  24  13  25  13
M  ISO  8  26  13  27  13  28  14  29  14  30  14  31  14  32  14  33   9
M  END
>  <minimizedAffinity>  (1) 
-5.04844427

>  <minimizedRMSD>  (1) 
8.16681385

$$$$
