
     RDKit          3D

 32 34  0  0  1  0  0  0  0  0999 V2000
   33.8500   29.1480   48.5970 C   0  0  1  0  0  0  0  0  0  0  0  0
   33.7780   29.7250   47.2440 C   0  0  0  0  0  0  0  0  0  0  0  0
   34.2220   28.8530   46.1040 C   0  0  0  0  0  0  0  0  0  0  0  0
   33.8310   27.4250   46.2250 C   0  0  0  0  0  0  0  0  0  0  0  0
   33.9220   26.8170   47.5760 C   0  0  0  0  0  0  0  0  0  0  0  0
   33.3870   27.7290   48.6450 C   0  0  2  0  0  0  0  0  0  0  0  0
   36.3290   29.7520   48.6730 C   0  0  0  0  0  0  0  0  0  0  0  0
   35.1230   29.3780   49.3210 C   0  0  0  0  0  0  0  0  0  0  0  0
   35.1690   29.2270   50.6940 C   0  0  0  0  0  0  0  0  0  0  0  0
   36.3370   29.4340   51.3630 N   0  0  0  0  0  0  0  0  0  0  0  0
   37.4660   29.7910   50.6950 C   0  0  0  0  0  0  0  0  0  0  0  0
   37.4580   29.9500   49.3440 N   0  0  0  0  0  0  0  0  0  0  0  0
   31.8760   27.7090   48.5190 C   0  0  0  0  0  0  0  0  0  0  0  0
   30.9930   27.9210   49.5280 N   0  0  0  0  0  0  0  0  0  0  0  0
   29.7350   27.8420   49.1240 C   0  0  0  0  0  0  0  0  0  0  0  0
   29.8220   27.5730   47.8150 N   0  0  0  0  0  0  0  0  0  0  0  0
   31.0820   27.4930   47.4540 N   0  0  0  0  0  0  0  0  0  0  0  0
   33.1224   29.7350   49.1767 H   0  0  0  0  0  0  0  0  0  0  0  0
   32.7306   30.0052   47.0585 H   0  0  0  0  0  0  0  0  0  0  0  0
   34.4890   30.5643   47.2542 H   0  0  0  0  0  0  0  0  0  0  0  0
   35.3190   28.9036   46.0412 H   0  0  0  0  0  0  0  0  0  0  0  0
   33.7185   29.2375   45.2048 H   0  0  0  0  0  0  0  0  0  0  0  0
   32.7869   27.3366   45.8902 H   0  0  0  0  0  0  0  0  0  0  0  0
   34.5604   26.8746   45.6126 H   0  0  0  0  0  0  0  0  0  0  0  0
   33.3416   25.8826   47.5841 H   0  0  0  0  0  0  0  0  0  0  0  0
   34.9842   26.6295   47.7917 H   0  0  0  0  0  0  0  0  0  0  0  0
   33.7701   27.3461   49.6024 H   0  0  0  0  0  0  0  0  0  0  0  0
   36.3287   29.8820   47.5807 H   0  0  0  0  0  0  0  0  0  0  0  0
   34.2622   28.9396   51.2464 H   0  0  0  0  0  0  0  0  0  0  0  0
   38.3989   29.9535   51.2547 H   0  0  0  0  0  0  0  0  0  0  0  0
   28.8239   27.9687   49.7272 H   0  0  0  0  0  0  0  0  0  0  0  0
   29.0180   27.4472   47.1836 H   0  0  0  0  0  0  0  0  0  0  0  0
  1  6  1  0
  1  8  1  0
  2  1  1  0
  3  4  1  0
  3  2  1  0
  4  5  1  0
  5  6  1  0
  7  8  2  0
  7 12  1  0
  8  9  1  0
  9 10  2  0
 11 10  1  0
 12 11  2  0
 13  6  1  0
 13 14  1  0
 15 14  2  0
 16 15  1  0
 17 16  1  0
 17 13  2  0
  1 18  1  1
  2 19  1  0
  2 20  1  0
  3 21  1  0
  3 22  1  0
  4 23  1  0
  4 24  1  0
  5 25  1  0
  5 26  1  0
  6 27  1  1
  7 28  1  0
  9 29  1  0
 11 30  1  0
 15 31  1  0
 16 32  1  0
M  ISO  8  18  13  19  13  20  13  21  13  22  13  23  13  24  13  25  13
M  ISO  7  26  13  27  13  28  14  29  14  30  14  31  14  32   9
M  END
>  <minimizedAffinity>  (1) 
-4.77216864

>  <minimizedRMSD>  (1) 
1.6044122

$$$$
