
     RDKit          3D

 28 29  0  0  1  0  0  0  0  0999 V2000
   34.4290   29.9650   49.0550 C   0  0  1  0  0  0  0  0  0  0  0  0
   34.0890   30.2710   47.6680 C   0  0  0  0  0  0  0  0  0  0  0  0
   34.3330   29.1940   46.6480 C   0  0  0  0  0  0  0  0  0  0  0  0
   34.0590   27.8240   47.0890 C   0  0  0  0  0  0  0  0  0  0  0  0
   34.4130   27.4910   48.5030 C   0  0  0  0  0  0  0  0  0  0  0  0
   34.0280   28.5700   49.4490 C   0  0  2  0  0  0  0  0  0  0  0  0
   36.6570   31.0920   48.6990 C   0  0  0  0  0  0  0  0  0  0  0  0
   35.8010   30.3250   49.4900 C   0  0  0  0  0  0  0  0  0  0  0  0
   36.2800   29.9100   50.7180 C   0  0  0  0  0  0  0  0  0  0  0  0
   37.5490   30.2690   51.0900 N   0  0  0  0  0  0  0  0  0  0  0  0
   38.3480   31.0180   50.2890 C   0  0  0  0  0  0  0  0  0  0  0  0
   37.8890   31.4300   49.0820 N   0  0  0  0  0  0  0  0  0  0  0  0
   32.5470   28.6010   49.3860 N   0  0  0  0  0  0  0  0  0  0  0  0
   33.8052   30.6622   49.6336 H   0  0  0  0  0  0  0  0  0  0  0  0
   33.0180   30.5200   47.6369 H   0  0  0  0  0  0  0  0  0  0  0  0
   34.7662   31.0899   47.3837 H   0  0  0  0  0  0  0  0  0  0  0  0
   35.3899   29.2468   46.3477 H   0  0  0  0  0  0  0  0  0  0  0  0
   33.6249   29.3916   45.8298 H   0  0  0  0  0  0  0  0  0  0  0  0
   32.9814   27.6425   46.9635 H   0  0  0  0  0  0  0  0  0  0  0  0
   34.7071   27.1858   46.4704 H   0  0  0  0  0  0  0  0  0  0  0  0
   33.8914   26.5660   48.7900 H   0  0  0  0  0  0  0  0  0  0  0  0
   35.5049   27.3693   48.5571 H   0  0  0  0  0  0  0  0  0  0  0  0
   34.5114   28.3430   50.4107 H   0  0  0  0  0  0  0  0  0  0  0  0
   36.3000   31.4330   47.7160 H   0  0  0  0  0  0  0  0  0  0  0  0
   35.6528   29.3014   51.3860 H   0  0  0  0  0  0  0  0  0  0  0  0
   39.3622   31.2893   50.6172 H   0  0  0  0  0  0  0  0  0  0  0  0
   32.1628   28.6090   50.3416 H   0  0  0  0  0  0  0  0  0  0  0  0
   32.2423   29.4486   48.8863 H   0  0  0  0  0  0  0  0  0  0  0  0
  1  6  1  0
  1  8  1  0
  2  1  1  0
  3  4  1  0
  3  2  1  0
  4  5  1  0
  5  6  1  0
  7 12  2  0
  7  8  1  0
  8  9  2  0
  9 10  1  0
 11 10  2  0
 12 11  1  0
 13  6  1  0
  1 14  1  1
  2 15  1  0
  2 16  1  0
  3 17  1  0
  3 18  1  0
  4 19  1  0
  4 20  1  0
  5 21  1  0
  5 22  1  0
  6 23  1  1
  7 24  1  0
  9 25  1  0
 11 26  1  0
 13 27  1  0
 13 28  1  0
M  ISO  8  14  13  15  13  16  13  17  13  18  13  19  13  20  13  21  13
M  ISO  7  22  13  23  13  24  14  25  14  26  14  27   5  28   5
M  END
>  <minimizedAffinity>  (1) 
-4.58133411

>  <minimizedRMSD>  (1) 
0.244536549

$$$$
