
     RDKit          3D

 28 29  0  0  1  0  0  0  0  0999 V2000
   34.0170   29.2430   48.5580 C   0  0  1  0  0  0  0  0  0  0  0  0
   33.8140   29.6940   47.1840 C   0  0  0  0  0  0  0  0  0  0  0  0
   34.1210   28.7120   46.0900 C   0  0  0  0  0  0  0  0  0  0  0  0
   33.7660   27.3110   46.3820 C   0  0  0  0  0  0  0  0  0  0  0  0
   33.9850   26.8210   47.7800 C   0  0  0  0  0  0  0  0  0  0  0  0
   33.5320   27.8340   48.7780 C   0  0  2  0  0  0  0  0  0  0  0  0
   36.4030   30.0190   48.4080 C   0  0  0  0  0  0  0  0  0  0  0  0
   35.3440   29.5060   49.1600 C   0  0  0  0  0  0  0  0  0  0  0  0
   35.5720   29.2590   50.5000 C   0  0  0  0  0  0  0  0  0  0  0  0
   36.8140   29.5310   51.0130 N   0  0  0  0  0  0  0  0  0  0  0  0
   37.8190   30.0320   50.2490 C   0  0  0  0  0  0  0  0  0  0  0  0
   37.6010   30.2750   48.9300 N   0  0  0  0  0  0  0  0  0  0  0  0
   32.0360   27.9550   48.5070 C   0  0  0  0  0  0  0  0  0  0  0  0
   31.1030   27.7310   49.2840 O   0  0  0  0  0  0  0  0  0  0  0  0
   33.3666   29.9140   49.1383 H   0  0  0  0  0  0  0  0  0  0  0  0
   32.7576   29.9835   47.0828 H   0  0  0  0  0  0  0  0  0  0  0  0
   34.5356   30.5122   47.0432 H   0  0  0  0  0  0  0  0  0  0  0  0
   35.2017   28.7538   45.8894 H   0  0  0  0  0  0  0  0  0  0  0  0
   33.5011   29.0099   45.2315 H   0  0  0  0  0  0  0  0  0  0  0  0
   32.6974   27.1868   46.1526 H   0  0  0  0  0  0  0  0  0  0  0  0
   34.4516   26.7127   45.7639 H   0  0  0  0  0  0  0  0  0  0  0  0
   33.4171   25.8907   47.9284 H   0  0  0  0  0  0  0  0  0  0  0  0
   35.0607   26.6426   47.9247 H   0  0  0  0  0  0  0  0  0  0  0  0
   33.8853   27.4999   49.7647 H   0  0  0  0  0  0  0  0  0  0  0  0
   36.2406   30.2202   47.3388 H   0  0  0  0  0  0  0  0  0  0  0  0
   34.7752   28.8533   51.1408 H   0  0  0  0  0  0  0  0  0  0  0  0
   38.8028   30.2396   50.6950 H   0  0  0  0  0  0  0  0  0  0  0  0
   31.7537   28.2819   47.4953 H   0  0  0  0  0  0  0  0  0  0  0  0
  1  6  1  0
  1  8  1  0
  2  1  1  0
  3  4  1  0
  3  2  1  0
  4  5  1  0
  5  6  1  0
  7 12  2  0
  7  8  1  0
  8  9  2  0
  9 10  1  0
 11 10  2  0
 12 11  1  0
 13  6  1  0
 13 14  2  0
  1 15  1  1
  2 16  1  0
  2 17  1  0
  3 18  1  0
  3 19  1  0
  4 20  1  0
  4 21  1  0
  5 22  1  0
  5 23  1  0
  6 24  1  1
  7 25  1  0
  9 26  1  0
 11 27  1  0
 13 28  1  0
M  ISO  8  15  13  16  13  17  13  18  13  19  13  20  13  21  13  22  13
M  ISO  6  23  13  24  13  25  14  26  14  27  14  28   6
M  END
>  <minimizedAffinity>  (1) 
-4.23393774

>  <minimizedRMSD>  (1) 
1.20013404

$$$$
