
     RDKit          3D

 30 31  0  0  1  0  0  0  0  0999 V2000
   39.5780   32.8530   46.3350 N   0  0  0  0  0  0  0  0  0  0  0  0
   38.2770   32.3260   46.1310 C   0  0  1  0  0  0  0  0  0  0  0  0
   37.9190   32.4050   44.6790 C   0  0  0  0  0  0  0  0  0  0  0  0
   38.9030   31.5940   43.9600 N   0  0  0  0  0  0  0  0  0  0  0  0
   40.1670   32.3410   44.0590 C   0  0  0  0  0  0  0  0  0  0  0  0
   40.5850   32.2620   45.5150 C   0  0  2  0  0  0  0  0  0  0  0  0
   40.8640   30.8970   45.8370 N   0  0  0  0  0  0  0  0  0  0  0  0
   38.1430   30.5640   46.6070 S   0  0  0  0  0  0  0  0  0  0  0  0
   37.8090   30.8180   50.6440 C   0  0  0  0  0  0  0  0  0  0  0  0
   38.3310   31.0040   49.3690 C   0  0  0  0  0  0  0  0  0  0  0  0
   37.6370   30.4380   48.3120 C   0  0  0  0  0  0  0  0  0  0  0  0
   36.4750   29.7230   48.5640 N   0  0  0  0  0  0  0  0  0  0  0  0
   36.0360   29.5880   49.8200 C   0  0  0  0  0  0  0  0  0  0  0  0
   36.7000   30.1350   50.8700 N   0  0  0  0  0  0  0  0  0  0  0  0
   34.7950   28.8280   50.1190 C   0  0  0  0  0  0  0  0  0  0  0  0
   39.5518   33.8633   46.1363 H   0  0  0  0  0  0  0  0  0  0  0  0
   37.6034   32.9256   46.7609 H   0  0  0  0  0  0  0  0  0  0  0  0
   36.9068   32.0065   44.5156 H   0  0  0  0  0  0  0  0  0  0  0  0
   37.9286   33.4463   44.3245 H   0  0  0  0  0  0  0  0  0  0  0  0
   38.6267   31.4811   42.9742 H   0  0  0  0  0  0  0  0  0  0  0  0
   40.9331   31.8833   43.4158 H   0  0  0  0  0  0  0  0  0  0  0  0
   40.0462   33.3837   43.7300 H   0  0  0  0  0  0  0  0  0  0  0  0
   41.5058   32.8339   45.7024 H   0  0  0  0  0  0  0  0  0  0  0  0
   40.8872   30.7835   46.8605 H   0  0  0  0  0  0  0  0  0  0  0  0
   40.1289   30.2937   45.4412 H   0  0  0  0  0  0  0  0  0  0  0  0
   38.3410   31.2575   51.5006 H   0  0  0  0  0  0  0  0  0  0  0  0
   39.2561   31.5765   49.2063 H   0  0  0  0  0  0  0  0  0  0  0  0
   34.6667   28.7494   51.2087 H   0  0  0  0  0  0  0  0  0  0  0  0
   33.9306   29.3518   49.6849 H   0  0  0  0  0  0  0  0  0  0  0  0
   34.8688   27.8200   49.6849 H   0  0  0  0  0  0  0  0  0  0  0  0
  2  1  1  0
  2  8  1  0
  3  2  1  0
  4  5  1  0
  4  3  1  0
  5  6  1  0
  6  7  1  0
  6  1  1  0
  8 11  1  0
  9 14  2  0
 10  9  1  0
 11 12  1  0
 11 10  2  0
 12 13  2  0
 13 15  1  0
 13 14  1  0
  1 16  1  0
  2 17  1  1
  3 18  1  0
  3 19  1  0
  4 20  1  0
  5 21  1  0
  5 22  1  0
  6 23  1  6
  7 24  1  0
  7 25  1  0
  9 26  1  0
 10 27  1  0
 15 28  1  0
 15 29  1  0
 15 30  1  0
M  ISO  8  16   5  17  13  18  13  19  13  20   5  21  13  22  13  23  13
M  ISO  7  24   5  25   5  26  14  27  14  28   8  29   8  30   8
M  END
>  <minimizedAffinity>  (1) 
-5.33068371

>  <minimizedRMSD>  (1) 
0.171120092

$$$$
