
     RDKit          3D

 42 44  0  0  1  0  0  0  0  0999 V2000
   35.0920   30.1130   48.8440 C   0  0  1  0  0  0  0  0  0  0  0  0
   34.5140   30.2040   50.1660 C   0  0  0  0  0  0  0  0  0  0  0  0
   35.1900   29.4050   51.2640 C   0  0  0  0  0  0  0  0  0  0  0  0
   36.6800   29.3680   51.2010 C   0  0  0  0  0  0  0  0  0  0  0  0
   37.2990   29.3060   49.8530 C   0  0  0  0  0  0  0  0  0  0  0  0
   36.6030   30.1750   48.8690 C   0  0  2  0  0  0  0  0  0  0  0  0
   34.2520   27.7290   48.4430 C   0  0  0  0  0  0  0  0  0  0  0  0
   34.5950   29.0330   47.9700 C   0  0  0  0  0  0  0  0  0  0  0  0
   34.4360   29.2270   46.6110 C   0  0  0  0  0  0  0  0  0  0  0  0
   33.9760   28.2090   45.8080 N   0  0  0  0  0  0  0  0  0  0  0  0
   33.6700   26.9930   46.3290 C   0  0  0  0  0  0  0  0  0  0  0  0
   33.8120   26.7640   47.6520 N   0  0  0  0  0  0  0  0  0  0  0  0
   36.9200   31.6300   49.2900 C   0  0  0  0  0  0  0  0  0  0  0  0
   38.4290   31.8640   49.1940 C   0  0  0  0  0  0  0  0  0  0  0  0
   39.8080   34.1740   48.2540 F   0  0  0  0  0  0  0  0  0  0  0  0
   39.5810   33.1160   47.4390 C   0  0  0  0  0  0  0  0  0  0  0  0
   38.9240   31.9660   47.8200 C   0  0  0  0  0  0  0  0  0  0  0  0
   38.7780   30.9740   46.8500 C   0  0  0  0  0  0  0  0  0  0  0  0
   39.2520   31.0860   45.5510 C   0  0  0  0  0  0  0  0  0  0  0  0
   39.9110   32.2770   45.2220 C   0  0  0  0  0  0  0  0  0  0  0  0
   40.0690   33.2710   46.1580 C   0  0  0  0  0  0  0  0  0  0  0  0
   34.7123   31.0217   48.3540 H   0  0  0  0  0  0  0  0  0  0  0  0
   34.5322   31.2624   50.4651 H   0  0  0  0  0  0  0  0  0  0  0  0
   33.5080   29.7693   50.0711 H   0  0  0  0  0  0  0  0  0  0  0  0
   34.9016   29.8441   52.2305 H   0  0  0  0  0  0  0  0  0  0  0  0
   34.8543   28.3655   51.1342 H   0  0  0  0  0  0  0  0  0  0  0  0
   37.0552   30.2757   51.6964 H   0  0  0  0  0  0  0  0  0  0  0  0
   36.9618   28.4223   51.6871 H   0  0  0  0  0  0  0  0  0  0  0  0
   38.3474   29.6297   49.9306 H   0  0  0  0  0  0  0  0  0  0  0  0
   37.2226   28.2682   49.4966 H   0  0  0  0  0  0  0  0  0  0  0  0
   36.9532   29.8371   47.8825 H   0  0  0  0  0  0  0  0  0  0  0  0
   34.3590   27.5171   49.5171 H   0  0  0  0  0  0  0  0  0  0  0  0
   34.6793   30.2038   46.1675 H   0  0  0  0  0  0  0  0  0  0  0  0
   33.3049   26.1911   45.6704 H   0  0  0  0  0  0  0  0  0  0  0  0
   36.3960   32.3289   48.6214 H   0  0  0  0  0  0  0  0  0  0  0  0
   36.5852   31.7967   50.3245 H   0  0  0  0  0  0  0  0  0  0  0  0
   38.6691   32.7999   49.7197 H   0  0  0  0  0  0  0  0  0  0  0  0
   38.9187   30.9895   49.6473 H   0  0  0  0  0  0  0  0  0  0  0  0
   38.2559   30.0478   47.1320 H   0  0  0  0  0  0  0  0  0  0  0  0
   39.1169   30.2791   44.8157 H   0  0  0  0  0  0  0  0  0  0  0  0
   40.3058   32.4183   44.2051 H   0  0  0  0  0  0  0  0  0  0  0  0
   40.5900   34.1999   45.8828 H   0  0  0  0  0  0  0  0  0  0  0  0
  1  6  1  0
  1  2  1  0
  2  3  1  0
  4  3  1  0
  5  4  1  0
  6 13  1  0
  6  5  1  0
  8  7  2  0
  8  1  1  0
  9  8  1  0
 10 11  1  0
 10  9  2  0
 11 12  2  0
 12  7  1  0
 14 13  1  0
 16 17  2  0
 16 15  1  0
 17 14  1  0
 18 17  1  0
 19 18  2  0
 20 19  1  0
 20 21  2  0
 21 16  1  0
  1 22  1  6
  2 23  1  0
  2 24  1  0
  3 25  1  0
  3 26  1  0
  4 27  1  0
  4 28  1  0
  5 29  1  0
  5 30  1  0
  6 31  1  6
  7 32  1  0
  9 33  1  0
 11 34  1  0
 13 35  1  0
 13 36  1  0
 14 37  1  0
 14 38  1  0
 18 39  1  0
 19 40  1  0
 20 41  1  0
 21 42  1  0
M  ISO  8  22  13  23  13  24  13  25  13  26  13  27  13  28  13  29  13
M  ISO  8  30  13  31  13  32  14  33  14  34  14  35   8  36   8  37   8
M  ISO  5  38   8  39  14  40  14  41  14  42  14
M  END
>  <minimizedAffinity>  (1) 
-6.60920095

>  <minimizedRMSD>  (1) 
3.48164916

$$$$
