
     RDKit          3D

 39 41  0  0  1  0  0  0  0  0999 V2000
   35.1580   30.1310   48.8690 C   0  0  1  0  0  0  0  0  0  0  0  0
   34.6410   30.1610   50.2200 C   0  0  0  0  0  0  0  0  0  0  0  0
   35.3990   29.3660   51.2630 C   0  0  0  0  0  0  0  0  0  0  0  0
   36.8760   29.3700   51.1140 C   0  0  0  0  0  0  0  0  0  0  0  0
   37.4350   29.3630   49.7310 C   0  0  0  0  0  0  0  0  0  0  0  0
   36.6660   30.2250   48.8020 C   0  0  2  0  0  0  0  0  0  0  0  0
   34.2800   27.7690   48.4480 C   0  0  0  0  0  0  0  0  0  0  0  0
   34.6410   29.0700   47.9870 C   0  0  0  0  0  0  0  0  0  0  0  0
   34.4730   29.2840   46.6370 C   0  0  0  0  0  0  0  0  0  0  0  0
   33.9870   28.2800   45.8410 N   0  0  0  0  0  0  0  0  0  0  0  0
   33.6620   27.0710   46.3270 C   0  0  0  0  0  0  0  0  0  0  0  0
   33.8120   26.8150   47.6550 N   0  0  0  0  0  0  0  0  0  0  0  0
   36.9730   31.6730   49.2670 C   0  0  0  0  0  0  0  0  0  0  0  0
   38.4420   31.9980   49.0220 C   0  0  0  0  0  0  0  0  0  0  0  0
   38.5360   33.5160   49.2350 C   0  0  0  0  0  0  0  0  0  0  0  0
   39.6760   34.2380   48.5680 C   0  0  0  0  0  0  0  0  0  0  0  0
   39.5970   34.0930   50.0580 C   0  0  0  0  0  0  0  0  0  0  0  0
   34.7386   31.0561   48.4468 H   0  0  0  0  0  0  0  0  0  0  0  0
   34.6282   31.2111   50.5474 H   0  0  0  0  0  0  0  0  0  0  0  0
   33.6522   29.6830   50.1587 H   0  0  0  0  0  0  0  0  0  0  0  0
   35.1560   29.7834   52.2513 H   0  0  0  0  0  0  0  0  0  0  0  0
   35.0834   28.3198   51.1367 H   0  0  0  0  0  0  0  0  0  0  0  0
   37.2541   30.2727   51.6162 H   0  0  0  0  0  0  0  0  0  0  0  0
   37.2012   28.4136   51.5493 H   0  0  0  0  0  0  0  0  0  0  0  0
   38.4734   29.7239   49.7687 H   0  0  0  0  0  0  0  0  0  0  0  0
   37.3780   28.3314   49.3533 H   0  0  0  0  0  0  0  0  0  0  0  0
   36.9595   29.9219   47.7861 H   0  0  0  0  0  0  0  0  0  0  0  0
   34.3962   27.5454   49.5187 H   0  0  0  0  0  0  0  0  0  0  0  0
   34.7286   30.2597   46.1982 H   0  0  0  0  0  0  0  0  0  0  0  0
   33.2761   26.2909   45.6543 H   0  0  0  0  0  0  0  0  0  0  0  0
   36.3448   32.3779   48.7027 H   0  0  0  0  0  0  0  0  0  0  0  0
   36.7579   31.7606   50.3422 H   0  0  0  0  0  0  0  0  0  0  0  0
   38.7345   31.7297   47.9961 H   0  0  0  0  0  0  0  0  0  0  0  0
   39.1132   31.4378   49.6896 H   0  0  0  0  0  0  0  0  0  0  0  0
   37.4396   33.6039   49.2494 H   0  0  0  0  0  0  0  0  0  0  0  0
   40.4288   33.6768   47.9950 H   0  0  0  0  0  0  0  0  0  0  0  0
   39.7729   35.0757   47.8617 H   0  0  0  0  0  0  0  0  0  0  0  0
   39.3868   34.9736   50.6828 H   0  0  0  0  0  0  0  0  0  0  0  0
   40.2731   33.7000   50.8316 H   0  0  0  0  0  0  0  0  0  0  0  0
  1  2  1  0
  2  3  1  0
  4  3  1  0
  5  4  1  0
  6  1  1  0
  6 13  1  0
  6  5  1  0
  8  7  2  0
  8  1  1  0
  9  8  1  0
 10 11  1  0
 10  9  2  0
 11 12  2  0
 12  7  1  0
 14 15  1  0
 14 13  1  0
 15 17  1  0
 16 15  1  0
 16 17  1  0
  1 18  1  6
  2 19  1  0
  2 20  1  0
  3 21  1  0
  3 22  1  0
  4 23  1  0
  4 24  1  0
  5 25  1  0
  5 26  1  0
  6 27  1  6
  7 28  1  0
  9 29  1  0
 11 30  1  0
 13 31  1  0
 13 32  1  0
 14 33  1  0
 14 34  1  0
 15 35  1  0
 16 36  1  0
 16 37  1  0
 17 38  1  0
 17 39  1  0
M  ISO  8  18  13  19  13  20  13  21  13  22  13  23  13  24  13  25  13
M  ISO  8  26  13  27  13  28  14  29  14  30  14  31   8  32   8  33   8
M  ISO  6  34   8  35  13  36  13  37  13  38  13  39  13
M  END
>  <minimizedAffinity>  (1) 
-5.62306547

>  <minimizedRMSD>  (1) 
1.11267722

$$$$
