
     RDKit          3D

 14 14  0  0  0  0  0  0  0  0999 V2000
   37.3040   29.9370   51.3250 C   0  0  0  0  0  0  0  0  0  0  0  0
   37.8350   30.9550   50.5330 C   0  0  0  0  0  0  0  0  0  0  0  0
   37.0970   31.4010   49.4250 C   0  0  0  0  0  0  0  0  0  0  0  0
   35.8970   30.8170   49.1800 N   0  0  0  0  0  0  0  0  0  0  0  0
   35.4020   29.8210   49.9740 C   0  0  0  0  0  0  0  0  0  0  0  0
   36.0950   29.3910   51.0260 N   0  0  0  0  0  0  0  0  0  0  0  0
   38.1440   29.6040   52.3770 O   0  0  0  0  0  0  0  0  0  0  0  0
   34.0920   29.1730   49.7160 C   0  0  0  0  0  0  0  0  0  0  0  0
   38.8125   31.3995   50.7717 H   0  0  0  0  0  0  0  0  0  0  0  0
   37.4805   32.2007   48.7744 H   0  0  0  0  0  0  0  0  0  0  0  0
   37.8814   28.8934   53.0143 H   0  0  0  0  0  0  0  0  0  0  0  0
   33.6068   28.9330   50.6736 H   0  0  0  0  0  0  0  0  0  0  0  0
   33.4509   29.8579   49.1416 H   0  0  0  0  0  0  0  0  0  0  0  0
   34.2474   28.2478   49.1416 H   0  0  0  0  0  0  0  0  0  0  0  0
  1  7  1  0
  2  1  2  0
  3  2  1  0
  4  3  2  0
  4  5  1  0
  5  6  2  0
  6  1  1  0
  8  5  1  0
  2  9  1  0
  3 10  1  0
  7 11  1  0
  8 12  1  0
  8 13  1  0
  8 14  1  0
M  ISO  6   9  14  10  14  11   3  12   8  13   8  14   8
M  END
>  <minimizedAffinity>  (1) 
-3.69552398

>  <minimizedRMSD>  (1) 
0.246472761

$$$$
