
     RDKit          3D

 35 37  0  0  0  0  0  0  0  0999 V2000
   37.4900   31.7600   48.3510 Br  0  0  0  0  0  0  0  0  0  0  0  0
   36.6330   30.8710   46.8900 C   0  0  0  0  0  0  0  0  0  0  0  0
   37.2410   30.8180   45.6650 C   0  0  0  0  0  0  0  0  0  0  0  0
   36.5760   30.1660   44.6450 C   0  0  0  0  0  0  0  0  0  0  0  0
   35.3360   29.5790   44.8210 C   0  0  0  0  0  0  0  0  0  0  0  0
   34.7610   29.6590   46.0760 C   0  0  0  0  0  0  0  0  0  0  0  0
   35.4160   30.3060   47.1030 C   0  0  0  0  0  0  0  0  0  0  0  0
   39.7680   33.2850   44.7610 C   0  0  0  0  0  0  0  0  0  0  0  0
   40.9920   32.6280   44.9660 C   0  0  0  0  0  0  0  0  0  0  0  0
   40.9280   31.3150   45.4230 C   0  0  0  0  0  0  0  0  0  0  0  0
   39.7080   30.7390   45.6460 N   0  0  0  0  0  0  0  0  0  0  0  0
   38.5540   31.4290   45.4290 C   0  0  0  0  0  0  0  0  0  0  0  0
   38.5960   32.7070   44.9840 N   0  0  0  0  0  0  0  0  0  0  0  0
   34.6880   30.3130   48.3980 C   0  0  0  0  0  0  0  0  0  0  0  0
   34.0370   29.0210   48.7460 C   0  0  0  0  0  0  0  0  0  0  0  0
   34.9610   28.2460   49.5750 N   0  0  0  0  0  0  0  0  0  0  0  0
   36.0420   28.8170   50.3010 C   0  0  0  0  0  0  0  0  0  0  0  0
   35.9690   29.5460   51.4710 C   0  0  0  0  0  0  0  0  0  0  0  0
   37.2370   29.9220   51.8550 C   0  0  0  0  0  0  0  0  0  0  0  0
   38.0610   29.4360   50.9440 N   0  0  0  0  0  0  0  0  0  0  0  0
   37.3510   28.7990   50.0540 N   0  0  0  0  0  0  0  0  0  0  0  0
   37.0509   30.1115   43.6543 H   0  0  0  0  0  0  0  0  0  0  0  0
   34.8255   29.0668   43.9921 H   0  0  0  0  0  0  0  0  0  0  0  0
   33.7758   29.2041   46.2563 H   0  0  0  0  0  0  0  0  0  0  0  0
   39.7823   34.3239   44.3999 H   0  0  0  0  0  0  0  0  0  0  0  0
   41.9538   33.1264   44.7748 H   0  0  0  0  0  0  0  0  0  0  0  0
   41.8514   30.7451   45.6034 H   0  0  0  0  0  0  0  0  0  0  0  0
   35.4051   30.5620   49.1941 H   0  0  0  0  0  0  0  0  0  0  0  0
   33.8809   31.0539   48.2996 H   0  0  0  0  0  0  0  0  0  0  0  0
   33.1082   29.2115   49.3037 H   0  0  0  0  0  0  0  0  0  0  0  0
   33.7921   28.4628   47.8303 H   0  0  0  0  0  0  0  0  0  0  0  0
   34.8200   27.2275   49.6361 H   0  0  0  0  0  0  0  0  0  0  0  0
   35.0426   29.7887   52.0122 H   0  0  0  0  0  0  0  0  0  0  0  0
   37.5095   30.5102   52.7437 H   0  0  0  0  0  0  0  0  0  0  0  0
   39.0856   29.5416   50.9375 H   0  0  0  0  0  0  0  0  0  0  0  0
  2  7  2  0
  2  1  1  0
  3  2  1  0
  4  5  1  0
  4  3  2  0
  5  6  2  0
  6  7  1  0
  7 14  1  0
  8  9  2  0
  8 13  1  0
  9 10  1  0
 10 11  2  0
 12 11  1  0
 12  3  1  0
 13 12  2  0
 14 15  1  0
 15 16  1  0
 16 17  1  0
 17 18  1  0
 18 19  2  0
 20 19  1  0
 21 17  2  0
 21 20  1  0
  4 22  1  0
  5 23  1  0
  6 24  1  0
  8 25  1  0
  9 26  1  0
 10 27  1  0
 14 28  1  0
 14 29  1  0
 15 30  1  0
 15 31  1  0
 16 32  1  0
 18 33  1  0
 19 34  1  0
 20 35  1  0
M  ISO  8  22  14  23  14  24  14  25  14  26  14  27  14  28   8  29   8
M  ISO  5  30   8  31   8  33  14  34  14  35   9
M  END
>  <minimizedAffinity>  (1) 
-5.70221949

>  <minimizedRMSD>  (1) 
1.10776782

$$$$
