
     RDKit          3D

 32 33  0  0  1  0  0  0  0  0999 V2000
   37.3270   30.1420   48.3330 O   0  0  0  0  0  0  0  0  0  0  0  0
   38.0570   31.3060   48.1960 C   0  0  0  0  0  0  0  0  0  0  0  0
   38.2110   32.0180   49.3900 C   0  0  0  0  0  0  0  0  0  0  0  0
   38.9310   33.2100   49.3720 C   0  0  0  0  0  0  0  0  0  0  0  0
   39.4520   33.6230   48.1750 N   0  0  0  0  0  0  0  0  0  0  0  0
   39.2910   32.9210   47.0370 C   0  0  0  0  0  0  0  0  0  0  0  0
   38.6050   31.7890   47.0690 N   0  0  0  0  0  0  0  0  0  0  0  0
   40.7770   32.4610   45.2460 C   0  0  0  0  0  0  0  0  0  0  0  0
   41.1310   31.3300   45.6880 O   0  0  0  0  0  0  0  0  0  0  0  0
   39.8510   33.3900   45.8150 N   0  0  0  0  0  0  0  0  0  0  0  0
   35.4700   28.6640   50.0420 O   0  0  0  0  0  0  0  0  0  0  0  0
   35.2450   29.0520   48.8790 C   0  0  0  0  0  0  0  0  0  0  0  0
   35.9100   30.2260   48.3040 C   0  0  2  0  0  0  0  0  0  0  0  0
   35.4430   30.1650   46.8390 C   0  0  0  0  0  0  0  0  0  0  0  0
   34.1190   29.4600   46.9400 C   0  0  0  0  0  0  0  0  0  0  0  0
   34.3330   28.4290   47.9630 N   0  0  0  0  0  0  0  0  0  0  0  0
   33.7960   27.0980   48.0830 C   0  0  0  0  0  0  0  0  0  0  0  0
   32.3000   27.2210   48.2790 C   0  0  0  0  0  0  0  0  0  0  0  0
   37.7715   31.6433   50.3262 H   0  0  0  0  0  0  0  0  0  0  0  0
   39.0763   33.8001   50.2889 H   0  0  0  0  0  0  0  0  0  0  0  0
   41.2430   32.7707   44.2989 H   0  0  0  0  0  0  0  0  0  0  0  0
   39.6153   34.2974   45.3884 H   0  0  0  0  0  0  0  0  0  0  0  0
   35.6635   31.1453   48.8555 H   0  0  0  0  0  0  0  0  0  0  0  0
   36.1505   29.5925   46.2212 H   0  0  0  0  0  0  0  0  0  0  0  0
   35.3743   31.1541   46.3625 H   0  0  0  0  0  0  0  0  0  0  0  0
   33.3283   30.1588   47.2507 H   0  0  0  0  0  0  0  0  0  0  0  0
   33.7946   29.0362   45.9782 H   0  0  0  0  0  0  0  0  0  0  0  0
   34.0081   26.5246   47.1685 H   0  0  0  0  0  0  0  0  0  0  0  0
   34.2541   26.5731   48.9342 H   0  0  0  0  0  0  0  0  0  0  0  0
   32.0715   27.2398   49.3548 H   0  0  0  0  0  0  0  0  0  0  0  0
   31.9443   28.1514   47.8123 H   0  0  0  0  0  0  0  0  0  0  0  0
   31.7971   26.3612   47.8123 H   0  0  0  0  0  0  0  0  0  0  0  0
  2  1  1  0
  2  3  2  0
  4  3  1  0
  5  4  2  0
  6  7  2  0
  6  5  1  0
  7  2  1  0
  8  9  2  0
  8 10  1  0
 10  6  1  0
 12 11  2  0
 13  1  1  0
 13 12  1  0
 14 15  1  0
 14 13  1  0
 15 16  1  0
 16 17  1  0
 16 12  1  0
 17 18  1  0
  3 19  1  0
  4 20  1  0
  8 21  1  0
 10 22  1  0
 13 23  1  1
 14 24  1  0
 14 25  1  0
 15 26  1  0
 15 27  1  0
 17 28  1  0
 17 29  1  0
 18 30  1  0
 18 31  1  0
 18 32  1  0
M  ISO  8  19  14  20  14  21   6  23  13  24  13  25  13  26  13  27  13
M  ISO  5  28   8  29   8  30   8  31   8  32   8
M  END
>  <minimizedAffinity>  (1) 
-5.40099955

>  <minimizedRMSD>  (1) 
1.08046174

$$$$
