
     RDKit          3D

 42 44  0  0  1  0  0  0  0  0999 V2000
   34.4970   28.3490   49.7370 O   0  0  0  0  0  0  0  0  0  0  0  0
   34.1280   28.7590   48.6130 C   0  0  0  0  0  0  0  0  0  0  0  0
   34.7550   29.9020   47.9830 C   0  0  2  0  0  0  0  0  0  0  0  0
   34.1100   29.8350   46.5560 C   0  0  0  0  0  0  0  0  0  0  0  0
   32.7840   29.1910   46.8290 C   0  0  0  0  0  0  0  0  0  0  0  0
   33.0760   28.1880   47.8150 N   0  0  0  0  0  0  0  0  0  0  0  0
   32.4430   26.8670   48.0250 C   0  0  0  0  0  0  0  0  0  0  0  0
   29.9320   26.8490   47.5580 C   0  0  0  0  0  0  0  0  0  0  0  0
   31.0270   27.1310   48.3360 C   0  0  0  0  0  0  0  0  0  0  0  0
   30.7150   27.7780   49.5420 C   0  0  0  0  0  0  0  0  0  0  0  0
   29.4600   28.1350   49.9820 C   0  0  0  0  0  0  0  0  0  0  0  0
   28.3880   27.8350   49.1690 C   0  0  0  0  0  0  0  0  0  0  0  0
   28.6490   27.2020   47.9850 C   0  0  0  0  0  0  0  0  0  0  0  0
   30.0500   26.0200   46.0540 S   0  0  0  0  0  0  0  0  0  0  0  0
   30.7810   26.8810   45.0660 O   0  0  0  0  0  0  0  0  0  0  0  0
   30.5830   24.6480   46.1910 O   0  0  0  0  0  0  0  0  0  0  0  0
   36.1600   29.7460   47.7670 O   0  0  0  0  0  0  0  0  0  0  0  0
   36.9710   30.8480   48.0000 C   0  0  0  0  0  0  0  0  0  0  0  0
   36.9790   31.3420   49.2930 C   0  0  0  0  0  0  0  0  0  0  0  0
   37.7770   32.4440   49.5710 C   0  0  0  0  0  0  0  0  0  0  0  0
   38.5170   32.9900   48.5610 N   0  0  0  0  0  0  0  0  0  0  0  0
   38.4950   32.4940   47.3090 C   0  0  0  0  0  0  0  0  0  0  0  0
   37.7300   31.4410   47.0530 N   0  0  0  0  0  0  0  0  0  0  0  0
   40.2150   32.1810   45.7120 C   0  0  0  0  0  0  0  0  0  0  0  0
   40.4130   30.9710   46.0100 O   0  0  0  0  0  0  0  0  0  0  0  0
   39.2780   33.0920   46.2810 N   0  0  0  0  0  0  0  0  0  0  0  0
   34.6218   30.8110   48.5879 H   0  0  0  0  0  0  0  0  0  0  0  0
   34.7169   29.2215   45.8739 H   0  0  0  0  0  0  0  0  0  0  0  0
   34.0282   30.8161   46.0653 H   0  0  0  0  0  0  0  0  0  0  0  0
   32.0664   29.9266   47.2214 H   0  0  0  0  0  0  0  0  0  0  0  0
   32.3255   28.7697   45.9222 H   0  0  0  0  0  0  0  0  0  0  0  0
   32.5253   26.2562   47.1139 H   0  0  0  0  0  0  0  0  0  0  0  0
   32.9343   26.3133   48.8387 H   0  0  0  0  0  0  0  0  0  0  0  0
   31.5590   28.0250   50.2028 H   0  0  0  0  0  0  0  0  0  0  0  0
   29.3179   28.6416   50.9480 H   0  0  0  0  0  0  0  0  0  0  0  0
   27.3601   28.0952   49.4618 H   0  0  0  0  0  0  0  0  0  0  0  0
   27.7995   26.9564   47.3307 H   0  0  0  0  0  0  0  0  0  0  0  0
   28.7904   25.8143   45.5561 H   0  0  0  0  0  0  0  0  0  0  0  0
   36.3692   30.8739   50.0798 H   0  0  0  0  0  0  0  0  0  0  0  0
   37.8125   32.8690   50.5850 H   0  0  0  0  0  0  0  0  0  0  0  0
   40.8480   32.5855   44.9084 H   0  0  0  0  0  0  0  0  0  0  0  0
   39.1785   34.0727   45.9821 H   0  0  0  0  0  0  0  0  0  0  0  0
  2  1  2  0
  3  2  1  0
  4  5  1  0
  4  3  1  0
  5  6  1  0
  6  7  1  0
  6  2  1  0
  7  9  1  0
  8 13  2  0
  8  9  1  0
  9 10  2  0
 10 11  1  0
 12 11  2  0
 13 12  1  0
 14 16  2  0
 14  8  1  0
 15 14  2  0
 17  3  1  0
 17 18  1  0
 18 19  2  0
 19 20  1  0
 21 20  2  0
 22 21  1  0
 23 22  2  0
 23 18  1  0
 24 25  2  0
 24 26  1  0
 26 22  1  0
  3 27  1  1
  4 28  1  0
  4 29  1  0
  5 30  1  0
  5 31  1  0
  7 32  1  0
  7 33  1  0
 10 34  1  0
 11 35  1  0
 12 36  1  0
 13 37  1  0
 14 38  1  0
 19 39  1  0
 20 40  1  0
 24 41  1  0
 26 42  1  0
M  ISO  8  27  13  28  13  29  13  30  13  31  13  32   8  33   8  34  14
M  ISO  7  35  14  36  14  37  14  38  11  39  14  40  14  41   6
M  END
>  <minimizedAffinity>  (1) 
-6.03389072

>  <minimizedRMSD>  (1) 
1.61133325

$$$$
