
     RDKit          3D

 42 45  0  0  1  0  0  0  0  0999 V2000
   34.5610   29.7440   49.9920 O   0  0  0  0  0  0  0  0  0  0  0  0
   34.3740   29.6650   48.7650 C   0  0  0  0  0  0  0  0  0  0  0  0
   35.1870   30.4080   47.8220 C   0  0  2  0  0  0  0  0  0  0  0  0
   34.6940   29.8050   46.4700 C   0  0  0  0  0  0  0  0  0  0  0  0
   33.3010   29.3600   46.7790 C   0  0  0  0  0  0  0  0  0  0  0  0
   33.3650   28.8580   48.1440 N   0  0  0  0  0  0  0  0  0  0  0  0
   32.5690   27.7840   48.7110 C   0  0  0  0  0  0  0  0  0  0  0  0
   33.7800   26.0470   47.5180 C   0  0  0  0  0  0  0  0  0  0  0  0
   32.5340   26.5910   47.8350 C   0  0  0  0  0  0  0  0  0  0  0  0
   31.3670   26.0360   47.3520 C   0  0  0  0  0  0  0  0  0  0  0  0
   31.4480   24.9220   46.5400 C   0  0  0  0  0  0  0  0  0  0  0  0
   30.5220   24.1590   45.9190 N   0  0  0  0  0  0  0  0  0  0  0  0
   31.1790   23.1870   45.2500 C   0  0  0  0  0  0  0  0  0  0  0  0
   32.5130   23.3330   45.4450 N   0  0  0  0  0  0  0  0  0  0  0  0
   32.7090   24.4000   46.2400 C   0  0  0  0  0  0  0  0  0  0  0  0
   33.8840   24.9410   46.7150 C   0  0  0  0  0  0  0  0  0  0  0  0
   36.5840   30.1000   47.8940 O   0  0  0  0  0  0  0  0  0  0  0  0
   37.4670   31.1680   48.0440 C   0  0  0  0  0  0  0  0  0  0  0  0
   37.6030   31.6770   49.3230 C   0  0  0  0  0  0  0  0  0  0  0  0
   38.4760   32.7440   49.5080 C   0  0  0  0  0  0  0  0  0  0  0  0
   39.1490   33.2370   48.4420 N   0  0  0  0  0  0  0  0  0  0  0  0
   39.0040   32.7270   47.1990 C   0  0  0  0  0  0  0  0  0  0  0  0
   38.1710   31.7100   47.0280 N   0  0  0  0  0  0  0  0  0  0  0  0
   40.5670   32.3080   45.4690 C   0  0  0  0  0  0  0  0  0  0  0  0
   40.7290   31.0900   45.7700 O   0  0  0  0  0  0  0  0  0  0  0  0
   39.7260   33.2700   46.0980 N   0  0  0  0  0  0  0  0  0  0  0  0
   35.0910   31.4919   47.9834 H   0  0  0  0  0  0  0  0  0  0  0  0
   35.3212   28.9539   46.1662 H   0  0  0  0  0  0  0  0  0  0  0  0
   34.7419   30.5213   45.6365 H   0  0  0  0  0  0  0  0  0  0  0  0
   32.5999   30.2048   46.7093 H   0  0  0  0  0  0  0  0  0  0  0  0
   32.9426   28.5969   46.0724 H   0  0  0  0  0  0  0  0  0  0  0  0
   33.0001   27.4981   49.6818 H   0  0  0  0  0  0  0  0  0  0  0  0
   31.5381   28.1509   48.8231 H   0  0  0  0  0  0  0  0  0  0  0  0
   34.6922   26.5130   47.9188 H   0  0  0  0  0  0  0  0  0  0  0  0
   30.3905   26.4726   47.6088 H   0  0  0  0  0  0  0  0  0  0  0  0
   29.5014   24.2940   45.9501 H   0  0  0  0  0  0  0  0  0  0  0  0
   30.7065   22.4009   44.6427 H   0  0  0  0  0  0  0  0  0  0  0  0
   34.8614   24.5049   46.4612 H   0  0  0  0  0  0  0  0  0  0  0  0
   37.0391   31.2518   50.1664 H   0  0  0  0  0  0  0  0  0  0  0  0
   38.6176   33.1814   50.5073 H   0  0  0  0  0  0  0  0  0  0  0  0
   41.1512   32.6710   44.6105 H   0  0  0  0  0  0  0  0  0  0  0  0
   39.6485   34.2500   45.7906 H   0  0  0  0  0  0  0  0  0  0  0  0
  2  1  2  0
  3 17  1  0
  3  2  1  0
  4  5  1  0
  4  3  1  0
  5  6  1  0
  6  7  1  0
  6  2  1  0
  8  9  2  0
  9  7  1  0
 10  9  1  0
 11 10  2  0
 12 11  1  0
 13 14  2  0
 13 12  1  0
 14 15  1  0
 15 11  1  0
 15 16  2  0
 16  8  1  0
 17 18  1  0
 18 19  2  0
 19 20  1  0
 21 20  2  0
 22 21  1  0
 23 22  2  0
 23 18  1  0
 24 25  2  0
 24 26  1  0
 26 22  1  0
  3 27  1  6
  4 28  1  0
  4 29  1  0
  5 30  1  0
  5 31  1  0
  7 32  1  0
  7 33  1  0
  8 34  1  0
 10 35  1  0
 12 36  1  0
 13 37  1  0
 16 38  1  0
 19 39  1  0
 20 40  1  0
 24 41  1  0
 26 42  1  0
M  ISO  8  27  13  28  13  29  13  30  13  31  13  32   8  33   8  34  14
M  ISO  7  35  14  36   9  37  14  38  14  39  14  40  14  41   6
M  END
>  <minimizedAffinity>  (1) 
-5.98608971

>  <minimizedRMSD>  (1) 
2.3291595

$$$$
