
     RDKit          3D

 39 41  0  0  1  0  0  0  0  0999 V2000
   34.6960   28.3010   49.7880 O   0  0  0  0  0  0  0  0  0  0  0  0
   34.4400   28.8440   48.7050 C   0  0  0  0  0  0  0  0  0  0  0  0
   35.1650   30.0080   48.2450 C   0  0  2  0  0  0  0  0  0  0  0  0
   34.6000   30.1680   46.8010 C   0  0  0  0  0  0  0  0  0  0  0  0
   33.2540   29.5350   46.8800 C   0  0  0  0  0  0  0  0  0  0  0  0
   33.4250   28.4080   47.7890 N   0  0  0  0  0  0  0  0  0  0  0  0
   32.7130   27.1380   47.7560 C   0  0  0  0  0  0  0  0  0  0  0  0
   33.4930   26.2450   46.8290 C   0  0  0  0  0  0  0  0  0  0  0  0
   33.9110   25.0080   47.3130 C   0  0  0  0  0  0  0  0  0  0  0  0
   34.6320   24.1060   46.5560 C   0  0  0  0  0  0  0  0  0  0  0  0
   34.9590   24.4450   45.2460 C   0  0  0  0  0  0  0  0  0  0  0  0
   34.5400   25.6700   44.7850 C   0  0  0  0  0  0  0  0  0  0  0  0
   33.8210   26.5760   45.5310 C   0  0  0  0  0  0  0  0  0  0  0  0
   36.5710   29.8070   48.0940 O   0  0  0  0  0  0  0  0  0  0  0  0
   37.3950   30.9260   48.2080 C   0  0  0  0  0  0  0  0  0  0  0  0
   37.5410   31.4680   49.4710 C   0  0  0  0  0  0  0  0  0  0  0  0
   38.3550   32.5810   49.6170 C   0  0  0  0  0  0  0  0  0  0  0  0
   38.9720   33.0900   48.5160 N   0  0  0  0  0  0  0  0  0  0  0  0
   38.8210   32.5530   47.2960 C   0  0  0  0  0  0  0  0  0  0  0  0
   38.0400   31.4850   47.1610 N   0  0  0  0  0  0  0  0  0  0  0  0
   40.3530   32.1880   45.5250 C   0  0  0  0  0  0  0  0  0  0  0  0
   40.5910   30.9850   45.8430 O   0  0  0  0  0  0  0  0  0  0  0  0
   39.4790   33.1130   46.1640 N   0  0  0  0  0  0  0  0  0  0  0  0
   35.0455   30.8423   48.9518 H   0  0  0  0  0  0  0  0  0  0  0  0
   35.2365   29.6477   46.0702 H   0  0  0  0  0  0  0  0  0  0  0  0
   34.5607   31.2166   46.4709 H   0  0  0  0  0  0  0  0  0  0  0  0
   32.5146   30.2453   47.2783 H   0  0  0  0  0  0  0  0  0  0  0  0
   32.8849   29.2199   45.8929 H   0  0  0  0  0  0  0  0  0  0  0  0
   32.6703   26.6982   48.7633 H   0  0  0  0  0  0  0  0  0  0  0  0
   31.6766   27.2676   47.4109 H   0  0  0  0  0  0  0  0  0  0  0  0
   33.6546   24.7365   48.3477 H   0  0  0  0  0  0  0  0  0  0  0  0
   34.9417   23.1392   46.9795 H   0  0  0  0  0  0  0  0  0  0  0  0
   35.5309   23.7586   44.6044 H   0  0  0  0  0  0  0  0  0  0  0  0
   34.7963   25.9446   43.7511 H   0  0  0  0  0  0  0  0  0  0  0  0
   33.5151   27.5416   45.1019 H   0  0  0  0  0  0  0  0  0  0  0  0
   37.0252   31.0281   50.3373 H   0  0  0  0  0  0  0  0  0  0  0  0
   38.4993   33.0439   50.6044 H   0  0  0  0  0  0  0  0  0  0  0  0
   40.8900   32.5663   44.6427 H   0  0  0  0  0  0  0  0  0  0  0  0
   39.3381   34.0814   45.8425 H   0  0  0  0  0  0  0  0  0  0  0  0
  2  1  2  0
  3  2  1  0
  4  5  1  0
  4  3  1  0
  5  6  1  0
  6  2  1  0
  7  6  1  0
  8  9  2  0
  8  7  1  0
 10  9  1  0
 11 10  2  0
 12 11  1  0
 12 13  2  0
 13  8  1  0
 14 15  1  0
 14  3  1  0
 15 16  2  0
 16 17  1  0
 18 17  2  0
 19 18  1  0
 20 19  2  0
 20 15  1  0
 21 22  2  0
 21 23  1  0
 23 19  1  0
  3 24  1  1
  4 25  1  0
  4 26  1  0
  5 27  1  0
  5 28  1  0
  7 29  1  0
  7 30  1  0
  9 31  1  0
 10 32  1  0
 11 33  1  0
 12 34  1  0
 13 35  1  0
 16 36  1  0
 17 37  1  0
 21 38  1  0
 23 39  1  0
M  ISO  8  24  13  25  13  26  13  27  13  28  13  29   8  30   8  31  14
M  ISO  7  32  14  33  14  34  14  35  14  36  14  37  14  38   6
M  END
>  <minimizedAffinity>  (1) 
-5.78081226

>  <minimizedRMSD>  (1) 
1.0823369

$$$$
