
     RDKit          3D

 24 25  0  0  1  0  0  0  0  0999 V2000
   37.2890   30.1870   51.3770 C   0  0  0  0  0  0  0  0  0  0  0  0
   38.1290   30.7290   50.3900 C   0  0  0  0  0  0  0  0  0  0  0  0
   37.7980   30.5050   49.0380 C   0  0  0  0  0  0  0  0  0  0  0  0
   36.6800   29.7750   48.7770 N   0  0  0  0  0  0  0  0  0  0  0  0
   35.8990   29.2710   49.7450 C   0  0  0  0  0  0  0  0  0  0  0  0
   36.1970   29.4730   51.0370 N   0  0  0  0  0  0  0  0  0  0  0  0
   34.4290   28.3090   49.3910 S   0  0  0  0  0  0  0  0  0  0  0  0
   32.7830   29.1430   47.4210 N   0  0  0  0  0  0  0  0  0  0  0  0
   33.9830   28.4030   47.6370 C   0  0  2  0  0  0  0  0  0  0  0  0
   33.8530   26.9480   47.1800 C   0  0  0  0  0  0  0  0  0  0  0  0
   33.1700   26.9180   45.9830 O   0  0  0  0  0  0  0  0  0  0  0  0
   31.8350   27.1820   46.2670 C   0  0  0  0  0  0  0  0  0  0  0  0
   31.6160   28.3850   47.1200 C   0  0  0  0  0  0  0  0  0  0  0  0
   37.5249   30.3470   52.4394 H   0  0  0  0  0  0  0  0  0  0  0  0
   39.0204   31.3121   50.6645 H   0  0  0  0  0  0  0  0  0  0  0  0
   38.4205   30.9056   48.2244 H   0  0  0  0  0  0  0  0  0  0  0  0
   32.5920   29.6861   48.2751 H   0  0  0  0  0  0  0  0  0  0  0  0
   34.7448   28.9446   47.0571 H   0  0  0  0  0  0  0  0  0  0  0  0
   34.8538   26.5118   47.0457 H   0  0  0  0  0  0  0  0  0  0  0  0
   33.3068   26.3658   47.9368 H   0  0  0  0  0  0  0  0  0  0  0  0
   31.3036   27.3327   45.3157 H   0  0  0  0  0  0  0  0  0  0  0  0
   31.4571   26.3194   46.8355 H   0  0  0  0  0  0  0  0  0  0  0  0
   30.9077   29.0458   46.5988 H   0  0  0  0  0  0  0  0  0  0  0  0
   31.2434   28.0082   48.0839 H   0  0  0  0  0  0  0  0  0  0  0  0
  2  1  2  0
  3  2  1  0
  4  3  2  0
  4  5  1  0
  5  6  2  0
  6  1  1  0
  7  5  1  0
  8  9  1  0
  9  7  1  0
 10  9  1  0
 11 12  1  0
 11 10  1  0
 12 13  1  0
 13  8  1  0
  1 14  1  0
  2 15  1  0
  3 16  1  0
  8 17  1  0
  9 18  1  6
 10 19  1  0
 10 20  1  0
 12 21  1  0
 12 22  1  0
 13 23  1  0
 13 24  1  0
M  ISO  8  14  14  15  14  16  14  17   5  18  13  19  13  20  13  21  13
M  ISO  3  22  13  23  13  24  13
M  END
>  <minimizedAffinity>  (1) 
-3.95745802

>  <minimizedRMSD>  (1) 
0.394503653

$$$$
