
     RDKit          3D

 17 18  0  0  0  0  0  0  0  0999 V2000
   37.2150   30.3070   51.3300 C   0  0  0  0  0  0  0  0  0  0  0  0
   38.1140   30.8240   50.3790 C   0  0  0  0  0  0  0  0  0  0  0  0
   37.9020   30.4920   49.0380 C   0  0  0  0  0  0  0  0  0  0  0  0
   36.8440   29.6920   48.7310 N   0  0  0  0  0  0  0  0  0  0  0  0
   36.0030   29.2160   49.6750 C   0  0  0  0  0  0  0  0  0  0  0  0
   36.1740   29.5120   50.9660 N   0  0  0  0  0  0  0  0  0  0  0  0
   34.6190   28.1690   49.2560 S   0  0  0  0  0  0  0  0  0  0  0  0
   33.6790   28.8920   47.8910 C   0  0  0  0  0  0  0  0  0  0  0  0
   34.1090   30.2140   47.4790 C   0  0  0  0  0  0  0  0  0  0  0  0
   32.8650   30.5160   46.0820 S   0  0  0  0  0  0  0  0  0  0  0  0
   32.0530   28.8230   46.3550 C   0  0  0  0  0  0  0  0  0  0  0  0
   32.6670   28.3400   47.2540 N   0  0  0  0  0  0  0  0  0  0  0  0
   37.3578   30.5518   52.3929 H   0  0  0  0  0  0  0  0  0  0  0  0
   38.9542   31.4669   50.6804 H   0  0  0  0  0  0  0  0  0  0  0  0
   38.5726   30.8674   48.2510 H   0  0  0  0  0  0  0  0  0  0  0  0
   34.9179   30.8526   47.8636 H   0  0  0  0  0  0  0  0  0  0  0  0
   31.2057   28.3859   45.8063 H   0  0  0  0  0  0  0  0  0  0  0  0
  2  1  2  0
  3  2  1  0
  4  3  2  0
  4  5  1  0
  5  6  2  0
  6  1  1  0
  7  5  1  0
  8  7  1  0
  9  8  2  0
 10 11  1  0
 10  9  1  0
 11 12  2  0
 12  8  1  0
  1 13  1  0
  2 14  1  0
  3 15  1  0
  9 16  1  0
 11 17  1  0
M  ISO  5  13  14  14  14  15  14  16  14  17  14
M  END
>  <minimizedAffinity>  (1) 
-3.82519221

>  <minimizedRMSD>  (1) 
1.32973158

$$$$
