
     RDKit          3D

 14 14  0  0  0  0  0  0  0  0999 V2000
   37.5650   30.2110   51.2690 C   0  0  0  0  0  0  0  0  0  0  0  0
   38.0780   31.1040   50.3290 C   0  0  0  0  0  0  0  0  0  0  0  0
   37.3290   31.3720   49.1700 C   0  0  0  0  0  0  0  0  0  0  0  0
   36.1390   30.7310   49.0490 N   0  0  0  0  0  0  0  0  0  0  0  0
   35.6570   29.8760   49.9570 C   0  0  0  0  0  0  0  0  0  0  0  0
   36.3660   29.6170   51.0620 N   0  0  0  0  0  0  0  0  0  0  0  0
   34.0850   29.0540   49.7560 S   0  0  0  0  0  0  0  0  0  0  0  0
   34.2800   27.7690   48.4820 C   0  0  0  0  0  0  0  0  0  0  0  0
   38.1365   29.9883   52.1821 H   0  0  0  0  0  0  0  0  0  0  0  0
   39.0513   31.5900   50.4914 H   0  0  0  0  0  0  0  0  0  0  0  0
   37.6901   32.0678   48.3983 H   0  0  0  0  0  0  0  0  0  0  0  0
   34.4282   26.7924   48.9660 H   0  0  0  0  0  0  0  0  0  0  0  0
   33.3768   27.7342   47.8550 H   0  0  0  0  0  0  0  0  0  0  0  0
   35.1528   28.0037   47.8550 H   0  0  0  0  0  0  0  0  0  0  0  0
  2  1  2  0
  3  2  1  0
  4  3  2  0
  4  5  1  0
  5  6  2  0
  6  1  1  0
  7  5  1  0
  8  7  1  0
  1  9  1  0
  2 10  1  0
  3 11  1  0
  8 12  1  0
  8 13  1  0
  8 14  1  0
M  ISO  6   9  14  10  14  11  14  12   8  13   8  14   8
M  END
>  <minimizedAffinity>  (1) 
-3.01343942

>  <minimizedRMSD>  (1) 
0.929066777

$$$$
