
     RDKit          3D

 24 25  0  0  1  0  0  0  0  0999 V2000
   34.7970   29.5400   47.5180 S   0  0  0  0  0  0  0  0  0  0  0  0
   37.3710   29.4760   50.5320 C   0  0  0  0  0  0  0  0  0  0  0  0
   37.9820   30.7320   50.5180 C   0  0  0  0  0  0  0  0  0  0  0  0
   37.5790   31.6420   49.5320 C   0  0  0  0  0  0  0  0  0  0  0  0
   36.6230   31.2550   48.6460 N   0  0  0  0  0  0  0  0  0  0  0  0
   36.0550   30.0280   48.6910 C   0  0  0  0  0  0  0  0  0  0  0  0
   36.4220   29.1310   49.6300 N   0  0  0  0  0  0  0  0  0  0  0  0
   32.3860   28.3570   47.4750 C   0  0  2  0  0  0  0  0  0  0  0  0
   33.6250   28.4060   48.3500 C   0  0  1  0  0  0  0  0  0  0  0  0
   34.1860   27.1560   48.3530 O   0  0  0  0  0  0  0  0  0  0  0  0
   33.5560   26.3700   47.4100 C   0  0  0  0  0  0  0  0  0  0  0  0
   32.8460   27.3330   46.4580 C   0  0  1  0  0  0  0  0  0  0  0  0
   32.1340   29.5950   46.8880 O   0  0  0  0  0  0  0  0  0  0  0  0
   31.7940   26.6910   45.8260 O   0  0  0  0  0  0  0  0  0  0  0  0
   37.6696   28.7456   51.2984 H   0  0  0  0  0  0  0  0  0  0  0  0
   38.7533   30.9976   51.2560 H   0  0  0  0  0  0  0  0  0  0  0  0
   38.0254   32.6458   49.4759 H   0  0  0  0  0  0  0  0  0  0  0  0
   31.4462   28.1119   47.9915 H   0  0  0  0  0  0  0  0  0  0  0  0
   33.3926   28.7301   49.3752 H   0  0  0  0  0  0  0  0  0  0  0  0
   34.2944   25.7667   46.8615 H   0  0  0  0  0  0  0  0  0  0  0  0
   32.8457   25.6730   47.8787 H   0  0  0  0  0  0  0  0  0  0  0  0
   33.4389   27.7462   45.6287 H   0  0  0  0  0  0  0  0  0  0  0  0
   31.9959   30.2736   47.5954 H   0  0  0  0  0  0  0  0  0  0  0  0
   31.1798   26.3162   46.5060 H   0  0  0  0  0  0  0  0  0  0  0  0
  1  6  1  0
  3  2  2  0
  4  3  1  0
  5  6  1  0
  5  4  2  0
  6  7  2  0
  7  2  1  0
  8 13  1  0
  8  9  1  0
  9  1  1  0
  9 10  1  0
 11 10  1  0
 12 14  1  0
 12 11  1  0
 12  8  1  0
  2 15  1  0
  3 16  1  0
  4 17  1  0
  8 18  1  1
  9 19  1  1
 11 20  1  0
 11 21  1  0
 12 22  1  6
 13 23  1  0
 14 24  1  0
M  ISO  8  15  14  16  14  17  14  18  13  19  13  20  13  21  13  22  13
M  ISO  2  23   3  24   3
M  END
>  <minimizedAffinity>  (1) 
-3.9161365

>  <minimizedRMSD>  (1) 
2.15012336

$$$$
