
     RDKit          3D

 50 53  0  0  1  0  0  0  0  0999 V2000
   32.3160   28.3650   47.4490 C   0  0  2  0  0  0  0  0  0  0  0  0
   33.5040   28.4290   48.3630 C   0  0  1  0  0  0  0  0  0  0  0  0
   34.0540   27.1840   48.4260 O   0  0  0  0  0  0  0  0  0  0  0  0
   33.5170   26.3960   47.4150 C   0  0  0  0  0  0  0  0  0  0  0  0
   32.8550   27.3160   46.4240 C   0  0  1  0  0  0  0  0  0  0  0  0
   32.1310   29.5970   46.7860 O   0  0  0  0  0  0  0  0  0  0  0  0
   34.7340   29.5590   47.5970 S   0  0  0  0  0  0  0  0  0  0  0  0
   37.3200   29.3220   50.5890 C   0  0  0  0  0  0  0  0  0  0  0  0
   37.8280   30.6160   50.7290 C   0  0  0  0  0  0  0  0  0  0  0  0
   37.3540   31.6000   49.8650 C   0  0  0  0  0  0  0  0  0  0  0  0
   36.4210   31.2590   48.9290 N   0  0  0  0  0  0  0  0  0  0  0  0
   35.9560   29.9950   48.8280 C   0  0  0  0  0  0  0  0  0  0  0  0
   36.3970   29.0110   49.6530 N   0  0  0  0  0  0  0  0  0  0  0  0
   31.8210   26.6490   45.8140 O   0  0  0  0  0  0  0  0  0  0  0  0
   30.1560   27.1950   43.4480 Cl  0  0  0  0  0  0  0  0  0  0  0  0
   29.6550   26.9930   45.1090 C   0  0  0  0  0  0  0  0  0  0  0  0
   30.5340   26.7270   46.1350 C   0  0  0  0  0  0  0  0  0  0  0  0
   30.0110   26.5590   47.4190 C   0  0  0  0  0  0  0  0  0  0  0  0
   28.6540   26.6590   47.6430 C   0  0  0  0  0  0  0  0  0  0  0  0
   27.7640   26.9260   46.6190 C   0  0  0  0  0  0  0  0  0  0  0  0
   28.2870   27.0920   45.3500 C   0  0  0  0  0  0  0  0  0  0  0  0
   27.3340   27.3790   44.2450 C   0  0  0  0  0  0  0  0  0  0  0  0
   26.0940   28.0900   44.7070 C   0  0  0  0  0  0  0  0  0  0  0  0
   24.8900   27.7330   43.8330 C   0  0  0  0  0  0  0  0  0  0  0  0
   25.2680   27.5780   42.3870 C   0  0  0  0  0  0  0  0  0  0  0  0
   26.2000   26.3910   42.2680 C   0  0  0  0  0  0  0  0  0  0  0  0
   26.8960   26.1010   43.5720 C   0  0  0  0  0  0  0  0  0  0  0  0
   31.3596   28.1327   47.9402 H   0  0  0  0  0  0  0  0  0  0  0  0
   33.2163   28.7784   49.3656 H   0  0  0  0  0  0  0  0  0  0  0  0
   34.3161   25.8244   46.9204 H   0  0  0  0  0  0  0  0  0  0  0  0
   32.7879   25.6828   47.8270 H   0  0  0  0  0  0  0  0  0  0  0  0
   33.4733   27.7156   45.6067 H   0  0  0  0  0  0  0  0  0  0  0  0
   32.0226   30.3187   47.4549 H   0  0  0  0  0  0  0  0  0  0  0  0
   37.6831   28.5315   51.2622 H   0  0  0  0  0  0  0  0  0  0  0  0
   38.5790   30.8503   51.4978 H   0  0  0  0  0  0  0  0  0  0  0  0
   37.7248   32.6332   49.9356 H   0  0  0  0  0  0  0  0  0  0  0  0
   30.6877   26.3449   48.2594 H   0  0  0  0  0  0  0  0  0  0  0  0
   28.2690   26.5226   48.6644 H   0  0  0  0  0  0  0  0  0  0  0  0
   26.6829   27.0033   46.8066 H   0  0  0  0  0  0  0  0  0  0  0  0
   27.8810   28.0314   43.5485 H   0  0  0  0  0  0  0  0  0  0  0  0
   25.8808   27.7998   45.7464 H   0  0  0  0  0  0  0  0  0  0  0  0
   26.2674   29.1737   44.6332 H   0  0  0  0  0  0  0  0  0  0  0  0
   24.4602   26.7858   44.1909 H   0  0  0  0  0  0  0  0  0  0  0  0
   24.1621   28.5544   43.9069 H   0  0  0  0  0  0  0  0  0  0  0  0
   24.3655   27.4052   41.7824 H   0  0  0  0  0  0  0  0  0  0  0  0
   25.7646   28.4898   42.0236 H   0  0  0  0  0  0  0  0  0  0  0  0
   25.6166   25.5073   41.9702 H   0  0  0  0  0  0  0  0  0  0  0  0
   26.9653   26.6280   41.5143 H   0  0  0  0  0  0  0  0  0  0  0  0
   26.2049   25.5624   44.2370 H   0  0  0  0  0  0  0  0  0  0  0  0
   27.7867   25.4892   43.3663 H   0  0  0  0  0  0  0  0  0  0  0  0
  1  2  1  0
  2  3  1  0
  4  3  1  0
  5  4  1  0
  5  1  1  0
  6  1  1  0
  7  2  1  0
  7 12  1  0
  8  9  2  0
 10  9  1  0
 11 10  2  0
 12 11  1  0
 12 13  2  0
 13  8  1  0
 14 17  1  0
 14  5  1  0
 15 16  1  0
 16 21  2  0
 16 17  1  0
 17 18  2  0
 18 19  1  0
 20 19  2  0
 21 20  1  0
 22 23  1  0
 22 21  1  0
 24 23  1  0
 25 24  1  0
 26 25  1  0
 26 27  1  0
 27 22  1  0
  1 28  1  1
  2 29  1  1
  4 30  1  0
  4 31  1  0
  5 32  1  6
  6 33  1  0
  8 34  1  0
  9 35  1  0
 10 36  1  0
 18 37  1  0
 19 38  1  0
 20 39  1  0
 22 40  1  0
 23 41  1  0
 23 42  1  0
 24 43  1  0
 24 44  1  0
 25 45  1  0
 25 46  1  0
 26 47  1  0
 26 48  1  0
 27 49  1  0
 27 50  1  0
M  ISO  8  28  13  29  13  30  13  31  13  32  13  33   3  34  14  35  14
M  ISO  8  36  14  37  14  38  14  39  14  40  13  41  13  42  13  43  13
M  ISO  7  44  13  45  13  46  13  47  13  48  13  49  13  50  13
M  END
>  <minimizedAffinity>  (1) 
-5.38649178

>  <minimizedRMSD>  (1) 
1.57695556

$$$$
