
     RDKit          3D

 36 38  0  0  1  0  0  0  0  0999 V2000
   40.0100   32.7860   43.8410 N   0  0  0  0  0  0  0  0  0  0  0  0
   39.0840   32.7090   44.9480 C   0  0  1  0  0  0  0  0  0  0  0  0
   37.7390   32.2080   44.4880 C   0  0  0  0  0  0  0  0  0  0  0  0
   37.9660   30.8900   43.8800 N   0  0  0  0  0  0  0  0  0  0  0  0
   38.6920   31.1750   42.6340 C   0  0  0  0  0  0  0  0  0  0  0  0
   40.0800   31.5930   43.0690 C   0  0  2  0  0  0  0  0  0  0  0  0
   40.7180   30.5040   43.7760 N   0  0  0  0  0  0  0  0  0  0  0  0
   39.6540   31.5320   46.2110 S   0  0  0  0  0  0  0  0  0  0  0  0
   37.7780   32.9720   49.4910 C   0  0  0  0  0  0  0  0  0  0  0  0
   38.5170   32.9350   48.3270 C   0  0  0  0  0  0  0  0  0  0  0  0
   38.7270   31.7320   47.7070 C   0  0  0  0  0  0  0  0  0  0  0  0
   38.1840   30.5970   48.2810 N   0  0  0  0  0  0  0  0  0  0  0  0
   37.4770   30.6980   49.4090 C   0  0  0  0  0  0  0  0  0  0  0  0
   37.2590   31.8530   50.0290 N   0  0  0  0  0  0  0  0  0  0  0  0
   36.9090   29.4830   49.9860 C   0  0  0  0  0  0  0  0  0  0  0  0
   37.4150   28.8470   50.9330 O   0  0  0  0  0  0  0  0  0  0  0  0
   35.6430   28.9080   49.4580 C   0  0  0  0  0  0  0  0  0  0  0  0
   34.3970   29.4860   50.1840 C   0  0  0  0  0  0  0  0  0  0  0  0
   34.6630   29.7030   48.7190 C   0  0  0  0  0  0  0  0  0  0  0  0
   39.7152   33.5559   43.2236 H   0  0  0  0  0  0  0  0  0  0  0  0
   39.0161   33.7262   45.3613 H   0  0  0  0  0  0  0  0  0  0  0  0
   37.0546   32.1178   45.3445 H   0  0  0  0  0  0  0  0  0  0  0  0
   37.2825   32.9031   43.7680 H   0  0  0  0  0  0  0  0  0  0  0  0
   38.5317   30.2953   44.5023 H   0  0  0  0  0  0  0  0  0  0  0  0
   38.2008   31.9877   42.0788 H   0  0  0  0  0  0  0  0  0  0  0  0
   38.7167   30.3027   41.9644 H   0  0  0  0  0  0  0  0  0  0  0  0
   40.7011   31.8181   42.1895 H   0  0  0  0  0  0  0  0  0  0  0  0
   40.6295   30.6550   44.7910 H   0  0  0  0  0  0  0  0  0  0  0  0
   40.2637   29.6157   43.5202 H   0  0  0  0  0  0  0  0  0  0  0  0
   37.6092   33.9374   49.9905 H   0  0  0  0  0  0  0  0  0  0  0  0
   38.9326   33.8605   47.9018 H   0  0  0  0  0  0  0  0  0  0  0  0
   36.1054   27.9382   49.2220 H   0  0  0  0  0  0  0  0  0  0  0  0
   33.5836   28.8215   50.5108 H   0  0  0  0  0  0  0  0  0  0  0  0
   34.2135   30.1240   51.0611 H   0  0  0  0  0  0  0  0  0  0  0  0
   34.9387   30.7062   48.3619 H   0  0  0  0  0  0  0  0  0  0  0  0
   34.0749   29.5258   47.8065 H   0  0  0  0  0  0  0  0  0  0  0  0
  1  2  1  0
  2  8  1  0
  3  2  1  0
  4  3  1  0
  5  6  1  0
  5  4  1  0
  6  7  1  0
  6  1  1  0
  8 11  1  0
  9 14  2  0
 10  9  1  0
 11 12  1  0
 11 10  2  0
 12 13  2  0
 13 15  1  0
 13 14  1  0
 15 16  2  0
 17 15  1  0
 17 18  1  0
 19 17  1  0
 19 18  1  0
  1 20  1  0
  2 21  1  1
  3 22  1  0
  3 23  1  0
  4 24  1  0
  5 25  1  0
  5 26  1  0
  6 27  1  6
  7 28  1  0
  7 29  1  0
  9 30  1  0
 10 31  1  0
 17 32  1  0
 18 33  1  0
 18 34  1  0
 19 35  1  0
 19 36  1  0
M  ISO  8  20   5  21  13  22  13  23  13  24   5  25  13  26  13  27  13
M  ISO  8  28   5  29   5  30  14  31  14  32  13  33  13  34  13  35  13
M  ISO  1  36  13
M  END
>  <minimizedAffinity>  (1) 
-5.86694193

>  <minimizedRMSD>  (1) 
2.17468762

$$$$
