
     RDKit          3D

 49 52  0  0  1  0  0  0  0  0999 V2000
   31.9680   28.4190   47.4380 C   0  0  2  0  0  0  0  0  0  0  0  0
   33.2230   28.2120   48.2350 C   0  0  1  0  0  0  0  0  0  0  0  0
   33.5760   26.9000   48.1340 O   0  0  0  0  0  0  0  0  0  0  0  0
   32.8350   26.3010   47.1210 C   0  0  0  0  0  0  0  0  0  0  0  0
   32.2460   27.4090   46.2840 C   0  0  1  0  0  0  0  0  0  0  0  0
   31.9250   29.7240   46.9080 O   0  0  0  0  0  0  0  0  0  0  0  0
   34.5470   29.2180   47.4540 S   0  0  0  0  0  0  0  0  0  0  0  0
   36.9670   29.2430   50.5950 C   0  0  0  0  0  0  0  0  0  0  0  0
   37.3940   30.5640   50.7160 C   0  0  0  0  0  0  0  0  0  0  0  0
   36.9150   31.4900   49.7860 C   0  0  0  0  0  0  0  0  0  0  0  0
   36.0560   31.0610   48.8100 N   0  0  0  0  0  0  0  0  0  0  0  0
   35.6710   29.7680   48.7350 C   0  0  0  0  0  0  0  0  0  0  0  0
   36.1190   28.8440   49.6240 N   0  0  0  0  0  0  0  0  0  0  0  0
   31.0770   26.9710   45.7150 O   0  0  0  0  0  0  0  0  0  0  0  0
   29.6810   29.0880   44.2200 Cl  0  0  0  0  0  0  0  0  0  0  0  0
   29.1020   28.1500   45.5770 C   0  0  0  0  0  0  0  0  0  0  0  0
   29.8490   27.1700   46.1920 C   0  0  0  0  0  0  0  0  0  0  0  0
   29.2680   26.4720   47.2520 C   0  0  0  0  0  0  0  0  0  0  0  0
   27.9850   26.7590   47.6650 C   0  0  0  0  0  0  0  0  0  0  0  0
   27.2280   27.7400   47.0540 C   0  0  0  0  0  0  0  0  0  0  0  0
   27.7930   28.4370   46.0020 C   0  0  0  0  0  0  0  0  0  0  0  0
   27.0300   29.4530   45.3590 N   0  0  0  0  0  0  0  0  0  0  0  0
   26.9290   30.7370   46.0650 C   0  0  0  0  0  0  0  0  0  0  0  0
   27.6010   31.8370   45.2690 C   0  0  0  0  0  0  0  0  0  0  0  0
   27.6520   31.4470   43.7970 C   0  0  0  0  0  0  0  0  0  0  0  0
   26.2830   30.8220   43.5160 C   0  0  0  0  0  0  0  0  0  0  0  0
   26.3210   29.4260   44.1010 C   0  0  0  0  0  0  0  0  0  0  0  0
   31.0297   28.2854   47.9964 H   0  0  0  0  0  0  0  0  0  0  0  0
   33.0762   28.4955   49.2876 H   0  0  0  0  0  0  0  0  0  0  0  0
   33.4866   25.6668   46.5020 H   0  0  0  0  0  0  0  0  0  0  0  0
   32.0417   25.6653   47.5412 H   0  0  0  0  0  0  0  0  0  0  0  0
   32.8520   27.7932   45.4502 H   0  0  0  0  0  0  0  0  0  0  0  0
   31.9034   30.3805   47.6487 H   0  0  0  0  0  0  0  0  0  0  0  0
   37.3344   28.4988   51.3169 H   0  0  0  0  0  0  0  0  0  0  0  0
   38.0847   30.8673   51.5166 H   0  0  0  0  0  0  0  0  0  0  0  0
   37.2225   32.5449   49.8370 H   0  0  0  0  0  0  0  0  0  0  0  0
   29.8406   25.6842   47.7633 H   0  0  0  0  0  0  0  0  0  0  0  0
   27.5524   26.1924   48.5028 H   0  0  0  0  0  0  0  0  0  0  0  0
   26.2055   27.9602   47.3946 H   0  0  0  0  0  0  0  0  0  0  0  0
   25.8677   30.9895   46.2062 H   0  0  0  0  0  0  0  0  0  0  0  0
   27.4313   30.6466   47.0394 H   0  0  0  0  0  0  0  0  0  0  0  0
   27.0298   32.7704   45.3805 H   0  0  0  0  0  0  0  0  0  0  0  0
   28.6250   31.9841   45.6429 H   0  0  0  0  0  0  0  0  0  0  0  0
   27.8112   32.3335   43.1656 H   0  0  0  0  0  0  0  0  0  0  0  0
   28.4793   30.7563   43.5766 H   0  0  0  0  0  0  0  0  0  0  0  0
   25.4892   31.4137   43.9954 H   0  0  0  0  0  0  0  0  0  0  0  0
   26.0709   30.7961   42.4370 H   0  0  0  0  0  0  0  0  0  0  0  0
   25.2937   29.0690   44.2661 H   0  0  0  0  0  0  0  0  0  0  0  0
   26.8355   28.7488   43.4034 H   0  0  0  0  0  0  0  0  0  0  0  0
  1  2  1  0
  3  2  1  0
  4  3  1  0
  5  4  1  0
  5  1  1  0
  6  1  1  0
  7  2  1  0
  7 12  1  0
  8  9  2  0
 10  9  1  0
 11 10  2  0
 12 11  1  0
 12 13  2  0
 13  8  1  0
 14 17  1  0
 14  5  1  0
 15 16  1  0
 16 21  2  0
 16 17  1  0
 17 18  2  0
 18 19  1  0
 20 19  2  0
 21 20  1  0
 22 21  1  0
 22 23  1  0
 24 23  1  0
 25 24  1  0
 26 25  1  0
 26 27  1  0
 27 22  1  0
  1 28  1  1
  2 29  1  1
  4 30  1  0
  4 31  1  0
  5 32  1  6
  6 33  1  0
  8 34  1  0
  9 35  1  0
 10 36  1  0
 18 37  1  0
 19 38  1  0
 20 39  1  0
 23 40  1  0
 23 41  1  0
 24 42  1  0
 24 43  1  0
 25 44  1  0
 25 45  1  0
 26 46  1  0
 26 47  1  0
 27 48  1  0
 27 49  1  0
M  ISO  8  28  13  29  13  30  13  31  13  32  13  33   3  34  14  35  14
M  ISO  8  36  14  37  14  38  14  39  14  40  13  41  13  42  13  43  13
M  ISO  6  44  13  45  13  46  13  47  13  48  13  49  13
M  END
>  <minimizedAffinity>  (1) 
-5.26882362

>  <minimizedRMSD>  (1) 
0.970284343

$$$$
