
     RDKit          3D

 37 39  0  0  1  0  0  0  0  0999 V2000
   34.5170   30.3550   48.9950 C   0  0  1  0  0  0  0  0  0  0  0  0
   33.9140   30.3710   47.6660 C   0  0  0  0  0  0  0  0  0  0  0  0
   33.8910   29.0700   46.9110 C   0  0  0  0  0  0  0  0  0  0  0  0
   33.6270   27.8670   47.7350 C   0  0  2  0  0  0  0  0  0  0  0  0
   34.2380   27.8300   49.0960 C   0  0  0  0  0  0  0  0  0  0  0  0
   34.1150   29.1460   49.7950 C   0  0  0  0  0  0  0  0  0  0  0  0
   36.7340   30.9170   47.9120 C   0  0  0  0  0  0  0  0  0  0  0  0
   35.9680   30.6470   49.0700 C   0  0  0  0  0  0  0  0  0  0  0  0
   36.6240   30.6740   50.2860 C   0  0  0  0  0  0  0  0  0  0  0  0
   37.9690   30.9560   50.3120 N   0  0  0  0  0  0  0  0  0  0  0  0
   38.6600   31.2070   49.1810 C   0  0  0  0  0  0  0  0  0  0  0  0
   38.0360   31.1880   47.9700 N   0  0  0  0  0  0  0  0  0  0  0  0
   34.0860   26.6170   47.0330 C   0  0  1  0  0  0  0  0  0  0  0  0
   33.1450   25.5080   47.4780 C   0  0  0  0  0  0  0  0  0  0  0  0
   33.2240   24.5830   46.2890 C   0  0  0  0  0  0  0  0  0  0  0  0
   33.8590   25.2480   45.2760 O   0  0  0  0  0  0  0  0  0  0  0  0
   33.8720   26.6070   45.5580 C   0  0  0  0  0  0  0  0  0  0  0  0
   34.0746   31.2371   49.4811 H   0  0  0  0  0  0  0  0  0  0  0  0
   32.8730   30.7082   47.7779 H   0  0  0  0  0  0  0  0  0  0  0  0
   34.5552   31.0364   47.0693 H   0  0  0  0  0  0  0  0  0  0  0  0
   33.1058   29.1358   46.1435 H   0  0  0  0  0  0  0  0  0  0  0  0
   34.9014   28.9400   46.4959 H   0  0  0  0  0  0  0  0  0  0  0  0
   32.5366   27.9200   47.8699 H   0  0  0  0  0  0  0  0  0  0  0  0
   33.7289   27.0600   49.6942 H   0  0  0  0  0  0  0  0  0  0  0  0
   35.3080   27.6003   48.9847 H   0  0  0  0  0  0  0  0  0  0  0  0
   34.7483   29.1107   50.6937 H   0  0  0  0  0  0  0  0  0  0  0  0
   33.0428   29.2718   50.0062 H   0  0  0  0  0  0  0  0  0  0  0  0
   36.2372   30.9026   46.9307 H   0  0  0  0  0  0  0  0  0  0  0  0
   36.0778   30.4728   51.2194 H   0  0  0  0  0  0  0  0  0  0  0  0
   39.7360   31.4288   49.2369 H   0  0  0  0  0  0  0  0  0  0  0  0
   35.1572   26.5221   47.2646 H   0  0  0  0  0  0  0  0  0  0  0  0
   33.5005   25.0188   48.3969 H   0  0  0  0  0  0  0  0  0  0  0  0
   32.1282   25.8443   47.7290 H   0  0  0  0  0  0  0  0  0  0  0  0
   33.7922   23.6798   46.5561 H   0  0  0  0  0  0  0  0  0  0  0  0
   32.2147   24.2806   45.9731 H   0  0  0  0  0  0  0  0  0  0  0  0
   32.9156   27.0797   45.2900 H   0  0  0  0  0  0  0  0  0  0  0  0
   34.6329   27.1686   44.9963 H   0  0  0  0  0  0  0  0  0  0  0  0
  1  8  1  0
  1  6  1  0
  2  1  1  0
  3  2  1  0
  3  4  1  0
  4  5  1  0
  5  6  1  0
  7 12  2  0
  7  8  1  0
  8  9  2  0
  9 10  1  0
 11 10  2  0
 12 11  1  0
 13 17  1  0
 13 14  1  0
 13  4  1  0
 15 14  1  0
 16 17  1  0
 16 15  1  0
  1 18  1  1
  2 19  1  0
  2 20  1  0
  3 21  1  0
  3 22  1  0
  4 23  1  1
  5 24  1  0
  5 25  1  0
  6 26  1  0
  6 27  1  0
  7 28  1  0
  9 29  1  0
 11 30  1  0
 13 31  1  6
 14 32  1  0
 14 33  1  0
 15 34  1  0
 15 35  1  0
 17 36  1  0
 17 37  1  0
M  ISO  8  18  13  19  13  20  13  21  13  22  13  23  13  24  13  25  13
M  ISO  8  26  13  27  13  28  14  29  14  30  14  31  13  32  13  33  13
M  ISO  4  34  13  35  13  36  13  37  13
M  END
>  <minimizedAffinity>  (1) 
-4.36924648

>  <minimizedRMSD>  (1) 
1.02296245

$$$$
