
     RDKit          3D

 28 29  0  0  1  0  0  0  0  0999 V2000
   34.4720   30.4030   49.0720 C   0  0  1  0  0  0  0  0  0  0  0  0
   34.1990   30.3810   47.6370 C   0  0  0  0  0  0  0  0  0  0  0  0
   34.2240   29.0430   46.9510 C   0  0  0  0  0  0  0  0  0  0  0  0
   33.7020   27.9040   47.7430 C   0  0  2  0  0  0  0  0  0  0  0  0
   33.9700   27.9090   49.2060 C   0  0  0  0  0  0  0  0  0  0  0  0
   33.8150   29.2700   49.8090 C   0  0  0  0  0  0  0  0  0  0  0  0
   36.8400   31.2160   48.6120 C   0  0  0  0  0  0  0  0  0  0  0  0
   35.8910   30.5980   49.4610 C   0  0  0  0  0  0  0  0  0  0  0  0
   36.3440   30.1750   50.7020 C   0  0  0  0  0  0  0  0  0  0  0  0
   37.6420   30.3640   51.0450 N   0  0  0  0  0  0  0  0  0  0  0  0
   38.5180   30.9640   50.1980 C   0  0  0  0  0  0  0  0  0  0  0  0
   38.1050   31.3890   48.9780 N   0  0  0  0  0  0  0  0  0  0  0  0
   34.2370   26.6690   47.1860 N   0  0  0  0  0  0  0  0  0  0  0  0
   33.9881   31.3323   49.4069 H   0  0  0  0  0  0  0  0  0  0  0  0
   33.1986   30.8121   47.4843 H   0  0  0  0  0  0  0  0  0  0  0  0
   35.0262   30.9467   47.1833 H   0  0  0  0  0  0  0  0  0  0  0  0
   33.6207   29.1219   46.0346 H   0  0  0  0  0  0  0  0  0  0  0  0
   35.2856   28.8196   46.7688 H   0  0  0  0  0  0  0  0  0  0  0  0
   32.6089   27.9964   47.6617 H   0  0  0  0  0  0  0  0  0  0  0  0
   33.2644   27.2225   49.6969 H   0  0  0  0  0  0  0  0  0  0  0  0
   35.0122   27.5914   49.3575 H   0  0  0  0  0  0  0  0  0  0  0  0
   34.2407   29.2380   50.8228 H   0  0  0  0  0  0  0  0  0  0  0  0
   32.7366   29.4846   49.7761 H   0  0  0  0  0  0  0  0  0  0  0  0
   36.5201   31.5637   47.6186 H   0  0  0  0  0  0  0  0  0  0  0  0
   35.6525   29.6879   51.4053 H   0  0  0  0  0  0  0  0  0  0  0  0
   39.5655   31.1057   50.5024 H   0  0  0  0  0  0  0  0  0  0  0  0
   34.5107   26.0372   47.9520 H   0  0  0  0  0  0  0  0  0  0  0  0
   33.5176   26.2140   46.6061 H   0  0  0  0  0  0  0  0  0  0  0  0
  1  8  1  0
  1  6  1  0
  2  1  1  0
  3  2  1  0
  3  4  1  0
  4  5  1  0
  5  6  1  0
  7 12  2  0
  7  8  1  0
  8  9  2  0
  9 10  1  0
 11 10  2  0
 12 11  1  0
 13  4  1  0
  1 14  1  1
  2 15  1  0
  2 16  1  0
  3 17  1  0
  3 18  1  0
  4 19  1  1
  5 20  1  0
  5 21  1  0
  6 22  1  0
  6 23  1  0
  7 24  1  0
  9 25  1  0
 11 26  1  0
 13 27  1  0
 13 28  1  0
M  ISO  8  14  13  15  13  16  13  17  13  18  13  19  13  20  13  21  13
M  ISO  7  22  13  23  13  24  14  25  14  26  14  27   5  28   5
M  END
>  <minimizedAffinity>  (1) 
-3.99669242

>  <minimizedRMSD>  (1) 
0.345948726

$$$$
