
     RDKit          3D

 18 18  0  0  0  0  0  0  0  0999 V2000
   38.5870   32.4230   49.4480 C   0  0  0  0  0  0  0  0  0  0  0  0
   38.7370   32.3830   48.0610 C   0  0  0  0  0  0  0  0  0  0  0  0
   38.2530   31.2340   47.4090 C   0  0  0  0  0  0  0  0  0  0  0  0
   37.6790   30.2490   48.1430 N   0  0  0  0  0  0  0  0  0  0  0  0
   37.5560   30.3340   49.4900 C   0  0  0  0  0  0  0  0  0  0  0  0
   38.0080   31.4250   50.1730 N   0  0  0  0  0  0  0  0  0  0  0  0
   39.3550   33.4730   47.3770 N   0  0  0  0  0  0  0  0  0  0  0  0
   36.9120   29.1980   50.1970 C   0  0  0  0  0  0  0  0  0  0  0  0
   35.5740   28.8120   49.6440 C   0  0  0  0  0  0  0  0  0  0  0  0
   38.9565   33.3088   49.9854 H   0  0  0  0  0  0  0  0  0  0  0  0
   38.3392   31.1360   46.3168 H   0  0  0  0  0  0  0  0  0  0  0  0
   39.4653   33.4426   46.3534 H   0  0  0  0  0  0  0  0  0  0  0  0
   39.6906   34.2898   47.9071 H   0  0  0  0  0  0  0  0  0  0  0  0
   37.5788   28.3258   50.1283 H   0  0  0  0  0  0  0  0  0  0  0  0
   36.7442   29.5242   51.2340 H   0  0  0  0  0  0  0  0  0  0  0  0
   34.8788   28.6114   50.4725 H   0  0  0  0  0  0  0  0  0  0  0  0
   35.1815   29.6335   49.0267 H   0  0  0  0  0  0  0  0  0  0  0  0
   35.6794   27.9076   49.0267 H   0  0  0  0  0  0  0  0  0  0  0  0
  1  6  2  0
  2  1  1  0
  3  2  2  0
  3  4  1  0
  4  5  2  0
  5  6  1  0
  5  8  1  0
  7  2  1  0
  9  8  1  0
  1 10  1  0
  3 11  1  0
  7 12  1  0
  7 13  1  0
  8 14  1  0
  8 15  1  0
  9 16  1  0
  9 17  1  0
  9 18  1  0
M  ISO  7  10  14  11  14  14   8  15   8  16   8  17   8  18   8
M  END
>  <minimizedAffinity>  (1) 
-3.85823989

>  <minimizedRMSD>  (1) 
3.27021718

$$$$
