
     RDKit          3D

 14 14  0  0  0  0  0  0  0  0999 V2000
   36.5150   29.7180   51.1420 C   0  0  0  0  0  0  0  0  0  0  0  0
   37.4090   30.1600   50.1440 C   0  0  0  0  0  0  0  0  0  0  0  0
   36.9820   29.9830   48.8100 C   0  0  0  0  0  0  0  0  0  0  0  0
   35.7650   29.4120   48.5690 N   0  0  0  0  0  0  0  0  0  0  0  0
   34.9680   29.0160   49.5660 C   0  0  0  0  0  0  0  0  0  0  0  0
   35.3100   29.1530   50.8630 N   0  0  0  0  0  0  0  0  0  0  0  0
   38.6480   30.7390   50.5020 N   0  0  0  0  0  0  0  0  0  0  0  0
   33.6830   28.4140   49.2620 C   0  0  0  0  0  0  0  0  0  0  0  0
   33.4930   27.4770   48.4730 O   0  0  0  0  0  0  0  0  0  0  0  0
   36.8067   29.8361   52.1960 H   0  0  0  0  0  0  0  0  0  0  0  0
   37.6223   30.3014   47.9742 H   0  0  0  0  0  0  0  0  0  0  0  0
   39.2972   31.0601   49.7696 H   0  0  0  0  0  0  0  0  0  0  0  0
   38.9016   30.8397   51.4952 H   0  0  0  0  0  0  0  0  0  0  0  0
   32.8015   28.8246   49.7761 H   0  0  0  0  0  0  0  0  0  0  0  0
  2  7  1  0
  2  1  2  0
  3  2  1  0
  4  3  2  0
  4  5  1  0
  5  6  2  0
  6  1  1  0
  8  5  1  0
  9  8  2  0
  1 10  1  0
  3 11  1  0
  7 12  1  0
  7 13  1  0
  8 14  1  0
M  ISO  3  10  14  11  14  14   6
M  END
>  <minimizedAffinity>  (1) 
-3.43541932

>  <minimizedRMSD>  (1) 
0.395148754

$$$$
