
     RDKit          3D

 23 24  0  0  0  0  0  0  0  0999 V2000
   38.5570   31.5600   47.6230 C   0  0  0  0  0  0  0  0  0  0  0  0
   38.5960   32.8190   48.1480 C   0  0  0  0  0  0  0  0  0  0  0  0
   38.0630   33.2290   49.3480 C   0  0  0  0  0  0  0  0  0  0  0  0
   37.4430   32.2690   50.0610 N   0  0  0  0  0  0  0  0  0  0  0  0
   37.3790   30.9930   49.5790 C   0  0  0  0  0  0  0  0  0  0  0  0
   37.9200   30.6310   48.3840 N   0  0  0  0  0  0  0  0  0  0  0  0
   39.1030   29.9380   44.4160 C   0  0  0  0  0  0  0  0  0  0  0  0
   40.2290   30.5430   43.8810 C   0  0  0  0  0  0  0  0  0  0  0  0
   40.8020   31.5500   44.6820 C   0  0  0  0  0  0  0  0  0  0  0  0
   40.2660   31.8780   45.8850 N   0  0  0  0  0  0  0  0  0  0  0  0
   39.1610   31.2320   46.3280 C   0  0  0  0  0  0  0  0  0  0  0  0
   38.5570   30.2550   45.6130 N   0  0  0  0  0  0  0  0  0  0  0  0
   40.7540   30.1690   42.6260 N   0  0  0  0  0  0  0  0  0  0  0  0
   36.6780   29.9730   50.4170 C   0  0  0  0  0  0  0  0  0  0  0  0
   35.3090   30.1680   50.2910 F   0  0  0  0  0  0  0  0  0  0  0  0
   36.9690   28.6940   49.9890 F   0  0  0  0  0  0  0  0  0  0  0  0
   37.0050   30.1510   51.7470 F   0  0  0  0  0  0  0  0  0  0  0  0
   39.1074   33.5866   47.5486 H   0  0  0  0  0  0  0  0  0  0  0  0
   38.1379   34.2682   49.7007 H   0  0  0  0  0  0  0  0  0  0  0  0
   38.6193   29.1450   43.8268 H   0  0  0  0  0  0  0  0  0  0  0  0
   41.6985   32.0792   44.3268 H   0  0  0  0  0  0  0  0  0  0  0  0
   41.5930   30.6396   42.2578 H   0  0  0  0  0  0  0  0  0  0  0  0
   40.2983   29.4254   42.0780 H   0  0  0  0  0  0  0  0  0  0  0  0
  1  2  2  0
  1  6  1  0
  2  3  1  0
  3  4  2  0
  5  4  1  0
  5 14  1  0
  6  5  2  0
  7 12  2  0
  8  7  1  0
  8  9  2  0
  9 10  1  0
 10 11  2  0
 11  1  1  0
 12 11  1  0
 13  8  1  0
 14 17  1  0
 15 14  1  0
 16 14  1  0
  2 18  1  0
  3 19  1  0
  7 20  1  0
  9 21  1  0
 13 22  1  0
 13 23  1  0
M  ISO  4  18  14  19  14  20  14  21  14
M  END
>  <minimizedAffinity>  (1) 
-5.7595253

>  <minimizedRMSD>  (1) 
6.23616219

$$$$
