
     RDKit          3D

 27 29  0  0  0  0  0  0  0  0999 V2000
   38.3640   31.6360   47.3730 C   0  0  0  0  0  0  0  0  0  0  0  0
   38.7610   32.6880   48.1860 C   0  0  0  0  0  0  0  0  0  0  0  0
   38.1800   33.0490   49.3770 C   0  0  0  0  0  0  0  0  0  0  0  0
   37.1240   32.2940   49.7740 N   0  0  0  0  0  0  0  0  0  0  0  0
   36.7120   31.2540   48.9970 C   0  0  0  0  0  0  0  0  0  0  0  0
   37.3170   30.9390   47.8350 N   0  0  0  0  0  0  0  0  0  0  0  0
   39.2370   29.9570   44.2850 C   0  0  0  0  0  0  0  0  0  0  0  0
   40.2970   30.7050   43.7450 C   0  0  0  0  0  0  0  0  0  0  0  0
   40.6970   31.8180   44.4960 C   0  0  0  0  0  0  0  0  0  0  0  0
   40.0630   32.0900   45.6520 N   0  0  0  0  0  0  0  0  0  0  0  0
   39.0600   31.3460   46.1220 C   0  0  0  0  0  0  0  0  0  0  0  0
   38.5970   30.2390   45.4590 N   0  0  0  0  0  0  0  0  0  0  0  0
   40.8850   30.3170   42.5160 N   0  0  0  0  0  0  0  0  0  0  0  0
   35.5920   30.3740   49.3210 C   0  0  0  0  0  0  0  0  0  0  0  0
   34.6220   30.2150   48.3510 C   0  0  0  0  0  0  0  0  0  0  0  0
   33.6560   29.3720   48.8060 N   0  0  0  0  0  0  0  0  0  0  0  0
   34.0340   29.0130   50.0610 C   0  0  0  0  0  0  0  0  0  0  0  0
   35.2140   29.6220   50.3760 N   0  0  0  0  0  0  0  0  0  0  0  0
   39.6186   33.2870   47.8459 H   0  0  0  0  0  0  0  0  0  0  0  0
   38.5477   33.8976   49.9725 H   0  0  0  0  0  0  0  0  0  0  0  0
   38.8964   29.0772   43.7194 H   0  0  0  0  0  0  0  0  0  0  0  0
   41.5180   32.4609   44.1458 H   0  0  0  0  0  0  0  0  0  0  0  0
   41.6619   30.8658   42.1208 H   0  0  0  0  0  0  0  0  0  0  0  0
   40.5356   29.4861   42.0176 H   0  0  0  0  0  0  0  0  0  0  0  0
   34.6293   30.6963   47.3619 H   0  0  0  0  0  0  0  0  0  0  0  0
   32.8107   29.0679   48.3021 H   0  0  0  0  0  0  0  0  0  0  0  0
   33.4743   28.3350   50.7221 H   0  0  0  0  0  0  0  0  0  0  0  0
  1  6  1  0
  1  2  2  0
  2  3  1  0
  3  4  2  0
  5 14  1  0
  5  4  1  0
  6  5  2  0
  7 12  2  0
  8  7  1  0
  8  9  2  0
  9 10  1  0
 10 11  2  0
 11  1  1  0
 12 11  1  0
 13  8  1  0
 14 18  1  0
 15 16  1  0
 15 14  2  0
 16 17  1  0
 17 18  2  0
  2 19  1  0
  3 20  1  0
  7 21  1  0
  9 22  1  0
 13 23  1  0
 13 24  1  0
 15 25  1  0
 16 26  1  0
 17 27  1  0
M  ISO  7  19  14  20  14  21  14  22  14  25  14  26   9  27  14
M  END
>  <minimizedAffinity>  (1) 
-5.62386417

>  <minimizedRMSD>  (1) 
6.32052565

$$$$
