
     RDKit          3D

 30 32  0  0  0  0  0  0  0  0999 V2000
   38.6280   32.1790   46.2900 C   0  0  0  0  0  0  0  0  0  0  0  0
   39.7670   32.8840   45.9380 C   0  0  0  0  0  0  0  0  0  0  0  0
   40.0770   33.3670   44.6860 C   0  0  0  0  0  0  0  0  0  0  0  0
   39.1500   33.1060   43.7230 N   0  0  0  0  0  0  0  0  0  0  0  0
   38.0140   32.4100   44.0390 C   0  0  0  0  0  0  0  0  0  0  0  0
   37.7670   31.9640   45.2860 N   0  0  0  0  0  0  0  0  0  0  0  0
   38.2990   29.7710   42.5990 Cl  0  0  0  0  0  0  0  0  0  0  0  0
   37.0550   30.9630   42.2740 C   0  0  0  0  0  0  0  0  0  0  0  0
   37.0270   32.1360   43.0000 C   0  0  0  0  0  0  0  0  0  0  0  0
   36.0280   33.0280   42.6970 C   0  0  0  0  0  0  0  0  0  0  0  0
   35.0980   32.7700   41.7180 C   0  0  0  0  0  0  0  0  0  0  0  0
   35.1250   31.6050   40.9960 C   0  0  0  0  0  0  0  0  0  0  0  0
   36.1170   30.6940   41.2800 C   0  0  0  0  0  0  0  0  0  0  0  0
   37.6410   30.0200   49.0320 C   0  0  0  0  0  0  0  0  0  0  0  0
   37.9780   30.7350   50.1960 C   0  0  0  0  0  0  0  0  0  0  0  0
   38.5670   32.0090   49.9920 C   0  0  0  0  0  0  0  0  0  0  0  0
   38.7600   32.4390   48.7300 N   0  0  0  0  0  0  0  0  0  0  0  0
   38.4230   31.7220   47.6560 C   0  0  0  0  0  0  0  0  0  0  0  0
   37.8500   30.4850   47.7810 N   0  0  0  0  0  0  0  0  0  0  0  0
   37.7360   30.1980   51.4810 N   0  0  0  0  0  0  0  0  0  0  0  0
   40.4967   33.0774   46.7381 H   0  0  0  0  0  0  0  0  0  0  0  0
   41.0039   33.9220   44.4793 H   0  0  0  0  0  0  0  0  0  0  0  0
   35.9702   33.9753   43.2531 H   0  0  0  0  0  0  0  0  0  0  0  0
   34.3154   33.5144   41.5095 H   0  0  0  0  0  0  0  0  0  0  0  0
   34.3775   31.4045   40.2143 H   0  0  0  0  0  0  0  0  0  0  0  0
   36.1693   29.7491   40.7193 H   0  0  0  0  0  0  0  0  0  0  0  0
   37.1818   29.0271   49.1471 H   0  0  0  0  0  0  0  0  0  0  0  0
   38.8607   32.6342   50.8481 H   0  0  0  0  0  0  0  0  0  0  0  0
   37.9901   30.7375   52.3208 H   0  0  0  0  0  0  0  0  0  0  0  0
   37.3056   29.2672   51.5775 H   0  0  0  0  0  0  0  0  0  0  0  0
  1 18  1  0
  2  1  2  0
  3  2  1  0
  4  5  1  0
  4  3  2  0
  5  6  2  0
  6  1  1  0
  8  7  1  0
  8  9  2  0
  9  5  1  0
 10  9  1  0
 11 10  2  0
 12 13  2  0
 12 11  1  0
 13  8  1  0
 14 15  2  0
 15 20  1  0
 16 15  1  0
 17 16  2  0
 18 19  2  0
 18 17  1  0
 19 14  1  0
  2 21  1  0
  3 22  1  0
 10 23  1  0
 11 24  1  0
 12 25  1  0
 13 26  1  0
 14 27  1  0
 16 28  1  0
 20 29  1  0
 20 30  1  0
M  ISO  8  21  14  22  14  23  14  24  14  25  14  26  14  27  14  28  14
M  END
>  <minimizedAffinity>  (1) 
-5.42360067

>  <minimizedRMSD>  (1) 
2.58336139

$$$$
