
     RDKit          3D

 34 37  0  0  0  0  0  0  0  0999 V2000
   38.4840   31.2800   46.1900 C   0  0  0  0  0  0  0  0  0  0  0  0
   39.8680   31.1960   46.1670 C   0  0  0  0  0  0  0  0  0  0  0  0
   40.6990   31.6050   45.1510 C   0  0  0  0  0  0  0  0  0  0  0  0
   40.0610   32.1440   44.0700 N   0  0  0  0  0  0  0  0  0  0  0  0
   38.7090   32.2430   44.0570 C   0  0  0  0  0  0  0  0  0  0  0  0
   37.9350   31.8230   45.0870 N   0  0  0  0  0  0  0  0  0  0  0  0
   38.8940   33.3780   41.8750 C   0  0  0  0  0  0  0  0  0  0  0  0
   38.0900   32.8300   42.8700 C   0  0  0  0  0  0  0  0  0  0  0  0
   36.7180   32.8260   42.7650 C   0  0  0  0  0  0  0  0  0  0  0  0
   36.0870   33.3770   41.6470 C   0  0  0  0  0  0  0  0  0  0  0  0
   34.7610   33.4600   41.3780 N   0  0  0  0  0  0  0  0  0  0  0  0
   34.6810   34.0780   40.1750 C   0  0  0  0  0  0  0  0  0  0  0  0
   35.9550   34.3610   39.7320 C   0  0  0  0  0  0  0  0  0  0  0  0
   36.8760   33.9230   40.6570 C   0  0  0  0  0  0  0  0  0  0  0  0
   38.2450   33.9190   40.7780 C   0  0  0  0  0  0  0  0  0  0  0  0
   35.6720   30.0800   48.1370 C   0  0  0  0  0  0  0  0  0  0  0  0
   36.1790   29.8820   49.4290 C   0  0  0  0  0  0  0  0  0  0  0  0
   37.5450   30.1840   49.6020 C   0  0  0  0  0  0  0  0  0  0  0  0
   38.2820   30.6340   48.5560 N   0  0  0  0  0  0  0  0  0  0  0  0
   37.7400   30.8000   47.3480 C   0  0  0  0  0  0  0  0  0  0  0  0
   36.4200   30.5290   47.1020 N   0  0  0  0  0  0  0  0  0  0  0  0
   35.3870   29.4130   50.4950 N   0  0  0  0  0  0  0  0  0  0  0  0
   40.3505   30.7570   47.0527 H   0  0  0  0  0  0  0  0  0  0  0  0
   41.7932   31.5059   45.2044 H   0  0  0  0  0  0  0  0  0  0  0  0
   39.9910   33.3812   41.9560 H   0  0  0  0  0  0  0  0  0  0  0  0
   36.1118   32.3844   43.5697 H   0  0  0  0  0  0  0  0  0  0  0  0
   33.9818   33.1252   41.9625 H   0  0  0  0  0  0  0  0  0  0  0  0
   33.7503   34.3154   39.6389 H   0  0  0  0  0  0  0  0  0  0  0  0
   36.1991   34.8611   38.7831 H   0  0  0  0  0  0  0  0  0  0  0  0
   38.8484   34.3627   39.9723 H   0  0  0  0  0  0  0  0  0  0  0  0
   34.6100   29.8587   47.9547 H   0  0  0  0  0  0  0  0  0  0  0  0
   38.0146   30.0543   50.5882 H   0  0  0  0  0  0  0  0  0  0  0  0
   35.8038   29.2829   51.4279 H   0  0  0  0  0  0  0  0  0  0  0  0
   34.3910   29.2001   50.3417 H   0  0  0  0  0  0  0  0  0  0  0  0
  1 20  1  0
  2  1  2  0
  3  2  1  0
  4  3  2  0
  5  4  1  0
  5  6  2  0
  6  1  1  0
  7  8  2  0
  8  5  1  0
  9  8  1  0
 10  9  2  0
 11 10  1  0
 12 11  1  0
 13 12  2  0
 13 14  1  0
 14 15  2  0
 14 10  1  0
 15  7  1  0
 16 17  2  0
 17 18  1  0
 17 22  1  0
 19 18  2  0
 20 19  1  0
 21 20  2  0
 21 16  1  0
  2 23  1  0
  3 24  1  0
  7 25  1  0
  9 26  1  0
 11 27  1  0
 12 28  1  0
 13 29  1  0
 15 30  1  0
 16 31  1  0
 18 32  1  0
 22 33  1  0
 22 34  1  0
M  ISO  8  23  14  24  14  25  14  26  14  27   9  28  14  29  14  30  14
M  ISO  2  31  14  32  14
M  END
>  <minimizedAffinity>  (1) 
-5.35753393

>  <minimizedRMSD>  (1) 
1.06010985

$$$$
