
     RDKit          3D

 22 23  0  0  0  0  0  0  0  0999 V2000
   36.9950   29.7950   49.0420 C   0  0  0  0  0  0  0  0  0  0  0  0
   37.4380   30.2530   50.2920 C   0  0  0  0  0  0  0  0  0  0  0  0
   38.3130   31.3670   50.2590 C   0  0  0  0  0  0  0  0  0  0  0  0
   38.6610   31.9070   49.0710 N   0  0  0  0  0  0  0  0  0  0  0  0
   38.2010   31.4190   47.9120 C   0  0  0  0  0  0  0  0  0  0  0  0
   37.3510   30.3460   47.8480 N   0  0  0  0  0  0  0  0  0  0  0  0
   38.5680   31.9940   46.6110 C   0  0  0  0  0  0  0  0  0  0  0  0
   39.8310   32.4690   46.3780 C   0  0  0  0  0  0  0  0  0  0  0  0
   40.2990   33.0270   45.2100 C   0  0  0  0  0  0  0  0  0  0  0  0
   39.3790   33.0990   44.2010 N   0  0  0  0  0  0  0  0  0  0  0  0
   38.1110   32.6350   44.3990 C   0  0  0  0  0  0  0  0  0  0  0  0
   37.7120   32.0970   45.5690 N   0  0  0  0  0  0  0  0  0  0  0  0
   37.1220   32.6890   43.3760 N   0  0  0  0  0  0  0  0  0  0  0  0
   37.0140   29.6150   51.4790 N   0  0  0  0  0  0  0  0  0  0  0  0
   36.3134   28.9318   49.0249 H   0  0  0  0  0  0  0  0  0  0  0  0
   38.7065   31.7895   51.1953 H   0  0  0  0  0  0  0  0  0  0  0  0
   40.5459   32.3972   47.2109 H   0  0  0  0  0  0  0  0  0  0  0  0
   41.3323   33.3869   45.0971 H   0  0  0  0  0  0  0  0  0  0  0  0
   36.1736   32.3303   43.5571 H   0  0  0  0  0  0  0  0  0  0  0  0
   37.3550   33.0868   42.4549 H   0  0  0  0  0  0  0  0  0  0  0  0
   37.3433   29.9567   52.3932 H   0  0  0  0  0  0  0  0  0  0  0  0
   36.3756   28.8082   51.4302 H   0  0  0  0  0  0  0  0  0  0  0  0
  1  2  2  0
  2 14  1  0
  3  2  1  0
  4  3  2  0
  5  4  1  0
  6  5  2  0
  6  1  1  0
  7  5  1  0
  8  7  2  0
  9  8  1  0
 10 11  1  0
 10  9  2  0
 11 12  2  0
 12  7  1  0
 13 11  1  0
  1 15  1  0
  3 16  1  0
  8 17  1  0
  9 18  1  0
 13 19  1  0
 13 20  1  0
 14 21  1  0
 14 22  1  0
M  ISO  4  15  14  16  14  17  14  18  14
M  END
>  <minimizedAffinity>  (1) 
-4.95907021

>  <minimizedRMSD>  (1) 
1.29910481

$$$$
