
     RDKit          3D

 42 45  0  0  0  0  0  0  0  0999 V2000
   37.8560   30.8930   47.2600 C   0  0  0  0  0  0  0  0  0  0  0  0
   38.2410   31.5650   48.4040 C   0  0  0  0  0  0  0  0  0  0  0  0
   37.5080   31.6750   49.5540 C   0  0  0  0  0  0  0  0  0  0  0  0
   36.2990   31.0570   49.5420 N   0  0  0  0  0  0  0  0  0  0  0  0
   35.8890   30.3910   48.4420 C   0  0  0  0  0  0  0  0  0  0  0  0
   36.6500   30.3120   47.3330 N   0  0  0  0  0  0  0  0  0  0  0  0
   34.6200   29.6920   48.3100 C   0  0  0  0  0  0  0  0  0  0  0  0
   33.7990   30.0860   47.2610 C   0  0  0  0  0  0  0  0  0  0  0  0
   32.6680   29.3140   47.2930 N   0  0  0  0  0  0  0  0  0  0  0  0
   32.8030   28.4610   48.3550 C   0  0  0  0  0  0  0  0  0  0  0  0
   33.9860   28.6850   48.9780 N   0  0  0  0  0  0  0  0  0  0  0  0
   31.7690   27.5370   48.6110 N   0  0  0  0  0  0  0  0  0  0  0  0
   31.8580   26.1690   48.0720 C   0  0  0  0  0  0  0  0  0  0  0  0
   30.9410   26.1420   46.8640 C   0  0  0  0  0  0  0  0  0  0  0  0
   29.7420   27.0470   47.0800 C   0  0  0  0  0  0  0  0  0  0  0  0
   29.4110   27.0560   48.5640 C   0  0  0  0  0  0  0  0  0  0  0  0
   30.5510   27.6990   49.3620 C   0  0  0  0  0  0  0  0  0  0  0  0
   39.0110   30.1020   43.9210 C   0  0  0  0  0  0  0  0  0  0  0  0
   40.2950   30.6380   43.8240 C   0  0  0  0  0  0  0  0  0  0  0  0
   40.7480   31.2930   44.9640 C   0  0  0  0  0  0  0  0  0  0  0  0
   39.9560   31.3680   46.0480 N   0  0  0  0  0  0  0  0  0  0  0  0
   38.7260   30.8320   46.0860 C   0  0  0  0  0  0  0  0  0  0  0  0
   38.1920   30.1630   45.0010 N   0  0  0  0  0  0  0  0  0  0  0  0
   41.0480   30.5010   42.6350 N   0  0  0  0  0  0  0  0  0  0  0  0
   39.2254   32.0557   48.3889 H   0  0  0  0  0  0  0  0  0  0  0  0
   37.8743   32.2282   50.4314 H   0  0  0  0  0  0  0  0  0  0  0  0
   34.0188   30.8796   46.5317 H   0  0  0  0  0  0  0  0  0  0  0  0
   31.8702   29.3654   46.6435 H   0  0  0  0  0  0  0  0  0  0  0  0
   32.8919   25.9411   47.7736 H   0  0  0  0  0  0  0  0  0  0  0  0
   31.5647   25.4183   48.8206 H   0  0  0  0  0  0  0  0  0  0  0  0
   30.5911   25.1122   46.6993 H   0  0  0  0  0  0  0  0  0  0  0  0
   31.5007   26.4999   45.9872 H   0  0  0  0  0  0  0  0  0  0  0  0
   29.9814   28.0674   46.7462 H   0  0  0  0  0  0  0  0  0  0  0  0
   28.8811   26.6795   46.5022 H   0  0  0  0  0  0  0  0  0  0  0  0
   28.4867   27.6300   48.7257 H   0  0  0  0  0  0  0  0  0  0  0  0
   29.2768   26.0191   48.9059 H   0  0  0  0  0  0  0  0  0  0  0  0
   30.6471   27.2042   50.3397 H   0  0  0  0  0  0  0  0  0  0  0  0
   30.3449   28.7666   49.5286 H   0  0  0  0  0  0  0  0  0  0  0  0
   38.6242   29.5781   43.0345 H   0  0  0  0  0  0  0  0  0  0  0  0
   41.7495   31.7476   44.9789 H   0  0  0  0  0  0  0  0  0  0  0  0
   41.9951   30.9015   42.5762 H   0  0  0  0  0  0  0  0  0  0  0  0
   40.6494   30.0007   41.8277 H   0  0  0  0  0  0  0  0  0  0  0  0
  1  6  1  0
  1  2  2  0
  2  3  1  0
  4  3  2  0
  5  4  1  0
  6  5  2  0
  7  5  1  0
  7 11  1  0
  8  9  1  0
  8  7  2  0
  9 10  1  0
 10 12  1  0
 10 11  2  0
 12 17  1  0
 13 12  1  0
 14 15  1  0
 14 13  1  0
 15 16  1  0
 16 17  1  0
 18 23  2  0
 19 18  1  0
 19 20  2  0
 20 21  1  0
 21 22  2  0
 22  1  1  0
 23 22  1  0
 24 19  1  0
  2 25  1  0
  3 26  1  0
  8 27  1  0
  9 28  1  0
 13 29  1  0
 13 30  1  0
 14 31  1  0
 14 32  1  0
 15 33  1  0
 15 34  1  0
 16 35  1  0
 16 36  1  0
 17 37  1  0
 17 38  1  0
 18 39  1  0
 20 40  1  0
 24 41  1  0
 24 42  1  0
M  ISO  8  25  14  26  14  27  14  28   9  29  13  30  13  31  13  32  13
M  ISO  8  33  13  34  13  35  13  36  13  37  13  38  13  39  14  40  14
M  END
>  <minimizedAffinity>  (1) 
-6.1375351

>  <minimizedRMSD>  (1) 
1.87381279

$$$$
