
     RDKit          3D

 33 35  0  0  0  0  0  0  0  0999 V2000
   39.7830   30.7290   44.6760 C   0  0  0  0  0  0  0  0  0  0  0  0
   40.3840   31.9660   44.7590 C   0  0  0  0  0  0  0  0  0  0  0  0
   40.2130   32.8710   45.7750 C   0  0  0  0  0  0  0  0  0  0  0  0
   39.3720   32.5000   46.7780 N   0  0  0  0  0  0  0  0  0  0  0  0
   38.7640   31.2730   46.7160 C   0  0  0  0  0  0  0  0  0  0  0  0
   38.9700   30.4280   45.6950 N   0  0  0  0  0  0  0  0  0  0  0  0
   39.4230   27.9310   42.4000 C   0  0  0  0  0  0  0  0  0  0  0  0
   40.4260   28.0930   41.4400 C   0  0  0  0  0  0  0  0  0  0  0  0
   41.2340   29.2130   41.6120 C   0  0  0  0  0  0  0  0  0  0  0  0
   41.0150   30.0450   42.6540 N   0  0  0  0  0  0  0  0  0  0  0  0
   40.0430   29.8430   43.5410 C   0  0  0  0  0  0  0  0  0  0  0  0
   39.1930   28.7660   43.4560 N   0  0  0  0  0  0  0  0  0  0  0  0
   40.5630   27.1570   40.3930 N   0  0  0  0  0  0  0  0  0  0  0  0
   37.8510   30.7720   47.7250 C   0  0  0  0  0  0  0  0  0  0  0  0
   36.5240   30.6320   47.3530 C   0  0  0  0  0  0  0  0  0  0  0  0
   35.8000   30.1550   48.4040 N   0  0  0  0  0  0  0  0  0  0  0  0
   36.6750   30.0000   49.4170 C   0  0  0  0  0  0  0  0  0  0  0  0
   37.9100   30.3740   49.0020 N   0  0  0  0  0  0  0  0  0  0  0  0
   36.3430   29.4980   50.7830 C   0  0  0  0  0  0  0  0  0  0  0  0
   37.3710   29.9960   51.7990 C   0  0  0  0  0  0  0  0  0  0  0  0
   41.0594   32.2524   43.9394 H   0  0  0  0  0  0  0  0  0  0  0  0
   40.7274   33.8433   45.7788 H   0  0  0  0  0  0  0  0  0  0  0  0
   38.7631   27.0571   42.2962 H   0  0  0  0  0  0  0  0  0  0  0  0
   42.0482   29.4203   40.9020 H   0  0  0  0  0  0  0  0  0  0  0  0
   39.9232   26.3519   40.3350 H   0  0  0  0  0  0  0  0  0  0  0  0
   41.3028   27.2789   39.6868 H   0  0  0  0  0  0  0  0  0  0  0  0
   36.1164   30.8699   46.3594 H   0  0  0  0  0  0  0  0  0  0  0  0
   34.7900   29.9539   48.4208 H   0  0  0  0  0  0  0  0  0  0  0  0
   35.3450   29.8610   51.0697 H   0  0  0  0  0  0  0  0  0  0  0  0
   36.3568   28.3981   50.7717 H   0  0  0  0  0  0  0  0  0  0  0  0
   36.9973   29.8149   52.8176 H   0  0  0  0  0  0  0  0  0  0  0  0
   38.3193   29.4574   51.6552 H   0  0  0  0  0  0  0  0  0  0  0  0
   37.5361   31.0740   51.6552 H   0  0  0  0  0  0  0  0  0  0  0  0
  1  2  2  0
  1  6  1  0
  2  3  1  0
  3  4  2  0
  5  4  1  0
  5 14  1  0
  6  5  2  0
  7 12  2  0
  8  9  2  0
  8  7  1  0
  9 10  1  0
 10 11  2  0
 11  1  1  0
 12 11  1  0
 13  8  1  0
 14 18  1  0
 15 14  2  0
 15 16  1  0
 16 17  1  0
 17 19  1  0
 18 17  2  0
 19 20  1  0
  2 21  1  0
  3 22  1  0
  7 23  1  0
  9 24  1  0
 13 25  1  0
 13 26  1  0
 15 27  1  0
 16 28  1  0
 19 29  1  0
 19 30  1  0
 20 31  1  0
 20 32  1  0
 20 33  1  0
M  ISO  8  21  14  22  14  23  14  24  14  27  14  28   9  29   8  30   8
M  ISO  3  31   8  32   8  33   8
M  END
>  <minimizedAffinity>  (1) 
-5.80135441

>  <minimizedRMSD>  (1) 
3.29945707

$$$$
