
     RDKit          3D

 39 41  0  0  0  0  0  0  0  0999 V2000
   38.3629   31.6447   47.3787 C   0  0  0  0  0  0  0  0  0  0  0  0
   38.7650   32.6854   48.1874 C   0  0  0  0  0  0  0  0  0  0  0  0
   38.1861   33.0441   49.3789 C   0  0  0  0  0  0  0  0  0  0  0  0
   37.1248   32.2937   49.7773 N   0  0  0  0  0  0  0  0  0  0  0  0
   36.7074   31.2626   49.0001 C   0  0  0  0  0  0  0  0  0  0  0  0
   37.3099   30.9435   47.8288 N   0  0  0  0  0  0  0  0  0  0  0  0
   39.2351   29.9618   44.2849 C   0  0  0  0  0  0  0  0  0  0  0  0
   40.2924   30.6972   43.7455 C   0  0  0  0  0  0  0  0  0  0  0  0
   40.6939   31.8006   44.4926 C   0  0  0  0  0  0  0  0  0  0  0  0
   40.0646   32.0912   45.6551 N   0  0  0  0  0  0  0  0  0  0  0  0
   39.0545   31.3418   46.1164 C   0  0  0  0  0  0  0  0  0  0  0  0
   38.5866   30.2335   45.4508 N   0  0  0  0  0  0  0  0  0  0  0  0
   40.8987   30.3325   42.5292 N   0  0  0  0  0  0  0  0  0  0  0  0
   35.5907   30.3847   49.3075 C   0  0  0  0  0  0  0  0  0  0  0  0
   34.6223   30.2164   48.3505 C   0  0  0  0  0  0  0  0  0  0  0  0
   33.6598   29.3622   48.8163 N   0  0  0  0  0  0  0  0  0  0  0  0
   34.0445   29.0074   50.0662 C   0  0  0  0  0  0  0  0  0  0  0  0
   35.2127   29.6248   50.3659 N   0  0  0  0  0  0  0  0  0  0  0  0
   39.6087   33.2952   47.8877 H   0  0  0  0  0  0  0  0  0  0  0  0
   38.5365   33.8707   49.9819 H   0  0  0  0  0  0  0  0  0  0  0  0
   38.8674   29.0863   43.7566 H   0  0  0  0  0  0  0  0  0  0  0  0
   41.5121   32.3944   44.1037 H   0  0  0  0  0  0  0  0  0  0  0  0
   41.8994   30.6388   42.3994 H   0  0  0  0  0  0  0  0  0  0  0  0
   40.3150   29.7882   41.8487 H   0  0  0  0  0  0  0  0  0  0  0  0
   34.5063   30.6303   47.3407 H   0  0  0  0  0  0  0  0  0  0  0  0
   32.7984   29.0373   48.3266 H   0  0  0  0  0  0  0  0  0  0  0  0
   33.2698   28.0887   50.9180 C   0  0  0  0  0  0  0  0  0  0  0  0
   31.8608   28.4381   50.8678 N   0  0  0  0  0  4  0  0  0  0  0  0
   31.5145   28.8419   49.5246 C   0  0  0  0  0  0  0  0  0  0  0  0
   31.7569   29.9364   49.4240 H   0  0  0  0  0  0  0  0  0  0  0  0
   31.1149   27.2263   51.1929 C   0  0  0  0  0  0  0  0  0  0  0  0
   30.9234   27.1471   52.2938 H   0  0  0  0  0  0  0  0  0  0  0  0
   33.3509   27.0280   50.5646 H   0  0  0  0  0  0  0  0  0  0  0  0
   33.6366   28.1540   51.9624 H   0  0  0  0  0  0  0  0  0  0  0  0
   31.6297   29.2008   51.5539 H   0  0  0  0  0  0  0  0  0  0  0  0
   30.4149   28.7908   49.3778 H   0  0  0  0  0  0  0  0  0  0  0  0
   32.0410   28.2485   48.7692 H   0  0  0  0  0  0  0  0  0  0  0  0
   30.1518   27.2886   50.6555 H   0  0  0  0  0  0  0  0  0  0  0  0
   31.6743   26.3461   50.8518 H   0  0  0  0  0  0  0  0  0  0  0  0
  1  6  1  0
  1  2  2  0
  2  3  1  0
  3  4  2  0
  5 14  1  0
  5  4  1  0
  6  5  2  0
  7 12  2  0
  8  7  1  0
  8  9  2  0
  9 10  1  0
 10 11  2  0
 11  1  1  0
 12 11  1  0
 13  8  1  0
 14 18  1  0
 15 16  1  0
 15 14  2  0
 16 17  1  0
 17 18  2  0
  2 19  1  0
  3 20  1  0
  7 21  1  0
  9 22  1  0
 13 23  1  0
 13 24  1  0
 15 25  1  0
 16 26  1  0
 27 28  1  0
 28 29  1  0
 29 30  1  0
 28 31  1  0
 31 32  1  0
 27 33  1  0
 27 34  1  0
 28 35  1  0
 29 36  1  0
 29 37  1  0
 31 38  1  0
 31 39  1  0
 17 27  1  0
M  CHG  1  28   1
M  END
>  <DihAtoms>  (1) 
15,16,26,27

>  <DihDeg>  (1) 
89.999291074879

$$$$
