
     RDKit          3D

 29 31  0  0  0  0  0  0  0  0999 V2000
   38.0920   31.0480   47.2040 C   0  0  0  0  0  0  0  0  0  0  0  0
   38.5220   31.7790   48.2970 C   0  0  0  0  0  0  0  0  0  0  0  0
   37.8350   31.9570   49.4720 C   0  0  0  0  0  0  0  0  0  0  0  0
   36.6260   31.3560   49.5600 N   0  0  0  0  0  0  0  0  0  0  0  0
   36.1770   30.6260   48.4900 C   0  0  0  0  0  0  0  0  0  0  0  0
   36.8880   30.4830   47.3610 N   0  0  0  0  0  0  0  0  0  0  0  0
   34.8890   29.9350   48.4670 C   0  0  0  0  0  0  0  0  0  0  0  0
   34.1370   30.0990   47.3110 C   0  0  0  0  0  0  0  0  0  0  0  0
   32.9710   29.3960   47.4470 N   0  0  0  0  0  0  0  0  0  0  0  0
   33.0100   28.8140   48.6610 C   0  0  0  0  0  0  0  0  0  0  0  0
   34.1720   29.1430   49.2750 N   0  0  0  0  0  0  0  0  0  0  0  0
   31.9810   28.0000   49.1700 N   0  0  0  0  0  0  0  0  0  0  0  0
   39.1000   30.0570   43.8800 C   0  0  0  0  0  0  0  0  0  0  0  0
   40.3780   30.6320   43.6950 C   0  0  0  0  0  0  0  0  0  0  0  0
   40.8630   31.3710   44.7680 C   0  0  0  0  0  0  0  0  0  0  0  0
   40.1190   31.4980   45.8890 N   0  0  0  0  0  0  0  0  0  0  0  0
   38.9190   30.9360   46.0150 C   0  0  0  0  0  0  0  0  0  0  0  0
   38.3460   30.1830   45.0090 N   0  0  0  0  0  0  0  0  0  0  0  0
   41.0830   30.4470   42.4900 N   0  0  0  0  0  0  0  0  0  0  0  0
   39.5066   32.2629   48.2170 H   0  0  0  0  0  0  0  0  0  0  0  0
   38.2455   32.5563   50.2980 H   0  0  0  0  0  0  0  0  0  0  0  0
   34.4296   30.6941   46.4334 H   0  0  0  0  0  0  0  0  0  0  0  0
   32.2111   29.3256   46.7553 H   0  0  0  0  0  0  0  0  0  0  0  0
   32.0704   27.5829   50.1075 H   0  0  0  0  0  0  0  0  0  0  0  0
   31.1385   27.8214   48.6050 H   0  0  0  0  0  0  0  0  0  0  0  0
   38.6832   29.4644   43.0523 H   0  0  0  0  0  0  0  0  0  0  0  0
   41.8505   31.8515   44.7047 H   0  0  0  0  0  0  0  0  0  0  0  0
   42.0136   30.8712   42.3674 H   0  0  0  0  0  0  0  0  0  0  0  0
   40.6681   29.8875   41.7313 H   0  0  0  0  0  0  0  0  0  0  0  0
  1  6  1  0
  1  2  2  0
  2  3  1  0
  3  4  2  0
  5  4  1  0
  6  5  2  0
  7  5  1  0
  7 11  1  0
  8  9  1  0
  8  7  2  0
  9 10  1  0
 10 12  1  0
 10 11  2  0
 13 18  2  0
 14 13  1  0
 14 15  2  0
 15 16  1  0
 16 17  2  0
 17  1  1  0
 18 17  1  0
 19 14  1  0
  2 20  1  0
  3 21  1  0
  8 22  1  0
  9 23  1  0
 12 24  1  0
 12 25  1  0
 13 26  1  0
 15 27  1  0
 19 28  1  0
 19 29  1  0
M  ISO  6  20  14  21  14  22  14  23   9  26  14  27  14
M  END
>  <minimizedAffinity>  (1) 
-5.27696466

>  <minimizedRMSD>  (1) 
1.07831156

$$$$
