
     RDKit          3D

 41 43  0  0  1  0  0  0  0  0999 V2000
   35.1830   30.2800   49.6520 C   0  0  2  0  0  0  0  0  0  0  0  0
   36.1860   31.0020   48.8270 C   0  0  0  0  0  0  0  0  0  0  0  0
   37.5810   30.4090   48.9440 C   0  0  2  0  0  0  0  0  0  0  0  0
   38.0710   30.3580   50.3430 C   0  0  0  0  0  0  0  0  0  0  0  0
   37.0060   29.9600   51.3420 C   0  0  0  0  0  0  0  0  0  0  0  0
   35.8030   29.3550   50.6670 C   0  0  0  0  0  0  0  0  0  0  0  0
   38.5250   31.1100   48.1380 N   0  0  0  0  0  0  0  0  0  0  0  0
   38.5600   30.6300   46.7780 C   0  0  0  0  0  0  0  0  0  0  0  0
   39.6830   31.5050   46.2110 C   0  0  0  0  0  0  0  0  0  0  0  0
   39.3450   32.8310   46.8420 C   0  0  0  0  0  0  0  0  0  0  0  0
   38.4450   32.4960   48.0450 C   0  0  2  0  0  0  0  0  0  0  0  0
   38.8710   33.3840   49.1450 C   0  0  0  0  0  0  0  0  0  0  0  0
   34.2370   29.4770   48.8410 C   0  0  0  0  0  0  0  0  0  0  0  0
   34.1320   29.8720   47.5070 C   0  0  0  0  0  0  0  0  0  0  0  0
   33.2580   29.1380   46.6890 C   0  0  0  0  0  0  0  0  0  0  0  0
   32.5570   28.0780   47.2400 N   0  0  0  0  0  0  0  0  0  0  0  0
   32.6980   27.7350   48.5540 C   0  0  0  0  0  0  0  0  0  0  0  0
   33.5250   28.4370   49.3080 N   0  0  0  0  0  0  0  0  0  0  0  0
   34.6427   31.0870   50.1686 H   0  0  0  0  0  0  0  0  0  0  0  0
   36.2214   32.0513   49.1551 H   0  0  0  0  0  0  0  0  0  0  0  0
   35.8755   30.9139   47.7754 H   0  0  0  0  0  0  0  0  0  0  0  0
   37.4896   29.3760   48.5772 H   0  0  0  0  0  0  0  0  0  0  0  0
   38.8908   29.6267   50.3982 H   0  0  0  0  0  0  0  0  0  0  0  0
   38.3993   31.3739   50.6079 H   0  0  0  0  0  0  0  0  0  0  0  0
   37.4303   29.2234   52.0402 H   0  0  0  0  0  0  0  0  0  0  0  0
   36.6799   30.8665   51.8730 H   0  0  0  0  0  0  0  0  0  0  0  0
   35.0507   29.1179   51.4337 H   0  0  0  0  0  0  0  0  0  0  0  0
   36.1378   28.4523   50.1350 H   0  0  0  0  0  0  0  0  0  0  0  0
   38.8128   29.5605   46.7297 H   0  0  0  0  0  0  0  0  0  0  0  0
   37.6036   30.6998   46.2391 H   0  0  0  0  0  0  0  0  0  0  0  0
   40.6745   31.1469   46.5253 H   0  0  0  0  0  0  0  0  0  0  0  0
   39.7400   31.5219   45.1126 H   0  0  0  0  0  0  0  0  0  0  0  0
   40.2599   33.3419   47.1767 H   0  0  0  0  0  0  0  0  0  0  0  0
   38.8433   33.5049   46.1320 H   0  0  0  0  0  0  0  0  0  0  0  0
   37.3649   32.7015   48.0098 H   0  0  0  0  0  0  0  0  0  0  0  0
   38.6426   32.9079   50.1100 H   0  0  0  0  0  0  0  0  0  0  0  0
   39.9537   33.5644   49.0723 H   0  0  0  0  0  0  0  0  0  0  0  0
   38.3341   34.3413   49.0723 H   0  0  0  0  0  0  0  0  0  0  0  0
   34.7089   30.7217   47.1131 H   0  0  0  0  0  0  0  0  0  0  0  0
   33.1321   29.4005   45.6282 H   0  0  0  0  0  0  0  0  0  0  0  0
   32.1339   26.8905   48.9766 H   0  0  0  0  0  0  0  0  0  0  0  0
  1  6  1  0
  2  3  1  0
  2  1  1  0
  3  4  1  0
  4  5  1  0
  6  5  1  0
  7  8  1  0
  7  3  1  0
  9  8  1  0
  9 10  1  0
 10 11  1  0
 11  7  1  0
 11 12  1  0
 13 18  1  0
 13  1  1  0
 14 13  2  0
 15 16  2  0
 15 14  1  0
 16 17  1  0
 17 18  2  0
  1 19  1  1
  2 20  1  0
  2 21  1  0
  3 22  1  6
  4 23  1  0
  4 24  1  0
  5 25  1  0
  5 26  1  0
  6 27  1  0
  6 28  1  0
  8 29  1  0
  8 30  1  0
  9 31  1  0
  9 32  1  0
 10 33  1  0
 10 34  1  0
 11 35  1  6
 12 36  1  0
 12 37  1  0
 12 38  1  0
 14 39  1  0
 15 40  1  0
 17 41  1  0
M  ISO  8  19  13  20  13  21  13  22  13  23  13  24  13  25  13  26  13
M  ISO  8  27  13  28  13  29  13  30  13  31  13  32  13  33  13  34  13
M  ISO  7  35  13  36   8  37   8  38   8  39  14  40  14  41  14
M  END
>  <minimizedAffinity>  (1) 
-6.5380249

>  <minimizedRMSD>  (1) 
0.16341421

$$$$
