
     RDKit          3D

 42 44  0  0  1  0  0  0  0  0999 V2000
   34.7760   29.9780   49.5480 C   0  0  2  0  0  0  0  0  0  0  0  0
   35.8460   30.7060   48.8150 C   0  0  0  0  0  0  0  0  0  0  0  0
   37.2160   30.0910   49.0330 C   0  0  2  0  0  0  0  0  0  0  0  0
   37.5810   30.0460   50.4810 C   0  0  0  0  0  0  0  0  0  0  0  0
   36.4580   29.5570   51.3580 C   0  0  0  0  0  0  0  0  0  0  0  0
   35.3090   29.0000   50.5670 C   0  0  0  0  0  0  0  0  0  0  0  0
   38.2220   30.7770   48.2890 N   0  0  0  0  0  0  0  0  0  0  0  0
   38.1480   30.5750   46.8610 C   0  0  0  0  0  0  0  0  0  0  0  0
   39.3900   31.3580   46.4220 C   0  0  0  0  0  0  0  0  0  0  0  0
   39.2520   32.5910   47.2920 C   0  0  0  0  0  0  0  0  0  0  0  0
   38.3690   32.1600   48.4770 C   0  0  2  0  0  0  0  0  0  0  0  0
   39.4460   33.9930   49.6770 C   0  0  0  0  0  0  0  0  0  0  0  0
   39.1770   34.7720   48.7040 O   0  0  0  0  0  0  0  0  0  0  0  0
   39.0610   32.6110   49.6420 N   0  0  0  0  0  0  0  0  0  0  0  0
   33.8760   29.2200   48.6490 C   0  0  0  0  0  0  0  0  0  0  0  0
   33.8650   29.6670   47.3270 C   0  0  0  0  0  0  0  0  0  0  0  0
   33.0370   28.9780   46.4260 C   0  0  0  0  0  0  0  0  0  0  0  0
   32.2860   27.9100   46.8880 N   0  0  0  0  0  0  0  0  0  0  0  0
   32.3350   27.5160   48.1880 C   0  0  0  0  0  0  0  0  0  0  0  0
   33.1160   28.1680   49.0300 N   0  0  0  0  0  0  0  0  0  0  0  0
   34.2202   30.7797   50.0563 H   0  0  0  0  0  0  0  0  0  0  0  0
   35.8670   31.7489   49.1642 H   0  0  0  0  0  0  0  0  0  0  0  0
   35.6179   30.6459   47.7406 H   0  0  0  0  0  0  0  0  0  0  0  0
   37.1598   29.0559   48.6651 H   0  0  0  0  0  0  0  0  0  0  0  0
   38.4410   29.3714   50.6046 H   0  0  0  0  0  0  0  0  0  0  0  0
   37.8166   31.0744   50.7922 H   0  0  0  0  0  0  0  0  0  0  0  0
   36.8454   28.7684   52.0198 H   0  0  0  0  0  0  0  0  0  0  0  0
   36.0826   30.4181   51.9303 H   0  0  0  0  0  0  0  0  0  0  0  0
   34.4974   28.7381   51.2618 H   0  0  0  0  0  0  0  0  0  0  0  0
   35.6770   28.1186   50.0214 H   0  0  0  0  0  0  0  0  0  0  0  0
   38.2202   29.5103   46.5942 H   0  0  0  0  0  0  0  0  0  0  0  0
   37.2057   30.8972   46.3938 H   0  0  0  0  0  0  0  0  0  0  0  0
   40.3169   30.8072   46.6402 H   0  0  0  0  0  0  0  0  0  0  0  0
   39.4501   31.5598   45.3423 H   0  0  0  0  0  0  0  0  0  0  0  0
   40.2384   32.9229   47.6481 H   0  0  0  0  0  0  0  0  0  0  0  0
   38.8112   33.4338   46.7393 H   0  0  0  0  0  0  0  0  0  0  0  0
   37.3544   32.5746   48.5706 H   0  0  0  0  0  0  0  0  0  0  0  0
   39.9802   34.3855   50.5548 H   0  0  0  0  0  0  0  0  0  0  0  0
   39.2742   31.9730   50.4220 H   0  0  0  0  0  0  0  0  0  0  0  0
   34.4781   30.5216   47.0048 H   0  0  0  0  0  0  0  0  0  0  0  0
   32.9857   29.2818   45.3700 H   0  0  0  0  0  0  0  0  0  0  0  0
   31.7313   26.6642   48.5346 H   0  0  0  0  0  0  0  0  0  0  0  0
  1  6  1  0
  2  3  1  0
  2  1  1  0
  3  4  1  0
  4  5  1  0
  6  5  1  0
  7  8  1  0
  7 11  1  0
  7  3  1  0
  9  8  1  0
  9 10  1  0
 10 11  1  0
 11 14  1  0
 13 12  2  0
 14 12  1  0
 15 20  1  0
 15  1  1  0
 16 15  2  0
 17 18  2  0
 17 16  1  0
 18 19  1  0
 19 20  2  0
  1 21  1  1
  2 22  1  0
  2 23  1  0
  3 24  1  6
  4 25  1  0
  4 26  1  0
  5 27  1  0
  5 28  1  0
  6 29  1  0
  6 30  1  0
  8 31  1  0
  8 32  1  0
  9 33  1  0
  9 34  1  0
 10 35  1  0
 10 36  1  0
 11 37  1  6
 12 38  1  0
 14 39  1  0
 16 40  1  0
 17 41  1  0
 19 42  1  0
M  ISO  8  21  13  22  13  23  13  24  13  25  13  26  13  27  13  28  13
M  ISO  8  29  13  30  13  31  13  32  13  33  13  34  13  35  13  36  13
M  ISO  5  37  13  38   6  40  14  41  14  42  14
M  END
>  <minimizedAffinity>  (1) 
-5.9531045

>  <minimizedRMSD>  (1) 
0.670909882

$$$$
