
     RDKit          3D

 39 42  0  0  0  0  0  0  0  0999 V2000
   35.4310   28.7950   49.3410 C   0  0  0  0  0  0  0  0  0  0  0  0
   35.3470   29.8910   48.4820 C   0  0  0  0  0  0  0  0  0  0  0  0
   34.2530   30.0510   47.6740 C   0  0  0  0  0  0  0  0  0  0  0  0
   33.2130   29.1450   47.6850 C   0  0  0  0  0  0  0  0  0  0  0  0
   32.0480   29.0820   46.9970 N   0  0  0  0  0  0  0  0  0  0  0  0
   31.4610   27.9350   47.4700 C   0  0  0  0  0  0  0  0  0  0  0  0
   32.2320   27.3410   48.3940 N   0  0  0  0  0  0  0  0  0  0  0  0
   33.3330   28.0800   48.5440 C   0  0  0  0  0  0  0  0  0  0  0  0
   34.4040   27.8620   49.3790 C   0  0  0  0  0  0  0  0  0  0  0  0
   37.7760   32.4500   49.5220 C   0  0  0  0  0  0  0  0  0  0  0  0
   38.5290   32.6480   48.3430 C   0  0  0  0  0  0  0  0  0  0  0  0
   38.1720   31.8800   47.2000 C   0  0  0  0  0  0  0  0  0  0  0  0
   37.1300   31.0030   47.3110 N   0  0  0  0  0  0  0  0  0  0  0  0
   36.4360   30.8470   48.4650 C   0  0  0  0  0  0  0  0  0  0  0  0
   36.7620   31.5620   49.5410 N   0  0  0  0  0  0  0  0  0  0  0  0
   38.9190   32.0340   45.9270 C   0  0  0  0  0  0  0  0  0  0  0  0
   39.7220   30.8440   45.5300 C   0  0  0  0  0  0  0  0  0  0  0  0
   40.7090   31.2690   44.4630 C   0  0  0  0  0  0  0  0  0  0  0  0
   40.2470   32.5110   43.7320 C   0  0  0  0  0  0  0  0  0  0  0  0
   40.1600   33.6910   44.6870 C   0  0  0  0  0  0  0  0  0  0  0  0
   39.8780   33.2080   46.1020 C   0  0  0  0  0  0  0  0  0  0  0  0
   36.3115   28.6701   49.9885 H   0  0  0  0  0  0  0  0  0  0  0  0
   34.2026   30.9204   47.0020 H   0  0  0  0  0  0  0  0  0  0  0  0
   31.6887   29.7377   46.2886 H   0  0  0  0  0  0  0  0  0  0  0  0
   30.4855   27.5524   47.1353 H   0  0  0  0  0  0  0  0  0  0  0  0
   34.4448   26.9884   50.0462 H   0  0  0  0  0  0  0  0  0  0  0  0
   38.0184   33.0233   50.4289 H   0  0  0  0  0  0  0  0  0  0  0  0
   39.3596   33.3685   48.3102 H   0  0  0  0  0  0  0  0  0  0  0  0
   38.1723   32.1839   45.1333 H   0  0  0  0  0  0  0  0  0  0  0  0
   40.2644   30.4533   46.4036 H   0  0  0  0  0  0  0  0  0  0  0  0
   39.0618   30.0544   45.1418 H   0  0  0  0  0  0  0  0  0  0  0  0
   41.6795   31.4757   44.9378 H   0  0  0  0  0  0  0  0  0  0  0  0
   40.7929   30.4527   43.7305 H   0  0  0  0  0  0  0  0  0  0  0  0
   40.9627   32.7463   42.9305 H   0  0  0  0  0  0  0  0  0  0  0  0
   39.2497   32.3231   43.3076 H   0  0  0  0  0  0  0  0  0  0  0  0
   41.1138   34.2388   44.6743 H   0  0  0  0  0  0  0  0  0  0  0  0
   39.3410   34.3510   44.3652 H   0  0  0  0  0  0  0  0  0  0  0  0
   39.4102   34.0054   46.6980 H   0  0  0  0  0  0  0  0  0  0  0  0
   40.7965   32.9192   46.6339 H   0  0  0  0  0  0  0  0  0  0  0  0
  1  9  2  0
  2  1  1  0
  3  4  1  0
  3  2  2  0
  4  8  2  0
  5  6  1  0
  5  4  1  0
  6  7  2  0
  7  8  1  0
  8  9  1  0
 10 15  2  0
 11 10  1  0
 12 13  1  0
 12 11  2  0
 13 14  2  0
 14  2  1  0
 14 15  1  0
 16 21  1  0
 16 12  1  0
 17 16  1  0
 18 17  1  0
 19 18  1  0
 19 20  1  0
 20 21  1  0
  1 22  1  0
  3 23  1  0
  5 24  1  0
  6 25  1  0
  9 26  1  0
 10 27  1  0
 11 28  1  0
 16 29  1  0
 17 30  1  0
 17 31  1  0
 18 32  1  0
 18 33  1  0
 19 34  1  0
 19 35  1  0
 20 36  1  0
 20 37  1  0
 21 38  1  0
 21 39  1  0
M  ISO  8  22  14  23  14  24   9  25  14  26  14  27  14  28  14  29  13
M  ISO  8  30  13  31  13  32  13  33  13  34  13  35  13  36  13  37  13
M  ISO  2  38  13  39  13
M  END
>  <minimizedAffinity>  (1) 
-7.02100325

>  <minimizedRMSD>  (1) 
2.06950927

$$$$
