
     RDKit          3D

 27 29  0  0  0  0  0  0  0  0999 V2000
   35.9090   29.1690   49.4830 C   0  0  0  0  0  0  0  0  0  0  0  0
   35.8690   30.1530   48.5080 C   0  0  0  0  0  0  0  0  0  0  0  0
   34.8020   30.2460   47.6240 C   0  0  0  0  0  0  0  0  0  0  0  0
   33.7590   29.3330   47.7220 C   0  0  0  0  0  0  0  0  0  0  0  0
   32.6120   29.1880   47.0060 N   0  0  0  0  0  0  0  0  0  0  0  0
   32.0060   28.1060   47.5930 C   0  0  0  0  0  0  0  0  0  0  0  0
   32.7430   27.6240   48.6060 N   0  0  0  0  0  0  0  0  0  0  0  0
   33.8440   28.3720   48.7090 C   0  0  0  0  0  0  0  0  0  0  0  0
   34.8740   28.2530   49.5920 C   0  0  0  0  0  0  0  0  0  0  0  0
   38.5290   32.5150   49.4330 C   0  0  0  0  0  0  0  0  0  0  0  0
   39.0290   32.9280   48.1680 C   0  0  0  0  0  0  0  0  0  0  0  0
   38.4190   32.3660   47.0350 C   0  0  0  0  0  0  0  0  0  0  0  0
   37.4020   31.4750   47.1790 N   0  0  0  0  0  0  0  0  0  0  0  0
   36.9580   31.1100   48.4030 C   0  0  0  0  0  0  0  0  0  0  0  0
   37.5170   31.6270   49.5120 N   0  0  0  0  0  0  0  0  0  0  0  0
   40.0520   32.2110   45.1880 C   0  0  0  0  0  0  0  0  0  0  0  0
   40.8000   31.4360   45.8400 O   0  0  0  0  0  0  0  0  0  0  0  0
   38.8480   32.7140   45.7250 N   0  0  0  0  0  0  0  0  0  0  0  0
   36.7644   29.1145   50.1724 H   0  0  0  0  0  0  0  0  0  0  0  0
   34.7827   31.0328   46.8555 H   0  0  0  0  0  0  0  0  0  0  0  0
   32.2782   29.7545   46.2132 H   0  0  0  0  0  0  0  0  0  0  0  0
   31.0400   27.6872   47.2743 H   0  0  0  0  0  0  0  0  0  0  0  0
   34.8843   27.4642   50.3586 H   0  0  0  0  0  0  0  0  0  0  0  0
   38.9708   32.9227   50.3542 H   0  0  0  0  0  0  0  0  0  0  0  0
   39.8527   33.6518   48.0811 H   0  0  0  0  0  0  0  0  0  0  0  0
   40.3458   32.5047   44.1695 H   0  0  0  0  0  0  0  0  0  0  0  0
   38.2677   33.3467   45.1559 H   0  0  0  0  0  0  0  0  0  0  0  0
  1  9  2  0
  2  1  1  0
  3  4  1  0
  3  2  2  0
  4  8  2  0
  5  6  1  0
  5  4  1  0
  6  7  2  0
  7  8  1  0
  8  9  1  0
 10 15  2  0
 11 10  1  0
 12 13  1  0
 12 11  2  0
 13 14  2  0
 14  2  1  0
 14 15  1  0
 16 18  1  0
 16 17  2  0
 18 12  1  0
  1 19  1  0
  3 20  1  0
  5 21  1  0
  6 22  1  0
  9 23  1  0
 10 24  1  0
 11 25  1  0
 16 26  1  0
 18 27  1  0
M  ISO  8  19  14  20  14  21   9  22  14  23  14  24  14  25  14  26   6
M  END
>  <minimizedAffinity>  (1) 
-6.43146896

>  <minimizedRMSD>  (1) 
2.00418806

$$$$
