
     RDKit          3D

 17 18  0  0  0  0  0  0  0  0999 V2000
   37.4920   30.4590   50.9160 C   0  0  0  0  0  0  0  0  0  0  0  0
   37.1130   31.0760   49.6940 C   0  0  0  0  0  0  0  0  0  0  0  0
   35.8810   30.7620   49.1380 C   0  0  0  0  0  0  0  0  0  0  0  0
   35.1090   29.8730   49.8090 N   0  0  0  0  0  0  0  0  0  0  0  0
   35.4810   29.2970   50.9650 C   0  0  0  0  0  0  0  0  0  0  0  0
   36.6660   29.5890   51.5140 N   0  0  0  0  0  0  0  0  0  0  0  0
   37.9770   31.9780   49.0770 C   0  0  0  0  0  0  0  0  0  0  0  0
   38.4960   33.1670   49.5370 C   0  0  0  0  0  0  0  0  0  0  0  0
   39.3370   33.9300   48.7890 C   0  0  0  0  0  0  0  0  0  0  0  0
   39.6300   33.3630   47.4530 C   0  0  0  0  0  0  0  0  0  0  0  0
   38.6340   31.7830   47.4730 S   0  0  0  0  0  0  0  0  0  0  0  0
   38.4646   30.6954   51.3722 H   0  0  0  0  0  0  0  0  0  0  0  0
   35.5455   31.2151   48.1935 H   0  0  0  0  0  0  0  0  0  0  0  0
   34.8084   28.5824   51.4620 H   0  0  0  0  0  0  0  0  0  0  0  0
   38.2209   33.5119   50.5446 H   0  0  0  0  0  0  0  0  0  0  0  0
   39.7607   34.8811   49.1438 H   0  0  0  0  0  0  0  0  0  0  0  0
   40.2693   33.7678   46.6546 H   0  0  0  0  0  0  0  0  0  0  0  0
  1  6  2  0
  2  1  1  0
  3  2  2  0
  3  4  1  0
  4  5  2  0
  5  6  1  0
  7  8  2  0
  7  2  1  0
  9  8  1  0
 10 11  1  0
 10  9  2  0
 11  7  1  0
  1 12  1  0
  3 13  1  0
  5 14  1  0
  8 15  1  0
  9 16  1  0
 10 17  1  0
M  ISO  6  12  14  13  14  14  14  15  14  16  14  17  14
M  END
>  <minimizedAffinity>  (1) 
-4.24623394

>  <minimizedRMSD>  (1) 
2.37279701

$$$$
