
     RDKit          3D

 41 45  0  0  0  0  0  0  0  0999 V2000
   38.0300   32.6580   49.5450 C   0  0  0  0  0  0  0  0  0  0  0  0
   38.7670   32.8380   48.3680 C   0  0  0  0  0  0  0  0  0  0  0  0
   38.4000   32.0590   47.2620 C   0  0  0  0  0  0  0  0  0  0  0  0
   37.3760   31.1880   47.3740 N   0  0  0  0  0  0  0  0  0  0  0  0
   36.6860   31.0410   48.5310 C   0  0  0  0  0  0  0  0  0  0  0  0
   37.0160   31.7770   49.6110 N   0  0  0  0  0  0  0  0  0  0  0  0
   35.6210   29.0660   49.5250 C   0  0  0  0  0  0  0  0  0  0  0  0
   35.5850   30.0750   48.5770 C   0  0  0  0  0  0  0  0  0  0  0  0
   34.5440   30.1640   47.7030 C   0  0  0  0  0  0  0  0  0  0  0  0
   33.5090   29.2720   47.7310 C   0  0  0  0  0  0  0  0  0  0  0  0
   32.3800   29.1360   46.9960 N   0  0  0  0  0  0  0  0  0  0  0  0
   31.7650   28.0400   47.5290 C   0  0  0  0  0  0  0  0  0  0  0  0
   32.4850   27.5240   48.5470 N   0  0  0  0  0  0  0  0  0  0  0  0
   33.5830   28.2780   48.6940 C   0  0  0  0  0  0  0  0  0  0  0  0
   34.5950   28.1410   49.5890 C   0  0  0  0  0  0  0  0  0  0  0  0
   39.0600   32.1230   45.9670 C   0  0  0  0  0  0  0  0  0  0  0  0
   39.5740   33.2660   45.4120 C   0  0  0  0  0  0  0  0  0  0  0  0
   40.2010   33.3540   44.1930 C   0  0  0  0  0  0  0  0  0  0  0  0
   40.3140   32.2210   43.4970 N   0  0  0  0  0  0  0  0  0  0  0  0
   39.8300   31.0770   43.9930 C   0  0  0  0  0  0  0  0  0  0  0  0
   39.2300   31.0350   45.1780 N   0  0  0  0  0  0  0  0  0  0  0  0
   39.9600   29.8290   43.2190 C   0  0  0  0  0  0  0  0  0  0  0  0
   39.1050   28.7750   43.4790 C   0  0  0  0  0  0  0  0  0  0  0  0
   39.1680   27.5780   42.7940 C   0  0  0  0  0  0  0  0  0  0  0  0
   40.1390   27.4710   41.8180 C   0  0  0  0  0  0  0  0  0  0  0  0
   41.0120   28.4990   41.5290 C   0  0  0  0  0  0  0  0  0  0  0  0
   40.9410   29.7110   42.2290 C   0  0  0  0  0  0  0  0  0  0  0  0
   38.2862   33.2505   50.4357 H   0  0  0  0  0  0  0  0  0  0  0  0
   39.5966   33.5583   48.3138 H   0  0  0  0  0  0  0  0  0  0  0  0
   36.4655   29.0004   50.2268 H   0  0  0  0  0  0  0  0  0  0  0  0
   34.5362   30.9726   46.9573 H   0  0  0  0  0  0  0  0  0  0  0  0
   32.0589   29.7245   46.2141 H   0  0  0  0  0  0  0  0  0  0  0  0
   30.8073   27.6308   47.1748 H   0  0  0  0  0  0  0  0  0  0  0  0
   34.5985   27.3300   50.3321 H   0  0  0  0  0  0  0  0  0  0  0  0
   39.4758   34.1943   45.9939 H   0  0  0  0  0  0  0  0  0  0  0  0
   40.5899   34.3091   43.8103 H   0  0  0  0  0  0  0  0  0  0  0  0
   38.3433   28.8946   44.2636 H   0  0  0  0  0  0  0  0  0  0  0  0
   38.4784   26.7500   43.0149 H   0  0  0  0  0  0  0  0  0  0  0  0
   40.2191   26.5321   41.2506 H   0  0  0  0  0  0  0  0  0  0  0  0
   41.7699   28.3665   40.7429 H   0  0  0  0  0  0  0  0  0  0  0  0
   41.6310   30.5387   42.0081 H   0  0  0  0  0  0  0  0  0  0  0  0
  1  6  2  0
  2  1  1  0
  3  4  1  0
  3  2  2  0
  4  5  2  0
  5  8  1  0
  5  6  1  0
  7 15  2  0
  8  7  1  0
  9 10  1  0
  9  8  2  0
 10 14  2  0
 11 12  1  0
 11 10  1  0
 12 13  2  0
 13 14  1  0
 14 15  1  0
 16  3  1  0
 17 16  2  0
 18 17  1  0
 19 20  1  0
 19 18  2  0
 20 21  2  0
 21 16  1  0
 22 23  2  0
 22 20  1  0
 24 23  1  0
 25 24  2  0
 26 25  1  0
 26 27  2  0
 27 22  1  0
  1 28  1  0
  2 29  1  0
  7 30  1  0
  9 31  1  0
 11 32  1  0
 12 33  1  0
 15 34  1  0
 17 35  1  0
 18 36  1  0
 23 37  1  0
 24 38  1  0
 25 39  1  0
 26 40  1  0
 27 41  1  0
M  ISO  8  28  14  29  14  30  14  31  14  32   9  33  14  34  14  35  14
M  ISO  6  36  14  37  14  38  14  39  14  40  14  41  14
M  END
>  <minimizedAffinity>  (1) 
-7.64228153

>  <minimizedRMSD>  (1) 
1.70765507

$$$$
