
     RDKit          3D

 29 31  0  0  0  0  0  0  0  0999 V2000
   35.8930   29.2290   49.7590 C   0  0  0  0  0  0  0  0  0  0  0  0
   34.8700   29.8680   50.4020 C   0  0  0  0  0  0  0  0  0  0  0  0
   33.6840   29.2730   49.9750 C   0  0  0  0  0  0  0  0  0  0  0  0
   34.0680   28.2850   49.0790 C   0  0  0  0  0  0  0  0  0  0  0  0
   35.3730   28.3110   48.9960 O   0  0  0  0  0  0  0  0  0  0  0  0
   33.1040   27.4220   48.4000 C   0  0  0  0  0  0  0  0  0  0  0  0
   33.4780   26.3950   47.5560 C   0  0  0  0  0  0  0  0  0  0  0  0
   32.5630   25.5830   46.9180 C   0  0  0  0  0  0  0  0  0  0  0  0
   31.2210   25.8130   47.1360 C   0  0  0  0  0  0  0  0  0  0  0  0
   30.7780   26.8280   47.9720 C   0  0  0  0  0  0  0  0  0  0  0  0
   31.7440   27.5960   48.5740 C   0  0  0  0  0  0  0  0  0  0  0  0
   37.2820   29.6040   49.9760 C   0  0  0  0  0  0  0  0  0  0  0  0
   37.9310   29.0210   50.8730 O   0  0  0  0  0  0  0  0  0  0  0  0
   37.8350   30.6380   49.1330 C   0  0  0  0  0  0  0  0  0  0  0  0
   38.1670   31.8470   49.7470 C   0  0  0  0  0  0  0  0  0  0  0  0
   38.7000   32.8660   48.9690 C   0  0  0  0  0  0  0  0  0  0  0  0
   38.8710   32.6210   47.6330 N   0  0  0  0  0  0  0  0  0  0  0  0
   38.5440   31.4500   47.0660 C   0  0  0  0  0  0  0  0  0  0  0  0
   38.0280   30.4600   47.8090 N   0  0  0  0  0  0  0  0  0  0  0  0
   34.9648   30.6954   51.1206 H   0  0  0  0  0  0  0  0  0  0  0  0
   32.6602   29.5318   50.2830 H   0  0  0  0  0  0  0  0  0  0  0  0
   34.5500   26.2169   47.3853 H   0  0  0  0  0  0  0  0  0  0  0  0
   32.8956   24.7728   46.2524 H   0  0  0  0  0  0  0  0  0  0  0  0
   30.4806   25.1737   46.6329 H   0  0  0  0  0  0  0  0  0  0  0  0
   29.7066   27.0084   48.1439 H   0  0  0  0  0  0  0  0  0  0  0  0
   31.4126   28.4056   49.2408 H   0  0  0  0  0  0  0  0  0  0  0  0
   38.0094   31.9896   50.8263 H   0  0  0  0  0  0  0  0  0  0  0  0
   38.9750   33.8354   49.4103 H   0  0  0  0  0  0  0  0  0  0  0  0
   38.6997   31.3013   45.9873 H   0  0  0  0  0  0  0  0  0  0  0  0
  1 12  1  0
  1  2  2  0
  3  2  1  0
  4  3  2  0
  5  4  1  0
  5  1  1  0
  6 11  1  0
  6  4  1  0
  7  6  2  0
  8  9  2  0
  8  7  1  0
  9 10  1  0
 10 11  2  0
 12 13  2  0
 14 15  2  0
 14 12  1  0
 16 15  1  0
 17 16  2  0
 18 17  1  0
 18 19  2  0
 19 14  1  0
  2 20  1  0
  3 21  1  0
  7 22  1  0
  8 23  1  0
  9 24  1  0
 10 25  1  0
 11 26  1  0
 15 27  1  0
 16 28  1  0
 18 29  1  0
M  ISO  8  20  14  21  14  22  14  23  14  24  14  25  14  26  14  27  14
M  ISO  2  28  14  29  14
M  END
>  <minimizedAffinity>  (1) 
-5.50607157

>  <minimizedRMSD>  (1) 
1.18627107

$$$$
