
     RDKit          3D

 35 37  0  0  0  0  0  0  0  0999 V2000
   36.0140   29.6230   48.8890 C   0  0  0  0  0  0  0  0  0  0  0  0
   35.1730   30.5190   48.3080 C   0  0  0  0  0  0  0  0  0  0  0  0
   34.0550   29.8190   47.8560 C   0  0  0  0  0  0  0  0  0  0  0  0
   34.3050   28.4890   48.2100 C   0  0  0  0  0  0  0  0  0  0  0  0
   35.4600   28.4270   48.8100 O   0  0  0  0  0  0  0  0  0  0  0  0
   33.5620   27.2360   48.0430 C   0  0  0  0  0  0  0  0  0  0  0  0
   33.6850   26.6840   46.6290 C   0  0  0  0  0  0  0  0  0  0  0  0
   33.1470   25.2690   46.6810 C   0  0  0  0  0  0  0  0  0  0  0  0
   32.2010   25.0170   47.8080 C   0  0  0  0  0  0  0  0  0  0  0  0
   31.3000   26.1880   48.1360 C   0  0  0  0  0  0  0  0  0  0  0  0
   32.0840   27.4780   48.2580 C   0  0  0  0  0  0  0  0  0  0  0  0
   37.2870   30.0120   49.4730 C   0  0  0  0  0  0  0  0  0  0  0  0
   37.6860   29.4090   50.4940 O   0  0  0  0  0  0  0  0  0  0  0  0
   38.0190   31.0870   48.8230 C   0  0  0  0  0  0  0  0  0  0  0  0
   38.1770   32.2600   49.5530 C   0  0  0  0  0  0  0  0  0  0  0  0
   38.8690   33.3140   48.9700 C   0  0  0  0  0  0  0  0  0  0  0  0
   39.3550   33.1250   47.6950 N   0  0  0  0  0  0  0  0  0  0  0  0
   39.1850   31.9850   47.0200 C   0  0  0  0  0  0  0  0  0  0  0  0
   38.5170   30.9740   47.5880 N   0  0  0  0  0  0  0  0  0  0  0  0
   35.3437   31.6014   48.2117 H   0  0  0  0  0  0  0  0  0  0  0  0
   33.1732   30.2226   47.3369 H   0  0  0  0  0  0  0  0  0  0  0  0
   33.9842   26.5289   48.7723 H   0  0  0  0  0  0  0  0  0  0  0  0
   34.7380   26.6804   46.3111 H   0  0  0  0  0  0  0  0  0  0  0  0
   33.1270   27.2994   45.9079 H   0  0  0  0  0  0  0  0  0  0  0  0
   32.6213   25.0645   45.7366 H   0  0  0  0  0  0  0  0  0  0  0  0
   34.0112   24.6070   46.8386 H   0  0  0  0  0  0  0  0  0  0  0  0
   31.5673   24.1585   47.5409 H   0  0  0  0  0  0  0  0  0  0  0  0
   32.8159   24.8317   48.7011 H   0  0  0  0  0  0  0  0  0  0  0  0
   30.5530   26.2986   47.3361 H   0  0  0  0  0  0  0  0  0  0  0  0
   30.8142   25.9880   49.1025 H   0  0  0  0  0  0  0  0  0  0  0  0
   31.9307   27.8986   49.2628 H   0  0  0  0  0  0  0  0  0  0  0  0
   31.7279   28.1789   47.4887 H   0  0  0  0  0  0  0  0  0  0  0  0
   37.7637   32.3511   50.5683 H   0  0  0  0  0  0  0  0  0  0  0  0
   39.0229   34.2624   49.5055 H   0  0  0  0  0  0  0  0  0  0  0  0
   39.5916   31.8778   46.0035 H   0  0  0  0  0  0  0  0  0  0  0  0
  1 12  1  0
  2  1  2  0
  3  4  2  0
  3  2  1  0
  4  5  1  0
  5  1  1  0
  6  4  1  0
  6 11  1  0
  7  8  1  0
  7  6  1  0
  8  9  1  0
  9 10  1  0
 10 11  1  0
 12 13  2  0
 14 12  1  0
 14 15  2  0
 16 15  1  0
 17 16  2  0
 18 19  2  0
 18 17  1  0
 19 14  1  0
  2 20  1  0
  3 21  1  0
  6 22  1  0
  7 23  1  0
  7 24  1  0
  8 25  1  0
  8 26  1  0
  9 27  1  0
  9 28  1  0
 10 29  1  0
 10 30  1  0
 11 31  1  0
 11 32  1  0
 15 33  1  0
 16 34  1  0
 18 35  1  0
M  ISO  8  20  14  21  14  22  13  23  13  24  13  25  13  26  13  27  13
M  ISO  8  28  13  29  13  30  13  31  13  32  13  33  14  34  14  35  14
M  END
>  <minimizedAffinity>  (1) 
-5.38276815

>  <minimizedRMSD>  (1) 
1.81129074

$$$$
