
     RDKit          3D

 24 25  0  0  0  0  0  0  0  0999 V2000
   37.3590   30.2880   50.5480 C   0  0  0  0  0  0  0  0  0  0  0  0
   36.7710   30.7280   49.3500 C   0  0  0  0  0  0  0  0  0  0  0  0
   35.4290   30.4110   49.1350 C   0  0  0  0  0  0  0  0  0  0  0  0
   34.7660   29.6890   50.1030 N   0  0  0  0  0  0  0  0  0  0  0  0
   35.3780   29.2920   51.2320 C   0  0  0  0  0  0  0  0  0  0  0  0
   36.6750   29.5820   51.4740 N   0  0  0  0  0  0  0  0  0  0  0  0
   37.5040   31.4720   48.3820 N   0  0  0  0  0  0  0  0  0  0  0  0
   37.2790   31.1850   46.9600 C   0  0  0  0  0  0  0  0  0  0  0  0
   38.2960   31.8070   46.0790 C   0  0  0  0  0  0  0  0  0  0  0  0
   39.5070   32.0580   46.8030 N   0  0  0  0  0  0  0  0  0  0  0  0
   39.1930   33.1310   47.7520 C   0  0  0  0  0  0  0  0  0  0  0  0
   38.4340   32.4730   48.8680 C   0  0  0  0  0  0  0  0  0  0  0  0
   38.4156   30.5275   50.7386 H   0  0  0  0  0  0  0  0  0  0  0  0
   34.9141   30.7293   48.2166 H   0  0  0  0  0  0  0  0  0  0  0  0
   34.8088   28.7169   51.9771 H   0  0  0  0  0  0  0  0  0  0  0  0
   37.3064   30.0952   46.8131 H   0  0  0  0  0  0  0  0  0  0  0  0
   36.3016   31.6098   46.6877 H   0  0  0  0  0  0  0  0  0  0  0  0
   37.9038   32.7583   45.6902 H   0  0  0  0  0  0  0  0  0  0  0  0
   38.5155   31.1178   45.2502 H   0  0  0  0  0  0  0  0  0  0  0  0
   39.8056   31.2105   47.3065 H   0  0  0  0  0  0  0  0  0  0  0  0
   40.1175   33.5887   48.1339 H   0  0  0  0  0  0  0  0  0  0  0  0
   38.6081   33.9340   47.2798 H   0  0  0  0  0  0  0  0  0  0  0  0
   37.8712   33.2431   49.4160 H   0  0  0  0  0  0  0  0  0  0  0  0
   39.1621   31.9691   49.5206 H   0  0  0  0  0  0  0  0  0  0  0  0
  1  6  2  0
  2  1  1  0
  3  2  2  0
  3  4  1  0
  4  5  2  0
  5  6  1  0
  7 12  1  0
  7  2  1  0
  8  7  1  0
  9 10  1  0
  9  8  1  0
 10 11  1  0
 11 12  1  0
  1 13  1  0
  3 14  1  0
  5 15  1  0
  8 16  1  0
  8 17  1  0
  9 18  1  0
  9 19  1  0
 10 20  1  0
 11 21  1  0
 11 22  1  0
 12 23  1  0
 12 24  1  0
M  ISO  8  13  14  14  14  15  14  16  13  17  13  18  13  19  13  20   5
M  ISO  4  21  13  22  13  23  13  24  13
M  END
>  <minimizedAffinity>  (1) 
-3.83183932

>  <minimizedRMSD>  (1) 
3.29519629

$$$$
