
     RDKit          3D

 26 28  0  0  0  0  0  0  0  0999 V2000
   35.7850   29.5010   48.8090 C   0  0  0  0  0  0  0  0  0  0  0  0
   35.2190   30.3110   47.8580 C   0  0  0  0  0  0  0  0  0  0  0  0
   33.9980   29.7270   47.4860 C   0  0  0  0  0  0  0  0  0  0  0  0
   33.9060   28.5770   48.2540 C   0  0  0  0  0  0  0  0  0  0  0  0
   34.9680   28.4960   49.0030 O   0  0  0  0  0  0  0  0  0  0  0  0
   32.8040   27.5950   48.2470 C   0  0  0  0  0  0  0  0  0  0  0  0
   32.8320   26.3530   47.6480 C   0  0  0  0  0  0  0  0  0  0  0  0
   31.6110   25.7450   47.8670 C   0  0  0  0  0  0  0  0  0  0  0  0
   30.8830   26.6760   48.6070 C   0  0  0  0  0  0  0  0  0  0  0  0
   31.6160   27.7460   48.8090 O   0  0  0  0  0  0  0  0  0  0  0  0
   37.0620   29.8030   49.4200 C   0  0  0  0  0  0  0  0  0  0  0  0
   37.4640   29.1070   50.3610 O   0  0  0  0  0  0  0  0  0  0  0  0
   37.8030   30.9320   48.8710 C   0  0  0  0  0  0  0  0  0  0  0  0
   37.8390   32.0850   49.6560 C   0  0  0  0  0  0  0  0  0  0  0  0
   38.5390   33.1990   49.1720 C   0  0  0  0  0  0  0  0  0  0  0  0
   39.1450   33.0620   47.9390 N   0  0  0  0  0  0  0  0  0  0  0  0
   39.0910   31.9470   47.2140 C   0  0  0  0  0  0  0  0  0  0  0  0
   38.4200   30.8780   47.6770 N   0  0  0  0  0  0  0  0  0  0  0  0
   35.6431   31.2449   47.4606 H   0  0  0  0  0  0  0  0  0  0  0  0
   33.2734   30.1001   46.7473 H   0  0  0  0  0  0  0  0  0  0  0  0
   33.6783   25.9220   47.0931 H   0  0  0  0  0  0  0  0  0  0  0  0
   31.2857   24.7489   47.5324 H   0  0  0  0  0  0  0  0  0  0  0  0
   29.8529   26.5354   48.9662 H   0  0  0  0  0  0  0  0  0  0  0  0
   37.3305   32.1190   50.6308 H   0  0  0  0  0  0  0  0  0  0  0  0
   38.6023   34.1353   49.7458 H   0  0  0  0  0  0  0  0  0  0  0  0
   39.5948   31.9003   46.2373 H   0  0  0  0  0  0  0  0  0  0  0  0
  1  5  1  0
  1 11  1  0
  2  1  2  0
  3  2  1  0
  3  4  2  0
  4  5  1  0
  6  4  1  0
  6 10  1  0
  7  8  1  0
  7  6  2  0
  8  9  2  0
  9 10  1  0
 11 12  2  0
 13 11  1  0
 13 14  2  0
 15 14  1  0
 16 15  2  0
 17 18  2  0
 17 16  1  0
 18 13  1  0
  2 19  1  0
  3 20  1  0
  7 21  1  0
  8 22  1  0
  9 23  1  0
 14 24  1  0
 15 25  1  0
 17 26  1  0
M  ISO  8  19  14  20  14  21  14  22  14  23  14  24  14  25  14  26  14
M  END
>  <minimizedAffinity>  (1) 
-5.35920763

>  <minimizedRMSD>  (1) 
1.5824728

$$$$
