
     RDKit          3D

 28 30  0  0  0  0  0  0  0  0999 V2000
   36.1330   29.7230   49.8650 C   0  0  0  0  0  0  0  0  0  0  0  0
   35.0380   29.5500   50.6650 C   0  0  0  0  0  0  0  0  0  0  0  0
   34.0990   28.8200   49.9200 C   0  0  0  0  0  0  0  0  0  0  0  0
   34.6990   28.5970   48.6960 C   0  0  0  0  0  0  0  0  0  0  0  0
   35.8830   29.1390   48.7060 O   0  0  0  0  0  0  0  0  0  0  0  0
   34.0910   27.8700   47.5870 C   0  0  0  0  0  0  0  0  0  0  0  0
   33.7680   26.5370   47.7190 C   0  0  0  0  0  0  0  0  0  0  0  0
   33.1910   25.8240   46.6870 C   0  0  0  0  0  0  0  0  0  0  0  0
   32.9270   26.4680   45.4720 C   0  0  0  0  0  0  0  0  0  0  0  0
   33.2660   27.8220   45.3680 C   0  0  0  0  0  0  0  0  0  0  0  0
   33.8350   28.4830   46.4170 N   0  0  0  0  0  0  0  0  0  0  0  0
   37.3160   30.4370   50.3000 C   0  0  0  0  0  0  0  0  0  0  0  0
   37.7090   30.2930   51.4810 O   0  0  0  0  0  0  0  0  0  0  0  0
   37.9800   31.2830   49.3390 C   0  0  0  0  0  0  0  0  0  0  0  0
   38.2730   32.5850   49.7220 C   0  0  0  0  0  0  0  0  0  0  0  0
   38.9100   33.4330   48.8290 C   0  0  0  0  0  0  0  0  0  0  0  0
   39.2180   32.9130   47.5880 N   0  0  0  0  0  0  0  0  0  0  0  0
   38.9260   31.6510   47.2350 C   0  0  0  0  0  0  0  0  0  0  0  0
   38.3110   30.8450   48.1070 N   0  0  0  0  0  0  0  0  0  0  0  0
   34.9162   29.9136   51.6960 H   0  0  0  0  0  0  0  0  0  0  0  0
   33.0987   28.4948   50.2421 H   0  0  0  0  0  0  0  0  0  0  0  0
   33.9753   26.0275   48.6716 H   0  0  0  0  0  0  0  0  0  0  0  0
   32.9412   24.7608   46.8180 H   0  0  0  0  0  0  0  0  0  0  0  0
   32.4695   25.9290   44.6293 H   0  0  0  0  0  0  0  0  0  0  0  0
   33.0712   28.3600   44.4285 H   0  0  0  0  0  0  0  0  0  0  0  0
   38.0017   32.9412   50.7267 H   0  0  0  0  0  0  0  0  0  0  0  0
   39.1581   34.4707   49.0967 H   0  0  0  0  0  0  0  0  0  0  0  0
   39.1914   31.2818   46.2334 H   0  0  0  0  0  0  0  0  0  0  0  0
  1 12  1  0
  1  2  2  0
  3  2  1  0
  4  5  1  0
  4  3  2  0
  5  1  1  0
  6  7  2  0
  6  4  1  0
  8  7  1  0
  9  8  2  0
 10  9  1  0
 10 11  2  0
 11  6  1  0
 12 13  2  0
 14 15  2  0
 14 12  1  0
 16 15  1  0
 17 16  2  0
 18 17  1  0
 18 19  2  0
 19 14  1  0
  2 20  1  0
  3 21  1  0
  7 22  1  0
  8 23  1  0
  9 24  1  0
 10 25  1  0
 15 26  1  0
 16 27  1  0
 18 28  1  0
M  ISO  8  20  14  21  14  22  14  23  14  24  14  25  14  26  14  27  14
M  ISO  1  28  14
M  END
>  <minimizedAffinity>  (1) 
-5.32136011

>  <minimizedRMSD>  (1) 
1.56297171

$$$$
