
     RDKit          3D

 14 14  0  0  0  0  0  0  0  0999 V2000
   36.6280   29.7290   51.1820 C   0  0  0  0  0  0  0  0  0  0  0  0
   37.2520   29.9670   49.9290 C   0  0  0  0  0  0  0  0  0  0  0  0
   36.5440   29.6310   48.7760 C   0  0  0  0  0  0  0  0  0  0  0  0
   35.3060   29.0990   48.9000 N   0  0  0  0  0  0  0  0  0  0  0  0
   34.7310   28.8820   50.1080 C   0  0  0  0  0  0  0  0  0  0  0  0
   35.3920   29.1970   51.2270 N   0  0  0  0  0  0  0  0  0  0  0  0
   38.5140   31.9500   49.6950 C   0  0  0  0  0  0  0  0  0  0  0  0
   37.5600   32.7690   49.5360 O   0  0  0  0  0  0  0  0  0  0  0  0
   38.5560   30.5290   49.9010 N   0  0  0  0  0  0  0  0  0  0  0  0
   37.1540   29.9791   52.1152 H   0  0  0  0  0  0  0  0  0  0  0  0
   36.9846   29.7957   47.7816 H   0  0  0  0  0  0  0  0  0  0  0  0
   33.7222   28.4475   50.1679 H   0  0  0  0  0  0  0  0  0  0  0  0
   39.5077   32.4211   49.6703 H   0  0  0  0  0  0  0  0  0  0  0  0
   39.4236   29.9855   50.0143 H   0  0  0  0  0  0  0  0  0  0  0  0
  1  6  2  0
  2  1  1  0
  3  4  1  0
  3  2  2  0
  4  5  2  0
  5  6  1  0
  7  9  1  0
  8  7  2  0
  9  2  1  0
  1 10  1  0
  3 11  1  0
  5 12  1  0
  7 13  1  0
  9 14  1  0
M  ISO  4  10  14  11  14  12  14  13   6
M  END
>  <minimizedAffinity>  (1) 
-3.70242214

>  <minimizedRMSD>  (1) 
1.32895863

$$$$
