
     RDKit          3D

 22 23  0  0  0  0  0  0  0  0999 V2000
   37.1030   30.2770   50.3230 C   0  0  0  0  0  0  0  0  0  0  0  0
   37.5050   30.1490   51.5060 O   0  0  0  0  0  0  0  0  0  0  0  0
   37.7860   31.1010   49.3430 C   0  0  0  0  0  0  0  0  0  0  0  0
   38.0870   32.4050   49.7170 C   0  0  0  0  0  0  0  0  0  0  0  0
   38.7460   33.2110   48.7800 C   0  0  0  0  0  0  0  0  0  0  0  0
   39.0480   32.6610   47.5610 N   0  0  0  0  0  0  0  0  0  0  0  0
   38.7410   31.4060   47.2410 C   0  0  0  0  0  0  0  0  0  0  0  0
   38.1130   30.6350   48.1340 N   0  0  0  0  0  0  0  0  0  0  0  0
   35.9140   29.5840   49.9070 C   0  0  0  0  0  0  0  0  0  0  0  0
   34.6670   29.8950   50.3910 C   0  0  0  0  0  0  0  0  0  0  0  0
   33.7580   29.0230   49.7710 C   0  0  0  0  0  0  0  0  0  0  0  0
   34.5140   28.2220   48.9350 C   0  0  0  0  0  0  0  0  0  0  0  0
   35.7580   28.5970   49.0600 O   0  0  0  0  0  0  0  0  0  0  0  0
   34.0090   27.1330   48.0560 C   0  0  0  0  0  0  0  0  0  0  0  0
   37.8178   32.7899   50.7117 H   0  0  0  0  0  0  0  0  0  0  0  0
   39.0127   34.2520   49.0147 H   0  0  0  0  0  0  0  0  0  0  0  0
   39.0020   31.0067   46.2498 H   0  0  0  0  0  0  0  0  0  0  0  0
   34.4262   30.6783   51.1248 H   0  0  0  0  0  0  0  0  0  0  0  0
   32.6688   28.9848   49.9197 H   0  0  0  0  0  0  0  0  0  0  0  0
   33.6268   26.3088   48.6761 H   0  0  0  0  0  0  0  0  0  0  0  0
   33.1986   27.5204   47.4210 H   0  0  0  0  0  0  0  0  0  0  0  0
   34.8282   26.7647   47.4210 H   0  0  0  0  0  0  0  0  0  0  0  0
  1  2  2  0
  3  4  2  0
  3  1  1  0
  5  4  1  0
  6  5  2  0
  7  6  1  0
  7  8  2  0
  8  3  1  0
  9  1  1  0
  9 10  2  0
 11 10  1  0
 12 13  1  0
 12 11  2  0
 13  9  1  0
 14 12  1  0
  4 15  1  0
  5 16  1  0
  7 17  1  0
 10 18  1  0
 11 19  1  0
 14 20  1  0
 14 21  1  0
 14 22  1  0
M  ISO  8  15  14  16  14  17  14  18  14  19  14  20   8  21   8  22   8
M  END
>  <minimizedAffinity>  (1) 
-4.92274904

>  <minimizedRMSD>  (1) 
0.385855883

$$$$
