
     RDKit          3D

 20 21  0  0  0  0  0  0  0  0999 V2000
   37.2420   30.4680   50.2570 C   0  0  0  0  0  0  0  0  0  0  0  0
   37.6110   30.3400   51.4340 O   0  0  0  0  0  0  0  0  0  0  0  0
   37.9330   31.2840   49.2780 C   0  0  0  0  0  0  0  0  0  0  0  0
   38.2890   32.5620   49.6730 C   0  0  0  0  0  0  0  0  0  0  0  0
   38.9610   33.3760   48.7450 C   0  0  0  0  0  0  0  0  0  0  0  0
   39.2210   32.8470   47.5060 N   0  0  0  0  0  0  0  0  0  0  0  0
   38.8620   31.6120   47.1610 C   0  0  0  0  0  0  0  0  0  0  0  0
   38.2240   30.8300   48.0350 N   0  0  0  0  0  0  0  0  0  0  0  0
   36.0500   29.7700   49.8190 C   0  0  0  0  0  0  0  0  0  0  0  0
   34.7950   30.2820   49.9520 C   0  0  0  0  0  0  0  0  0  0  0  0
   33.8930   29.3490   49.4270 C   0  0  0  0  0  0  0  0  0  0  0  0
   34.6830   28.2900   48.9910 C   0  0  0  0  0  0  0  0  0  0  0  0
   35.9330   28.5900   49.2440 O   0  0  0  0  0  0  0  0  0  0  0  0
   34.2640   27.1060   48.3890 O   0  0  0  0  0  0  0  0  0  0  0  0
   38.0531   32.9294   50.6826 H   0  0  0  0  0  0  0  0  0  0  0  0
   39.2675   34.4005   49.0028 H   0  0  0  0  0  0  0  0  0  0  0  0
   39.0917   31.2352   46.1534 H   0  0  0  0  0  0  0  0  0  0  0  0
   34.5361   31.2557   50.3935 H   0  0  0  0  0  0  0  0  0  0  0  0
   32.7977   29.4346   49.3713 H   0  0  0  0  0  0  0  0  0  0  0  0
   33.3002   26.9465   48.2282 H   0  0  0  0  0  0  0  0  0  0  0  0
  1  2  2  0
  3  4  2  0
  3  1  1  0
  5  4  1  0
  6  5  2  0
  7  6  1  0
  7  8  2  0
  8  3  1  0
  9 10  2  0
  9  1  1  0
 11 10  1  0
 12 13  1  0
 12 11  2  0
 13  9  1  0
 14 12  1  0
  4 15  1  0
  5 16  1  0
  7 17  1  0
 10 18  1  0
 11 19  1  0
 14 20  1  0
M  ISO  6  15  14  16  14  17  14  18  14  19  14  20   3
M  END
>  <minimizedAffinity>  (1) 
-4.72909975

>  <minimizedRMSD>  (1) 
0.229621828

$$$$
