
     RDKit          3D

 16 16  0  0  0  0  0  0  0  0999 V2000
   37.8280   30.4710   48.5050 C   0  0  0  0  0  0  0  0  0  0  0  0
   37.9050   31.2680   49.6560 C   0  0  0  0  0  0  0  0  0  0  0  0
   38.4670   32.5530   49.5180 C   0  0  0  0  0  0  0  0  0  0  0  0
   38.8960   32.9380   48.2880 N   0  0  0  0  0  0  0  0  0  0  0  0
   38.8010   32.1350   47.2050 C   0  0  0  0  0  0  0  0  0  0  0  0
   38.2650   30.8950   47.3110 N   0  0  0  0  0  0  0  0  0  0  0  0
   37.4040   30.7290   50.9190 C   0  0  0  0  0  0  0  0  0  0  0  0
   37.3420   29.2130   50.7790 C   0  0  0  0  0  0  0  0  0  0  0  0
   37.3941   29.4633   48.5847 H   0  0  0  0  0  0  0  0  0  0  0  0
   38.5559   33.2263   50.3833 H   0  0  0  0  0  0  0  0  0  0  0  0
   39.1620   32.4912   46.2289 H   0  0  0  0  0  0  0  0  0  0  0  0
   38.0834   31.0027   51.7397 H   0  0  0  0  0  0  0  0  0  0  0  0
   36.4083   31.1376   51.1462 H   0  0  0  0  0  0  0  0  0  0  0  0
   37.3232   28.7530   51.7780 H   0  0  0  0  0  0  0  0  0  0  0  0
   36.4316   28.9325   50.2290 H   0  0  0  0  0  0  0  0  0  0  0  0
   38.2264   28.8591   50.2290 H   0  0  0  0  0  0  0  0  0  0  0  0
  1  2  2  0
  2  7  1  0
  3  2  1  0
  4  3  2  0
  5  6  2  0
  5  4  1  0
  6  1  1  0
  8  7  1  0
  1  9  1  0
  3 10  1  0
  5 11  1  0
  7 12  1  0
  7 13  1  0
  8 14  1  0
  8 15  1  0
  8 16  1  0
M  ISO  8   9  14  10  14  11  14  12   8  13   8  14   8  15   8  16   8
M  END
>  <minimizedAffinity>  (1) 
-3.61464238

>  <minimizedRMSD>  (1) 
3.50476289

$$$$
