
     RDKit          3D

 32 35  0  0  0  0  0  0  0  0999 V2000
   35.8520   29.1290   49.8110 C   0  0  0  0  0  0  0  0  0  0  0  0
   34.8200   29.6270   50.5430 C   0  0  0  0  0  0  0  0  0  0  0  0
   33.6440   29.0430   50.0510 C   0  0  0  0  0  0  0  0  0  0  0  0
   34.0630   28.1990   49.0130 C   0  0  0  0  0  0  0  0  0  0  0  0
   35.3620   28.3020   48.9310 O   0  0  0  0  0  0  0  0  0  0  0  0
   33.5340   26.4240   47.3420 C   0  0  0  0  0  0  0  0  0  0  0  0
   33.1260   27.3970   48.2310 C   0  0  0  0  0  0  0  0  0  0  0  0
   31.7860   27.6680   48.4290 C   0  0  0  0  0  0  0  0  0  0  0  0
   30.8510   26.9420   47.7180 C   0  0  0  0  0  0  0  0  0  0  0  0
   29.5120   26.9940   47.7130 N   0  0  0  0  0  0  0  0  0  0  0  0
   29.0840   26.0730   46.8390 N   0  0  0  0  0  0  0  0  0  0  0  0
   30.1470   25.4500   46.3030 C   0  0  0  0  0  0  0  0  0  0  0  0
   31.3060   25.9760   46.8380 C   0  0  0  0  0  0  0  0  0  0  0  0
   32.6430   25.6870   46.6230 C   0  0  0  0  0  0  0  0  0  0  0  0
   37.2300   29.5250   50.0540 C   0  0  0  0  0  0  0  0  0  0  0  0
   37.8760   28.9610   50.9650 O   0  0  0  0  0  0  0  0  0  0  0  0
   37.7820   30.5620   49.2170 C   0  0  0  0  0  0  0  0  0  0  0  0
   38.1290   31.7610   49.8250 C   0  0  0  0  0  0  0  0  0  0  0  0
   38.6650   32.7900   49.0550 C   0  0  0  0  0  0  0  0  0  0  0  0
   38.8160   32.5470   47.7200 N   0  0  0  0  0  0  0  0  0  0  0  0
   38.4780   31.3930   47.1490 C   0  0  0  0  0  0  0  0  0  0  0  0
   37.9630   30.4080   47.9030 N   0  0  0  0  0  0  0  0  0  0  0  0
   34.8939   30.3522   51.3668 H   0  0  0  0  0  0  0  0  0  0  0  0
   32.6155   29.2108   50.4032 H   0  0  0  0  0  0  0  0  0  0  0  0
   34.6102   26.2383   47.2103 H   0  0  0  0  0  0  0  0  0  0  0  0
   31.4701   28.4466   49.1389 H   0  0  0  0  0  0  0  0  0  0  0  0
   28.9223   27.6239   48.2756 H   0  0  0  0  0  0  0  0  0  0  0  0
   30.1010   24.6456   45.5541 H   0  0  0  0  0  0  0  0  0  0  0  0
   32.9656   24.9096   45.9147 H   0  0  0  0  0  0  0  0  0  0  0  0
   37.9817   31.8970   50.9066 H   0  0  0  0  0  0  0  0  0  0  0  0
   38.9532   33.7532   49.5013 H   0  0  0  0  0  0  0  0  0  0  0  0
   38.6194   31.2472   46.0679 H   0  0  0  0  0  0  0  0  0  0  0  0
  1 15  1  0
  1  2  2  0
  3  2  1  0
  4  3  2  0
  5  4  1  0
  5  1  1  0
  6  7  2  0
  7  8  1  0
  7  4  1  0
  9  8  2  0
 10  9  1  0
 11 10  1  0
 12 13  1  0
 12 11  2  0
 13  9  1  0
 14 13  2  0
 14  6  1  0
 15 16  2  0
 17 18  2  0
 17 15  1  0
 19 18  1  0
 20 19  2  0
 21 20  1  0
 21 22  2  0
 22 17  1  0
  2 23  1  0
  3 24  1  0
  6 25  1  0
  8 26  1  0
 10 27  1  0
 12 28  1  0
 14 29  1  0
 18 30  1  0
 19 31  1  0
 21 32  1  0
M  ISO  8  23  14  24  14  25  14  26  14  27   9  28  14  29  14  30  14
M  ISO  2  31  14  32  14
M  END
>  <minimizedAffinity>  (1) 
-5.85594463

>  <minimizedRMSD>  (1) 
1.95860231

$$$$
