
     RDKit          3D

 39 43  0  0  0  0  0  0  0  0999 V2000
   35.7040   29.1150   49.8360 C   0  0  0  0  0  0  0  0  0  0  0  0
   34.6700   29.5920   50.5600 C   0  0  0  0  0  0  0  0  0  0  0  0
   33.5060   29.0080   50.0480 C   0  0  0  0  0  0  0  0  0  0  0  0
   33.9340   28.1780   49.0010 C   0  0  0  0  0  0  0  0  0  0  0  0
   35.2260   28.2920   48.9370 O   0  0  0  0  0  0  0  0  0  0  0  0
   33.4230   26.4140   47.3240 C   0  0  0  0  0  0  0  0  0  0  0  0
   33.0000   27.3890   48.2120 C   0  0  0  0  0  0  0  0  0  0  0  0
   31.6490   27.6590   48.3980 C   0  0  0  0  0  0  0  0  0  0  0  0
   30.7390   26.9180   47.6650 C   0  0  0  0  0  0  0  0  0  0  0  0
   29.4070   26.9650   47.6500 N   0  0  0  0  0  0  0  0  0  0  0  0
   28.9730   26.0470   46.7770 N   0  0  0  0  0  0  0  0  0  0  0  0
   30.0520   25.4230   46.2450 C   0  0  0  0  0  0  0  0  0  0  0  0
   31.2060   25.9580   46.7930 C   0  0  0  0  0  0  0  0  0  0  0  0
   32.5440   25.6780   46.5970 C   0  0  0  0  0  0  0  0  0  0  0  0
   37.0800   29.5060   50.0860 C   0  0  0  0  0  0  0  0  0  0  0  0
   37.7920   28.7900   50.8410 O   0  0  0  0  0  0  0  0  0  0  0  0
   37.5600   30.7040   49.4480 C   0  0  0  0  0  0  0  0  0  0  0  0
   37.3530   31.9060   50.0900 C   0  0  0  0  0  0  0  0  0  0  0  0
   37.8000   33.0880   49.5120 C   0  0  0  0  0  0  0  0  0  0  0  0
   38.4290   32.9770   48.3170 N   0  0  0  0  0  0  0  0  0  0  0  0
   38.6270   31.8120   47.6990 C   0  0  0  0  0  0  0  0  0  0  0  0
   38.1900   30.6880   48.2720 N   0  0  0  0  0  0  0  0  0  0  0  0
   39.3100   31.6970   46.4030 C   0  0  0  0  0  0  0  0  0  0  0  0
   40.1970   32.5600   45.8130 C   0  0  0  0  0  0  0  0  0  0  0  0
   40.6960   32.2190   44.5890 C   0  0  0  0  0  0  0  0  0  0  0  0
   40.2960   31.0490   44.0110 C   0  0  0  0  0  0  0  0  0  0  0  0
   39.1080   30.3570   45.3040 S   0  0  0  0  0  0  0  0  0  0  0  0
   34.7307   30.3054   51.3951 H   0  0  0  0  0  0  0  0  0  0  0  0
   32.4737   29.1662   50.3934 H   0  0  0  0  0  0  0  0  0  0  0  0
   34.5011   26.2309   47.2045 H   0  0  0  0  0  0  0  0  0  0  0  0
   31.3152   28.4345   49.1031 H   0  0  0  0  0  0  0  0  0  0  0  0
   28.8162   27.5956   48.2105 H   0  0  0  0  0  0  0  0  0  0  0  0
   30.0168   24.6183   45.4959 H   0  0  0  0  0  0  0  0  0  0  0  0
   32.8785   24.9027   45.8919 H   0  0  0  0  0  0  0  0  0  0  0  0
   36.8341   31.9296   51.0596 H   0  0  0  0  0  0  0  0  0  0  0  0
   37.6510   34.0629   49.9992 H   0  0  0  0  0  0  0  0  0  0  0  0
   40.4963   33.4951   46.3089 H   0  0  0  0  0  0  0  0  0  0  0  0
   41.4110   32.8784   44.0753 H   0  0  0  0  0  0  0  0  0  0  0  0
   40.5901   30.6201   43.0417 H   0  0  0  0  0  0  0  0  0  0  0  0
  1 15  1  0
  1  2  2  0
  3  2  1  0
  4  3  2  0
  5  4  1  0
  5  1  1  0
  6  7  2  0
  7  8  1  0
  7  4  1  0
  9  8  2  0
 10  9  1  0
 11 10  1  0
 12 11  2  0
 12 13  1  0
 13  9  1  0
 14 13  2  0
 14  6  1  0
 15 16  2  0
 17 15  1  0
 17 18  2  0
 19 18  1  0
 20 19  2  0
 21 22  2  0
 21 20  1  0
 22 17  1  0
 23 21  1  0
 24 23  2  0
 25 24  1  0
 26 25  2  0
 26 27  1  0
 27 23  1  0
  2 28  1  0
  3 29  1  0
  6 30  1  0
  8 31  1  0
 10 32  1  0
 12 33  1  0
 14 34  1  0
 18 35  1  0
 19 36  1  0
 24 37  1  0
 25 38  1  0
 26 39  1  0
M  ISO  8  28  14  29  14  30  14  31  14  32   9  33  14  34  14  35  14
M  ISO  4  36  14  37  14  38  14  39  14
M  END
>  <minimizedAffinity>  (1) 
-6.9714818

>  <minimizedRMSD>  (1) 
0.802057564

$$$$
