
     RDKit          3D

 38 41  0  0  0  0  0  0  0  0999 V2000
   35.8310   29.1530   49.8400 C   0  0  0  0  0  0  0  0  0  0  0  0
   34.7960   29.6720   50.5440 C   0  0  0  0  0  0  0  0  0  0  0  0
   33.6330   29.0930   50.0320 C   0  0  0  0  0  0  0  0  0  0  0  0
   34.0620   28.2290   49.0140 C   0  0  0  0  0  0  0  0  0  0  0  0
   35.3550   28.3140   48.9570 O   0  0  0  0  0  0  0  0  0  0  0  0
   33.5450   26.4670   47.3350 C   0  0  0  0  0  0  0  0  0  0  0  0
   33.1180   27.4340   48.2350 C   0  0  0  0  0  0  0  0  0  0  0  0
   31.7720   27.6860   48.4360 C   0  0  0  0  0  0  0  0  0  0  0  0
   30.8590   26.9430   47.7130 C   0  0  0  0  0  0  0  0  0  0  0  0
   29.5260   26.9690   47.7050 N   0  0  0  0  0  0  0  0  0  0  0  0
   29.1100   26.0540   46.8330 N   0  0  0  0  0  0  0  0  0  0  0  0
   30.1670   25.4480   46.2890 C   0  0  0  0  0  0  0  0  0  0  0  0
   31.3300   25.9880   46.8260 C   0  0  0  0  0  0  0  0  0  0  0  0
   32.6700   25.7250   46.6140 C   0  0  0  0  0  0  0  0  0  0  0  0
   37.2150   29.5340   50.1030 C   0  0  0  0  0  0  0  0  0  0  0  0
   37.8420   28.9410   51.0220 O   0  0  0  0  0  0  0  0  0  0  0  0
   37.7850   30.5730   49.2890 C   0  0  0  0  0  0  0  0  0  0  0  0
   37.9830   31.8100   49.8700 C   0  0  0  0  0  0  0  0  0  0  0  0
   38.5280   32.8510   49.1380 C   0  0  0  0  0  0  0  0  0  0  0  0
   38.8440   32.5760   47.8450 N   0  0  0  0  0  0  0  0  0  0  0  0
   38.6520   31.3790   47.2850 C   0  0  0  0  0  0  0  0  0  0  0  0
   38.1250   30.3960   48.0160 N   0  0  0  0  0  0  0  0  0  0  0  0
   38.9910   31.0610   45.8770 C   0  0  0  0  0  0  0  0  0  0  0  0
   40.4660   31.2290   45.5920 C   0  0  0  0  0  0  0  0  0  0  0  0
   34.8596   30.4067   51.3602 H   0  0  0  0  0  0  0  0  0  0  0  0
   32.5986   29.2760   50.3583 H   0  0  0  0  0  0  0  0  0  0  0  0
   34.6240   26.2984   47.2035 H   0  0  0  0  0  0  0  0  0  0  0  0
   31.4395   28.4543   49.1495 H   0  0  0  0  0  0  0  0  0  0  0  0
   28.9265   27.5859   48.2715 H   0  0  0  0  0  0  0  0  0  0  0  0
   30.1248   24.6480   45.5352 H   0  0  0  0  0  0  0  0  0  0  0  0
   33.0068   24.9578   45.9013 H   0  0  0  0  0  0  0  0  0  0  0  0
   37.7056   31.9694   50.9224 H   0  0  0  0  0  0  0  0  0  0  0  0
   38.6959   33.8450   49.5782 H   0  0  0  0  0  0  0  0  0  0  0  0
   38.7071   30.0184   45.6712 H   0  0  0  0  0  0  0  0  0  0  0  0
   38.4408   31.7611   45.2312 H   0  0  0  0  0  0  0  0  0  0  0  0
   41.0180   31.2919   46.5414 H   0  0  0  0  0  0  0  0  0  0  0  0
   40.8283   30.3663   45.0136 H   0  0  0  0  0  0  0  0  0  0  0  0
   40.6250   32.1511   45.0136 H   0  0  0  0  0  0  0  0  0  0  0  0
  1 15  1  0
  1  2  2  0
  3  2  1  0
  4  3  2  0
  5  4  1  0
  5  1  1  0
  6  7  2  0
  7  8  1  0
  7  4  1  0
  9  8  2  0
 10  9  1  0
 11 10  1  0
 12 13  1  0
 12 11  2  0
 13  9  1  0
 14 13  2  0
 14  6  1  0
 15 16  2  0
 17 18  2  0
 17 15  1  0
 19 18  1  0
 20 19  2  0
 21 20  1  0
 21 22  2  0
 22 17  1  0
 23 21  1  0
 24 23  1  0
  2 25  1  0
  3 26  1  0
  6 27  1  0
  8 28  1  0
 10 29  1  0
 12 30  1  0
 14 31  1  0
 18 32  1  0
 19 33  1  0
 23 34  1  0
 23 35  1  0
 24 36  1  0
 24 37  1  0
 24 38  1  0
M  ISO  8  25  14  26  14  27  14  28  14  29   9  30  14  31  14  32  14
M  ISO  6  33  14  34   8  35   8  36   8  37   8  38   8
M  END
>  <minimizedAffinity>  (1) 
-6.27162933

>  <minimizedRMSD>  (1) 
0.251881748

$$$$
