
     RDKit          3D

 13 13  0  0  0  0  0  0  0  0999 V2000
   37.0860   30.3340   51.0750 C   0  0  0  0  0  0  0  0  0  0  0  0
   37.4900   30.7650   49.7810 C   0  0  0  0  0  0  0  0  0  0  0  0
   36.8510   30.2050   48.6720 C   0  0  0  0  0  0  0  0  0  0  0  0
   35.8790   29.2790   48.8810 N   0  0  0  0  0  0  0  0  0  0  0  0
   35.5120   28.8830   50.1270 C   0  0  0  0  0  0  0  0  0  0  0  0
   36.1220   29.4170   51.1920 N   0  0  0  0  0  0  0  0  0  0  0  0
   38.5660   31.7840   49.7440 C   0  0  0  0  0  0  0  0  0  0  0  0
   37.5641   30.7529   51.9728 H   0  0  0  0  0  0  0  0  0  0  0  0
   37.1289   30.5073   47.6515 H   0  0  0  0  0  0  0  0  0  0  0  0
   34.7208   28.1304   50.2598 H   0  0  0  0  0  0  0  0  0  0  0  0
   38.8509   32.0538   50.7716 H   0  0  0  0  0  0  0  0  0  0  0  0
   39.4403   31.3750   49.2165 H   0  0  0  0  0  0  0  0  0  0  0  0
   38.2052   32.6793   49.2165 H   0  0  0  0  0  0  0  0  0  0  0  0
  1  6  2  0
  2  1  1  0
  3  4  1  0
  3  2  2  0
  4  5  2  0
  5  6  1  0
  7  2  1  0
  1  8  1  0
  3  9  1  0
  5 10  1  0
  7 11  1  0
  7 12  1  0
  7 13  1  0
M  ISO  6   8  14   9  14  10  14  11   8  12   8  13   8
M  END
>  <minimizedAffinity>  (1) 
-3.0327096

>  <minimizedRMSD>  (1) 
0.744642615

$$$$
