
     RDKit          3D

 31 33  0  0  1  0  0  0  0  0999 V2000
   36.8680   30.9480   50.5080 C   0  0  1  0  0  0  0  0  0  0  0  0
   36.1480   29.6940   50.4200 C   0  0  2  0  0  0  0  0  0  0  0  0
   37.4650   29.6990   51.1670 C   0  0  0  0  0  0  0  0  0  0  0  0
   37.7140   31.4360   49.3550 C   0  0  0  0  0  0  0  0  0  0  0  0
   38.1990   32.7400   49.4780 C   0  0  0  0  0  0  0  0  0  0  0  0
   38.9600   33.1980   48.3930 C   0  0  0  0  0  0  0  0  0  0  0  0
   39.1870   32.3840   47.3030 N   0  0  0  0  0  0  0  0  0  0  0  0
   38.6820   31.1160   47.2500 C   0  0  0  0  0  0  0  0  0  0  0  0
   37.9390   30.6360   48.2840 N   0  0  0  0  0  0  0  0  0  0  0  0
   36.1380   28.9990   49.2030 O   0  0  0  0  0  0  0  0  0  0  0  0
   34.8340   29.0480   48.7370 C   0  0  0  0  0  0  0  0  0  0  0  0
   34.7250   29.4550   47.2810 C   0  0  0  0  0  0  0  0  0  0  0  0
   33.2260   29.1990   47.0650 C   0  0  0  0  0  0  0  0  0  0  0  0
   32.9040   27.9850   47.9380 C   0  0  0  0  0  0  0  0  0  0  0  0
   34.1950   27.6640   48.6800 C   0  0  0  0  0  0  0  0  0  0  0  0
   36.5328   31.9541   50.8000 H   0  0  0  0  0  0  0  0  0  0  0  0
   35.1126   29.4099   50.6593 H   0  0  0  0  0  0  0  0  0  0  0  0
   38.3526   29.2110   50.7380 H   0  0  0  0  0  0  0  0  0  0  0  0
   37.8113   29.4175   52.1724 H   0  0  0  0  0  0  0  0  0  0  0  0
   37.9984   33.3628   50.3623 H   0  0  0  0  0  0  0  0  0  0  0  0
   39.3794   34.2148   48.4113 H   0  0  0  0  0  0  0  0  0  0  0  0
   38.8759   30.4829   46.3716 H   0  0  0  0  0  0  0  0  0  0  0  0
   34.3607   29.7566   49.4325 H   0  0  0  0  0  0  0  0  0  0  0  0
   34.9880   30.5121   47.1285 H   0  0  0  0  0  0  0  0  0  0  0  0
   35.3975   28.9231   46.5919 H   0  0  0  0  0  0  0  0  0  0  0  0
   32.6349   30.0710   47.3816 H   0  0  0  0  0  0  0  0  0  0  0  0
   32.9843   29.0234   46.0063 H   0  0  0  0  0  0  0  0  0  0  0  0
   32.1009   28.2256   48.6501 H   0  0  0  0  0  0  0  0  0  0  0  0
   32.5550   27.1317   47.3380 H   0  0  0  0  0  0  0  0  0  0  0  0
   33.9970   27.2663   49.6863 H   0  0  0  0  0  0  0  0  0  0  0  0
   34.8169   26.8911   48.2048 H   0  0  0  0  0  0  0  0  0  0  0  0
  1  3  1  0
  2  1  1  0
  2  3  1  0
  4  5  2  0
  4  1  1  0
  6  5  1  0
  7  6  2  0
  8  7  1  0
  8  9  2  0
  9  4  1  0
 10  2  1  0
 11 10  1  0
 12 11  1  0
 13 12  1  0
 13 14  1  0
 14 15  1  0
 15 11  1  0
  1 16  1  1
  2 17  1  1
  3 18  1  0
  3 19  1  0
  5 20  1  0
  6 21  1  0
  8 22  1  0
 11 23  1  0
 12 24  1  0
 12 25  1  0
 13 26  1  0
 13 27  1  0
 14 28  1  0
 14 29  1  0
 15 30  1  0
 15 31  1  0
M  ISO  8  16  13  17  13  18  13  19  13  20  14  21  14  22  14  23  13
M  ISO  8  24  13  25  13  26  13  27  13  28  13  29  13  30  13  31  13
M  END
>  <minimizedAffinity>  (1) 
-5.19074774

>  <minimizedRMSD>  (1) 
1.32390308

$$$$
