
     RDKit          3D

 11 11  0  0  0  0  0  0  0  0999 V2000
   37.2430   30.5480   50.9140 C   0  0  0  0  0  0  0  0  0  0  0  0
   37.1580   31.2340   49.6920 C   0  0  0  0  0  0  0  0  0  0  0  0
   36.1530   30.8390   48.8060 C   0  0  0  0  0  0  0  0  0  0  0  0
   35.3120   29.8300   49.1520 N   0  0  0  0  0  0  0  0  0  0  0  0
   35.4250   29.1870   50.3470 C   0  0  0  0  0  0  0  0  0  0  0  0
   36.3810   29.5480   51.2110 N   0  0  0  0  0  0  0  0  0  0  0  0
   38.2890   32.5570   49.2820 S   0  0  0  0  0  0  0  0  0  0  0  0
   38.0209   30.8272   51.6399 H   0  0  0  0  0  0  0  0  0  0  0  0
   36.0433   31.3420   47.8339 H   0  0  0  0  0  0  0  0  0  0  0  0
   34.7315   28.3721   50.6017 H   0  0  0  0  0  0  0  0  0  0  0  0
   38.7703   33.1200   50.4345 H   0  0  0  0  0  0  0  0  0  0  0  0
  1  6  2  0
  2  1  1  0
  3  4  1  0
  3  2  2  0
  4  5  2  0
  5  6  1  0
  7  2  1  0
  1  8  1  0
  3  9  1  0
  5 10  1  0
  7 11  1  0
M  ISO  4   8  14   9  14  10  14  11  11
M  END
>  <minimizedAffinity>  (1) 
-2.74935889

>  <minimizedRMSD>  (1) 
1.23733425

$$$$
