
     RDKit          3D

 37 39  0  0  1  0  0  0  0  0999 V2000
   36.8560   31.4040   49.0750 C   0  0  0  0  0  0  0  0  0  0  0  0
   37.2980   32.4250   49.9060 C   0  0  0  0  0  0  0  0  0  0  0  0
   38.3120   33.2230   49.3540 C   0  0  0  0  0  0  0  0  0  0  0  0
   38.7980   32.9800   48.0920 N   0  0  0  0  0  0  0  0  0  0  0  0
   38.3320   31.9690   47.3200 C   0  0  0  0  0  0  0  0  0  0  0  0
   37.3430   31.1720   47.8310 N   0  0  0  0  0  0  0  0  0  0  0  0
   38.8750   31.7670   46.0200 N   0  0  0  0  0  0  0  0  0  0  0  0
   38.2110   32.4780   44.9450 C   0  0  0  0  0  0  0  0  0  0  0  0
   38.4970   31.7770   43.6350 C   0  0  0  0  0  0  0  0  0  0  0  0
   39.9880   31.8170   43.4210 C   0  0  0  0  0  0  0  0  0  0  0  0
   40.8070   31.4450   44.6100 C   0  0  0  0  0  0  0  0  0  0  0  0
   39.9930   30.9290   45.7730 C   0  0  0  0  0  0  0  0  0  0  0  0
   35.7560   30.5440   49.6190 C   0  0  1  0  0  0  0  0  0  0  0  0
   34.9800   29.6490   48.7640 C   0  0  2  0  0  0  0  0  0  0  0  0
   36.1050   29.0420   49.5460 C   0  0  0  0  0  0  0  0  0  0  0  0
   35.1130   29.8140   47.3940 O   0  0  0  0  0  0  0  0  0  0  0  0
   34.1770   29.9330   46.4250 C   0  0  0  0  0  0  0  0  0  0  0  0
   34.2400   29.3080   45.3450 O   0  0  0  0  0  0  0  0  0  0  0  0
   33.2140   30.8390   46.8760 N   0  0  0  0  0  0  0  0  0  0  0  0
   36.8878   32.5941   50.9125 H   0  0  0  0  0  0  0  0  0  0  0  0
   38.7244   34.0567   49.9413 H   0  0  0  0  0  0  0  0  0  0  0  0
   37.1262   32.4903   45.1267 H   0  0  0  0  0  0  0  0  0  0  0  0
   38.5832   33.5122   44.9002 H   0  0  0  0  0  0  0  0  0  0  0  0
   38.1516   30.7338   43.6832 H   0  0  0  0  0  0  0  0  0  0  0  0
   37.9713   32.2725   42.8055 H   0  0  0  0  0  0  0  0  0  0  0  0
   40.2342   31.1205   42.6060 H   0  0  0  0  0  0  0  0  0  0  0  0
   40.2370   32.8638   43.1924 H   0  0  0  0  0  0  0  0  0  0  0  0
   41.5185   30.6616   44.3098 H   0  0  0  0  0  0  0  0  0  0  0  0
   41.3100   32.3614   44.9523 H   0  0  0  0  0  0  0  0  0  0  0  0
   39.6380   29.9138   45.5419 H   0  0  0  0  0  0  0  0  0  0  0  0
   40.6294   30.9186   46.6702 H   0  0  0  0  0  0  0  0  0  0  0  0
   35.4378   31.2945   50.3576 H   0  0  0  0  0  0  0  0  0  0  0  0
   33.9134   29.3962   48.6720 H   0  0  0  0  0  0  0  0  0  0  0  0
   35.8967   28.3795   50.3991 H   0  0  0  0  0  0  0  0  0  0  0  0
   37.0004   28.4463   49.3149 H   0  0  0  0  0  0  0  0  0  0  0  0
   32.4066   31.0715   46.2802 H   0  0  0  0  0  0  0  0  0  0  0  0
   33.3113   31.2745   47.8043 H   0  0  0  0  0  0  0  0  0  0  0  0
  1 13  1  0
  1  2  2  0
  3  2  1  0
  4  3  2  0
  5  6  2  0
  5  4  1  0
  6  1  1  0
  7  5  1  0
  8  7  1  0
  9  8  1  0
 10  9  1  0
 10 11  1  0
 11 12  1  0
 12  7  1  0
 14 15  1  0
 14 13  1  0
 15 13  1  0
 16 14  1  0
 17 19  1  0
 17 16  1  0
 18 17  2  0
  2 20  1  0
  3 21  1  0
  8 22  1  0
  8 23  1  0
  9 24  1  0
  9 25  1  0
 10 26  1  0
 10 27  1  0
 11 28  1  0
 11 29  1  0
 12 30  1  0
 12 31  1  0
 13 32  1  1
 14 33  1  1
 15 34  1  0
 15 35  1  0
 19 36  1  0
 19 37  1  0
M  ISO  8  20  14  21  14  22  13  23  13  24  13  25  13  26  13  27  13
M  ISO  8  28  13  29  13  30  13  31  13  32  13  33  13  34  13  35  13
M  END
>  <minimizedAffinity>  (1) 
-6.13525915

>  <minimizedRMSD>  (1) 
2.67424512

$$$$
