
     RDKit          3D

 26 27  0  0  1  0  0  0  0  0999 V2000
   36.7240   30.8000   50.6980 C   0  0  1  0  0  0  0  0  0  0  0  0
   36.0210   29.5220   50.8020 C   0  0  2  0  0  0  0  0  0  0  0  0
   37.4530   29.5570   51.2440 C   0  0  0  0  0  0  0  0  0  0  0  0
   37.3120   31.2840   49.4110 C   0  0  0  0  0  0  0  0  0  0  0  0
   38.3440   32.1990   49.5210 C   0  0  0  0  0  0  0  0  0  0  0  0
   38.8530   32.6460   48.2800 C   0  0  0  0  0  0  0  0  0  0  0  0
   38.3400   32.1890   47.0960 N   0  0  0  0  0  0  0  0  0  0  0  0
   37.3270   31.2920   47.0570 C   0  0  0  0  0  0  0  0  0  0  0  0
   36.8060   30.8320   48.2320 N   0  0  0  0  0  0  0  0  0  0  0  0
   36.9880   31.4000   44.6050 C   0  0  0  0  0  0  0  0  0  0  0  0
   37.7220   32.4220   44.5970 O   0  0  0  0  0  0  0  0  0  0  0  0
   36.7660   30.7920   45.8710 N   0  0  0  0  0  0  0  0  0  0  0  0
   35.7020   28.8770   49.6150 O   0  0  0  0  0  0  0  0  0  0  0  0
   34.5030   28.4140   49.1890 C   0  0  0  0  0  0  0  0  0  0  0  0
   34.3900   27.4630   48.4050 O   0  0  0  0  0  0  0  0  0  0  0  0
   33.4880   29.1650   49.7670 N   0  0  0  0  0  0  0  0  0  0  0  0
   36.4367   31.8111   51.0223 H   0  0  0  0  0  0  0  0  0  0  0  0
   35.0922   29.1889   51.2882 H   0  0  0  0  0  0  0  0  0  0  0  0
   38.2324   29.0614   50.6466 H   0  0  0  0  0  0  0  0  0  0  0  0
   38.0059   29.3014   52.1599 H   0  0  0  0  0  0  0  0  0  0  0  0
   38.7340   32.5479   50.4886 H   0  0  0  0  0  0  0  0  0  0  0  0
   39.6768   33.3748   48.2656 H   0  0  0  0  0  0  0  0  0  0  0  0
   36.5424   30.9988   43.6828 H   0  0  0  0  0  0  0  0  0  0  0  0
   36.1709   29.9527   45.9199 H   0  0  0  0  0  0  0  0  0  0  0  0
   32.5034   28.9508   49.5535 H   0  0  0  0  0  0  0  0  0  0  0  0
   33.7197   29.9362   50.4092 H   0  0  0  0  0  0  0  0  0  0  0  0
  1  2  1  0
  1  3  1  0
  2  3  1  0
  4  5  2  0
  4  1  1  0
  6  5  1  0
  7  6  2  0
  8  7  1  0
  8  9  2  0
  9  4  1  0
 10 12  1  0
 11 10  2  0
 12  8  1  0
 13  2  1  0
 14 13  1  0
 14 16  1  0
 15 14  2  0
  1 17  1  1
  2 18  1  1
  3 19  1  0
  3 20  1  0
  5 21  1  0
  6 22  1  0
 10 23  1  0
 12 24  1  0
 16 25  1  0
 16 26  1  0
M  ISO  7  17  13  18  13  19  13  20  13  21  14  22  14  23   6
M  END
>  <minimizedAffinity>  (1) 
-5.40496826

>  <minimizedRMSD>  (1) 
0.14969404

$$$$
