
     RDKit          3D

 20 21  0  0  0  0  0  0  0  0999 V2000
   37.9350   30.0630   49.8840 C   0  0  0  0  0  0  0  0  0  0  0  0
   37.4490   30.6770   48.7200 C   0  0  0  0  0  0  0  0  0  0  0  0
   36.0490   30.7360   48.5470 C   0  0  0  0  0  0  0  0  0  0  0  0
   35.2530   30.1920   49.5280 N   0  0  0  0  0  0  0  0  0  0  0  0
   35.7770   29.6150   50.6240 C   0  0  0  0  0  0  0  0  0  0  0  0
   37.1120   29.5490   50.8050 N   0  0  0  0  0  0  0  0  0  0  0  0
   38.6980   33.5120   49.2650 Br  0  0  0  0  0  0  0  0  0  0  0  0
   38.9400   32.4710   47.6960 C   0  0  0  0  0  0  0  0  0  0  0  0
   38.2920   31.2540   47.6800 C   0  0  0  0  0  0  0  0  0  0  0  0
   38.4210   30.4300   46.5580 C   0  0  0  0  0  0  0  0  0  0  0  0
   39.2010   30.8520   45.4770 C   0  0  0  0  0  0  0  0  0  0  0  0
   39.8090   32.0650   45.5680 C   0  0  0  0  0  0  0  0  0  0  0  0
   39.7060   32.9050   46.6570 C   0  0  0  0  0  0  0  0  0  0  0  0
   39.0217   30.0026   50.0437 H   0  0  0  0  0  0  0  0  0  0  0  0
   35.6079   31.2032   47.6541 H   0  0  0  0  0  0  0  0  0  0  0  0
   35.1061   29.1900   51.3851 H   0  0  0  0  0  0  0  0  0  0  0  0
   37.9119   29.4554   46.5258 H   0  0  0  0  0  0  0  0  0  0  0  0
   39.3190   30.2233   44.5821 H   0  0  0  0  0  0  0  0  0  0  0  0
   40.4227   32.3978   44.7179 H   0  0  0  0  0  0  0  0  0  0  0  0
   40.2177   33.8783   46.6850 H   0  0  0  0  0  0  0  0  0  0  0  0
  1  6  2  0
  2  1  1  0
  3  2  2  0
  3  4  1  0
  4  5  2  0
  5  6  1  0
  8  7  1  0
  9  8  2  0
  9  2  1  0
 10  9  1  0
 11 12  1  0
 11 10  2  0
 12 13  2  0
 13  8  1  0
  1 14  1  0
  3 15  1  0
  5 16  1  0
 10 17  1  0
 11 18  1  0
 12 19  1  0
 13 20  1  0
M  ISO  7  14  14  15  14  16  14  17  14  18  14  19  14  20  14
M  END
>  <minimizedAffinity>  (1) 
-5.09091759

>  <minimizedRMSD>  (1) 
3.47998285

$$$$
