
     RDKit          3D

 38 41  0  0  1  0  0  0  0  0999 V2000
   37.8400   32.3440   49.1910 C   0  0  0  0  0  0  0  0  0  0  0  0
   38.4390   33.4250   49.7970 C   0  0  0  0  0  0  0  0  0  0  0  0
   39.4040   34.0830   49.0300 C   0  0  0  0  0  0  0  0  0  0  0  0
   39.7040   33.6520   47.7730 N   0  0  0  0  0  0  0  0  0  0  0  0
   39.0950   32.5840   47.2060 C   0  0  0  0  0  0  0  0  0  0  0  0
   38.1530   31.9310   47.9350 N   0  0  0  0  0  0  0  0  0  0  0  0
   39.7890   33.0870   44.9300 C   0  0  0  0  0  0  0  0  0  0  0  0
   39.4280   32.1320   45.8540 C   0  0  0  0  0  0  0  0  0  0  0  0
   39.3930   30.8000   45.4820 C   0  0  0  0  0  0  0  0  0  0  0  0
   39.7060   30.3590   44.2100 C   0  0  0  0  0  0  0  0  0  0  0  0
   39.7510   29.1580   43.6040 N   0  0  0  0  0  0  0  0  0  0  0  0
   40.1360   29.3950   42.3340 C   0  0  0  0  0  0  0  0  0  0  0  0
   40.3290   30.7220   42.1420 N   0  0  0  0  0  0  0  0  0  0  0  0
   40.0670   31.3530   43.3020 C   0  0  0  0  0  0  0  0  0  0  0  0
   40.1100   32.6920   43.6450 C   0  0  0  0  0  0  0  0  0  0  0  0
   36.7940   31.5980   49.9900 C   0  0  1  0  0  0  0  0  0  0  0  0
   35.7930   30.7860   49.3370 C   0  0  2  0  0  0  0  0  0  0  0  0
   37.0270   30.0910   49.9580 C   0  0  2  0  0  0  0  0  0  0  0  0
   36.9570   29.4300   51.2900 C   0  0  0  0  0  0  0  0  0  0  0  0
   37.8310   28.3390   51.3700 F   0  0  0  0  0  0  0  0  0  0  0  0
   37.3780   30.3360   52.2500 F   0  0  0  0  0  0  0  0  0  0  0  0
   35.6780   29.0500   51.6450 F   0  0  0  0  0  0  0  0  0  0  0  0
   35.7600   30.7230   47.9860 O   0  0  0  0  0  0  0  0  0  0  0  0
   34.9100   30.3730   47.0270 C   0  0  0  0  0  0  0  0  0  0  0  0
   35.4510   29.8750   45.9890 O   0  0  0  0  0  0  0  0  0  0  0  0
   33.5820   30.6000   47.2890 N   0  0  0  0  0  0  0  0  0  0  0  0
   38.1761   33.7486   50.8149 H   0  0  0  0  0  0  0  0  0  0  0  0
   39.9265   34.9574   49.4452 H   0  0  0  0  0  0  0  0  0  0  0  0
   39.8215   34.1501   45.2108 H   0  0  0  0  0  0  0  0  0  0  0  0
   39.1014   30.0544   46.2364 H   0  0  0  0  0  0  0  0  0  0  0  0
   39.5350   28.2432   44.0253 H   0  0  0  0  0  0  0  0  0  0  0  0
   40.2737   28.6216   41.5640 H   0  0  0  0  0  0  0  0  0  0  0  0
   40.3997   33.4428   42.8951 H   0  0  0  0  0  0  0  0  0  0  0  0
   36.6803   32.3924   50.7423 H   0  0  0  0  0  0  0  0  0  0  0  0
   34.6994   30.7368   49.4452 H   0  0  0  0  0  0  0  0  0  0  0  0
   37.7592   29.3620   49.5807 H   0  0  0  0  0  0  0  0  0  0  0  0
   32.8691   30.3520   46.5882 H   0  0  0  0  0  0  0  0  0  0  0  0
   33.2983   31.0184   48.1864 H   0  0  0  0  0  0  0  0  0  0  0  0
  1  2  2  0
  1 16  1  0
  3  2  1  0
  4  3  2  0
  5  4  1  0
  5  6  2  0
  6  1  1  0
  7  8  2  0
  8  5  1  0
  9  8  1  0
 10  9  2  0
 11 10  1  0
 12 11  1  0
 13 12  2  0
 13 14  1  0
 14 15  2  0
 14 10  1  0
 15  7  1  0
 17 18  1  0
 17 16  1  0
 18 16  1  0
 18 19  1  0
 19 20  1  0
 19 22  1  0
 19 21  1  0
 23 17  1  0
 24 26  1  0
 24 23  1  0
 25 24  2  0
  2 27  1  0
  3 28  1  0
  7 29  1  0
  9 30  1  0
 11 31  1  0
 12 32  1  0
 15 33  1  0
 16 34  1  1
 17 35  1  1
 18 36  1  6
 26 37  1  0
 26 38  1  0
M  ISO  8  27  14  28  14  29  14  30  14  31   9  32  14  33  14  34  13
M  ISO  2  35  13  36  13
M  END
>  <minimizedAffinity>  (1) 
-7.7665

>  <minimizedRMSD>  (1) 
1.49587357

$$$$
