
     RDKit          3D

 21 22  0  0  0  0  0  0  0  0999 V2000
   38.5030   33.4000   49.3250 Br  0  0  0  0  0  0  0  0  0  0  0  0
   38.7680   32.3560   47.7730 C   0  0  0  0  0  0  0  0  0  0  0  0
   38.1500   31.1350   47.7630 C   0  0  0  0  0  0  0  0  0  0  0  0
   38.3030   30.3030   46.6430 C   0  0  0  0  0  0  0  0  0  0  0  0
   39.0710   30.7210   45.5590 C   0  0  0  0  0  0  0  0  0  0  0  0
   39.6530   31.9420   45.6390 C   0  0  0  0  0  0  0  0  0  0  0  0
   39.5290   32.7880   46.7190 C   0  0  0  0  0  0  0  0  0  0  0  0
   37.8120   29.9010   49.9470 C   0  0  0  0  0  0  0  0  0  0  0  0
   37.3100   30.5400   48.8100 C   0  0  0  0  0  0  0  0  0  0  0  0
   35.9200   30.6180   48.6590 C   0  0  0  0  0  0  0  0  0  0  0  0
   35.1260   30.0650   49.6320 N   0  0  0  0  0  0  0  0  0  0  0  0
   35.6620   29.4590   50.7110 C   0  0  0  0  0  0  0  0  0  0  0  0
   36.9970   29.3790   50.8650 N   0  0  0  0  0  0  0  0  0  0  0  0
   40.1320   34.0390   46.7870 O   0  0  0  0  0  0  0  0  0  0  0  0
   37.8147   29.3176   46.6214 H   0  0  0  0  0  0  0  0  0  0  0  0
   39.2002   30.0841   44.6715 H   0  0  0  0  0  0  0  0  0  0  0  0
   40.2630   32.2789   44.7879 H   0  0  0  0  0  0  0  0  0  0  0  0
   38.9005   29.8270   50.0877 H   0  0  0  0  0  0  0  0  0  0  0  0
   35.4754   31.1106   47.7817 H   0  0  0  0  0  0  0  0  0  0  0  0
   35.0001   29.0247   51.4747 H   0  0  0  0  0  0  0  0  0  0  0  0
   40.0081   34.6053   47.5895 H   0  0  0  0  0  0  0  0  0  0  0  0
  2  1  1  0
  3  2  2  0
  3  9  1  0
  4  3  1  0
  5  6  1  0
  5  4  2  0
  6  7  2  0
  7 14  1  0
  7  2  1  0
  8 13  2  0
  9  8  1  0
 10  9  2  0
 10 11  1  0
 11 12  2  0
 12 13  1  0
  4 15  1  0
  5 16  1  0
  6 17  1  0
  8 18  1  0
 10 19  1  0
 12 20  1  0
 14 21  1  0
M  ISO  7  15  14  16  14  17  14  18  14  19  14  20  14  21   3
M  END
>  <minimizedAffinity>  (1) 
-5.49514532

>  <minimizedRMSD>  (1) 
0.212922201

$$$$
