
     RDKit          3D

 24 25  0  0  1  0  0  0  0  0999 V2000
   37.2320   29.8730   51.3190 C   0  0  0  0  0  0  0  0  0  0  0  0
   37.9660   30.4400   50.2460 C   0  0  0  0  0  0  0  0  0  0  0  0
   37.2590   30.5820   49.0350 C   0  0  0  0  0  0  0  0  0  0  0  0
   35.9730   30.1800   48.9850 N   0  0  0  0  0  0  0  0  0  0  0  0
   35.3080   29.6460   50.0230 C   0  0  0  0  0  0  0  0  0  0  0  0
   35.9490   29.4960   51.1880 N   0  0  0  0  0  0  0  0  0  0  0  0
   37.9100   31.1380   47.9000 N   0  0  0  0  0  0  0  0  0  0  0  0
   38.9730   32.1310   47.9450 C   0  0  0  0  0  0  0  0  0  0  0  0
   39.2490   32.4540   46.4880 C   0  0  0  0  0  0  0  0  0  0  0  0
   37.8980   32.1570   45.8590 C   0  0  0  0  0  0  0  0  0  0  0  0
   37.6240   30.8110   46.5290 C   0  0  2  0  0  0  0  0  0  0  0  0
   36.2110   30.4980   46.3160 N   0  0  0  0  0  0  0  0  0  0  0  0
   37.7296   29.7374   52.2906 H   0  0  0  0  0  0  0  0  0  0  0  0
   39.0166   30.7483   50.3518 H   0  0  0  0  0  0  0  0  0  0  0  0
   34.2573   29.3381   49.9173 H   0  0  0  0  0  0  0  0  0  0  0  0
   38.6437   33.0296   48.4874 H   0  0  0  0  0  0  0  0  0  0  0  0
   39.8674   31.7646   48.4702 H   0  0  0  0  0  0  0  0  0  0  0  0
   39.5323   33.5086   46.3555 H   0  0  0  0  0  0  0  0  0  0  0  0
   40.0849   31.8883   46.0506 H   0  0  0  0  0  0  0  0  0  0  0  0
   37.1432   32.9123   46.1233 H   0  0  0  0  0  0  0  0  0  0  0  0
   37.8742   32.1556   44.7593 H   0  0  0  0  0  0  0  0  0  0  0  0
   38.1952   29.9421   46.1701 H   0  0  0  0  0  0  0  0  0  0  0  0
   35.7413   30.3940   47.2268 H   0  0  0  0  0  0  0  0  0  0  0  0
   35.7665   31.2609   45.7856 H   0  0  0  0  0  0  0  0  0  0  0  0
  2  1  2  0
  3  2  1  0
  4  3  2  0
  4  5  1  0
  5  6  2  0
  6  1  1  0
  7  8  1  0
  7  3  1  0
  9  8  1  0
 10  9  1  0
 10 11  1  0
 11  7  1  0
 12 11  1  0
  1 13  1  0
  2 14  1  0
  5 15  1  0
  8 16  1  0
  8 17  1  0
  9 18  1  0
  9 19  1  0
 10 20  1  0
 10 21  1  0
 11 22  1  6
 12 23  1  0
 12 24  1  0
M  ISO  8  13  14  14  14  15  14  16  13  17  13  18  13  19  13  20  13
M  ISO  4  21  13  22  13  23   5  24   5
M  END
>  <minimizedAffinity>  (1) 
-4.64245749

>  <minimizedRMSD>  (1) 
0.608651817

$$$$
