
     RDKit          3D

 25 26  0  0  1  0  0  0  0  0999 V2000
   37.3110   29.9550   51.3930 C   0  0  0  0  0  0  0  0  0  0  0  0
   38.0130   30.4930   50.2910 C   0  0  0  0  0  0  0  0  0  0  0  0
   37.3240   30.5780   49.0710 C   0  0  0  0  0  0  0  0  0  0  0  0
   36.0380   30.1470   49.0120 N   0  0  0  0  0  0  0  0  0  0  0  0
   35.4000   29.6380   50.0860 C   0  0  0  0  0  0  0  0  0  0  0  0
   36.0400   29.5450   51.2720 N   0  0  0  0  0  0  0  0  0  0  0  0
   37.9560   31.1080   47.9110 N   0  0  0  0  0  0  0  0  0  0  0  0
   38.9840   32.1460   47.9400 C   0  0  0  0  0  0  0  0  0  0  0  0
   39.1970   32.5290   46.4980 C   0  0  0  0  0  0  0  0  0  0  0  0
   37.9150   32.0860   45.8540 C   0  0  0  0  0  0  0  0  0  0  0  0
   37.7210   30.7460   46.5630 C   0  0  2  0  0  0  0  0  0  0  0  0
   36.2930   30.3240   46.3270 C   0  0  0  0  0  0  0  0  0  0  0  0
   37.8157   29.8711   52.3668 H   0  0  0  0  0  0  0  0  0  0  0  0
   39.0555   30.8310   50.3852 H   0  0  0  0  0  0  0  0  0  0  0  0
   34.3576   29.2983   49.9960 H   0  0  0  0  0  0  0  0  0  0  0  0
   38.6406   33.0132   48.5231 H   0  0  0  0  0  0  0  0  0  0  0  0
   39.9120   31.7935   48.4139 H   0  0  0  0  0  0  0  0  0  0  0  0
   39.3415   33.6143   46.3917 H   0  0  0  0  0  0  0  0  0  0  0  0
   40.0934   32.0750   46.0505 H   0  0  0  0  0  0  0  0  0  0  0  0
   37.0898   32.7829   46.0623 H   0  0  0  0  0  0  0  0  0  0  0  0
   37.9387   32.0334   44.7555 H   0  0  0  0  0  0  0  0  0  0  0  0
   38.3608   29.9122   46.2384 H   0  0  0  0  0  0  0  0  0  0  0  0
   35.7900   30.1754   47.2939 H   0  0  0  0  0  0  0  0  0  0  0  0
   35.7690   31.1057   45.7574 H   0  0  0  0  0  0  0  0  0  0  0  0
   36.2781   29.3830   45.7574 H   0  0  0  0  0  0  0  0  0  0  0  0
  2  1  2  0
  3  2  1  0
  4  3  2  0
  4  5  1  0
  5  6  2  0
  6  1  1  0
  7  8  1  0
  7  3  1  0
  9  8  1  0
 10  9  1  0
 10 11  1  0
 11  7  1  0
 12 11  1  0
  1 13  1  0
  2 14  1  0
  5 15  1  0
  8 16  1  0
  8 17  1  0
  9 18  1  0
  9 19  1  0
 10 20  1  0
 10 21  1  0
 11 22  1  6
 12 23  1  0
 12 24  1  0
 12 25  1  0
M  ISO  8  13  14  14  14  15  14  16  13  17  13  18  13  19  13  20  13
M  ISO  5  21  13  22  13  23   8  24   8  25   8
M  END
>  <minimizedAffinity>  (1) 
-4.5137372

>  <minimizedRMSD>  (1) 
0.543932199

$$$$
