
     RDKit          3D

 28 29  0  0  0  0  0  0  0  0999 V2000
   36.8870   30.1520   49.2830 C   0  0  0  0  0  0  0  0  0  0  0  0
   37.8570   30.8080   48.5100 C   0  0  0  0  0  0  0  0  0  0  0  0
   37.5870   31.0530   47.1660 C   0  0  0  0  0  0  0  0  0  0  0  0
   36.4000   30.6460   46.6670 N   0  0  0  0  0  0  0  0  0  0  0  0
   35.4700   30.0130   47.4250 C   0  0  0  0  0  0  0  0  0  0  0  0
   35.7210   29.7730   48.7210 N   0  0  0  0  0  0  0  0  0  0  0  0
   38.5220   31.7070   46.3360 N   0  0  0  0  0  0  0  0  0  0  0  0
   39.5020   32.6870   46.8130 C   0  0  0  0  0  0  0  0  0  0  0  0
   40.0780   33.3480   45.6150 C   0  0  0  0  0  0  0  0  0  0  0  0
   39.1140   32.9930   44.5490 C   0  0  0  0  0  0  0  0  0  0  0  0
   38.7300   31.5920   44.9470 C   0  0  0  0  0  0  0  0  0  0  0  0
   37.5910   31.0780   44.1290 C   0  0  0  0  0  0  0  0  0  0  0  0
   36.5710   32.0150   44.2010 F   0  0  0  0  0  0  0  0  0  0  0  0
   37.0860   29.8710   44.4970 F   0  0  0  0  0  0  0  0  0  0  0  0
   38.0090   31.1210   42.8000 F   0  0  0  0  0  0  0  0  0  0  0  0
   39.8470   30.5880   44.7520 C   0  0  0  0  0  0  0  0  0  0  0  0
   40.5310   30.6080   45.9790 F   0  0  0  0  0  0  0  0  0  0  0  0
   39.4040   29.3020   44.5800 F   0  0  0  0  0  0  0  0  0  0  0  0
   40.7720   30.9830   43.8280 F   0  0  0  0  0  0  0  0  0  0  0  0
   37.0774   29.9469   50.3468 H   0  0  0  0  0  0  0  0  0  0  0  0
   38.8117   31.1225   48.9567 H   0  0  0  0  0  0  0  0  0  0  0  0
   34.5149   29.6980   46.9794 H   0  0  0  0  0  0  0  0  0  0  0  0
   39.0088   33.4322   47.4544 H   0  0  0  0  0  0  0  0  0  0  0  0
   40.2886   32.1971   47.4057 H   0  0  0  0  0  0  0  0  0  0  0  0
   40.1334   34.4380   45.7521 H   0  0  0  0  0  0  0  0  0  0  0  0
   41.1076   33.0295   45.3947 H   0  0  0  0  0  0  0  0  0  0  0  0
   39.5871   33.0134   43.5561 H   0  0  0  0  0  0  0  0  0  0  0  0
   38.2630   33.6849   44.4649 H   0  0  0  0  0  0  0  0  0  0  0  0
  2  1  2  0
  3  2  1  0
  4  3  2  0
  4  5  1  0
  5  6  2  0
  6  1  1  0
  7  8  1  0
  7  3  1  0
  9  8  1  0
 10 11  1  0
 10  9  1  0
 11  7  1  0
 12 13  1  0
 12 14  1  0
 12 11  1  0
 15 12  1  0
 16 11  1  0
 16 17  1  0
 18 16  1  0
 19 16  1  0
  1 20  1  0
  2 21  1  0
  5 22  1  0
  8 23  1  0
  8 24  1  0
  9 25  1  0
  9 26  1  0
 10 27  1  0
 10 28  1  0
M  ISO  8  20  14  21  14  22  14  23  13  24  13  25  13  26  13  27  13
M  ISO  1  28  13
M  END
>  <minimizedAffinity>  (1) 
-5.22207308

>  <minimizedRMSD>  (1) 
2.89675498

$$$$
