
     RDKit          3D

 27 29  0  0  0  0  0  0  0  0999 V2000
   38.4440   31.2430   47.7640 Br  0  0  0  0  0  0  0  0  0  0  0  0
   37.0450   30.7180   46.5970 C   0  0  0  0  0  0  0  0  0  0  0  0
   35.9640   30.1230   47.1970 C   0  0  0  0  0  0  0  0  0  0  0  0
   34.8960   29.7110   46.3890 C   0  0  0  0  0  0  0  0  0  0  0  0
   34.9420   29.9060   45.0150 C   0  0  0  0  0  0  0  0  0  0  0  0
   36.0500   30.5050   44.5020 C   0  0  0  0  0  0  0  0  0  0  0  0
   37.1250   30.9250   45.2580 C   0  0  0  0  0  0  0  0  0  0  0  0
   36.7700   29.4440   49.5010 C   0  0  0  0  0  0  0  0  0  0  0  0
   35.7630   29.8470   48.6210 C   0  0  0  0  0  0  0  0  0  0  0  0
   34.4440   30.0040   49.1270 C   0  0  0  0  0  0  0  0  0  0  0  0
   34.2650   29.7410   50.4700 N   0  0  0  0  0  0  0  0  0  0  0  0
   35.2650   29.3580   51.2670 C   0  0  0  0  0  0  0  0  0  0  0  0
   36.5100   29.2080   50.7920 N   0  0  0  0  0  0  0  0  0  0  0  0
   38.3060   31.5630   44.7050 C   0  0  0  0  0  0  0  0  0  0  0  0
   39.4100   30.8920   44.1760 C   0  0  0  0  0  0  0  0  0  0  0  0
   40.2890   31.8740   43.7690 C   0  0  0  0  0  0  0  0  0  0  0  0
   39.7470   33.0590   44.0360 N   0  0  0  0  0  0  0  0  0  0  0  0
   38.5470   32.9010   44.6020 N   0  0  0  0  0  0  0  0  0  0  0  0
   34.0175   29.2311   46.8450 H   0  0  0  0  0  0  0  0  0  0  0  0
   34.1131   29.5878   44.3656 H   0  0  0  0  0  0  0  0  0  0  0  0
   36.0918   30.6649   43.4145 H   0  0  0  0  0  0  0  0  0  0  0  0
   37.7963   29.3183   49.1255 H   0  0  0  0  0  0  0  0  0  0  0  0
   33.6100   30.3185   48.4823 H   0  0  0  0  0  0  0  0  0  0  0  0
   35.0645   29.1623   52.3307 H   0  0  0  0  0  0  0  0  0  0  0  0
   39.5501   29.8037   44.0995 H   0  0  0  0  0  0  0  0  0  0  0  0
   41.2711   31.7058   43.3029 H   0  0  0  0  0  0  0  0  0  0  0  0
   40.1887   33.9676   43.8353 H   0  0  0  0  0  0  0  0  0  0  0  0
  2  3  2  0
  2  1  1  0
  3  9  1  0
  4  3  1  0
  5  4  2  0
  6  5  1  0
  6  7  2  0
  7  2  1  0
  8 13  2  0
  9 10  2  0
  9  8  1  0
 10 11  1  0
 11 12  2  0
 13 12  1  0
 14  7  1  0
 15 14  1  0
 16 17  1  0
 16 15  2  0
 17 18  1  0
 18 14  2  0
  4 19  1  0
  5 20  1  0
  6 21  1  0
  8 22  1  0
 10 23  1  0
 12 24  1  0
 15 25  1  0
 16 26  1  0
 17 27  1  0
M  ISO  8  19  14  20  14  21  14  22  14  23  14  24  14  25  14  26  14
M  ISO  1  27   9
M  END
>  <minimizedAffinity>  (1) 
-5.03223085

>  <minimizedRMSD>  (1) 
3.30564332

$$$$
