
     RDKit          3D

 33 34  0  0  1  0  0  0  0  0999 V2000
   36.8970   29.8620   48.8300 C   0  0  0  0  0  0  0  0  0  0  0  0
   37.9060   30.4910   48.0810 C   0  0  0  0  0  0  0  0  0  0  0  0
   37.5820   30.9120   46.7800 C   0  0  0  0  0  0  0  0  0  0  0  0
   36.3260   30.6890   46.3260 N   0  0  0  0  0  0  0  0  0  0  0  0
   35.3750   30.0760   47.0780 C   0  0  0  0  0  0  0  0  0  0  0  0
   35.6680   29.6680   48.3210 N   0  0  0  0  0  0  0  0  0  0  0  0
   38.5330   31.5490   45.9660 N   0  0  0  0  0  0  0  0  0  0  0  0
   39.6330   32.3740   46.4670 C   0  0  0  0  0  0  0  0  0  0  0  0
   40.2420   33.0340   45.2760 C   0  0  0  0  0  0  0  0  0  0  0  0
   39.1740   32.9180   44.2520 C   0  0  0  0  0  0  0  0  0  0  0  0
   38.6360   31.5380   44.5500 C   0  0  2  0  0  0  0  0  0  0  0  0
   37.4340   31.2270   43.7570 C   0  0  0  0  0  0  0  0  0  0  0  0
   36.5400   32.2640   43.9450 F   0  0  0  0  0  0  0  0  0  0  0  0
   36.7840   30.0700   44.0890 F   0  0  0  0  0  0  0  0  0  0  0  0
   37.7940   31.2810   42.4190 F   0  0  0  0  0  0  0  0  0  0  0  0
   39.6820   30.5190   44.1960 C   0  0  0  0  0  0  0  0  0  0  0  0
   39.1060   29.4320   44.0720 O   0  0  0  0  0  0  0  0  0  0  0  0
   39.3590   28.3690   43.2120 C   0  0  0  0  0  0  0  0  0  0  0  0
   38.3830   27.5830   43.0500 O   0  0  0  0  0  0  0  0  0  0  0  0
   40.6070   28.1560   42.5510 N   0  0  0  0  0  0  0  0  0  0  0  0
   37.1171   29.5218   49.8526 H   0  0  0  0  0  0  0  0  0  0  0  0
   38.9119   30.6480   48.4975 H   0  0  0  0  0  0  0  0  0  0  0  0
   34.3671   29.9148   46.6680 H   0  0  0  0  0  0  0  0  0  0  0  0
   39.2518   33.1312   47.1679 H   0  0  0  0  0  0  0  0  0  0  0  0
   40.3732   31.7656   47.0073 H   0  0  0  0  0  0  0  0  0  0  0  0
   40.4777   34.0880   45.4847 H   0  0  0  0  0  0  0  0  0  0  0  0
   41.1937   32.5782   44.9654 H   0  0  0  0  0  0  0  0  0  0  0  0
   39.5832   32.9804   43.2329 H   0  0  0  0  0  0  0  0  0  0  0  0
   38.4190   33.7170   44.2923 H   0  0  0  0  0  0  0  0  0  0  0  0
   40.1729   30.7954   43.2512 H   0  0  0  0  0  0  0  0  0  0  0  0
   40.4546   30.4648   44.9771 H   0  0  0  0  0  0  0  0  0  0  0  0
   40.7270   27.3464   41.9257 H   0  0  0  0  0  0  0  0  0  0  0  0
   41.3870   28.8120   42.6996 H   0  0  0  0  0  0  0  0  0  0  0  0
  2  1  2  0
  3  2  1  0
  4  3  2  0
  4  5  1  0
  5  6  2  0
  6  1  1  0
  7  8  1  0
  7  3  1  0
  9  8  1  0
 10 11  1  0
 10  9  1  0
 11 12  1  6
 11  7  1  0
 12 13  1  0
 12 14  1  0
 15 12  1  0
 16 11  1  0
 17 16  1  0
 18 17  1  0
 19 18  2  0
 20 18  1  0
  1 21  1  0
  2 22  1  0
  5 23  1  0
  8 24  1  0
  8 25  1  0
  9 26  1  0
  9 27  1  0
 10 28  1  0
 10 29  1  0
 16 30  1  0
 16 31  1  0
 20 32  1  0
 20 33  1  0
M  ISO  8  21  14  22  14  23  14  24  13  25  13  26  13  27  13  28  13
M  ISO  3  29  13  30   8  31   8
M  END
>  <minimizedAffinity>  (1) 
-4.75823784

>  <minimizedRMSD>  (1) 
0.933656216

$$$$
