
     RDKit          3D

 23 24  0  0  0  0  0  0  0  0999 V2000
   38.5990   33.3350   49.3280 Br  0  0  0  0  0  0  0  0  0  0  0  0
   38.7780   32.2880   47.7660 C   0  0  0  0  0  0  0  0  0  0  0  0
   38.1120   31.0890   47.7850 C   0  0  0  0  0  0  0  0  0  0  0  0
   38.1900   30.2440   46.6620 C   0  0  0  0  0  0  0  0  0  0  0  0
   38.9380   30.6410   45.5610 C   0  0  0  0  0  0  0  0  0  0  0  0
   39.5680   31.8450   45.6190 C   0  0  0  0  0  0  0  0  0  0  0  0
   39.5120   32.6940   46.7020 C   0  0  0  0  0  0  0  0  0  0  0  0
   37.7940   29.8640   49.9780 C   0  0  0  0  0  0  0  0  0  0  0  0
   37.2870   30.5260   48.8610 C   0  0  0  0  0  0  0  0  0  0  0  0
   35.8900   30.6610   48.7650 C   0  0  0  0  0  0  0  0  0  0  0  0
   35.1130   30.1400   49.7630 N   0  0  0  0  0  0  0  0  0  0  0  0
   35.6680   29.5070   50.8230 C   0  0  0  0  0  0  0  0  0  0  0  0
   37.0000   29.3720   50.9270 N   0  0  0  0  0  0  0  0  0  0  0  0
   40.2160   33.9810   46.7010 C   0  0  0  0  0  0  0  0  0  0  0  0
   37.6635   29.2782   46.6564 H   0  0  0  0  0  0  0  0  0  0  0  0
   39.0184   30.0014   44.6697 H   0  0  0  0  0  0  0  0  0  0  0  0
   40.1591   32.1603   44.7465 H   0  0  0  0  0  0  0  0  0  0  0  0
   38.8828   29.7444   50.0786 H   0  0  0  0  0  0  0  0  0  0  0  0
   35.4326   31.1742   47.9063 H   0  0  0  0  0  0  0  0  0  0  0  0
   35.0185   29.0973   51.6106 H   0  0  0  0  0  0  0  0  0  0  0  0
   40.3923   34.3033   47.7378 H   0  0  0  0  0  0  0  0  0  0  0  0
   41.1798   33.8714   46.1822 H   0  0  0  0  0  0  0  0  0  0  0  0
   39.6038   34.7334   46.1822 H   0  0  0  0  0  0  0  0  0  0  0  0
  2  3  2  0
  2  1  1  0
  3  9  1  0
  4  3  1  0
  5  6  1  0
  5  4  2  0
  6  7  2  0
  7  2  1  0
  8 13  2  0
  9  8  1  0
 10  9  2  0
 10 11  1  0
 11 12  2  0
 12 13  1  0
 14  7  1  0
  4 15  1  0
  5 16  1  0
  6 17  1  0
  8 18  1  0
 10 19  1  0
 12 20  1  0
 14 21  1  0
 14 22  1  0
 14 23  1  0
M  ISO  8  15  14  16  14  17  14  18  14  19  14  20  14  21   8  22   8
M  ISO  1  23   8
M  END
>  <minimizedAffinity>  (1) 
-5.01631355

>  <minimizedRMSD>  (1) 
0.278209299

$$$$
