
     RDKit          3D

 37 39  0  0  1  0  0  0  0  0999 V2000
   37.7850   31.2420   49.3540 C   0  0  0  0  0  0  0  0  0  0  0  0
   38.6160   31.7530   48.3350 C   0  0  0  0  0  0  0  0  0  0  0  0
   38.1650   31.6320   47.0120 C   0  0  0  0  0  0  0  0  0  0  0  0
   36.9830   31.0440   46.7920 N   0  0  0  0  0  0  0  0  0  0  0  0
   36.2090   30.5650   47.7930 C   0  0  0  0  0  0  0  0  0  0  0  0
   36.6170   30.6680   49.0580 N   0  0  0  0  0  0  0  0  0  0  0  0
   38.9430   32.1180   45.9520 N   0  0  0  0  0  0  0  0  0  0  0  0
   39.8790   33.2420   46.0230 C   0  0  0  0  0  0  0  0  0  0  0  0
   40.3240   33.5420   44.6330 C   0  0  0  0  0  0  0  0  0  0  0  0
   39.2790   32.8960   43.8170 C   0  0  0  0  0  0  0  0  0  0  0  0
   39.0050   31.6450   44.5990 C   0  0  2  0  0  0  0  0  0  0  0  0
   37.8590   30.8540   44.0920 C   0  0  0  0  0  0  0  0  0  0  0  0
   36.7120   31.5390   44.4890 F   0  0  0  0  0  0  0  0  0  0  0  0
   37.7460   29.5770   44.5300 F   0  0  0  0  0  0  0  0  0  0  0  0
   37.8960   30.9550   42.7120 F   0  0  0  0  0  0  0  0  0  0  0  0
   40.2160   30.7810   44.5290 C   0  0  0  0  0  0  0  0  0  0  0  0
   40.4130   30.4850   43.3500 O   0  0  0  0  0  0  0  0  0  0  0  0
   40.6320   29.4000   42.5770 C   0  0  0  0  0  0  0  0  0  0  0  0
   41.7040   29.6040   41.8920 O   0  0  0  0  0  0  0  0  0  0  0  0
   40.0560   28.0560   42.2580 C   0  0  0  0  0  0  0  0  0  0  0  0
   40.2160   27.7230   40.8700 C   0  0  0  0  0  0  0  0  0  0  0  0
   39.4800   26.1360   40.7830 S   0  0  0  0  0  0  0  0  0  0  0  0
   39.0290   26.0720   42.6140 C   0  0  0  0  0  0  0  0  0  0  0  0
   39.4480   27.0970   42.9150 N   0  0  0  0  0  0  0  0  0  0  0  0
   38.1032   31.3175   50.4043 H   0  0  0  0  0  0  0  0  0  0  0  0
   39.5803   32.2279   48.5687 H   0  0  0  0  0  0  0  0  0  0  0  0
   35.2435   30.0908   47.5632 H   0  0  0  0  0  0  0  0  0  0  0  0
   39.3784   34.1210   46.4552 H   0  0  0  0  0  0  0  0  0  0  0  0
   40.7398   32.9900   46.6598 H   0  0  0  0  0  0  0  0  0  0  0  0
   40.3566   34.6264   44.4513 H   0  0  0  0  0  0  0  0  0  0  0  0
   41.3393   33.1822   44.4103 H   0  0  0  0  0  0  0  0  0  0  0  0
   39.6468   32.6638   42.8067 H   0  0  0  0  0  0  0  0  0  0  0  0
   38.3898   33.5232   43.6558 H   0  0  0  0  0  0  0  0  0  0  0  0
   41.0851   31.3262   44.9257 H   0  0  0  0  0  0  0  0  0  0  0  0
   40.0668   29.8706   45.1281 H   0  0  0  0  0  0  0  0  0  0  0  0
   40.6816   28.3135   40.0672 H   0  0  0  0  0  0  0  0  0  0  0  0
   38.5232   25.2957   43.2069 H   0  0  0  0  0  0  0  0  0  0  0  0
  2  1  2  0
  3  2  1  0
  4  3  2  0
  4  5  1  0
  5  6  2  0
  6  1  1  0
  7  8  1  0
  7  3  1  0
  9  8  1  0
 10 11  1  0
 10  9  1  0
 11 12  1  6
 11  7  1  0
 12 13  1  0
 12 14  1  0
 15 12  1  0
 16 11  1  0
 17 16  1  0
 18 17  1  0
 19 18  2  0
 20 18  1  0
 20 24  1  0
 21 20  2  0
 22 21  1  0
 22 23  1  0
 23 24  2  0
  1 25  1  0
  2 26  1  0
  5 27  1  0
  8 28  1  0
  8 29  1  0
  9 30  1  0
  9 31  1  0
 10 32  1  0
 10 33  1  0
 16 34  1  0
 16 35  1  0
 21 36  1  0
 23 37  1  0
M  ISO  8  25  14  26  14  27  14  28  13  29  13  30  13  31  13  32  13
M  ISO  5  33  13  34   8  35   8  36  14  37  14
M  END
>  <minimizedAffinity>  (1) 
-5.17733622

>  <minimizedRMSD>  (1) 
1.76342297

$$$$
