
     RDKit          3D

 38 40  0  0  1  0  0  0  0  0999 V2000
   37.9160   31.4610   49.3600 C   0  0  0  0  0  0  0  0  0  0  0  0
   38.7020   31.9430   48.2930 C   0  0  0  0  0  0  0  0  0  0  0  0
   38.2260   31.7400   46.9910 C   0  0  0  0  0  0  0  0  0  0  0  0
   37.0610   31.1060   46.8350 N   0  0  0  0  0  0  0  0  0  0  0  0
   36.3330   30.6570   47.8700 C   0  0  0  0  0  0  0  0  0  0  0  0
   36.7610   30.8360   49.1250 N   0  0  0  0  0  0  0  0  0  0  0  0
   38.9720   32.1990   45.8920 N   0  0  0  0  0  0  0  0  0  0  0  0
   39.8850   33.3490   45.9060 C   0  0  0  0  0  0  0  0  0  0  0  0
   40.2580   33.6200   44.4760 C   0  0  0  0  0  0  0  0  0  0  0  0
   39.2070   32.9140   43.7190 C   0  0  0  0  0  0  0  0  0  0  0  0
   39.0060   31.6660   44.5670 C   0  0  2  0  0  0  0  0  0  0  0  0
   37.8540   30.8450   44.1110 C   0  0  0  0  0  0  0  0  0  0  0  0
   36.7040   31.4900   44.5460 F   0  0  0  0  0  0  0  0  0  0  0  0
   37.8130   29.5720   44.5810 F   0  0  0  0  0  0  0  0  0  0  0  0
   37.8360   30.9160   42.7290 F   0  0  0  0  0  0  0  0  0  0  0  0
   40.2440   30.8490   44.4870 C   0  0  0  0  0  0  0  0  0  0  0  0
   40.3910   30.5390   43.2910 O   0  0  0  0  0  0  0  0  0  0  0  0
   40.5500   29.4010   42.5870 C   0  0  0  0  0  0  0  0  0  0  0  0
   41.7350   29.3620   42.1670 O   0  0  0  0  0  0  0  0  0  0  0  0
   40.2460   28.1310   41.9630 C   0  0  0  0  0  0  0  0  0  0  0  0
   39.5430   27.0190   42.6310 C   0  0  0  0  0  0  0  0  0  0  0  0
   38.7830   27.8410   41.6900 C   0  0  0  0  0  0  0  0  0  0  0  0
   38.2584   31.6017   50.3958 H   0  0  0  0  0  0  0  0  0  0  0  0
   39.6553   32.4602   48.4765 H   0  0  0  0  0  0  0  0  0  0  0  0
   35.3801   30.1395   47.6853 H   0  0  0  0  0  0  0  0  0  0  0  0
   39.3832   34.2264   46.3399 H   0  0  0  0  0  0  0  0  0  0  0  0
   40.7767   33.1395   46.5151 H   0  0  0  0  0  0  0  0  0  0  0  0
   40.2429   34.6987   44.2612 H   0  0  0  0  0  0  0  0  0  0  0  0
   41.2744   33.2845   44.2222 H   0  0  0  0  0  0  0  0  0  0  0  0
   38.2853   33.5114   43.6590 H   0  0  0  0  0  0  0  0  0  0  0  0
   39.4724   32.7060   42.6720 H   0  0  0  0  0  0  0  0  0  0  0  0
   41.1076   31.4342   44.8359 H   0  0  0  0  0  0  0  0  0  0  0  0
   40.1689   29.9536   45.1215 H   0  0  0  0  0  0  0  0  0  0  0  0
   41.1999   28.1832   41.4177 H   0  0  0  0  0  0  0  0  0  0  0  0
   39.7932   25.9808   42.3674 H   0  0  0  0  0  0  0  0  0  0  0  0
   39.3981   26.7266   43.6815 H   0  0  0  0  0  0  0  0  0  0  0  0
   38.0063   28.5270   42.0590 H   0  0  0  0  0  0  0  0  0  0  0  0
   38.1795   27.6450   40.7915 H   0  0  0  0  0  0  0  0  0  0  0  0
  2  1  2  0
  3  2  1  0
  4  3  2  0
  4  5  1  0
  5  6  2  0
  6  1  1  0
  7  8  1  0
  7  3  1  0
  9  8  1  0
 10  9  1  0
 10 11  1  0
 11 12  1  6
 11  7  1  0
 12 13  1  0
 12 14  1  0
 15 12  1  0
 16 11  1  0
 17 16  1  0
 18 17  1  0
 19 18  2  0
 20 18  1  0
 20 21  1  0
 22 20  1  0
 22 21  1  0
  1 23  1  0
  2 24  1  0
  5 25  1  0
  8 26  1  0
  8 27  1  0
  9 28  1  0
  9 29  1  0
 10 30  1  0
 10 31  1  0
 16 32  1  0
 16 33  1  0
 20 34  1  0
 21 35  1  0
 21 36  1  0
 22 37  1  0
 22 38  1  0
M  ISO  8  23  14  24  14  25  14  26  13  27  13  28  13  29  13  30  13
M  ISO  8  31  13  32   8  33   8  34  13  35  13  36  13  37  13  38  13
M  END
>  <minimizedAffinity>  (1) 
-4.93530941

>  <minimizedRMSD>  (1) 
1.34565341

$$$$
