
     RDKit          3D

 35 36  0  0  1  0  0  0  0  0999 V2000
   36.8680   30.2090   49.2470 C   0  0  0  0  0  0  0  0  0  0  0  0
   37.8590   30.8150   48.4550 C   0  0  0  0  0  0  0  0  0  0  0  0
   37.5640   31.0040   47.0970 C   0  0  0  0  0  0  0  0  0  0  0  0
   36.3740   30.6040   46.6300 N   0  0  0  0  0  0  0  0  0  0  0  0
   35.4490   30.0250   47.4250 C   0  0  0  0  0  0  0  0  0  0  0  0
   35.6940   29.8310   48.7120 N   0  0  0  0  0  0  0  0  0  0  0  0
   38.4970   31.5940   46.2470 N   0  0  0  0  0  0  0  0  0  0  0  0
   39.5250   32.5950   46.6430 C   0  0  0  0  0  0  0  0  0  0  0  0
   40.1110   33.1510   45.3970 C   0  0  0  0  0  0  0  0  0  0  0  0
   39.1600   32.7510   44.3540 C   0  0  0  0  0  0  0  0  0  0  0  0
   38.7220   31.4230   44.8410 C   0  0  2  0  0  0  0  0  0  0  0  0
   37.5580   30.8790   44.0510 C   0  0  0  0  0  0  0  0  0  0  0  0
   36.4600   31.6660   44.3540 F   0  0  0  0  0  0  0  0  0  0  0  0
   37.2020   29.5900   44.3140 F   0  0  0  0  0  0  0  0  0  0  0  0
   37.8490   31.1070   42.7250 F   0  0  0  0  0  0  0  0  0  0  0  0
   39.8050   30.4420   44.7270 C   0  0  2  0  0  0  0  0  0  0  0  0
   40.8780   30.7880   45.7960 N   0  0  0  0  0  0  0  0  0  0  0  0
   40.4050   30.6540   43.6650 O   0  0  0  0  0  0  0  0  0  0  0  0
   41.0170   30.0070   42.6520 C   0  0  0  0  0  0  0  0  0  0  0  0
   40.7480   30.5000   41.5520 O   0  0  0  0  0  0  0  0  0  0  0  0
   41.8860   28.9570   42.2510 N   0  0  0  0  0  0  0  0  0  0  0  0
   37.0556   30.0420   50.3180 H   0  0  0  0  0  0  0  0  0  0  0  0
   38.8236   31.1272   48.8818 H   0  0  0  0  0  0  0  0  0  0  0  0
   34.4839   29.7118   47.0002 H   0  0  0  0  0  0  0  0  0  0  0  0
   39.0587   33.3998   47.2302 H   0  0  0  0  0  0  0  0  0  0  0  0
   40.3043   32.1257   47.2614 H   0  0  0  0  0  0  0  0  0  0  0  0
   40.1899   34.2466   45.4560 H   0  0  0  0  0  0  0  0  0  0  0  0
   41.1305   32.7847   45.2061 H   0  0  0  0  0  0  0  0  0  0  0  0
   39.6498   32.6765   43.3719 H   0  0  0  0  0  0  0  0  0  0  0  0
   38.3370   33.4649   44.2023 H   0  0  0  0  0  0  0  0  0  0  0  0
   39.3887   29.4276   44.8147 H   0  0  0  0  0  0  0  0  0  0  0  0
   40.4792   30.6594   46.7369 H   0  0  0  0  0  0  0  0  0  0  0  0
   41.6912   30.1666   45.6799 H   0  0  0  0  0  0  0  0  0  0  0  0
   42.0970   28.8160   41.2528 H   0  0  0  0  0  0  0  0  0  0  0  0
   42.3050   28.3367   42.9585 H   0  0  0  0  0  0  0  0  0  0  0  0
  2  1  2  0
  3  2  1  0
  4  3  2  0
  4  5  1  0
  5  6  2  0
  6  1  1  0
  7  8  1  0
  7  3  1  0
  9  8  1  0
 10 11  1  0
 10  9  1  0
 11 12  1  6
 11  7  1  0
 12 14  1  0
 12 13  1  0
 15 12  1  0
 16 11  1  0
 16 17  1  0
 18 16  1  0
 19 18  1  0
 20 19  2  0
 21 19  1  0
  1 22  1  0
  2 23  1  0
  5 24  1  0
  8 25  1  0
  8 26  1  0
  9 27  1  0
  9 28  1  0
 10 29  1  0
 10 30  1  0
 16 31  1  6
 17 32  1  0
 17 33  1  0
 21 34  1  0
 21 35  1  0
M  ISO  8  22  14  23  14  24  14  25  13  26  13  27  13  28  13  29  13
M  ISO  4  30  13  31   8  32   5  33   5
M  END
>  <minimizedAffinity>  (1) 
-5.78080273

>  <minimizedRMSD>  (1) 
0.230709702

$$$$
