
     RDKit          3D

 22 23  0  0  0  0  0  0  0  0999 V2000
   37.2180   29.5120   50.0580 C   0  0  0  0  0  0  0  0  0  0  0  0
   37.8310   28.9630   50.9760 O   0  0  0  0  0  0  0  0  0  0  0  0
   37.7690   30.5470   49.2110 C   0  0  0  0  0  0  0  0  0  0  0  0
   38.1090   31.7570   49.8330 C   0  0  0  0  0  0  0  0  0  0  0  0
   38.6420   32.7810   49.0620 C   0  0  0  0  0  0  0  0  0  0  0  0
   38.8060   32.5500   47.7280 N   0  0  0  0  0  0  0  0  0  0  0  0
   38.4780   31.3930   47.1480 C   0  0  0  0  0  0  0  0  0  0  0  0
   37.9630   30.4080   47.8990 N   0  0  0  0  0  0  0  0  0  0  0  0
   35.8500   29.1120   49.7840 C   0  0  0  0  0  0  0  0  0  0  0  0
   34.7880   29.6240   50.4840 C   0  0  0  0  0  0  0  0  0  0  0  0
   33.6190   29.0410   49.9820 C   0  0  0  0  0  0  0  0  0  0  0  0
   34.0650   28.1860   48.9760 C   0  0  0  0  0  0  0  0  0  0  0  0
   35.3520   28.2780   48.9170 O   0  0  0  0  0  0  0  0  0  0  0  0
   33.1940   27.3310   48.1340 C   0  0  0  0  0  0  0  0  0  0  0  0
   31.9680   27.2220   48.4410 O   0  0  0  0  0  0  0  0  0  0  0  0
   33.7380   26.6890   47.0550 O   0  0  0  0  0  0  0  0  0  0  0  0
   37.9559   31.8925   50.9138 H   0  0  0  0  0  0  0  0  0  0  0  0
   38.9223   33.7451   49.5114 H   0  0  0  0  0  0  0  0  0  0  0  0
   38.6282   31.2493   46.0678 H   0  0  0  0  0  0  0  0  0  0  0  0
   34.8448   30.3628   51.2969 H   0  0  0  0  0  0  0  0  0  0  0  0
   32.5832   29.2176   50.3076 H   0  0  0  0  0  0  0  0  0  0  0  0
   34.6997   26.7985   46.8470 H   0  0  0  0  0  0  0  0  0  0  0  0
  1  2  2  0
  3  4  2  0
  3  1  1  0
  5  4  1  0
  6  5  2  0
  7  6  1  0
  7  8  2  0
  8  3  1  0
  9  1  1  0
  9 10  2  0
 11 10  1  0
 12 11  2  0
 13 12  1  0
 13  9  1  0
 14 15  2  0
 14 12  1  0
 16 14  1  0
  4 17  1  0
  5 18  1  0
  7 19  1  0
 10 20  1  0
 11 21  1  0
 16 22  1  0
M  ISO  6  17  14  18  14  19  14  20  14  21  14  22   3
M  END
>  <minimizedAffinity>  (1) 
-4.74109554

>  <minimizedRMSD>  (1) 
0.677171111

$$$$
