
     RDKit          3D

 38 41  0  0  1  0  0  0  0  0999 V2000
   35.8560   29.2300   49.7150 C   0  0  0  0  0  0  0  0  0  0  0  0
   34.7950   29.7720   50.4090 C   0  0  0  0  0  0  0  0  0  0  0  0
   33.6260   29.1660   49.9230 C   0  0  0  0  0  0  0  0  0  0  0  0
   34.0550   28.2870   48.9570 C   0  0  0  0  0  0  0  0  0  0  0  0
   35.3660   28.3580   48.8690 O   0  0  0  0  0  0  0  0  0  0  0  0
   37.2290   29.6330   49.9650 C   0  0  0  0  0  0  0  0  0  0  0  0
   37.8500   29.1180   50.9070 O   0  0  0  0  0  0  0  0  0  0  0  0
   37.7880   30.6230   49.0870 C   0  0  0  0  0  0  0  0  0  0  0  0
   38.1520   31.8390   49.6480 C   0  0  0  0  0  0  0  0  0  0  0  0
   38.6970   32.8260   48.8170 C   0  0  0  0  0  0  0  0  0  0  0  0
   38.8420   32.5310   47.4870 N   0  0  0  0  0  0  0  0  0  0  0  0
   38.4830   31.3530   46.9780 C   0  0  0  0  0  0  0  0  0  0  0  0
   37.9580   30.3980   47.7650 N   0  0  0  0  0  0  0  0  0  0  0  0
   33.2010   27.4090   48.1560 C   0  0  0  0  0  0  0  0  0  0  0  0
   31.9870   27.7580   47.9680 O   0  0  0  0  0  0  0  0  0  0  0  0
   33.7450   26.1320   47.5810 C   0  0  1  0  0  0  0  0  0  0  0  0
   32.5590   25.1960   47.1380 C   0  0  0  0  0  0  0  0  0  0  0  0
   33.5220   25.7890   46.1770 C   0  0  2  0  0  0  0  0  0  0  0  0
   34.4300   26.7350   43.4540 Cl  0  0  0  0  0  0  0  0  0  0  0  0
   35.0540   25.3380   44.3120 C   0  0  0  0  0  0  0  0  0  0  0  0
   34.6040   24.9350   45.5740 C   0  0  0  0  0  0  0  0  0  0  0  0
   35.1470   23.8240   46.1790 C   0  0  0  0  0  0  0  0  0  0  0  0
   36.1370   23.0890   45.5620 C   0  0  0  0  0  0  0  0  0  0  0  0
   36.6240   23.4430   44.3070 C   0  0  0  0  0  0  0  0  0  0  0  0
   36.0460   24.5640   43.7460 C   0  0  0  0  0  0  0  0  0  0  0  0
   34.8538   30.5371   51.1971 H   0  0  0  0  0  0  0  0  0  0  0  0
   32.5911   29.3537   50.2452 H   0  0  0  0  0  0  0  0  0  0  0  0
   38.0153   32.0240   50.7237 H   0  0  0  0  0  0  0  0  0  0  0  0
   38.9984   33.8047   49.2186 H   0  0  0  0  0  0  0  0  0  0  0  0
   38.6176   31.1602   45.9034 H   0  0  0  0  0  0  0  0  0  0  0  0
   34.6557   26.1170   48.1978 H   0  0  0  0  0  0  0  0  0  0  0  0
   32.5847   24.1192   47.3611 H   0  0  0  0  0  0  0  0  0  0  0  0
   31.4662   25.1844   47.2632 H   0  0  0  0  0  0  0  0  0  0  0  0
   33.3506   26.3529   45.2482 H   0  0  0  0  0  0  0  0  0  0  0  0
   34.7849   23.5175   47.1714 H   0  0  0  0  0  0  0  0  0  0  0  0
   36.5499   22.2058   46.0714 H   0  0  0  0  0  0  0  0  0  0  0  0
   37.4134   22.8701   43.7984 H   0  0  0  0  0  0  0  0  0  0  0  0
   36.4107   24.8690   42.7541 H   0  0  0  0  0  0  0  0  0  0  0  0
  1  6  1  0
  1  2  2  0
  3  2  1  0
  4  3  2  0
  5  4  1  0
  5  1  1  0
  6  7  2  0
  8  9  2  0
  8  6  1  0
 10  9  1  0
 11 10  2  0
 12 11  1  0
 12 13  2  0
 13  8  1  0
 14  4  1  0
 15 14  2  0
 16 14  1  0
 17 16  1  0
 18 17  1  0
 18 16  1  0
 19 20  1  0
 20 21  2  0
 21 18  1  0
 21 22  1  0
 23 22  2  0
 24 23  1  0
 25 24  2  0
 25 20  1  0
  2 26  1  0
  3 27  1  0
  9 28  1  0
 10 29  1  0
 12 30  1  0
 16 31  1  1
 17 32  1  0
 17 33  1  0
 18 34  1  6
 22 35  1  0
 23 36  1  0
 24 37  1  0
 25 38  1  0
M  ISO  8  26  14  27  14  28  14  29  14  30  14  31  13  32  13  33  13
M  ISO  5  34  13  35  14  36  14  37  14  38  14
M  END
>  <minimizedAffinity>  (1) 
-5.56706762

>  <minimizedRMSD>  (1) 
1.77922785

$$$$
