
     RDKit          3D

 20 21  0  0  0  0  0  0  0  0999 V2000
   37.2230   29.0970   50.5650 Cl  0  0  0  0  0  0  0  0  0  0  0  0
   35.9550   29.1880   49.3870 C   0  0  0  0  0  0  0  0  0  0  0  0
   35.9360   30.2220   48.4820 C   0  0  0  0  0  0  0  0  0  0  0  0
   34.9490   30.3370   47.5270 C   0  0  0  0  0  0  0  0  0  0  0  0
   33.9360   29.3900   47.4610 C   0  0  0  0  0  0  0  0  0  0  0  0
   33.9250   28.3370   48.3560 C   0  0  0  0  0  0  0  0  0  0  0  0
   32.7080   27.0740   48.3870 Cl  0  0  0  0  0  0  0  0  0  0  0  0
   34.9390   28.2700   49.2940 C   0  0  0  0  0  0  0  0  0  0  0  0
   37.9750   33.1000   49.5080 C   0  0  0  0  0  0  0  0  0  0  0  0
   39.0090   33.1100   48.5580 C   0  0  0  0  0  0  0  0  0  0  0  0
   38.9830   32.1070   47.5630 C   0  0  0  0  0  0  0  0  0  0  0  0
   37.9710   31.2050   47.5880 N   0  0  0  0  0  0  0  0  0  0  0  0
   36.9890   31.2310   48.5280 C   0  0  0  0  0  0  0  0  0  0  0  0
   37.0050   32.1820   49.4780 N   0  0  0  0  0  0  0  0  0  0  0  0
   34.9639   31.1779   46.8181 H   0  0  0  0  0  0  0  0  0  0  0  0
   33.1462   29.4773   46.7003 H   0  0  0  0  0  0  0  0  0  0  0  0
   34.9308   27.4323   50.0069 H   0  0  0  0  0  0  0  0  0  0  0  0
   37.9634   33.8670   50.2964 H   0  0  0  0  0  0  0  0  0  0  0  0
   39.8063   33.8673   48.5872 H   0  0  0  0  0  0  0  0  0  0  0  0
   39.7630   32.0593   46.7888 H   0  0  0  0  0  0  0  0  0  0  0  0
  2  1  1  0
  3 13  1  0
  3  2  2  0
  4  3  1  0
  5  4  2  0
  5  6  1  0
  6  7  1  0
  6  8  2  0
  8  2  1  0
 10  9  2  0
 11 12  2  0
 11 10  1  0
 12 13  1  0
 13 14  2  0
 14  9  1  0
  4 15  1  0
  5 16  1  0
  8 17  1  0
  9 18  1  0
 10 19  1  0
 11 20  1  0
M  ISO  6  15  14  16  14  17  14  18  14  19  14  20  14
M  END
>  <minimizedAffinity>  (1) 
-5.32355309

>  <minimizedRMSD>  (1) 
2.94923544

$$$$
