
     RDKit          3D

 38 41  0  0  1  0  0  0  0  0999 V2000
   33.1410   27.4770   48.2030 C   0  0  0  0  0  0  0  0  0  0  0  0
   31.9040   27.4160   48.5090 O   0  0  0  0  0  0  0  0  0  0  0  0
   35.8580   29.1530   49.8120 C   0  0  0  0  0  0  0  0  0  0  0  0
   34.8210   29.6460   50.5780 C   0  0  0  0  0  0  0  0  0  0  0  0
   33.6340   29.0890   50.0840 C   0  0  0  0  0  0  0  0  0  0  0  0
   34.0290   28.2840   49.0390 C   0  0  0  0  0  0  0  0  0  0  0  0
   35.3370   28.3520   48.9170 O   0  0  0  0  0  0  0  0  0  0  0  0
   37.2420   29.5250   50.0500 C   0  0  0  0  0  0  0  0  0  0  0  0
   37.8810   28.9410   50.9370 O   0  0  0  0  0  0  0  0  0  0  0  0
   37.7890   30.5670   49.2220 C   0  0  0  0  0  0  0  0  0  0  0  0
   38.1280   31.7600   49.8460 C   0  0  0  0  0  0  0  0  0  0  0  0
   38.6590   32.7900   49.0680 C   0  0  0  0  0  0  0  0  0  0  0  0
   38.8170   32.5620   47.7180 N   0  0  0  0  0  0  0  0  0  0  0  0
   38.4810   31.4030   47.1540 C   0  0  0  0  0  0  0  0  0  0  0  0
   37.9690   30.4040   47.8910 N   0  0  0  0  0  0  0  0  0  0  0  0
   33.6770   26.7330   47.0150 C   0  0  1  0  0  0  0  0  0  0  0  0
   33.7650   25.1900   47.3470 C   0  0  0  0  0  0  0  0  0  0  0  0
   32.8560   25.7440   46.3180 C   0  0  2  0  0  0  0  0  0  0  0  0
   33.0430   25.5840   44.9120 N   0  0  0  0  0  0  0  0  0  0  0  0
   34.2340   25.8950   44.3160 C   0  0  0  0  0  0  0  0  0  0  0  0
   34.4230   25.7430   42.9570 C   0  0  0  0  0  0  0  0  0  0  0  0
   33.4210   25.2710   42.1370 C   0  0  0  0  0  0  0  0  0  0  0  0
   33.7380   25.1870   40.9220 O   0  0  0  0  0  0  0  0  0  0  0  0
   32.2530   24.9670   42.7320 N   0  0  0  0  0  0  0  0  0  0  0  0
   32.1110   25.1300   44.0580 C   0  0  0  0  0  0  0  0  0  0  0  0
   30.9830   24.8130   44.4850 O   0  0  0  0  0  0  0  0  0  0  0  0
   34.9100   30.3470   51.4210 H   0  0  0  0  0  0  0  0  0  0  0  0
   32.6107   29.2578   50.4507 H   0  0  0  0  0  0  0  0  0  0  0  0
   37.9815   31.8904   50.9284 H   0  0  0  0  0  0  0  0  0  0  0  0
   38.9423   33.7529   49.5180 H   0  0  0  0  0  0  0  0  0  0  0  0
   38.6245   31.2626   46.0725 H   0  0  0  0  0  0  0  0  0  0  0  0
   34.2951   27.5616   46.6390 H   0  0  0  0  0  0  0  0  0  0  0  0
   34.6496   24.6055   47.0541 H   0  0  0  0  0  0  0  0  0  0  0  0
   33.6619   24.5625   48.2445 H   0  0  0  0  0  0  0  0  0  0  0  0
   31.7782   25.5872   46.1640 H   0  0  0  0  0  0  0  0  0  0  0  0
   35.0607   26.2752   44.9340 H   0  0  0  0  0  0  0  0  0  0  0  0
   35.3970   26.0050   42.5180 H   0  0  0  0  0  0  0  0  0  0  0  0
   31.4672   24.6091   42.1704 H   0  0  0  0  0  0  0  0  0  0  0  0
  1  2  2  0
  1  6  1  0
  3  8  1  0
  3  4  2  0
  5  4  1  0
  6  5  2  0
  7  6  1  0
  7  3  1  0
  8  9  2  0
 10 11  2  0
 10  8  1  0
 12 11  1  0
 13 12  2  0
 14 13  1  0
 14 15  2  0
 15 10  1  0
 16 17  1  0
 16  1  1  0
 18 16  1  0
 18 17  1  0
 19 18  1  0
 20 19  1  0
 21 20  2  0
 22 24  1  0
 22 21  1  0
 23 22  2  0
 24 25  1  0
 25 26  2  0
 25 19  1  0
  4 27  1  0
  5 28  1  0
 11 29  1  0
 12 30  1  0
 14 31  1  0
 16 32  1  6
 17 33  1  0
 17 34  1  0
 18 35  1  1
 20 36  1  0
 21 37  1  0
 24 38  1  0
M  ISO  8  27  14  28  14  29  14  30  14  31  14  32  13  33  13  34  13
M  ISO  4  35  13  36  14  37  14  38   9
M  END
>  <minimizedAffinity>  (1) 
-4.91632938

>  <minimizedRMSD>  (1) 
1.00755787

$$$$
