
     RDKit          3D

 21 22  0  0  0  0  0  0  0  0999 V2000
   36.4070   30.0600   50.6030 C   0  0  0  0  0  0  0  0  0  0  0  0
   36.4250   30.7710   49.4010 C   0  0  0  0  0  0  0  0  0  0  0  0
   35.3970   30.5320   48.4890 C   0  0  0  0  0  0  0  0  0  0  0  0
   34.4330   29.6270   48.8090 N   0  0  0  0  0  0  0  0  0  0  0  0
   34.4410   28.9540   49.9830 C   0  0  0  0  0  0  0  0  0  0  0  0
   35.4300   29.1770   50.8700 N   0  0  0  0  0  0  0  0  0  0  0  0
   37.3650   31.7210   48.9720 N   0  0  0  0  0  0  0  0  0  0  0  0
   37.6990   32.9980   49.5560 C   0  0  0  0  0  0  0  0  0  0  0  0
   38.9150   33.4820   48.8230 C   0  0  0  0  0  0  0  0  0  0  0  0
   39.1570   32.5560   47.6590 C   0  0  0  0  0  0  0  0  0  0  0  0
   38.1480   31.4500   47.7810 C   0  0  0  0  0  0  0  0  0  0  0  0
   37.4700   30.3790   51.4230 O   0  0  0  0  0  0  0  0  0  0  0  0
   35.3663   31.0660   47.5278 H   0  0  0  0  0  0  0  0  0  0  0  0
   33.6453   28.2297   50.2115 H   0  0  0  0  0  0  0  0  0  0  0  0
   37.1698   33.5116   50.3722 H   0  0  0  0  0  0  0  0  0  0  0  0
   39.5234   34.3591   49.0886 H   0  0  0  0  0  0  0  0  0  0  0  0
   40.1772   32.1471   47.7037 H   0  0  0  0  0  0  0  0  0  0  0  0
   39.0550   33.0853   46.7001 H   0  0  0  0  0  0  0  0  0  0  0  0
   37.4957   31.4341   46.8954 H   0  0  0  0  0  0  0  0  0  0  0  0
   38.6446   30.4710   47.8515 H   0  0  0  0  0  0  0  0  0  0  0  0
   38.1386   31.0474   51.1292 H   0  0  0  0  0  0  0  0  0  0  0  0
  1  6  2  0
  1 12  1  0
  2  1  1  0
  3  4  1  0
  3  2  2  0
  4  5  2  0
  5  6  1  0
  7  2  1  0
  7  8  1  0
  9  8  2  0
 10 11  1  0
 10  9  1  0
 11  7  1  0
  3 13  1  0
  5 14  1  0
  8 15  1  0
  9 16  1  0
 10 17  1  0
 10 18  1  0
 11 19  1  0
 11 20  1  0
 12 21  1  0
M  ISO  8  13  14  14  14  15  13  16  13  17  13  18  13  19  13  20  13
M  ISO  1  21   3
M  END
>  <minimizedAffinity>  (1) 
-4.48756695

>  <minimizedRMSD>  (1) 
2.50100636

$$$$
