
     RDKit          3D

 17 17  0  0  0  0  0  0  0  0999 V2000
   36.2290   30.6880   49.6650 C   0  0  0  0  0  0  0  0  0  0  0  0
   37.0960   30.8200   48.5710 C   0  0  0  0  0  0  0  0  0  0  0  0
   36.6050   30.6080   47.2900 C   0  0  0  0  0  0  0  0  0  0  0  0
   35.2820   30.2770   47.1700 N   0  0  0  0  0  0  0  0  0  0  0  0
   34.4730   30.1560   48.2390 C   0  0  0  0  0  0  0  0  0  0  0  0
   34.9450   30.3610   49.4760 N   0  0  0  0  0  0  0  0  0  0  0  0
   38.8230   32.5090   48.8160 C   0  0  0  0  0  0  0  0  0  0  0  0
   38.2050   33.6230   48.9750 O   0  0  0  0  0  0  0  0  0  0  0  0
   38.4470   31.1550   48.6410 N   0  0  0  0  0  0  0  0  0  0  0  0
   36.8900   30.9350   50.8510 O   0  0  0  0  0  0  0  0  0  0  0  0
   37.2750   29.9570   51.7460 C   0  0  0  0  0  0  0  0  0  0  0  0
   37.6940   28.9630   51.1110 O   0  0  0  0  0  0  0  0  0  0  0  0
   37.2533   30.7022   46.4063 H   0  0  0  0  0  0  0  0  0  0  0  0
   33.4161   29.8867   48.0958 H   0  0  0  0  0  0  0  0  0  0  0  0
   39.9154   32.6383   48.8156 H   0  0  0  0  0  0  0  0  0  0  0  0
   39.1673   30.4225   48.5659 H   0  0  0  0  0  0  0  0  0  0  0  0
   37.2220   30.0382   52.8417 H   0  0  0  0  0  0  0  0  0  0  0  0
  1 10  1  0
  2  9  1  0
  2  1  2  0
  3  2  1  0
  4  3  2  0
  4  5  1  0
  5  6  2  0
  6  1  1  0
  7  8  2  0
  9  7  1  0
 10 11  1  0
 12 11  2  0
  3 13  1  0
  5 14  1  0
  7 15  1  0
  9 16  1  0
 11 17  1  0
M  ISO  4  13  14  14  14  15   6  17   6
M  END
>  <minimizedAffinity>  (1) 
-4.01356316

>  <minimizedRMSD>  (1) 
1.69621944

$$$$
