
     RDKit          3D

 36 38  0  0  0  0  0  0  0  0999 V2000
   38.7720   31.4800   45.1410 C   0  0  0  0  0  0  0  0  0  0  0  0
   38.4310   32.0140   46.3570 C   0  0  0  0  0  0  0  0  0  0  0  0
   39.2610   32.9360   46.9780 C   0  0  0  0  0  0  0  0  0  0  0  0
   40.4450   33.3190   46.3600 C   0  0  0  0  0  0  0  0  0  0  0  0
   40.7840   32.7750   45.1260 C   0  0  0  0  0  0  0  0  0  0  0  0
   39.9360   31.8590   44.5340 C   0  0  0  0  0  0  0  0  0  0  0  0
   38.8740   33.2910   42.0920 Cl  0  0  0  0  0  0  0  0  0  0  0  0
   39.7490   31.7740   42.0400 C   0  0  0  0  0  0  0  0  0  0  0  0
   40.1860   31.2170   43.2370 C   0  0  0  0  0  0  0  0  0  0  0  0
   40.8720   30.0270   43.1750 C   0  0  0  0  0  0  0  0  0  0  0  0
   41.1490   29.3580   41.9980 C   0  0  0  0  0  0  0  0  0  0  0  0
   40.6930   29.9540   40.8400 C   0  0  0  0  0  0  0  0  0  0  0  0
   39.9980   31.1490   40.8310 C   0  0  0  0  0  0  0  0  0  0  0  0
   37.1290   29.7840   44.1070 N   0  0  0  0  0  0  0  0  0  0  0  0
   37.8540   30.5370   44.5760 C   0  0  0  0  0  0  0  0  0  0  0  0
   37.2960   31.7310   47.0850 O   0  0  0  0  0  0  0  0  0  0  0  0
   37.2570   30.9150   48.1750 C   0  0  0  0  0  0  0  0  0  0  0  0
   36.2210   29.9850   48.0900 C   0  0  0  0  0  0  0  0  0  0  0  0
   36.0150   29.0680   49.1000 C   0  0  0  0  0  0  0  0  0  0  0  0
   36.8730   29.1210   50.1740 N   0  0  0  0  0  0  0  0  0  0  0  0
   37.8680   30.0260   50.2390 C   0  0  0  0  0  0  0  0  0  0  0  0
   38.0460   30.8930   49.2630 N   0  0  0  0  0  0  0  0  0  0  0  0
   33.9980   29.3580   47.2840 C   0  0  0  0  0  0  0  0  0  0  0  0
   33.4030   28.8400   48.3110 O   0  0  0  0  0  0  0  0  0  0  0  0
   35.3210   29.8390   47.0320 N   0  0  0  0  0  0  0  0  0  0  0  0
   38.9834   33.3613   47.9538 H   0  0  0  0  0  0  0  0  0  0  0  0
   41.1106   34.0486   46.8443 H   0  0  0  0  0  0  0  0  0  0  0  0
   41.7181   33.0711   44.6262 H   0  0  0  0  0  0  0  0  0  0  0  0
   41.2210   29.5811   44.1181 H   0  0  0  0  0  0  0  0  0  0  0  0
   41.7005   28.4064   41.9850 H   0  0  0  0  0  0  0  0  0  0  0  0
   40.8916   29.4553   39.8799 H   0  0  0  0  0  0  0  0  0  0  0  0
   39.6514   31.5921   39.8857 H   0  0  0  0  0  0  0  0  0  0  0  0
   35.2022   28.3286   49.0489 H   0  0  0  0  0  0  0  0  0  0  0  0
   38.5364   30.0415   51.1125 H   0  0  0  0  0  0  0  0  0  0  0  0
   33.3375   29.4483   46.4090 H   0  0  0  0  0  0  0  0  0  0  0  0
   35.6095   30.0772   46.0724 H   0  0  0  0  0  0  0  0  0  0  0  0
  1  2  2  0
  2  3  1  0
  2 16  1  0
  4  3  2  0
  5  4  1  0
  6  5  2  0
  6  1  1  0
  8  7  1  0
  8  9  2  0
  9  6  1  0
 10  9  1  0
 11 10  2  0
 12 11  1  0
 13 12  2  0
 13  8  1  0
 14 15  3  0
 15  1  1  0
 16 17  1  0
 17 22  1  0
 18 17  2  0
 18 19  1  0
 19 20  2  0
 20 21  1  0
 22 21  2  0
 23 24  2  0
 25 23  1  0
 25 18  1  0
  3 26  1  0
  4 27  1  0
  5 28  1  0
 10 29  1  0
 11 30  1  0
 12 31  1  0
 13 32  1  0
 19 33  1  0
 21 34  1  0
 23 35  1  0
 25 36  1  0
M  ISO  8  26  14  27  14  28  14  29  14  30  14  31  14  32  14  33  14
M  ISO  2  34  14  35   6
M  END
>  <minimizedAffinity>  (1) 
-5.54481411

>  <minimizedRMSD>  (1) 
2.39450979

$$$$
