
     RDKit          3D

 33 35  0  0  0  0  0  0  0  0999 V2000
   38.1590   32.0410   46.9870 C   0  0  0  0  0  0  0  0  0  0  0  0
   37.8350   32.4810   48.2570 C   0  0  0  0  0  0  0  0  0  0  0  0
   38.6380   33.4030   48.9070 C   0  0  0  0  0  0  0  0  0  0  0  0
   39.7770   33.8870   48.2760 C   0  0  0  0  0  0  0  0  0  0  0  0
   40.0960   33.4450   47.0070 C   0  0  0  0  0  0  0  0  0  0  0  0
   39.2800   32.5300   46.3880 C   0  0  0  0  0  0  0  0  0  0  0  0
   39.6390   32.0780   45.0490 C   0  0  0  0  0  0  0  0  0  0  0  0
   40.4350   31.0370   44.6800 C   0  0  0  0  0  0  0  0  0  0  0  0
   40.6520   30.7700   43.3810 C   0  0  0  0  0  0  0  0  0  0  0  0
   40.0080   31.6280   42.4700 C   0  0  0  0  0  0  0  0  0  0  0  0
   39.0860   32.8260   43.5690 S   0  0  0  0  0  0  0  0  0  0  0  0
   36.5530   30.3510   45.9040 N   0  0  0  0  0  0  0  0  0  0  0  0
   37.2730   31.0970   46.3940 C   0  0  0  0  0  0  0  0  0  0  0  0
   36.7410   32.0880   48.9990 O   0  0  0  0  0  0  0  0  0  0  0  0
   36.7580   31.1270   49.9610 C   0  0  0  0  0  0  0  0  0  0  0  0
   35.5760   30.3840   49.9820 C   0  0  0  0  0  0  0  0  0  0  0  0
   35.4100   29.3640   50.8880 C   0  0  0  0  0  0  0  0  0  0  0  0
   36.4400   29.1160   51.7560 N   0  0  0  0  0  0  0  0  0  0  0  0
   37.5740   29.8410   51.7240 C   0  0  0  0  0  0  0  0  0  0  0  0
   37.7240   30.8200   50.8470 N   0  0  0  0  0  0  0  0  0  0  0  0
   34.0970   29.4820   48.2530 C   0  0  0  0  0  0  0  0  0  0  0  0
   34.6240   28.3410   47.9310 O   0  0  0  0  0  0  0  0  0  0  0  0
   34.4830   30.5440   49.1250 N   0  0  0  0  0  0  0  0  0  0  0  0
   38.3755   33.7502   49.9172 H   0  0  0  0  0  0  0  0  0  0  0  0
   40.4218   34.6188   48.7846 H   0  0  0  0  0  0  0  0  0  0  0  0
   40.9948   33.8221   46.4971 H   0  0  0  0  0  0  0  0  0  0  0  0
   40.9045   30.4092   45.4517 H   0  0  0  0  0  0  0  0  0  0  0  0
   41.2902   29.9367   43.0518 H   0  0  0  0  0  0  0  0  0  0  0  0
   40.0398   31.6001   41.3708 H   0  0  0  0  0  0  0  0  0  0  0  0
   34.4850   28.7693   50.9150 H   0  0  0  0  0  0  0  0  0  0  0  0
   38.3837   29.6171   52.4341 H   0  0  0  0  0  0  0  0  0  0  0  0
   33.1423   29.6730   47.7412 H   0  0  0  0  0  0  0  0  0  0  0  0
   33.9559   31.4289   49.1229 H   0  0  0  0  0  0  0  0  0  0  0  0
  1  2  2  0
  2  3  1  0
  2 14  1  0
  4  3  2  0
  5  4  1  0
  6  1  1  0
  6  5  2  0
  7  6  1  0
  8  7  2  0
  9  8  1  0
 10  9  2  0
 10 11  1  0
 11  7  1  0
 12 13  3  0
 13  1  1  0
 14 15  1  0
 15 16  2  0
 15 20  1  0
 16 17  1  0
 17 18  2  0
 19 18  1  0
 20 19  2  0
 21 23  1  0
 22 21  2  0
 23 16  1  0
  3 24  1  0
  4 25  1  0
  5 26  1  0
  8 27  1  0
  9 28  1  0
 10 29  1  0
 17 30  1  0
 19 31  1  0
 21 32  1  0
 23 33  1  0
M  ISO  8  24  14  25  14  26  14  27  14  28  14  29  14  30  14  31  14
M  ISO  1  32   6
M  END
>  <minimizedAffinity>  (1) 
-5.50990582

>  <minimizedRMSD>  (1) 
1.480178

$$$$
