
     RDKit          3D

 40 43  0  0  0  0  0  0  0  0999 V2000
   38.2650   32.2650   47.3010 C   0  0  0  0  0  0  0  0  0  0  0  0
   37.9010   32.6990   48.5640 C   0  0  0  0  0  0  0  0  0  0  0  0
   38.6720   33.6390   49.2210 C   0  0  0  0  0  0  0  0  0  0  0  0
   39.8140   34.1470   48.6070 C   0  0  0  0  0  0  0  0  0  0  0  0
   40.1650   33.7070   47.3480 C   0  0  0  0  0  0  0  0  0  0  0  0
   39.3790   32.7740   46.7240 C   0  0  0  0  0  0  0  0  0  0  0  0
   39.7690   32.3110   45.3740 C   0  0  0  0  0  0  0  0  0  0  0  0
   40.5930   31.2680   45.0150 C   0  0  0  0  0  0  0  0  0  0  0  0
   40.6440   31.2380   43.6210 C   0  0  0  0  0  0  0  0  0  0  0  0
   39.8330   32.2850   43.2170 C   0  0  0  0  0  0  0  0  0  0  0  0
   39.3260   32.9040   44.2710 O   0  0  0  0  0  0  0  0  0  0  0  0
   36.7350   30.5180   46.1810 N   0  0  0  0  0  0  0  0  0  0  0  0
   37.4160   31.2940   46.6900 C   0  0  0  0  0  0  0  0  0  0  0  0
   36.7980   32.2820   49.2900 O   0  0  0  0  0  0  0  0  0  0  0  0
   36.7850   31.2180   50.1320 C   0  0  0  0  0  0  0  0  0  0  0  0
   35.7240   30.3510   49.8570 C   0  0  0  0  0  0  0  0  0  0  0  0
   35.5500   29.2050   50.6180 C   0  0  0  0  0  0  0  0  0  0  0  0
   36.4390   28.9640   51.6260 N   0  0  0  0  0  0  0  0  0  0  0  0
   37.4630   29.8330   51.8680 C   0  0  0  0  0  0  0  0  0  0  0  0
   37.6120   30.9140   51.1360 N   0  0  0  0  0  0  0  0  0  0  0  0
   34.3370   29.3760   48.1170 C   0  0  0  0  0  0  0  0  0  0  0  0
   34.7350   28.1350   48.0440 O   0  0  0  0  0  0  0  0  0  0  0  0
   34.7670   30.4960   48.8620 N   0  0  0  0  0  0  0  0  0  0  0  0
   33.1870   29.4690   47.1620 C   0  0  0  0  0  0  0  0  0  0  0  0
   33.0190   30.4730   46.3430 C   0  0  0  0  0  0  0  0  0  0  0  0
   32.0410   30.6850   45.4400 C   0  0  0  0  0  0  0  0  0  0  0  0
   31.1210   29.5460   45.5060 C   0  0  0  0  0  0  0  0  0  0  0  0
   31.8760   28.4130   46.8690 S   0  0  0  0  0  0  0  0  0  0  0  0
   38.3848   33.9846   50.2250 H   0  0  0  0  0  0  0  0  0  0  0  0
   40.4329   34.8954   49.1236 H   0  0  0  0  0  0  0  0  0  0  0  0
   41.0643   34.0999   46.8511 H   0  0  0  0  0  0  0  0  0  0  0  0
   41.1149   30.5844   45.7008 H   0  0  0  0  0  0  0  0  0  0  0  0
   41.2043   30.5377   42.9841 H   0  0  0  0  0  0  0  0  0  0  0  0
   39.6382   32.5623   42.1705 H   0  0  0  0  0  0  0  0  0  0  0  0
   34.7209   28.5110   50.4158 H   0  0  0  0  0  0  0  0  0  0  0  0
   38.1709   29.6264   52.6842 H   0  0  0  0  0  0  0  0  0  0  0  0
   34.3684   31.4253   48.6660 H   0  0  0  0  0  0  0  0  0  0  0  0
   33.7867   31.2589   46.3984 H   0  0  0  0  0  0  0  0  0  0  0  0
   31.9498   31.5556   44.7739 H   0  0  0  0  0  0  0  0  0  0  0  0
   30.2095   29.3770   44.9138 H   0  0  0  0  0  0  0  0  0  0  0  0
  1  2  2  0
  2  3  1  0
  2 14  1  0
  4  3  2  0
  5  4  1  0
  6  1  1  0
  6  5  2  0
  7  6  1  0
  8  7  2  0
  9  8  1  0
 10  9  2  0
 10 11  1  0
 11  7  1  0
 12 13  3  0
 13  1  1  0
 14 15  1  0
 15 20  2  0
 16 15  1  0
 16 17  2  0
 17 18  1  0
 18 19  2  0
 20 19  1  0
 21 23  1  0
 22 21  2  0
 23 16  1  0
 24 21  1  0
 25 24  2  0
 26 27  2  0
 26 25  1  0
 27 28  1  0
 28 24  1  0
  3 29  1  0
  4 30  1  0
  5 31  1  0
  8 32  1  0
  9 33  1  0
 10 34  1  0
 17 35  1  0
 19 36  1  0
 23 37  1  0
 25 38  1  0
 26 39  1  0
 27 40  1  0
M  ISO  8  29  14  30  14  31  14  32  14  33  14  34  14  35  14  36  14
M  ISO  3  38  14  39  14  40  14
M  END
>  <minimizedAffinity>  (1) 
-6.0147481

>  <minimizedRMSD>  (1) 
0.506009281

$$$$
