
     RDKit          3D

 38 40  0  0  0  0  0  0  0  0999 V2000
   38.5080   32.1620   48.4830 Br  0  0  0  0  0  0  0  0  0  0  0  0
   37.4790   31.4010   47.1080 C   0  0  0  0  0  0  0  0  0  0  0  0
   36.5280   30.5130   47.5060 C   0  0  0  0  0  0  0  0  0  0  0  0
   35.7110   29.8980   46.5420 C   0  0  0  0  0  0  0  0  0  0  0  0
   35.8910   30.2070   45.2000 C   0  0  0  0  0  0  0  0  0  0  0  0
   36.8620   31.1040   44.8780 C   0  0  0  0  0  0  0  0  0  0  0  0
   37.6730   31.7200   45.8030 C   0  0  0  0  0  0  0  0  0  0  0  0
   37.1530   29.6340   49.7970 C   0  0  0  0  0  0  0  0  0  0  0  0
   36.2100   30.0790   48.8760 C   0  0  0  0  0  0  0  0  0  0  0  0
   34.8460   30.1210   49.2740 C   0  0  0  0  0  0  0  0  0  0  0  0
   34.5760   29.7090   50.5640 N   0  0  0  0  0  0  0  0  0  0  0  0
   35.5160   29.2930   51.4020 C   0  0  0  0  0  0  0  0  0  0  0  0
   36.8040   29.2540   51.0280 N   0  0  0  0  0  0  0  0  0  0  0  0
   38.6890   32.6570   45.4800 N   0  0  0  0  0  0  0  0  0  0  0  0
   39.5510   32.9750   44.0560 S   0  0  0  0  0  0  0  0  0  0  0  0
   40.5590   31.9120   43.7700 O   0  0  0  0  0  0  0  0  0  0  0  0
   40.2900   34.2940   44.1870 O   0  0  0  0  0  0  0  0  0  0  0  0
   38.4340   33.0820   42.7750 O   0  0  0  0  0  0  0  0  0  0  0  0
   38.8190   32.7710   41.4800 C   0  0  0  0  0  0  0  0  0  0  0  0
   39.4020   31.6160   41.0010 C   0  0  0  0  0  0  0  0  0  0  0  0
   39.7220   31.4600   39.6900 C   0  0  0  0  0  0  0  0  0  0  0  0
   39.4440   32.5120   38.8260 C   0  0  0  0  0  0  0  0  0  0  0  0
   38.8590   33.6960   39.2540 C   0  0  0  0  0  0  0  0  0  0  0  0
   38.5420   33.8220   40.6060 C   0  0  0  0  0  0  0  0  0  0  0  0
   34.9366   29.1790   46.8474 H   0  0  0  0  0  0  0  0  0  0  0  0
   35.2682   29.7413   44.4220 H   0  0  0  0  0  0  0  0  0  0  0  0
   37.0071   31.3511   43.8160 H   0  0  0  0  0  0  0  0  0  0  0  0
   38.2124   29.5943   49.5035 H   0  0  0  0  0  0  0  0  0  0  0  0
   34.0516   30.4619   48.5938 H   0  0  0  0  0  0  0  0  0  0  0  0
   35.2360   28.9757   52.4173 H   0  0  0  0  0  0  0  0  0  0  0  0
   38.9554   33.2646   46.2679 H   0  0  0  0  0  0  0  0  0  0  0  0
   40.9049   31.5472   44.6229 H   0  0  0  0  0  0  0  0  0  0  0  0
   40.4113   34.5105   45.1454 H   0  0  0  0  0  0  0  0  0  0  0  0
   39.6144   30.7958   41.7026 H   0  0  0  0  0  0  0  0  0  0  0  0
   40.1857   30.5318   39.3247 H   0  0  0  0  0  0  0  0  0  0  0  0
   39.6973   32.4024   37.7612 H   0  0  0  0  0  0  0  0  0  0  0  0
   38.6513   34.5121   38.5462 H   0  0  0  0  0  0  0  0  0  0  0  0
   38.0761   34.7451   40.9811 H   0  0  0  0  0  0  0  0  0  0  0  0
  2  3  2  0
  2  1  1  0
  3  9  1  0
  4  3  1  0
  5  4  2  0
  6  5  1  0
  6  7  2  0
  7  2  1  0
  8 13  2  0
  9 10  2  0
  9  8  1  0
 10 11  1  0
 11 12  2  0
 13 12  1  0
 14  7  1  0
 15 17  1  0
 15 14  1  0
 16 15  1  0
 18 15  1  0
 19 18  1  0
 20 19  2  0
 21 20  1  0
 22 23  1  0
 22 21  2  0
 23 24  2  0
 24 19  1  0
  4 25  1  0
  5 26  1  0
  6 27  1  0
  8 28  1  0
 10 29  1  0
 12 30  1  0
 14 31  1  0
 16 32  1  0
 17 33  1  0
 20 34  1  0
 21 35  1  0
 22 36  1  0
 23 37  1  0
 24 38  1  0
M  ISO  8  25  14  26  14  27  14  28  14  29  14  30  14  32   3  33   3
M  ISO  5  34  14  35  14  36  14  37  14  38  14
M  END
>  <minimizedAffinity>  (1) 
-5.30880117

>  <minimizedRMSD>  (1) 
3.3831203

$$$$
