
     RDKit          3D

 39 42  0  0  0  0  0  0  0  0999 V2000
   32.1270   28.2440   47.4130 N   0  0  0  0  0  0  0  0  0  0  0  0
   32.3870   28.0010   48.8060 C   0  0  0  0  0  0  0  0  0  0  0  0
   33.6970   28.3700   49.3380 C   0  0  0  0  0  0  0  0  0  0  0  0
   34.8450   28.4250   48.4180 C   0  0  0  0  0  0  0  0  0  0  0  0
   34.4790   28.6360   46.9680 C   0  0  0  0  0  0  0  0  0  0  0  0
   33.2590   27.7580   46.6530 C   0  0  0  0  0  0  0  0  0  0  0  0
   35.9870   29.8190   50.1180 C   0  0  0  0  0  0  0  0  0  0  0  0
   35.7860   29.5250   48.7660 C   0  0  0  0  0  0  0  0  0  0  0  0
   36.4300   30.2220   47.7700 C   0  0  0  0  0  0  0  0  0  0  0  0
   37.2940   31.2350   48.1600 C   0  0  0  0  0  0  0  0  0  0  0  0
   38.0680   32.0940   47.4730 N   0  0  0  0  0  0  0  0  0  0  0  0
   38.7410   32.9080   48.3130 C   0  0  0  0  0  0  0  0  0  0  0  0
   38.4140   32.5900   49.6090 C   0  0  0  0  0  0  0  0  0  0  0  0
   37.5160   31.5510   49.4940 C   0  0  0  0  0  0  0  0  0  0  0  0
   36.8560   30.8360   50.4830 C   0  0  0  0  0  0  0  0  0  0  0  0
   30.9620   28.8520   46.8750 C   0  0  0  0  0  0  0  0  0  0  0  0
   30.9450   29.6780   45.7530 C   0  0  0  0  0  0  0  0  0  0  0  0
   29.7100   30.2050   45.3460 C   0  0  0  0  0  0  0  0  0  0  0  0
   28.5990   29.8810   46.0680 N   0  0  0  0  0  0  0  0  0  0  0  0
   28.6710   29.0790   47.1450 C   0  0  0  0  0  0  0  0  0  0  0  0
   29.8450   28.5680   47.5460 N   0  0  0  0  0  0  0  0  0  0  0  0
   31.6327   28.5583   49.3808 H   0  0  0  0  0  0  0  0  0  0  0  0
   32.3517   26.9059   48.9031 H   0  0  0  0  0  0  0  0  0  0  0  0
   33.5941   29.3689   49.7871 H   0  0  0  0  0  0  0  0  0  0  0  0
   33.9461   27.5488   50.0262 H   0  0  0  0  0  0  0  0  0  0  0  0
   35.3050   27.4330   48.5376 H   0  0  0  0  0  0  0  0  0  0  0  0
   34.2319   29.6939   46.7957 H   0  0  0  0  0  0  0  0  0  0  0  0
   35.3234   28.3639   46.3176 H   0  0  0  0  0  0  0  0  0  0  0  0
   33.0329   27.8110   45.5778 H   0  0  0  0  0  0  0  0  0  0  0  0
   33.4703   26.7129   46.9234 H   0  0  0  0  0  0  0  0  0  0  0  0
   35.4564   29.2442   50.8913 H   0  0  0  0  0  0  0  0  0  0  0  0
   36.2666   29.9859   46.7081 H   0  0  0  0  0  0  0  0  0  0  0  0
   38.1376   32.1262   46.4459 H   0  0  0  0  0  0  0  0  0  0  0  0
   39.4405   33.7004   48.0084 H   0  0  0  0  0  0  0  0  0  0  0  0
   38.7857   33.0595   50.5317 H   0  0  0  0  0  0  0  0  0  0  0  0
   37.0202   31.0732   51.5445 H   0  0  0  0  0  0  0  0  0  0  0  0
   31.8698   29.9094   45.2041 H   0  0  0  0  0  0  0  0  0  0  0  0
   29.6395   30.8627   44.4671 H   0  0  0  0  0  0  0  0  0  0  0  0
   27.7551   28.8387   47.7048 H   0  0  0  0  0  0  0  0  0  0  0  0
  1  2  1  0
  2  3  1  0
  4  8  1  0
  4  3  1  0
  5  4  1  0
  6  5  1  0
  6  1  1  0
  7 15  2  0
  8  7  1  0
  9 10  1  0
  9  8  2  0
 10 14  2  0
 11 10  1  0
 11 12  1  0
 12 13  2  0
 14 13  1  0
 14 15  1  0
 16  1  1  0
 16 21  1  0
 17 16  2  0
 18 17  1  0
 18 19  2  0
 19 20  1  0
 20 21  2  0
  2 22  1  0
  2 23  1  0
  3 24  1  0
  3 25  1  0
  4 26  1  0
  5 27  1  0
  5 28  1  0
  6 29  1  0
  6 30  1  0
  7 31  1  0
  9 32  1  0
 11 33  1  0
 12 34  1  0
 13 35  1  0
 15 36  1  0
 17 37  1  0
 18 38  1  0
 20 39  1  0
M  ISO  8  22  13  23  13  24  13  25  13  26  13  27  13  28  13  29  13
M  ISO  8  30  13  31  14  32  14  33   9  34  14  35  14  36  14  37  14
M  ISO  2  38  14  39  14
M  END
>  <minimizedAffinity>  (1) 
-6.29748297

>  <minimizedRMSD>  (1) 
4.90494156

$$$$
