
     RDKit          3D

 32 34  0  0  0  0  0  0  0  0999 V2000
   35.5460   29.7090   49.3790 N   0  0  0  0  0  0  0  0  0  0  0  0
   35.3450   30.9400   50.0750 C   0  0  0  0  0  0  0  0  0  0  0  0
   36.4120   31.9620   49.9780 C   0  0  0  0  0  0  0  0  0  0  0  0
   37.8130   31.4760   49.8340 C   0  0  0  0  0  0  0  0  0  0  0  0
   37.9240   30.1180   49.2220 C   0  0  0  0  0  0  0  0  0  0  0  0
   36.8420   29.1960   49.7610 C   0  0  0  0  0  0  0  0  0  0  0  0
   34.6380   29.0840   48.4680 C   0  0  0  0  0  0  0  0  0  0  0  0
   34.0380   29.7220   47.3710 C   0  0  0  0  0  0  0  0  0  0  0  0
   33.1740   28.9610   46.5850 C   0  0  0  0  0  0  0  0  0  0  0  0
   32.9580   27.6490   46.9190 N   0  0  0  0  0  0  0  0  0  0  0  0
   33.5640   27.0880   47.9880 C   0  0  0  0  0  0  0  0  0  0  0  0
   34.3880   27.8040   48.7440 N   0  0  0  0  0  0  0  0  0  0  0  0
   38.5640   32.4070   48.9300 C   0  0  0  0  0  0  0  0  0  0  0  0
   39.0010   33.7100   49.1280 C   0  0  0  0  0  0  0  0  0  0  0  0
   39.6320   34.1210   48.0180 N   0  0  0  0  0  0  0  0  0  0  0  0
   39.6110   33.1110   47.1060 C   0  0  0  0  0  0  0  0  0  0  0  0
   38.9570   32.0650   47.6700 N   0  0  0  0  0  0  0  0  0  0  0  0
   34.4202   31.3912   49.6862 H   0  0  0  0  0  0  0  0  0  0  0  0
   35.3208   30.6600   51.1385 H   0  0  0  0  0  0  0  0  0  0  0  0
   36.1888   32.5906   49.1033 H   0  0  0  0  0  0  0  0  0  0  0  0
   36.3923   32.4835   50.9463 H   0  0  0  0  0  0  0  0  0  0  0  0
   38.2200   31.4337   50.8551 H   0  0  0  0  0  0  0  0  0  0  0  0
   38.9109   29.6943   49.4597 H   0  0  0  0  0  0  0  0  0  0  0  0
   37.8005   30.2096   48.1328 H   0  0  0  0  0  0  0  0  0  0  0  0
   36.9107   29.1502   50.8579 H   0  0  0  0  0  0  0  0  0  0  0  0
   36.9766   28.1863   49.3457 H   0  0  0  0  0  0  0  0  0  0  0  0
   34.2411   30.7784   47.1411 H   0  0  0  0  0  0  0  0  0  0  0  0
   32.6741   29.4056   45.7118 H   0  0  0  0  0  0  0  0  0  0  0  0
   33.3739   26.0327   48.2335 H   0  0  0  0  0  0  0  0  0  0  0  0
   38.8544   34.3051   50.0415 H   0  0  0  0  0  0  0  0  0  0  0  0
   40.0611   35.0470   47.8790 H   0  0  0  0  0  0  0  0  0  0  0  0
   40.0452   33.1380   46.0957 H   0  0  0  0  0  0  0  0  0  0  0  0
  1  6  1  0
  1  2  1  0
  3  2  1  0
  4  3  1  0
  5  6  1  0
  5  4  1  0
  7 12  1  0
  7  1  1  0
  8  7  2  0
  9 10  2  0
  9  8  1  0
 10 11  1  0
 11 12  2  0
 13 14  2  0
 13  4  1  0
 15 14  1  0
 16 17  2  0
 16 15  1  0
 17 13  1  0
  2 18  1  0
  2 19  1  0
  3 20  1  0
  3 21  1  0
  4 22  1  0
  5 23  1  0
  5 24  1  0
  6 25  1  0
  6 26  1  0
  8 27  1  0
  9 28  1  0
 11 29  1  0
 14 30  1  0
 15 31  1  0
 16 32  1  0
M  ISO  8  18  13  19  13  20  13  21  13  22  13  23  13  24  13  25  13
M  ISO  7  26  13  27  14  28  14  29  14  30  14  31   9  32  14
M  END
>  <minimizedAffinity>  (1) 
-5.2464633

>  <minimizedRMSD>  (1) 
2.40637803

$$$$
