
     RDKit          3D

 39 41  0  0  1  0  0  0  0  0999 V2000
   36.6830   30.4820   49.2530 N   0  0  0  0  0  0  0  0  0  0  0  0
   36.9100   31.8540   49.5660 C   0  0  0  0  0  0  0  0  0  0  0  0
   37.6090   32.6990   48.5730 C   0  0  0  0  0  0  0  0  0  0  0  0
   38.6010   32.0260   47.7150 C   0  0  0  0  0  0  0  0  0  0  0  0
   38.3040   30.5620   47.4660 C   0  0  0  0  0  0  0  0  0  0  0  0
   37.9280   29.9240   48.8080 C   0  0  0  0  0  0  0  0  0  0  0  0
   35.4390   29.7990   49.3660 C   0  0  0  0  0  0  0  0  0  0  0  0
   35.0010   28.8050   48.4750 C   0  0  0  0  0  0  0  0  0  0  0  0
   33.7520   28.2290   48.7220 C   0  0  0  0  0  0  0  0  0  0  0  0
   33.0390   28.6620   49.8030 N   0  0  0  0  0  0  0  0  0  0  0  0
   33.4900   29.6120   50.6290 C   0  0  0  0  0  0  0  0  0  0  0  0
   34.6840   30.1640   50.3950 N   0  0  0  0  0  0  0  0  0  0  0  0
   38.8270   32.7250   46.4880 N   0  0  0  0  0  0  0  0  0  0  0  0
   40.2260   32.9710   46.3250 C   0  0  0  0  0  0  0  0  0  0  0  0
   40.7530   32.5090   44.9840 C   0  0  0  0  0  0  0  0  0  0  0  0
   39.9880   33.0960   43.9250 N   0  0  0  0  0  0  0  0  0  0  0  0
   38.5780   32.9260   44.1390 C   0  0  0  0  0  0  0  0  0  0  0  0
   38.2940   32.0390   45.3550 C   0  0  0  0  0  0  0  0  0  0  0  0
   35.9267   32.3125   49.7476 H   0  0  0  0  0  0  0  0  0  0  0  0
   37.5970   31.8239   50.4246 H   0  0  0  0  0  0  0  0  0  0  0  0
   36.8461   33.1426   47.9163 H   0  0  0  0  0  0  0  0  0  0  0  0
   38.1837   33.4267   49.1648 H   0  0  0  0  0  0  0  0  0  0  0  0
   39.5359   32.0541   48.2940 H   0  0  0  0  0  0  0  0  0  0  0  0
   37.4673   30.4652   46.7585 H   0  0  0  0  0  0  0  0  0  0  0  0
   39.1830   30.0600   47.0354 H   0  0  0  0  0  0  0  0  0  0  0  0
   37.8220   28.8362   48.6834 H   0  0  0  0  0  0  0  0  0  0  0  0
   38.7142   30.1251   49.5506 H   0  0  0  0  0  0  0  0  0  0  0  0
   35.6160   28.4929   47.6181 H   0  0  0  0  0  0  0  0  0  0  0  0
   33.3527   27.4454   48.0613 H   0  0  0  0  0  0  0  0  0  0  0  0
   32.8859   29.9347   51.4898 H   0  0  0  0  0  0  0  0  0  0  0  0
   40.4055   34.0522   46.4190 H   0  0  0  0  0  0  0  0  0  0  0  0
   40.7544   32.3991   47.1020 H   0  0  0  0  0  0  0  0  0  0  0  0
   41.8057   32.8116   44.8831 H   0  0  0  0  0  0  0  0  0  0  0  0
   40.6705   31.4138   44.9230 H   0  0  0  0  0  0  0  0  0  0  0  0
   40.2482   32.6471   43.0353 H   0  0  0  0  0  0  0  0  0  0  0  0
   38.1204   33.9129   44.3026 H   0  0  0  0  0  0  0  0  0  0  0  0
   38.1521   32.4373   43.2503 H   0  0  0  0  0  0  0  0  0  0  0  0
   38.7852   31.0620   45.2362 H   0  0  0  0  0  0  0  0  0  0  0  0
   37.2157   31.8552   45.4712 H   0  0  0  0  0  0  0  0  0  0  0  0
  1  7  1  0
  1  2  1  0
  3  2  1  0
  4  3  1  0
  5  4  1  0
  5  6  1  0
  6  1  1  0
  7 12  2  0
  8  9  2  0
  8  7  1  0
  9 10  1  0
 10 11  2  0
 12 11  1  0
 13 18  1  0
 13  4  1  0
 14 13  1  0
 15 14  1  0
 16 17  1  0
 16 15  1  0
 17 18  1  0
  2 19  1  0
  2 20  1  0
  3 21  1  0
  3 22  1  0
  4 23  1  0
  5 24  1  0
  5 25  1  0
  6 26  1  0
  6 27  1  0
  8 28  1  0
  9 29  1  0
 11 30  1  0
 14 31  1  0
 14 32  1  0
 15 33  1  0
 15 34  1  0
 16 35  1  0
 17 36  1  0
 17 37  1  0
 18 38  1  0
 18 39  1  0
M  ISO  8  19  13  20  13  21  13  22  13  23  13  24  13  25  13  26  13
M  ISO  8  27  13  28  14  29  14  30  14  31  13  32  13  33  13  34  13
M  ISO  5  35   5  36  13  37  13  38  13  39  13
M  END
>  <minimizedAffinity>  (1) 
-3.96128368

>  <minimizedRMSD>  (1) 
3.9188478

$$$$
