
     RDKit          3D

 38 41  0  0  0  0  0  0  0  0999 V2000
   32.7050   28.2200   47.4470 N   0  0  0  0  0  0  0  0  0  0  0  0
   33.2790   27.8070   48.6940 C   0  0  0  0  0  0  0  0  0  0  0  0
   34.5200   28.4590   49.1250 C   0  0  0  0  0  0  0  0  0  0  0  0
   35.4190   29.0130   48.0950 C   0  0  0  0  0  0  0  0  0  0  0  0
   34.7220   29.3910   46.8060 C   0  0  0  0  0  0  0  0  0  0  0  0
   33.7530   28.2540   46.4470 C   0  0  0  0  0  0  0  0  0  0  0  0
   35.9290   30.7530   49.7750 C   0  0  0  0  0  0  0  0  0  0  0  0
   36.1800   30.2290   48.5240 C   0  0  0  0  0  0  0  0  0  0  0  0
   37.0910   30.7410   47.6180 C   0  0  0  0  0  0  0  0  0  0  0  0
   37.7950   31.8760   48.0290 C   0  0  0  0  0  0  0  0  0  0  0  0
   37.5500   32.4070   49.2810 C   0  0  0  0  0  0  0  0  0  0  0  0
   36.6350   31.8780   50.1700 C   0  0  0  0  0  0  0  0  0  0  0  0
   38.3500   33.5330   49.5010 O   0  0  0  0  0  0  0  0  0  0  0  0
   39.3250   33.4900   48.4600 C   0  0  0  0  0  0  0  0  0  0  0  0
   38.7710   32.6830   47.4470 O   0  0  0  0  0  0  0  0  0  0  0  0
   31.3400   28.5470   47.2110 C   0  0  0  0  0  0  0  0  0  0  0  0
   30.8680   29.3510   46.1640 C   0  0  0  0  0  0  0  0  0  0  0  0
   29.4950   29.5590   46.0950 C   0  0  0  0  0  0  0  0  0  0  0  0
   28.6880   28.9820   47.0320 N   0  0  0  0  0  0  0  0  0  0  0  0
   29.1800   28.2240   48.0130 C   0  0  0  0  0  0  0  0  0  0  0  0
   30.4870   28.0110   48.1000 N   0  0  0  0  0  0  0  0  0  0  0  0
   32.5264   27.9845   49.4763 H   0  0  0  0  0  0  0  0  0  0  0  0
   33.5595   26.7553   48.5349 H   0  0  0  0  0  0  0  0  0  0  0  0
   34.2370   29.2889   49.7892 H   0  0  0  0  0  0  0  0  0  0  0  0
   35.1044   27.6482   49.5843 H   0  0  0  0  0  0  0  0  0  0  0  0
   36.1080   28.1712   47.9319 H   0  0  0  0  0  0  0  0  0  0  0  0
   34.1642   30.3291   46.9431 H   0  0  0  0  0  0  0  0  0  0  0  0
   35.4564   29.5395   46.0006 H   0  0  0  0  0  0  0  0  0  0  0  0
   33.3151   28.4373   45.4547 H   0  0  0  0  0  0  0  0  0  0  0  0
   34.2871   27.2927   46.4234 H   0  0  0  0  0  0  0  0  0  0  0  0
   35.1872   30.2896   50.4421 H   0  0  0  0  0  0  0  0  0  0  0  0
   37.2520   30.2816   46.6316 H   0  0  0  0  0  0  0  0  0  0  0  0
   36.4723   32.3341   51.1577 H   0  0  0  0  0  0  0  0  0  0  0  0
   39.5221   34.5025   48.0780 H   0  0  0  0  0  0  0  0  0  0  0  0
   40.2831   33.0867   48.8197 H   0  0  0  0  0  0  0  0  0  0  0  0
   31.5539   29.7978   45.4292 H   0  0  0  0  0  0  0  0  0  0  0  0
   29.0650   30.1804   45.2957 H   0  0  0  0  0  0  0  0  0  0  0  0
   28.5006   27.7742   48.7519 H   0  0  0  0  0  0  0  0  0  0  0  0
  1  2  1  0
  2  3  1  0
  4  8  1  0
  4  3  1  0
  5  4  1  0
  6  5  1  0
  6  1  1  0
  7 12  2  0
  8  7  1  0
  9 10  1  0
  9  8  2  0
 10 11  2  0
 11 13  1  0
 11 12  1  0
 14 13  1  0
 15 10  1  0
 15 14  1  0
 16  1  1  0
 16 21  1  0
 17 16  2  0
 18 17  1  0
 18 19  2  0
 19 20  1  0
 20 21  2  0
  2 22  1  0
  2 23  1  0
  3 24  1  0
  3 25  1  0
  4 26  1  0
  5 27  1  0
  5 28  1  0
  6 29  1  0
  6 30  1  0
  7 31  1  0
  9 32  1  0
 12 33  1  0
 14 34  1  0
 14 35  1  0
 17 36  1  0
 18 37  1  0
 20 38  1  0
M  ISO  8  22  13  23  13  24  13  25  13  26  13  27  13  28  13  29  13
M  ISO  8  30  13  31  14  32  14  33  14  34  13  35  13  36  14  37  14
M  ISO  1  38  14
M  END
>  <minimizedAffinity>  (1) 
-5.98004436

>  <minimizedRMSD>  (1) 
4.28941727

$$$$
