
     RDKit          3D

 51 55  0  0  1  0  0  0  0  0999 V2000
   31.7080   28.2410   47.2760 N   0  0  0  0  0  0  0  0  0  0  0  0
   31.9730   27.7870   48.5930 C   0  0  0  0  0  0  0  0  0  0  0  0
   33.2450   28.2280   49.2110 C   0  0  0  0  0  0  0  0  0  0  0  0
   34.4180   28.2800   48.3380 C   0  0  0  0  0  0  0  0  0  0  0  0
   34.0580   28.7020   46.9030 C   0  0  0  0  0  0  0  0  0  0  0  0
   32.8500   27.8500   46.4750 C   0  0  0  0  0  0  0  0  0  0  0  0
   35.8830   29.1870   50.0840 C   0  0  0  0  0  0  0  0  0  0  0  0
   35.4700   29.2360   48.7610 C   0  0  0  0  0  0  0  0  0  0  0  0
   35.9600   30.1280   47.8460 C   0  0  0  0  0  0  0  0  0  0  0  0
   36.9260   31.0330   48.2770 C   0  0  0  0  0  0  0  0  0  0  0  0
   37.3360   30.9870   49.5880 C   0  0  0  0  0  0  0  0  0  0  0  0
   36.8430   30.0840   50.5230 C   0  0  0  0  0  0  0  0  0  0  0  0
   38.3040   31.9710   49.8310 O   0  0  0  0  0  0  0  0  0  0  0  0
   38.7180   32.3910   48.5320 C   0  0  0  0  0  0  0  0  0  0  0  0
   37.6570   32.0670   47.6770 O   0  0  0  0  0  0  0  0  0  0  0  0
   30.5640   28.9370   46.7910 C   0  0  0  0  0  0  0  0  0  0  0  0
   30.4880   29.5990   45.5690 C   0  0  0  0  0  0  0  0  0  0  0  0
   29.2740   30.2120   45.2540 C   0  0  0  0  0  0  0  0  0  0  0  0
   28.2370   30.1310   46.1550 N   0  0  0  0  0  0  0  0  0  0  0  0
   28.3720   29.4760   47.3230 C   0  0  0  0  0  0  0  0  0  0  0  0
   29.5030   28.8960   47.6310 N   0  0  0  0  0  0  0  0  0  0  0  0
   26.6570   28.5310   48.9300 C   0  0  0  0  0  0  0  0  0  0  0  0
   27.1380   29.5130   48.0990 C   0  0  0  0  0  0  0  0  0  0  0  0
   26.2960   30.6060   48.0580 C   0  0  0  0  0  0  0  0  0  0  0  0
   25.1130   30.7190   48.7560 C   0  0  0  0  0  0  0  0  0  0  0  0
   24.7010   29.6900   49.5690 C   0  0  0  0  0  0  0  0  0  0  0  0
   25.4990   28.5730   49.6500 C   0  0  0  0  0  0  0  0  0  0  0  0
   27.6140   27.0780   49.1120 S   0  0  0  0  0  0  0  0  0  0  0  0
   27.4960   26.4940   50.4950 O   0  0  0  0  0  0  0  0  0  0  0  0
   27.2620   26.0860   48.0730 O   0  0  0  0  0  0  0  0  0  0  0  0
   31.1522   28.1367   49.2364 H   0  0  0  0  0  0  0  0  0  0  0  0
   32.0599   26.6938   48.5073 H   0  0  0  0  0  0  0  0  0  0  0  0
   33.0859   29.2384   49.6156 H   0  0  0  0  0  0  0  0  0  0  0  0
   33.4802   27.4621   49.9647 H   0  0  0  0  0  0  0  0  0  0  0  0
   34.7987   27.2497   48.3973 H   0  0  0  0  0  0  0  0  0  0  0  0
   33.7955   29.7699   46.8776 H   0  0  0  0  0  0  0  0  0  0  0  0
   34.9086   28.5481   46.2227 H   0  0  0  0  0  0  0  0  0  0  0  0
   32.6331   28.0213   45.4103 H   0  0  0  0  0  0  0  0  0  0  0  0
   33.0686   26.7823   46.6243 H   0  0  0  0  0  0  0  0  0  0  0  0
   35.4543   28.4463   50.7750 H   0  0  0  0  0  0  0  0  0  0  0  0
   35.6028   30.1298   46.8056 H   0  0  0  0  0  0  0  0  0  0  0  0
   37.1990   30.0819   51.5638 H   0  0  0  0  0  0  0  0  0  0  0  0
   38.9040   33.4751   48.5198 H   0  0  0  0  0  0  0  0  0  0  0  0
   39.6537   31.9013   48.2242 H   0  0  0  0  0  0  0  0  0  0  0  0
   31.3463   29.6374   44.8821 H   0  0  0  0  0  0  0  0  0  0  0  0
   29.1486   30.7500   44.3028 H   0  0  0  0  0  0  0  0  0  0  0  0
   26.5918   31.4514   47.4194 H   0  0  0  0  0  0  0  0  0  0  0  0
   24.5013   31.6285   48.6629 H   0  0  0  0  0  0  0  0  0  0  0  0
   23.7617   29.7580   50.1374 H   0  0  0  0  0  0  0  0  0  0  0  0
   25.2075   27.7247   50.2868 H   0  0  0  0  0  0  0  0  0  0  0  0
   28.9283   27.4250   48.9417 H   0  0  0  0  0  0  0  0  0  0  0  0
  1  2  1  0
  2  3  1  0
  4  8  1  0
  4  3  1  0
  5  4  1  0
  6  5  1  0
  6  1  1  0
  7 12  2  0
  8  7  1  0
  9 10  1  0
  9  8  2  0
 10 11  2  0
 11 13  1  0
 11 12  1  0
 14 13  1  0
 15 10  1  0
 15 14  1  0
 16  1  1  0
 16 21  1  0
 17 16  2  0
 18 17  1  0
 18 19  2  0
 19 20  1  0
 20 21  2  0
 20 23  1  0
 22 28  1  0
 22 27  2  0
 23 22  1  0
 24 23  2  0
 24 25  1  0
 25 26  2  0
 26 27  1  0
 28 29  2  0
 30 28  2  0
  2 31  1  0
  2 32  1  0
  3 33  1  0
  3 34  1  0
  4 35  1  0
  5 36  1  0
  5 37  1  0
  6 38  1  0
  6 39  1  0
  7 40  1  0
  9 41  1  0
 12 42  1  0
 14 43  1  0
 14 44  1  0
 17 45  1  0
 18 46  1  0
 24 47  1  0
 25 48  1  0
 26 49  1  0
 27 50  1  0
 28 51  1  0
M  ISO  8  31  13  32  13  33  13  34  13  35  13  36  13  37  13  38  13
M  ISO  8  39  13  40  14  41  14  42  14  43  13  44  13  45  14  46  14
M  ISO  5  47  14  48  14  49  14  50  14  51  11
M  END
>  <minimizedAffinity>  (1) 
-8.18030453

>  <minimizedRMSD>  (1) 
1.92428744

$$$$
