
     RDKit          3D

 41 44  0  0  0  0  0  0  0  0999 V2000
   31.7350   27.9770   47.5690 N   0  0  0  0  0  0  0  0  0  0  0  0
   32.7270   27.1470   48.1610 C   0  0  0  0  0  0  0  0  0  0  0  0
   34.0240   27.7870   48.4800 C   0  0  0  0  0  0  0  0  0  0  0  0
   34.5290   28.7720   47.5250 C   0  0  0  0  0  0  0  0  0  0  0  0
   33.3960   29.5840   46.8730 C   0  0  0  0  0  0  0  0  0  0  0  0
   32.3280   28.5790   46.4070 C   0  0  0  0  0  0  0  0  0  0  0  0
   35.3490   30.0380   49.4590 C   0  0  0  0  0  0  0  0  0  0  0  0
   35.4440   29.7870   48.1030 C   0  0  0  0  0  0  0  0  0  0  0  0
   36.3120   30.4390   47.2680 C   0  0  0  0  0  0  0  0  0  0  0  0
   37.1420   31.4080   47.8270 C   0  0  0  0  0  0  0  0  0  0  0  0
   37.0490   31.6590   49.1710 C   0  0  0  0  0  0  0  0  0  0  0  0
   36.1680   30.9970   50.0230 C   0  0  0  0  0  0  0  0  0  0  0  0
   37.9630   32.6640   49.5380 O   0  0  0  0  0  0  0  0  0  0  0  0
   38.8560   32.7520   48.4320 C   0  0  0  0  0  0  0  0  0  0  0  0
   38.1280   32.2620   47.3290 O   0  0  0  0  0  0  0  0  0  0  0  0
   30.3910   28.1970   48.0110 C   0  0  0  0  0  0  0  0  0  0  0  0
   29.4110   28.9100   47.3250 C   0  0  0  0  0  0  0  0  0  0  0  0
   28.1590   29.0110   47.9240 C   0  0  0  0  0  0  0  0  0  0  0  0
   27.9580   28.4180   49.1240 N   0  0  0  0  0  0  0  0  0  0  0  0
   28.9200   27.7330   49.7670 C   0  0  0  0  0  0  0  0  0  0  0  0
   30.1290   27.6280   49.2060 N   0  0  0  0  0  0  0  0  0  0  0  0
   28.5510   27.1360   51.0800 C   0  0  0  0  0  0  0  0  0  0  0  0
   32.3122   26.7483   49.0985 H   0  0  0  0  0  0  0  0  0  0  0  0
   32.9586   26.3857   47.4016 H   0  0  0  0  0  0  0  0  0  0  0  0
   33.9154   28.2915   49.4514 H   0  0  0  0  0  0  0  0  0  0  0  0
   34.7590   26.9687   48.4631 H   0  0  0  0  0  0  0  0  0  0  0  0
   35.0715   28.1444   46.8027 H   0  0  0  0  0  0  0  0  0  0  0  0
   32.9632   30.2822   47.6045 H   0  0  0  0  0  0  0  0  0  0  0  0
   33.7751   30.1732   46.0250 H   0  0  0  0  0  0  0  0  0  0  0  0
   31.5553   29.1015   45.8239 H   0  0  0  0  0  0  0  0  0  0  0  0
   32.7870   27.8060   45.7731 H   0  0  0  0  0  0  0  0  0  0  0  0
   34.6314   29.4820   50.0802 H   0  0  0  0  0  0  0  0  0  0  0  0
   36.3523   30.2057   46.1938 H   0  0  0  0  0  0  0  0  0  0  0  0
   36.1262   31.2277   51.0977 H   0  0  0  0  0  0  0  0  0  0  0  0
   39.1576   33.7961   48.2620 H   0  0  0  0  0  0  0  0  0  0  0  0
   39.7792   32.1788   48.6025 H   0  0  0  0  0  0  0  0  0  0  0  0
   29.6181   29.3744   46.3496 H   0  0  0  0  0  0  0  0  0  0  0  0
   27.3461   29.5637   47.4304 H   0  0  0  0  0  0  0  0  0  0  0  0
   28.9410   27.7670   51.8923 H   0  0  0  0  0  0  0  0  0  0  0  0
   27.4557   27.0722   51.1589 H   0  0  0  0  0  0  0  0  0  0  0  0
   28.9837   26.1278   51.1589 H   0  0  0  0  0  0  0  0  0  0  0  0
  1 16  1  0
  1  2  1  0
  2  3  1  0
  4  8  1  0
  4  3  1  0
  5  4  1  0
  6  5  1  0
  6  1  1  0
  7 12  2  0
  8  7  1  0
  9 10  1  0
  9  8  2  0
 10 11  2  0
 11 13  1  0
 11 12  1  0
 14 13  1  0
 15 10  1  0
 15 14  1  0
 16 21  2  0
 17 18  2  0
 17 16  1  0
 18 19  1  0
 19 20  2  0
 20 22  1  0
 21 20  1  0
  2 23  1  0
  2 24  1  0
  3 25  1  0
  3 26  1  0
  4 27  1  0
  5 28  1  0
  5 29  1  0
  6 30  1  0
  6 31  1  0
  7 32  1  0
  9 33  1  0
 12 34  1  0
 14 35  1  0
 14 36  1  0
 17 37  1  0
 18 38  1  0
 22 39  1  0
 22 40  1  0
 22 41  1  0
M  ISO  8  23  13  24  13  25  13  26  13  27  13  28  13  29  13  30  13
M  ISO  8  31  13  32  14  33  14  34  14  35  13  36  13  37  14  38  14
M  ISO  3  39   8  40   8  41   8
M  END
>  <minimizedAffinity>  (1) 
-6.7114687

>  <minimizedRMSD>  (1) 
1.37353861

$$$$
