
     RDKit          3D

 37 39  0  0  1  0  0  0  0  0999 V2000
   36.0900   30.4120   46.4120 C   0  0  0  0  0  0  0  0  0  0  0  0
   36.7670   30.7420   45.2090 C   0  0  0  0  0  0  0  0  0  0  0  0
   36.0610   30.6430   44.0080 C   0  0  0  0  0  0  0  0  0  0  0  0
   34.7680   30.2410   44.0320 N   0  0  0  0  0  0  0  0  0  0  0  0
   34.1410   29.9330   45.1900 C   0  0  0  0  0  0  0  0  0  0  0  0
   34.7950   30.0150   46.3840 N   0  0  0  0  0  0  0  0  0  0  0  0
   38.1170   31.1560   45.2920 N   0  0  0  0  0  0  0  0  0  0  0  0
   38.4600   32.3960   45.6530 C   0  0  0  0  0  0  0  0  0  0  0  0
   39.7840   32.7910   45.7360 C   0  0  0  0  0  0  0  0  0  0  0  0
   40.6790   31.7750   45.4070 C   0  0  0  0  0  0  0  0  0  0  0  0
   41.9090   32.0960   45.4700 O   0  0  0  0  0  0  0  0  0  0  0  0
   40.3790   30.5180   45.0400 N   0  0  0  0  0  0  0  0  0  0  0  0
   39.0600   30.2380   44.9920 C   0  0  0  0  0  0  0  0  0  0  0  0
   38.7600   29.0550   44.6450 O   0  0  0  0  0  0  0  0  0  0  0  0
   35.8780   29.7680   48.8330 C   0  0  2  0  0  0  0  0  0  0  0  0
   36.6730   30.4480   47.7630 C   0  0  2  0  0  0  0  0  0  0  0  0
   36.9510   31.7270   48.2360 O   0  0  0  0  0  0  0  0  0  0  0  0
   37.5390   31.6460   49.4610 C   0  0  0  0  0  0  0  0  0  0  0  0
   37.9800   30.2970   49.9310 C   0  0  2  0  0  0  0  0  0  0  0  0
   36.8860   29.2570   49.8830 C   0  0  1  0  0  0  0  0  0  0  0  0
   35.1320   28.7510   48.2930 O   0  0  0  0  0  0  0  0  0  0  0  0
   38.3490   30.4330   51.2750 O   0  0  0  0  0  0  0  0  0  0  0  0
   36.2460   29.0800   51.1110 O   0  0  0  0  0  0  0  0  0  0  0  0
   36.5496   30.8887   43.0536 H   0  0  0  0  0  0  0  0  0  0  0  0
   33.0891   29.6119   45.1686 H   0  0  0  0  0  0  0  0  0  0  0  0
   37.6689   33.1224   45.8906 H   0  0  0  0  0  0  0  0  0  0  0  0
   40.0975   33.8032   46.0314 H   0  0  0  0  0  0  0  0  0  0  0  0
   41.1017   29.8203   44.8123 H   0  0  0  0  0  0  0  0  0  0  0  0
   35.1643   30.4562   49.3095 H   0  0  0  0  0  0  0  0  0  0  0  0
   37.6022   29.8859   47.5880 H   0  0  0  0  0  0  0  0  0  0  0  0
   38.4274   32.2944   49.4428 H   0  0  0  0  0  0  0  0  0  0  0  0
   36.7510   31.9436   50.1685 H   0  0  0  0  0  0  0  0  0  0  0  0
   38.7936   29.9625   49.2706 H   0  0  0  0  0  0  0  0  0  0  0  0
   37.3120   28.2751   49.6293 H   0  0  0  0  0  0  0  0  0  0  0  0
   34.7353   28.2102   49.0212 H   0  0  0  0  0  0  0  0  0  0  0  0
   37.5954   30.1553   51.8538 H   0  0  0  0  0  0  0  0  0  0  0  0
   36.8860   29.2570   51.8452 H   0  0  0  0  0  0  0  0  0  0  0  0
  2  7  1  0
  2  1  2  0
  3  4  2  0
  3  2  1  0
  4  5  1  0
  5  6  2  0
  6  1  1  0
  7  8  1  0
  8  9  2  0
 10 11  2  0
 10  9  1  0
 12 10  1  0
 13 12  1  0
 13  7  1  0
 14 13  2  0
 15 21  1  0
 15 20  1  0
 16  1  1  0
 16 17  1  0
 16 15  1  0
 17 18  1  0
 18 19  1  0
 19 22  1  0
 20 19  1  0
 20 23  1  0
  3 24  1  0
  5 25  1  0
  8 26  1  0
  9 27  1  0
 12 28  1  0
 15 29  1  1
 16 30  1  6
 18 31  1  0
 18 32  1  0
 19 33  1  6
 20 34  1  6
 21 35  1  0
 22 36  1  0
 23 37  1  0
M  ISO  8  24  14  25  14  26  14  27  14  28   9  29  13  30  13  31  13
M  ISO  6  32  13  33  13  34  13  35   3  36   3  37   3
M  END
>  <minimizedAffinity>  (1) 
-5.87932634

>  <minimizedRMSD>  (1) 
3.60312867

$$$$
