
     RDKit          3D

 23 24  0  0  0  0  0  0  0  0999 V2000
   37.0700   31.3920   48.7000 N   0  0  0  0  0  0  0  0  0  0  0  0
   37.0220   32.3640   49.6420 C   0  0  0  0  0  0  0  0  0  0  0  0
   37.9890   33.3610   49.6500 C   0  0  0  0  0  0  0  0  0  0  0  0
   38.9300   33.2410   48.6510 C   0  0  0  0  0  0  0  0  0  0  0  0
   39.8230   34.1430   48.6400 O   0  0  0  0  0  0  0  0  0  0  0  0
   38.9920   32.2850   47.7110 N   0  0  0  0  0  0  0  0  0  0  0  0
   38.0210   31.3450   47.7580 C   0  0  0  0  0  0  0  0  0  0  0  0
   38.0630   30.4420   46.8860 O   0  0  0  0  0  0  0  0  0  0  0  0
   36.2220   29.2830   49.6040 C   0  0  0  0  0  0  0  0  0  0  0  0
   36.0850   30.3490   48.6680 C   0  0  0  0  0  0  0  0  0  0  0  0
   35.0120   30.3090   47.7920 C   0  0  0  0  0  0  0  0  0  0  0  0
   34.1450   29.2670   47.8600 N   0  0  0  0  0  0  0  0  0  0  0  0
   34.2840   28.2720   48.7410 C   0  0  0  0  0  0  0  0  0  0  0  0
   35.3250   28.2740   49.6210 N   0  0  0  0  0  0  0  0  0  0  0  0
   37.3790   29.3380   50.5400 C   0  0  0  0  0  0  0  0  0  0  0  0
   36.2216   32.3638   50.3966 H   0  0  0  0  0  0  0  0  0  0  0  0
   38.0023   34.1753   50.3894 H   0  0  0  0  0  0  0  0  0  0  0  0
   39.7342   32.2683   46.9971 H   0  0  0  0  0  0  0  0  0  0  0  0
   34.8651   31.1099   47.0524 H   0  0  0  0  0  0  0  0  0  0  0  0
   33.5555   27.4480   48.7562 H   0  0  0  0  0  0  0  0  0  0  0  0
   37.0128   29.3206   51.5771 H   0  0  0  0  0  0  0  0  0  0  0  0
   38.0321   28.4699   50.3671 H   0  0  0  0  0  0  0  0  0  0  0  0
   37.9468   30.2641   50.3671 H   0  0  0  0  0  0  0  0  0  0  0  0
  1  2  1  0
  2  3  2  0
  4  3  1  0
  5  4  2  0
  6  7  1  0
  6  4  1  0
  7  1  1  0
  8  7  2  0
  9 14  2  0
  9 15  1  0
 10  1  1  0
 10  9  1  0
 11 12  1  0
 11 10  2  0
 12 13  2  0
 13 14  1  0
  2 16  1  0
  3 17  1  0
  6 18  1  0
 11 19  1  0
 13 20  1  0
 15 21  1  0
 15 22  1  0
 15 23  1  0
M  ISO  8  16  14  17  14  18   9  19  14  20  14  21   8  22   8  23   8
M  END
>  <minimizedAffinity>  (1) 
-5.2423315

>  <minimizedRMSD>  (1) 
0.33138144

$$$$
