
     RDKit          3D

 31 33  0  0  1  0  0  0  0  0999 V2000
   35.3920   29.0300   49.0030 C   0  0  0  0  0  0  0  0  0  0  0  0
   35.4750   30.1990   48.2290 C   0  0  0  0  0  0  0  0  0  0  0  0
   34.5520   30.3200   47.1780 C   0  0  0  0  0  0  0  0  0  0  0  0
   33.6510   29.3300   46.9670 N   0  0  0  0  0  0  0  0  0  0  0  0
   33.6000   28.2280   47.7270 C   0  0  0  0  0  0  0  0  0  0  0  0
   34.4780   28.0790   48.7510 N   0  0  0  0  0  0  0  0  0  0  0  0
   36.4610   31.1660   48.5460 N   0  0  0  0  0  0  0  0  0  0  0  0
   36.3450   31.9750   49.6040 C   0  0  0  0  0  0  0  0  0  0  0  0
   37.3410   32.9120   49.8880 C   0  0  0  0  0  0  0  0  0  0  0  0
   38.3820   32.8940   48.9970 C   0  0  0  0  0  0  0  0  0  0  0  0
   39.3110   33.7420   49.2310 O   0  0  0  0  0  0  0  0  0  0  0  0
   38.5320   32.1040   47.9300 N   0  0  0  0  0  0  0  0  0  0  0  0
   37.5280   31.2140   47.7110 C   0  0  0  0  0  0  0  0  0  0  0  0
   37.6550   30.4570   46.7000 O   0  0  0  0  0  0  0  0  0  0  0  0
   36.2750   28.7360   50.1290 C   0  0  2  0  0  0  0  0  0  0  0  0
   35.9050   29.5290   51.3790 C   0  0  0  0  0  0  0  0  0  0  0  0
   37.2590   29.7980   51.9850 C   0  0  0  0  0  0  0  0  0  0  0  0
   38.1930   29.0760   51.2250 O   0  0  0  0  0  0  0  0  0  0  0  0
   37.6960   29.1990   49.9100 C   0  0  0  0  0  0  0  0  0  0  0  0
   34.5601   31.2102   46.5318 H   0  0  0  0  0  0  0  0  0  0  0  0
   32.8511   27.4487   47.5223 H   0  0  0  0  0  0  0  0  0  0  0  0
   35.4607   31.9023   50.2541 H   0  0  0  0  0  0  0  0  0  0  0  0
   37.2943   33.5993   50.7456 H   0  0  0  0  0  0  0  0  0  0  0  0
   39.3548   32.1653   47.3135 H   0  0  0  0  0  0  0  0  0  0  0  0
   36.1754   27.6453   50.2315 H   0  0  0  0  0  0  0  0  0  0  0  0
   35.3884   30.4653   51.1211 H   0  0  0  0  0  0  0  0  0  0  0  0
   35.2122   29.0025   52.0519 H   0  0  0  0  0  0  0  0  0  0  0  0
   37.4862   30.8734   51.9426 H   0  0  0  0  0  0  0  0  0  0  0  0
   37.2873   29.4915   53.0410 H   0  0  0  0  0  0  0  0  0  0  0  0
   38.2348   28.5475   49.2062 H   0  0  0  0  0  0  0  0  0  0  0  0
   37.7963   30.2004   49.4661 H   0  0  0  0  0  0  0  0  0  0  0  0
  2  7  1  0
  2  1  1  0
  3  2  2  0
  4  3  1  0
  4  5  2  0
  5  6  1  0
  6  1  2  0
  7  8  1  0
  8  9  2  0
 10 11  2  0
 10  9  1  0
 12 10  1  0
 13 12  1  0
 13  7  1  0
 14 13  2  0
 15  1  1  0
 15 16  1  0
 16 17  1  0
 18 17  1  0
 19 15  1  0
 19 18  1  0
  3 20  1  0
  5 21  1  0
  8 22  1  0
  9 23  1  0
 12 24  1  0
 15 25  1  1
 16 26  1  0
 16 27  1  0
 17 28  1  0
 17 29  1  0
 19 30  1  0
 19 31  1  0
M  ISO  8  20  14  21  14  22  14  23  14  24   9  25  13  26  13  27  13
M  ISO  4  28  13  29  13  30  13  31  13
M  END
>  <minimizedAffinity>  (1) 
-5.07244825

>  <minimizedRMSD>  (1) 
1.20775092

$$$$
