
     RDKit          3D

 21 22  0  0  0  0  0  0  0  0999 V2000
   37.0450   31.3520   48.6690 N   0  0  0  0  0  0  0  0  0  0  0  0
   37.0440   32.3040   49.6180 C   0  0  0  0  0  0  0  0  0  0  0  0
   38.0270   33.2950   49.6000 C   0  0  0  0  0  0  0  0  0  0  0  0
   38.9230   33.1740   48.5660 C   0  0  0  0  0  0  0  0  0  0  0  0
   39.8310   34.0690   48.5290 O   0  0  0  0  0  0  0  0  0  0  0  0
   38.9500   32.2400   47.6100 N   0  0  0  0  0  0  0  0  0  0  0  0
   37.9700   31.3040   47.6780 C   0  0  0  0  0  0  0  0  0  0  0  0
   37.9760   30.4180   46.7920 O   0  0  0  0  0  0  0  0  0  0  0  0
   36.2230   29.2160   49.5050 C   0  0  0  0  0  0  0  0  0  0  0  0
   36.0600   30.3220   48.6510 C   0  0  0  0  0  0  0  0  0  0  0  0
   34.9240   30.3320   47.8320 C   0  0  0  0  0  0  0  0  0  0  0  0
   34.0540   29.2950   47.9020 N   0  0  0  0  0  0  0  0  0  0  0  0
   34.2420   28.2540   48.7300 C   0  0  0  0  0  0  0  0  0  0  0  0
   35.3350   28.2030   49.5450 N   0  0  0  0  0  0  0  0  0  0  0  0
   37.3630   29.2090   50.3240 O   0  0  0  0  0  0  0  0  0  0  0  0
   36.2738   32.3022   50.4034 H   0  0  0  0  0  0  0  0  0  0  0  0
   38.0793   34.1007   50.3471 H   0  0  0  0  0  0  0  0  0  0  0  0
   39.6672   32.2314   46.8708 H   0  0  0  0  0  0  0  0  0  0  0  0
   34.7405   31.1690   47.1422 H   0  0  0  0  0  0  0  0  0  0  0  0
   33.5079   27.4351   48.7511 H   0  0  0  0  0  0  0  0  0  0  0  0
   38.0063   29.9604   50.2834 H   0  0  0  0  0  0  0  0  0  0  0  0
  1  2  1  0
  3  2  2  0
  4  3  1  0
  5  4  2  0
  6  7  1  0
  6  4  1  0
  7  1  1  0
  8  7  2  0
  9 14  2  0
  9 15  1  0
 10  1  1  0
 10  9  1  0
 11 12  1  0
 11 10  2  0
 12 13  2  0
 13 14  1  0
  2 16  1  0
  3 17  1  0
  6 18  1  0
 11 19  1  0
 13 20  1  0
 15 21  1  0
M  ISO  6  16  14  17  14  18   9  19  14  20  14  21   3
M  END
>  <minimizedAffinity>  (1) 
-4.99559259

>  <minimizedRMSD>  (1) 
0.277720571

$$$$
