
     RDKit          3D

 26 27  0  0  0  0  0  0  0  0999 V2000
   36.0290   29.2160   48.7790 C   0  0  0  0  0  0  0  0  0  0  0  0
   35.8180   30.2470   47.8180 C   0  0  0  0  0  0  0  0  0  0  0  0
   34.5550   30.3880   47.2680 C   0  0  0  0  0  0  0  0  0  0  0  0
   33.5730   29.5420   47.6650 N   0  0  0  0  0  0  0  0  0  0  0  0
   33.7830   28.5680   48.5760 C   0  0  0  0  0  0  0  0  0  0  0  0
   35.0100   28.4010   49.1350 N   0  0  0  0  0  0  0  0  0  0  0  0
   36.9450   31.0670   47.4930 N   0  0  0  0  0  0  0  0  0  0  0  0
   37.4650   31.9340   48.3720 C   0  0  0  0  0  0  0  0  0  0  0  0
   38.5690   32.7140   48.0090 C   0  0  0  0  0  0  0  0  0  0  0  0
   39.0160   32.4930   46.7310 C   0  0  0  0  0  0  0  0  0  0  0  0
   40.0200   33.2020   46.3980 O   0  0  0  0  0  0  0  0  0  0  0  0
   38.5200   31.6340   45.8250 N   0  0  0  0  0  0  0  0  0  0  0  0
   37.4500   30.9080   46.2450 C   0  0  0  0  0  0  0  0  0  0  0  0
   36.9680   30.0950   45.4090 O   0  0  0  0  0  0  0  0  0  0  0  0
   37.2630   29.0240   49.3620 O   0  0  0  0  0  0  0  0  0  0  0  0
   36.1930   29.6240   51.6440 O   0  0  0  0  0  0  0  0  0  0  0  0
   37.5430   29.3870   51.0120 P   0  0  0  0  0  0  0  0  0  0  0  0
   38.2720   28.0650   51.7640 O   0  0  0  0  0  0  0  0  0  0  0  0
   38.5470   30.7270   51.1090 O   0  0  0  0  0  0  0  0  0  0  0  0
   34.3524   31.1716   46.5231 H   0  0  0  0  0  0  0  0  0  0  0  0
   32.9550   27.9051   48.8677 H   0  0  0  0  0  0  0  0  0  0  0  0
   37.0258   32.0325   49.3757 H   0  0  0  0  0  0  0  0  0  0  0  0
   39.0373   33.4408   48.6891 H   0  0  0  0  0  0  0  0  0  0  0  0
   38.9208   31.5329   44.8816 H   0  0  0  0  0  0  0  0  0  0  0  0
   38.2137   28.1708   52.7466 H   0  0  0  0  0  0  0  0  0  0  0  0
   38.7122   30.9474   52.0599 H   0  0  0  0  0  0  0  0  0  0  0  0
  1  6  2  0
  1 15  1  0
  2  1  1  0
  3  4  1  0
  3  2  2  0
  4  5  2  0
  5  6  1  0
  7  2  1  0
  7  8  1  0
  9  8  2  0
 10  9  1  0
 11 10  2  0
 12 13  1  0
 12 10  1  0
 13  7  1  0
 14 13  2  0
 15 17  1  0
 17 19  1  0
 17 16  2  0
 17 18  1  0
  3 20  1  0
  5 21  1  0
  8 22  1  0
  9 23  1  0
 12 24  1  0
 18 25  1  0
 19 26  1  0
M  ISO  7  20  14  21  14  22  14  23  14  24   9  25   3  26   3
M  END
>  <minimizedAffinity>  (1) 
-4.80887413

>  <minimizedRMSD>  (1) 
1.49166977

$$$$
