
     RDKit          3D

 25 26  0  0  0  0  0  0  0  0999 V2000
   35.1620   29.0620   50.1380 C   0  0  0  0  0  0  0  0  0  0  0  0
   36.3700   29.7560   49.8610 C   0  0  0  0  0  0  0  0  0  0  0  0
   36.4360   30.5070   48.7050 C   0  0  0  0  0  0  0  0  0  0  0  0
   35.3310   30.5510   47.8810 N   0  0  0  0  0  0  0  0  0  0  0  0
   34.1940   29.8750   48.1760 C   0  0  0  0  0  0  0  0  0  0  0  0
   34.1040   29.1350   49.2990 N   0  0  0  0  0  0  0  0  0  0  0  0
   33.2010   30.0690   47.1820 N   0  0  0  0  0  0  0  0  0  0  0  0
   36.9330   33.0870   50.0500 Cl  0  0  0  0  0  0  0  0  0  0  0  0
   37.9340   32.5680   48.6900 C   0  0  0  0  0  0  0  0  0  0  0  0
   37.5480   31.2860   48.2790 C   0  0  0  0  0  0  0  0  0  0  0  0
   38.2680   30.7180   47.2080 C   0  0  0  0  0  0  0  0  0  0  0  0
   39.2990   31.3970   46.5960 C   0  0  0  0  0  0  0  0  0  0  0  0
   39.6350   32.6660   47.0450 C   0  0  0  0  0  0  0  0  0  0  0  0
   38.9630   33.2450   48.0790 C   0  0  0  0  0  0  0  0  0  0  0  0
   37.4980   29.6530   50.8190 C   0  0  0  0  0  0  0  0  0  0  0  0
   38.6000   30.3450   50.3780 F   0  0  0  0  0  0  0  0  0  0  0  0
   37.0940   30.1940   52.0170 F   0  0  0  0  0  0  0  0  0  0  0  0
   37.8850   28.3430   51.0540 F   0  0  0  0  0  0  0  0  0  0  0  0
   35.0858   28.4541   51.0516 H   0  0  0  0  0  0  0  0  0  0  0  0
   32.2822   29.6132   47.2761 H   0  0  0  0  0  0  0  0  0  0  0  0
   33.3987   30.6657   46.3661 H   0  0  0  0  0  0  0  0  0  0  0  0
   38.0010   29.7115   46.8535 H   0  0  0  0  0  0  0  0  0  0  0  0
   39.8492   30.9383   45.7612 H   0  0  0  0  0  0  0  0  0  0  0  0
   40.4563   33.2128   46.5588 H   0  0  0  0  0  0  0  0  0  0  0  0
   39.2428   34.2513   48.4241 H   0  0  0  0  0  0  0  0  0  0  0  0
  2  1  2  0
  2 15  1  0
  3  2  1  0
  4  5  1  0
  4  3  2  0
  5  6  2  0
  6  1  1  0
  7  5  1  0
  9  8  1  0
 10  9  2  0
 10  3  1  0
 11 10  1  0
 12 13  1  0
 12 11  2  0
 13 14  2  0
 14  9  1  0
 15 18  1  0
 15 17  1  0
 16 15  1  0
  1 19  1  0
  7 20  1  0
  7 21  1  0
 11 22  1  0
 12 23  1  0
 13 24  1  0
 14 25  1  0
M  ISO  5  19  14  22  14  23  14  24  14  25  14
M  END
>  <minimizedAffinity>  (1) 
-6.55062437

>  <minimizedRMSD>  (1) 
1.62580061

$$$$
