
     RDKit          3D

 30 31  0  0  0  0  0  0  0  0999 V2000
   35.4540   29.1300   50.4310 C   0  0  0  0  0  0  0  0  0  0  0  0
   36.3110   30.0620   49.7680 C   0  0  0  0  0  0  0  0  0  0  0  0
   36.2110   30.1700   48.3900 C   0  0  0  0  0  0  0  0  0  0  0  0
   35.3040   29.3880   47.7280 N   0  0  0  0  0  0  0  0  0  0  0  0
   34.5060   28.5140   48.3950 C   0  0  0  0  0  0  0  0  0  0  0  0
   34.5760   28.3830   49.7300 N   0  0  0  0  0  0  0  0  0  0  0  0
   33.6450   27.8060   47.5150 N   0  0  0  0  0  0  0  0  0  0  0  0
   37.0560   31.0930   47.6890 N   0  0  0  0  0  0  0  0  0  0  0  0
   37.9030   32.1900   48.1730 C   0  0  0  0  0  0  0  0  0  0  0  0
   39.2090   32.0460   47.3780 C   0  0  0  0  0  0  0  0  0  0  0  0
   38.9180   32.4070   45.9650 C   0  0  0  0  0  0  0  0  0  0  0  0
   37.7080   31.7600   45.3910 C   0  0  0  0  0  0  0  0  0  0  0  0
   36.9850   30.8060   46.2740 C   0  0  0  0  0  0  0  0  0  0  0  0
   37.2580   30.8620   50.5880 C   0  0  0  0  0  0  0  0  0  0  0  0
   38.5560   30.7280   50.1530 F   0  0  0  0  0  0  0  0  0  0  0  0
   36.8850   32.1870   50.4750 F   0  0  0  0  0  0  0  0  0  0  0  0
   37.2150   30.5330   51.9290 F   0  0  0  0  0  0  0  0  0  0  0  0
   35.5108   29.0206   51.5241 H   0  0  0  0  0  0  0  0  0  0  0  0
   32.9853   27.1094   47.8898 H   0  0  0  0  0  0  0  0  0  0  0  0
   33.6803   27.9891   46.5020 H   0  0  0  0  0  0  0  0  0  0  0  0
   37.4311   33.1632   47.9727 H   0  0  0  0  0  0  0  0  0  0  0  0
   38.0672   32.1439   49.2597 H   0  0  0  0  0  0  0  0  0  0  0  0
   39.9740   32.7219   47.7878 H   0  0  0  0  0  0  0  0  0  0  0  0
   39.5889   31.0157   47.4429 H   0  0  0  0  0  0  0  0  0  0  0  0
   38.7806   33.4971   45.9119 H   0  0  0  0  0  0  0  0  0  0  0  0
   39.7717   32.0470   45.3720 H   0  0  0  0  0  0  0  0  0  0  0  0
   37.0032   32.5570   45.1116 H   0  0  0  0  0  0  0  0  0  0  0  0
   38.0726   31.1568   44.5465 H   0  0  0  0  0  0  0  0  0  0  0  0
   35.9250   30.8088   45.9802 H   0  0  0  0  0  0  0  0  0  0  0  0
   37.4799   29.8331   46.1375 H   0  0  0  0  0  0  0  0  0  0  0  0
  2  1  2  0
  2 14  1  0
  3  2  1  0
  4  3  2  0
  4  5  1  0
  5  6  2  0
  6  1  1  0
  7  5  1  0
  8  9  1  0
  8  3  1  0
 10  9  1  0
 11 10  1  0
 12 11  1  0
 12 13  1  0
 13  8  1  0
 14 17  1  0
 15 14  1  0
 16 14  1  0
  1 18  1  0
  7 19  1  0
  7 20  1  0
  9 21  1  0
  9 22  1  0
 10 23  1  0
 10 24  1  0
 11 25  1  0
 11 26  1  0
 12 27  1  0
 12 28  1  0
 13 29  1  0
 13 30  1  0
M  ISO  8  18  14  21  13  22  13  23  13  24  13  25  13  26  13  27  13
M  ISO  3  28  13  29  13  30  13
M  END
>  <minimizedAffinity>  (1) 
-6.16379642

>  <minimizedRMSD>  (1) 
0.669929802

$$$$
