
     RDKit          3D

 27 28  0  0  0  0  0  0  0  0999 V2000
   35.3700   29.1580   50.4630 C   0  0  0  0  0  0  0  0  0  0  0  0
   36.2490   30.0370   49.7950 C   0  0  0  0  0  0  0  0  0  0  0  0
   36.1670   30.1380   48.4120 C   0  0  0  0  0  0  0  0  0  0  0  0
   35.2320   29.3760   47.7590 N   0  0  0  0  0  0  0  0  0  0  0  0
   34.4040   28.5400   48.4420 C   0  0  0  0  0  0  0  0  0  0  0  0
   34.4650   28.4240   49.7920 N   0  0  0  0  0  0  0  0  0  0  0  0
   33.5180   27.8510   47.5640 N   0  0  0  0  0  0  0  0  0  0  0  0
   37.0410   31.0190   47.7040 N   0  0  0  0  0  0  0  0  0  0  0  0
   37.9400   32.1400   48.0270 C   0  0  0  0  0  0  0  0  0  0  0  0
   39.1840   31.8900   47.2020 C   0  0  0  0  0  0  0  0  0  0  0  0
   38.7100   31.0690   46.0200 C   0  0  0  0  0  0  0  0  0  0  0  0
   37.2140   30.9290   46.2660 C   0  0  0  0  0  0  0  0  0  0  0  0
   37.2220   30.8250   50.5970 C   0  0  0  0  0  0  0  0  0  0  0  0
   38.5120   30.6770   50.1440 F   0  0  0  0  0  0  0  0  0  0  0  0
   36.8700   32.1640   50.4860 F   0  0  0  0  0  0  0  0  0  0  0  0
   37.1970   30.5050   51.9410 F   0  0  0  0  0  0  0  0  0  0  0  0
   35.4265   29.0713   51.5581 H   0  0  0  0  0  0  0  0  0  0  0  0
   32.8327   27.1827   47.9442 H   0  0  0  0  0  0  0  0  0  0  0  0
   33.5629   28.0213   46.5492 H   0  0  0  0  0  0  0  0  0  0  0  0
   37.4780   33.0991   47.7501 H   0  0  0  0  0  0  0  0  0  0  0  0
   38.1608   32.1976   49.1031 H   0  0  0  0  0  0  0  0  0  0  0  0
   39.6207   32.8408   46.8625 H   0  0  0  0  0  0  0  0  0  0  0  0
   39.9657   31.3732   47.7780 H   0  0  0  0  0  0  0  0  0  0  0  0
   39.2000   30.0843   46.0026 H   0  0  0  0  0  0  0  0  0  0  0  0
   38.9446   31.5348   45.0515 H   0  0  0  0  0  0  0  0  0  0  0  0
   36.6654   31.7386   45.7625 H   0  0  0  0  0  0  0  0  0  0  0  0
   36.8250   29.9795   45.8695 H   0  0  0  0  0  0  0  0  0  0  0  0
  2  1  2  0
  2 13  1  0
  3  2  1  0
  4  3  2  0
  4  5  1  0
  5  6  2  0
  6  1  1  0
  7  5  1  0
  8  9  1  0
  8  3  1  0
 10  9  1  0
 11 12  1  0
 11 10  1  0
 12  8  1  0
 13 16  1  0
 14 13  1  0
 15 13  1  0
  1 17  1  0
  7 18  1  0
  7 19  1  0
  9 20  1  0
  9 21  1  0
 10 22  1  0
 10 23  1  0
 11 24  1  0
 11 25  1  0
 12 26  1  0
 12 27  1  0
M  ISO  8  17  14  20  13  21  13  22  13  23  13  24  13  25  13  26  13
M  ISO  1  27  13
M  END
>  <minimizedAffinity>  (1) 
-5.92382288

>  <minimizedRMSD>  (1) 
0.643777192

$$$$
