
     RDKit          3D

 19 19  0  0  0  0  0  0  0  0999 V2000
   34.7100   29.7080   49.1510 C   0  0  0  0  0  0  0  0  0  0  0  0
   36.0810   29.9720   49.3360 C   0  0  0  0  0  0  0  0  0  0  0  0
   36.8350   30.3410   48.2240 C   0  0  0  0  0  0  0  0  0  0  0  0
   36.1990   30.4290   47.0160 N   0  0  0  0  0  0  0  0  0  0  0  0
   34.8770   30.1670   46.8830 C   0  0  0  0  0  0  0  0  0  0  0  0
   34.1310   29.8060   47.9470 N   0  0  0  0  0  0  0  0  0  0  0  0
   34.4480   30.3330   45.5350 N   0  0  0  0  0  0  0  0  0  0  0  0
   38.5450   31.8610   49.0050 C   0  0  0  0  0  0  0  0  0  0  0  0
   37.6460   32.6770   49.3860 O   0  0  0  0  0  0  0  0  0  0  0  0
   38.2200   30.6120   48.3860 N   0  0  0  0  0  0  0  0  0  0  0  0
   36.6690   29.8440   50.7020 C   0  0  0  0  0  0  0  0  0  0  0  0
   37.8960   29.1810   50.6580 F   0  0  0  0  0  0  0  0  0  0  0  0
   36.8740   31.1040   51.1950 F   0  0  0  0  0  0  0  0  0  0  0  0
   35.8540   29.1310   51.5600 F   0  0  0  0  0  0  0  0  0  0  0  0
   34.0991   29.4139   50.0172 H   0  0  0  0  0  0  0  0  0  0  0  0
   33.4630   30.1670   45.2839 H   0  0  0  0  0  0  0  0  0  0  0  0
   35.1228   30.6190   44.8113 H   0  0  0  0  0  0  0  0  0  0  0  0
   39.6026   32.1231   49.1557 H   0  0  0  0  0  0  0  0  0  0  0  0
   38.9461   29.9501   48.0769 H   0  0  0  0  0  0  0  0  0  0  0  0
  1  2  2  0
  2 11  1  0
  3 10  1  0
  3  2  1  0
  4  3  2  0
  5  4  1  0
  5  6  2  0
  6  1  1  0
  7  5  1  0
  8  9  2  0
 10  8  1  0
 11 13  1  0
 11 14  1  0
 12 11  1  0
  1 15  1  0
  7 16  1  0
  7 17  1  0
  8 18  1  0
 10 19  1  0
M  ISO  2  15  14  18   6
M  END
>  <minimizedAffinity>  (1) 
-5.32408047

>  <minimizedRMSD>  (1) 
1.89181387

$$$$
