
     RDKit          3D

 31 32  0  0  0  0  0  0  0  0999 V2000
   35.4720   30.6430   48.7370 C   0  0  0  0  0  0  0  0  0  0  0  0
   36.8340   31.0020   48.5940 C   0  0  0  0  0  0  0  0  0  0  0  0
   37.4310   30.9030   47.3540 C   0  0  0  0  0  0  0  0  0  0  0  0
   36.6700   30.4590   46.2990 N   0  0  0  0  0  0  0  0  0  0  0  0
   35.3650   30.1210   46.4660 C   0  0  0  0  0  0  0  0  0  0  0  0
   34.7670   30.2080   47.6630 N   0  0  0  0  0  0  0  0  0  0  0  0
   34.7370   29.6850   45.2710 N   0  0  0  0  0  0  0  0  0  0  0  0
   38.8230   31.2250   47.0810 C   0  0  0  0  0  0  0  0  0  0  0  0
   39.2950   30.2360   46.0140 C   0  0  0  0  0  0  0  0  0  0  0  0
   40.3070   30.9890   45.1710 C   0  0  0  0  0  0  0  0  0  0  0  0
   39.4590   31.9050   44.2940 C   0  0  0  0  0  0  0  0  0  0  0  0
   38.6950   32.8740   45.1640 C   0  0  0  0  0  0  0  0  0  0  0  0
   38.9560   32.6620   46.6290 C   0  0  0  0  0  0  0  0  0  0  0  0
   37.5790   31.4850   49.7920 C   0  0  0  0  0  0  0  0  0  0  0  0
   38.7960   30.8610   49.9390 F   0  0  0  0  0  0  0  0  0  0  0  0
   37.7650   32.8410   49.6780 F   0  0  0  0  0  0  0  0  0  0  0  0
   36.8760   31.2580   50.9660 F   0  0  0  0  0  0  0  0  0  0  0  0
   34.9848   30.7170   49.7205 H   0  0  0  0  0  0  0  0  0  0  0  0
   33.7462   29.4038   45.2829 H   0  0  0  0  0  0  0  0  0  0  0  0
   35.2718   29.6497   44.3914 H   0  0  0  0  0  0  0  0  0  0  0  0
   39.4473   31.1334   47.9820 H   0  0  0  0  0  0  0  0  0  0  0  0
   39.7649   29.3599   46.4848 H   0  0  0  0  0  0  0  0  0  0  0  0
   38.4565   29.8662   45.4056 H   0  0  0  0  0  0  0  0  0  0  0  0
   40.9845   31.5768   45.8078 H   0  0  0  0  0  0  0  0  0  0  0  0
   40.9467   30.3161   44.5811 H   0  0  0  0  0  0  0  0  0  0  0  0
   38.7499   31.2995   43.7104 H   0  0  0  0  0  0  0  0  0  0  0  0
   40.1139   32.4656   43.6107 H   0  0  0  0  0  0  0  0  0  0  0  0
   38.9936   33.8985   44.8972 H   0  0  0  0  0  0  0  0  0  0  0  0
   37.6221   32.7065   44.9882 H   0  0  0  0  0  0  0  0  0  0  0  0
   39.9795   32.9996   46.8494 H   0  0  0  0  0  0  0  0  0  0  0  0
   38.1913   33.2363   47.1725 H   0  0  0  0  0  0  0  0  0  0  0  0
  2  1  2  0
  2 14  1  0
  3  2  1  0
  4  5  1  0
  4  3  2  0
  5  6  2  0
  6  1  1  0
  7  5  1  0
  8  3  1  0
  9  8  1  0
 10  9  1  0
 11 12  1  0
 11 10  1  0
 12 13  1  0
 13  8  1  0
 14 15  1  0
 14 17  1  0
 16 14  1  0
  1 18  1  0
  7 19  1  0
  7 20  1  0
  8 21  1  0
  9 22  1  0
  9 23  1  0
 10 24  1  0
 10 25  1  0
 11 26  1  0
 11 27  1  0
 12 28  1  0
 12 29  1  0
 13 30  1  0
 13 31  1  0
M  ISO  8  18  14  21  13  22  13  23  13  24  13  25  13  26  13  27  13
M  ISO  4  28  13  29  13  30  13  31  13
M  END
>  <minimizedAffinity>  (1) 
-5.26002741

>  <minimizedRMSD>  (1) 
2.98809934

$$$$
