
     RDKit          3D

 21 21  0  0  0  0  0  0  0  0999 V2000
   35.6640   29.1290   49.9810 C   0  0  0  0  0  0  0  0  0  0  0  0
   36.4230   30.2500   49.5510 C   0  0  0  0  0  0  0  0  0  0  0  0
   36.3230   30.6440   48.2220 C   0  0  0  0  0  0  0  0  0  0  0  0
   35.4970   29.9330   47.3920 N   0  0  0  0  0  0  0  0  0  0  0  0
   34.7860   28.8690   47.8340 C   0  0  0  0  0  0  0  0  0  0  0  0
   34.8620   28.4680   49.1050 N   0  0  0  0  0  0  0  0  0  0  0  0
   34.0020   28.2870   46.8030 N   0  0  0  0  0  0  0  0  0  0  0  0
   37.2860   30.9410   50.5430 C   0  0  0  0  0  0  0  0  0  0  0  0
   38.6250   30.8880   50.1610 F   0  0  0  0  0  0  0  0  0  0  0  0
   36.9070   32.2540   50.5940 F   0  0  0  0  0  0  0  0  0  0  0  0
   37.1930   30.3900   51.8040 F   0  0  0  0  0  0  0  0  0  0  0  0
   37.0590   31.7380   47.7840 O   0  0  0  0  0  0  0  0  0  0  0  0
   39.5700   32.2490   47.0120 O   0  0  0  0  0  0  0  0  0  0  0  0
   38.2190   31.7110   46.5680 P   0  0  0  0  0  0  0  0  0  0  0  0
   38.3790   30.1560   45.9020 O   0  0  0  0  0  0  0  0  0  0  0  0
   37.6620   32.7430   45.3230 O   0  0  0  0  0  0  0  0  0  0  0  0
   35.7255   28.7945   51.0271 H   0  0  0  0  0  0  0  0  0  0  0  0
   33.4116   27.4676   47.0052 H   0  0  0  0  0  0  0  0  0  0  0  0
   34.0237   28.6842   45.8529 H   0  0  0  0  0  0  0  0  0  0  0  0
   38.4475   29.4901   46.6314 H   0  0  0  0  0  0  0  0  0  0  0  0
   37.2318   33.5400   45.7228 H   0  0  0  0  0  0  0  0  0  0  0  0
  2  1  2  0
  2  8  1  0
  3  2  1  0
  4  5  1  0
  4  3  2  0
  5  6  2  0
  6  1  1  0
  7  5  1  0
  8 10  1  0
  8 11  1  0
  9  8  1  0
 12  3  1  0
 14 13  2  0
 14 12  1  0
 15 14  1  0
 16 14  1  0
  1 17  1  0
  7 18  1  0
  7 19  1  0
 15 20  1  0
 16 21  1  0
M  ISO  3  17  14  20   3  21   3
M  END
>  <minimizedAffinity>  (1) 
-5.24049711

>  <minimizedRMSD>  (1) 
0.413773537

$$$$
