
     RDKit          3D

 28 29  0  0  0  0  0  0  0  0999 V2000
   35.4360   28.7620   49.5230 C   0  0  0  0  0  0  0  0  0  0  0  0
   36.4800   29.7350   49.5140 C   0  0  0  0  0  0  0  0  0  0  0  0
   36.3880   30.8120   48.6370 C   0  0  0  0  0  0  0  0  0  0  0  0
   35.2810   30.8690   47.8240 N   0  0  0  0  0  0  0  0  0  0  0  0
   34.3060   29.9340   47.8520 C   0  0  0  0  0  0  0  0  0  0  0  0
   34.3730   28.8820   48.6940 N   0  0  0  0  0  0  0  0  0  0  0  0
   33.2700   30.1870   46.9190 N   0  0  0  0  0  0  0  0  0  0  0  0
   38.2590   31.9920   47.5320 C   0  0  0  0  0  0  0  0  0  0  0  0
   37.3660   31.8580   48.5720 C   0  0  0  0  0  0  0  0  0  0  0  0
   37.4470   32.7060   49.6570 C   0  0  0  0  0  0  0  0  0  0  0  0
   38.4220   33.7150   49.7350 C   0  0  0  0  0  0  0  0  0  0  0  0
   39.2830   33.7940   48.6590 C   0  0  0  0  0  0  0  0  0  0  0  0
   39.2600   32.9790   47.5410 C   0  0  0  0  0  0  0  0  0  0  0  0
   38.2150   30.9980   46.0980 S   0  0  0  0  0  0  0  0  0  0  0  0
   37.1730   31.5380   45.1350 O   0  0  0  0  0  0  0  0  0  0  0  0
   37.8620   29.5870   46.3770 O   0  0  0  0  0  0  0  0  0  0  0  0
   37.6160   29.5560   50.4650 C   0  0  0  0  0  0  0  0  0  0  0  0
   38.8040   29.9410   49.9060 F   0  0  0  0  0  0  0  0  0  0  0  0
   37.3610   30.3420   51.5850 F   0  0  0  0  0  0  0  0  0  0  0  0
   37.7630   28.2460   50.8960 F   0  0  0  0  0  0  0  0  0  0  0  0
   35.4959   27.9057   50.2108 H   0  0  0  0  0  0  0  0  0  0  0  0
   32.4709   29.5409   46.8490 H   0  0  0  0  0  0  0  0  0  0  0  0
   33.3161   31.0170   46.3108 H   0  0  0  0  0  0  0  0  0  0  0  0
   36.7297   32.5894   50.4827 H   0  0  0  0  0  0  0  0  0  0  0  0
   38.4942   34.3961   50.5957 H   0  0  0  0  0  0  0  0  0  0  0  0
   40.0569   34.5750   48.6934 H   0  0  0  0  0  0  0  0  0  0  0  0
   39.9768   33.0956   46.7148 H   0  0  0  0  0  0  0  0  0  0  0  0
   39.4787   31.0367   45.5703 H   0  0  0  0  0  0  0  0  0  0  0  0
  2  1  2  0
  2 17  1  0
  3  2  1  0
  4  5  1  0
  4  3  2  0
  5  6  2  0
  6  1  1  0
  7  5  1  0
  8 13  2  0
  8  9  1  0
  9  3  1  0
  9 10  2  0
 10 11  1  0
 12 11  2  0
 13 12  1  0
 14 16  2  0
 14  8  1  0
 15 14  2  0
 17 20  1  0
 17 19  1  0
 18 17  1  0
  1 21  1  0
  7 22  1  0
  7 23  1  0
 10 24  1  0
 11 25  1  0
 12 26  1  0
 13 27  1  0
 14 28  1  0
M  ISO  6  21  14  24  14  25  14  26  14  27  14  28  11
M  END
>  <minimizedAffinity>  (1) 
-5.16355133

>  <minimizedRMSD>  (1) 
1.58833218

$$$$
