
     RDKit          3D

 40 42  0  0  0  0  0  0  0  0999 V2000
   37.1620   31.4040   48.6040 C   0  0  0  0  0  0  0  0  0  0  0  0
   37.1890   32.4180   49.5690 C   0  0  0  0  0  0  0  0  0  0  0  0
   38.1360   33.4280   49.4710 C   0  0  0  0  0  0  0  0  0  0  0  0
   39.0440   33.4190   48.4190 C   0  0  0  0  0  0  0  0  0  0  0  0
   38.9870   32.3960   47.4790 C   0  0  0  0  0  0  0  0  0  0  0  0
   38.0590   31.4440   47.6150 N   0  0  0  0  0  0  0  0  0  0  0  0
   35.1890   28.6050   50.1430 C   0  0  0  0  0  0  0  0  0  0  0  0
   36.2410   29.5380   49.9220 C   0  0  0  0  0  0  0  0  0  0  0  0
   36.1130   30.4380   48.8630 C   0  0  0  0  0  0  0  0  0  0  0  0
   34.9810   30.3690   48.0990 N   0  0  0  0  0  0  0  0  0  0  0  0
   34.0020   29.4640   48.3460 C   0  0  0  0  0  0  0  0  0  0  0  0
   34.1030   28.5880   49.3570 N   0  0  0  0  0  0  0  0  0  0  0  0
   32.9290   29.5890   47.4180 N   0  0  0  0  0  0  0  0  0  0  0  0
   37.4180   29.5110   50.8210 C   0  0  0  0  0  0  0  0  0  0  0  0
   38.5950   29.8190   50.1290 F   0  0  0  0  0  0  0  0  0  0  0  0
   37.2390   30.4300   51.8050 F   0  0  0  0  0  0  0  0  0  0  0  0
   37.6210   28.2730   51.4110 F   0  0  0  0  0  0  0  0  0  0  0  0
   39.9350   32.3410   46.3360 C   0  0  0  0  0  0  0  0  0  0  0  0
   39.7640   33.5290   45.4540 C   0  0  0  0  0  0  0  0  0  0  0  0
   40.1660   33.3660   44.0360 C   0  0  0  0  0  0  0  0  0  0  0  0
   39.9900   31.9990   43.4560 C   0  0  0  0  0  0  0  0  0  0  0  0
   40.5410   30.9200   44.3830 C   0  0  0  0  0  0  0  0  0  0  0  0
   39.6870   31.0280   45.6390 C   0  0  0  0  0  0  0  0  0  0  0  0
   36.4658   32.4143   50.3978 H   0  0  0  0  0  0  0  0  0  0  0  0
   38.1676   34.2312   50.2219 H   0  0  0  0  0  0  0  0  0  0  0  0
   39.8001   34.2131   48.3308 H   0  0  0  0  0  0  0  0  0  0  0  0
   35.2683   27.8864   50.9720 H   0  0  0  0  0  0  0  0  0  0  0  0
   32.1136   28.9634   47.4862 H   0  0  0  0  0  0  0  0  0  0  0  0
   32.9683   30.3050   46.6786 H   0  0  0  0  0  0  0  0  0  0  0  0
   40.9846   32.3829   46.6626 H   0  0  0  0  0  0  0  0  0  0  0  0
   38.6995   33.8058   45.4695 H   0  0  0  0  0  0  0  0  0  0  0  0
   40.4419   34.2932   45.8618 H   0  0  0  0  0  0  0  0  0  0  0  0
   39.5678   34.0661   43.4343 H   0  0  0  0  0  0  0  0  0  0  0  0
   41.2483   33.5607   44.0111 H   0  0  0  0  0  0  0  0  0  0  0  0
   38.9177   31.8159   43.2929 H   0  0  0  0  0  0  0  0  0  0  0  0
   40.5452   31.9538   42.5075 H   0  0  0  0  0  0  0  0  0  0  0  0
   40.4377   29.9246   43.9264 H   0  0  0  0  0  0  0  0  0  0  0  0
   41.6127   31.0536   44.5917 H   0  0  0  0  0  0  0  0  0  0  0  0
   38.6248   30.9609   45.3611 H   0  0  0  0  0  0  0  0  0  0  0  0
   39.9536   30.2076   46.3215 H   0  0  0  0  0  0  0  0  0  0  0  0
  1  9  1  0
  1  2  2  0
  3  2  1  0
  4  3  2  0
  5  6  2  0
  5  4  1  0
  6  1  1  0
  8  7  2  0
  8 14  1  0
  9  8  1  0
 10 11  1  0
 10  9  2  0
 11 12  2  0
 12  7  1  0
 13 11  1  0
 14 17  1  0
 14 16  1  0
 15 14  1  0
 18  5  1  0
 19 18  1  0
 20 19  1  0
 21 20  1  0
 21 22  1  0
 22 23  1  0
 23 18  1  0
  2 24  1  0
  3 25  1  0
  4 26  1  0
  7 27  1  0
 13 28  1  0
 13 29  1  0
 18 30  1  0
 19 31  1  0
 19 32  1  0
 20 33  1  0
 20 34  1  0
 21 35  1  0
 21 36  1  0
 22 37  1  0
 22 38  1  0
 23 39  1  0
 23 40  1  0
M  ISO  8  24  14  25  14  26  14  27  14  30  13  31  13  32  13  33  13
M  ISO  7  34  13  35  13  36  13  37  13  38  13  39  13  40  13
M  END
>  <minimizedAffinity>  (1) 
-7.61394596

>  <minimizedRMSD>  (1) 
1.30276656

$$$$
