
     RDKit          3D

 31 33  0  0  0  0  0  0  0  0999 V2000
   37.0270   31.3500   48.5850 C   0  0  0  0  0  0  0  0  0  0  0  0
   37.1960   32.2900   49.5960 C   0  0  0  0  0  0  0  0  0  0  0  0
   38.1370   33.2900   49.4440 C   0  0  0  0  0  0  0  0  0  0  0  0
   38.9060   33.3750   48.3170 C   0  0  0  0  0  0  0  0  0  0  0  0
   38.7160   32.4340   47.3380 C   0  0  0  0  0  0  0  0  0  0  0  0
   37.7970   31.4460   47.4730 N   0  0  0  0  0  0  0  0  0  0  0  0
   35.1670   28.5410   50.2190 C   0  0  0  0  0  0  0  0  0  0  0  0
   36.1890   29.4980   49.9450 C   0  0  0  0  0  0  0  0  0  0  0  0
   36.0080   30.3670   48.8870 C   0  0  0  0  0  0  0  0  0  0  0  0
   34.8630   30.2680   48.1570 N   0  0  0  0  0  0  0  0  0  0  0  0
   33.9100   29.3380   48.4510 C   0  0  0  0  0  0  0  0  0  0  0  0
   34.0520   28.4880   49.4630 N   0  0  0  0  0  0  0  0  0  0  0  0
   32.8050   29.4350   47.5400 N   0  0  0  0  0  0  0  0  0  0  0  0
   37.4010   29.5080   50.8180 C   0  0  0  0  0  0  0  0  0  0  0  0
   38.5400   29.8140   50.0810 F   0  0  0  0  0  0  0  0  0  0  0  0
   37.2260   30.4600   51.7810 F   0  0  0  0  0  0  0  0  0  0  0  0
   37.6270   28.2990   51.4400 F   0  0  0  0  0  0  0  0  0  0  0  0
   39.3810   32.2520   46.0150 C   0  0  0  0  0  0  0  0  0  0  0  0
   39.6240   31.0150   45.6110 C   0  0  0  0  0  0  0  0  0  0  0  0
   40.2100   30.6180   44.4610 C   0  0  0  0  0  0  0  0  0  0  0  0
   40.5590   31.8070   43.6790 C   0  0  0  0  0  0  0  0  0  0  0  0
   39.9650   33.2750   44.7740 S   0  0  0  0  0  0  0  0  0  0  0  0
   36.5853   32.2377   50.5094 H   0  0  0  0  0  0  0  0  0  0  0  0
   38.2700   34.0320   50.2451 H   0  0  0  0  0  0  0  0  0  0  0  0
   39.6537   34.1732   48.1992 H   0  0  0  0  0  0  0  0  0  0  0  0
   35.2901   27.8385   51.0565 H   0  0  0  0  0  0  0  0  0  0  0  0
   32.0025   28.7962   47.6339 H   0  0  0  0  0  0  0  0  0  0  0  0
   32.8146   30.1434   46.7924 H   0  0  0  0  0  0  0  0  0  0  0  0
   39.3104   30.2129   46.2953 H   0  0  0  0  0  0  0  0  0  0  0  0
   40.3946   29.5758   44.1613 H   0  0  0  0  0  0  0  0  0  0  0  0
   41.0473   31.8508   42.6943 H   0  0  0  0  0  0  0  0  0  0  0  0
  1  9  1  0
  1  2  2  0
  3  2  1  0
  4  3  2  0
  5  6  2  0
  5  4  1  0
  6  1  1  0
  8  7  2  0
  8 14  1  0
  9  8  1  0
 10 11  1  0
 10  9  2  0
 11 12  2  0
 12  7  1  0
 13 11  1  0
 14 17  1  0
 14 16  1  0
 15 14  1  0
 18  5  1  0
 19 18  2  0
 20 19  1  0
 21 20  2  0
 21 22  1  0
 22 18  1  0
  2 23  1  0
  3 24  1  0
  4 25  1  0
  7 26  1  0
 13 27  1  0
 13 28  1  0
 19 29  1  0
 20 30  1  0
 21 31  1  0
M  ISO  7  23  14  24  14  25  14  26  14  29  14  30  14  31  14
M  END
>  <minimizedAffinity>  (1) 
-7.06746101

>  <minimizedRMSD>  (1) 
0.613525748

$$$$
