
     RDKit          3D

 38 41  0  0  0  0  0  0  0  0999 V2000
   36.8990   31.2620   48.5750 C   0  0  0  0  0  0  0  0  0  0  0  0
   37.1300   32.1590   49.6080 C   0  0  0  0  0  0  0  0  0  0  0  0
   38.0620   33.1830   49.4020 C   0  0  0  0  0  0  0  0  0  0  0  0
   38.7350   33.2940   48.1940 C   0  0  0  0  0  0  0  0  0  0  0  0
   38.4750   32.3820   47.1940 C   0  0  0  0  0  0  0  0  0  0  0  0
   37.5810   31.4160   47.4210 N   0  0  0  0  0  0  0  0  0  0  0  0
   35.1790   28.4320   50.3330 C   0  0  0  0  0  0  0  0  0  0  0  0
   36.1630   29.4090   50.0100 C   0  0  0  0  0  0  0  0  0  0  0  0
   35.9230   30.2650   48.9290 C   0  0  0  0  0  0  0  0  0  0  0  0
   34.7540   30.1050   48.2510 N   0  0  0  0  0  0  0  0  0  0  0  0
   33.8370   29.1560   48.5940 C   0  0  0  0  0  0  0  0  0  0  0  0
   34.0550   28.3290   49.6280 N   0  0  0  0  0  0  0  0  0  0  0  0
   32.7060   29.1890   47.7370 N   0  0  0  0  0  0  0  0  0  0  0  0
   37.3930   29.4750   50.8290 C   0  0  0  0  0  0  0  0  0  0  0  0
   38.5100   29.8010   50.0540 F   0  0  0  0  0  0  0  0  0  0  0  0
   37.2590   30.4140   51.7870 F   0  0  0  0  0  0  0  0  0  0  0  0
   37.6990   28.2630   51.4530 F   0  0  0  0  0  0  0  0  0  0  0  0
   39.1320   32.4350   45.8980 C   0  0  0  0  0  0  0  0  0  0  0  0
   40.4470   32.1220   45.6330 C   0  0  0  0  0  0  0  0  0  0  0  0
   40.7110   32.2900   44.2840 C   0  0  0  0  0  0  0  0  0  0  0  0
   39.5170   32.7080   43.7640 N   0  0  0  0  0  0  0  0  0  0  0  0
   38.6120   32.7850   44.7190 N   0  0  0  0  0  0  0  0  0  0  0  0
   39.3740   33.0000   42.3410 C   0  0  0  0  0  0  0  0  0  0  0  0
   39.5480   31.8770   41.3610 C   0  0  0  0  0  0  0  0  0  0  0  0
   38.1760   32.3910   41.6040 C   0  0  0  0  0  0  0  0  0  0  0  0
   36.5944   32.0678   50.5645 H   0  0  0  0  0  0  0  0  0  0  0  0
   38.2627   33.9067   50.2058 H   0  0  0  0  0  0  0  0  0  0  0  0
   39.4670   34.0998   48.0363 H   0  0  0  0  0  0  0  0  0  0  0  0
   35.3507   27.7509   51.1795 H   0  0  0  0  0  0  0  0  0  0  0  0
   31.9317   28.5251   47.8804 H   0  0  0  0  0  0  0  0  0  0  0  0
   32.6596   29.8768   46.9717 H   0  0  0  0  0  0  0  0  0  0  0  0
   41.1795   31.7878   46.3825 H   0  0  0  0  0  0  0  0  0  0  0  0
   41.6606   32.1255   43.7537 H   0  0  0  0  0  0  0  0  0  0  0  0
   39.7990   34.0076   42.4601 H   0  0  0  0  0  0  0  0  0  0  0  0
   39.8271   30.8764   41.7227 H   0  0  0  0  0  0  0  0  0  0  0  0
   40.1649   31.7320   40.4619 H   0  0  0  0  0  0  0  0  0  0  0  0
   37.6575   32.9679   40.8241 H   0  0  0  0  0  0  0  0  0  0  0  0
   37.2180   31.9441   41.9082 H   0  0  0  0  0  0  0  0  0  0  0  0
  1  9  1  0
  1  2  2  0
  3  2  1  0
  4  3  2  0
  5  6  2  0
  5  4  1  0
  6  1  1  0
  8  7  2  0
  8 14  1  0
  9  8  1  0
 10 11  1  0
 10  9  2  0
 11 12  2  0
 12  7  1  0
 13 11  1  0
 14 17  1  0
 14 16  1  0
 15 14  1  0
 18  5  1  0
 19 18  1  0
 20 19  2  0
 21 20  1  0
 21 22  1  0
 22 18  2  0
 23 21  1  0
 24 25  1  0
 24 23  1  0
 25 23  1  0
  2 26  1  0
  3 27  1  0
  4 28  1  0
  7 29  1  0
 13 30  1  0
 13 31  1  0
 19 32  1  0
 20 33  1  0
 23 34  1  0
 24 35  1  0
 24 36  1  0
 25 37  1  0
 25 38  1  0
M  ISO  8  26  14  27  14  28  14  29  14  32  14  33  14  34  13  35  13
M  ISO  3  36  13  37  13  38  13
M  END
>  <minimizedAffinity>  (1) 
-7.0094862

>  <minimizedRMSD>  (1) 
1.14931118

$$$$
