
     RDKit          3D

 20 21  0  0  0  0  0  0  0  0999 V2000
   37.5790   30.9730   49.2290 C   0  0  0  0  0  0  0  0  0  0  0  0
   38.1460   32.2300   49.5820 C   0  0  0  0  0  0  0  0  0  0  0  0
   38.8950   32.8990   48.6030 C   0  0  0  0  0  0  0  0  0  0  0  0
   39.0320   32.3050   47.3820 N   0  0  0  0  0  0  0  0  0  0  0  0
   38.4800   31.1110   47.0830 C   0  0  0  0  0  0  0  0  0  0  0  0
   37.7630   30.4580   48.0020 N   0  0  0  0  0  0  0  0  0  0  0  0
   39.4980   34.2090   48.9370 C   0  0  0  0  0  0  0  0  0  0  0  0
   40.0040   34.0760   50.2120 F   0  0  0  0  0  0  0  0  0  0  0  0
   40.5220   34.5540   48.0840 F   0  0  0  0  0  0  0  0  0  0  0  0
   38.5560   35.2320   48.9430 F   0  0  0  0  0  0  0  0  0  0  0  0
   36.7870   30.2750   50.2790 C   0  0  0  0  0  0  0  0  0  0  0  0
   37.2530   30.1290   51.6530 C   0  0  0  0  0  0  0  0  0  0  0  0
   37.4290   28.9680   50.7210 C   0  0  0  0  0  0  0  0  0  0  0  0
   38.0022   32.6602   50.5841 H   0  0  0  0  0  0  0  0  0  0  0  0
   38.6202   30.6751   46.0828 H   0  0  0  0  0  0  0  0  0  0  0  0
   35.8295   30.6436   49.8823 H   0  0  0  0  0  0  0  0  0  0  0  0
   38.1341   30.6935   51.9922 H   0  0  0  0  0  0  0  0  0  0  0  0
   36.7827   30.2555   52.6393 H   0  0  0  0  0  0  0  0  0  0  0  0
   36.8183   28.0610   50.8409 H   0  0  0  0  0  0  0  0  0  0  0  0
   38.2707   28.3460   50.3824 H   0  0  0  0  0  0  0  0  0  0  0  0
  1  2  2  0
  1 11  1  0
  3  7  1  0
  3  2  1  0
  4  3  2  0
  5  4  1  0
  5  6  2  0
  6  1  1  0
  7 10  1  0
  7  8  1  0
  9  7  1  0
 11 13  1  0
 11 12  1  0
 13 12  1  0
  2 14  1  0
  5 15  1  0
 11 16  1  0
 12 17  1  0
 12 18  1  0
 13 19  1  0
 13 20  1  0
M  ISO  7  14  14  15  14  16  13  17  13  18  13  19  13  20  13
M  END
>  <minimizedAffinity>  (1) 
-5.03616858

>  <minimizedRMSD>  (1) 
3.06020927

$$$$
