
     RDKit          3D

 15 15  0  0  0  0  0  0  0  0999 V2000
   37.7260   30.4010   49.6820 C   0  0  0  0  0  0  0  0  0  0  0  0
   38.2490   31.6890   49.9230 C   0  0  0  0  0  0  0  0  0  0  0  0
   38.6140   32.4790   48.8290 C   0  0  0  0  0  0  0  0  0  0  0  0
   38.4370   31.9490   47.5980 N   0  0  0  0  0  0  0  0  0  0  0  0
   37.9370   30.7190   47.3920 C   0  0  0  0  0  0  0  0  0  0  0  0
   37.5850   29.9560   48.4340 N   0  0  0  0  0  0  0  0  0  0  0  0
   39.1650   33.8340   49.0710 C   0  0  0  0  0  0  0  0  0  0  0  0
   39.7930   33.7860   50.2820 F   0  0  0  0  0  0  0  0  0  0  0  0
   40.0870   34.2120   48.1130 F   0  0  0  0  0  0  0  0  0  0  0  0
   38.1660   34.7940   49.1330 F   0  0  0  0  0  0  0  0  0  0  0  0
   37.3700   29.6390   50.8660 C   0  0  0  0  0  0  0  0  0  0  0  0
   37.4510   30.0860   52.0490 O   0  0  0  0  0  0  0  0  0  0  0  0
   38.3671   32.0638   50.9504 H   0  0  0  0  0  0  0  0  0  0  0  0
   37.8169   30.3389   46.3668 H   0  0  0  0  0  0  0  0  0  0  0  0
   37.0075   28.6098   50.7272 H   0  0  0  0  0  0  0  0  0  0  0  0
  1  2  2  0
  1 11  1  0
  3  7  1  0
  3  2  1  0
  4  3  2  0
  5  4  1  0
  5  6  2  0
  6  1  1  0
  7 10  1  0
  7  8  1  0
  9  7  1  0
 11 12  2  0
  2 13  1  0
  5 14  1  0
 11 15  1  0
M  ISO  3  13  14  14  14  15   6
M  END
>  <minimizedAffinity>  (1) 
-4.50358486

>  <minimizedRMSD>  (1) 
2.51486969

$$$$
