
     RDKit          3D

 14 14  0  0  0  0  0  0  0  0999 V2000
   37.4330   29.9020   51.2970 C   0  0  0  0  0  0  0  0  0  0  0  0
   38.0650   30.9380   50.5670 C   0  0  0  0  0  0  0  0  0  0  0  0
   37.3650   31.5240   49.5040 C   0  0  0  0  0  0  0  0  0  0  0  0
   36.1050   31.0560   49.2360 N   0  0  0  0  0  0  0  0  0  0  0  0
   35.5380   30.0690   49.9530 C   0  0  0  0  0  0  0  0  0  0  0  0
   36.2080   29.5020   50.9770 N   0  0  0  0  0  0  0  0  0  0  0  0
   38.0060   32.6060   48.7290 C   0  0  0  0  0  0  0  0  0  0  0  0
   39.3440   32.5210   48.9890 F   0  0  0  0  0  0  0  0  0  0  0  0
   37.8210   32.4660   47.3670 F   0  0  0  0  0  0  0  0  0  0  0  0
   37.5590   33.8600   49.1250 F   0  0  0  0  0  0  0  0  0  0  0  0
   38.0700   29.2790   52.3610 O   0  0  0  0  0  0  0  0  0  0  0  0
   39.0794   31.2740   50.8278 H   0  0  0  0  0  0  0  0  0  0  0  0
   34.5241   29.7231   49.7032 H   0  0  0  0  0  0  0  0  0  0  0  0
   37.6109   28.5567   52.8586 H   0  0  0  0  0  0  0  0  0  0  0  0
  1 11  1  0
  2  1  2  0
  3  2  1  0
  4  3  2  0
  4  5  1  0
  5  6  2  0
  6  1  1  0
  7  8  1  0
  7 10  1  0
  7  3  1  0
  9  7  1  0
  2 12  1  0
  5 13  1  0
 11 14  1  0
M  ISO  3  12  14  13  14  14   3
M  END
>  <minimizedAffinity>  (1) 
-4.46440697

>  <minimizedRMSD>  (1) 
0.78698045

$$$$
