
     RDKit          3D

 16 16  0  0  0  0  0  0  0  0999 V2000
   36.9120   30.2020   50.6480 C   0  0  0  0  0  0  0  0  0  0  0  0
   37.7780   31.0600   49.9240 C   0  0  0  0  0  0  0  0  0  0  0  0
   37.4010   31.4000   48.6180 C   0  0  0  0  0  0  0  0  0  0  0  0
   36.2380   30.8880   48.1360 N   0  0  0  0  0  0  0  0  0  0  0  0
   35.4420   30.0750   48.8560 C   0  0  0  0  0  0  0  0  0  0  0  0
   35.7880   29.7420   50.1040 N   0  0  0  0  0  0  0  0  0  0  0  0
   38.2970   32.3030   47.8360 C   0  0  0  0  0  0  0  0  0  0  0  0
   39.4990   31.6730   47.7410 F   0  0  0  0  0  0  0  0  0  0  0  0
   37.8140   32.5430   46.5610 F   0  0  0  0  0  0  0  0  0  0  0  0
   38.4840   33.5250   48.4920 F   0  0  0  0  0  0  0  0  0  0  0  0
   37.3400   29.8530   52.0500 C   0  0  0  0  0  0  0  0  0  0  0  0
   38.7079   31.4431   50.3694 H   0  0  0  0  0  0  0  0  0  0  0  0
   34.5104   29.6861   48.4191 H   0  0  0  0  0  0  0  0  0  0  0  0
   36.6963   30.3779   52.7712 H   0  0  0  0  0  0  0  0  0  0  0  0
   37.2505   28.7671   52.2011 H   0  0  0  0  0  0  0  0  0  0  0  0
   38.3856   30.1592   52.2011 H   0  0  0  0  0  0  0  0  0  0  0  0
  1 11  1  0
  2  1  2  0
  3  2  1  0
  4  3  2  0
  4  5  1  0
  5  6  2  0
  6  1  1  0
  7 10  1  0
  7  3  1  0
  8  7  1  0
  9  7  1  0
  2 12  1  0
  5 13  1  0
 11 14  1  0
 11 15  1  0
 11 16  1  0
M  ISO  5  12  14  13  14  14   8  15   8  16   8
M  END
>  <minimizedAffinity>  (1) 
-4.2811017

>  <minimizedRMSD>  (1) 
1.47112978

$$$$
