
     RDKit          3D

 33 36  0  0  0  0  0  0  0  0999 V2000
   38.9160   31.0330   45.9070 C   0  0  0  0  0  0  0  0  0  0  0  0
   40.0370   31.7700   46.1740 C   0  0  0  0  0  0  0  0  0  0  0  0
   40.9050   31.7560   45.0870 C   0  0  0  0  0  0  0  0  0  0  0  0
   40.2570   30.9920   44.1770 N   0  0  0  0  0  0  0  0  0  0  0  0
   39.0940   30.5680   44.6540 N   0  0  0  0  0  0  0  0  0  0  0  0
   41.2570   29.4670   42.4960 N   0  0  0  0  0  0  0  0  0  0  0  0
   40.5900   30.5790   42.8540 C   0  0  0  0  0  0  0  0  0  0  0  0
   40.3060   31.2150   41.6800 N   0  0  0  0  0  0  0  0  0  0  0  0
   40.7990   30.4870   40.6590 C   0  0  0  0  0  0  0  0  0  0  0  0
   40.8070   30.6450   39.2690 C   0  0  0  0  0  0  0  0  0  0  0  0
   41.4030   29.7050   38.5140 N   0  0  0  0  0  0  0  0  0  0  0  0
   42.0030   28.6030   39.0310 C   0  0  0  0  0  0  0  0  0  0  0  0
   42.0020   28.4360   40.3850 N   0  0  0  0  0  0  0  0  0  0  0  0
   41.4130   29.3610   41.1650 C   0  0  0  0  0  0  0  0  0  0  0  0
   37.7690   30.7950   46.7760 C   0  0  0  0  0  0  0  0  0  0  0  0
   37.9440   30.9640   48.1650 C   0  0  0  0  0  0  0  0  0  0  0  0
   36.8620   30.7410   49.0040 C   0  0  0  0  0  0  0  0  0  0  0  0
   35.6850   30.3680   48.4270 N   0  0  0  0  0  0  0  0  0  0  0  0
   35.5320   30.2110   47.0940 C   0  0  0  0  0  0  0  0  0  0  0  0
   36.5850   30.4290   46.2840 N   0  0  0  0  0  0  0  0  0  0  0  0
   37.0220   30.9110   50.4670 C   0  0  0  0  0  0  0  0  0  0  0  0
   36.5240   32.1540   50.7650 F   0  0  0  0  0  0  0  0  0  0  0  0
   36.3200   29.9720   51.2000 F   0  0  0  0  0  0  0  0  0  0  0  0
   38.3610   30.8760   50.8440 F   0  0  0  0  0  0  0  0  0  0  0  0
   40.1840   31.7940   38.7060 N   0  0  0  0  0  0  0  0  0  0  0  0
   40.2262   32.3009   47.1186 H   0  0  0  0  0  0  0  0  0  0  0  0
   41.8840   32.2482   44.9902 H   0  0  0  0  0  0  0  0  0  0  0  0
   41.6101   28.7718   43.1690 H   0  0  0  0  0  0  0  0  0  0  0  0
   42.4794   27.8612   38.3732 H   0  0  0  0  0  0  0  0  0  0  0  0
   38.9189   31.2666   48.5750 H   0  0  0  0  0  0  0  0  0  0  0  0
   34.5603   29.9091   46.6761 H   0  0  0  0  0  0  0  0  0  0  0  0
   40.1790   31.9288   37.6849 H   0  0  0  0  0  0  0  0  0  0  0  0
   39.7381   32.4908   39.3196 H   0  0  0  0  0  0  0  0  0  0  0  0
  1  2  1  0
  1 15  1  0
  3  2  2  0
  4  5  1  0
  4  3  1  0
  5  1  2  0
  6  7  1  0
  7  4  1  0
  8  7  2  0
  9 14  2  0
  9  8  1  0
 10  9  1  0
 11 12  1  0
 11 10  2  0
 12 13  2  0
 13 14  1  0
 14  6  1  0
 15 16  2  0
 16 17  1  0
 17 21  1  0
 18 17  2  0
 19 18  1  0
 20 15  1  0
 20 19  2  0
 21 22  1  0
 21 24  1  0
 21 23  1  0
 25 10  1  0
  2 26  1  0
  3 27  1  0
  6 28  1  0
 12 29  1  0
 16 30  1  0
 19 31  1  0
 25 32  1  0
 25 33  1  0
M  ISO  6  26  14  27  14  28   9  29  14  30  14  31  14
M  END
>  <minimizedAffinity>  (1) 
-6.99254942

>  <minimizedRMSD>  (1) 
1.41407835

$$$$
