
     RDKit          3D

 29 31  0  0  0  0  0  0  0  0999 V2000
   38.8410   30.8020   45.7100 C   0  0  0  0  0  0  0  0  0  0  0  0
   40.0420   31.4450   45.8920 C   0  0  0  0  0  0  0  0  0  0  0  0
   40.8200   31.2930   44.7320 C   0  0  0  0  0  0  0  0  0  0  0  0
   40.0410   30.5540   43.8930 N   0  0  0  0  0  0  0  0  0  0  0  0
   38.9030   30.2820   44.4800 N   0  0  0  0  0  0  0  0  0  0  0  0
   37.7300   30.7020   46.6540 C   0  0  0  0  0  0  0  0  0  0  0  0
   37.9920   30.9570   48.0190 C   0  0  0  0  0  0  0  0  0  0  0  0
   36.9330   30.8630   48.9270 C   0  0  0  0  0  0  0  0  0  0  0  0
   35.7120   30.5290   48.4320 N   0  0  0  0  0  0  0  0  0  0  0  0
   35.4790   30.2890   47.1300 C   0  0  0  0  0  0  0  0  0  0  0  0
   36.5060   30.3810   46.2570 N   0  0  0  0  0  0  0  0  0  0  0  0
   37.2000   31.1320   50.3660 C   0  0  0  0  0  0  0  0  0  0  0  0
   36.6870   32.3760   50.6220 F   0  0  0  0  0  0  0  0  0  0  0  0
   36.5640   30.2170   51.1940 F   0  0  0  0  0  0  0  0  0  0  0  0
   38.5570   31.1500   50.6510 F   0  0  0  0  0  0  0  0  0  0  0  0
   40.5660   30.2290   42.6110 C   0  0  0  0  0  0  0  0  0  0  0  0
   41.3510   29.1470   42.2810 C   0  0  0  0  0  0  0  0  0  0  0  0
   41.7770   28.9760   40.9920 C   0  0  0  0  0  0  0  0  0  0  0  0
   41.4530   29.8500   39.9820 C   0  0  0  0  0  0  0  0  0  0  0  0
   40.6530   30.9320   40.3660 C   0  0  0  0  0  0  0  0  0  0  0  0
   40.2160   31.1240   41.6450 N   0  0  0  0  0  0  0  0  0  0  0  0
   40.3448   31.9899   46.7983 H   0  0  0  0  0  0  0  0  0  0  0  0
   41.8311   31.6830   44.5434 H   0  0  0  0  0  0  0  0  0  0  0  0
   39.0039   31.2228   48.3587 H   0  0  0  0  0  0  0  0  0  0  0  0
   34.4702   30.0225   46.7816 H   0  0  0  0  0  0  0  0  0  0  0  0
   41.6361   28.4190   43.0548 H   0  0  0  0  0  0  0  0  0  0  0  0
   42.4040   28.1039   40.7546 H   0  0  0  0  0  0  0  0  0  0  0  0
   41.7976   29.7092   38.9469 H   0  0  0  0  0  0  0  0  0  0  0  0
   40.3617   31.6645   39.5988 H   0  0  0  0  0  0  0  0  0  0  0  0
  1  2  1  0
  1  6  1  0
  3  2  2  0
  4  5  1  0
  4  3  1  0
  5  1  2  0
  6  7  2  0
  7  8  1  0
  8 12  1  0
  9  8  2  0
 10  9  1  0
 11  6  1  0
 11 10  2  0
 12 13  1  0
 12 15  1  0
 12 14  1  0
 16  4  1  0
 17 16  2  0
 18 17  1  0
 19 20  1  0
 19 18  2  0
 20 21  2  0
 21 16  1  0
  2 22  1  0
  3 23  1  0
  7 24  1  0
 10 25  1  0
 17 26  1  0
 18 27  1  0
 19 28  1  0
 20 29  1  0
M  ISO  8  22  14  23  14  24  14  25  14  26  14  27  14  28  14  29  14
M  END
>  <minimizedAffinity>  (1) 
-6.19595051

>  <minimizedRMSD>  (1) 
1.01214683

$$$$
