
     RDKit          3D

 23 24  0  0  0  0  0  0  0  0999 V2000
   37.7340   30.8000   46.5390 C   0  0  0  0  0  0  0  0  0  0  0  0
   37.9820   31.0590   47.9180 C   0  0  0  0  0  0  0  0  0  0  0  0
   36.9320   30.8840   48.8170 C   0  0  0  0  0  0  0  0  0  0  0  0
   35.7410   30.4770   48.3270 N   0  0  0  0  0  0  0  0  0  0  0  0
   35.5270   30.2370   47.0240 C   0  0  0  0  0  0  0  0  0  0  0  0
   36.5380   30.4050   46.1420 N   0  0  0  0  0  0  0  0  0  0  0  0
   38.8410   30.9870   45.6050 C   0  0  0  0  0  0  0  0  0  0  0  0
   39.8200   31.9490   45.6380 C   0  0  0  0  0  0  0  0  0  0  0  0
   40.6840   31.7680   44.5540 C   0  0  0  0  0  0  0  0  0  0  0  0
   40.1850   30.6900   43.9030 N   0  0  0  0  0  0  0  0  0  0  0  0
   39.1120   30.2440   44.5220 N   0  0  0  0  0  0  0  0  0  0  0  0
   40.7520   30.1000   42.6820 C   0  0  0  0  0  0  0  0  0  0  0  0
   37.1880   31.1530   50.2640 C   0  0  0  0  0  0  0  0  0  0  0  0
   36.6870   32.4190   50.4990 F   0  0  0  0  0  0  0  0  0  0  0  0
   36.5290   30.2530   51.0900 F   0  0  0  0  0  0  0  0  0  0  0  0
   38.5350   31.1750   50.5630 F   0  0  0  0  0  0  0  0  0  0  0  0
   38.9735   31.3875   48.2628 H   0  0  0  0  0  0  0  0  0  0  0  0
   34.5371   29.9063   46.6764 H   0  0  0  0  0  0  0  0  0  0  0  0
   39.9104   32.7387   46.3984 H   0  0  0  0  0  0  0  0  0  0  0  0
   41.5688   32.3657   44.2896 H   0  0  0  0  0  0  0  0  0  0  0  0
   41.4904   29.3317   42.9548 H   0  0  0  0  0  0  0  0  0  0  0  0
   39.9474   29.6411   42.0887 H   0  0  0  0  0  0  0  0  0  0  0  0
   41.2425   30.8857   42.0887 H   0  0  0  0  0  0  0  0  0  0  0  0
  1  2  2  0
  2  3  1  0
  3 13  1  0
  4  3  2  0
  5  4  1  0
  6  1  1  0
  6  5  2  0
  7  8  1  0
  7  1  1  0
  9  8  2  0
 10 11  1  0
 10  9  1  0
 11  7  2  0
 12 10  1  0
 13 14  1  0
 13 16  1  0
 13 15  1  0
  2 17  1  0
  5 18  1  0
  8 19  1  0
  9 20  1  0
 12 21  1  0
 12 22  1  0
 12 23  1  0
M  ISO  7  17  14  18  14  19  14  20  14  21   8  22   8  23   8
M  END
>  <minimizedAffinity>  (1) 
-5.33694649

>  <minimizedRMSD>  (1) 
0.449168503

$$$$
