
     RDKit          3D

 33 35  0  0  0  0  0  0  0  0999 V2000
   38.8760   30.8800   45.8010 C   0  0  0  0  0  0  0  0  0  0  0  0
   40.0640   31.4990   46.0730 C   0  0  0  0  0  0  0  0  0  0  0  0
   40.9290   31.4570   44.9730 C   0  0  0  0  0  0  0  0  0  0  0  0
   40.1980   30.7940   44.0610 N   0  0  0  0  0  0  0  0  0  0  0  0
   39.0060   30.4540   44.5290 N   0  0  0  0  0  0  0  0  0  0  0  0
   37.7430   30.7240   46.6880 C   0  0  0  0  0  0  0  0  0  0  0  0
   37.9410   30.9250   48.0730 C   0  0  0  0  0  0  0  0  0  0  0  0
   36.8410   30.7700   48.9160 C   0  0  0  0  0  0  0  0  0  0  0  0
   35.6420   30.4370   48.3580 N   0  0  0  0  0  0  0  0  0  0  0  0
   35.4790   30.2500   47.0310 C   0  0  0  0  0  0  0  0  0  0  0  0
   36.5340   30.3950   46.2040 N   0  0  0  0  0  0  0  0  0  0  0  0
   37.0360   30.9800   50.3780 C   0  0  0  0  0  0  0  0  0  0  0  0
   36.5470   32.2410   50.6340 F   0  0  0  0  0  0  0  0  0  0  0  0
   36.3260   30.0720   51.1420 F   0  0  0  0  0  0  0  0  0  0  0  0
   38.3770   30.9580   50.7370 F   0  0  0  0  0  0  0  0  0  0  0  0
   40.5710   30.4390   42.6850 C   0  0  0  0  0  0  0  0  0  0  0  0
   40.1730   31.2100   41.5840 C   0  0  0  0  0  0  0  0  0  0  0  0
   40.5450   30.8370   40.3500 C   0  0  0  0  0  0  0  0  0  0  0  0
   41.3370   29.6680   40.1620 C   0  0  0  0  0  0  0  0  0  0  0  0
   41.5350   29.0980   41.9260 S   0  0  0  0  0  0  0  0  0  0  0  0
   41.8690   29.0160   39.1690 O   0  0  0  0  0  0  0  0  0  0  0  0
   43.3500   29.3370   37.0410 O   0  0  0  0  0  0  0  0  0  0  0  0
   43.4050   29.3750   38.5690 P   0  0  0  0  0  0  0  0  0  0  0  0
   44.4270   28.0790   39.0030 O   0  0  0  0  0  0  0  0  0  0  0  0
   44.0300   30.8320   39.0910 O   0  0  0  0  0  0  0  0  0  0  0  0
   40.3096   31.9711   47.0357 H   0  0  0  0  0  0  0  0  0  0  0  0
   41.9470   31.8630   44.8792 H   0  0  0  0  0  0  0  0  0  0  0  0
   38.9298   31.1947   48.4726 H   0  0  0  0  0  0  0  0  0  0  0  0
   34.4918   29.9811   46.6270 H   0  0  0  0  0  0  0  0  0  0  0  0
   39.5614   32.1125   41.7304 H   0  0  0  0  0  0  0  0  0  0  0  0
   40.2373   31.4361   39.4803 H   0  0  0  0  0  0  0  0  0  0  0  0
   44.4776   28.0148   39.9896 H   0  0  0  0  0  0  0  0  0  0  0  0
   44.0385   30.8518   40.0808 H   0  0  0  0  0  0  0  0  0  0  0  0
  1  2  1  0
  1  6  1  0
  3  2  2  0
  4  5  1  0
  4  3  1  0
  5  1  2  0
  6  7  2  0
  7  8  1  0
  8 12  1  0
  9  8  2  0
 10  9  1  0
 11  6  1  0
 11 10  2  0
 12 13  1  0
 12 15  1  0
 12 14  1  0
 16  4  1  0
 17 16  2  0
 18 17  1  0
 19 18  2  0
 19 20  1  0
 20 16  1  0
 21 19  1  0
 22 23  2  0
 23 24  1  0
 23 25  1  0
 23 21  1  0
  2 26  1  0
  3 27  1  0
  7 28  1  0
 10 29  1  0
 17 30  1  0
 18 31  1  0
 24 32  1  0
 25 33  1  0
M  ISO  8  26  14  27  14  28  14  29  14  30  14  31  14  32   3  33   3
M  END
>  <minimizedAffinity>  (1) 
-6.37940311

>  <minimizedRMSD>  (1) 
0.117145911

$$$$
