
     RDKit          3D

 41 43  0  0  1  0  0  0  0  0999 V2000
   37.2350   31.1210   44.4950 C   0  0  2  0  0  0  0  0  0  0  0  0
   38.6540   30.7810   44.2620 C   0  0  0  0  0  0  0  0  0  0  0  0
   39.3380   30.2490   45.5040 C   0  0  0  0  0  0  0  0  0  0  0  0
   39.2400   31.2060   46.6660 C   0  0  0  0  0  0  0  0  0  0  0  0
   37.9170   31.8980   46.7700 C   0  0  0  0  0  0  0  0  0  0  0  0
   36.8490   31.1940   45.9370 C   0  0  2  0  0  0  0  0  0  0  0  0
   36.2910   30.2190   43.8200 C   0  0  0  0  0  0  0  0  0  0  0  0
   36.8800   29.1370   43.1300 C   0  0  0  0  0  0  0  0  0  0  0  0
   36.0040   28.2520   42.5060 C   0  0  0  0  0  0  0  0  0  0  0  0
   34.6600   28.4630   42.5830 N   0  0  0  0  0  0  0  0  0  0  0  0
   34.1390   29.5220   43.2580 C   0  0  0  0  0  0  0  0  0  0  0  0
   34.9600   30.3510   43.8450 N   0  0  0  0  0  0  0  0  0  0  0  0
   36.5260   30.0150   46.6150 N   0  0  0  0  0  0  0  0  0  0  0  0
   35.0520   29.9900   47.4590 S   0  0  0  0  0  0  0  0  0  0  0  0
   34.0720   30.8170   46.6400 O   0  0  0  0  0  0  0  0  0  0  0  0
   34.4860   28.6110   47.6190 O   0  0  0  0  0  0  0  0  0  0  0  0
   35.1390   30.7270   48.9530 O   0  0  0  0  0  0  0  0  0  0  0  0
   36.2190   30.4300   49.7810 C   0  0  0  0  0  0  0  0  0  0  0  0
   37.1260   31.1320   50.5280 C   0  0  0  0  0  0  0  0  0  0  0  0
   37.9710   30.2960   51.1430 N   0  0  0  0  0  0  0  0  0  0  0  0
   37.5700   29.0520   50.7640 C   0  0  0  0  0  0  0  0  0  0  0  0
   36.5030   29.1290   49.9340 N   0  0  0  0  0  0  0  0  0  0  0  0
   37.1594   32.1263   44.0550 H   0  0  0  0  0  0  0  0  0  0  0  0
   38.7078   30.0146   43.4748 H   0  0  0  0  0  0  0  0  0  0  0  0
   39.1731   31.7045   43.9660 H   0  0  0  0  0  0  0  0  0  0  0  0
   38.8648   29.2976   45.7884 H   0  0  0  0  0  0  0  0  0  0  0  0
   40.4040   30.1130   45.2690 H   0  0  0  0  0  0  0  0  0  0  0  0
   39.4101   30.6419   47.5949 H   0  0  0  0  0  0  0  0  0  0  0  0
   39.9974   31.9867   46.5022 H   0  0  0  0  0  0  0  0  0  0  0  0
   37.6002   31.9067   47.8234 H   0  0  0  0  0  0  0  0  0  0  0  0
   38.0330   32.9226   46.3869 H   0  0  0  0  0  0  0  0  0  0  0  0
   35.9057   31.7534   45.8515 H   0  0  0  0  0  0  0  0  0  0  0  0
   37.9707   29.0005   43.0876 H   0  0  0  0  0  0  0  0  0  0  0  0
   36.3958   27.3856   41.9529 H   0  0  0  0  0  0  0  0  0  0  0  0
   33.0512   29.6770   43.3086 H   0  0  0  0  0  0  0  0  0  0  0  0
   36.4995   29.2546   45.9208 H   0  0  0  0  0  0  0  0  0  0  0  0
   33.4755   31.3204   47.2490 H   0  0  0  0  0  0  0  0  0  0  0  0
   34.3992   28.3996   48.5823 H   0  0  0  0  0  0  0  0  0  0  0  0
   37.1561   32.2284   50.6111 H   0  0  0  0  0  0  0  0  0  0  0  0
   38.7534   30.5406   51.7666 H   0  0  0  0  0  0  0  0  0  0  0  0
   38.0463   28.1145   51.0869 H   0  0  0  0  0  0  0  0  0  0  0  0
  1  6  1  0
  2  1  1  0
  2  3  1  0
  3  4  1  0
  4  5  1  0
  6 13  1  0
  6  5  1  0
  7 12  1  0
  7  1  1  0
  8  7  2  0
  9 10  2  0
  9  8  1  0
 10 11  1  0
 11 12  2  0
 13 14  1  0
 14 16  1  0
 14 17  1  0
 15 14  1  0
 17 18  1  0
 18 22  1  0
 18 19  2  0
 19 20  1  0
 21 20  1  0
 22 21  2  0
  1 23  1  6
  2 24  1  0
  2 25  1  0
  3 26  1  0
  3 27  1  0
  4 28  1  0
  4 29  1  0
  5 30  1  0
  5 31  1  0
  6 32  1  6
  8 33  1  0
  9 34  1  0
 11 35  1  0
 13 36  1  0
 15 37  1  0
 16 38  1  0
 19 39  1  0
 20 40  1  0
 21 41  1  0
M  ISO  8  23  13  24  13  25  13  26  13  27  13  28  13  29  13  30  13
M  ISO  8  31  13  32  13  33  14  34  14  35  14  36   5  37   3  38   3
M  ISO  3  39  14  40   9  41  14
M  END
>  <minimizedAffinity>  (1) 
-4.39260769

>  <minimizedRMSD>  (1) 
4.13718176

$$$$
