
     RDKit          3D

 37 40  0  0  0  0  0  0  0  0999 V2000
   38.8630   30.8750   45.7960 C   0  0  0  0  0  0  0  0  0  0  0  0
   40.0510   31.5290   46.0700 C   0  0  0  0  0  0  0  0  0  0  0  0
   40.8970   31.4760   44.9720 C   0  0  0  0  0  0  0  0  0  0  0  0
   40.1790   30.7860   44.0700 N   0  0  0  0  0  0  0  0  0  0  0  0
   38.9950   30.4310   44.5390 N   0  0  0  0  0  0  0  0  0  0  0  0
   37.7430   30.7270   46.7060 C   0  0  0  0  0  0  0  0  0  0  0  0
   37.9380   30.9320   48.0900 C   0  0  0  0  0  0  0  0  0  0  0  0
   36.8480   30.7860   48.9350 C   0  0  0  0  0  0  0  0  0  0  0  0
   35.6530   30.4540   48.3850 N   0  0  0  0  0  0  0  0  0  0  0  0
   35.4820   30.2620   47.0580 C   0  0  0  0  0  0  0  0  0  0  0  0
   36.5350   30.4020   46.2280 N   0  0  0  0  0  0  0  0  0  0  0  0
   37.0540   31.0010   50.4000 C   0  0  0  0  0  0  0  0  0  0  0  0
   36.5580   32.2450   50.6680 F   0  0  0  0  0  0  0  0  0  0  0  0
   36.3550   30.0690   51.1620 F   0  0  0  0  0  0  0  0  0  0  0  0
   38.3930   30.9630   50.7430 F   0  0  0  0  0  0  0  0  0  0  0  0
   40.5640   30.4170   42.6990 C   0  0  0  0  0  0  0  0  0  0  0  0
   40.2060   31.2000   41.5920 C   0  0  0  0  0  0  0  0  0  0  0  0
   40.5850   30.8150   40.3670 C   0  0  0  0  0  0  0  0  0  0  0  0
   41.3440   29.6220   40.1950 C   0  0  0  0  0  0  0  0  0  0  0  0
   41.4970   29.0510   41.9480 S   0  0  0  0  0  0  0  0  0  0  0  0
   41.9080   28.9090   39.1400 C   0  0  0  0  0  0  0  0  0  0  0  0
   41.5390   27.5940   38.9550 C   0  0  0  0  0  0  0  0  0  0  0  0
   42.1180   26.8960   37.8890 C   0  0  0  0  0  0  0  0  0  0  0  0
   43.0410   27.5390   37.0550 C   0  0  0  0  0  0  0  0  0  0  0  0
   43.3980   28.8760   37.2660 C   0  0  0  0  0  0  0  0  0  0  0  0
   42.8040   29.5530   38.3400 C   0  0  0  0  0  0  0  0  0  0  0  0
   40.2908   32.0215   47.0239 H   0  0  0  0  0  0  0  0  0  0  0  0
   41.9081   31.8960   44.8658 H   0  0  0  0  0  0  0  0  0  0  0  0
   38.9282   31.2003   48.4870 H   0  0  0  0  0  0  0  0  0  0  0  0
   34.4926   29.9939   46.6590 H   0  0  0  0  0  0  0  0  0  0  0  0
   39.6200   32.1208   41.7287 H   0  0  0  0  0  0  0  0  0  0  0  0
   40.3096   31.4213   39.4915 H   0  0  0  0  0  0  0  0  0  0  0  0
   40.8128   27.1087   39.6237 H   0  0  0  0  0  0  0  0  0  0  0  0
   41.8488   25.8451   37.7068 H   0  0  0  0  0  0  0  0  0  0  0  0
   43.4932   26.9840   36.2198 H   0  0  0  0  0  0  0  0  0  0  0  0
   44.1224   29.3798   36.6092 H   0  0  0  0  0  0  0  0  0  0  0  0
   43.0610   30.6042   38.5372 H   0  0  0  0  0  0  0  0  0  0  0  0
  1  2  1  0
  1  6  1  0
  3  2  2  0
  4  5  1  0
  4  3  1  0
  5  1  2  0
  6  7  2  0
  7  8  1  0
  8 12  1  0
  9  8  2  0
 10  9  1  0
 11  6  1  0
 11 10  2  0
 12 13  1  0
 12 15  1  0
 12 14  1  0
 16  4  1  0
 17 16  2  0
 18 17  1  0
 19 18  2  0
 19 20  1  0
 20 16  1  0
 21 19  1  0
 22 21  2  0
 23 22  1  0
 24 25  1  0
 24 23  2  0
 25 26  2  0
 26 21  1  0
  2 27  1  0
  3 28  1  0
  7 29  1  0
 10 30  1  0
 17 31  1  0
 18 32  1  0
 22 33  1  0
 23 34  1  0
 24 35  1  0
 25 36  1  0
 26 37  1  0
M  ISO  8  27  14  28  14  29  14  30  14  31  14  32  14  33  14  34  14
M  ISO  3  35  14  36  14  37  14
M  END
>  <minimizedAffinity>  (1) 
-6.35807371

>  <minimizedRMSD>  (1) 
0.38489151

$$$$
