
     RDKit          3D

 36 39  0  0  0  0  0  0  0  0999 V2000
   38.8780   30.8890   45.7980 C   0  0  0  0  0  0  0  0  0  0  0  0
   40.0680   31.5490   46.0710 C   0  0  0  0  0  0  0  0  0  0  0  0
   40.8980   31.4840   44.9680 C   0  0  0  0  0  0  0  0  0  0  0  0
   40.1690   30.7770   44.0530 N   0  0  0  0  0  0  0  0  0  0  0  0
   38.9980   30.4330   44.5350 N   0  0  0  0  0  0  0  0  0  0  0  0
   37.7410   30.7310   46.6930 C   0  0  0  0  0  0  0  0  0  0  0  0
   37.9530   30.9350   48.0870 C   0  0  0  0  0  0  0  0  0  0  0  0
   36.8550   30.7800   48.9270 C   0  0  0  0  0  0  0  0  0  0  0  0
   35.6540   30.4450   48.3770 N   0  0  0  0  0  0  0  0  0  0  0  0
   35.4830   30.2570   47.0470 C   0  0  0  0  0  0  0  0  0  0  0  0
   36.5330   30.4030   46.2160 N   0  0  0  0  0  0  0  0  0  0  0  0
   37.0420   30.9870   50.3900 C   0  0  0  0  0  0  0  0  0  0  0  0
   36.5600   32.2490   50.6510 F   0  0  0  0  0  0  0  0  0  0  0  0
   36.3480   30.0680   51.1560 F   0  0  0  0  0  0  0  0  0  0  0  0
   38.3920   30.9710   50.7460 F   0  0  0  0  0  0  0  0  0  0  0  0
   40.5540   30.4120   42.6950 C   0  0  0  0  0  0  0  0  0  0  0  0
   40.1900   31.2140   41.6010 C   0  0  0  0  0  0  0  0  0  0  0  0
   40.5890   30.8400   40.3530 C   0  0  0  0  0  0  0  0  0  0  0  0
   41.3580   29.6490   40.1900 C   0  0  0  0  0  0  0  0  0  0  0  0
   41.5040   29.0540   41.9500 S   0  0  0  0  0  0  0  0  0  0  0  0
   41.9170   29.0030   39.0230 C   0  0  0  0  0  0  0  0  0  0  0  0
   41.7110   27.6550   38.8150 C   0  0  0  0  0  0  0  0  0  0  0  0
   42.2860   27.1360   37.6730 C   0  0  0  0  0  0  0  0  0  0  0  0
   43.0150   27.9310   36.8120 C   0  0  0  0  0  0  0  0  0  0  0  0
   43.1780   29.2750   37.0900 C   0  0  0  0  0  0  0  0  0  0  0  0
   42.6110   29.7840   38.2140 N   0  0  0  0  0  0  0  0  0  0  0  0
   40.3131   32.0477   47.0204 H   0  0  0  0  0  0  0  0  0  0  0  0
   41.9086   31.9030   44.8532 H   0  0  0  0  0  0  0  0  0  0  0  0
   38.9436   31.2039   48.4826 H   0  0  0  0  0  0  0  0  0  0  0  0
   34.4940   29.9871   46.6482 H   0  0  0  0  0  0  0  0  0  0  0  0
   39.5941   32.1267   41.7489 H   0  0  0  0  0  0  0  0  0  0  0  0
   40.3206   31.4510   39.4785 H   0  0  0  0  0  0  0  0  0  0  0  0
   41.1278   27.0357   39.5123 H   0  0  0  0  0  0  0  0  0  0  0  0
   42.1608   26.0673   37.4443 H   0  0  0  0  0  0  0  0  0  0  0  0
   43.4649   27.4963   35.9073 H   0  0  0  0  0  0  0  0  0  0  0  0
   43.7566   29.9207   36.4130 H   0  0  0  0  0  0  0  0  0  0  0  0
  1  2  1  0
  1  6  1  0
  3  2  2  0
  4  5  1  0
  4  3  1  0
  5  1  2  0
  6  7  2  0
  7  8  1  0
  8 12  1  0
  9  8  2  0
 10  9  1  0
 11  6  1  0
 11 10  2  0
 12 13  1  0
 12 15  1  0
 12 14  1  0
 16  4  1  0
 17 16  2  0
 18 17  1  0
 19 18  2  0
 19 20  1  0
 20 16  1  0
 21 19  1  0
 22 21  2  0
 23 22  1  0
 24 25  1  0
 24 23  2  0
 25 26  2  0
 26 21  1  0
  2 27  1  0
  3 28  1  0
  7 29  1  0
 10 30  1  0
 17 31  1  0
 18 32  1  0
 22 33  1  0
 23 34  1  0
 24 35  1  0
 25 36  1  0
M  ISO  8  27  14  28  14  29  14  30  14  31  14  32  14  33  14  34  14
M  ISO  2  35  14  36  14
M  END
>  <minimizedAffinity>  (1) 
-6.32276487

>  <minimizedRMSD>  (1) 
0.219154388

$$$$
