
     RDKit          3D

 30 32  0  0  0  0  0  0  0  0999 V2000
   38.9070   30.8830   45.7660 C   0  0  0  0  0  0  0  0  0  0  0  0
   40.1070   31.5300   46.0310 C   0  0  0  0  0  0  0  0  0  0  0  0
   40.9370   31.4690   44.9190 C   0  0  0  0  0  0  0  0  0  0  0  0
   40.1930   30.7750   44.0120 N   0  0  0  0  0  0  0  0  0  0  0  0
   39.0260   30.4420   44.5100 N   0  0  0  0  0  0  0  0  0  0  0  0
   37.7970   30.7430   46.6860 C   0  0  0  0  0  0  0  0  0  0  0  0
   38.0040   30.9690   48.0620 C   0  0  0  0  0  0  0  0  0  0  0  0
   36.9210   30.8290   48.9160 C   0  0  0  0  0  0  0  0  0  0  0  0
   35.7250   30.4860   48.3890 N   0  0  0  0  0  0  0  0  0  0  0  0
   35.5390   30.2710   47.0620 C   0  0  0  0  0  0  0  0  0  0  0  0
   36.5860   30.4040   46.2230 N   0  0  0  0  0  0  0  0  0  0  0  0
   37.1230   31.0650   50.3780 C   0  0  0  0  0  0  0  0  0  0  0  0
   36.6090   32.2920   50.6470 F   0  0  0  0  0  0  0  0  0  0  0  0
   36.4700   30.1220   51.1630 F   0  0  0  0  0  0  0  0  0  0  0  0
   38.4820   31.0690   50.7100 F   0  0  0  0  0  0  0  0  0  0  0  0
   40.5580   30.4080   42.6500 C   0  0  0  0  0  0  0  0  0  0  0  0
   40.1900   31.2080   41.5590 C   0  0  0  0  0  0  0  0  0  0  0  0
   40.5680   30.8250   40.3090 C   0  0  0  0  0  0  0  0  0  0  0  0
   41.3230   29.6270   40.1330 C   0  0  0  0  0  0  0  0  0  0  0  0
   41.4900   29.0300   41.8880 S   0  0  0  0  0  0  0  0  0  0  0  0
   41.9040   28.8710   39.1180 C   0  0  0  0  0  0  0  0  0  0  0  0
   40.3627   32.0192   46.9825 H   0  0  0  0  0  0  0  0  0  0  0  0
   41.9498   31.8811   44.7993 H   0  0  0  0  0  0  0  0  0  0  0  0
   38.9959   31.2483   48.4468 H   0  0  0  0  0  0  0  0  0  0  0  0
   34.5474   29.9920   46.6761 H   0  0  0  0  0  0  0  0  0  0  0  0
   39.6066   32.1281   41.7106 H   0  0  0  0  0  0  0  0  0  0  0  0
   40.2925   31.4368   39.4373 H   0  0  0  0  0  0  0  0  0  0  0  0
   42.5176   28.0726   39.5608 H   0  0  0  0  0  0  0  0  0  0  0  0
   41.1145   28.4243   38.4957 H   0  0  0  0  0  0  0  0  0  0  0  0
   42.5388   29.5189   38.4957 H   0  0  0  0  0  0  0  0  0  0  0  0
  1  2  1  0
  1  6  1  0
  3  2  2  0
  4  5  1  0
  4  3  1  0
  5  1  2  0
  6  7  2  0
  7  8  1  0
  8 12  1  0
  9  8  2  0
 10  9  1  0
 11  6  1  0
 11 10  2  0
 12 13  1  0
 12 15  1  0
 12 14  1  0
 16  4  1  0
 17 16  2  0
 18 17  1  0
 19 18  2  0
 19 20  1  0
 20 16  1  0
 21 19  1  0
  2 22  1  0
  3 23  1  0
  7 24  1  0
 10 25  1  0
 17 26  1  0
 18 27  1  0
 21 28  1  0
 21 29  1  0
 21 30  1  0
M  ISO  8  22  14  23  14  24  14  25  14  26  14  27  14  28   8  29   8
M  ISO  1  30   8
M  END
>  <minimizedAffinity>  (1) 
-6.13986588

>  <minimizedRMSD>  (1) 
0.0161358882

$$$$
