
     RDKit          3D

 37 40  0  0  0  0  0  0  0  0999 V2000
   36.7220   29.4320   44.0340 Cl  0  0  0  0  0  0  0  0  0  0  0  0
   38.3760   29.8230   43.5410 C   0  0  0  0  0  0  0  0  0  0  0  0
   39.3430   30.3290   44.4100 C   0  0  0  0  0  0  0  0  0  0  0  0
   40.5930   30.5910   43.8940 C   0  0  0  0  0  0  0  0  0  0  0  0
   40.8670   30.3560   42.5660 C   0  0  0  0  0  0  0  0  0  0  0  0
   39.9270   29.8590   41.6990 C   0  0  0  0  0  0  0  0  0  0  0  0
   38.6790   29.5940   42.1960 C   0  0  0  0  0  0  0  0  0  0  0  0
   37.7160   29.0780   41.2840 N   0  0  0  0  0  0  0  0  0  0  0  0
   36.9200   29.7950   40.4550 C   0  0  0  0  0  0  0  0  0  0  0  0
   36.1240   28.9860   39.7250 N   0  0  0  0  0  0  0  0  0  0  0  0
   36.4020   27.7040   40.0810 C   0  0  0  0  0  0  0  0  0  0  0  0
   35.9480   26.4470   39.7150 C   0  0  0  0  0  0  0  0  0  0  0  0
   36.4800   25.3440   40.3090 N   0  0  0  0  0  0  0  0  0  0  0  0
   37.4390   25.4260   41.2460 C   0  0  0  0  0  0  0  0  0  0  0  0
   37.8560   26.6670   41.5740 N   0  0  0  0  0  0  0  0  0  0  0  0
   37.3890   27.7930   41.0440 C   0  0  0  0  0  0  0  0  0  0  0  0
   38.8690   30.4890   45.6800 O   0  0  0  0  0  0  0  0  0  0  0  0
   39.4340   32.5570   47.1250 O   0  0  0  0  0  0  0  0  0  0  0  0
   38.3050   31.8620   46.4450 P   0  0  1  0  0  0  0  0  0  0  0  0
   37.7120   32.8510   45.1810 O   0  0  0  0  0  0  0  0  0  0  0  0
   37.0220   31.4480   47.4790 O   0  0  0  0  0  0  0  0  0  0  0  0
   37.6070   30.5180   50.9980 C   0  0  0  0  0  0  0  0  0  0  0  0
   37.7040   31.3160   49.8520 C   0  0  0  0  0  0  0  0  0  0  0  0
   37.0670   30.8570   48.6900 C   0  0  0  0  0  0  0  0  0  0  0  0
   36.3950   29.6680   48.7400 N   0  0  0  0  0  0  0  0  0  0  0  0
   36.3340   28.9410   49.8680 C   0  0  0  0  0  0  0  0  0  0  0  0
   36.9350   29.3560   50.9950 N   0  0  0  0  0  0  0  0  0  0  0  0
   41.3799   30.9920   44.5498 H   0  0  0  0  0  0  0  0  0  0  0  0
   41.8759   30.5745   42.1860 H   0  0  0  0  0  0  0  0  0  0  0  0
   40.1677   29.6796   40.6408 H   0  0  0  0  0  0  0  0  0  0  0  0
   36.9222   30.8928   40.3859 H   0  0  0  0  0  0  0  0  0  0  0  0
   35.1640   26.3415   38.9506 H   0  0  0  0  0  0  0  0  0  0  0  0
   37.8623   24.5287   41.7211 H   0  0  0  0  0  0  0  0  0  0  0  0
   37.2430   33.6331   45.5663 H   0  0  0  0  0  0  0  0  0  0  0  0
   38.0945   30.8521   51.9258 H   0  0  0  0  0  0  0  0  0  0  0  0
   38.2583   32.2661   49.8625 H   0  0  0  0  0  0  0  0  0  0  0  0
   35.7823   27.9894   49.8686 H   0  0  0  0  0  0  0  0  0  0  0  0
  2  1  1  0
  2  3  2  0
  3 17  1  0
  4  3  1  0
  5  4  2  0
  6  7  2  0
  6  5  1  0
  7  2  1  0
  8  7  1  0
  9  8  1  0
 10 11  1  0
 10  9  2  0
 11 16  2  0
 12 11  1  0
 12 13  2  0
 13 14  1  0
 14 15  2  0
 16  8  1  0
 16 15  1  0
 17 19  1  0
 19 18  2  0
 19 21  1  0
 20 19  1  0
 21 24  1  0
 23 22  2  0
 24 25  2  0
 24 23  1  0
 25 26  1  0
 26 27  2  0
 27 22  1  0
  4 28  1  0
  5 29  1  0
  6 30  1  0
  9 31  1  0
 12 32  1  0
 14 33  1  0
 20 34  1  0
 22 35  1  0
 23 36  1  0
 26 37  1  0
M  ISO  8  28  14  29  14  30  14  31  14  32  14  33  14  34   3  35  14
M  ISO  2  36  14  37  14
M  END
>  <minimizedAffinity>  (1) 
-4.95018625

>  <minimizedRMSD>  (1) 
0.91771841

$$$$
