
     RDKit          3D

 39 42  0  0  0  0  0  0  0  0999 V2000
   36.6390   29.5900   44.1390 Cl  0  0  0  0  0  0  0  0  0  0  0  0
   38.2770   29.9350   43.5350 C   0  0  0  0  0  0  0  0  0  0  0  0
   39.3130   30.3840   44.3350 C   0  0  0  0  0  0  0  0  0  0  0  0
   40.5410   30.6140   43.7360 C   0  0  0  0  0  0  0  0  0  0  0  0
   40.7190   30.4040   42.3930 C   0  0  0  0  0  0  0  0  0  0  0  0
   39.7020   29.9610   41.5880 C   0  0  0  0  0  0  0  0  0  0  0  0
   38.4820   29.7280   42.1670 C   0  0  0  0  0  0  0  0  0  0  0  0
   37.3700   27.8690   41.0800 C   0  0  0  0  0  0  0  0  0  0  0  0
   37.4290   29.2550   41.2660 C   0  0  0  0  0  0  0  0  0  0  0  0
   36.4890   29.9960   40.5810 C   0  0  0  0  0  0  0  0  0  0  0  0
   35.5720   29.3580   39.7750 C   0  0  0  0  0  0  0  0  0  0  0  0
   34.5820   29.8780   39.0250 N   0  0  0  0  0  0  0  0  0  0  0  0
   33.9470   28.9080   38.4140 N   0  0  0  0  0  0  0  0  0  0  0  0
   34.4980   27.7080   38.7400 C   0  0  0  0  0  0  0  0  0  0  0  0
   35.5380   27.9920   39.6100 C   0  0  0  0  0  0  0  0  0  0  0  0
   36.4580   27.2130   40.2760 C   0  0  0  0  0  0  0  0  0  0  0  0
   38.9430   30.5300   45.6370 O   0  0  0  0  0  0  0  0  0  0  0  0
   39.4920   32.5450   47.1610 O   0  0  0  0  0  0  0  0  0  0  0  0
   38.3680   31.8820   46.4430 P   0  0  1  0  0  0  0  0  0  0  0  0
   37.7850   32.9100   45.2040 O   0  0  0  0  0  0  0  0  0  0  0  0
   37.0660   31.4410   47.4430 O   0  0  0  0  0  0  0  0  0  0  0  0
   37.6190   30.5320   50.9770 C   0  0  0  0  0  0  0  0  0  0  0  0
   37.7230   31.3130   49.8260 C   0  0  0  0  0  0  0  0  0  0  0  0
   37.1080   30.8730   48.6640 C   0  0  0  0  0  0  0  0  0  0  0  0
   36.4240   29.6770   48.7160 N   0  0  0  0  0  0  0  0  0  0  0  0
   36.3500   28.9550   49.8520 C   0  0  0  0  0  0  0  0  0  0  0  0
   36.9440   29.3810   50.9750 N   0  0  0  0  0  0  0  0  0  0  0  0
   41.3843   30.9698   44.3461 H   0  0  0  0  0  0  0  0  0  0  0  0
   41.7066   30.5966   41.9486 H   0  0  0  0  0  0  0  0  0  0  0  0
   39.8600   29.7977   40.5117 H   0  0  0  0  0  0  0  0  0  0  0  0
   38.1077   27.2538   41.6161 H   0  0  0  0  0  0  0  0  0  0  0  0
   36.4716   31.0916   40.6778 H   0  0  0  0  0  0  0  0  0  0  0  0
   34.3589   30.8803   38.9442 H   0  0  0  0  0  0  0  0  0  0  0  0
   34.1826   26.7156   38.3856 H   0  0  0  0  0  0  0  0  0  0  0  0
   36.4663   26.1179   40.1724 H   0  0  0  0  0  0  0  0  0  0  0  0
   37.3395   33.6956   45.6094 H   0  0  0  0  0  0  0  0  0  0  0  0
   38.1030   30.8716   51.9046 H   0  0  0  0  0  0  0  0  0  0  0  0
   38.2824   32.2601   49.8400 H   0  0  0  0  0  0  0  0  0  0  0  0
   35.7955   28.0050   49.8571 H   0  0  0  0  0  0  0  0  0  0  0  0
  2  1  1  0
  2  3  2  0
  3 17  1  0
  4  3  1  0
  5  4  2  0
  6  7  2  0
  6  5  1  0
  7  2  1  0
  8  9  2  0
  9  7  1  0
 10  9  1  0
 11 10  2  0
 12 11  1  0
 13 14  2  0
 13 12  1  0
 14 15  1  0
 15 11  1  0
 15 16  2  0
 16  8  1  0
 17 19  1  0
 19 18  2  0
 19 21  1  0
 20 19  1  0
 21 24  1  0
 23 22  2  0
 24 25  2  0
 24 23  1  0
 25 26  1  0
 26 27  2  0
 27 22  1  0
  4 28  1  0
  5 29  1  0
  6 30  1  0
  8 31  1  0
 10 32  1  0
 12 33  1  0
 14 34  1  0
 16 35  1  0
 20 36  1  0
 22 37  1  0
 23 38  1  0
 26 39  1  0
M  ISO  8  28  14  29  14  30  14  31  14  32  14  33   9  34  14  35  14
M  ISO  4  36   3  37  14  38  14  39  14
M  END
>  <minimizedAffinity>  (1) 
-4.84629965

>  <minimizedRMSD>  (1) 
0.936742067

$$$$
