
     RDKit          3D

 38 40  0  0  0  0  0  0  0  0999 V2000
   36.6470   29.4660   44.0680 Cl  0  0  0  0  0  0  0  0  0  0  0  0
   38.2940   29.8500   43.5100 C   0  0  0  0  0  0  0  0  0  0  0  0
   39.3050   30.3310   44.3470 C   0  0  0  0  0  0  0  0  0  0  0  0
   40.5390   30.5860   43.7770 C   0  0  0  0  0  0  0  0  0  0  0  0
   40.7570   30.3740   42.4410 C   0  0  0  0  0  0  0  0  0  0  0  0
   39.7740   29.9010   41.6040 C   0  0  0  0  0  0  0  0  0  0  0  0
   38.5410   29.6420   42.1520 C   0  0  0  0  0  0  0  0  0  0  0  0
   37.5530   29.1540   41.2490 N   0  0  0  0  0  0  0  0  0  0  0  0
   36.5810   29.9260   40.4880 C   0  0  0  0  0  0  0  0  0  0  0  0
   35.5150   28.9140   40.0770 C   0  0  0  0  0  0  0  0  0  0  0  0
   36.3520   27.6460   39.8840 C   0  0  0  0  0  0  0  0  0  0  0  0
   37.3840   27.7430   40.9590 C   0  0  0  0  0  0  0  0  0  0  0  0
   38.8800   30.4700   45.6290 O   0  0  0  0  0  0  0  0  0  0  0  0
   39.4450   32.5070   47.1240 O   0  0  0  0  0  0  0  0  0  0  0  0
   38.3120   31.8420   46.4190 P   0  0  1  0  0  0  0  0  0  0  0  0
   37.7260   32.8560   45.1780 O   0  0  0  0  0  0  0  0  0  0  0  0
   37.0380   31.4150   47.4470 O   0  0  0  0  0  0  0  0  0  0  0  0
   37.6060   30.5310   50.9850 C   0  0  0  0  0  0  0  0  0  0  0  0
   37.7020   31.3020   49.8200 C   0  0  0  0  0  0  0  0  0  0  0  0
   37.0700   30.8310   48.6660 C   0  0  0  0  0  0  0  0  0  0  0  0
   36.3970   29.6490   48.7390 N   0  0  0  0  0  0  0  0  0  0  0  0
   36.3300   28.9400   49.8760 C   0  0  0  0  0  0  0  0  0  0  0  0
   36.9280   29.3730   50.9920 N   0  0  0  0  0  0  0  0  0  0  0  0
   41.3581   30.9649   44.4059 H   0  0  0  0  0  0  0  0  0  0  0  0
   41.7518   30.5894   42.0240 H   0  0  0  0  0  0  0  0  0  0  0  0
   39.9678   29.7359   40.5339 H   0  0  0  0  0  0  0  0  0  0  0  0
   36.1425   30.7192   41.1114 H   0  0  0  0  0  0  0  0  0  0  0  0
   37.0356   30.4258   39.6200 H   0  0  0  0  0  0  0  0  0  0  0  0
   34.7617   28.7812   40.8675 H   0  0  0  0  0  0  0  0  0  0  0  0
   34.9375   29.2085   39.1883 H   0  0  0  0  0  0  0  0  0  0  0  0
   35.7350   26.7443   40.0114 H   0  0  0  0  0  0  0  0  0  0  0  0
   36.7880   27.5694   38.8770 H   0  0  0  0  0  0  0  0  0  0  0  0
   37.0451   27.2090   41.8590 H   0  0  0  0  0  0  0  0  0  0  0  0
   38.3331   27.2887   40.6383 H   0  0  0  0  0  0  0  0  0  0  0  0
   37.2730   33.6398   45.5786 H   0  0  0  0  0  0  0  0  0  0  0  0
   38.0933   30.8796   51.9075 H   0  0  0  0  0  0  0  0  0  0  0  0
   38.2587   32.2507   49.8134 H   0  0  0  0  0  0  0  0  0  0  0  0
   35.7760   27.9898   49.8910 H   0  0  0  0  0  0  0  0  0  0  0  0
  2  1  1  0
  2  3  2  0
  3 13  1  0
  4  3  1  0
  5  4  2  0
  6  7  2  0
  6  5  1  0
  7  2  1  0
  8  7  1  0
  9  8  1  0
 10  9  1  0
 11 10  1  0
 11 12  1  0
 12  8  1  0
 13 15  1  0
 15 14  2  0
 15 17  1  0
 16 15  1  0
 17 20  1  0
 18 23  2  0
 19 18  1  0
 20 21  1  0
 20 19  2  0
 21 22  2  0
 22 23  1  0
  4 24  1  0
  5 25  1  0
  6 26  1  0
  9 27  1  0
  9 28  1  0
 10 29  1  0
 10 30  1  0
 11 31  1  0
 11 32  1  0
 12 33  1  0
 12 34  1  0
 16 35  1  0
 18 36  1  0
 19 37  1  0
 22 38  1  0
M  ISO  8  24  14  25  14  26  14  27  13  28  13  29  13  30  13  31  13
M  ISO  7  32  13  33  13  34  13  35   3  36  14  37  14  38  14
M  END
>  <minimizedAffinity>  (1) 
-4.78847885

>  <minimizedRMSD>  (1) 
0.103352591

$$$$
