
     RDKit          3D

 28 29  0  0  0  0  0  0  0  0999 V2000
   39.4420   32.4840   47.1160 O   0  0  0  0  0  0  0  0  0  0  0  0
   38.3090   31.8210   46.4150 P   0  0  2  0  0  0  0  0  0  0  0  0
   37.7260   32.8590   45.1790 O   0  0  0  0  0  0  0  0  0  0  0  0
   37.0200   31.3890   47.4270 O   0  0  0  0  0  0  0  0  0  0  0  0
   37.6130   30.5340   50.9800 C   0  0  0  0  0  0  0  0  0  0  0  0
   37.7020   31.2960   49.8080 C   0  0  0  0  0  0  0  0  0  0  0  0
   37.0680   30.8270   48.6570 C   0  0  0  0  0  0  0  0  0  0  0  0
   36.3900   29.6420   48.7330 N   0  0  0  0  0  0  0  0  0  0  0  0
   36.3270   28.9330   49.8840 C   0  0  0  0  0  0  0  0  0  0  0  0
   36.9380   29.3860   50.9940 N   0  0  0  0  0  0  0  0  0  0  0  0
   38.8710   30.4620   45.6050 O   0  0  0  0  0  0  0  0  0  0  0  0
   36.6430   29.4770   44.0280 Cl  0  0  0  0  0  0  0  0  0  0  0  0
   38.2920   29.8650   43.4770 C   0  0  0  0  0  0  0  0  0  0  0  0
   39.2900   30.3360   44.3230 C   0  0  0  0  0  0  0  0  0  0  0  0
   40.5300   30.6010   43.7530 C   0  0  0  0  0  0  0  0  0  0  0  0
   40.7350   30.3970   42.4100 C   0  0  0  0  0  0  0  0  0  0  0  0
   39.7740   29.9400   41.5740 C   0  0  0  0  0  0  0  0  0  0  0  0
   38.5530   29.6740   42.1130 C   0  0  0  0  0  0  0  0  0  0  0  0
   37.4750   29.1730   41.2360 C   0  0  0  0  0  0  0  0  0  0  0  0
   37.4120   27.9510   40.9480 O   0  0  0  0  0  0  0  0  0  0  0  0
   37.2847   33.6447   45.5888 H   0  0  0  0  0  0  0  0  0  0  0  0
   38.1055   30.8873   51.8979 H   0  0  0  0  0  0  0  0  0  0  0  0
   38.2599   32.2440   49.7954 H   0  0  0  0  0  0  0  0  0  0  0  0
   35.7740   27.9825   49.9123 H   0  0  0  0  0  0  0  0  0  0  0  0
   41.3516   30.9761   44.3809 H   0  0  0  0  0  0  0  0  0  0  0  0
   41.7294   30.6159   41.9937 H   0  0  0  0  0  0  0  0  0  0  0  0
   39.9717   29.7896   40.5024 H   0  0  0  0  0  0  0  0  0  0  0  0
   36.7257   29.8708   40.8341 H   0  0  0  0  0  0  0  0  0  0  0  0
  2  1  2  0
  2  4  1  0
  3  2  1  0
  4  7  1  0
  5 10  2  0
  6  5  1  0
  7  8  1  0
  7  6  2  0
  8  9  2  0
  9 10  1  0
 11  2  1  0
 13 12  1  0
 13 14  2  0
 14 11  1  0
 15 14  1  0
 16 15  2  0
 17 18  2  0
 17 16  1  0
 18 13  1  0
 19 18  1  0
 20 19  2  0
  3 21  1  0
  5 22  1  0
  6 23  1  0
  9 24  1  0
 15 25  1  0
 16 26  1  0
 17 27  1  0
 19 28  1  0
M  ISO  8  21   3  22  14  23  14  24  14  25  14  26  14  27  14  28   6
M  END
>  <minimizedAffinity>  (1) 
-4.73057795

>  <minimizedRMSD>  (1) 
0.0402378999

$$$$
