
     RDKit          3D

 22 23  0  0  0  0  0  0  0  0999 V2000
   38.2030   33.4250   49.5870 Cl  0  0  0  0  0  0  0  0  0  0  0  0
   38.6220   32.5140   48.1620 C   0  0  0  0  0  0  0  0  0  0  0  0
   38.0290   31.2730   48.0940 C   0  0  0  0  0  0  0  0  0  0  0  0
   38.3050   30.4620   46.9860 C   0  0  0  0  0  0  0  0  0  0  0  0
   39.1340   30.8680   45.9870 C   0  0  0  0  0  0  0  0  0  0  0  0
   39.7160   32.1120   46.0750 C   0  0  0  0  0  0  0  0  0  0  0  0
   40.7870   32.6640   44.8100 Cl  0  0  0  0  0  0  0  0  0  0  0  0
   39.4590   32.9100   47.1460 C   0  0  0  0  0  0  0  0  0  0  0  0
   37.6960   29.9380   50.1440 C   0  0  0  0  0  0  0  0  0  0  0  0
   37.1090   30.6250   49.0450 C   0  0  0  0  0  0  0  0  0  0  0  0
   35.7270   30.6460   48.9310 C   0  0  0  0  0  0  0  0  0  0  0  0
   35.0000   30.0020   49.8850 N   0  0  0  0  0  0  0  0  0  0  0  0
   35.5790   29.3580   50.9170 C   0  0  0  0  0  0  0  0  0  0  0  0
   36.9310   29.3230   51.0530 N   0  0  0  0  0  0  0  0  0  0  0  0
   40.0270   34.2080   47.3010 N   0  0  0  0  0  0  0  0  0  0  0  0
   37.8379   29.4682   46.9218 H   0  0  0  0  0  0  0  0  0  0  0  0
   39.3354   30.2146   45.1253 H   0  0  0  0  0  0  0  0  0  0  0  0
   38.7908   29.9123   50.2474 H   0  0  0  0  0  0  0  0  0  0  0  0
   35.2341   31.1663   48.0965 H   0  0  0  0  0  0  0  0  0  0  0  0
   34.9472   28.8521   51.6619 H   0  0  0  0  0  0  0  0  0  0  0  0
   39.8004   34.7735   48.1315 H   0  0  0  0  0  0  0  0  0  0  0  0
   40.6641   34.5805   46.5825 H   0  0  0  0  0  0  0  0  0  0  0  0
  2  1  1  0
  3  2  2  0
  3 10  1  0
  4  3  1  0
  5  6  1  0
  5  4  2  0
  6  8  2  0
  7  6  1  0
  8 15  1  0
  8  2  1  0
  9 14  2  0
 10  9  1  0
 11 10  2  0
 11 12  1  0
 12 13  2  0
 13 14  1  0
  4 16  1  0
  5 17  1  0
  9 18  1  0
 11 19  1  0
 13 20  1  0
 15 21  1  0
 15 22  1  0
M  ISO  5  16  14  17  14  18  14  19  14  20  14
M  END
>  <minimizedAffinity>  (1) 
-5.93179178

>  <minimizedRMSD>  (1) 
0.0809582695

$$$$
