
     RDKit          3D

 23 24  0  0  0  0  0  0  0  0999 V2000
   36.8030   32.1880   50.1380 Cl  0  0  0  0  0  0  0  0  0  0  0  0
   37.5390   31.9260   48.5890 C   0  0  0  0  0  0  0  0  0  0  0  0
   36.9650   30.9120   47.8750 C   0  0  0  0  0  0  0  0  0  0  0  0
   37.4870   30.6140   46.6000 C   0  0  0  0  0  0  0  0  0  0  0  0
   38.5370   31.3090   46.0800 C   0  0  0  0  0  0  0  0  0  0  0  0
   39.1000   32.3220   46.8110 C   0  0  0  0  0  0  0  0  0  0  0  0
   40.4400   33.2390   46.1940 Cl  0  0  0  0  0  0  0  0  0  0  0  0
   38.5990   32.6050   48.0290 C   0  0  0  0  0  0  0  0  0  0  0  0
   36.0340   29.0930   49.2570 C   0  0  0  0  0  0  0  0  0  0  0  0
   35.8340   30.0330   48.2290 C   0  0  0  0  0  0  0  0  0  0  0  0
   34.5890   30.0860   47.6010 C   0  0  0  0  0  0  0  0  0  0  0  0
   33.6380   29.2080   48.0370 N   0  0  0  0  0  0  0  0  0  0  0  0
   33.8590   28.3220   49.0210 C   0  0  0  0  0  0  0  0  0  0  0  0
   35.0720   28.2600   49.6420 N   0  0  0  0  0  0  0  0  0  0  0  0
   39.1400   33.6790   48.9020 C   0  0  0  0  0  0  0  0  0  0  0  0
   39.2840   34.8840   48.6760 O   0  0  0  0  0  0  0  0  0  0  0  0
   39.6240   33.5530   50.2200 O   0  0  0  0  0  0  0  0  0  0  0  0
   37.0361   29.8015   46.0113 H   0  0  0  0  0  0  0  0  0  0  0  0
   38.9290   31.0594   45.0830 H   0  0  0  0  0  0  0  0  0  0  0  0
   37.0133   29.0462   49.7558 H   0  0  0  0  0  0  0  0  0  0  0  0
   34.3829   30.8021   46.7919 H   0  0  0  0  0  0  0  0  0  0  0  0
   33.0538   27.6391   49.3297 H   0  0  0  0  0  0  0  0  0  0  0  0
   39.9613   34.3494   50.7017 H   0  0  0  0  0  0  0  0  0  0  0  0
  2  1  1  0
  3 10  1  0
  3  2  2  0
  4  3  1  0
  5  4  2  0
  5  6  1  0
  6  8  2  0
  7  6  1  0
  8  2  1  0
  8 15  1  0
  9 14  2  0
 10  9  1  0
 11 12  1  0
 11 10  2  0
 12 13  2  0
 13 14  1  0
 15 17  1  0
 16 15  2  0
  4 18  1  0
  5 19  1  0
  9 20  1  0
 11 21  1  0
 13 22  1  0
 17 23  1  0
M  ISO  6  18  14  19  14  20  14  21  14  22  14  23   3
M  END
>  <minimizedAffinity>  (1) 
-5.46786118

>  <minimizedRMSD>  (1) 
0.332219213

$$$$
