
     RDKit          3D

 30 32  0  0  0  0  0  0  0  0999 V2000
   34.3390   30.2540   48.9990 Cl  0  0  0  0  0  0  0  0  0  0  0  0
   35.1600   30.2250   47.4810 C   0  0  0  0  0  0  0  0  0  0  0  0
   34.3410   29.9510   46.4350 C   0  0  0  0  0  0  0  0  0  0  0  0
   34.9080   29.9010   45.1360 C   0  0  0  0  0  0  0  0  0  0  0  0
   36.2420   30.1240   44.9380 C   0  0  0  0  0  0  0  0  0  0  0  0
   37.0510   30.4000   46.0210 C   0  0  0  0  0  0  0  0  0  0  0  0
   38.7440   30.6870   45.8110 Cl  0  0  0  0  0  0  0  0  0  0  0  0
   36.4990   30.4450   47.2600 C   0  0  0  0  0  0  0  0  0  0  0  0
   32.4470   28.4810   46.9920 C   0  0  0  0  0  0  0  0  0  0  0  0
   32.8890   29.6800   46.4070 C   0  0  0  0  0  0  0  0  0  0  0  0
   31.9560   30.5440   45.8380 C   0  0  0  0  0  0  0  0  0  0  0  0
   30.6450   30.1610   45.8870 N   0  0  0  0  0  0  0  0  0  0  0  0
   30.2490   29.0190   46.4470 C   0  0  0  0  0  0  0  0  0  0  0  0
   31.1570   28.1550   47.0130 N   0  0  0  0  0  0  0  0  0  0  0  0
   37.2900   30.7350   48.4700 C   0  0  0  0  0  0  0  0  0  0  0  0
   38.0030   29.9770   49.1400 O   0  0  0  0  0  0  0  0  0  0  0  0
   37.3940   31.9850   49.1250 O   0  0  0  0  0  0  0  0  0  0  0  0
   38.3690   32.9000   48.8210 C   0  0  0  0  0  0  0  0  0  0  0  0
   39.0290   33.1910   47.6570 C   0  0  0  0  0  0  0  0  0  0  0  0
   39.9330   34.1870   47.8160 N   0  0  0  0  0  0  0  0  0  0  0  0
   39.8200   34.5160   49.1250 C   0  0  0  0  0  0  0  0  0  0  0  0
   38.8970   33.7600   49.7280 N   0  0  0  0  0  0  0  0  0  0  0  0
   34.2632   29.6789   44.2729 H   0  0  0  0  0  0  0  0  0  0  0  0
   36.6668   30.0838   43.9241 H   0  0  0  0  0  0  0  0  0  0  0  0
   33.1826   27.7979   47.4418 H   0  0  0  0  0  0  0  0  0  0  0  0
   32.2608   31.4918   45.3703 H   0  0  0  0  0  0  0  0  0  0  0  0
   29.1792   28.7631   46.4569 H   0  0  0  0  0  0  0  0  0  0  0  0
   38.8461   32.6753   46.7028 H   0  0  0  0  0  0  0  0  0  0  0  0
   40.5588   34.5974   47.1083 H   0  0  0  0  0  0  0  0  0  0  0  0
   40.4084   35.2997   49.6246 H   0  0  0  0  0  0  0  0  0  0  0  0
  2  1  1  0
  3  2  2  0
  4  3  1  0
  5  4  2  0
  5  6  1  0
  6  8  2  0
  7  6  1  0
  8  2  1  0
  8 15  1  0
  9 14  2  0
 10  3  1  0
 10  9  1  0
 11 12  1  0
 11 10  2  0
 12 13  2  0
 13 14  1  0
 15 17  1  0
 15 16  2  0
 18 17  1  0
 18 22  1  0
 19 20  1  0
 19 18  2  0
 20 21  1  0
 21 22  2  0
  4 23  1  0
  5 24  1  0
  9 25  1  0
 11 26  1  0
 13 27  1  0
 19 28  1  0
 20 29  1  0
 21 30  1  0
M  ISO  8  23  14  24  14  25  14  26  14  27  14  28  14  29   9  30  14
M  END
>  <minimizedAffinity>  (1) 
-5.05686522

>  <minimizedRMSD>  (1) 
3.69715452

$$$$
