
     RDKit          3D

 25 26  0  0  0  0  0  0  0  0999 V2000
   34.5900   30.4910   49.5880 Cl  0  0  0  0  0  0  0  0  0  0  0  0
   35.6640   30.6160   48.2180 C   0  0  0  0  0  0  0  0  0  0  0  0
   35.1500   30.0800   47.0830 C   0  0  0  0  0  0  0  0  0  0  0  0
   35.9360   30.1310   45.9200 C   0  0  0  0  0  0  0  0  0  0  0  0
   37.1740   30.6950   45.9170 C   0  0  0  0  0  0  0  0  0  0  0  0
   37.6630   31.2280   47.0850 C   0  0  0  0  0  0  0  0  0  0  0  0
   39.2420   31.9660   47.1330 Cl  0  0  0  0  0  0  0  0  0  0  0  0
   36.9130   31.1860   48.2190 C   0  0  0  0  0  0  0  0  0  0  0  0
   33.7220   28.0720   47.1620 C   0  0  0  0  0  0  0  0  0  0  0  0
   33.8510   29.4260   46.8480 C   0  0  0  0  0  0  0  0  0  0  0  0
   32.7380   30.0780   46.3290 C   0  0  0  0  0  0  0  0  0  0  0  0
   31.5980   29.3520   46.1610 N   0  0  0  0  0  0  0  0  0  0  0  0
   31.5150   28.0600   46.4740 C   0  0  0  0  0  0  0  0  0  0  0  0
   32.5930   27.4100   46.9820 N   0  0  0  0  0  0  0  0  0  0  0  0
   37.3600   31.7330   49.5140 C   0  0  0  0  0  0  0  0  0  0  0  0
   37.1960   32.8950   49.9450 O   0  0  0  0  0  0  0  0  0  0  0  0
   38.0630   31.0260   50.5000 O   0  0  0  0  0  0  0  0  0  0  0  0
   37.5570   30.1930   51.4420 C   0  0  0  0  0  0  0  0  0  0  0  0
   37.3850   28.9940   51.1100 O   0  0  0  0  0  0  0  0  0  0  0  0
   35.5401   29.7036   44.9870 H   0  0  0  0  0  0  0  0  0  0  0  0
   37.7733   30.7238   44.9950 H   0  0  0  0  0  0  0  0  0  0  0  0
   34.5908   27.5375   47.5737 H   0  0  0  0  0  0  0  0  0  0  0  0
   32.7769   31.1446   46.0630 H   0  0  0  0  0  0  0  0  0  0  0  0
   30.5701   27.5181   46.3204 H   0  0  0  0  0  0  0  0  0  0  0  0
   37.3082   30.5510   52.4519 H   0  0  0  0  0  0  0  0  0  0  0  0
  2  8  2  0
  2  1  1  0
  3  2  1  0
  4  3  2  0
  5  4  1  0
  5  6  2  0
  6  7  1  0
  6  8  1  0
  8 15  1  0
 10  3  1  0
 10  9  2  0
 11 10  1  0
 12 11  2  0
 12 13  1  0
 13 14  2  0
 14  9  1  0
 15 16  2  0
 15 17  1  0
 17 18  1  0
 19 18  2  0
  4 20  1  0
  5 21  1  0
  9 22  1  0
 11 23  1  0
 13 24  1  0
 18 25  1  0
M  ISO  6  20  14  21  14  22  14  23  14  24  14  25   6
M  END
>  <minimizedAffinity>  (1) 
-5.00356722

>  <minimizedRMSD>  (1) 
3.20788765

$$$$
