
     RDKit          3D

 27 29  0  0  0  0  0  0  0  0999 V2000
   37.3170   31.1660   49.6350 C   0  0  0  0  0  0  0  0  0  0  0  0
   36.6660   30.0980   48.9660 C   0  0  0  0  0  0  0  0  0  0  0  0
   36.4250   28.9770   49.7530 C   0  0  0  0  0  0  0  0  0  0  0  0
   36.8050   28.9630   51.0620 N   0  0  0  0  0  0  0  0  0  0  0  0
   37.4290   30.0190   51.6600 C   0  0  0  0  0  0  0  0  0  0  0  0
   37.6880   31.1300   50.9400 N   0  0  0  0  0  0  0  0  0  0  0  0
   33.9950   29.9080   48.1380 F   0  0  0  0  0  0  0  0  0  0  0  0
   34.9690   30.0940   47.2210 C   0  0  0  0  0  0  0  0  0  0  0  0
   36.2970   30.1940   47.5810 C   0  0  0  0  0  0  0  0  0  0  0  0
   37.2300   30.3840   46.5780 C   0  0  0  0  0  0  0  0  0  0  0  0
   36.8390   30.4720   45.2450 C   0  0  0  0  0  0  0  0  0  0  0  0
   35.4910   30.3700   44.8960 C   0  0  0  0  0  0  0  0  0  0  0  0
   34.5570   30.1780   45.9090 C   0  0  0  0  0  0  0  0  0  0  0  0
   37.4960   32.4080   48.7820 C   0  0  0  0  0  0  0  0  0  0  0  0
   38.1910   33.5570   49.3050 C   0  0  0  0  0  0  0  0  0  0  0  0
   38.9810   32.6130   48.4290 C   0  0  0  0  0  0  0  0  0  0  0  0
   35.9260   28.0986   49.3177 H   0  0  0  0  0  0  0  0  0  0  0  0
   37.7183   29.9648   52.7199 H   0  0  0  0  0  0  0  0  0  0  0  0
   38.2958   30.4667   46.8372 H   0  0  0  0  0  0  0  0  0  0  0  0
   37.5966   30.6228   44.4619 H   0  0  0  0  0  0  0  0  0  0  0  0
   35.1749   30.4398   43.8447 H   0  0  0  0  0  0  0  0  0  0  0  0
   33.4884   30.0932   45.6622 H   0  0  0  0  0  0  0  0  0  0  0  0
   36.5243   32.3262   48.2730 H   0  0  0  0  0  0  0  0  0  0  0  0
   37.9381   34.5600   48.9308 H   0  0  0  0  0  0  0  0  0  0  0  0
   38.3404   33.9598   50.3176 H   0  0  0  0  0  0  0  0  0  0  0  0
   39.7545   31.9620   48.8626 H   0  0  0  0  0  0  0  0  0  0  0  0
   39.5801   32.6895   47.5096 H   0  0  0  0  0  0  0  0  0  0  0  0
  1  6  2  0
  2  1  1  0
  2  3  2  0
  3  4  1  0
  4  5  2  0
  6  5  1  0
  8  9  2  0
  8  7  1  0
  9  2  1  0
 10  9  1  0
 11 10  2  0
 12 11  1  0
 12 13  2  0
 13  8  1  0
 14 15  1  0
 14  1  1  0
 16 14  1  0
 16 15  1  0
  3 17  1  0
  5 18  1  0
 10 19  1  0
 11 20  1  0
 12 21  1  0
 13 22  1  0
 14 23  1  0
 15 24  1  0
 15 25  1  0
 16 26  1  0
 16 27  1  0
M  ISO  8  17  14  18  14  19  14  20  14  21  14  22  14  23  13  24  13
M  ISO  3  25  13  26  13  27  13
M  END
>  <minimizedAffinity>  (1) 
-4.84028196

>  <minimizedRMSD>  (1) 
5.29319286

$$$$
