
     RDKit          3D

 29 31  0  0  0  0  0  0  0  0999 V2000
   36.6490   30.8980   47.5950 C   0  0  0  0  0  0  0  0  0  0  0  0
   37.6100   31.8340   47.1940 C   0  0  0  0  0  0  0  0  0  0  0  0
   37.8500   31.9250   45.8370 C   0  0  0  0  0  0  0  0  0  0  0  0
   37.1530   31.1190   44.9790 N   0  0  0  0  0  0  0  0  0  0  0  0
   36.2310   30.2260   45.4010 C   0  0  0  0  0  0  0  0  0  0  0  0
   35.9790   30.1150   46.7110 N   0  0  0  0  0  0  0  0  0  0  0  0
   36.3370   30.8730   49.0780 C   0  0  0  0  0  0  0  0  0  0  0  0
   35.5870   29.7820   49.6510 C   0  0  0  0  0  0  0  0  0  0  0  0
   37.0890   29.7110   49.7640 C   0  0  0  0  0  0  0  0  0  0  0  0
   38.3680   32.6850   48.0070 N   0  0  0  0  0  0  0  0  0  0  0  0
   38.1430   33.3010   49.3020 C   0  0  0  0  0  0  0  0  0  0  0  0
   39.4610   33.9510   49.6770 C   0  0  0  0  0  0  0  0  0  0  0  0
   39.9150   34.3770   48.2740 C   0  0  0  0  0  0  0  0  0  0  0  0
   39.6760   33.0860   47.5260 C   0  0  0  0  0  0  0  0  0  0  0  0
   38.5934   32.6377   45.4503 H   0  0  0  0  0  0  0  0  0  0  0  0
   35.6934   29.5971   44.6761 H   0  0  0  0  0  0  0  0  0  0  0  0
   36.2110   31.9612   49.1780 H   0  0  0  0  0  0  0  0  0  0  0  0
   34.9839   29.9554   50.5544 H   0  0  0  0  0  0  0  0  0  0  0  0
   34.8222   29.0968   49.2566 H   0  0  0  0  0  0  0  0  0  0  0  0
   37.6615   28.9853   49.1677 H   0  0  0  0  0  0  0  0  0  0  0  0
   37.8245   29.6043   50.5750 H   0  0  0  0  0  0  0  0  0  0  0  0
   37.3470   34.0572   49.2347 H   0  0  0  0  0  0  0  0  0  0  0  0
   37.8231   32.5645   50.0538 H   0  0  0  0  0  0  0  0  0  0  0  0
   39.3220   34.8126   50.3466 H   0  0  0  0  0  0  0  0  0  0  0  0
   40.1651   33.3147   50.2332 H   0  0  0  0  0  0  0  0  0  0  0  0
   39.3018   35.1996   47.8774 H   0  0  0  0  0  0  0  0  0  0  0  0
   40.9418   34.7670   48.2147 H   0  0  0  0  0  0  0  0  0  0  0  0
   40.4394   32.3343   47.7755 H   0  0  0  0  0  0  0  0  0  0  0  0
   39.7277   33.1955   46.4327 H   0  0  0  0  0  0  0  0  0  0  0  0
  1  7  1  0
  2  1  1  0
  2 10  1  0
  3  2  2  0
  4  5  2  0
  4  3  1  0
  5  6  1  0
  6  1  2  0
  7  8  1  0
  7  9  1  0
  8  9  1  0
 10 11  1  0
 11 12  1  0
 13 12  1  0
 14 10  1  0
 14 13  1  0
  3 15  1  0
  5 16  1  0
  7 17  1  0
  8 18  1  0
  8 19  1  0
  9 20  1  0
  9 21  1  0
 11 22  1  0
 11 23  1  0
 12 24  1  0
 12 25  1  0
 13 26  1  0
 13 27  1  0
 14 28  1  0
 14 29  1  0
M  ISO  8  15  14  16  14  17  13  18  13  19  13  20  13  21  13  22  13
M  ISO  7  23  13  24  13  25  13  26  13  27  13  28  13  29  13
M  END
>  <minimizedAffinity>  (1) 
-4.25851631

>  <minimizedRMSD>  (1) 
3.3321631

$$$$
