
     RDKit          3D

 20 21  0  0  0  0  0  0  0  0999 V2000
   37.3180   30.9920   48.7910 C   0  0  0  0  0  0  0  0  0  0  0  0
   37.6590   32.3190   49.1170 C   0  0  0  0  0  0  0  0  0  0  0  0
   38.5820   32.9130   48.2730 C   0  0  0  0  0  0  0  0  0  0  0  0
   39.0930   32.2160   47.2110 N   0  0  0  0  0  0  0  0  0  0  0  0
   38.7340   30.9380   46.9340 C   0  0  0  0  0  0  0  0  0  0  0  0
   37.8420   30.3250   47.7310 N   0  0  0  0  0  0  0  0  0  0  0  0
   36.2510   30.3680   49.6730 C   0  0  0  0  0  0  0  0  0  0  0  0
   35.9280   28.9650   49.5550 C   0  0  0  0  0  0  0  0  0  0  0  0
   36.8810   29.3640   50.6560 C   0  0  0  0  0  0  0  0  0  0  0  0
   37.0440   32.9810   50.2910 C   0  0  0  0  0  0  0  0  0  0  0  0
   38.9058   33.9482   48.4562 H   0  0  0  0  0  0  0  0  0  0  0  0
   39.1661   30.4112   46.0704 H   0  0  0  0  0  0  0  0  0  0  0  0
   35.6010   31.2552   49.6907 H   0  0  0  0  0  0  0  0  0  0  0  0
   34.9165   28.6180   49.8128 H   0  0  0  0  0  0  0  0  0  0  0  0
   35.9791   28.2390   48.7302 H   0  0  0  0  0  0  0  0  0  0  0  0
   37.9496   29.1116   50.5896 H   0  0  0  0  0  0  0  0  0  0  0  0
   36.9337   29.2430   51.7480 H   0  0  0  0  0  0  0  0  0  0  0  0
   37.4512   32.5427   51.2141 H   0  0  0  0  0  0  0  0  0  0  0  0
   37.2701   34.0572   50.2653 H   0  0  0  0  0  0  0  0  0  0  0  0
   35.9541   32.8346   50.2653 H   0  0  0  0  0  0  0  0  0  0  0  0
  1  2  2  0
  1  7  1  0
  2 10  1  0
  3  2  1  0
  4  3  2  0
  5  4  1  0
  5  6  2  0
  6  1  1  0
  7  9  1  0
  8  7  1  0
  8  9  1  0
  3 11  1  0
  5 12  1  0
  7 13  1  0
  8 14  1  0
  8 15  1  0
  9 16  1  0
  9 17  1  0
 10 18  1  0
 10 19  1  0
 10 20  1  0
M  ISO  8  11  14  12  14  13  13  14  13  15  13  16  13  17  13  18   8
M  ISO  2  19   8  20   8
M  END
>  <minimizedAffinity>  (1) 
-3.90711021

>  <minimizedRMSD>  (1) 
0.644984722

$$$$
