
     RDKit          3D

 18 19  0  0  0  0  0  0  0  0999 V2000
   37.1620   31.0350   48.9750 C   0  0  0  0  0  0  0  0  0  0  0  0
   37.4760   32.3680   49.3010 C   0  0  0  0  0  0  0  0  0  0  0  0
   38.4330   32.9550   48.4920 C   0  0  0  0  0  0  0  0  0  0  0  0
   38.9950   32.2540   47.4690 N   0  0  0  0  0  0  0  0  0  0  0  0
   38.6610   30.9750   47.1910 C   0  0  0  0  0  0  0  0  0  0  0  0
   37.7320   30.3490   47.9520 N   0  0  0  0  0  0  0  0  0  0  0  0
   36.0540   30.4180   49.8080 C   0  0  0  0  0  0  0  0  0  0  0  0
   35.8400   28.9900   49.7820 C   0  0  0  0  0  0  0  0  0  0  0  0
   36.6380   29.5420   50.9260 C   0  0  0  0  0  0  0  0  0  0  0  0
   36.8560   33.0120   50.3590 O   0  0  0  0  0  0  0  0  0  0  0  0
   38.7416   33.9946   48.6766 H   0  0  0  0  0  0  0  0  0  0  0  0
   39.1396   30.4463   46.3535 H   0  0  0  0  0  0  0  0  0  0  0  0
   35.3530   31.2576   49.6907 H   0  0  0  0  0  0  0  0  0  0  0  0
   34.8324   28.5895   49.9674 H   0  0  0  0  0  0  0  0  0  0  0  0
   36.0262   28.2064   49.0328 H   0  0  0  0  0  0  0  0  0  0  0  0
   37.7218   29.3645   50.9882 H   0  0  0  0  0  0  0  0  0  0  0  0
   36.5821   29.5105   52.0241 H   0  0  0  0  0  0  0  0  0  0  0  0
   37.0899   33.9498   50.5732 H   0  0  0  0  0  0  0  0  0  0  0  0
  1  2  2  0
  1  7  1  0
  2 10  1  0
  3  2  1  0
  4  3  2  0
  5  4  1  0
  5  6  2  0
  6  1  1  0
  7  9  1  0
  8  7  1  0
  8  9  1  0
  3 11  1  0
  5 12  1  0
  7 13  1  0
  8 14  1  0
  8 15  1  0
  9 16  1  0
  9 17  1  0
 10 18  1  0
M  ISO  8  11  14  12  14  13  13  14  13  15  13  16  13  17  13  18   3
M  END
>  <minimizedAffinity>  (1) 
-3.88002992

>  <minimizedRMSD>  (1) 
0.403263032

$$$$
