
     RDKit          3D

 23 24  0  0  0  0  0  0  0  0999 V2000
   37.1390   31.2160   48.5910 C   0  0  0  0  0  0  0  0  0  0  0  0
   38.1140   32.2240   48.4060 C   0  0  0  0  0  0  0  0  0  0  0  0
   38.4810   32.4040   47.0830 C   0  0  0  0  0  0  0  0  0  0  0  0
   37.9340   31.6640   46.0840 N   0  0  0  0  0  0  0  0  0  0  0  0
   37.0060   30.7120   46.3100 C   0  0  0  0  0  0  0  0  0  0  0  0
   36.6100   30.4900   47.5660 N   0  0  0  0  0  0  0  0  0  0  0  0
   36.6420   31.0350   50.0100 C   0  0  0  0  0  0  0  0  0  0  0  0
   35.8970   29.8680   50.3880 C   0  0  0  0  0  0  0  0  0  0  0  0
   37.3710   29.8490   50.6850 C   0  0  0  0  0  0  0  0  0  0  0  0
   38.6790   33.0060   49.5050 C   0  0  0  0  0  0  0  0  0  0  0  0
   39.4800   34.2040   49.1310 C   0  0  0  0  0  0  0  0  0  0  0  0
   39.2348   33.1657   46.8348 H   0  0  0  0  0  0  0  0  0  0  0  0
   36.5840   30.1304   45.4772 H   0  0  0  0  0  0  0  0  0  0  0  0
   36.4372   32.1018   50.1834 H   0  0  0  0  0  0  0  0  0  0  0  0
   35.1793   29.9312   51.2192 H   0  0  0  0  0  0  0  0  0  0  0  0
   35.2263   29.1885   49.8417 H   0  0  0  0  0  0  0  0  0  0  0  0
   38.0511   29.2066   50.1064 H   0  0  0  0  0  0  0  0  0  0  0  0
   38.0069   29.7000   51.5702 H   0  0  0  0  0  0  0  0  0  0  0  0
   37.8442   33.3467   50.1351 H   0  0  0  0  0  0  0  0  0  0  0  0
   39.3872   32.3299   50.0064 H   0  0  0  0  0  0  0  0  0  0  0  0
   39.8221   34.7156   50.0427 H   0  0  0  0  0  0  0  0  0  0  0  0
   40.3515   33.8915   48.5370 H   0  0  0  0  0  0  0  0  0  0  0  0
   38.8582   34.8900   48.5370 H   0  0  0  0  0  0  0  0  0  0  0  0
  1  7  1  0
  2  1  2  0
  2 10  1  0
  3  2  1  0
  4  5  1  0
  4  3  2  0
  5  6  2  0
  6  1  1  0
  7  8  1  0
  7  9  1  0
  8  9  1  0
 11 10  1  0
  3 12  1  0
  5 13  1  0
  7 14  1  0
  8 15  1  0
  8 16  1  0
  9 17  1  0
  9 18  1  0
 10 19  1  0
 10 20  1  0
 11 21  1  0
 11 22  1  0
 11 23  1  0
M  ISO  8  12  14  13  14  14  13  15  13  16  13  17  13  18  13  19   8
M  ISO  4  20   8  21   8  22   8  23   8
M  END
>  <minimizedAffinity>  (1) 
-4.57886267

>  <minimizedRMSD>  (1) 
2.16403675

$$$$
