
     RDKit          3D

 41 44  0  0  0  0  0  0  0  0999 V2000
   33.1830   28.1830   49.0960 C   0  0  0  0  0  0  0  0  0  0  0  0
   30.9530   27.3120   48.5660 C   0  0  0  0  0  0  0  0  0  0  0  0
   32.2700   27.4910   48.2440 C   0  0  0  0  0  0  0  0  0  0  0  0
   32.6180   26.8940   47.0790 C   0  0  0  0  0  0  0  0  0  0  0  0
   31.7760   26.1970   46.3140 N   0  0  0  0  0  0  0  0  0  0  0  0
   30.5080   26.0240   46.6300 C   0  0  0  0  0  0  0  0  0  0  0  0
   30.0740   26.5790   47.7640 N   0  0  0  0  0  0  0  0  0  0  0  0
   30.3260   28.0450   49.7490 C   0  0  0  0  0  0  0  0  0  0  0  0
   28.9830   28.3840   49.8200 C   0  0  0  0  0  0  0  0  0  0  0  0
   29.3020   27.0180   50.4000 C   0  0  0  0  0  0  0  0  0  0  0  0
   34.5700   28.3610   48.6110 C   0  0  0  0  0  0  0  0  0  0  0  0
   36.4290   30.0650   47.4630 F   0  0  0  0  0  0  0  0  0  0  0  0
   36.3850   29.8550   48.8030 C   0  0  0  0  0  0  0  0  0  0  0  0
   35.4890   29.0360   49.4760 C   0  0  0  0  0  0  0  0  0  0  0  0
   35.6330   28.9750   50.8220 C   0  0  0  0  0  0  0  0  0  0  0  0
   36.5640   29.6530   51.5230 C   0  0  0  0  0  0  0  0  0  0  0  0
   37.4550   30.4680   50.8520 C   0  0  0  0  0  0  0  0  0  0  0  0
   37.3550   30.5560   49.4750 C   0  0  0  0  0  0  0  0  0  0  0  0
   38.3100   31.3760   48.8670 O   0  0  0  0  0  0  0  0  0  0  0  0
   38.2850   32.6790   48.4960 C   0  0  0  0  0  0  0  0  0  0  0  0
   39.4310   33.3940   47.8840 C   0  0  0  0  0  0  0  0  0  0  0  0
   39.0510   33.6970   49.3130 C   0  0  0  0  0  0  0  0  0  0  0  0
   32.7673   29.1847   49.2799 H   0  0  0  0  0  0  0  0  0  0  0  0
   33.2773   27.5419   49.9849 H   0  0  0  0  0  0  0  0  0  0  0  0
   33.6608   26.9899   46.7423 H   0  0  0  0  0  0  0  0  0  0  0  0
   29.8328   25.4441   45.9836 H   0  0  0  0  0  0  0  0  0  0  0  0
   31.1938   28.6818   49.9760 H   0  0  0  0  0  0  0  0  0  0  0  0
   28.6733   29.1915   50.4997 H   0  0  0  0  0  0  0  0  0  0  0  0
   28.2621   28.7137   49.0574 H   0  0  0  0  0  0  0  0  0  0  0  0
   29.0111   26.0958   49.8757 H   0  0  0  0  0  0  0  0  0  0  0  0
   29.1744   26.4857   51.3541 H   0  0  0  0  0  0  0  0  0  0  0  0
   34.9802   27.3603   48.4102 H   0  0  0  0  0  0  0  0  0  0  0  0
   34.4786   29.0159   47.7319 H   0  0  0  0  0  0  0  0  0  0  0  0
   34.9422   28.3272   51.3817 H   0  0  0  0  0  0  0  0  0  0  0  0
   36.6136   29.5582   52.6178 H   0  0  0  0  0  0  0  0  0  0  0  0
   38.2245   31.0327   51.3988 H   0  0  0  0  0  0  0  0  0  0  0  0
   37.2445   32.5241   48.1745 H   0  0  0  0  0  0  0  0  0  0  0  0
   40.3632   32.8514   47.6682 H   0  0  0  0  0  0  0  0  0  0  0  0
   39.5692   33.9989   46.9757 H   0  0  0  0  0  0  0  0  0  0  0  0
   38.5886   34.6614   49.5701 H   0  0  0  0  0  0  0  0  0  0  0  0
   39.5726   33.6944   50.2815 H   0  0  0  0  0  0  0  0  0  0  0  0
  2  8  1  0
  3  2  1  0
  3  1  1  0
  4  3  2  0
  5  6  2  0
  5  4  1  0
  6  7  1  0
  7  2  2  0
  8  9  1  0
  8 10  1  0
  9 10  1  0
 11  1  1  0
 11 14  1  0
 12 13  1  0
 13 18  2  0
 13 14  1  0
 14 15  2  0
 15 16  1  0
 17 16  2  0
 18 17  1  0
 19 18  1  0
 20 19  1  0
 20 22  1  0
 21 20  1  0
 21 22  1  0
  1 23  1  0
  1 24  1  0
  4 25  1  0
  6 26  1  0
  8 27  1  0
  9 28  1  0
  9 29  1  0
 10 30  1  0
 10 31  1  0
 11 32  1  0
 11 33  1  0
 15 34  1  0
 16 35  1  0
 17 36  1  0
 20 37  1  0
 21 38  1  0
 21 39  1  0
 22 40  1  0
 22 41  1  0
M  ISO  8  23   8  24   8  25  14  26  14  27  13  28  13  29  13  30  13
M  ISO  8  31  13  32   8  33   8  34  14  35  14  36  14  37  13  38  13
M  ISO  3  39  13  40  13  41  13
M  END
>  <minimizedAffinity>  (1) 
-6.21237659

>  <minimizedRMSD>  (1) 
4.6215148

$$$$
