
     RDKit          3D

 41 43  0  0  0  0  0  0  0  0999 V2000
   34.0450   28.2700   47.9760 C   0  0  0  0  0  0  0  0  0  0  0  0
   35.2570   30.4830   46.7870 F   0  0  0  0  0  0  0  0  0  0  0  0
   35.6440   30.0250   48.0170 C   0  0  0  0  0  0  0  0  0  0  0  0
   35.0820   28.9310   48.6860 C   0  0  0  0  0  0  0  0  0  0  0  0
   35.6080   28.6480   49.8840 C   0  0  0  0  0  0  0  0  0  0  0  0
   36.6180   29.3420   50.4620 C   0  0  0  0  0  0  0  0  0  0  0  0
   37.1880   30.4370   49.8020 C   0  0  0  0  0  0  0  0  0  0  0  0
   36.6650   30.7420   48.5750 C   0  0  0  0  0  0  0  0  0  0  0  0
   38.2880   31.1820   50.4470 C   0  0  0  0  0  0  0  0  0  0  0  0
   37.2780   31.8540   47.9350 O   0  0  0  0  0  0  0  0  0  0  0  0
   38.4350   31.5430   47.2440 C   0  0  0  0  0  0  0  0  0  0  0  0
   39.2660   32.5200   47.2810 O   0  0  0  0  0  0  0  0  0  0  0  0
   38.8770   30.4180   46.5310 N   0  0  0  0  0  0  0  0  0  0  0  0
   32.8190   27.9010   48.7250 C   0  0  0  0  0  0  0  0  0  0  0  0
   30.4670   27.2960   48.4360 C   0  0  0  0  0  0  0  0  0  0  0  0
   31.7540   27.3110   47.9770 C   0  0  0  0  0  0  0  0  0  0  0  0
   31.9230   26.6910   46.7970 C   0  0  0  0  0  0  0  0  0  0  0  0
   30.9240   26.1060   46.1290 N   0  0  0  0  0  0  0  0  0  0  0  0
   29.6670   26.0830   46.5680 C   0  0  0  0  0  0  0  0  0  0  0  0
   29.4240   26.6820   47.7310 N   0  0  0  0  0  0  0  0  0  0  0  0
   30.0740   27.9600   49.7410 C   0  0  0  0  0  0  0  0  0  0  0  0
   28.7550   28.3770   49.9880 C   0  0  0  0  0  0  0  0  0  0  0  0
   29.1640   27.0170   50.5590 C   0  0  0  0  0  0  0  0  0  0  0  0
   33.7391   28.9310   47.1516 H   0  0  0  0  0  0  0  0  0  0  0  0
   34.4854   27.3079   47.6753 H   0  0  0  0  0  0  0  0  0  0  0  0
   35.1916   27.7933   50.4372 H   0  0  0  0  0  0  0  0  0  0  0  0
   36.9912   29.0440   51.4529 H   0  0  0  0  0  0  0  0  0  0  0  0
   38.1861   31.1130   51.5401 H   0  0  0  0  0  0  0  0  0  0  0  0
   39.2523   30.7503   50.1407 H   0  0  0  0  0  0  0  0  0  0  0  0
   38.2450   32.2376   50.1407 H   0  0  0  0  0  0  0  0  0  0  0  0
   38.2719   29.5883   46.4514 H   0  0  0  0  0  0  0  0  0  0  0  0
   39.8065   30.4220   46.0873 H   0  0  0  0  0  0  0  0  0  0  0  0
   33.1111   27.1851   49.5074 H   0  0  0  0  0  0  0  0  0  0  0  0
   32.4135   28.8539   49.0958 H   0  0  0  0  0  0  0  0  0  0  0  0
   32.9320   26.6636   46.3597 H   0  0  0  0  0  0  0  0  0  0  0  0
   28.8665   25.5915   45.9956 H   0  0  0  0  0  0  0  0  0  0  0  0
   31.0151   28.5177   49.8564 H   0  0  0  0  0  0  0  0  0  0  0  0
   28.5734   29.2183   50.6730 H   0  0  0  0  0  0  0  0  0  0  0  0
   27.9314   28.7097   49.3391 H   0  0  0  0  0  0  0  0  0  0  0  0
   28.7809   26.0828   50.1226 H   0  0  0  0  0  0  0  0  0  0  0  0
   29.1840   26.5251   51.5427 H   0  0  0  0  0  0  0  0  0  0  0  0
  1  4  1  0
  1 14  1  0
  2  3  1  0
  3  8  2  0
  3  4  1  0
  4  5  2  0
  5  6  1  0
  7  9  1  0
  7  6  2  0
  8  7  1  0
 10  8  1  0
 11 12  2  0
 11 10  1  0
 13 11  1  0
 15 21  1  0
 16 15  1  0
 16 14  1  0
 17 16  2  0
 18 19  2  0
 18 17  1  0
 19 20  1  0
 20 15  2  0
 21 22  1  0
 21 23  1  0
 22 23  1  0
  1 24  1  0
  1 25  1  0
  5 26  1  0
  6 27  1  0
  9 28  1  0
  9 29  1  0
  9 30  1  0
 13 31  1  0
 13 32  1  0
 14 33  1  0
 14 34  1  0
 17 35  1  0
 19 36  1  0
 21 37  1  0
 22 38  1  0
 22 39  1  0
 23 40  1  0
 23 41  1  0
M  ISO  8  24   8  25   8  26  14  27  14  28   8  29   8  30   8  33   8
M  ISO  8  34   8  35  14  36  14  37  13  38  13  39  13  40  13  41  13
M  END
>  <minimizedAffinity>  (1) 
-6.04342413

>  <minimizedRMSD>  (1) 
0.916109264

$$$$
