
     RDKit          3D

 47 49  0  0  1  0  0  0  0  0999 V2000
   33.2630   29.1110   45.5780 C   0  0  2  0  0  0  0  0  0  0  0  0
   33.6650   28.5300   44.3040 C   0  0  0  0  0  0  0  0  0  0  0  0
   35.1790   28.4150   44.1500 C   0  0  0  0  0  0  0  0  0  0  0  0
   35.8660   29.7380   44.3020 C   0  0  0  0  0  0  0  0  0  0  0  0
   35.2460   30.6350   45.3480 C   0  0  0  0  0  0  0  0  0  0  0  0
   34.3680   29.8330   46.3050 C   0  0  2  0  0  0  0  0  0  0  0  0
   32.6490   28.1880   46.5390 C   0  0  0  0  0  0  0  0  0  0  0  0
   32.8200   26.8340   46.2220 C   0  0  0  0  0  0  0  0  0  0  0  0
   32.2740   25.9180   47.1040 C   0  0  0  0  0  0  0  0  0  0  0  0
   31.6090   26.3570   48.2120 N   0  0  0  0  0  0  0  0  0  0  0  0
   31.4660   27.6670   48.4770 C   0  0  0  0  0  0  0  0  0  0  0  0
   31.9850   28.5170   47.6400 N   0  0  0  0  0  0  0  0  0  0  0  0
   35.2330   29.1040   47.1180 N   0  0  0  0  0  0  0  0  0  0  0  0
   35.8090   29.8540   48.5260 S   0  0  1  0  0  0  0  0  0  0  0  0
   36.4750   28.7400   49.3280 O   0  0  0  0  0  0  0  0  0  0  0  0
   36.7650   30.9120   48.2930 O   0  0  0  0  0  0  0  0  0  0  0  0
   37.2390   32.9150   50.2070 F   0  0  0  0  0  0  0  0  0  0  0  0
   37.9910   32.8550   49.0830 C   0  0  0  0  0  0  0  0  0  0  0  0
   37.6950   31.8420   48.1920 C   0  0  0  0  0  0  0  0  0  0  0  0
   38.4980   31.8200   47.0470 C   0  0  0  0  0  0  0  0  0  0  0  0
   39.5160   32.7140   46.7810 C   0  0  0  0  0  0  0  0  0  0  0  0
   39.7090   33.6810   47.7540 C   0  0  0  0  0  0  0  0  0  0  0  0
   38.9800   33.7970   48.9150 C   0  0  0  0  0  0  0  0  0  0  0  0
   34.5570   30.4030   49.5080 O   0  0  0  0  0  0  0  0  0  0  0  0
   34.1650   29.4660   50.4490 C   0  0  0  0  0  0  0  0  0  0  0  0
   34.1700   28.2180   49.8890 F   0  0  0  0  0  0  0  0  0  0  0  0
   35.1200   29.4690   51.4530 F   0  0  0  0  0  0  0  0  0  0  0  0
   32.9550   29.7670   51.0630 F   0  0  0  0  0  0  0  0  0  0  0  0
   32.4968   29.8228   45.2370 H   0  0  0  0  0  0  0  0  0  0  0  0
   33.2275   27.5239   44.2244 H   0  0  0  0  0  0  0  0  0  0  0  0
   33.3043   29.1998   43.5095 H   0  0  0  0  0  0  0  0  0  0  0  0
   35.4038   28.0118   43.1515 H   0  0  0  0  0  0  0  0  0  0  0  0
   35.5493   27.7493   44.9435 H   0  0  0  0  0  0  0  0  0  0  0  0
   36.9139   29.5537   44.5813 H   0  0  0  0  0  0  0  0  0  0  0  0
   35.7703   30.2593   43.3381 H   0  0  0  0  0  0  0  0  0  0  0  0
   36.0463   31.1267   45.9205 H   0  0  0  0  0  0  0  0  0  0  0  0
   34.6193   31.3835   44.8411 H   0  0  0  0  0  0  0  0  0  0  0  0
   33.7672   30.4521   46.9875 H   0  0  0  0  0  0  0  0  0  0  0  0
   33.3605   26.5154   45.3185 H   0  0  0  0  0  0  0  0  0  0  0  0
   32.3757   24.8396   46.9127 H   0  0  0  0  0  0  0  0  0  0  0  0
   30.9274   28.0094   49.3729 H   0  0  0  0  0  0  0  0  0  0  0  0
   34.7372   28.2483   47.4058 H   0  0  0  0  0  0  0  0  0  0  0  0
   36.3673   28.9202   50.2955 H   0  0  0  0  0  0  0  0  0  0  0  0
   38.3042   31.0325   46.3038 H   0  0  0  0  0  0  0  0  0  0  0  0
   40.1264   32.6624   45.8674 H   0  0  0  0  0  0  0  0  0  0  0  0
   40.5100   34.4156   47.5846 H   0  0  0  0  0  0  0  0  0  0  0  0
   39.1739   34.5864   49.6561 H   0  0  0  0  0  0  0  0  0  0  0  0
  1  6  1  0
  1  7  1  0
  2  1  1  0
  3  4  1  0
  3  2  1  0
  4  5  1  0
  5  6  1  0
  6 13  1  0
  7 12  1  0
  8  7  2  0
  8  9  1  0
  9 10  2  0
 10 11  1  0
 12 11  2  0
 13 14  1  0
 14 16  1  6
 14 15  1  0
 14 24  1  0
 18 17  1  0
 19 16  1  0
 19 18  2  0
 20 19  1  0
 21 20  2  0
 21 22  1  0
 22 23  2  0
 23 18  1  0
 24 25  1  0
 25 28  1  0
 25 27  1  0
 26 25  1  0
  1 29  1  6
  2 30  1  0
  2 31  1  0
  3 32  1  0
  3 33  1  0
  4 34  1  0
  4 35  1  0
  5 36  1  0
  5 37  1  0
  6 38  1  1
  8 39  1  0
  9 40  1  0
 11 41  1  0
 13 42  1  0
 15 43  1  0
 20 44  1  0
 21 45  1  0
 22 46  1  0
 23 47  1  0
M  ISO  8  29  13  30  13  31  13  32  13  33  13  34  13  35  13  36  13
M  ISO  8  37  13  38  13  39  14  40  14  41  14  42   5  43   3  44  14
M  ISO  3  45  14  46  14  47  14
M  END
>  <minimizedAffinity>  (1) 
-5.21930647

>  <minimizedRMSD>  (1) 
3.98007584

$$$$
