
     RDKit          3D

 19 20  0  0  1  0  0  0  0  0999 V2000
   36.5880   31.2720   50.2200 C   0  0  1  0  0  0  0  0  0  0  0  0
   36.1330   29.9110   50.4900 C   0  0  2  0  0  0  0  0  0  0  0  0
   37.4090   30.3750   51.1270 C   0  0  0  0  0  0  0  0  0  0  0  0
   37.3030   31.5900   48.9250 C   0  0  0  0  0  0  0  0  0  0  0  0
   38.4060   32.4700   48.9990 C   0  0  0  0  0  0  0  0  0  0  0  0
   39.0290   32.7360   47.7930 C   0  0  0  0  0  0  0  0  0  0  0  0
   38.5760   32.1700   46.6540 N   0  0  0  0  0  0  0  0  0  0  0  0
   37.5180   31.3330   46.6150 C   0  0  0  0  0  0  0  0  0  0  0  0
   36.8820   31.0450   47.7650 N   0  0  0  0  0  0  0  0  0  0  0  0
   36.3230   28.8450   49.5040 N   0  0  0  0  0  0  0  0  0  0  0  0
   36.0699   32.2409   50.2739 H   0  0  0  0  0  0  0  0  0  0  0  0
   35.1571   29.5232   50.8174 H   0  0  0  0  0  0  0  0  0  0  0  0
   38.3766   29.9771   50.7872 H   0  0  0  0  0  0  0  0  0  0  0  0
   37.8034   30.4365   52.1520 H   0  0  0  0  0  0  0  0  0  0  0  0
   38.7449   32.9119   49.9476 H   0  0  0  0  0  0  0  0  0  0  0  0
   39.8968   33.4112   47.7618 H   0  0  0  0  0  0  0  0  0  0  0  0
   37.1828   30.8955   45.6630 H   0  0  0  0  0  0  0  0  0  0  0  0
   36.4823   27.9514   49.9909 H   0  0  0  0  0  0  0  0  0  0  0  0
   35.4822   28.7694   48.9138 H   0  0  0  0  0  0  0  0  0  0  0  0
  1  2  1  0
  1  3  1  0
  2  3  1  0
  4  5  2  0
  4  1  1  0
  6  5  1  0
  7  6  2  0
  8  7  1  0
  8  9  2  0
  9  4  1  0
 10  2  1  0
  1 11  1  1
  2 12  1  1
  3 13  1  0
  3 14  1  0
  5 15  1  0
  6 16  1  0
  8 17  1  0
 10 18  1  0
 10 19  1  0
M  ISO  8  11  13  12  13  13  13  14  13  15  14  16  14  17  14  18   5
M  ISO  1  19   5
M  END
>  <minimizedAffinity>  (1) 
-4.06813669

>  <minimizedRMSD>  (1) 
1.19200063

$$$$
