
     RDKit          3D

 30 32  0  0  1  0  0  0  0  0999 V2000
   35.8260   30.5410   49.0700 C   0  0  1  0  0  0  0  0  0  0  0  0
   35.9150   29.1030   48.8470 C   0  0  1  0  0  0  0  0  0  0  0  0
   36.0360   29.6140   50.2580 C   0  0  0  0  0  0  0  0  0  0  0  0
   37.0090   31.4460   48.8160 C   0  0  0  0  0  0  0  0  0  0  0  0
   37.2010   32.5210   49.7030 C   0  0  0  0  0  0  0  0  0  0  0  0
   38.2820   33.3360   49.4190 C   0  0  0  0  0  0  0  0  0  0  0  0
   39.0870   33.0880   48.3460 N   0  0  0  0  0  0  0  0  0  0  0  0
   38.8630   32.0420   47.5200 C   0  0  0  0  0  0  0  0  0  0  0  0
   37.8120   31.2120   47.7590 N   0  0  0  0  0  0  0  0  0  0  0  0
   33.9680   29.0720   47.3800 C   0  0  2  0  0  0  0  0  0  0  0  0
   34.7500   28.2780   48.4080 C   0  0  2  0  0  0  0  0  0  0  0  0
   33.8710   28.0640   49.4380 O   0  0  0  0  0  0  0  0  0  0  0  0
   32.5790   28.1350   48.9960 C   0  0  0  0  0  0  0  0  0  0  0  0
   32.6030   28.3870   47.5110 C   0  0  1  0  0  0  0  0  0  0  0  0
   34.4660   28.9560   46.0990 O   0  0  0  0  0  0  0  0  0  0  0  0
   31.5780   29.1780   47.0520 O   0  0  0  0  0  0  0  0  0  0  0  0
   35.0926   31.2854   48.7266 H   0  0  0  0  0  0  0  0  0  0  0  0
   36.5369   28.4708   48.1961 H   0  0  0  0  0  0  0  0  0  0  0  0
   37.0047   29.5871   50.7786 H   0  0  0  0  0  0  0  0  0  0  0  0
   35.5270   29.4254   51.2148 H   0  0  0  0  0  0  0  0  0  0  0  0
   36.5380   32.7008   50.5621 H   0  0  0  0  0  0  0  0  0  0  0  0
   38.4958   34.1976   50.0686 H   0  0  0  0  0  0  0  0  0  0  0  0
   39.5258   31.8631   46.6606 H   0  0  0  0  0  0  0  0  0  0  0  0
   33.9821   30.1587   47.5503 H   0  0  0  0  0  0  0  0  0  0  0  0
   35.1412   27.3232   48.0268 H   0  0  0  0  0  0  0  0  0  0  0  0
   32.0614   27.1870   49.2046 H   0  0  0  0  0  0  0  0  0  0  0  0
   32.0453   28.9475   49.5108 H   0  0  0  0  0  0  0  0  0  0  0  0
   32.4664   27.4768   46.9086 H   0  0  0  0  0  0  0  0  0  0  0  0
   35.4294   28.7316   46.1385 H   0  0  0  0  0  0  0  0  0  0  0  0
   31.0849   29.5586   47.8215 H   0  0  0  0  0  0  0  0  0  0  0  0
  1  3  1  0
  2  1  1  0
  2  3  1  0
  4  1  1  0
  4  5  2  0
  6  5  1  0
  7  6  2  0
  8  9  2  0
  8  7  1  0
  9  4  1  0
 10 15  1  0
 10 14  1  0
 10 11  1  0
 11  2  1  0
 11 12  1  0
 13 12  1  0
 14 16  1  0
 14 13  1  0
  1 17  1  1
  2 18  1  6
  3 19  1  0
  3 20  1  0
  5 21  1  0
  6 22  1  0
  8 23  1  0
 10 24  1  1
 11 25  1  6
 13 26  1  0
 13 27  1  0
 14 28  1  6
 15 29  1  0
 16 30  1  0
M  ISO  8  17  13  18  13  19  13  20  13  21  14  22  14  23  14  24  13
M  ISO  6  25  13  26  13  27  13  28  13  29   3  30   3
M  END
>  <minimizedAffinity>  (1) 
-5.04652786

>  <minimizedRMSD>  (1) 
1.44024217

$$$$
