
     RDKit          3D

 43 46  0  0  1  0  0  0  0  0999 V2000
   33.7820   28.9020   47.2220 C   0  0  2  0  0  0  0  0  0  0  0  0
   34.5060   28.1130   48.3040 C   0  0  2  0  0  0  0  0  0  0  0  0
   33.5980   27.9500   49.3070 O   0  0  0  0  0  0  0  0  0  0  0  0
   32.3250   28.0400   48.8200 C   0  0  0  0  0  0  0  0  0  0  0  0
   32.4040   28.2450   47.3220 C   0  0  1  0  0  0  0  0  0  0  0  0
   35.5940   30.3550   49.0000 C   0  0  1  0  0  0  0  0  0  0  0  0
   35.6750   28.9370   48.7410 C   0  0  1  0  0  0  0  0  0  0  0  0
   35.8440   29.3750   50.1570 C   0  0  0  0  0  0  0  0  0  0  0  0
   36.7890   31.2670   48.7710 C   0  0  0  0  0  0  0  0  0  0  0  0
   37.0360   32.2570   49.7230 C   0  0  0  0  0  0  0  0  0  0  0  0
   38.1220   33.0780   49.4550 C   0  0  0  0  0  0  0  0  0  0  0  0
   38.8760   32.8980   48.3190 N   0  0  0  0  0  0  0  0  0  0  0  0
   38.5980   31.9260   47.4260 C   0  0  0  0  0  0  0  0  0  0  0  0
   37.5410   31.0980   47.6540 N   0  0  0  0  0  0  0  0  0  0  0  0
   34.3220   28.7380   45.9620 O   0  0  0  0  0  0  0  0  0  0  0  0
   31.4110   29.0450   46.8380 O   0  0  0  0  0  0  0  0  0  0  0  0
   30.2340   28.4100   46.5460 C   0  0  0  0  0  0  0  0  0  0  0  0
   29.8760   28.5730   45.0660 C   0  0  0  0  0  0  0  0  0  0  0  0
   28.8470   29.6990   45.0820 C   0  0  0  0  0  0  0  0  0  0  0  0
   28.0110   29.2500   46.2870 C   0  0  0  0  0  0  0  0  0  0  0  0
   29.1240   29.0860   47.3270 C   0  0  0  0  0  0  0  0  0  0  0  0
   33.8168   29.9926   47.3616 H   0  0  0  0  0  0  0  0  0  0  0  0
   34.8784   27.1313   47.9758 H   0  0  0  0  0  0  0  0  0  0  0  0
   31.7758   27.1127   49.0403 H   0  0  0  0  0  0  0  0  0  0  0  0
   31.7970   28.8822   49.2911 H   0  0  0  0  0  0  0  0  0  0  0  0
   32.2784   27.3272   46.7288 H   0  0  0  0  0  0  0  0  0  0  0  0
   34.8538   31.1066   48.6884 H   0  0  0  0  0  0  0  0  0  0  0  0
   36.2775   28.3343   48.0455 H   0  0  0  0  0  0  0  0  0  0  0  0
   36.8295   29.3248   50.6431 H   0  0  0  0  0  0  0  0  0  0  0  0
   35.3690   29.1463   51.1225 H   0  0  0  0  0  0  0  0  0  0  0  0
   36.4139   32.3779   50.6221 H   0  0  0  0  0  0  0  0  0  0  0  0
   38.3828   33.8819   50.1591 H   0  0  0  0  0  0  0  0  0  0  0  0
   39.2172   31.8037   46.5251 H   0  0  0  0  0  0  0  0  0  0  0  0
   35.2662   28.4513   46.0424 H   0  0  0  0  0  0  0  0  0  0  0  0
   30.3452   27.3445   46.7956 H   0  0  0  0  0  0  0  0  0  0  0  0
   29.4422   27.6472   44.6602 H   0  0  0  0  0  0  0  0  0  0  0  0
   30.7475   28.7921   44.4315 H   0  0  0  0  0  0  0  0  0  0  0  0
   29.3140   30.6810   45.2480 H   0  0  0  0  0  0  0  0  0  0  0  0
   28.2868   29.8387   44.1457 H   0  0  0  0  0  0  0  0  0  0  0  0
   27.2803   30.0157   46.5866 H   0  0  0  0  0  0  0  0  0  0  0  0
   27.3944   28.3547   46.1190 H   0  0  0  0  0  0  0  0  0  0  0  0
   28.7910   28.4554   48.1645 H   0  0  0  0  0  0  0  0  0  0  0  0
   29.4347   30.0394   47.7791 H   0  0  0  0  0  0  0  0  0  0  0  0
  1  5  1  0
  1  2  1  0
  2  7  1  0
  2  3  1  0
  4  3  1  0
  5  4  1  0
  6  8  1  0
  7  6  1  0
  7  8  1  0
  9  6  1  0
  9 10  2  0
 11 10  1  0
 12 11  2  0
 13 14  2  0
 13 12  1  0
 14  9  1  0
 15  1  1  0
 16  5  1  0
 17 16  1  0
 17 21  1  0
 18 19  1  0
 18 17  1  0
 19 20  1  0
 20 21  1  0
  1 22  1  1
  2 23  1  6
  4 24  1  0
  4 25  1  0
  5 26  1  6
  6 27  1  1
  7 28  1  6
  8 29  1  0
  8 30  1  0
 10 31  1  0
 11 32  1  0
 13 33  1  0
 15 34  1  0
 17 35  1  0
 18 36  1  0
 18 37  1  0
 19 38  1  0
 19 39  1  0
 20 40  1  0
 20 41  1  0
 21 42  1  0
 21 43  1  0
M  ISO  8  22  13  23  13  24  13  25  13  26  13  27  13  28  13  29  13
M  ISO  8  30  13  31  14  32  14  33  14  34   3  35  13  36  13  37  13
M  ISO  6  38  13  39  13  40  13  41  13  42  13  43  13
M  END
>  <minimizedAffinity>  (1) 
-5.00284338

>  <minimizedRMSD>  (1) 
0.926760316

$$$$
