
     RDKit          3D

 37 40  0  0  1  0  0  0  0  0999 V2000
   35.3060   30.0180   47.2190 N   0  0  0  0  0  0  0  0  0  0  0  0
   34.1170   30.1380   46.3830 C   0  0  0  0  0  0  0  0  0  0  0  0
   34.4390   30.3380   44.9500 C   0  0  0  0  0  0  0  0  0  0  0  0
   35.6880   29.6780   44.6600 N   0  0  0  0  0  0  0  0  0  0  0  0
   36.7070   30.5220   45.2710 C   0  0  0  0  0  0  0  0  0  0  0  0
   36.6720   30.1770   46.7370 C   0  0  1  0  0  0  0  0  0  0  0  0
   37.1980   31.5570   48.7870 C   0  0  0  0  0  0  0  0  0  0  0  0
   37.3970   31.2510   47.4530 C   0  0  0  0  0  0  0  0  0  0  0  0
   38.3390   32.0120   46.7610 C   0  0  0  0  0  0  0  0  0  0  0  0
   39.0310   33.0240   47.4110 C   0  0  0  0  0  0  0  0  0  0  0  0
   39.9810   33.9190   47.0430 N   0  0  0  0  0  0  0  0  0  0  0  0
   40.3180   34.6880   48.0610 N   0  0  0  0  0  0  0  0  0  0  0  0
   39.6140   34.3450   49.1520 C   0  0  0  0  0  0  0  0  0  0  0  0
   38.8110   33.3040   48.7400 C   0  0  0  0  0  0  0  0  0  0  0  0
   37.8890   32.5660   49.4290 C   0  0  0  0  0  0  0  0  0  0  0  0
   35.9960   28.8280   49.2550 C   0  0  0  0  0  0  0  0  0  0  0  0
   35.1220   29.7280   48.5970 C   0  0  0  0  0  0  0  0  0  0  0  0
   34.1040   30.2970   49.3420 C   0  0  0  0  0  0  0  0  0  0  0  0
   33.9980   29.9600   50.6700 N   0  0  0  0  0  0  0  0  0  0  0  0
   34.8600   29.0930   51.2530 C   0  0  0  0  0  0  0  0  0  0  0  0
   35.8740   28.5140   50.5520 N   0  0  0  0  0  0  0  0  0  0  0  0
   33.5221   29.2183   46.4843 H   0  0  0  0  0  0  0  0  0  0  0  0
   33.5611   31.0239   46.7238 H   0  0  0  0  0  0  0  0  0  0  0  0
   33.6402   29.9084   44.3277 H   0  0  0  0  0  0  0  0  0  0  0  0
   34.5236   31.4127   44.7314 H   0  0  0  0  0  0  0  0  0  0  0  0
   35.7038   28.7343   45.0723 H   0  0  0  0  0  0  0  0  0  0  0  0
   37.6972   30.3018   44.8456 H   0  0  0  0  0  0  0  0  0  0  0  0
   36.5185   31.5911   45.0937 H   0  0  0  0  0  0  0  0  0  0  0  0
   37.1588   29.2075   46.9191 H   0  0  0  0  0  0  0  0  0  0  0  0
   36.4609   30.9742   49.3589 H   0  0  0  0  0  0  0  0  0  0  0  0
   38.5338   31.8095   45.6975 H   0  0  0  0  0  0  0  0  0  0  0  0
   40.3844   33.9890   46.0979 H   0  0  0  0  0  0  0  0  0  0  0  0
   39.6668   34.7959   50.1539 H   0  0  0  0  0  0  0  0  0  0  0  0
   37.6980   32.7753   50.4919 H   0  0  0  0  0  0  0  0  0  0  0  0
   36.8100   28.3670   48.6763 H   0  0  0  0  0  0  0  0  0  0  0  0
   33.3963   31.0024   48.8820 H   0  0  0  0  0  0  0  0  0  0  0  0
   34.7380   28.8505   52.3190 H   0  0  0  0  0  0  0  0  0  0  0  0
  1 17  1  0
  2  1  1  0
  3  2  1  0
  4  3  1  0
  4  5  1  0
  5  6  1  0
  6  1  1  0
  6  8  1  0
  7 15  2  0
  8  7  1  0
  9 10  1  0
  9  8  2  0
 10 14  2  0
 11 10  1  0
 11 12  1  0
 12 13  2  0
 14 13  1  0
 14 15  1  0
 16 21  2  0
 17 16  1  0
 17 18  2  0
 18 19  1  0
 19 20  2  0
 21 20  1  0
  2 22  1  0
  2 23  1  0
  3 24  1  0
  3 25  1  0
  4 26  1  0
  5 27  1  0
  5 28  1  0
  6 29  1  6
  7 30  1  0
  9 31  1  0
 11 32  1  0
 13 33  1  0
 15 34  1  0
 16 35  1  0
 18 36  1  0
 20 37  1  0
M  ISO  8  22  13  23  13  24  13  25  13  26   5  27  13  28  13  29  13
M  ISO  8  30  14  31  14  32   9  33  14  34  14  35  14  36  14  37  14
M  END
>  <minimizedAffinity>  (1) 
-4.89810658

>  <minimizedRMSD>  (1) 
3.84290457

$$$$
