
     RDKit          3D

 31 33  0  0  1  0  0  0  0  0999 V2000
   36.6290   30.4360   46.8710 N   0  0  0  0  0  0  0  0  0  0  0  0
   35.7070   30.2220   45.7590 C   0  0  0  0  0  0  0  0  0  0  0  0
   36.3470   30.3950   44.4310 C   0  0  0  0  0  0  0  0  0  0  0  0
   37.7540   30.0900   44.5380 N   0  0  0  0  0  0  0  0  0  0  0  0
   38.3080   31.2360   45.2890 C   0  0  0  0  0  0  0  0  0  0  0  0
   37.9800   30.9440   46.7200 C   0  0  1  0  0  0  0  0  0  0  0  0
   37.0060   29.4510   49.0860 C   0  0  0  0  0  0  0  0  0  0  0  0
   36.1640   30.1240   48.1730 C   0  0  0  0  0  0  0  0  0  0  0  0
   34.8900   30.4550   48.6060 C   0  0  0  0  0  0  0  0  0  0  0  0
   34.5150   30.1170   49.8770 N   0  0  0  0  0  0  0  0  0  0  0  0
   35.3520   29.4750   50.7130 C   0  0  0  0  0  0  0  0  0  0  0  0
   36.5960   29.1330   50.3440 N   0  0  0  0  0  0  0  0  0  0  0  0
   38.2920   32.0670   47.6270 C   0  0  0  0  0  0  0  0  0  0  0  0
   39.2960   33.0120   47.5470 C   0  0  0  0  0  0  0  0  0  0  0  0
   39.2010   33.8550   48.6040 N   0  0  0  0  0  0  0  0  0  0  0  0
   38.1480   33.4460   49.3410 C   0  0  0  0  0  0  0  0  0  0  0  0
   37.6090   32.3860   48.7630 N   0  0  0  0  0  0  0  0  0  0  0  0
   35.3097   29.1984   45.8256 H   0  0  0  0  0  0  0  0  0  0  0  0
   34.9124   30.9782   45.8414 H   0  0  0  0  0  0  0  0  0  0  0  0
   36.2206   31.4346   44.0945 H   0  0  0  0  0  0  0  0  0  0  0  0
   35.8766   29.7174   43.7033 H   0  0  0  0  0  0  0  0  0  0  0  0
   37.9004   29.2095   45.0519 H   0  0  0  0  0  0  0  0  0  0  0  0
   39.3966   31.3041   45.1462 H   0  0  0  0  0  0  0  0  0  0  0  0
   37.8899   32.1963   44.9528 H   0  0  0  0  0  0  0  0  0  0  0  0
   38.6509   30.1326   47.0387 H   0  0  0  0  0  0  0  0  0  0  0  0
   38.0233   29.1758   48.7707 H   0  0  0  0  0  0  0  0  0  0  0  0
   34.1917   30.9810   47.9384 H   0  0  0  0  0  0  0  0  0  0  0  0
   35.0067   29.2237   51.7267 H   0  0  0  0  0  0  0  0  0  0  0  0
   40.0531   33.0711   46.7512 H   0  0  0  0  0  0  0  0  0  0  0  0
   39.8162   34.6560   48.8061 H   0  0  0  0  0  0  0  0  0  0  0  0
   37.7955   33.9170   50.2704 H   0  0  0  0  0  0  0  0  0  0  0  0
  1  8  1  0
  2  1  1  0
  3  4  1  0
  3  2  1  0
  4  5  1  0
  5  6  1  0
  6  1  1  0
  6 13  1  0
  7 12  2  0
  8  9  2  0
  8  7  1  0
  9 10  1  0
 10 11  2  0
 12 11  1  0
 13 17  1  0
 14 13  2  0
 14 15  1  0
 15 16  1  0
 17 16  2  0
  2 18  1  0
  2 19  1  0
  3 20  1  0
  3 21  1  0
  4 22  1  0
  5 23  1  0
  5 24  1  0
  6 25  1  1
  7 26  1  0
  9 27  1  0
 11 28  1  0
 14 29  1  0
 15 30  1  0
 16 31  1  0
M  ISO  8  18  13  19  13  20  13  21  13  22   5  23  13  24  13  25  13
M  ISO  6  26  14  27  14  28  14  29  14  30   9  31  14
M  END
>  <minimizedAffinity>  (1) 
-4.74592113

>  <minimizedRMSD>  (1) 
2.40402937

$$$$
