
     RDKit          3D

 34 36  0  0  1  0  0  0  0  0999 V2000
   38.2100   30.7980   44.0780 N   0  0  0  0  0  0  0  0  0  0  0  0
   38.7250   31.7570   43.0810 C   0  0  0  0  0  0  0  0  0  0  0  0
   40.1890   31.9220   43.1730 C   0  0  0  0  0  0  0  0  0  0  0  0
   40.7880   30.7170   43.6920 N   0  0  0  0  0  0  0  0  0  0  0  0
   40.4220   30.7110   45.1170 C   0  0  0  0  0  0  0  0  0  0  0  0
   38.9900   30.2630   45.1710 C   0  0  1  0  0  0  0  0  0  0  0  0
   40.0710   32.9600   46.0350 Cl  0  0  0  0  0  0  0  0  0  0  0  0
   38.8510   32.0470   46.9240 C   0  0  0  0  0  0  0  0  0  0  0  0
   38.4270   30.8170   46.4360 C   0  0  0  0  0  0  0  0  0  0  0  0
   37.4690   30.1570   47.1840 C   0  0  0  0  0  0  0  0  0  0  0  0
   36.9480   30.6730   48.3550 C   0  0  0  0  0  0  0  0  0  0  0  0
   37.3840   31.8980   48.8230 C   0  0  0  0  0  0  0  0  0  0  0  0
   36.6820   32.4900   50.3150 Cl  0  0  0  0  0  0  0  0  0  0  0  0
   38.3320   32.5620   48.0920 C   0  0  0  0  0  0  0  0  0  0  0  0
   36.5210   29.0200   43.7940 C   0  0  0  0  0  0  0  0  0  0  0  0
   36.8580   30.3700   43.9550 C   0  0  0  0  0  0  0  0  0  0  0  0
   35.8080   31.2800   43.9890 C   0  0  0  0  0  0  0  0  0  0  0  0
   34.5260   30.8200   43.8670 N   0  0  0  0  0  0  0  0  0  0  0  0
   34.2610   29.5010   43.7150 C   0  0  0  0  0  0  0  0  0  0  0  0
   35.2590   28.5750   43.6750 N   0  0  0  0  0  0  0  0  0  0  0  0
   38.2469   32.7334   43.2483 H   0  0  0  0  0  0  0  0  0  0  0  0
   38.4909   31.3638   42.0807 H   0  0  0  0  0  0  0  0  0  0  0  0
   40.5961   32.1298   42.1724 H   0  0  0  0  0  0  0  0  0  0  0  0
   40.4169   32.7594   43.8489 H   0  0  0  0  0  0  0  0  0  0  0  0
   40.4088   29.8867   43.2148 H   0  0  0  0  0  0  0  0  0  0  0  0
   41.0631   30.0119   45.6740 H   0  0  0  0  0  0  0  0  0  0  0  0
   40.5525   31.7039   45.5721 H   0  0  0  0  0  0  0  0  0  0  0  0
   38.9513   29.1653   45.1118 H   0  0  0  0  0  0  0  0  0  0  0  0
   37.1066   29.1800   46.8317 H   0  0  0  0  0  0  0  0  0  0  0  0
   36.1868   30.1092   48.9143 H   0  0  0  0  0  0  0  0  0  0  0  0
   38.6912   33.5386   48.4487 H   0  0  0  0  0  0  0  0  0  0  0  0
   37.3362   28.2821   43.7632 H   0  0  0  0  0  0  0  0  0  0  0  0
   36.0054   32.3551   44.1123 H   0  0  0  0  0  0  0  0  0  0  0  0
   33.2162   29.1698   43.6217 H   0  0  0  0  0  0  0  0  0  0  0  0
  1  6  1  0
  2  3  1  0
  2  1  1  0
  3  4  1  0
  4  5  1  0
  5  6  1  0
  6  9  1  0
  7  8  1  0
  8 14  2  0
  9  8  1  0
  9 10  2  0
 10 11  1  0
 11 12  2  0
 12 13  1  0
 14 12  1  0
 15 16  2  0
 16 17  1  0
 16  1  1  0
 18 17  2  0
 19 18  1  0
 20 19  2  0
 20 15  1  0
  2 21  1  0
  2 22  1  0
  3 23  1  0
  3 24  1  0
  4 25  1  0
  5 26  1  0
  5 27  1  0
  6 28  1  1
 10 29  1  0
 11 30  1  0
 14 31  1  0
 15 32  1  0
 17 33  1  0
 19 34  1  0
M  ISO  8  21  13  22  13  23  13  24  13  25   5  26  13  27  13  28  13
M  ISO  6  29  14  30  14  31  14  32  14  33  14  34  14
M  END
>  <minimizedAffinity>  (1) 
-4.6743865

>  <minimizedRMSD>  (1) 
5.15597582

$$$$
