
     RDKit          3D

 45 48  0  0  1  0  0  0  0  0999 V2000
   38.1190   29.5490   42.2790 N   0  0  0  0  0  0  0  0  0  0  0  0
   38.0740   29.5040   40.8390 C   0  0  0  0  0  0  0  0  0  0  0  0
   39.3420   28.9840   40.2500 C   0  0  0  0  0  0  0  0  0  0  0  0
   40.0290   28.1490   41.2040 N   0  0  0  0  0  0  0  0  0  0  0  0
   40.5110   29.0270   42.2740 C   0  0  0  0  0  0  0  0  0  0  0  0
   39.3320   29.3290   43.1310 C   0  0  1  0  0  0  0  0  0  0  0  0
   40.0510   31.7130   43.6520 C   0  0  0  0  0  0  0  0  0  0  0  0
   39.5560   30.4510   44.0550 C   0  0  0  0  0  0  0  0  0  0  0  0
   39.1980   30.2280   45.3610 C   0  0  0  0  0  0  0  0  0  0  0  0
   39.3280   31.2670   46.2470 C   0  0  0  0  0  0  0  0  0  0  0  0
   39.8310   32.5400   45.8330 C   0  0  0  0  0  0  0  0  0  0  0  0
   40.2110   32.7940   44.4960 C   0  0  0  0  0  0  0  0  0  0  0  0
   39.8770   33.4380   46.9270 O   0  0  0  0  0  0  0  0  0  0  0  0
   39.0680   32.8670   47.9080 C   0  0  0  0  0  0  0  0  0  0  0  0
   39.0740   31.4590   47.6020 O   0  0  0  0  0  0  0  0  0  0  0  0
   36.2890   28.7770   43.7400 C   0  0  0  0  0  0  0  0  0  0  0  0
   36.8920   29.8190   42.9750 C   0  0  0  0  0  0  0  0  0  0  0  0
   36.2790   31.0500   42.9630 C   0  0  0  0  0  0  0  0  0  0  0  0
   35.1170   31.2040   43.6940 N   0  0  0  0  0  0  0  0  0  0  0  0
   34.5880   30.2160   44.3950 C   0  0  0  0  0  0  0  0  0  0  0  0
   35.1470   29.0130   44.4310 N   0  0  0  0  0  0  0  0  0  0  0  0
   33.3910   30.4720   45.1180 N   0  0  0  0  0  0  0  0  0  0  0  0
   36.8220   32.0800   42.2370 O   0  0  0  0  0  0  0  0  0  0  0  0
   36.9230   34.4280   41.0400 O   0  0  0  0  0  0  0  0  0  0  0  0
   35.9650   33.4370   41.6980 P   0  0  0  0  0  0  0  0  0  0  0  0
   35.0530   34.1860   42.8980 O   0  0  0  0  0  0  0  0  0  0  0  0
   34.9100   32.9230   40.4600 O   0  0  0  0  0  0  0  0  0  0  0  0
   37.2459   28.8487   40.5311 H   0  0  0  0  0  0  0  0  0  0  0  0
   37.9295   30.5316   40.4741 H   0  0  0  0  0  0  0  0  0  0  0  0
   39.1098   28.3936   39.3514 H   0  0  0  0  0  0  0  0  0  0  0  0
   39.9891   29.8331   39.9849 H   0  0  0  0  0  0  0  0  0  0  0  0
   39.3824   27.4454   41.5883 H   0  0  0  0  0  0  0  0  0  0  0  0
   41.2890   28.5184   42.8623 H   0  0  0  0  0  0  0  0  0  0  0  0
   40.9544   29.9473   41.8661 H   0  0  0  0  0  0  0  0  0  0  0  0
   39.1644   28.4509   43.7720 H   0  0  0  0  0  0  0  0  0  0  0  0
   40.3271   31.8421   42.5951 H   0  0  0  0  0  0  0  0  0  0  0  0
   38.8192   29.2480   45.6866 H   0  0  0  0  0  0  0  0  0  0  0  0
   40.5995   33.7659   44.1578 H   0  0  0  0  0  0  0  0  0  0  0  0
   39.4835   33.0494   48.9100 H   0  0  0  0  0  0  0  0  0  0  0  0
   38.0529   33.2907   47.9135 H   0  0  0  0  0  0  0  0  0  0  0  0
   36.7518   27.7795   43.7693 H   0  0  0  0  0  0  0  0  0  0  0  0
   32.9546   29.7225   45.6736 H   0  0  0  0  0  0  0  0  0  0  0  0
   32.9601   31.4070   45.0862 H   0  0  0  0  0  0  0  0  0  0  0  0
   35.3885   33.9105   43.7878 H   0  0  0  0  0  0  0  0  0  0  0  0
   34.0969   32.5269   40.8626 H   0  0  0  0  0  0  0  0  0  0  0  0
  1 17  1  0
  1  6  1  0
  2  1  1  0
  3  2  1  0
  3  4  1  0
  4  5  1  0
  5  6  1  0
  6  8  1  0
  7  8  2  0
  7 12  1  0
  8  9  1  0
  9 10  2  0
 10 15  1  0
 11 10  1  0
 11 13  1  0
 12 11  2  0
 13 14  1  0
 15 14  1  0
 16 21  2  0
 17 16  1  0
 18 17  2  0
 18 19  1  0
 19 20  2  0
 20 21  1  0
 20 22  1  0
 23 18  1  0
 24 25  2  0
 25 23  1  0
 25 26  1  0
 27 25  1  0
  2 28  1  0
  2 29  1  0
  3 30  1  0
  3 31  1  0
  4 32  1  0
  5 33  1  0
  5 34  1  0
  6 35  1  1
  7 36  1  0
  9 37  1  0
 12 38  1  0
 14 39  1  0
 14 40  1  0
 16 41  1  0
 22 42  1  0
 22 43  1  0
 26 44  1  0
 27 45  1  0
M  ISO  8  28  13  29  13  30  13  31  13  32   5  33  13  34  13  35  13
M  ISO  8  36  14  37  14  38  14  39  13  40  13  41  14  44   3  45   3
M  END
>  <minimizedAffinity>  (1) 
-4.96238852

>  <minimizedRMSD>  (1) 
5.29009581

$$$$
