
     RDKit          3D

 24 26  0  0  0  0  0  0  0  0999 V2000
   37.7450   31.1440   48.1020 C   0  0  0  0  0  0  0  0  0  0  0  0
   37.1490   30.9860   46.8700 C   0  0  0  0  0  0  0  0  0  0  0  0
   37.9160   31.6840   45.9390 C   0  0  0  0  0  0  0  0  0  0  0  0
   38.9330   32.2310   46.6290 N   0  0  0  0  0  0  0  0  0  0  0  0
   38.8470   31.9150   47.9430 N   0  0  0  0  0  0  0  0  0  0  0  0
   37.2360   30.0370   51.6610 C   0  0  0  0  0  0  0  0  0  0  0  0
   37.8410   30.6510   50.5660 C   0  0  0  0  0  0  0  0  0  0  0  0
   37.2070   30.5440   49.3190 C   0  0  0  0  0  0  0  0  0  0  0  0
   36.0250   29.8400   49.2430 N   0  0  0  0  0  0  0  0  0  0  0  0
   35.4740   29.2580   50.3430 C   0  0  0  0  0  0  0  0  0  0  0  0
   36.0720   29.3530   51.5410 N   0  0  0  0  0  0  0  0  0  0  0  0
   39.9860   33.0450   46.0820 C   0  0  0  0  0  0  0  0  0  0  0  0
   40.9580   32.4800   45.1320 C   0  0  0  0  0  0  0  0  0  0  0  0
   39.9120   33.3760   44.5690 C   0  0  0  0  0  0  0  0  0  0  0  0
   36.2339   30.4130   46.6594 H   0  0  0  0  0  0  0  0  0  0  0  0
   37.7279   31.7702   44.8586 H   0  0  0  0  0  0  0  0  0  0  0  0
   37.7155   30.1093   52.6483 H   0  0  0  0  0  0  0  0  0  0  0  0
   38.7864   31.2025   50.6760 H   0  0  0  0  0  0  0  0  0  0  0  0
   34.5284   28.7038   50.2493 H   0  0  0  0  0  0  0  0  0  0  0  0
   40.0765   33.6042   47.0249 H   0  0  0  0  0  0  0  0  0  0  0  0
   42.0036   32.8205   45.1611 H   0  0  0  0  0  0  0  0  0  0  0  0
   41.2845   31.4555   44.8999 H   0  0  0  0  0  0  0  0  0  0  0  0
   40.1769   34.3801   44.2062 H   0  0  0  0  0  0  0  0  0  0  0  0
   39.1487   33.3012   43.7805 H   0  0  0  0  0  0  0  0  0  0  0  0
  1  8  1  0
  2  1  1  0
  3  4  1  0
  3  2  2  0
  4  5  1  0
  5  1  2  0
  7  6  2  0
  8  7  1  0
  9  8  2  0
  9 10  1  0
 10 11  2  0
 11  6  1  0
 12  4  1  0
 13 12  1  0
 14 13  1  0
 14 12  1  0
  2 15  1  0
  3 16  1  0
  6 17  1  0
  7 18  1  0
 10 19  1  0
 12 20  1  0
 13 21  1  0
 13 22  1  0
 14 23  1  0
 14 24  1  0
M  ISO  8  15  14  16  14  17  14  18  14  19  14  20  13  21  13  22  13
M  ISO  2  23  13  24  13
M  END
>  <minimizedAffinity>  (1) 
-5.19163752

>  <minimizedRMSD>  (1) 
1.6518985

$$$$
