
     RDKit          3D

 23 24  0  0  0  0  0  0  0  0999 V2000
   37.9090   31.2700   47.9960 C   0  0  0  0  0  0  0  0  0  0  0  0
   37.3630   31.1140   46.7470 C   0  0  0  0  0  0  0  0  0  0  0  0
   38.1160   31.8440   45.8370 C   0  0  0  0  0  0  0  0  0  0  0  0
   39.1040   32.4230   46.5750 N   0  0  0  0  0  0  0  0  0  0  0  0
   38.9730   32.0770   47.8570 N   0  0  0  0  0  0  0  0  0  0  0  0
   37.2960   30.1160   51.5270 C   0  0  0  0  0  0  0  0  0  0  0  0
   37.9110   30.7730   50.4590 C   0  0  0  0  0  0  0  0  0  0  0  0
   37.3520   30.6330   49.1740 C   0  0  0  0  0  0  0  0  0  0  0  0
   36.2350   29.8560   49.0560 N   0  0  0  0  0  0  0  0  0  0  0  0
   35.6720   29.2350   50.1260 C   0  0  0  0  0  0  0  0  0  0  0  0
   36.2020   29.3680   51.3480 N   0  0  0  0  0  0  0  0  0  0  0  0
   40.1330   33.2910   45.9940 C   0  0  0  0  0  0  0  0  0  0  0  0
   39.9180   33.4000   44.4990 C   0  0  0  0  0  0  0  0  0  0  0  0
   36.4754   30.5104   46.5063 H   0  0  0  0  0  0  0  0  0  0  0  0
   37.9504   31.9352   44.7534 H   0  0  0  0  0  0  0  0  0  0  0  0
   37.7205   30.2159   52.5369 H   0  0  0  0  0  0  0  0  0  0  0  0
   38.8109   31.3854   50.6178 H   0  0  0  0  0  0  0  0  0  0  0  0
   34.7725   28.6174   49.9865 H   0  0  0  0  0  0  0  0  0  0  0  0
   40.0676   34.2910   46.4475 H   0  0  0  0  0  0  0  0  0  0  0  0
   41.1270   32.8628   46.1907 H   0  0  0  0  0  0  0  0  0  0  0  0
   38.9527   33.8894   44.3021 H   0  0  0  0  0  0  0  0  0  0  0  0
   40.7287   33.9960   44.0545 H   0  0  0  0  0  0  0  0  0  0  0  0
   39.9164   32.3938   44.0545 H   0  0  0  0  0  0  0  0  0  0  0  0
  1  8  1  0
  2  1  1  0
  3  4  1  0
  3  2  2  0
  4  5  1  0
  5  1  2  0
  7  6  2  0
  8  7  1  0
  9  8  2  0
  9 10  1  0
 10 11  2  0
 11  6  1  0
 12  4  1  0
 13 12  1  0
  2 14  1  0
  3 15  1  0
  6 16  1  0
  7 17  1  0
 10 18  1  0
 12 19  1  0
 12 20  1  0
 13 21  1  0
 13 22  1  0
 13 23  1  0
M  ISO  8  14  14  15  14  16  14  17  14  18  14  19   8  20   8  21   8
M  ISO  2  22   8  23   8
M  END
>  <minimizedAffinity>  (1) 
-4.78650999

>  <minimizedRMSD>  (1) 
1.34140968

$$$$
