
     RDKit          3D

 39 42  0  0  0  0  0  0  0  0999 V2000
   39.7390   32.8470   45.6730 C   0  0  0  0  0  0  0  0  0  0  0  0
   37.6770   31.0410   47.9920 C   0  0  0  0  0  0  0  0  0  0  0  0
   37.0200   30.8110   46.8100 C   0  0  0  0  0  0  0  0  0  0  0  0
   37.7100   31.4590   45.7920 C   0  0  0  0  0  0  0  0  0  0  0  0
   38.7580   32.0550   46.3990 N   0  0  0  0  0  0  0  0  0  0  0  0
   38.7400   31.8070   47.7080 N   0  0  0  0  0  0  0  0  0  0  0  0
   37.3530   30.1000   51.6250 C   0  0  0  0  0  0  0  0  0  0  0  0
   37.8960   30.6650   50.4770 C   0  0  0  0  0  0  0  0  0  0  0  0
   37.2210   30.5040   49.2640 C   0  0  0  0  0  0  0  0  0  0  0  0
   36.0660   29.7920   49.3130 N   0  0  0  0  0  0  0  0  0  0  0  0
   35.5620   29.2540   50.4440 C   0  0  0  0  0  0  0  0  0  0  0  0
   36.2150   29.4140   51.6000 N   0  0  0  0  0  0  0  0  0  0  0  0
   40.5910   31.9400   44.7890 C   0  0  0  0  0  0  0  0  0  0  0  0
   40.1160   31.9640   43.3840 C   0  0  0  0  0  0  0  0  0  0  0  0
   39.3710   33.0780   42.9780 C   0  0  0  0  0  0  0  0  0  0  0  0
   38.8630   33.2920   41.7130 C   0  0  0  0  0  0  0  0  0  0  0  0
   39.1120   32.3180   40.7660 C   0  0  0  0  0  0  0  0  0  0  0  0
   39.8500   31.1970   41.1390 C   0  0  0  0  0  0  0  0  0  0  0  0
   40.0780   30.2370   40.1690 C   0  0  0  0  0  0  0  0  0  0  0  0
   40.8140   29.1160   40.5590 C   0  0  0  0  0  0  0  0  0  0  0  0
   41.2940   28.9530   41.8260 C   0  0  0  0  0  0  0  0  0  0  0  0
   41.0620   29.9190   42.7940 C   0  0  0  0  0  0  0  0  0  0  0  0
   40.3470   31.0110   42.4160 C   0  0  0  0  0  0  0  0  0  0  0  0
   39.2186   33.5843   45.0440 H   0  0  0  0  0  0  0  0  0  0  0  0
   40.3899   33.3644   46.3932 H   0  0  0  0  0  0  0  0  0  0  0  0
   36.1033   30.2153   46.6884 H   0  0  0  0  0  0  0  0  0  0  0  0
   37.4565   31.4813   44.7218 H   0  0  0  0  0  0  0  0  0  0  0  0
   37.8806   30.2243   52.5822 H   0  0  0  0  0  0  0  0  0  0  0  0
   38.8396   31.2285   50.5224 H   0  0  0  0  0  0  0  0  0  0  0  0
   34.6197   28.6873   50.4148 H   0  0  0  0  0  0  0  0  0  0  0  0
   41.6350   32.2849   44.8211 H   0  0  0  0  0  0  0  0  0  0  0  0
   40.5121   30.9099   45.1668 H   0  0  0  0  0  0  0  0  0  0  0  0
   39.1731   33.8513   43.7348 H   0  0  0  0  0  0  0  0  0  0  0  0
   38.2863   34.1966   41.4700 H   0  0  0  0  0  0  0  0  0  0  0  0
   38.7352   32.4253   39.7381 H   0  0  0  0  0  0  0  0  0  0  0  0
   39.6988   30.3510   39.1427 H   0  0  0  0  0  0  0  0  0  0  0  0
   41.0151   28.3320   39.8141 H   0  0  0  0  0  0  0  0  0  0  0  0
   41.8683   28.0502   42.0812 H   0  0  0  0  0  0  0  0  0  0  0  0
   41.4396   29.8062   43.8210 H   0  0  0  0  0  0  0  0  0  0  0  0
  1  5  1  0
  2  9  1  0
  3  2  1  0
  4  5  1  0
  4  3  2  0
  5  6  1  0
  6  2  2  0
  8  7  2  0
  9 10  2  0
  9  8  1  0
 10 11  1  0
 11 12  2  0
 12  7  1  0
 13  1  1  0
 14 13  1  0
 15 14  2  0
 16 15  1  0
 17 18  1  0
 17 16  2  0
 18 23  2  0
 19 20  2  0
 19 18  1  0
 20 21  1  0
 21 22  2  0
 23 22  1  0
 23 14  1  0
  1 24  1  0
  1 25  1  0
  3 26  1  0
  4 27  1  0
  7 28  1  0
  8 29  1  0
 11 30  1  0
 13 31  1  0
 13 32  1  0
 15 33  1  0
 16 34  1  0
 17 35  1  0
 19 36  1  0
 20 37  1  0
 21 38  1  0
 22 39  1  0
M  ISO  8  24   8  25   8  26  14  27  14  28  14  29  14  30  14  31   8
M  ISO  8  32   8  33  14  34  14  35  14  36  14  37  14  38  14  39  14
M  END
>  <minimizedAffinity>  (1) 
-6.12994814

>  <minimizedRMSD>  (1) 
3.6740346

$$$$
