
     RDKit          3D

 33 35  0  0  0  0  0  0  0  0999 V2000
   37.7360   31.1670   48.1970 C   0  0  0  0  0  0  0  0  0  0  0  0
   37.1320   31.0150   46.9720 C   0  0  0  0  0  0  0  0  0  0  0  0
   37.8760   31.7160   46.0330 C   0  0  0  0  0  0  0  0  0  0  0  0
   38.9160   32.2790   46.7220 N   0  0  0  0  0  0  0  0  0  0  0  0
   38.8220   31.9440   48.0160 N   0  0  0  0  0  0  0  0  0  0  0  0
   37.2580   29.9950   51.7280 C   0  0  0  0  0  0  0  0  0  0  0  0
   37.8570   30.6170   50.6410 C   0  0  0  0  0  0  0  0  0  0  0  0
   37.2030   30.5540   49.4000 C   0  0  0  0  0  0  0  0  0  0  0  0
   36.0210   29.8830   49.3530 N   0  0  0  0  0  0  0  0  0  0  0  0
   35.4700   29.2870   50.4420 C   0  0  0  0  0  0  0  0  0  0  0  0
   36.0890   29.3470   51.6170 N   0  0  0  0  0  0  0  0  0  0  0  0
   39.9300   33.1030   46.0750 C   0  0  0  0  0  0  0  0  0  0  0  0
   40.8810   32.2220   45.3070 C   0  0  0  0  0  0  0  0  0  0  0  0
   40.3510   32.0110   43.9340 C   0  0  0  0  0  0  0  0  0  0  0  0
   39.6640   33.0260   43.2840 C   0  0  0  0  0  0  0  0  0  0  0  0
   39.1750   32.8100   41.9960 C   0  0  0  0  0  0  0  0  0  0  0  0
   39.3500   31.6120   41.3380 C   0  0  0  0  0  0  0  0  0  0  0  0
   40.0410   30.5980   42.0000 C   0  0  0  0  0  0  0  0  0  0  0  0
   40.5330   30.8000   43.2810 C   0  0  0  0  0  0  0  0  0  0  0  0
   36.2175   30.4379   46.7705 H   0  0  0  0  0  0  0  0  0  0  0  0
   37.6716   31.8015   44.9556 H   0  0  0  0  0  0  0  0  0  0  0  0
   37.7562   30.0347   52.7079 H   0  0  0  0  0  0  0  0  0  0  0  0
   38.8165   31.1441   50.7488 H   0  0  0  0  0  0  0  0  0  0  0  0
   34.5116   28.7547   50.3518 H   0  0  0  0  0  0  0  0  0  0  0  0
   39.4436   33.8070   45.3838 H   0  0  0  0  0  0  0  0  0  0  0  0
   40.4876   33.6642   46.8393 H   0  0  0  0  0  0  0  0  0  0  0  0
   41.8670   32.7064   45.2504 H   0  0  0  0  0  0  0  0  0  0  0  0
   40.9812   31.2528   45.8176 H   0  0  0  0  0  0  0  0  0  0  0  0
   39.5061   33.9945   43.7811 H   0  0  0  0  0  0  0  0  0  0  0  0
   38.6324   33.6217   41.4893 H   0  0  0  0  0  0  0  0  0  0  0  0
   38.9567   31.4604   40.3220 H   0  0  0  0  0  0  0  0  0  0  0  0
   40.1973   29.6296   41.5022 H   0  0  0  0  0  0  0  0  0  0  0  0
   41.0757   29.9880   43.7871 H   0  0  0  0  0  0  0  0  0  0  0  0
  1  8  1  0
  2  1  1  0
  3  4  1  0
  3  2  2  0
  4  5  1  0
  5  1  2  0
  7  6  2  0
  8  7  1  0
  9  8  2  0
  9 10  1  0
 10 11  2  0
 11  6  1  0
 12  4  1  0
 13 12  1  0
 14 13  1  0
 15 14  2  0
 16 15  1  0
 17 16  2  0
 17 18  1  0
 18 19  2  0
 19 14  1  0
  2 20  1  0
  3 21  1  0
  6 22  1  0
  7 23  1  0
 10 24  1  0
 12 25  1  0
 12 26  1  0
 13 27  1  0
 13 28  1  0
 15 29  1  0
 16 30  1  0
 17 31  1  0
 18 32  1  0
 19 33  1  0
M  ISO  8  20  14  21  14  22  14  23  14  24  14  25   8  26   8  27   8
M  ISO  6  28   8  29  14  30  14  31  14  32  14  33  14
M  END
>  <minimizedAffinity>  (1) 
-5.62193346

>  <minimizedRMSD>  (1) 
2.55995822

$$$$
