
     RDKit          3D

 31 33  0  0  0  0  0  0  0  0999 V2000
   37.7320   31.1130   48.1390 C   0  0  0  0  0  0  0  0  0  0  0  0
   37.1120   30.9500   46.9360 C   0  0  0  0  0  0  0  0  0  0  0  0
   37.8210   31.6080   45.9500 C   0  0  0  0  0  0  0  0  0  0  0  0
   38.8830   32.1660   46.6180 N   0  0  0  0  0  0  0  0  0  0  0  0
   38.8120   31.8610   47.9130 N   0  0  0  0  0  0  0  0  0  0  0  0
   37.2730   30.0230   51.7100 C   0  0  0  0  0  0  0  0  0  0  0  0
   37.8550   30.6180   50.5970 C   0  0  0  0  0  0  0  0  0  0  0  0
   37.2040   30.5260   49.3550 C   0  0  0  0  0  0  0  0  0  0  0  0
   36.0280   29.8490   49.3370 N   0  0  0  0  0  0  0  0  0  0  0  0
   35.4880   29.2800   50.4460 C   0  0  0  0  0  0  0  0  0  0  0  0
   36.1120   29.3710   51.6160 N   0  0  0  0  0  0  0  0  0  0  0  0
   39.9350   32.9760   45.9840 C   0  0  0  0  0  0  0  0  0  0  0  0
   40.7590   32.0500   45.0950 C   0  0  0  0  0  0  0  0  0  0  0  0
   40.2240   32.0330   43.7120 C   0  0  0  0  0  0  0  0  0  0  0  0
   40.4020   30.9140   42.9070 C   0  0  0  0  0  0  0  0  0  0  0  0
   39.8680   30.9890   41.6300 C   0  0  0  0  0  0  0  0  0  0  0  0
   39.2210   32.0920   41.2150 N   0  0  0  0  0  0  0  0  0  0  0  0
   39.0540   33.1670   41.9990 C   0  0  0  0  0  0  0  0  0  0  0  0
   39.5660   33.1120   43.2430 N   0  0  0  0  0  0  0  0  0  0  0  0
   36.1854   30.3796   46.7746 H   0  0  0  0  0  0  0  0  0  0  0  0
   37.5884   31.6706   44.8767 H   0  0  0  0  0  0  0  0  0  0  0  0
   37.7777   30.0905   52.6850 H   0  0  0  0  0  0  0  0  0  0  0  0
   38.8117   31.1534   50.6870 H   0  0  0  0  0  0  0  0  0  0  0  0
   34.5311   28.7421   50.3755 H   0  0  0  0  0  0  0  0  0  0  0  0
   39.4801   33.7721   45.3763 H   0  0  0  0  0  0  0  0  0  0  0  0
   40.5726   33.4461   46.7472 H   0  0  0  0  0  0  0  0  0  0  0  0
   41.8006   32.4030   45.0743 H   0  0  0  0  0  0  0  0  0  0  0  0
   40.7079   31.0306   45.5050 H   0  0  0  0  0  0  0  0  0  0  0  0
   40.9358   30.0204   43.2627 H   0  0  0  0  0  0  0  0  0  0  0  0
   39.9752   30.1338   40.9465 H   0  0  0  0  0  0  0  0  0  0  0  0
   38.5196   34.0589   41.6398 H   0  0  0  0  0  0  0  0  0  0  0  0
  1  8  1  0
  2  1  1  0
  3  4  1  0
  3  2  2  0
  4  5  1  0
  5  1  2  0
  7  6  2  0
  8  7  1  0
  9  8  2  0
  9 10  1  0
 10 11  2  0
 11  6  1  0
 12  4  1  0
 13 12  1  0
 14 13  1  0
 15 14  2  0
 16 15  1  0
 17 16  2  0
 17 18  1  0
 18 19  2  0
 19 14  1  0
  2 20  1  0
  3 21  1  0
  6 22  1  0
  7 23  1  0
 10 24  1  0
 12 25  1  0
 12 26  1  0
 13 27  1  0
 13 28  1  0
 15 29  1  0
 16 30  1  0
 18 31  1  0
M  ISO  8  20  14  21  14  22  14  23  14  24  14  25   8  26   8  27   8
M  ISO  4  28   8  29  14  30  14  31  14
M  END
>  <minimizedAffinity>  (1) 
-5.53406191

>  <minimizedRMSD>  (1) 
2.42539406

$$$$
