
     RDKit          3D

 24 25  0  0  0  0  0  0  0  0999 V2000
   37.8630   31.1730   48.0190 C   0  0  0  0  0  0  0  0  0  0  0  0
   37.2960   31.0280   46.7810 C   0  0  0  0  0  0  0  0  0  0  0  0
   38.0580   31.7080   45.8520 C   0  0  0  0  0  0  0  0  0  0  0  0
   39.0860   32.2580   46.5730 N   0  0  0  0  0  0  0  0  0  0  0  0
   38.9640   31.9370   47.8560 N   0  0  0  0  0  0  0  0  0  0  0  0
   37.2520   30.0790   51.5580 C   0  0  0  0  0  0  0  0  0  0  0  0
   37.8890   30.7010   50.4860 C   0  0  0  0  0  0  0  0  0  0  0  0
   37.2990   30.5720   49.2230 C   0  0  0  0  0  0  0  0  0  0  0  0
   36.1410   29.8510   49.1100 N   0  0  0  0  0  0  0  0  0  0  0  0
   35.5670   29.2670   50.2000 C   0  0  0  0  0  0  0  0  0  0  0  0
   36.1260   29.3850   51.4140 N   0  0  0  0  0  0  0  0  0  0  0  0
   40.1460   33.0770   45.9670 C   0  0  0  0  0  0  0  0  0  0  0  0
   39.8950   33.1770   44.4680 C   0  0  0  0  0  0  0  0  0  0  0  0
   40.1650   34.4890   44.1160 O   0  0  0  0  0  0  0  0  0  0  0  0
   36.3797   30.4603   46.5617 H   0  0  0  0  0  0  0  0  0  0  0  0
   37.8793   31.7904   44.7698 H   0  0  0  0  0  0  0  0  0  0  0  0
   37.6966   30.1650   52.5605 H   0  0  0  0  0  0  0  0  0  0  0  0
   38.8191   31.2711   50.6267 H   0  0  0  0  0  0  0  0  0  0  0  0
   34.6359   28.6931   50.0830 H   0  0  0  0  0  0  0  0  0  0  0  0
   40.1349   34.0832   46.4113 H   0  0  0  0  0  0  0  0  0  0  0  0
   41.1265   32.6136   46.1509 H   0  0  0  0  0  0  0  0  0  0  0  0
   40.5612   32.4916   43.9236 H   0  0  0  0  0  0  0  0  0  0  0  0
   38.8607   32.8999   44.2162 H   0  0  0  0  0  0  0  0  0  0  0  0
   40.2771   35.0340   44.9349 H   0  0  0  0  0  0  0  0  0  0  0  0
  1  8  1  0
  2  1  1  0
  3  4  1  0
  3  2  2  0
  4  5  1  0
  5  1  2  0
  7  6  2  0
  8  7  1  0
  9  8  2  0
  9 10  1  0
 10 11  2  0
 11  6  1  0
 12  4  1  0
 13 12  1  0
 14 13  1  0
  2 15  1  0
  3 16  1  0
  6 17  1  0
  7 18  1  0
 10 19  1  0
 12 20  1  0
 12 21  1  0
 13 22  1  0
 13 23  1  0
 14 24  1  0
M  ISO  8  15  14  16  14  17  14  18  14  19  14  20   8  21   8  22   8
M  ISO  2  23   8  24   3
M  END
>  <minimizedAffinity>  (1) 
-4.52647448

>  <minimizedRMSD>  (1) 
0.230022043

$$$$
