
     RDKit          3D

 46 49  0  0  1  0  0  0  0  0999 V2000
   40.0410   31.8950   43.0420 N   0  0  0  0  0  0  0  0  0  0  0  0
   39.3600   33.0940   42.7370 C   0  0  0  0  0  0  0  0  0  0  0  0
   37.9610   32.9700   42.2710 C   0  0  0  0  0  0  0  0  0  0  0  0
   37.7720   31.8730   41.4340 O   0  0  0  0  0  0  0  0  0  0  0  0
   38.1660   30.7200   42.0220 C   0  0  0  0  0  0  0  0  0  0  0  0
   39.6330   30.7590   42.3500 C   0  0  1  0  0  0  0  0  0  0  0  0
   39.9940   27.6610   42.4770 Cl  0  0  0  0  0  0  0  0  0  0  0  0
   40.6710   28.7140   41.2940 C   0  0  0  0  0  0  0  0  0  0  0  0
   40.4560   30.0750   41.3650 C   0  0  0  0  0  0  0  0  0  0  0  0
   41.1350   30.7210   40.3100 C   0  0  0  0  0  0  0  0  0  0  0  0
   41.9110   30.1530   39.3240 C   0  0  0  0  0  0  0  0  0  0  0  0
   42.0540   28.7840   39.3530 C   0  0  0  0  0  0  0  0  0  0  0  0
   43.0320   28.0570   38.1110 Cl  0  0  0  0  0  0  0  0  0  0  0  0
   41.4330   28.0750   40.3370 C   0  0  0  0  0  0  0  0  0  0  0  0
   40.4380   31.7450   44.3990 C   0  0  0  0  0  0  0  0  0  0  0  0
   39.8520   32.5990   45.4160 C   0  0  0  0  0  0  0  0  0  0  0  0
   37.7590   30.9610   47.8240 C   0  0  0  0  0  0  0  0  0  0  0  0
   37.0000   30.8070   46.6800 C   0  0  0  0  0  0  0  0  0  0  0  0
   37.7130   31.4080   45.6340 C   0  0  0  0  0  0  0  0  0  0  0  0
   38.8310   31.8820   46.1760 N   0  0  0  0  0  0  0  0  0  0  0  0
   38.8540   31.6130   47.4810 N   0  0  0  0  0  0  0  0  0  0  0  0
   37.4370   30.2110   51.4950 C   0  0  0  0  0  0  0  0  0  0  0  0
   37.9520   30.7530   50.3110 C   0  0  0  0  0  0  0  0  0  0  0  0
   37.3330   30.4630   49.1080 C   0  0  0  0  0  0  0  0  0  0  0  0
   36.2430   29.6500   49.1920 N   0  0  0  0  0  0  0  0  0  0  0  0
   35.7620   29.1380   50.3400 C   0  0  0  0  0  0  0  0  0  0  0  0
   36.3700   29.4290   51.4860 N   0  0  0  0  0  0  0  0  0  0  0  0
   39.3536   33.7130   43.6463 H   0  0  0  0  0  0  0  0  0  0  0  0
   39.9079   33.5264   41.8868 H   0  0  0  0  0  0  0  0  0  0  0  0
   37.3056   32.8616   43.1478 H   0  0  0  0  0  0  0  0  0  0  0  0
   37.7197   33.8752   41.6945 H   0  0  0  0  0  0  0  0  0  0  0  0
   37.5932   30.5748   42.9498 H   0  0  0  0  0  0  0  0  0  0  0  0
   37.9838   29.8895   41.3241 H   0  0  0  0  0  0  0  0  0  0  0  0
   39.8775   30.0866   43.1855 H   0  0  0  0  0  0  0  0  0  0  0  0
   41.0316   31.8154   40.2701 H   0  0  0  0  0  0  0  0  0  0  0  0
   42.3945   30.7653   38.5486 H   0  0  0  0  0  0  0  0  0  0  0  0
   41.5402   26.9807   40.3690 H   0  0  0  0  0  0  0  0  0  0  0  0
   40.2127   30.7070   44.6849 H   0  0  0  0  0  0  0  0  0  0  0  0
   41.4968   32.0430   44.3917 H   0  0  0  0  0  0  0  0  0  0  0  0
   40.6426   32.9348   46.1032 H   0  0  0  0  0  0  0  0  0  0  0  0
   39.3804   33.4608   44.9212 H   0  0  0  0  0  0  0  0  0  0  0  0
   36.0226   30.3079   46.6046 H   0  0  0  0  0  0  0  0  0  0  0  0
   37.4095   31.4742   44.5788 H   0  0  0  0  0  0  0  0  0  0  0  0
   37.9294   30.4400   52.4516 H   0  0  0  0  0  0  0  0  0  0  0  0
   38.8394   31.4025   50.3370 H   0  0  0  0  0  0  0  0  0  0  0  0
   34.8760   28.4862   50.3302 H   0  0  0  0  0  0  0  0  0  0  0  0
  1 15  1  0
  2  1  1  0
  3  2  1  0
  4  5  1  0
  4  3  1  0
  5  6  1  0
  6  1  1  0
  8  9  2  0
  8  7  1  0
  9  6  1  0
 10  9  1  0
 11 12  1  0
 11 10  2  0
 12 14  2  0
 13 12  1  0
 14  8  1  0
 15 16  1  0
 16 20  1  0
 17 24  1  0
 18 17  1  0
 19 20  1  0
 19 18  2  0
 20 21  1  0
 21 17  2  0
 23 22  2  0
 24 25  2  0
 24 23  1  0
 25 26  1  0
 26 27  2  0
 27 22  1  0
  2 28  1  0
  2 29  1  0
  3 30  1  0
  3 31  1  0
  5 32  1  0
  5 33  1  0
  6 34  1  1
 10 35  1  0
 11 36  1  0
 14 37  1  0
 15 38  1  0
 15 39  1  0
 16 40  1  0
 16 41  1  0
 18 42  1  0
 19 43  1  0
 22 44  1  0
 23 45  1  0
 26 46  1  0
M  ISO  8  28  13  29  13  30  13  31  13  32  13  33  13  34  13  35  14
M  ISO  8  36  14  37  14  38   8  39   8  40   8  41   8  42  14  43  14
M  ISO  3  44  14  45  14  46  14
M  END
>  <minimizedAffinity>  (1) 
-6.0126605

>  <minimizedRMSD>  (1) 
1.10420644

$$$$
