
     RDKit          3D

 39 41  0  0  1  0  0  0  0  0999 V2000
   40.4550   31.8700   44.3340 C   0  0  0  0  0  0  0  0  0  0  0  0
   40.0400   32.0060   43.0150 N   0  0  0  0  0  0  0  0  0  0  0  0
   39.3260   33.1790   42.6950 C   0  0  0  0  0  0  0  0  0  0  0  0
   37.9360   32.9960   42.2040 C   0  0  0  0  0  0  0  0  0  0  0  0
   37.8220   31.9290   41.3080 O   0  0  0  0  0  0  0  0  0  0  0  0
   38.3310   30.7880   41.8420 C   0  0  0  0  0  0  0  0  0  0  0  0
   39.7860   30.9440   42.1730 C   0  0  2  0  0  0  0  0  0  0  0  0
   40.3080   29.5850   42.5260 C   0  0  0  0  0  0  0  0  0  0  0  0
   39.9360   28.7740   41.4320 F   0  0  0  0  0  0  0  0  0  0  0  0
   39.6390   28.9890   43.5900 F   0  0  0  0  0  0  0  0  0  0  0  0
   41.6680   29.4910   42.6080 F   0  0  0  0  0  0  0  0  0  0  0  0
   39.8190   32.6990   45.3580 C   0  0  0  0  0  0  0  0  0  0  0  0
   37.7640   30.9740   47.7420 C   0  0  0  0  0  0  0  0  0  0  0  0
   37.0510   30.7500   46.5800 C   0  0  0  0  0  0  0  0  0  0  0  0
   37.7550   31.3790   45.5450 C   0  0  0  0  0  0  0  0  0  0  0  0
   38.8250   31.9370   46.1080 N   0  0  0  0  0  0  0  0  0  0  0  0
   38.8270   31.6930   47.4110 N   0  0  0  0  0  0  0  0  0  0  0  0
   37.4460   30.2120   51.4010 C   0  0  0  0  0  0  0  0  0  0  0  0
   37.9540   30.7450   50.2320 C   0  0  0  0  0  0  0  0  0  0  0  0
   37.3300   30.4680   49.0250 C   0  0  0  0  0  0  0  0  0  0  0  0
   36.2390   29.6740   49.0970 N   0  0  0  0  0  0  0  0  0  0  0  0
   35.7490   29.1550   50.2530 C   0  0  0  0  0  0  0  0  0  0  0  0
   36.3580   29.4300   51.3940 N   0  0  0  0  0  0  0  0  0  0  0  0
   41.5319   32.0927   44.3595 H   0  0  0  0  0  0  0  0  0  0  0  0
   40.1642   30.8435   44.6018 H   0  0  0  0  0  0  0  0  0  0  0  0
   39.2811   33.8006   43.6014 H   0  0  0  0  0  0  0  0  0  0  0  0
   39.8735   33.6332   41.8560 H   0  0  0  0  0  0  0  0  0  0  0  0
   37.2795   32.8050   43.0657 H   0  0  0  0  0  0  0  0  0  0  0  0
   37.6458   33.9133   41.6708 H   0  0  0  0  0  0  0  0  0  0  0  0
   37.7783   30.5448   42.7614 H   0  0  0  0  0  0  0  0  0  0  0  0
   38.2275   29.9813   41.1014 H   0  0  0  0  0  0  0  0  0  0  0  0
   40.3868   31.2752   41.3131 H   0  0  0  0  0  0  0  0  0  0  0  0
   40.5891   33.0662   46.0523 H   0  0  0  0  0  0  0  0  0  0  0  0
   39.3130   33.5404   44.8619 H   0  0  0  0  0  0  0  0  0  0  0  0
   36.1112   30.1862   46.4857 H   0  0  0  0  0  0  0  0  0  0  0  0
   37.4792   31.4065   44.4805 H   0  0  0  0  0  0  0  0  0  0  0  0
   37.9445   30.4339   52.3561 H   0  0  0  0  0  0  0  0  0  0  0  0
   38.8481   31.3853   50.2585 H   0  0  0  0  0  0  0  0  0  0  0  0
   34.8557   28.5132   50.2399 H   0  0  0  0  0  0  0  0  0  0  0  0
  1 12  1  0
  2  1  1  0
  3  2  1  0
  4  3  1  0
  5  6  1  0
  5  4  1  0
  6  7  1  0
  7  8  1  0
  7  2  1  0
  8 11  1  0
  8 10  1  0
  9  8  1  0
 12 16  1  0
 13 20  1  0
 14 13  1  0
 15 16  1  0
 15 14  2  0
 16 17  1  0
 17 13  2  0
 19 18  2  0
 20 21  2  0
 20 19  1  0
 21 22  1  0
 22 23  2  0
 23 18  1  0
  1 24  1  0
  1 25  1  0
  3 26  1  0
  3 27  1  0
  4 28  1  0
  4 29  1  0
  6 30  1  0
  6 31  1  0
  7 32  1  6
 12 33  1  0
 12 34  1  0
 14 35  1  0
 15 36  1  0
 18 37  1  0
 19 38  1  0
 22 39  1  0
M  ISO  8  24   8  25   8  26  13  27  13  28  13  29  13  30  13  31  13
M  ISO  8  32  13  33   8  34   8  35  14  36  14  37  14  38  14  39  14
M  END
>  <minimizedAffinity>  (1) 
-5.60554171

>  <minimizedRMSD>  (1) 
0.90752095

$$$$
