
     RDKit          3D

 38 40  0  0  1  0  0  0  0  0999 V2000
   37.4430   31.6020   43.8320 N   0  0  0  0  0  0  0  0  0  0  0  0
   37.6280   30.7610   45.0090 C   0  0  0  0  0  0  0  0  0  0  0  0
   38.5930   31.3030   45.9970 C   0  0  1  0  0  0  0  0  0  0  0  0
   39.6130   32.1770   45.5340 N   0  0  0  0  0  0  0  0  0  0  0  0
   39.2140   33.0320   44.4350 C   0  0  0  0  0  0  0  0  0  0  0  0
   38.6960   32.1020   43.3480 C   0  0  0  0  0  0  0  0  0  0  0  0
   36.1630   31.8740   43.2560 C   0  0  0  0  0  0  0  0  0  0  0  0
   35.8810   32.9990   42.4880 C   0  0  0  0  0  0  0  0  0  0  0  0
   34.5950   33.1550   41.9810 C   0  0  0  0  0  0  0  0  0  0  0  0
   33.6670   32.1870   42.2640 N   0  0  0  0  0  0  0  0  0  0  0  0
   33.9730   31.1060   43.0130 C   0  0  0  0  0  0  0  0  0  0  0  0
   35.1990   30.9490   43.5020 N   0  0  0  0  0  0  0  0  0  0  0  0
   37.9640   31.8850   47.1700 N   0  0  0  0  0  0  0  0  0  0  0  0
   37.0890   31.0020   47.8740 C   0  0  0  0  0  0  0  0  0  0  0  0
   37.7760   30.4250   49.1200 C   0  0  0  0  0  0  0  0  0  0  0  0
   37.8390   31.5170   50.0750 N   0  0  0  0  0  0  0  0  0  0  0  0
   38.4390   32.6650   49.4460 C   0  0  0  0  0  0  0  0  0  0  0  0
   38.9620   32.3830   48.0720 C   0  0  0  0  0  0  0  0  0  0  0  0
   36.6538   30.6442   45.5063 H   0  0  0  0  0  0  0  0  0  0  0  0
   38.0418   29.8058   44.6536 H   0  0  0  0  0  0  0  0  0  0  0  0
   39.1161   30.3720   46.2608 H   0  0  0  0  0  0  0  0  0  0  0  0
   39.9047   32.7764   46.3192 H   0  0  0  0  0  0  0  0  0  0  0  0
   38.4211   33.7232   44.7567 H   0  0  0  0  0  0  0  0  0  0  0  0
   40.0538   33.6445   44.0752 H   0  0  0  0  0  0  0  0  0  0  0  0
   39.4015   31.2743   43.1828 H   0  0  0  0  0  0  0  0  0  0  0  0
   38.5814   32.6243   42.3867 H   0  0  0  0  0  0  0  0  0  0  0  0
   36.6590   33.7499   42.2857 H   0  0  0  0  0  0  0  0  0  0  0  0
   34.3304   34.0307   41.3701 H   0  0  0  0  0  0  0  0  0  0  0  0
   33.2018   30.3495   43.2201 H   0  0  0  0  0  0  0  0  0  0  0  0
   36.1905   31.5564   48.1828 H   0  0  0  0  0  0  0  0  0  0  0  0
   36.8182   30.1708   47.2064 H   0  0  0  0  0  0  0  0  0  0  0  0
   37.1885   29.5903   49.5300 H   0  0  0  0  0  0  0  0  0  0  0  0
   38.7763   30.0315   48.8866 H   0  0  0  0  0  0  0  0  0  0  0  0
   36.8873   31.7548   50.3890 H   0  0  0  0  0  0  0  0  0  0  0  0
   37.6816   33.4595   49.3748 H   0  0  0  0  0  0  0  0  0  0  0  0
   39.2972   32.9640   50.0657 H   0  0  0  0  0  0  0  0  0  0  0  0
   39.7638   31.6341   48.1517 H   0  0  0  0  0  0  0  0  0  0  0  0
   39.3216   33.3378   47.6609 H   0  0  0  0  0  0  0  0  0  0  0  0
  1  2  1  0
  2  3  1  0
  3 13  1  0
  4  3  1  0
  5  4  1  0
  6  1  1  0
  6  5  1  0
  7 12  1  0
  7  1  1  0
  8  7  2  0
  9 10  2  0
  9  8  1  0
 10 11  1  0
 11 12  2  0
 13 14  1  0
 13 18  1  0
 14 15  1  0
 15 16  1  0
 17 16  1  0
 18 17  1  0
  2 19  1  0
  2 20  1  0
  3 21  1  1
  4 22  1  0
  5 23  1  0
  5 24  1  0
  6 25  1  0
  6 26  1  0
  8 27  1  0
  9 28  1  0
 11 29  1  0
 14 30  1  0
 14 31  1  0
 15 32  1  0
 15 33  1  0
 16 34  1  0
 17 35  1  0
 17 36  1  0
 18 37  1  0
 18 38  1  0
M  ISO  8  19  13  20  13  21  13  22   5  23  13  24  13  25  13  26  13
M  ISO  8  27  14  28  14  29  14  30  13  31  13  32  13  33  13  34   5
M  ISO  4  35  13  36  13  37  13  38  13
M  END
>  <minimizedAffinity>  (1) 
-4.2087307

>  <minimizedRMSD>  (1) 
5.62781906

$$$$
