
     RDKit          3D

 22 22  0  0  0  0  0  0  0  0999 V2000
   35.4880   29.9100   49.4860 C   0  0  0  0  0  0  0  0  0  0  0  0
   35.8660   29.4720   50.7570 C   0  0  0  0  0  0  0  0  0  0  0  0
   37.2060   29.5250   51.1100 C   0  0  0  0  0  0  0  0  0  0  0  0
   38.0890   30.0000   50.1980 N   0  0  0  0  0  0  0  0  0  0  0  0
   37.7120   30.4210   48.9690 C   0  0  0  0  0  0  0  0  0  0  0  0
   36.4110   30.3760   48.6110 N   0  0  0  0  0  0  0  0  0  0  0  0
   34.1880   29.9230   48.9760 O   0  0  0  0  0  0  0  0  0  0  0  0
   34.3990   27.3100   48.3760 O   0  0  0  0  0  0  0  0  0  0  0  0
   33.4560   28.5100   48.3380 P   0  0  1  0  0  0  0  0  0  0  0  0
   32.0680   28.2320   49.2630 O   0  0  0  0  0  0  0  0  0  0  0  0
   33.0670   28.7600   46.7060 O   0  0  0  0  0  0  0  0  0  0  0  0
   33.4580   30.0220   46.2750 C   0  0  0  0  0  0  0  0  0  0  0  0
   34.7180   29.8330   45.4390 C   0  0  0  0  0  0  0  0  0  0  0  0
   35.1148   29.0920   51.4650 H   0  0  0  0  0  0  0  0  0  0  0  0
   37.5429   29.1909   52.1024 H   0  0  0  0  0  0  0  0  0  0  0  0
   38.4647   30.7997   48.2619 H   0  0  0  0  0  0  0  0  0  0  0  0
   32.2978   28.2780   50.2249 H   0  0  0  0  0  0  0  0  0  0  0  0
   32.6636   30.4763   45.6647 H   0  0  0  0  0  0  0  0  0  0  0  0
   33.6482   30.6886   47.1291 H   0  0  0  0  0  0  0  0  0  0  0  0
   35.5838   29.7031   46.1049 H   0  0  0  0  0  0  0  0  0  0  0  0
   34.6066   28.9415   44.8043 H   0  0  0  0  0  0  0  0  0  0  0  0
   34.8731   30.7179   44.8043 H   0  0  0  0  0  0  0  0  0  0  0  0
  1  2  2  0
  2  3  1  0
  4  3  2  0
  5  4  1  0
  6  5  2  0
  6  1  1  0
  7  1  1  0
  9  8  2  0
  9  7  1  0
  9 10  1  0
 11  9  1  0
 12 11  1  0
 13 12  1  0
  2 14  1  0
  3 15  1  0
  5 16  1  0
 10 17  1  0
 12 18  1  0
 12 19  1  0
 13 20  1  0
 13 21  1  0
 13 22  1  0
M  ISO  8  14  14  15  14  16  14  17   3  18   8  19   8  20   8  21   8
M  ISO  1  22   8
M  END
>  <minimizedAffinity>  (1) 
-3.42808414

>  <minimizedRMSD>  (1) 
2.05763984

$$$$
