
     RDKit          3D

 18 18  0  0  0  0  0  0  0  0999 V2000
   36.9970   29.8840   51.5700 C   0  0  0  0  0  0  0  0  0  0  0  0
   38.0640   30.4780   50.8770 C   0  0  0  0  0  0  0  0  0  0  0  0
   37.9800   30.5620   49.4740 C   0  0  0  0  0  0  0  0  0  0  0  0
   36.8690   30.0630   48.8730 N   0  0  0  0  0  0  0  0  0  0  0  0
   35.8770   29.5050   49.5770 C   0  0  0  0  0  0  0  0  0  0  0  0
   35.9240   29.4100   50.9000 N   0  0  0  0  0  0  0  0  0  0  0  0
   34.6740   28.9650   48.9310 C   0  0  0  0  0  0  0  0  0  0  0  0
   33.5870   28.7520   49.5360 O   0  0  0  0  0  0  0  0  0  0  0  0
   34.8650   28.7180   47.5920 O   0  0  0  0  0  0  0  0  0  0  0  0
   33.4040   28.8910   45.4590 O   0  0  0  0  0  0  0  0  0  0  0  0
   34.1740   29.7650   46.4180 P   0  0  0  0  0  0  0  0  0  0  0  0
   33.1230   30.8720   47.0980 O   0  0  0  0  0  0  0  0  0  0  0  0
   35.4520   30.4970   45.5900 O   0  0  0  0  0  0  0  0  0  0  0  0
   37.0351   29.8040   52.6664 H   0  0  0  0  0  0  0  0  0  0  0  0
   38.9410   30.8669   51.4152 H   0  0  0  0  0  0  0  0  0  0  0  0
   38.7886   31.0174   48.8834 H   0  0  0  0  0  0  0  0  0  0  0  0
   33.1770   30.8152   48.0849 H   0  0  0  0  0  0  0  0  0  0  0  0
   36.0985   30.8673   46.2419 H   0  0  0  0  0  0  0  0  0  0  0  0
  2  1  2  0
  3  2  1  0
  4  3  2  0
  4  5  1  0
  5  6  2  0
  6  1  1  0
  7  8  2  0
  7  5  1  0
  9  7  1  0
 10 11  2  0
 11 12  1  0
 11  9  1  0
 13 11  1  0
  1 14  1  0
  2 15  1  0
  3 16  1  0
 12 17  1  0
 13 18  1  0
M  ISO  5  14  14  15  14  16  14  17   3  18   3
M  END
>  <minimizedAffinity>  (1) 
-3.99594235

>  <minimizedRMSD>  (1) 
3.01039648

$$$$
