
     RDKit          3D

 32 35  0  0  0  0  0  0  0  0999 V2000
   35.5450   29.7030   49.8020 C   0  0  0  0  0  0  0  0  0  0  0  0
   36.5410   29.5250   50.7550 C   0  0  0  0  0  0  0  0  0  0  0  0
   37.6700   30.0640   50.1420 C   0  0  0  0  0  0  0  0  0  0  0  0
   37.3250   30.5260   48.8960 C   0  0  0  0  0  0  0  0  0  0  0  0
   36.0410   30.2910   48.7270 O   0  0  0  0  0  0  0  0  0  0  0  0
   38.6260   32.4630   48.1370 C   0  0  0  0  0  0  0  0  0  0  0  0
   38.2000   31.1630   47.9190 C   0  0  0  0  0  0  0  0  0  0  0  0
   38.5860   30.4480   46.7930 C   0  0  0  0  0  0  0  0  0  0  0  0
   39.4180   31.0330   45.8470 C   0  0  0  0  0  0  0  0  0  0  0  0
   39.9570   30.6240   44.6830 N   0  0  0  0  0  0  0  0  0  0  0  0
   40.6810   31.6320   44.2100 N   0  0  0  0  0  0  0  0  0  0  0  0
   40.6160   32.6820   45.0530 C   0  0  0  0  0  0  0  0  0  0  0  0
   39.8080   32.3280   46.1190 C   0  0  0  0  0  0  0  0  0  0  0  0
   39.4660   33.0920   47.2100 C   0  0  0  0  0  0  0  0  0  0  0  0
   34.1600   29.2870   49.9910 C   0  0  0  0  0  0  0  0  0  0  0  0
   33.4960   29.8280   50.8920 O   0  0  0  0  0  0  0  0  0  0  0  0
   31.6920   27.1580   48.3580 C   0  0  0  0  0  0  0  0  0  0  0  0
   32.4610   26.3550   47.5240 C   0  0  0  0  0  0  0  0  0  0  0  0
   33.8310   26.5270   47.5070 C   0  0  0  0  0  0  0  0  0  0  0  0
   34.3640   27.4770   48.3080 N   0  0  0  0  0  0  0  0  0  0  0  0
   33.5980   28.2560   49.1190 C   0  0  0  0  0  0  0  0  0  0  0  0
   32.2610   28.0860   49.1340 N   0  0  0  0  0  0  0  0  0  0  0  0
   36.4579   29.0687   51.7524 H   0  0  0  0  0  0  0  0  0  0  0  0
   38.6758   30.1117   50.5849 H   0  0  0  0  0  0  0  0  0  0  0  0
   38.3038   33.0021   49.0400 H   0  0  0  0  0  0  0  0  0  0  0  0
   38.2322   29.4163   46.6499 H   0  0  0  0  0  0  0  0  0  0  0  0
   39.8314   29.7018   44.2418 H   0  0  0  0  0  0  0  0  0  0  0  0
   41.1179   33.6513   44.9171 H   0  0  0  0  0  0  0  0  0  0  0  0
   39.8262   34.1226   47.3447 H   0  0  0  0  0  0  0  0  0  0  0  0
   30.5999   27.0281   48.3798 H   0  0  0  0  0  0  0  0  0  0  0  0
   31.9856   25.5943   46.8874 H   0  0  0  0  0  0  0  0  0  0  0  0
   34.4706   25.9086   46.8601 H   0  0  0  0  0  0  0  0  0  0  0  0
  1 15  1  0
  1  2  2  0
  3  2  1  0
  4  3  2  0
  5  4  1  0
  5  1  1  0
  7  6  2  0
  7  4  1  0
  8  7  1  0
  9 13  1  0
  9  8  2  0
 10  9  1  0
 11 10  1  0
 11 12  2  0
 12 13  1  0
 13 14  2  0
 14  6  1  0
 15 16  2  0
 17 22  2  0
 18 17  1  0
 19 18  2  0
 19 20  1  0
 20 21  2  0
 21 22  1  0
 21 15  1  0
  2 23  1  0
  3 24  1  0
  6 25  1  0
  8 26  1  0
 10 27  1  0
 12 28  1  0
 14 29  1  0
 17 30  1  0
 18 31  1  0
 19 32  1  0
M  ISO  8  23  14  24  14  25  14  26  14  27   9  28  14  29  14  30  14
M  ISO  2  31  14  32  14
M  END
>  <minimizedAffinity>  (1) 
-6.59486103

>  <minimizedRMSD>  (1) 
3.50685358

$$$$
