
     RDKit          3D

 29 31  0  0  0  0  0  0  0  0999 V2000
   35.8510   30.0030   49.8030 C   0  0  0  0  0  0  0  0  0  0  0  0
   36.8770   29.3810   50.4880 C   0  0  0  0  0  0  0  0  0  0  0  0
   37.9730   30.1890   50.1690 C   0  0  0  0  0  0  0  0  0  0  0  0
   37.5870   31.2170   49.3460 C   0  0  0  0  0  0  0  0  0  0  0  0
   36.2950   31.0800   49.1400 O   0  0  0  0  0  0  0  0  0  0  0  0
   38.4440   30.7010   46.4110 Br  0  0  0  0  0  0  0  0  0  0  0  0
   38.8990   32.1730   47.5000 C   0  0  0  0  0  0  0  0  0  0  0  0
   38.4390   32.2670   48.7980 C   0  0  0  0  0  0  0  0  0  0  0  0
   38.7760   33.3470   49.5890 C   0  0  0  0  0  0  0  0  0  0  0  0
   39.5810   34.3480   49.0850 C   0  0  0  0  0  0  0  0  0  0  0  0
   40.0250   34.2280   47.7850 C   0  0  0  0  0  0  0  0  0  0  0  0
   39.7080   33.1510   46.9480 C   0  0  0  0  0  0  0  0  0  0  0  0
   34.4560   29.5600   49.7910 C   0  0  0  0  0  0  0  0  0  0  0  0
   33.7500   29.8500   50.7950 O   0  0  0  0  0  0  0  0  0  0  0  0
   32.4020   27.2600   47.8800 C   0  0  0  0  0  0  0  0  0  0  0  0
   32.8730   27.3920   46.5790 C   0  0  0  0  0  0  0  0  0  0  0  0
   33.9180   28.2880   46.3450 C   0  0  0  0  0  0  0  0  0  0  0  0
   34.3990   28.9670   47.4090 N   0  0  0  0  0  0  0  0  0  0  0  0
   33.9240   28.8190   48.6590 C   0  0  0  0  0  0  0  0  0  0  0  0
   32.9190   27.9590   48.8860 N   0  0  0  0  0  0  0  0  0  0  0  0
   36.8411   28.4821   51.1210 H   0  0  0  0  0  0  0  0  0  0  0  0
   38.9998   30.0238   50.5273 H   0  0  0  0  0  0  0  0  0  0  0  0
   38.4026   33.4097   50.6218 H   0  0  0  0  0  0  0  0  0  0  0  0
   39.8600   35.2153   49.7014 H   0  0  0  0  0  0  0  0  0  0  0  0
   40.6662   35.0256   47.3815 H   0  0  0  0  0  0  0  0  0  0  0  0
   40.0794   33.0862   45.9146 H   0  0  0  0  0  0  0  0  0  0  0  0
   31.5794   26.5584   48.0828 H   0  0  0  0  0  0  0  0  0  0  0  0
   32.4348   26.8071   45.7569 H   0  0  0  0  0  0  0  0  0  0  0  0
   34.3321   28.4348   45.3366 H   0  0  0  0  0  0  0  0  0  0  0  0
  1  2  2  0
  3  2  1  0
  4  3  2  0
  5  4  1  0
  5  1  1  0
  6  7  1  0
  7  8  2  0
  8  4  1  0
  8  9  1  0
 10  9  2  0
 11 10  1  0
 12  7  1  0
 12 11  2  0
 13  1  1  0
 13 14  2  0
 15 20  2  0
 16 15  1  0
 17 16  2  0
 17 18  1  0
 18 19  2  0
 19 20  1  0
 19 13  1  0
  2 21  1  0
  3 22  1  0
  9 23  1  0
 10 24  1  0
 11 25  1  0
 12 26  1  0
 15 27  1  0
 16 28  1  0
 17 29  1  0
M  ISO  8  21  14  22  14  23  14  24  14  25  14  26  14  27  14  28  14
M  ISO  1  29  14
M  END
>  <minimizedAffinity>  (1) 
-6.17081499

>  <minimizedRMSD>  (1) 
2.01250529

$$$$
