
     RDKit          3D

 34 37  0  0  0  0  0  0  0  0999 V2000
   35.5430   29.5980   49.6980 C   0  0  0  0  0  0  0  0  0  0  0  0
   36.5680   29.2840   50.5840 C   0  0  0  0  0  0  0  0  0  0  0  0
   37.6980   29.7980   49.9470 C   0  0  0  0  0  0  0  0  0  0  0  0
   37.3170   30.3740   48.7550 C   0  0  0  0  0  0  0  0  0  0  0  0
   36.0180   30.2310   48.6480 O   0  0  0  0  0  0  0  0  0  0  0  0
   38.6220   32.3130   48.0230 C   0  0  0  0  0  0  0  0  0  0  0  0
   38.1910   31.0290   47.7800 C   0  0  0  0  0  0  0  0  0  0  0  0
   38.5560   30.3390   46.6460 C   0  0  0  0  0  0  0  0  0  0  0  0
   39.3850   30.9350   45.7050 C   0  0  0  0  0  0  0  0  0  0  0  0
   39.9140   30.5430   44.5210 N   0  0  0  0  0  0  0  0  0  0  0  0
   40.6430   31.5570   44.0610 N   0  0  0  0  0  0  0  0  0  0  0  0
   40.5900   32.5970   44.9330 C   0  0  0  0  0  0  0  0  0  0  0  0
   39.7870   32.2120   45.9920 C   0  0  0  0  0  0  0  0  0  0  0  0
   39.4600   32.9530   47.0990 C   0  0  0  0  0  0  0  0  0  0  0  0
   34.1460   29.2580   49.9320 C   0  0  0  0  0  0  0  0  0  0  0  0
   33.5310   29.8310   50.8500 O   0  0  0  0  0  0  0  0  0  0  0  0
   31.5320   27.2130   48.4240 C   0  0  0  0  0  0  0  0  0  0  0  0
   32.2220   26.4020   47.5350 C   0  0  0  0  0  0  0  0  0  0  0  0
   33.5930   26.5460   47.4380 C   0  0  0  0  0  0  0  0  0  0  0  0
   34.2040   27.4620   48.2090 N   0  0  0  0  0  0  0  0  0  0  0  0
   33.5010   28.2490   49.0790 C   0  0  0  0  0  0  0  0  0  0  0  0
   32.1590   28.1210   49.1850 N   0  0  0  0  0  0  0  0  0  0  0  0
   34.3360   25.7320   46.5370 N   0  0  0  0  0  0  0  0  0  0  0  0
   36.5037   28.7598   51.5489 H   0  0  0  0  0  0  0  0  0  0  0  0
   38.7266   29.7509   50.3340 H   0  0  0  0  0  0  0  0  0  0  0  0
   38.3101   32.8356   48.9393 H   0  0  0  0  0  0  0  0  0  0  0  0
   38.1904   29.3141   46.4852 H   0  0  0  0  0  0  0  0  0  0  0  0
   39.7775   29.6308   44.0626 H   0  0  0  0  0  0  0  0  0  0  0  0
   41.0936   33.5682   44.8182 H   0  0  0  0  0  0  0  0  0  0  0  0
   39.8295   33.9779   47.2512 H   0  0  0  0  0  0  0  0  0  0  0  0
   30.4401   27.1081   48.5068 H   0  0  0  0  0  0  0  0  0  0  0  0
   31.6897   25.6607   46.9209 H   0  0  0  0  0  0  0  0  0  0  0  0
   35.3577   25.8416   46.4669 H   0  0  0  0  0  0  0  0  0  0  0  0
   33.8519   25.0334   45.9552 H   0  0  0  0  0  0  0  0  0  0  0  0
  1 15  1  0
  1  2  2  0
  3  2  1  0
  4  3  2  0
  5  4  1  0
  5  1  1  0
  7  6  2  0
  7  4  1  0
  8  7  1  0
  9 13  1  0
  9  8  2  0
 10  9  1  0
 11 10  1  0
 11 12  2  0
 12 13  1  0
 13 14  2  0
 14  6  1  0
 15 16  2  0
 17 22  2  0
 18 17  1  0
 19 18  2  0
 19 20  1  0
 20 21  2  0
 21 22  1  0
 21 15  1  0
 23 19  1  0
  2 24  1  0
  3 25  1  0
  6 26  1  0
  8 27  1  0
 10 28  1  0
 12 29  1  0
 14 30  1  0
 17 31  1  0
 18 32  1  0
 23 33  1  0
 23 34  1  0
M  ISO  8  24  14  25  14  26  14  27  14  28   9  29  14  30  14  31  14
M  ISO  1  32  14
M  END
>  <minimizedAffinity>  (1) 
-6.51614809

>  <minimizedRMSD>  (1) 
0.199573278

$$$$
