
     RDKit          3D

 36 39  0  0  0  0  0  0  0  0999 V2000
   31.8320   29.6550   45.8600 C   0  0  0  0  0  0  0  0  0  0  0  0
   31.4290   28.8540   44.8240 C   0  0  0  0  0  0  0  0  0  0  0  0
   30.2090   28.3740   45.1010 N   0  0  0  0  0  0  0  0  0  0  0  0
   29.8130   28.8510   46.3030 C   0  0  0  0  0  0  0  0  0  0  0  0
   30.8170   29.6310   46.7490 N   0  0  0  0  0  0  0  0  0  0  0  0
   28.1360   27.3660   47.4280 C   0  0  0  0  0  0  0  0  0  0  0  0
   28.5670   28.6350   47.0660 C   0  0  0  0  0  0  0  0  0  0  0  0
   27.8010   29.7380   47.4340 C   0  0  0  0  0  0  0  0  0  0  0  0
   26.6250   29.6270   48.1480 C   0  0  0  0  0  0  0  0  0  0  0  0
   25.6940   30.4450   48.6380 N   0  0  0  0  0  0  0  0  0  0  0  0
   24.7150   29.7690   49.2790 C   0  0  0  0  0  0  0  0  0  0  0  0
   25.0380   28.4500   49.1940 N   0  0  0  0  0  0  0  0  0  0  0  0
   26.2020   28.3590   48.5050 C   0  0  0  0  0  0  0  0  0  0  0  0
   26.9600   27.2650   48.1410 C   0  0  0  0  0  0  0  0  0  0  0  0
   33.0190   30.3790   46.0420 O   0  0  0  0  0  0  0  0  0  0  0  0
   35.4990   29.7020   46.2880 O   0  0  0  0  0  0  0  0  0  0  0  0
   34.1920   29.7010   47.0580 P   0  0  2  0  0  0  0  0  0  0  0  0
   33.7450   28.1160   47.5090 O   0  0  0  0  0  0  0  0  0  0  0  0
   34.2970   30.6110   48.4950 O   0  0  0  0  0  0  0  0  0  0  0  0
   35.3330   30.4410   49.4110 C   0  0  0  0  0  0  0  0  0  0  0  0
   35.4190   29.4770   50.4140 C   0  0  0  0  0  0  0  0  0  0  0  0
   36.5370   29.4820   51.2180 C   0  0  0  0  0  0  0  0  0  0  0  0
   37.5070   30.3960   51.0270 N   0  0  0  0  0  0  0  0  0  0  0  0
   37.3990   31.3350   50.0320 C   0  0  0  0  0  0  0  0  0  0  0  0
   36.3110   31.3450   49.2340 N   0  0  0  0  0  0  0  0  0  0  0  0
   32.0107   28.6403   43.9152 H   0  0  0  0  0  0  0  0  0  0  0  0
   29.6619   27.7443   44.4969 H   0  0  0  0  0  0  0  0  0  0  0  0
   28.7136   26.4705   47.1551 H   0  0  0  0  0  0  0  0  0  0  0  0
   28.1479   30.7406   47.1433 H   0  0  0  0  0  0  0  0  0  0  0  0
   25.7178   31.4700   48.5399 H   0  0  0  0  0  0  0  0  0  0  0  0
   23.8313   30.2001   49.7722 H   0  0  0  0  0  0  0  0  0  0  0  0
   26.6094   26.2643   48.4336 H   0  0  0  0  0  0  0  0  0  0  0  0
   33.7255   28.0470   48.4964 H   0  0  0  0  0  0  0  0  0  0  0  0
   34.6192   28.7358   50.5587 H   0  0  0  0  0  0  0  0  0  0  0  0
   36.6380   28.7359   52.0199 H   0  0  0  0  0  0  0  0  0  0  0  0
   38.1973   32.0775   49.8854 H   0  0  0  0  0  0  0  0  0  0  0  0
  1 15  1  0
  1  5  1  0
  2  3  1  0
  2  1  2  0
  3  4  1  0
  4  5  2  0
  4  7  1  0
  6 14  2  0
  7  6  1  0
  7  8  2  0
  8  9  1  0
  9 13  2  0
  9 10  1  0
 10 11  1  0
 12 11  2  0
 13 12  1  0
 14 13  1  0
 15 17  1  0
 17 16  2  0
 17 18  1  0
 17 19  1  0
 19 20  1  0
 20 21  2  0
 21 22  1  0
 23 22  2  0
 24 23  1  0
 25 20  1  0
 25 24  2  0
  2 26  1  0
  3 27  1  0
  6 28  1  0
  8 29  1  0
 10 30  1  0
 11 31  1  0
 14 32  1  0
 18 33  1  0
 21 34  1  0
 22 35  1  0
 24 36  1  0
M  ISO  8  26  14  27   9  28  14  29  14  30   9  31  14  32  14  33   3
M  ISO  3  34  14  35  14  36  14
M  END
>  <minimizedAffinity>  (1) 
-5.61135483

>  <minimizedRMSD>  (1) 
2.40935755

$$$$
