
     RDKit          3D

 42 45  0  0  1  0  0  0  0  0999 V2000
   38.3880   31.8670   44.4740 C   0  0  0  0  0  0  0  0  0  0  0  0
   37.3000   32.4640   44.3720 O   0  0  0  0  0  0  0  0  0  0  0  0
   38.9410   31.5560   45.7740 N   0  0  0  0  0  0  0  0  0  0  0  0
   39.1750   31.4410   43.2830 C   0  0  0  0  0  0  0  0  0  0  0  0
   40.2000   30.5490   43.4530 C   0  0  0  0  0  0  0  0  0  0  0  0
   40.9120   30.1960   42.3170 C   0  0  0  0  0  0  0  0  0  0  0  0
   40.5560   30.7500   41.1150 C   0  0  0  0  0  0  0  0  0  0  0  0
   39.5180   31.6500   40.9530 C   0  0  0  0  0  0  0  0  0  0  0  0
   38.8540   31.9660   42.0780 N   0  0  0  0  0  0  0  0  0  0  0  0
   39.1410   32.2300   39.7090 N   0  0  0  0  0  0  0  0  0  0  0  0
   39.2530   31.6760   38.3710 C   0  0  0  0  0  0  0  0  0  0  0  0
   39.9390   32.8340   37.6660 C   0  0  0  0  0  0  0  0  0  0  0  0
   39.2860   34.0310   38.3080 C   0  0  0  0  0  0  0  0  0  0  0  0
   38.5470   33.5430   39.5380 C   0  0  0  0  0  0  0  0  0  0  0  0
   38.4250   31.0920   48.1690 C   0  0  2  0  0  0  0  0  0  0  0  0
   38.7260   32.5300   48.0700 C   0  0  0  0  0  0  0  0  0  0  0  0
   38.0660   31.7180   46.9220 C   0  0  1  0  0  0  0  0  0  0  0  0
   35.0890   30.2460   49.5050 C   0  0  0  0  0  0  0  0  0  0  0  0
   35.4070   29.5650   50.7230 C   0  0  0  0  0  0  0  0  0  0  0  0
   36.8050   29.4240   51.0540 C   0  0  0  0  0  0  0  0  0  0  0  0
   37.7350   29.9330   50.2130 N   0  0  0  0  0  0  0  0  0  0  0  0
   37.3630   30.5700   49.0700 C   0  0  0  0  0  0  0  0  0  0  0  0
   36.0460   30.7410   48.6900 N   0  0  0  0  0  0  0  0  0  0  0  0
   39.9134   31.2336   45.8810 H   0  0  0  0  0  0  0  0  0  0  0  0
   40.4461   30.1334   44.4413 H   0  0  0  0  0  0  0  0  0  0  0  0
   41.7480   29.4838   42.3793 H   0  0  0  0  0  0  0  0  0  0  0  0
   41.1317   30.4609   40.2233 H   0  0  0  0  0  0  0  0  0  0  0  0
   39.8697   30.7652   38.3560 H   0  0  0  0  0  0  0  0  0  0  0  0
   38.3024   31.3551   37.9200 H   0  0  0  0  0  0  0  0  0  0  0  0
   39.7495   32.8098   36.5827 H   0  0  0  0  0  0  0  0  0  0  0  0
   41.0346   32.8236   37.7643 H   0  0  0  0  0  0  0  0  0  0  0  0
   40.0515   34.7662   38.5970 H   0  0  0  0  0  0  0  0  0  0  0  0
   38.5915   34.5158   37.6062 H   0  0  0  0  0  0  0  0  0  0  0  0
   38.7369   34.1896   40.4074 H   0  0  0  0  0  0  0  0  0  0  0  0
   37.4515   33.5379   39.4390 H   0  0  0  0  0  0  0  0  0  0  0  0
   39.0460   30.2244   48.4366 H   0  0  0  0  0  0  0  0  0  0  0  0
   38.1407   33.2641   48.6432 H   0  0  0  0  0  0  0  0  0  0  0  0
   39.6153   33.1671   48.1854 H   0  0  0  0  0  0  0  0  0  0  0  0
   37.1387   31.7349   46.3305 H   0  0  0  0  0  0  0  0  0  0  0  0
   34.0328   30.3702   49.2238 H   0  0  0  0  0  0  0  0  0  0  0  0
   34.6194   29.1659   51.3791 H   0  0  0  0  0  0  0  0  0  0  0  0
   37.1102   28.9098   51.9773 H   0  0  0  0  0  0  0  0  0  0  0  0
  1  3  1  0
  2  1  2  0
  3 17  1  0
  4  5  2  0
  4  1  1  0
  6  5  1  0
  7  6  2  0
  8  7  1  0
  8  9  2  0
  9  4  1  0
 10  8  1  0
 11 10  1  0
 12 13  1  0
 12 11  1  0
 13 14  1  0
 14 10  1  0
 15 22  1  0
 16 15  1  0
 17 16  1  0
 17 15  1  0
 18 19  2  0
 19 20  1  0
 21 20  2  0
 22 21  1  0
 23 22  2  0
 23 18  1  0
  3 24  1  0
  5 25  1  0
  6 26  1  0
  7 27  1  0
 11 28  1  0
 11 29  1  0
 12 30  1  0
 12 31  1  0
 13 32  1  0
 13 33  1  0
 14 34  1  0
 14 35  1  0
 15 36  1  6
 16 37  1  0
 16 38  1  0
 17 39  1  6
 18 40  1  0
 19 41  1  0
 20 42  1  0
M  ISO  8  25  14  26  14  27  14  28  13  29  13  30  13  31  13  32  13
M  ISO  8  33  13  34  13  35  13  36  13  37  13  38  13  39  13  40  14
M  ISO  2  41  14  42  14
M  END
>  <minimizedAffinity>  (1) 
-5.46410179

>  <minimizedRMSD>  (1) 
0.169030711

$$$$
