
     RDKit          3D

 31 33  0  0  1  0  0  0  0  0999 V2000
   38.4340   31.1270   48.2110 C   0  0  2  0  0  0  0  0  0  0  0  0
   38.6980   32.5720   48.1140 C   0  0  0  0  0  0  0  0  0  0  0  0
   38.0640   31.7500   46.9640 C   0  0  1  0  0  0  0  0  0  0  0  0
   35.0900   30.2260   49.5210 C   0  0  0  0  0  0  0  0  0  0  0  0
   35.4100   29.5480   50.7400 C   0  0  0  0  0  0  0  0  0  0  0  0
   36.8100   29.4290   51.0820 C   0  0  0  0  0  0  0  0  0  0  0  0
   37.7430   29.9560   50.2470 N   0  0  0  0  0  0  0  0  0  0  0  0
   37.3610   30.5870   49.1040 C   0  0  0  0  0  0  0  0  0  0  0  0
   36.0470   30.7380   48.7160 N   0  0  0  0  0  0  0  0  0  0  0  0
   38.4100   31.8740   44.5190 C   0  0  0  0  0  0  0  0  0  0  0  0
   37.2880   32.4530   44.4060 O   0  0  0  0  0  0  0  0  0  0  0  0
   38.9540   31.5970   45.8220 N   0  0  0  0  0  0  0  0  0  0  0  0
   39.1750   31.4750   43.3300 C   0  0  0  0  0  0  0  0  0  0  0  0
   40.1420   30.5180   43.4770 C   0  0  0  0  0  0  0  0  0  0  0  0
   40.8720   30.1260   42.3690 C   0  0  0  0  0  0  0  0  0  0  0  0
   40.5770   30.7300   41.1720 C   0  0  0  0  0  0  0  0  0  0  0  0
   39.5930   31.7080   41.0050 C   0  0  0  0  0  0  0  0  0  0  0  0
   38.9390   32.0240   42.1310 N   0  0  0  0  0  0  0  0  0  0  0  0
   39.2950   32.3140   39.8100 O   0  0  0  0  0  0  0  0  0  0  0  0
   39.0761   30.2757   48.4810 H   0  0  0  0  0  0  0  0  0  0  0  0
   38.0925   33.2898   48.6868 H   0  0  0  0  0  0  0  0  0  0  0  0
   39.5708   33.2307   48.2333 H   0  0  0  0  0  0  0  0  0  0  0  0
   37.1392   31.7547   46.3684 H   0  0  0  0  0  0  0  0  0  0  0  0
   34.0344   30.3335   49.2309 H   0  0  0  0  0  0  0  0  0  0  0  0
   34.6242   29.1348   51.3894 H   0  0  0  0  0  0  0  0  0  0  0  0
   37.1157   28.9180   52.0069 H   0  0  0  0  0  0  0  0  0  0  0  0
   39.9336   31.3023   45.9420 H   0  0  0  0  0  0  0  0  0  0  0  0
   40.3360   30.0671   44.4614 H   0  0  0  0  0  0  0  0  0  0  0  0
   41.6581   29.3602   42.4443 H   0  0  0  0  0  0  0  0  0  0  0  0
   41.1530   30.4240   40.2862 H   0  0  0  0  0  0  0  0  0  0  0  0
   38.5830   33.0005   39.7671 H   0  0  0  0  0  0  0  0  0  0  0  0
  1  8  1  0
  2  1  1  0
  3  2  1  0
  3  1  1  0
  4  5  2  0
  5  6  1  0
  7  6  2  0
  8  7  1  0
  9  8  2  0
  9  4  1  0
 10 12  1  0
 11 10  2  0
 12  3  1  0
 13 14  2  0
 13 10  1  0
 15 14  1  0
 16 15  2  0
 17 16  1  0
 17 18  2  0
 18 13  1  0
 19 17  1  0
  1 20  1  6
  2 21  1  0
  2 22  1  0
  3 23  1  6
  4 24  1  0
  5 25  1  0
  6 26  1  0
 12 27  1  0
 14 28  1  0
 15 29  1  0
 16 30  1  0
 19 31  1  0
M  ISO  8  20  13  21  13  22  13  23  13  24  14  25  14  26  14  28  14
M  ISO  3  29  14  30  14  31   3
M  END
>  <minimizedAffinity>  (1) 
-5.13901091

>  <minimizedRMSD>  (1) 
0.0252132062

$$$$
