
     RDKit          3D

 32 34  0  0  1  0  0  0  0  0999 V2000
   38.4300   31.1220   48.1910 C   0  0  2  0  0  0  0  0  0  0  0  0
   38.7120   32.5610   48.0930 C   0  0  0  0  0  0  0  0  0  0  0  0
   38.0600   31.7440   46.9450 C   0  0  1  0  0  0  0  0  0  0  0  0
   35.1090   30.2160   49.5170 C   0  0  0  0  0  0  0  0  0  0  0  0
   35.4320   29.5430   50.7420 C   0  0  0  0  0  0  0  0  0  0  0  0
   36.8350   29.4310   51.0750 C   0  0  0  0  0  0  0  0  0  0  0  0
   37.7480   29.9560   50.2320 N   0  0  0  0  0  0  0  0  0  0  0  0
   37.3800   30.5800   49.0900 C   0  0  0  0  0  0  0  0  0  0  0  0
   36.0610   30.7240   48.7080 N   0  0  0  0  0  0  0  0  0  0  0  0
   38.3890   31.8770   44.5030 C   0  0  0  0  0  0  0  0  0  0  0  0
   37.2710   32.4600   44.3970 O   0  0  0  0  0  0  0  0  0  0  0  0
   38.9350   31.5800   45.7950 N   0  0  0  0  0  0  0  0  0  0  0  0
   39.1570   31.4900   43.3100 C   0  0  0  0  0  0  0  0  0  0  0  0
   40.1470   30.5560   43.4500 C   0  0  0  0  0  0  0  0  0  0  0  0
   40.8700   30.1820   42.3320 C   0  0  0  0  0  0  0  0  0  0  0  0
   40.5460   30.7820   41.1310 C   0  0  0  0  0  0  0  0  0  0  0  0
   39.5330   31.7420   40.9780 C   0  0  0  0  0  0  0  0  0  0  0  0
   38.8770   32.0490   42.1110 N   0  0  0  0  0  0  0  0  0  0  0  0
   39.2280   32.3310   39.7470 N   0  0  0  0  0  0  0  0  0  0  0  0
   39.0637   30.2636   48.4585 H   0  0  0  0  0  0  0  0  0  0  0  0
   38.1188   33.2868   48.6686 H   0  0  0  0  0  0  0  0  0  0  0  0
   39.5937   33.2087   48.2075 H   0  0  0  0  0  0  0  0  0  0  0  0
   37.1320   31.7572   46.3546 H   0  0  0  0  0  0  0  0  0  0  0  0
   34.0526   30.3209   49.2287 H   0  0  0  0  0  0  0  0  0  0  0  0
   34.6498   29.1317   51.3969 H   0  0  0  0  0  0  0  0  0  0  0  0
   37.1521   28.9265   51.9996 H   0  0  0  0  0  0  0  0  0  0  0  0
   39.9088   31.2629   45.9044 H   0  0  0  0  0  0  0  0  0  0  0  0
   40.3636   30.1113   44.4325 H   0  0  0  0  0  0  0  0  0  0  0  0
   41.6738   29.4339   42.3969 H   0  0  0  0  0  0  0  0  0  0  0  0
   41.1177   30.4893   40.2380 H   0  0  0  0  0  0  0  0  0  0  0  0
   38.4755   33.0314   39.6836 H   0  0  0  0  0  0  0  0  0  0  0  0
   39.7559   32.0644   38.9037 H   0  0  0  0  0  0  0  0  0  0  0  0
  1  8  1  0
  2  1  1  0
  3  2  1  0
  3  1  1  0
  4  5  2  0
  5  6  1  0
  7  6  2  0
  8  7  1  0
  9  8  2  0
  9  4  1  0
 10 12  1  0
 11 10  2  0
 12  3  1  0
 13 14  2  0
 13 10  1  0
 15 14  1  0
 16 15  2  0
 17 16  1  0
 17 18  2  0
 18 13  1  0
 19 17  1  0
  1 20  1  6
  2 21  1  0
  2 22  1  0
  3 23  1  6
  4 24  1  0
  5 25  1  0
  6 26  1  0
 12 27  1  0
 14 28  1  0
 15 29  1  0
 16 30  1  0
 19 31  1  0
 19 32  1  0
M  ISO  8  20  13  21  13  22  13  23  13  24  14  25  14  26  14  28  14
M  ISO  2  29  14  30  14
M  END
>  <minimizedAffinity>  (1) 
-5.11559868

>  <minimizedRMSD>  (1) 
0.0552428216

$$$$
