
     RDKit          3D

 33 35  0  0  0  0  0  0  0  0999 V2000
   31.8890   29.0080   46.2930 C   0  0  0  0  0  0  0  0  0  0  0  0
   31.3160   28.1120   45.4240 C   0  0  0  0  0  0  0  0  0  0  0  0
   30.3150   27.5050   46.0430 N   0  0  0  0  0  0  0  0  0  0  0  0
   30.2110   27.9730   47.2970 C   0  0  0  0  0  0  0  0  0  0  0  0
   31.1890   28.9010   47.4380 N   0  0  0  0  0  0  0  0  0  0  0  0
   27.2430   27.8590   46.5890 Cl  0  0  0  0  0  0  0  0  0  0  0  0
   27.8950   27.5120   48.1770 C   0  0  0  0  0  0  0  0  0  0  0  0
   29.2620   27.6040   48.3480 C   0  0  0  0  0  0  0  0  0  0  0  0
   29.7810   27.3310   49.6000 C   0  0  0  0  0  0  0  0  0  0  0  0
   29.0220   26.9730   50.6820 C   0  0  0  0  0  0  0  0  0  0  0  0
   27.6400   26.8780   50.5100 C   0  0  0  0  0  0  0  0  0  0  0  0
   27.0960   27.1470   49.2650 C   0  0  0  0  0  0  0  0  0  0  0  0
   32.9720   29.8790   46.1050 O   0  0  0  0  0  0  0  0  0  0  0  0
   35.5600   29.8670   46.0680 O   0  0  0  0  0  0  0  0  0  0  0  0
   34.3870   29.5630   46.9960 P   0  0  2  0  0  0  0  0  0  0  0  0
   34.4070   27.9450   47.4900 O   0  0  0  0  0  0  0  0  0  0  0  0
   34.3920   30.5280   48.3990 O   0  0  0  0  0  0  0  0  0  0  0  0
   35.3950   30.4020   49.3690 C   0  0  0  0  0  0  0  0  0  0  0  0
   35.4170   29.4840   50.4300 C   0  0  0  0  0  0  0  0  0  0  0  0
   36.5050   29.5290   51.2770 C   0  0  0  0  0  0  0  0  0  0  0  0
   37.5000   30.4290   51.0760 N   0  0  0  0  0  0  0  0  0  0  0  0
   37.4420   31.3060   50.0320 C   0  0  0  0  0  0  0  0  0  0  0  0
   36.3820   31.2910   49.1740 N   0  0  0  0  0  0  0  0  0  0  0  0
   31.6352   27.9292   44.3873 H   0  0  0  0  0  0  0  0  0  0  0  0
   29.7089   26.7841   45.6261 H   0  0  0  0  0  0  0  0  0  0  0  0
   30.8701   27.4060   49.7352 H   0  0  0  0  0  0  0  0  0  0  0  0
   29.4872   26.7665   51.6572 H   0  0  0  0  0  0  0  0  0  0  0  0
   26.9918   26.5933   51.3519 H   0  0  0  0  0  0  0  0  0  0  0  0
   26.0071   27.0716   49.1285 H   0  0  0  0  0  0  0  0  0  0  0  0
   34.4075   27.9019   48.4791 H   0  0  0  0  0  0  0  0  0  0  0  0
   34.6024   28.7602   50.5798 H   0  0  0  0  0  0  0  0  0  0  0  0
   36.5663   28.8287   52.1231 H   0  0  0  0  0  0  0  0  0  0  0  0
   38.2561   32.0303   49.8814 H   0  0  0  0  0  0  0  0  0  0  0  0
  1  5  1  0
  2  3  1  0
  2  1  2  0
  3  4  1  0
  4  5  2  0
  4  8  1  0
  6  7  1  0
  7  8  2  0
  7 12  1  0
  8  9  1  0
  9 10  2  0
 11 10  1  0
 12 11  2  0
 13  1  1  0
 13 15  1  0
 15 14  2  0
 15 16  1  0
 15 17  1  0
 17 18  1  0
 18 19  2  0
 19 20  1  0
 21 20  2  0
 22 21  1  0
 23 18  1  0
 23 22  2  0
  2 24  1  0
  3 25  1  0
  9 26  1  0
 10 27  1  0
 11 28  1  0
 12 29  1  0
 16 30  1  0
 19 31  1  0
 20 32  1  0
 22 33  1  0
M  ISO  8  24  14  25   9  26  14  27  14  28  14  29  14  30   3  31  14
M  ISO  2  32  14  33  14
M  END
>  <minimizedAffinity>  (1) 
-5.19903851

>  <minimizedRMSD>  (1) 
1.58708

$$$$
