
     RDKit          3D

 46 49  0  0  1  0  0  0  0  0999 V2000
   38.7280   31.4640   44.0810 C   0  0  0  0  0  0  0  0  0  0  0  0
   39.8150   30.6240   44.0140 C   0  0  0  0  0  0  0  0  0  0  0  0
   40.5390   30.6050   42.8290 C   0  0  0  0  0  0  0  0  0  0  0  0
   40.1190   31.4290   41.8010 C   0  0  0  0  0  0  0  0  0  0  0  0
   39.0170   32.2760   41.8750 C   0  0  0  0  0  0  0  0  0  0  0  0
   38.3470   32.2610   43.0430 N   0  0  0  0  0  0  0  0  0  0  0  0
   37.9410   31.5230   45.3300 C   0  0  0  0  0  0  0  0  0  0  0  0
   36.9370   30.8290   45.5150 O   0  0  0  0  0  0  0  0  0  0  0  0
   38.4100   32.4510   46.3510 N   0  0  0  0  0  0  0  0  0  0  0  0
   38.4500   31.4700   48.6350 C   0  0  2  0  0  0  0  0  0  0  0  0
   38.7400   32.9200   48.7910 C   0  0  0  0  0  0  0  0  0  0  0  0
   37.8360   32.3260   47.6750 C   0  0  1  0  0  0  0  0  0  0  0  0
   35.5940   29.6220   50.1240 C   0  0  0  0  0  0  0  0  0  0  0  0
   36.0390   29.4300   51.4730 C   0  0  0  0  0  0  0  0  0  0  0  0
   37.3220   29.9540   51.8380 C   0  0  0  0  0  0  0  0  0  0  0  0
   38.0790   30.6160   50.9020 N   0  0  0  0  0  0  0  0  0  0  0  0
   37.5860   30.7570   49.6460 C   0  0  0  0  0  0  0  0  0  0  0  0
   36.3530   30.2760   49.2210 N   0  0  0  0  0  0  0  0  0  0  0  0
   38.6320   33.1160   40.7470 C   0  0  0  0  0  0  0  0  0  0  0  0
   38.6810   34.3610   40.8840 O   0  0  0  0  0  0  0  0  0  0  0  0
   38.1830   32.6550   39.4350 C   0  0  0  0  0  0  0  0  0  0  0  0
   37.2590   31.4570   39.6820 C   0  0  0  0  0  0  0  0  0  0  0  0
   36.6790   30.9620   38.3900 C   0  0  0  0  0  0  0  0  0  0  0  0
   37.7070   30.6650   37.5180 O   0  0  0  0  0  0  0  0  0  0  0  0
   38.5180   31.7470   37.2250 C   0  0  0  0  0  0  0  0  0  0  0  0
   39.2480   32.2050   38.4960 C   0  0  0  0  0  0  0  0  0  0  0  0
   40.1003   29.9909   44.8671 H   0  0  0  0  0  0  0  0  0  0  0  0
   41.4187   29.9551   42.7119 H   0  0  0  0  0  0  0  0  0  0  0  0
   40.6936   31.4141   40.8631 H   0  0  0  0  0  0  0  0  0  0  0  0
   39.1204   33.1663   46.1399 H   0  0  0  0  0  0  0  0  0  0  0  0
   39.0984   30.5851   48.5537 H   0  0  0  0  0  0  0  0  0  0  0  0
   38.3026   33.4936   49.6215 H   0  0  0  0  0  0  0  0  0  0  0  0
   39.6351   33.5572   48.8428 H   0  0  0  0  0  0  0  0  0  0  0  0
   36.7983   32.4233   47.3232 H   0  0  0  0  0  0  0  0  0  0  0  0
   34.6134   29.2279   49.8190 H   0  0  0  0  0  0  0  0  0  0  0  0
   35.4150   28.8969   52.2054 H   0  0  0  0  0  0  0  0  0  0  0  0
   37.6991   29.8267   52.8635 H   0  0  0  0  0  0  0  0  0  0  0  0
   37.7094   33.5221   38.9513 H   0  0  0  0  0  0  0  0  0  0  0  0
   37.8353   30.6472   40.1533 H   0  0  0  0  0  0  0  0  0  0  0  0
   36.4373   31.7731   40.3414 H   0  0  0  0  0  0  0  0  0  0  0  0
   36.0816   30.0575   38.5770 H   0  0  0  0  0  0  0  0  0  0  0  0
   36.0339   31.7379   37.9520 H   0  0  0  0  0  0  0  0  0  0  0  0
   39.2567   31.4550   36.4640 H   0  0  0  0  0  0  0  0  0  0  0  0
   37.9001   32.5725   36.8419 H   0  0  0  0  0  0  0  0  0  0  0  0
   39.8166   31.3709   38.9329 H   0  0  0  0  0  0  0  0  0  0  0  0
   39.9666   33.0100   38.2826 H   0  0  0  0  0  0  0  0  0  0  0  0
  1  7  1  0
  2  1  2  0
  3  2  1  0
  4  5  1  0
  4  3  2  0
  5  6  2  0
  6  1  1  0
  7  8  2  0
  7  9  1  0
  9 12  1  0
 10 11  1  0
 10 17  1  0
 12 10  1  0
 12 11  1  0
 13 14  2  0
 14 15  1  0
 16 15  2  0
 17 16  1  0
 18 17  2  0
 18 13  1  0
 19 20  2  0
 19  5  1  0
 21 22  1  0
 21 19  1  0
 23 22  1  0
 24 23  1  0
 25 24  1  0
 25 26  1  0
 26 21  1  0
  2 27  1  0
  3 28  1  0
  4 29  1  0
  9 30  1  0
 10 31  1  6
 11 32  1  0
 11 33  1  0
 12 34  1  6
 13 35  1  0
 14 36  1  0
 15 37  1  0
 21 38  1  0
 22 39  1  0
 22 40  1  0
 23 41  1  0
 23 42  1  0
 25 43  1  0
 25 44  1  0
 26 45  1  0
 26 46  1  0
M  ISO  8  27  14  28  14  29  14  31  13  32  13  33  13  34  13  35  14
M  ISO  8  36  14  37  14  38  13  39  13  40  13  41  13  42  13  43  13
M  ISO  3  44  13  45  13  46  13
M  END
>  <minimizedAffinity>  (1) 
-5.30898046

>  <minimizedRMSD>  (1) 
1.33782423

$$$$
