
     RDKit          3D

 46 49  0  0  1  0  0  0  0  0999 V2000
   38.3600   31.8790   44.5130 C   0  0  0  0  0  0  0  0  0  0  0  0
   37.2640   32.4420   44.4110 O   0  0  0  0  0  0  0  0  0  0  0  0
   38.9310   31.5900   45.8210 N   0  0  0  0  0  0  0  0  0  0  0  0
   39.1530   31.4680   43.3350 C   0  0  0  0  0  0  0  0  0  0  0  0
   40.1360   30.5300   43.4770 C   0  0  0  0  0  0  0  0  0  0  0  0
   40.8590   30.1720   42.3570 C   0  0  0  0  0  0  0  0  0  0  0  0
   40.5420   30.7870   41.1590 C   0  0  0  0  0  0  0  0  0  0  0  0
   39.5440   31.7430   41.0030 C   0  0  0  0  0  0  0  0  0  0  0  0
   38.8820   32.0420   42.1310 N   0  0  0  0  0  0  0  0  0  0  0  0
   39.2640   32.3440   39.7130 C   0  0  0  0  0  0  0  0  0  0  0  0
   38.6380   33.4270   39.6780 O   0  0  0  0  0  0  0  0  0  0  0  0
   39.6310   31.8230   38.4460 N   0  0  0  0  0  0  0  0  0  0  0  0
   38.7010   30.9340   37.7790 C   0  0  0  0  0  0  0  0  0  0  0  0
   39.3000   29.5450   37.8370 C   0  0  0  0  0  0  0  0  0  0  0  0
   40.7430   29.6170   37.7230 N   0  0  0  0  0  0  0  0  0  0  0  0
   41.1010   30.7820   36.9020 C   0  0  0  0  0  0  0  0  0  0  0  0
   40.8510   32.0680   37.7030 C   0  0  0  0  0  0  0  0  0  0  0  0
   38.4290   31.0920   48.2050 C   0  0  2  0  0  0  0  0  0  0  0  0
   38.6610   32.5570   48.1090 C   0  0  0  0  0  0  0  0  0  0  0  0
   38.0650   31.7040   46.9700 C   0  0  1  0  0  0  0  0  0  0  0  0
   35.0560   30.2360   49.5240 C   0  0  0  0  0  0  0  0  0  0  0  0
   35.3930   29.5510   50.7400 C   0  0  0  0  0  0  0  0  0  0  0  0
   36.7960   29.4070   51.0870 C   0  0  0  0  0  0  0  0  0  0  0  0
   37.7470   29.9260   50.2470 N   0  0  0  0  0  0  0  0  0  0  0  0
   37.3420   30.5630   49.1090 C   0  0  0  0  0  0  0  0  0  0  0  0
   36.0180   30.7350   48.7200 N   0  0  0  0  0  0  0  0  0  0  0  0
   39.9181   31.3140   45.9226 H   0  0  0  0  0  0  0  0  0  0  0  0
   40.3453   30.0732   44.4556 H   0  0  0  0  0  0  0  0  0  0  0  0
   41.6614   29.4218   42.4151 H   0  0  0  0  0  0  0  0  0  0  0  0
   41.1194   30.4999   40.2679 H   0  0  0  0  0  0  0  0  0  0  0  0
   38.5662   31.2441   36.7323 H   0  0  0  0  0  0  0  0  0  0  0  0
   37.7155   30.9579   38.2670 H   0  0  0  0  0  0  0  0  0  0  0  0
   39.0343   29.0744   38.7951 H   0  0  0  0  0  0  0  0  0  0  0  0
   38.9034   28.9480   37.0026 H   0  0  0  0  0  0  0  0  0  0  0  0
   41.1589   29.7142   38.6603 H   0  0  0  0  0  0  0  0  0  0  0  0
   40.4849   30.7918   35.9908 H   0  0  0  0  0  0  0  0  0  0  0  0
   42.1639   30.7230   36.6249 H   0  0  0  0  0  0  0  0  0  0  0  0
   41.6879   32.2634   38.3896 H   0  0  0  0  0  0  0  0  0  0  0  0
   40.7640   32.9485   37.0495 H   0  0  0  0  0  0  0  0  0  0  0  0
   39.0803   30.2458   48.4690 H   0  0  0  0  0  0  0  0  0  0  0  0
   38.0302   33.2623   48.6700 H   0  0  0  0  0  0  0  0  0  0  0  0
   39.5126   33.2419   48.2339 H   0  0  0  0  0  0  0  0  0  0  0  0
   37.1436   31.6709   46.3700 H   0  0  0  0  0  0  0  0  0  0  0  0
   33.9990   30.3557   49.2439 H   0  0  0  0  0  0  0  0  0  0  0  0
   34.6070   29.1447   51.3936 H   0  0  0  0  0  0  0  0  0  0  0  0
   37.0914   28.8886   52.0111 H   0  0  0  0  0  0  0  0  0  0  0  0
  1  3  1  0
  2  1  2  0
  3 20  1  0
  4  5  2  0
  4  1  1  0
  6  5  1  0
  7  6  2  0
  8  7  1  0
  8  9  2  0
  9  4  1  0
 10  8  1  0
 11 10  2  0
 12 10  1  0
 13 14  1  0
 13 12  1  0
 15 14  1  0
 16 17  1  0
 16 15  1  0
 17 12  1  0
 18 25  1  0
 19 18  1  0
 20 19  1  0
 20 18  1  0
 21 22  2  0
 22 23  1  0
 24 23  2  0
 25 24  1  0
 26 25  2  0
 26 21  1  0
  3 27  1  0
  5 28  1  0
  6 29  1  0
  7 30  1  0
 13 31  1  0
 13 32  1  0
 14 33  1  0
 14 34  1  0
 15 35  1  0
 16 36  1  0
 16 37  1  0
 17 38  1  0
 17 39  1  0
 18 40  1  6
 19 41  1  0
 19 42  1  0
 20 43  1  6
 21 44  1  0
 22 45  1  0
 23 46  1  0
M  ISO  8  28  14  29  14  30  14  31  13  32  13  33  13  34  13  35   5
M  ISO  8  36  13  37  13  38  13  39  13  40  13  41  13  42  13  43  13
M  ISO  3  44  14  45  14  46  14
M  END
>  <minimizedAffinity>  (1) 
-5.23883581

>  <minimizedRMSD>  (1) 
0.382731676

$$$$
