
     RDKit          3D

 33 35  0  0  0  0  0  0  0  0999 V2000
   31.9060   29.3690   46.1660 C   0  0  0  0  0  0  0  0  0  0  0  0
   31.0060   28.9140   45.2220 C   0  0  0  0  0  0  0  0  0  0  0  0
   30.0100   28.2850   45.8480 N   0  0  0  0  0  0  0  0  0  0  0  0
   30.2300   28.3140   47.1670 C   0  0  0  0  0  0  0  0  0  0  0  0
   31.3910   28.9780   47.3500 N   0  0  0  0  0  0  0  0  0  0  0  0
   29.3990   27.7500   48.2220 C   0  0  0  0  0  0  0  0  0  0  0  0
   29.8480   27.6190   49.5390 C   0  0  0  0  0  0  0  0  0  0  0  0
   29.0570   27.0830   50.5380 C   0  0  0  0  0  0  0  0  0  0  0  0
   27.7870   26.6810   50.1490 C   0  0  0  0  0  0  0  0  0  0  0  0
   27.2850   26.7830   48.8680 C   0  0  0  0  0  0  0  0  0  0  0  0
   28.1240   27.3260   47.9160 C   0  0  0  0  0  0  0  0  0  0  0  0
   33.1020   30.0780   46.0110 O   0  0  0  0  0  0  0  0  0  0  0  0
   35.6600   29.8840   46.1740 O   0  0  0  0  0  0  0  0  0  0  0  0
   34.4040   29.6250   46.9760 P   0  0  2  0  0  0  0  0  0  0  0  0
   34.2680   27.9770   47.4120 O   0  0  0  0  0  0  0  0  0  0  0  0
   34.3740   30.5060   48.4430 O   0  0  0  0  0  0  0  0  0  0  0  0
   35.3850   30.3910   49.3940 C   0  0  0  0  0  0  0  0  0  0  0  0
   35.4520   29.4590   50.4290 C   0  0  0  0  0  0  0  0  0  0  0  0
   36.5330   29.4920   51.2810 C   0  0  0  0  0  0  0  0  0  0  0  0
   37.5060   30.4280   51.0950 N   0  0  0  0  0  0  0  0  0  0  0  0
   37.4060   31.3220   50.0700 C   0  0  0  0  0  0  0  0  0  0  0  0
   36.3540   31.3150   49.2150 N   0  0  0  0  0  0  0  0  0  0  0  0
   31.0958   29.0482   44.1339 H   0  0  0  0  0  0  0  0  0  0  0  0
   29.1995   27.8462   45.3882 H   0  0  0  0  0  0  0  0  0  0  0  0
   30.8655   27.9538   49.7892 H   0  0  0  0  0  0  0  0  0  0  0  0
   29.4114   26.9817   51.5744 H   0  0  0  0  0  0  0  0  0  0  0  0
   27.1317   26.2488   50.9195 H   0  0  0  0  0  0  0  0  0  0  0  0
   26.2674   26.4484   48.6179 H   0  0  0  0  0  0  0  0  0  0  0  0
   27.7638   27.4233   46.8812 H   0  0  0  0  0  0  0  0  0  0  0  0
   34.2613   27.8962   48.3987 H   0  0  0  0  0  0  0  0  0  0  0  0
   34.6561   28.7114   50.5623 H   0  0  0  0  0  0  0  0  0  0  0  0
   36.6108   28.7683   52.1057 H   0  0  0  0  0  0  0  0  0  0  0  0
   38.2012   32.0697   49.9332 H   0  0  0  0  0  0  0  0  0  0  0  0
  1  5  1  0
  2  3  1  0
  2  1  2  0
  3  4  1  0
  4  5  2  0
  4  6  1  0
  6  7  2  0
  7  8  1  0
  9  8  2  0
 10  9  1  0
 11  6  1  0
 11 10  2  0
 12  1  1  0
 12 14  1  0
 14 13  2  0
 14 15  1  0
 14 16  1  0
 16 17  1  0
 17 18  2  0
 18 19  1  0
 20 19  2  0
 21 20  1  0
 22 17  1  0
 22 21  2  0
  2 23  1  0
  3 24  1  0
  7 25  1  0
  8 26  1  0
  9 27  1  0
 10 28  1  0
 11 29  1  0
 15 30  1  0
 18 31  1  0
 19 32  1  0
 21 33  1  0
M  ISO  8  23  14  24   9  25  14  26  14  27  14  28  14  29  14  30   3
M  ISO  3  31  14  32  14  33  14
M  END
>  <minimizedAffinity>  (1) 
-5.01099253

>  <minimizedRMSD>  (1) 
1.39471495

$$$$
