
     RDKit          3D

 35 37  0  0  0  0  0  0  0  0999 V2000
   35.6310   29.9260   46.2440 O   0  0  0  0  0  0  0  0  0  0  0  0
   34.3290   29.6270   46.9860 P   0  0  1  0  0  0  0  0  0  0  0  0
   34.1410   27.9700   47.2820 O   0  0  0  0  0  0  0  0  0  0  0  0
   34.2640   30.4250   48.5030 O   0  0  0  0  0  0  0  0  0  0  0  0
   35.3120   30.3410   49.4220 C   0  0  0  0  0  0  0  0  0  0  0  0
   35.4430   29.3960   50.4390 C   0  0  0  0  0  0  0  0  0  0  0  0
   36.5490   29.4700   51.2530 C   0  0  0  0  0  0  0  0  0  0  0  0
   37.4770   30.4410   51.0550 N   0  0  0  0  0  0  0  0  0  0  0  0
   37.3160   31.3590   50.0380 C   0  0  0  0  0  0  0  0  0  0  0  0
   36.2310   31.3070   49.2220 N   0  0  0  0  0  0  0  0  0  0  0  0
   33.0880   30.1990   45.9870 O   0  0  0  0  0  0  0  0  0  0  0  0
   31.7960   29.7110   46.2270 C   0  0  0  0  0  0  0  0  0  0  0  0
   30.6140   29.9920   45.5860 C   0  0  0  0  0  0  0  0  0  0  0  0
   29.6450   29.2850   46.1700 N   0  0  0  0  0  0  0  0  0  0  0  0
   30.1580   28.5450   47.1790 C   0  0  0  0  0  0  0  0  0  0  0  0
   31.4830   28.8190   47.1990 N   0  0  0  0  0  0  0  0  0  0  0  0
   29.3850   27.6850   47.9970 N   0  0  0  0  0  0  0  0  0  0  0  0
   29.3680   27.4790   49.4360 C   0  0  0  0  0  0  0  0  0  0  0  0
   28.0450   26.8480   49.7480 C   0  0  0  0  0  0  0  0  0  0  0  0
   27.2450   27.0440   48.4530 C   0  0  0  0  0  0  0  0  0  0  0  0
   28.3710   26.7740   47.4470 C   0  0  0  0  0  0  0  0  0  0  0  0
   34.1228   27.8092   48.2587 H   0  0  0  0  0  0  0  0  0  0  0  0
   34.6836   28.6139   50.5859 H   0  0  0  0  0  0  0  0  0  0  0  0
   36.6820   28.7411   52.0660 H   0  0  0  0  0  0  0  0  0  0  0  0
   38.0741   32.1414   49.8861 H   0  0  0  0  0  0  0  0  0  0  0  0
   30.4882   30.6809   44.7377 H   0  0  0  0  0  0  0  0  0  0  0  0
   28.6530   29.3005   45.8933 H   0  0  0  0  0  0  0  0  0  0  0  0
   30.1897   26.8121   49.7363 H   0  0  0  0  0  0  0  0  0  0  0  0
   29.5007   28.4259   49.9799 H   0  0  0  0  0  0  0  0  0  0  0  0
   28.1633   25.7793   49.9800 H   0  0  0  0  0  0  0  0  0  0  0  0
   27.5544   27.2902   50.6277 H   0  0  0  0  0  0  0  0  0  0  0  0
   26.4232   26.3188   48.3597 H   0  0  0  0  0  0  0  0  0  0  0  0
   26.7339   28.0125   48.3493 H   0  0  0  0  0  0  0  0  0  0  0  0
   28.0831   27.0467   46.4210 H   0  0  0  0  0  0  0  0  0  0  0  0
   28.6793   25.7226   47.3490 H   0  0  0  0  0  0  0  0  0  0  0  0
  2  1  2  0
  2  3  1  0
  2  4  1  0
  4  5  1  0
  5  6  2  0
  6  7  1  0
  8  7  2  0
  9  8  1  0
 10  5  1  0
 10  9  2  0
 11 12  1  0
 11  2  1  0
 12 16  1  0
 13 14  1  0
 13 12  2  0
 14 15  1  0
 15 16  2  0
 15 17  1  0
 17 18  1  0
 18 19  1  0
 20 19  1  0
 21 17  1  0
 21 20  1  0
  3 22  1  0
  6 23  1  0
  7 24  1  0
  9 25  1  0
 13 26  1  0
 14 27  1  0
 18 28  1  0
 18 29  1  0
 19 30  1  0
 19 31  1  0
 20 32  1  0
 20 33  1  0
 21 34  1  0
 21 35  1  0
M  ISO  8  22   3  23  14  24  14  25  14  26  14  27   9  28  13  29  13
M  ISO  6  30  13  31  13  32  13  33  13  34  13  35  13
M  END
>  <minimizedAffinity>  (1) 
-4.88948917

>  <minimizedRMSD>  (1) 
1.31345701

$$$$
