
     RDKit          3D

 29 30  0  0  0  0  0  0  0  0999 V2000
   38.3250   31.6130   47.5830 Cl  0  0  0  0  0  0  0  0  0  0  0  0
   36.9560   30.8100   46.8490 C   0  0  0  0  0  0  0  0  0  0  0  0
   36.9060   30.6700   45.4690 C   0  0  0  0  0  0  0  0  0  0  0  0
   35.8600   30.0570   44.8640 C   0  0  0  0  0  0  0  0  0  0  0  0
   34.8100   29.5490   45.5950 C   0  0  0  0  0  0  0  0  0  0  0  0
   34.8220   29.6670   46.9580 C   0  0  0  0  0  0  0  0  0  0  0  0
   33.5650   29.0790   48.0260 Cl  0  0  0  0  0  0  0  0  0  0  0  0
   35.8950   30.2960   47.5510 C   0  0  0  0  0  0  0  0  0  0  0  0
   39.0110   32.8970   43.4550 C   0  0  0  0  0  0  0  0  0  0  0  0
   40.1240   32.1200   43.1620 C   0  0  0  0  0  0  0  0  0  0  0  0
   40.1400   30.8080   43.6700 C   0  0  0  0  0  0  0  0  0  0  0  0
   39.0730   30.4050   44.4030 N   0  0  0  0  0  0  0  0  0  0  0  0
   37.9960   31.1960   44.6720 C   0  0  0  0  0  0  0  0  0  0  0  0
   37.9950   32.4320   44.1860 N   0  0  0  0  0  0  0  0  0  0  0  0
   35.9660   30.4540   49.0580 C   0  0  0  0  0  0  0  0  0  0  0  0
   36.6370   29.3200   49.4960 O   0  0  0  0  0  0  0  0  0  0  0  0
   36.6420   29.8730   52.0050 O   0  0  0  0  0  0  0  0  0  0  0  0
   37.5870   29.5710   50.8500 P   0  0  0  0  0  0  0  0  0  0  0  0
   38.7380   30.7620   50.6660 O   0  0  0  0  0  0  0  0  0  0  0  0
   38.3290   28.0850   51.2310 O   0  0  0  0  0  0  0  0  0  0  0  0
   35.8497   29.9635   43.7680 H   0  0  0  0  0  0  0  0  0  0  0  0
   33.9692   29.0529   45.0881 H   0  0  0  0  0  0  0  0  0  0  0  0
   38.9649   33.9275   43.0730 H   0  0  0  0  0  0  0  0  0  0  0  0
   40.9562   32.5128   42.5595 H   0  0  0  0  0  0  0  0  0  0  0  0
   40.9877   30.1335   43.4793 H   0  0  0  0  0  0  0  0  0  0  0  0
   36.5228   31.3635   49.3276 H   0  0  0  0  0  0  0  0  0  0  0  0
   34.9705   30.5533   49.5152 H   0  0  0  0  0  0  0  0  0  0  0  0
   39.0375   31.0719   51.5572 H   0  0  0  0  0  0  0  0  0  0  0  0
   38.3795   27.9839   52.2145 H   0  0  0  0  0  0  0  0  0  0  0  0
  2  8  2  0
  2  1  1  0
  3  2  1  0
  4  3  2  0
  4  5  1  0
  5  6  2  0
  6  8  1  0
  6  7  1  0
  8 15  1  0
  9 14  2  0
 10  9  1  0
 10 11  2  0
 11 12  1  0
 12 13  2  0
 13  3  1  0
 14 13  1  0
 15 16  1  0
 16 18  1  0
 18 20  1  0
 18 17  2  0
 19 18  1  0
  4 21  1  0
  5 22  1  0
  9 23  1  0
 10 24  1  0
 11 25  1  0
 15 26  1  0
 15 27  1  0
 19 28  1  0
 20 29  1  0
M  ISO  8  21  14  22  14  23  14  24  14  25  14  26   8  27   8  28   3
M  ISO  1  29   3
M  END
>  <minimizedAffinity>  (1) 
-5.17933369

>  <minimizedRMSD>  (1) 
2.22003508

$$$$
