
     RDKit          3D

 33 35  0  0  0  0  0  0  0  0999 V2000
   37.5440   32.0750   48.1410 Cl  0  0  0  0  0  0  0  0  0  0  0  0
   36.6760   31.0970   47.0040 C   0  0  0  0  0  0  0  0  0  0  0  0
   37.2040   30.8870   45.7360 C   0  0  0  0  0  0  0  0  0  0  0  0
   36.5520   30.1240   44.8010 C   0  0  0  0  0  0  0  0  0  0  0  0
   35.3430   29.5400   45.0960 C   0  0  0  0  0  0  0  0  0  0  0  0
   34.7840   29.7260   46.3490 C   0  0  0  0  0  0  0  0  0  0  0  0
   33.2500   29.0360   46.8460 Cl  0  0  0  0  0  0  0  0  0  0  0  0
   35.4810   30.5050   47.2620 C   0  0  0  0  0  0  0  0  0  0  0  0
   39.7630   33.2210   44.5410 C   0  0  0  0  0  0  0  0  0  0  0  0
   40.9600   32.5540   44.8090 C   0  0  0  0  0  0  0  0  0  0  0  0
   40.8700   31.2720   45.4150 C   0  0  0  0  0  0  0  0  0  0  0  0
   39.6300   30.7970   45.6840 N   0  0  0  0  0  0  0  0  0  0  0  0
   38.4830   31.4860   45.4040 C   0  0  0  0  0  0  0  0  0  0  0  0
   38.5780   32.6820   44.8390 N   0  0  0  0  0  0  0  0  0  0  0  0
   34.8920   30.7000   48.6220 C   0  0  0  0  0  0  0  0  0  0  0  0
   35.2750   27.9670   49.1190 F   0  0  0  0  0  0  0  0  0  0  0  0
   35.9790   28.8830   49.8600 C   0  0  0  0  0  0  0  0  0  0  0  0
   35.8480   30.2580   49.6770 C   0  0  0  0  0  0  0  0  0  0  0  0
   36.6040   31.0970   50.4760 C   0  0  0  0  0  0  0  0  0  0  0  0
   37.4630   30.5960   51.4260 C   0  0  0  0  0  0  0  0  0  0  0  0
   37.5820   29.2140   51.5960 C   0  0  0  0  0  0  0  0  0  0  0  0
   36.8320   28.3500   50.8050 C   0  0  0  0  0  0  0  0  0  0  0  0
   37.0002   29.9782   43.8071 H   0  0  0  0  0  0  0  0  0  0  0  0
   34.8237   28.9297   44.3425 H   0  0  0  0  0  0  0  0  0  0  0  0
   39.7969   34.2157   44.0725 H   0  0  0  0  0  0  0  0  0  0  0  0
   41.9332   33.0028   44.5611 H   0  0  0  0  0  0  0  0  0  0  0  0
   41.7709   30.6886   45.6561 H   0  0  0  0  0  0  0  0  0  0  0  0
   34.6617   31.7659   48.7666 H   0  0  0  0  0  0  0  0  0  0  0  0
   33.9747   30.0980   48.7004 H   0  0  0  0  0  0  0  0  0  0  0  0
   36.5163   32.1861   50.3490 H   0  0  0  0  0  0  0  0  0  0  0  0
   38.0549   31.2814   52.0505 H   0  0  0  0  0  0  0  0  0  0  0  0
   38.2682   28.8098   52.3548 H   0  0  0  0  0  0  0  0  0  0  0  0
   36.9173   27.2605   50.9305 H   0  0  0  0  0  0  0  0  0  0  0  0
  2  8  2  0
  2  1  1  0
  3  2  1  0
  4  5  1  0
  4  3  2  0
  5  6  2  0
  6  7  1  0
  6  8  1  0
  8 15  1  0
  9 10  2  0
  9 14  1  0
 10 11  1  0
 11 12  2  0
 13 12  1  0
 13  3  1  0
 14 13  2  0
 15 18  1  0
 16 17  1  0
 17 22  2  0
 18 17  1  0
 18 19  2  0
 19 20  1  0
 20 21  2  0
 22 21  1  0
  4 23  1  0
  5 24  1  0
  9 25  1  0
 10 26  1  0
 11 27  1  0
 15 28  1  0
 15 29  1  0
 19 30  1  0
 20 31  1  0
 21 32  1  0
 22 33  1  0
M  ISO  8  23  14  24  14  25  14  26  14  27  14  28   8  29   8  30  14
M  ISO  3  31  14  32  14  33  14
M  END
>  <minimizedAffinity>  (1) 
-5.51169682

>  <minimizedRMSD>  (1) 
2.44698358

$$$$
