
     RDKit          3D

 40 43  0  0  0  0  0  0  0  0999 V2000
   37.3880   30.2830   51.2430 C   0  0  0  0  0  0  0  0  0  0  0  0
   37.9070   30.9040   50.0890 C   0  0  0  0  0  0  0  0  0  0  0  0
   37.3290   30.6080   48.8380 C   0  0  0  0  0  0  0  0  0  0  0  0
   36.2880   29.7230   48.8610 N   0  0  0  0  0  0  0  0  0  0  0  0
   35.8230   29.1560   49.9670 C   0  0  0  0  0  0  0  0  0  0  0  0
   36.3640   29.4270   51.1660 N   0  0  0  0  0  0  0  0  0  0  0  0
   37.2990   30.8640   46.3570 C   0  0  0  0  0  0  0  0  0  0  0  0
   37.7950   31.1980   47.5920 C   0  0  0  0  0  0  0  0  0  0  0  0
   38.7940   32.1450   47.6630 C   0  0  0  0  0  0  0  0  0  0  0  0
   39.2460   32.7140   46.4720 C   0  0  0  0  0  0  0  0  0  0  0  0
   40.1830   33.6430   46.2000 N   0  0  0  0  0  0  0  0  0  0  0  0
   40.2490   33.8600   44.8630 C   0  0  0  0  0  0  0  0  0  0  0  0
   39.3490   33.0670   44.2730 N   0  0  0  0  0  0  0  0  0  0  0  0
   38.7260   32.3590   45.2300 C   0  0  0  0  0  0  0  0  0  0  0  0
   37.7130   31.3970   45.1770 C   0  0  0  0  0  0  0  0  0  0  0  0
   34.7270   28.2430   49.7840 C   0  0  0  0  0  0  0  0  0  0  0  0
   34.2920   27.9780   48.6030 C   0  0  0  0  0  0  0  0  0  0  0  0
   33.2090   27.0830   48.1810 C   0  0  0  0  0  0  0  0  0  0  0  0
   33.6350   26.0780   47.1560 C   0  0  0  0  0  0  0  0  0  0  0  0
   33.8350   24.7290   47.3940 C   0  0  0  0  0  0  0  0  0  0  0  0
   34.2270   23.9020   46.3490 C   0  0  0  0  0  0  0  0  0  0  0  0
   34.4230   24.4130   45.0550 C   0  0  0  0  0  0  0  0  0  0  0  0
   34.2250   25.7460   44.8270 C   0  0  0  0  0  0  0  0  0  0  0  0
   33.8360   26.5620   45.8660 C   0  0  0  0  0  0  0  0  0  0  0  0
   37.8332   30.5065   52.2238 H   0  0  0  0  0  0  0  0  0  0  0  0
   38.7490   31.6079   50.1635 H   0  0  0  0  0  0  0  0  0  0  0  0
   36.5036   30.1051   46.3188 H   0  0  0  0  0  0  0  0  0  0  0  0
   39.2226   32.4436   48.6310 H   0  0  0  0  0  0  0  0  0  0  0  0
   40.7643   34.1189   46.9046 H   0  0  0  0  0  0  0  0  0  0  0  0
   40.9238   34.5640   44.3540 H   0  0  0  0  0  0  0  0  0  0  0  0
   37.2694   31.0844   44.2202 H   0  0  0  0  0  0  0  0  0  0  0  0
   34.2582   27.7687   50.6588 H   0  0  0  0  0  0  0  0  0  0  0  0
   34.8103   28.5015   47.7861 H   0  0  0  0  0  0  0  0  0  0  0  0
   32.8375   26.5439   49.0649 H   0  0  0  0  0  0  0  0  0  0  0  0
   32.4312   27.7089   47.7192 H   0  0  0  0  0  0  0  0  0  0  0  0
   33.6848   24.3154   48.4022 H   0  0  0  0  0  0  0  0  0  0  0  0
   34.3865   22.8301   46.5376 H   0  0  0  0  0  0  0  0  0  0  0  0
   34.7322   23.7481   44.2350 H   0  0  0  0  0  0  0  0  0  0  0  0
   34.3753   26.1641   43.8207 H   0  0  0  0  0  0  0  0  0  0  0  0
   33.6787   27.6329   45.6700 H   0  0  0  0  0  0  0  0  0  0  0  0
  2  1  2  0
  3  4  2  0
  3  2  1  0
  4  5  1  0
  5  6  2  0
  6  1  1  0
  7  8  2  0
  8  9  1  0
  8  3  1  0
 10  9  2  0
 11 10  1  0
 12 11  1  0
 13 12  2  0
 13 14  1  0
 14 10  1  0
 15 14  2  0
 15  7  1  0
 16  5  1  0
 17 16  2  0
 18 17  1  0
 19 20  2  0
 19 18  1  0
 21 20  1  0
 22 21  2  0
 23 22  1  0
 23 24  2  0
 24 19  1  0
  1 25  1  0
  2 26  1  0
  7 27  1  0
  9 28  1  0
 11 29  1  0
 12 30  1  0
 15 31  1  0
 16 32  1  0
 17 33  1  0
 18 34  1  0
 18 35  1  0
 20 36  1  0
 21 37  1  0
 22 38  1  0
 23 39  1  0
 24 40  1  0
M  ISO  8  25  14  26  14  27  14  28  14  29   9  30  14  31  14  34   8
M  ISO  6  35   8  36  14  37  14  38  14  39  14  40  14
M  END
>  <minimizedAffinity>  (1) 
-6.95354605

>  <minimizedRMSD>  (1) 
1.04395592

$$$$
