
     RDKit          3D

 37 39  0  0  0  0  0  0  0  0999 V2000
   37.3540   30.1820   51.5520 C   0  0  0  0  0  0  0  0  0  0  0  0
   38.0930   30.8630   50.5650 C   0  0  0  0  0  0  0  0  0  0  0  0
   37.7190   30.6880   49.2210 C   0  0  0  0  0  0  0  0  0  0  0  0
   36.6550   29.8620   48.9760 N   0  0  0  0  0  0  0  0  0  0  0  0
   35.9800   29.2330   49.9580 C   0  0  0  0  0  0  0  0  0  0  0  0
   36.3360   29.3990   51.2370 N   0  0  0  0  0  0  0  0  0  0  0  0
   38.9300   33.3200   49.0650 F   0  0  0  0  0  0  0  0  0  0  0  0
   38.9230   32.5330   47.9710 C   0  0  0  0  0  0  0  0  0  0  0  0
   38.3470   31.2960   48.0660 C   0  0  0  0  0  0  0  0  0  0  0  0
   38.3900   30.5690   46.8980 C   0  0  0  0  0  0  0  0  0  0  0  0
   38.9660   31.0580   45.7430 C   0  0  0  0  0  0  0  0  0  0  0  0
   39.5340   32.3120   45.6960 C   0  0  0  0  0  0  0  0  0  0  0  0
   39.5100   33.0690   46.8470 C   0  0  0  0  0  0  0  0  0  0  0  0
   34.8870   28.4070   49.5220 C   0  0  0  0  0  0  0  0  0  0  0  0
   34.2980   28.6630   48.3950 C   0  0  0  0  0  0  0  0  0  0  0  0
   33.1730   27.9550   47.7660 C   0  0  0  0  0  0  0  0  0  0  0  0
   33.6230   26.8100   46.9110 C   0  0  0  0  0  0  0  0  0  0  0  0
   33.8240   25.5110   47.3510 C   0  0  0  0  0  0  0  0  0  0  0  0
   34.2390   24.5350   46.4790 C   0  0  0  0  0  0  0  0  0  0  0  0
   34.4690   24.8310   45.1230 C   0  0  0  0  0  0  0  0  0  0  0  0
   34.2720   26.1180   44.6770 C   0  0  0  0  0  0  0  0  0  0  0  0
   33.8550   27.0860   45.5660 C   0  0  0  0  0  0  0  0  0  0  0  0
   37.6302   30.3044   52.6097 H   0  0  0  0  0  0  0  0  0  0  0  0
   38.9378   31.5126   50.8377 H   0  0  0  0  0  0  0  0  0  0  0  0
   37.9491   29.5613   46.8846 H   0  0  0  0  0  0  0  0  0  0  0  0
   38.9716   30.4316   44.8388 H   0  0  0  0  0  0  0  0  0  0  0  0
   39.9908   32.6957   44.7718 H   0  0  0  0  0  0  0  0  0  0  0  0
   39.9493   34.0773   46.8673 H   0  0  0  0  0  0  0  0  0  0  0  0
   34.5518   27.5619   50.1412 H   0  0  0  0  0  0  0  0  0  0  0  0
   34.6924   29.5240   47.8355 H   0  0  0  0  0  0  0  0  0  0  0  0
   32.5136   27.5674   48.5565 H   0  0  0  0  0  0  0  0  0  0  0  0
   32.6477   28.6711   47.1170 H   0  0  0  0  0  0  0  0  0  0  0  0
   33.6496   25.2600   48.4077 H   0  0  0  0  0  0  0  0  0  0  0  0
   34.3935   23.5093   46.8450 H   0  0  0  0  0  0  0  0  0  0  0  0
   34.8016   24.0449   44.4291 H   0  0  0  0  0  0  0  0  0  0  0  0
   34.4456   26.3721   43.6209 H   0  0  0  0  0  0  0  0  0  0  0  0
   33.7002   28.1117   45.2001 H   0  0  0  0  0  0  0  0  0  0  0  0
  2  1  2  0
  3  2  1  0
  4  3  2  0
  4  5  1  0
  5  6  2  0
  6  1  1  0
  8  9  2  0
  8  7  1  0
  9  3  1  0
 10  9  1  0
 11 10  2  0
 12 11  1  0
 12 13  2  0
 13  8  1  0
 14  5  1  0
 15 14  2  0
 16 15  1  0
 17 18  2  0
 17 16  1  0
 19 18  1  0
 20 19  2  0
 21 20  1  0
 21 22  2  0
 22 17  1  0
  1 23  1  0
  2 24  1  0
 10 25  1  0
 11 26  1  0
 12 27  1  0
 13 28  1  0
 14 29  1  0
 15 30  1  0
 16 31  1  0
 16 32  1  0
 18 33  1  0
 19 34  1  0
 20 35  1  0
 21 36  1  0
 22 37  1  0
M  ISO  8  23  14  24  14  25  14  26  14  27  14  28  14  31   8  32   8
M  ISO  5  33  14  34  14  35  14  36  14  37  14
M  END
>  <minimizedAffinity>  (1) 
-6.61141682

>  <minimizedRMSD>  (1) 
0.886293292

$$$$
