
     RDKit          3D

 40 42  0  0  0  0  0  0  0  0999 V2000
   37.3070   30.0610   51.6300 C   0  0  0  0  0  0  0  0  0  0  0  0
   38.0570   30.6320   50.5880 C   0  0  0  0  0  0  0  0  0  0  0  0
   37.6070   30.5530   49.2620 C   0  0  0  0  0  0  0  0  0  0  0  0
   36.4180   29.8920   49.1120 N   0  0  0  0  0  0  0  0  0  0  0  0
   35.7210   29.3590   50.1060 C   0  0  0  0  0  0  0  0  0  0  0  0
   36.1660   29.4450   51.3510 N   0  0  0  0  0  0  0  0  0  0  0  0
   38.7910   32.3150   47.8600 C   0  0  0  0  0  0  0  0  0  0  0  0
   38.2080   31.1150   48.0760 C   0  0  0  0  0  0  0  0  0  0  0  0
   38.2280   30.2840   46.9560 C   0  0  0  0  0  0  0  0  0  0  0  0
   38.7650   30.5990   45.7390 C   0  0  0  0  0  0  0  0  0  0  0  0
   39.3400   31.8340   45.5820 C   0  0  0  0  0  0  0  0  0  0  0  0
   39.3480   32.6920   46.6560 C   0  0  0  0  0  0  0  0  0  0  0  0
   38.9540   33.4670   49.1520 S   0  0  0  0  0  0  0  0  0  0  0  0
   37.6370   34.0390   49.5940 O   0  0  0  0  0  0  0  0  0  0  0  0
   39.8350   34.6360   48.6390 O   0  0  0  0  0  0  0  0  0  0  0  0
   34.4800   28.6980   49.7320 C   0  0  0  0  0  0  0  0  0  0  0  0
   34.4370   28.0160   48.6190 C   0  0  0  0  0  0  0  0  0  0  0  0
   33.2930   27.2810   48.0650 C   0  0  0  0  0  0  0  0  0  0  0  0
   33.7140   26.2500   47.0560 C   0  0  0  0  0  0  0  0  0  0  0  0
   33.9600   24.9250   47.3090 C   0  0  0  0  0  0  0  0  0  0  0  0
   34.3420   24.0660   46.3050 C   0  0  0  0  0  0  0  0  0  0  0  0
   34.4910   24.5240   44.9880 C   0  0  0  0  0  0  0  0  0  0  0  0
   34.2440   25.8590   44.7270 C   0  0  0  0  0  0  0  0  0  0  0  0
   33.8590   26.7140   45.7440 C   0  0  0  0  0  0  0  0  0  0  0  0
   37.6633   30.1244   52.6688 H   0  0  0  0  0  0  0  0  0  0  0  0
   39.0037   31.1446   50.8138 H   0  0  0  0  0  0  0  0  0  0  0  0
   37.7720   29.2885   47.0611 H   0  0  0  0  0  0  0  0  0  0  0  0
   38.7366   29.8802   44.9069 H   0  0  0  0  0  0  0  0  0  0  0  0
   39.7839   32.1308   44.6203 H   0  0  0  0  0  0  0  0  0  0  0  0
   39.8028   33.6884   46.5542 H   0  0  0  0  0  0  0  0  0  0  0  0
   39.5074   32.8181   50.2242 H   0  0  0  0  0  0  0  0  0  0  0  0
   33.5917   28.7715   50.3767 H   0  0  0  0  0  0  0  0  0  0  0  0
   35.3647   27.9891   48.0286 H   0  0  0  0  0  0  0  0  0  0  0  0
   32.7645   26.7765   48.8873 H   0  0  0  0  0  0  0  0  0  0  0  0
   32.6416   28.0058   47.5548 H   0  0  0  0  0  0  0  0  0  0  0  0
   33.8498   24.5418   48.3342 H   0  0  0  0  0  0  0  0  0  0  0  0
   34.5328   23.0080   46.5377 H   0  0  0  0  0  0  0  0  0  0  0  0
   34.7965   23.8389   44.1835 H   0  0  0  0  0  0  0  0  0  0  0  0
   34.3545   26.2443   43.7026 H   0  0  0  0  0  0  0  0  0  0  0  0
   33.6642   27.7728   45.5182 H   0  0  0  0  0  0  0  0  0  0  0  0
  2  1  2  0
  3  2  1  0
  4  3  2  0
  4  5  1  0
  5  6  2  0
  6  1  1  0
  7  8  2  0
  7 13  1  0
  8  3  1  0
  9  8  1  0
 10  9  2  0
 11 10  1  0
 11 12  2  0
 12  7  1  0
 13 14  2  0
 15 13  2  0
 16  5  1  0
 17 16  2  0
 18 17  1  0
 19 20  2  0
 19 18  1  0
 21 20  1  0
 22 21  2  0
 23 22  1  0
 23 24  2  0
 24 19  1  0
  1 25  1  0
  2 26  1  0
  9 27  1  0
 10 28  1  0
 11 29  1  0
 12 30  1  0
 13 31  1  0
 16 32  1  0
 17 33  1  0
 18 34  1  0
 18 35  1  0
 20 36  1  0
 21 37  1  0
 22 38  1  0
 23 39  1  0
 24 40  1  0
M  ISO  8  25  14  26  14  27  14  28  14  29  14  30  14  31  11  34   8
M  ISO  6  35   8  36  14  37  14  38  14  39  14  40  14
M  END
>  <minimizedAffinity>  (1) 
-6.48483181

>  <minimizedRMSD>  (1) 
0.698135257

$$$$
