
     RDKit          3D

 36 38  0  0  0  0  0  0  0  0999 V2000
   36.7590   29.3730   49.4050 C   0  0  0  0  0  0  0  0  0  0  0  0
   35.5090   29.2850   49.0630 C   0  0  0  0  0  0  0  0  0  0  0  0
   38.3710   32.6510   49.6820 C   0  0  0  0  0  0  0  0  0  0  0  0
   38.8770   32.8310   48.3740 C   0  0  0  0  0  0  0  0  0  0  0  0
   38.6360   31.7990   47.4430 C   0  0  0  0  0  0  0  0  0  0  0  0
   37.9420   30.7140   47.8590 N   0  0  0  0  0  0  0  0  0  0  0  0
   37.4790   30.5850   49.1120 C   0  0  0  0  0  0  0  0  0  0  0  0
   37.6950   31.5510   50.0170 N   0  0  0  0  0  0  0  0  0  0  0  0
   39.0990   31.8520   46.0620 C   0  0  0  0  0  0  0  0  0  0  0  0
   40.1790   31.1740   45.6000 C   0  0  0  0  0  0  0  0  0  0  0  0
   40.6320   31.2160   44.2820 C   0  0  0  0  0  0  0  0  0  0  0  0
   39.9510   31.9910   43.3680 C   0  0  0  0  0  0  0  0  0  0  0  0
   38.8580   32.6680   43.8640 C   0  0  0  0  0  0  0  0  0  0  0  0
   38.4490   32.6050   45.1450 N   0  0  0  0  0  0  0  0  0  0  0  0
   34.5800   28.1650   49.2550 C   0  0  0  0  0  0  0  0  0  0  0  0
   34.0910   27.5860   47.9600 C   0  0  0  0  0  0  0  0  0  0  0  0
   33.7540   26.2620   47.7530 C   0  0  0  0  0  0  0  0  0  0  0  0
   33.3150   25.8460   46.5160 C   0  0  0  0  0  0  0  0  0  0  0  0
   33.1980   26.7410   45.4460 C   0  0  0  0  0  0  0  0  0  0  0  0
   33.5340   28.0650   45.6490 C   0  0  0  0  0  0  0  0  0  0  0  0
   33.9730   28.4780   46.8910 C   0  0  0  0  0  0  0  0  0  0  0  0
   37.2599   28.5344   49.9108 H   0  0  0  0  0  0  0  0  0  0  0  0
   35.0899   30.1698   48.5615 H   0  0  0  0  0  0  0  0  0  0  0  0
   38.5380   33.4328   50.4375 H   0  0  0  0  0  0  0  0  0  0  0  0
   39.4347   33.7370   48.0944 H   0  0  0  0  0  0  0  0  0  0  0  0
   40.7353   30.5485   46.3136 H   0  0  0  0  0  0  0  0  0  0  0  0
   41.5181   30.6402   43.9767 H   0  0  0  0  0  0  0  0  0  0  0  0
   40.2590   32.0641   42.3145 H   0  0  0  0  0  0  0  0  0  0  0  0
   38.2839   33.2993   43.1698 H   0  0  0  0  0  0  0  0  0  0  0  0
   35.0947   27.3747   49.8211 H   0  0  0  0  0  0  0  0  0  0  0  0
   33.7039   28.5508   49.7968 H   0  0  0  0  0  0  0  0  0  0  0  0
   33.8366   25.5390   48.5779 H   0  0  0  0  0  0  0  0  0  0  0  0
   33.0508   24.7888   46.3655 H   0  0  0  0  0  0  0  0  0  0  0  0
   32.8453   26.3964   44.4627 H   0  0  0  0  0  0  0  0  0  0  0  0
   33.4521   28.7880   44.8240 H   0  0  0  0  0  0  0  0  0  0  0  0
   34.2363   29.5352   47.0428 H   0  0  0  0  0  0  0  0  0  0  0  0
  2 15  1  0
  2  1  2  0
  3  8  2  0
  4  3  1  0
  5  6  1  0
  5  4  2  0
  6  7  2  0
  7  1  1  0
  7  8  1  0
  9  5  1  0
 10  9  2  0
 11 10  1  0
 12 13  1  0
 12 11  2  0
 13 14  2  0
 14  9  1  0
 16 15  1  0
 17 16  2  0
 18 17  1  0
 19 20  1  0
 19 18  2  0
 20 21  2  0
 21 16  1  0
  1 22  1  0
  2 23  1  0
  3 24  1  0
  4 25  1  0
 10 26  1  0
 11 27  1  0
 12 28  1  0
 13 29  1  0
 15 30  1  0
 15 31  1  0
 17 32  1  0
 18 33  1  0
 19 34  1  0
 20 35  1  0
 21 36  1  0
M  ISO  8  24  14  25  14  26  14  27  14  28  14  29  14  30   8  31   8
M  ISO  5  32  14  33  14  34  14  35  14  36  14
M  END
>  <minimizedAffinity>  (1) 
-6.20851135

>  <minimizedRMSD>  (1) 
2.29255557

$$$$
