
     RDKit          3D

 29 31  0  0  0  0  0  0  0  0999 V2000
   33.0320   30.4920   46.2850 O   0  0  0  0  0  0  0  0  0  0  0  0
   31.9220   29.6910   45.9930 C   0  0  0  0  0  0  0  0  0  0  0  0
   31.5120   29.1450   44.7820 C   0  0  0  0  0  0  0  0  0  0  0  0
   30.3870   28.4490   44.9960 N   0  0  0  0  0  0  0  0  0  0  0  0
   30.0640   28.5270   46.2910 C   0  0  0  0  0  0  0  0  0  0  0  0
   30.9950   29.2830   46.9060 N   0  0  0  0  0  0  0  0  0  0  0  0
   28.9150   27.9140   46.9450 C   0  0  0  0  0  0  0  0  0  0  0  0
   27.7320   28.4970   47.2050 N   0  0  0  0  0  0  0  0  0  0  0  0
   26.9200   27.5920   47.8260 C   0  0  0  0  0  0  0  0  0  0  0  0
   27.6310   26.4550   47.9380 N   0  0  0  0  0  0  0  0  0  0  0  0
   28.8270   26.6580   47.4070 N   0  0  0  0  0  0  0  0  0  0  0  0
   35.5470   29.9350   46.3960 O   0  0  0  0  0  0  0  0  0  0  0  0
   34.2680   29.7720   47.2050 P   0  0  2  0  0  0  0  0  0  0  0  0
   33.9200   28.1390   47.4850 O   0  0  0  0  0  0  0  0  0  0  0  0
   34.3610   30.5500   48.7140 O   0  0  0  0  0  0  0  0  0  0  0  0
   35.4830   30.4200   49.5380 C   0  0  0  0  0  0  0  0  0  0  0  0
   35.6860   29.4370   50.5190 C   0  0  0  0  0  0  0  0  0  0  0  0
   36.8650   29.4830   51.2300 C   0  0  0  0  0  0  0  0  0  0  0  0
   37.7810   30.4470   50.9780 N   0  0  0  0  0  0  0  0  0  0  0  0
   37.5480   31.3990   50.0070 C   0  0  0  0  0  0  0  0  0  0  0  0
   36.3980   31.3720   49.2980 N   0  0  0  0  0  0  0  0  0  0  0  0
   32.0228   29.2638   43.8151 H   0  0  0  0  0  0  0  0  0  0  0  0
   29.8561   27.9360   44.2777 H   0  0  0  0  0  0  0  0  0  0  0  0
   25.8878   27.7593   48.1675 H   0  0  0  0  0  0  0  0  0  0  0  0
   27.3013   25.5770   48.3639 H   0  0  0  0  0  0  0  0  0  0  0  0
   33.8843   27.9717   48.4601 H   0  0  0  0  0  0  0  0  0  0  0  0
   34.9324   28.6595   50.7127 H   0  0  0  0  0  0  0  0  0  0  0  0
   37.0634   28.7310   52.0080 H   0  0  0  0  0  0  0  0  0  0  0  0
   38.2978   32.1794   49.8101 H   0  0  0  0  0  0  0  0  0  0  0  0
  1 13  1  0
  2  1  1  0
  2  6  1  0
  3  4  1  0
  3  2  2  0
  4  5  1  0
  5  6  2  0
  5  7  1  0
  7  8  1  0
  7 11  2  0
  8  9  2  0
  9 10  1  0
 11 10  1  0
 13 12  2  0
 13 14  1  0
 13 15  1  0
 15 16  1  0
 16 17  2  0
 17 18  1  0
 19 18  2  0
 20 19  1  0
 21 16  1  0
 21 20  2  0
  3 22  1  0
  4 23  1  0
  9 24  1  0
 10 25  1  0
 14 26  1  0
 17 27  1  0
 18 28  1  0
 20 29  1  0
M  ISO  8  22  14  23   9  24  14  25   9  26   3  27  14  28  14  29  14
M  END
>  <minimizedAffinity>  (1) 
-4.37184

>  <minimizedRMSD>  (1) 
0.986359417

$$$$
