
     RDKit          3D

 35 36  0  0  0  0  0  0  0  0999 V2000
   35.6309   30.1693   46.4626 O   0  0  0  0  0  0  0  0  0  0  0  0
   34.4060   29.8842   47.3239 P   0  0  1  0  0  0  0  0  0  0  0  0
   34.2286   28.1976   47.5587 O   0  0  0  0  0  0  0  0  0  0  0  0
   34.5203   30.5793   48.8758 O   0  0  0  0  0  0  0  0  0  0  0  0
   35.6751   30.4629   49.6494 C   0  0  0  0  0  0  0  0  0  0  0  0
   35.9069   29.5043   50.6394 C   0  0  0  0  0  0  0  0  0  0  0  0
   37.1140   29.5501   51.2983 C   0  0  0  0  0  0  0  0  0  0  0  0
   38.0333   30.4951   50.9879 N   0  0  0  0  0  0  0  0  0  0  0  0
   37.7760   31.4188   50.0143 C   0  0  0  0  0  0  0  0  0  0  0  0
   36.6005   31.3909   49.3576 N   0  0  0  0  0  0  0  0  0  0  0  0
   33.0711   30.5127   46.5077 O   0  0  0  0  0  0  0  0  0  0  0  0
   32.0935   29.5954   46.0874 C   0  0  0  0  0  0  0  0  0  0  0  0
   31.5242   29.4098   44.8432 C   0  0  0  0  0  0  0  0  0  0  0  0
   30.6464   28.4231   44.9331 N   0  0  0  0  0  0  0  0  0  0  0  0
   30.6064   27.9383   46.1983 C   0  0  0  0  0  0  0  0  0  0  0  0
   31.5078   28.6782   46.8895 N   0  0  0  0  0  0  0  0  0  0  0  0
   34.9328   27.7345   47.0220 H   0  0  0  0  0  0  0  0  0  0  0  0
   35.1014   28.8006   50.8004 H   0  0  0  0  0  0  0  0  0  0  0  0
   37.2771   28.7958   52.0661 H   0  0  0  0  0  0  0  0  0  0  0  0
   38.5201   32.1841   49.7627 H   0  0  0  0  0  0  0  0  0  0  0  0
   31.7721   29.9843   43.9696 H   0  0  0  0  0  0  0  0  0  0  0  0
   30.0379   28.0208   44.1881 H   0  0  0  0  0  0  0  0  0  0  0  0
   29.7674   26.8447   46.7160 C   0  0  0  0  0  0  0  0  0  0  0  0
   28.5145   26.6791   46.0706 N   0  0  0  0  0  4  0  0  0  0  0  0
   28.1723   25.2721   45.9479 C   0  0  0  0  0  0  0  0  0  0  0  0
   28.7145   24.6997   46.7352 H   0  0  0  0  0  0  0  0  0  0  0  0
   28.3999   27.3740   44.8059 C   0  0  0  0  0  0  0  0  0  0  0  0
   28.5634   26.6270   43.9919 H   0  0  0  0  0  0  0  0  0  0  0  0
   29.6185   26.8521   47.8104 H   0  0  0  0  0  0  0  0  0  0  0  0
   30.3505   25.8992   46.5154 H   0  0  0  0  0  0  0  0  0  0  0  0
   27.7824   27.1104   46.6810 H   0  0  0  0  0  0  0  0  0  0  0  0
   28.3770   24.8845   44.9311 H   0  0  0  0  0  0  0  0  0  0  0  0
   27.0903   25.0681   46.1473 H   0  0  0  0  0  0  0  0  0  0  0  0
   27.3438   27.7373   44.6384 H   0  0  0  0  0  0  0  0  0  0  0  0
   29.0358   28.2635   44.7441 H   0  0  0  0  0  0  0  0  0  0  0  0
  2  1  2  0
  2  3  1  1
  2  4  1  0
  4  5  1  0
  5  6  2  0
  6  7  1  0
  8  7  2  0
  9  8  1  0
 10  5  1  0
 10  9  2  0
 11  2  1  0
 12 11  1  0
 12 16  1  0
 13 14  1  0
 13 12  2  0
 14 15  1  0
 15 16  2  0
  3 17  1  0
  6 18  1  0
  7 19  1  0
  9 20  1  0
 13 21  1  0
 14 22  1  0
 23 24  1  0
 24 25  1  0
 25 26  1  0
 24 27  1  0
 27 28  1  0
 23 29  1  0
 23 30  1  0
 24 31  1  0
 25 32  1  0
 25 33  1  0
 27 34  1  0
 27 35  1  0
 15 23  1  0
M  CHG  1  24   1
M  END
>  <DihAtoms>  (1) 
13,14,22,23

>  <DihDeg>  (1) 
-89.99878293912109

$$$$
