
     RDKit          3D

 34 36  0  0  0  0  0  0  0  0999 V2000
   34.9930   28.3860   49.4680 C   0  0  0  0  0  0  0  0  0  0  0  0
   34.2860   28.7510   48.4430 C   0  0  0  0  0  0  0  0  0  0  0  0
   37.3940   30.1630   51.5750 C   0  0  0  0  0  0  0  0  0  0  0  0
   38.0970   30.9350   50.6260 C   0  0  0  0  0  0  0  0  0  0  0  0
   37.7180   30.8190   49.2700 C   0  0  0  0  0  0  0  0  0  0  0  0
   36.6890   29.9640   48.9430 N   0  0  0  0  0  0  0  0  0  0  0  0
   36.0680   29.2610   49.9170 C   0  0  0  0  0  0  0  0  0  0  0  0
   36.4080   29.3530   51.2060 N   0  0  0  0  0  0  0  0  0  0  0  0
   38.3770   31.5700   48.2040 C   0  0  0  0  0  0  0  0  0  0  0  0
   38.5960   31.0350   46.9500 C   0  0  0  0  0  0  0  0  0  0  0  0
   39.2400   32.0140   46.1840 C   0  0  0  0  0  0  0  0  0  0  0  0
   39.3840   33.0980   47.0010 N   0  0  0  0  0  0  0  0  0  0  0  0
   38.8690   32.8220   48.1960 N   0  0  0  0  0  0  0  0  0  0  0  0
   33.1660   28.0560   47.7920 C   0  0  0  0  0  0  0  0  0  0  0  0
   33.6010   26.9320   46.9120 C   0  0  0  0  0  0  0  0  0  0  0  0
   33.7780   25.6250   47.3260 C   0  0  0  0  0  0  0  0  0  0  0  0
   34.1850   24.6510   46.4390 C   0  0  0  0  0  0  0  0  0  0  0  0
   34.4270   24.9530   45.1040 C   0  0  0  0  0  0  0  0  0  0  0  0
   34.2520   26.2410   44.6910 C   0  0  0  0  0  0  0  0  0  0  0  0
   33.8470   27.2130   45.5730 C   0  0  0  0  0  0  0  0  0  0  0  0
   34.7856   27.4380   49.9859 H   0  0  0  0  0  0  0  0  0  0  0  0
   34.5642   29.7177   47.9980 H   0  0  0  0  0  0  0  0  0  0  0  0
   37.6670   30.2331   52.6383 H   0  0  0  0  0  0  0  0  0  0  0  0
   38.9136   31.6054   50.9320 H   0  0  0  0  0  0  0  0  0  0  0  0
   38.3160   30.0255   46.6147 H   0  0  0  0  0  0  0  0  0  0  0  0
   39.5642   31.9273   45.1364 H   0  0  0  0  0  0  0  0  0  0  0  0
   39.8230   33.9906   46.7338 H   0  0  0  0  0  0  0  0  0  0  0  0
   32.5043   27.6525   48.5726 H   0  0  0  0  0  0  0  0  0  0  0  0
   32.6534   28.7905   47.1534 H   0  0  0  0  0  0  0  0  0  0  0  0
   33.5917   25.3585   48.3769 H   0  0  0  0  0  0  0  0  0  0  0  0
   34.3203   23.6185   46.7935 H   0  0  0  0  0  0  0  0  0  0  0  0
   34.7512   24.1734   44.3989 H   0  0  0  0  0  0  0  0  0  0  0  0
   34.4374   26.5045   43.6392 H   0  0  0  0  0  0  0  0  0  0  0  0
   33.7136   28.2426   45.2096 H   0  0  0  0  0  0  0  0  0  0  0  0
  1  7  1  0
  2  1  2  0
  4  3  2  0
  5  4  1  0
  6  5  2  0
  6  7  1  0
  7  8  2  0
  8  3  1  0
  9  5  1  0
 10  9  1  0
 11 10  2  0
 11 12  1  0
 12 13  1  0
 13  9  2  0
 14  2  1  0
 15 16  2  0
 15 14  1  0
 17 16  1  0
 18 17  2  0
 19 18  1  0
 19 20  2  0
 20 15  1  0
  1 21  1  0
  2 22  1  0
  3 23  1  0
  4 24  1  0
 10 25  1  0
 11 26  1  0
 12 27  1  0
 14 28  1  0
 14 29  1  0
 16 30  1  0
 17 31  1  0
 18 32  1  0
 19 33  1  0
 20 34  1  0
M  ISO  8  23  14  24  14  25  14  26  14  27   9  28   8  29   8  30  14
M  ISO  4  31  14  32  14  33  14  34  14
M  END
>  <minimizedAffinity>  (1) 
-6.01076698

>  <minimizedRMSD>  (1) 
0.869180858

$$$$
