
     RDKit          3D

 51 54  0  0  1  0  0  0  0  0999 V2000
   33.3750   26.8990   47.3500 C   0  0  0  0  0  0  0  0  0  0  0  0
   33.5500   25.5280   47.5200 C   0  0  0  0  0  0  0  0  0  0  0  0
   33.9340   24.7210   46.4710 C   0  0  0  0  0  0  0  0  0  0  0  0
   34.1590   25.2370   45.2120 C   0  0  0  0  0  0  0  0  0  0  0  0
   33.9910   26.5690   45.0390 C   0  0  0  0  0  0  0  0  0  0  0  0
   33.6060   27.4100   46.0700 C   0  0  0  0  0  0  0  0  0  0  0  0
   32.0380   29.3060   45.6240 C   0  0  1  0  0  0  0  0  0  0  0  0
   33.4590   28.8500   45.7370 C   0  0  2  0  0  0  0  0  0  0  0  0
   34.0580   29.0910   44.4900 O   0  0  0  0  0  0  0  0  0  0  0  0
   34.1870   30.4610   44.2770 C   0  0  0  0  0  0  0  0  0  0  0  0
   32.8340   31.1060   44.1970 C   0  0  1  0  0  0  0  0  0  0  0  0
   32.0890   30.8220   45.4790 C   0  0  2  0  0  0  0  0  0  0  0  0
   31.4300   28.7870   44.4840 O   0  0  0  0  0  0  0  0  0  0  0  0
   32.9570   32.4510   43.9180 O   0  0  0  0  0  0  0  0  0  0  0  0
   32.7620   31.3180   46.5880 O   0  0  0  0  0  0  0  0  0  0  0  0
   32.9650   27.8220   48.4310 C   0  0  0  0  0  0  0  0  0  0  0  0
   35.2740   28.1980   49.2900 C   0  0  0  0  0  0  0  0  0  0  0  0
   34.0780   28.6240   48.9700 C   0  0  0  0  0  0  0  0  0  0  0  0
   37.3750   30.1840   51.5260 C   0  0  0  0  0  0  0  0  0  0  0  0
   38.0660   31.0000   50.6070 C   0  0  0  0  0  0  0  0  0  0  0  0
   37.7940   30.8480   49.2410 C   0  0  0  0  0  0  0  0  0  0  0  0
   36.8630   29.9080   48.8600 N   0  0  0  0  0  0  0  0  0  0  0  0
   36.2350   29.1550   49.8080 C   0  0  0  0  0  0  0  0  0  0  0  0
   36.4860   29.2920   51.1020 N   0  0  0  0  0  0  0  0  0  0  0  0
   38.4530   31.6410   48.2020 C   0  0  0  0  0  0  0  0  0  0  0  0
   38.7370   31.1430   46.9540 C   0  0  0  0  0  0  0  0  0  0  0  0
   39.3580   32.1550   46.2280 C   0  0  0  0  0  0  0  0  0  0  0  0
   39.4260   33.2250   47.0610 N   0  0  0  0  0  0  0  0  0  0  0  0
   38.8860   32.9110   48.2320 N   0  0  0  0  0  0  0  0  0  0  0  0
   33.3785   25.0808   48.5102 H   0  0  0  0  0  0  0  0  0  0  0  0
   34.0638   23.6421   46.6415 H   0  0  0  0  0  0  0  0  0  0  0  0
   34.4644   24.5887   44.3774 H   0  0  0  0  0  0  0  0  0  0  0  0
   34.1668   26.9997   44.0422 H   0  0  0  0  0  0  0  0  0  0  0  0
   31.4656   28.9734   46.5025 H   0  0  0  0  0  0  0  0  0  0  0  0
   33.9326   29.4010   46.5629 H   0  0  0  0  0  0  0  0  0  0  0  0
   34.7523   30.9059   45.1092 H   0  0  0  0  0  0  0  0  0  0  0  0
   34.7189   30.6269   43.3285 H   0  0  0  0  0  0  0  0  0  0  0  0
   32.2461   30.6833   43.3689 H   0  0  0  0  0  0  0  0  0  0  0  0
   31.0967   31.2944   45.4322 H   0  0  0  0  0  0  0  0  0  0  0  0
   30.7047   28.1678   44.7497 H   0  0  0  0  0  0  0  0  0  0  0  0
   33.0036   32.9609   44.7653 H   0  0  0  0  0  0  0  0  0  0  0  0
   32.3219   30.9937   47.4134 H   0  0  0  0  0  0  0  0  0  0  0  0
   32.2020   28.5074   48.0335 H   0  0  0  0  0  0  0  0  0  0  0  0
   32.5803   27.2048   49.2563 H   0  0  0  0  0  0  0  0  0  0  0  0
   35.5446   27.1387   49.1691 H   0  0  0  0  0  0  0  0  0  0  0  0
   33.8828   29.6962   49.1196 H   0  0  0  0  0  0  0  0  0  0  0  0
   37.5735   30.2866   52.6031 H   0  0  0  0  0  0  0  0  0  0  0  0
   38.8023   31.7395   50.9547 H   0  0  0  0  0  0  0  0  0  0  0  0
   38.5140   30.1280   46.5935 H   0  0  0  0  0  0  0  0  0  0  0  0
   39.7200   32.0993   45.1907 H   0  0  0  0  0  0  0  0  0  0  0  0
   39.8340   34.1398   46.8210 H   0  0  0  0  0  0  0  0  0  0  0  0
  1  2  2  0
  1 16  1  0
  3  2  1  0
  4  3  2  0
  5  4  1  0
  5  6  2  0
  6  1  1  0
  7 13  1  0
  7  8  1  0
  8  6  1  0
  9  8  1  0
 10  9  1  0
 11 14  1  0
 11 10  1  0
 11 12  1  0
 12  7  1  0
 12 15  1  0
 16 18  1  0
 17 23  1  0
 18 17  2  0
 20 19  2  0
 21 20  1  0
 22 21  2  0
 22 23  1  0
 23 24  2  0
 24 19  1  0
 25 29  2  0
 25 21  1  0
 26 25  1  0
 27 26  2  0
 27 28  1  0
 28 29  1  0
  2 30  1  0
  3 31  1  0
  4 32  1  0
  5 33  1  0
  7 34  1  1
  8 35  1  1
 10 36  1  0
 10 37  1  0
 11 38  1  6
 12 39  1  6
 13 40  1  0
 14 41  1  0
 15 42  1  0
 16 43  1  0
 16 44  1  0
 17 45  1  0
 18 46  1  0
 19 47  1  0
 20 48  1  0
 26 49  1  0
 27 50  1  0
 28 51  1  0
M  ISO  8  30  14  31  14  32  14  33  14  34  13  35  13  36  13  37  13
M  ISO  8  38  13  39  13  40   3  41   3  42   3  43   8  44   8  47  14
M  ISO  4  48  14  49  14  50  14  51   9
M  END
>  <minimizedAffinity>  (1) 
-7.26366425

>  <minimizedRMSD>  (1) 
0.992770076

$$$$
