
     RDKit          3D

 48 51  0  0  0  0  0  0  0  0999 V2000
   32.6330   27.9710   48.8900 C   0  0  0  0  0  0  0  0  0  0  0  0
   32.6670   27.0610   47.7180 C   0  0  0  0  0  0  0  0  0  0  0  0
   33.7770   26.3060   47.3470 C   0  0  0  0  0  0  0  0  0  0  0  0
   33.7500   25.4760   46.2520 C   0  0  0  0  0  0  0  0  0  0  0  0
   32.5940   25.3750   45.4810 C   0  0  0  0  0  0  0  0  0  0  0  0
   31.5060   26.1120   45.8410 C   0  0  0  0  0  0  0  0  0  0  0  0
   31.5280   26.9490   46.9420 C   0  0  0  0  0  0  0  0  0  0  0  0
   30.2550   27.6740   47.1630 C   0  0  0  0  0  0  0  0  0  0  0  0
   29.6360   27.9490   45.7980 C   0  0  0  0  0  0  0  0  0  0  0  0
   28.1830   28.2990   45.8720 C   0  0  0  0  0  0  0  0  0  0  0  0
   27.5190   27.7980   46.9680 O   0  0  0  0  0  0  0  0  0  0  0  0
   28.0510   26.5190   47.2410 C   0  0  0  0  0  0  0  0  0  0  0  0
   29.3480   26.8120   48.0070 C   0  0  0  0  0  0  0  0  0  0  0  0
   34.2070   29.4590   50.1400 C   0  0  0  0  0  0  0  0  0  0  0  0
   33.9420   28.5530   49.2310 C   0  0  0  0  0  0  0  0  0  0  0  0
   37.5300   30.0660   51.5140 C   0  0  0  0  0  0  0  0  0  0  0  0
   38.1610   30.7450   50.4450 C   0  0  0  0  0  0  0  0  0  0  0  0
   37.4130   30.9710   49.2790 C   0  0  0  0  0  0  0  0  0  0  0  0
   36.1170   30.5290   49.2320 N   0  0  0  0  0  0  0  0  0  0  0  0
   35.5810   29.8830   50.3050 C   0  0  0  0  0  0  0  0  0  0  0  0
   36.2730   29.6580   51.4190 N   0  0  0  0  0  0  0  0  0  0  0  0
   37.9650   31.6670   48.1110 C   0  0  0  0  0  0  0  0  0  0  0  0
   37.5790   31.3750   46.8250 C   0  0  0  0  0  0  0  0  0  0  0  0
   38.2930   32.2170   45.9730 C   0  0  0  0  0  0  0  0  0  0  0  0
   39.0800   32.9820   46.7720 N   0  0  0  0  0  0  0  0  0  0  0  0
   38.8730   32.6430   48.0320 N   0  0  0  0  0  0  0  0  0  0  0  0
   32.2693   27.4032   49.7591 H   0  0  0  0  0  0  0  0  0  0  0  0
   31.9702   28.8081   48.6255 H   0  0  0  0  0  0  0  0  0  0  0  0
   34.6976   26.3757   47.9450 H   0  0  0  0  0  0  0  0  0  0  0  0
   34.6420   24.8908   45.9840 H   0  0  0  0  0  0  0  0  0  0  0  0
   32.5604   24.7152   44.6015 H   0  0  0  0  0  0  0  0  0  0  0  0
   30.5870   26.0395   45.2409 H   0  0  0  0  0  0  0  0  0  0  0  0
   30.4151   28.6268   47.6889 H   0  0  0  0  0  0  0  0  0  0  0  0
   29.7481   27.0493   45.1751 H   0  0  0  0  0  0  0  0  0  0  0  0
   30.1605   28.8153   45.3686 H   0  0  0  0  0  0  0  0  0  0  0  0
   28.0968   29.3954   45.8927 H   0  0  0  0  0  0  0  0  0  0  0  0
   27.7111   27.8402   44.9906 H   0  0  0  0  0  0  0  0  0  0  0  0
   27.3566   25.9304   47.8586 H   0  0  0  0  0  0  0  0  0  0  0  0
   28.2222   25.9283   46.3290 H   0  0  0  0  0  0  0  0  0  0  0  0
   29.8567   25.8649   48.2399 H   0  0  0  0  0  0  0  0  0  0  0  0
   29.1074   27.3421   48.9404 H   0  0  0  0  0  0  0  0  0  0  0  0
   33.4061   29.8861   50.7614 H   0  0  0  0  0  0  0  0  0  0  0  0
   34.8013   28.1824   48.6528 H   0  0  0  0  0  0  0  0  0  0  0  0
   38.0925   29.8736   52.4395 H   0  0  0  0  0  0  0  0  0  0  0  0
   39.2041   31.0848   50.5251 H   0  0  0  0  0  0  0  0  0  0  0  0
   36.8420   30.6163   46.5230 H   0  0  0  0  0  0  0  0  0  0  0  0
   38.2310   32.2539   44.8754 H   0  0  0  0  0  0  0  0  0  0  0  0
   39.7332   33.7095   46.4481 H   0  0  0  0  0  0  0  0  0  0  0  0
  1 15  1  0
  2  1  1  0
  3  2  2  0
  4  3  1  0
  5  6  1  0
  5  4  2  0
  6  7  2  0
  7  8  1  0
  7  2  1  0
  8 13  1  0
  9 10  1  0
  9  8  1  0
 10 11  1  0
 11 12  1  0
 12 13  1  0
 14 20  1  0
 15 14  2  0
 17 16  2  0
 18 17  1  0
 19 18  2  0
 19 20  1  0
 20 21  2  0
 21 16  1  0
 22 18  1  0
 23 22  1  0
 24 25  1  0
 24 23  2  0
 25 26  1  0
 26 22  2  0
  1 27  1  0
  1 28  1  0
  3 29  1  0
  4 30  1  0
  5 31  1  0
  6 32  1  0
  8 33  1  0
  9 34  1  0
  9 35  1  0
 10 36  1  0
 10 37  1  0
 12 38  1  0
 12 39  1  0
 13 40  1  0
 13 41  1  0
 14 42  1  0
 15 43  1  0
 16 44  1  0
 17 45  1  0
 23 46  1  0
 24 47  1  0
 25 48  1  0
M  ISO  8  27   8  28   8  29  14  30  14  31  14  32  14  33  13  34  13
M  ISO  8  35  13  36  13  37  13  38  13  39  13  40  13  41  13  44  14
M  ISO  4  45  14  46  14  47  14  48   9
M  END
>  <minimizedAffinity>  (1) 
-6.37287331

>  <minimizedRMSD>  (1) 
2.66122341

$$$$
