
     RDKit          3D

 47 50  0  0  0  0  0  0  0  0999 V2000
   35.1980   28.5100   48.9930 C   0  0  0  0  0  0  0  0  0  0  0  0
   33.9580   28.6460   49.3340 C   0  0  0  0  0  0  0  0  0  0  0  0
   37.3800   30.1330   51.4310 C   0  0  0  0  0  0  0  0  0  0  0  0
   38.1160   31.0130   50.6230 C   0  0  0  0  0  0  0  0  0  0  0  0
   37.8370   31.0270   49.2340 C   0  0  0  0  0  0  0  0  0  0  0  0
   36.8670   30.1800   48.7660 N   0  0  0  0  0  0  0  0  0  0  0  0
   36.1990   29.3570   49.6150 C   0  0  0  0  0  0  0  0  0  0  0  0
   36.4560   29.3390   50.9250 N   0  0  0  0  0  0  0  0  0  0  0  0
   38.5360   31.8990   48.2950 C   0  0  0  0  0  0  0  0  0  0  0  0
   38.8750   31.4970   47.0280 C   0  0  0  0  0  0  0  0  0  0  0  0
   39.5260   32.5690   46.4090 C   0  0  0  0  0  0  0  0  0  0  0  0
   39.5550   33.5760   47.3210 N   0  0  0  0  0  0  0  0  0  0  0  0
   38.9610   33.1700   48.4500 N   0  0  0  0  0  0  0  0  0  0  0  0
   32.8000   27.8920   48.8280 C   0  0  0  0  0  0  0  0  0  0  0  0
   33.0630   27.2130   47.5210 C   0  0  0  0  0  0  0  0  0  0  0  0
   33.6450   25.9510   47.4190 C   0  0  0  0  0  0  0  0  0  0  0  0
   33.8650   25.3700   46.1920 C   0  0  0  0  0  0  0  0  0  0  0  0
   33.5120   26.0280   45.0310 C   0  0  0  0  0  0  0  0  0  0  0  0
   32.9440   27.2600   45.1290 C   0  0  0  0  0  0  0  0  0  0  0  0
   32.7160   27.8580   46.3530 C   0  0  0  0  0  0  0  0  0  0  0  0
   32.0950   29.1880   46.3030 C   0  0  0  0  0  0  0  0  0  0  0  0
   31.1040   29.1980   45.1660 C   0  0  0  0  0  0  0  0  0  0  0  0
   31.8130   29.9420   44.0570 C   0  0  0  0  0  0  0  0  0  0  0  0
   32.7740   30.8790   44.7170 C   0  0  0  0  0  0  0  0  0  0  0  0
   33.0350   30.3250   46.0910 C   0  0  0  0  0  0  0  0  0  0  0  0
   35.4903   27.7620   48.2412 H   0  0  0  0  0  0  0  0  0  0  0  0
   33.7438   29.4151   50.0907 H   0  0  0  0  0  0  0  0  0  0  0  0
   37.5783   30.1045   52.5126 H   0  0  0  0  0  0  0  0  0  0  0  0
   38.8849   31.6709   51.0542 H   0  0  0  0  0  0  0  0  0  0  0  0
   38.6721   30.5126   46.5811 H   0  0  0  0  0  0  0  0  0  0  0  0
   39.9334   32.5923   45.3875 H   0  0  0  0  0  0  0  0  0  0  0  0
   39.9693   34.5064   47.1676 H   0  0  0  0  0  0  0  0  0  0  0  0
   32.5294   27.1272   49.5708 H   0  0  0  0  0  0  0  0  0  0  0  0
   31.9870   28.6143   48.6628 H   0  0  0  0  0  0  0  0  0  0  0  0
   33.9327   25.4115   48.3334 H   0  0  0  0  0  0  0  0  0  0  0  0
   34.3260   24.3729   46.1353 H   0  0  0  0  0  0  0  0  0  0  0  0
   33.6863   25.5661   44.0480 H   0  0  0  0  0  0  0  0  0  0  0  0
   32.6590   27.7936   44.2103 H   0  0  0  0  0  0  0  0  0  0  0  0
   31.6400   29.3441   47.2922 H   0  0  0  0  0  0  0  0  0  0  0  0
   30.8603   28.1721   44.8528 H   0  0  0  0  0  0  0  0  0  0  0  0
   30.1502   29.6697   45.4448 H   0  0  0  0  0  0  0  0  0  0  0  0
   31.0866   30.5062   43.4537 H   0  0  0  0  0  0  0  0  0  0  0  0
   32.3360   29.2465   43.3841 H   0  0  0  0  0  0  0  0  0  0  0  0
   33.7111   30.9289   44.1430 H   0  0  0  0  0  0  0  0  0  0  0  0
   32.3631   31.8980   44.7703 H   0  0  0  0  0  0  0  0  0  0  0  0
   34.0741   29.9711   46.1619 H   0  0  0  0  0  0  0  0  0  0  0  0
   32.8829   31.1005   46.8561 H   0  0  0  0  0  0  0  0  0  0  0  0
  1  2  2  0
  1  7  1  0
  4  3  2  0
  5  4  1  0
  6  5  2  0
  6  7  1  0
  7  8  2  0
  8  3  1  0
  9 13  2  0
  9  5  1  0
 10  9  1  0
 11 10  2  0
 11 12  1  0
 12 13  1  0
 14  2  1  0
 15 14  1  0
 16 15  2  0
 17 16  1  0
 18 19  1  0
 18 17  2  0
 19 20  2  0
 20 15  1  0
 21 20  1  0
 22 21  1  0
 23 24  1  0
 23 22  1  0
 24 25  1  0
 25 21  1  0
  1 26  1  0
  2 27  1  0
  3 28  1  0
  4 29  1  0
 10 30  1  0
 11 31  1  0
 12 32  1  0
 14 33  1  0
 14 34  1  0
 16 35  1  0
 17 36  1  0
 18 37  1  0
 19 38  1  0
 21 39  1  0
 22 40  1  0
 22 41  1  0
 23 42  1  0
 23 43  1  0
 24 44  1  0
 24 45  1  0
 25 46  1  0
 25 47  1  0
M  ISO  8  28  14  29  14  30  14  31  14  32   9  33   8  34   8  35  14
M  ISO  8  36  14  37  14  38  14  39  13  40  13  41  13  42  13  43  13
M  ISO  4  44  13  45  13  46  13  47  13
M  END
>  <minimizedAffinity>  (1) 
-6.31069374

>  <minimizedRMSD>  (1) 
1.31945658

$$$$
