
     RDKit          3D

 36 38  0  0  0  0  0  0  0  0999 V2000
   34.9650   28.4110   49.4620 C   0  0  0  0  0  0  0  0  0  0  0  0
   34.3090   28.7550   48.3910 C   0  0  0  0  0  0  0  0  0  0  0  0
   37.3850   30.1450   51.5680 C   0  0  0  0  0  0  0  0  0  0  0  0
   38.0950   30.9140   50.6260 C   0  0  0  0  0  0  0  0  0  0  0  0
   37.7110   30.8110   49.2670 C   0  0  0  0  0  0  0  0  0  0  0  0
   36.6760   29.9740   48.9390 N   0  0  0  0  0  0  0  0  0  0  0  0
   36.0480   29.2690   49.9100 C   0  0  0  0  0  0  0  0  0  0  0  0
   36.3950   29.3530   51.2020 N   0  0  0  0  0  0  0  0  0  0  0  0
   38.3710   31.5580   48.2000 C   0  0  0  0  0  0  0  0  0  0  0  0
   38.5930   31.0270   46.9450 C   0  0  0  0  0  0  0  0  0  0  0  0
   39.2390   32.0220   46.2020 C   0  0  0  0  0  0  0  0  0  0  0  0
   39.3820   33.1020   47.0210 N   0  0  0  0  0  0  0  0  0  0  0  0
   38.8610   32.8050   48.1980 N   0  0  0  0  0  0  0  0  0  0  0  0
   33.1860   28.0420   47.7620 C   0  0  0  0  0  0  0  0  0  0  0  0
   33.6220   26.9040   46.8940 C   0  0  0  0  0  0  0  0  0  0  0  0
   33.8480   25.6260   47.3500 C   0  0  0  0  0  0  0  0  0  0  0  0
   34.2500   24.6260   46.4870 C   0  0  0  0  0  0  0  0  0  0  0  0
   34.4340   24.8910   45.1380 C   0  0  0  0  0  0  0  0  0  0  0  0
   34.2110   26.1490   44.6900 C   0  0  0  0  0  0  0  0  0  0  0  0
   33.8120   27.1530   45.5350 C   0  0  0  0  0  0  0  0  0  0  0  0
   33.5860   28.4650   45.0350 N   0  0  0  0  0  0  0  0  0  0  0  0
   34.7058   27.4948   50.0129 H   0  0  0  0  0  0  0  0  0  0  0  0
   34.6313   29.6852   47.9003 H   0  0  0  0  0  0  0  0  0  0  0  0
   37.6613   30.2057   52.6310 H   0  0  0  0  0  0  0  0  0  0  0  0
   38.9200   31.5725   50.9354 H   0  0  0  0  0  0  0  0  0  0  0  0
   38.3167   30.0206   46.5975 H   0  0  0  0  0  0  0  0  0  0  0  0
   39.5688   31.9465   45.1553 H   0  0  0  0  0  0  0  0  0  0  0  0
   39.8217   33.9977   46.7656 H   0  0  0  0  0  0  0  0  0  0  0  0
   32.5345   27.6468   48.5554 H   0  0  0  0  0  0  0  0  0  0  0  0
   32.6616   28.7625   47.1171 H   0  0  0  0  0  0  0  0  0  0  0  0
   33.7065   25.3976   48.4167 H   0  0  0  0  0  0  0  0  0  0  0  0
   34.4258   23.6108   46.8724 H   0  0  0  0  0  0  0  0  0  0  0  0
   34.7540   24.0967   44.4475 H   0  0  0  0  0  0  0  0  0  0  0  0
   34.3533   26.3713   43.6221 H   0  0  0  0  0  0  0  0  0  0  0  0
   33.2865   29.2152   45.6741 H   0  0  0  0  0  0  0  0  0  0  0  0
   33.7219   28.6651   44.0338 H   0  0  0  0  0  0  0  0  0  0  0  0
  1  7  1  0
  2  1  2  0
  4  3  2  0
  5  4  1  0
  6  5  2  0
  6  7  1  0
  7  8  2  0
  8  3  1  0
  9  5  1  0
 10  9  1  0
 11 10  2  0
 11 12  1  0
 12 13  1  0
 13  9  2  0
 14  2  1  0
 15 16  2  0
 15 14  1  0
 17 16  1  0
 18 17  2  0
 19 18  1  0
 19 20  2  0
 20 15  1  0
 21 20  1  0
  1 22  1  0
  2 23  1  0
  3 24  1  0
  4 25  1  0
 10 26  1  0
 11 27  1  0
 12 28  1  0
 14 29  1  0
 14 30  1  0
 16 31  1  0
 17 32  1  0
 18 33  1  0
 19 34  1  0
 21 35  1  0
 21 36  1  0
M  ISO  8  24  14  25  14  26  14  27  14  28   9  29   8  30   8  31  14
M  ISO  3  32  14  33  14  34  14
M  END
>  <minimizedAffinity>  (1) 
-6.05000401

>  <minimizedRMSD>  (1) 
0.0529922843

$$$$
