
     RDKit          3D

 40 42  0  0  0  0  0  0  0  0999 V2000
   34.9990   28.3920   49.4660 C   0  0  0  0  0  0  0  0  0  0  0  0
   34.2900   28.7790   48.4430 C   0  0  0  0  0  0  0  0  0  0  0  0
   37.3920   30.1630   51.5790 C   0  0  0  0  0  0  0  0  0  0  0  0
   38.0950   30.9330   50.6320 C   0  0  0  0  0  0  0  0  0  0  0  0
   37.7220   30.8220   49.2720 C   0  0  0  0  0  0  0  0  0  0  0  0
   36.6970   29.9710   48.9530 N   0  0  0  0  0  0  0  0  0  0  0  0
   36.0630   29.2590   49.9250 C   0  0  0  0  0  0  0  0  0  0  0  0
   36.4090   29.3570   51.2080 N   0  0  0  0  0  0  0  0  0  0  0  0
   38.3810   31.5750   48.2080 C   0  0  0  0  0  0  0  0  0  0  0  0
   38.5970   31.0490   46.9570 C   0  0  0  0  0  0  0  0  0  0  0  0
   39.2370   32.0180   46.1870 C   0  0  0  0  0  0  0  0  0  0  0  0
   39.3840   33.1020   47.0100 N   0  0  0  0  0  0  0  0  0  0  0  0
   38.8690   32.8180   48.2030 N   0  0  0  0  0  0  0  0  0  0  0  0
   33.1680   28.0790   47.7850 C   0  0  0  0  0  0  0  0  0  0  0  0
   33.5990   26.9650   46.8870 C   0  0  0  0  0  0  0  0  0  0  0  0
   33.8220   25.6570   47.3140 C   0  0  0  0  0  0  0  0  0  0  0  0
   34.2140   24.6790   46.4380 C   0  0  0  0  0  0  0  0  0  0  0  0
   34.3990   24.9660   45.1010 C   0  0  0  0  0  0  0  0  0  0  0  0
   34.1820   26.2340   44.6900 C   0  0  0  0  0  0  0  0  0  0  0  0
   33.7850   27.2460   45.5510 C   0  0  0  0  0  0  0  0  0  0  0  0
   33.6160   28.5730   44.9030 C   0  0  0  0  0  0  0  0  0  0  0  0
   34.9740   29.2320   44.7150 C   0  0  0  0  0  0  0  0  0  0  0  0
   34.7945   27.4339   49.9661 H   0  0  0  0  0  0  0  0  0  0  0  0
   34.5629   29.7543   48.0136 H   0  0  0  0  0  0  0  0  0  0  0  0
   37.6636   30.2322   52.6427 H   0  0  0  0  0  0  0  0  0  0  0  0
   38.9114   31.6021   50.9414 H   0  0  0  0  0  0  0  0  0  0  0  0
   38.3143   30.0400   46.6222 H   0  0  0  0  0  0  0  0  0  0  0  0
   39.5569   31.9304   45.1382 H   0  0  0  0  0  0  0  0  0  0  0  0
   39.8236   33.9956   46.7471 H   0  0  0  0  0  0  0  0  0  0  0  0
   32.5131   27.6630   48.5647 H   0  0  0  0  0  0  0  0  0  0  0  0
   32.6526   28.8189   47.1549 H   0  0  0  0  0  0  0  0  0  0  0  0
   33.6805   25.4049   48.3753 H   0  0  0  0  0  0  0  0  0  0  0  0
   34.3828   23.6555   46.8040 H   0  0  0  0  0  0  0  0  0  0  0  0
   34.7135   24.1861   44.3919 H   0  0  0  0  0  0  0  0  0  0  0  0
   34.3264   26.4744   43.6264 H   0  0  0  0  0  0  0  0  0  0  0  0
   33.1350   28.4418   43.9225 H   0  0  0  0  0  0  0  0  0  0  0  0
   32.9881   29.2115   45.5418 H   0  0  0  0  0  0  0  0  0  0  0  0
   35.4167   29.4468   45.6988 H   0  0  0  0  0  0  0  0  0  0  0  0
   35.6358   28.5548   44.1551 H   0  0  0  0  0  0  0  0  0  0  0  0
   34.8516   30.1709   44.1551 H   0  0  0  0  0  0  0  0  0  0  0  0
  1  7  1  0
  2  1  2  0
  4  3  2  0
  5  4  1  0
  6  5  2  0
  6  7  1  0
  7  8  2  0
  8  3  1  0
  9  5  1  0
 10  9  1  0
 11 10  2  0
 11 12  1  0
 12 13  1  0
 13  9  2  0
 14  2  1  0
 15 16  2  0
 15 14  1  0
 17 16  1  0
 18 17  2  0
 19 18  1  0
 19 20  2  0
 20 15  1  0
 21 20  1  0
 22 21  1  0
  1 23  1  0
  2 24  1  0
  3 25  1  0
  4 26  1  0
 10 27  1  0
 11 28  1  0
 12 29  1  0
 14 30  1  0
 14 31  1  0
 16 32  1  0
 17 33  1  0
 18 34  1  0
 19 35  1  0
 21 36  1  0
 21 37  1  0
 22 38  1  0
 22 39  1  0
 22 40  1  0
M  ISO  8  25  14  26  14  27  14  28  14  29   9  30   8  31   8  32  14
M  ISO  8  33  14  34  14  35  14  36   8  37   8  38   8  39   8  40   8
M  END
>  <minimizedAffinity>  (1) 
-5.96517277

>  <minimizedRMSD>  (1) 
0.443607509

$$$$
