
     RDKit          3D

 21 22  0  0  0  0  0  0  0  0999 V2000
   38.1070   31.1870   47.7860 C   0  0  0  0  0  0  0  0  0  0  0  0
   38.4790   32.4550   48.1570 C   0  0  0  0  0  0  0  0  0  0  0  0
   39.3650   33.2100   47.4050 C   0  0  0  0  0  0  0  0  0  0  0  0
   39.8660   32.6210   46.2490 C   0  0  0  0  0  0  0  0  0  0  0  0
   39.5260   31.3360   45.8200 C   0  0  0  0  0  0  0  0  0  0  0  0
   38.6270   30.6410   46.6320 C   0  0  0  0  0  0  0  0  0  0  0  0
   36.5190   29.4490   50.7270 C   0  0  0  0  0  0  0  0  0  0  0  0
   37.4960   30.1580   49.9690 C   0  0  0  0  0  0  0  0  0  0  0  0
   37.1840   30.4740   48.6410 C   0  0  0  0  0  0  0  0  0  0  0  0
   35.9740   30.0930   48.1410 N   0  0  0  0  0  0  0  0  0  0  0  0
   35.0710   29.4220   48.8890 C   0  0  0  0  0  0  0  0  0  0  0  0
   35.3390   29.1010   50.1740 N   0  0  0  0  0  0  0  0  0  0  0  0
   38.6650   30.4770   50.5840 O   0  0  0  0  0  0  0  0  0  0  0  0
   38.0612   32.8850   49.0792 H   0  0  0  0  0  0  0  0  0  0  0  0
   39.6579   34.2261   47.7078 H   0  0  0  0  0  0  0  0  0  0  0  0
   40.5716   33.2014   45.6364 H   0  0  0  0  0  0  0  0  0  0  0  0
   39.9405   30.8986   44.8998 H   0  0  0  0  0  0  0  0  0  0  0  0
   38.3239   29.6244   46.3411 H   0  0  0  0  0  0  0  0  0  0  0  0
   36.7295   29.1830   51.7734 H   0  0  0  0  0  0  0  0  0  0  0  0
   34.1060   29.1335   48.4467 H   0  0  0  0  0  0  0  0  0  0  0  0
   39.3667   30.9692   50.0886 H   0  0  0  0  0  0  0  0  0  0  0  0
  1  2  2  0
  1  9  1  0
  3  2  1  0
  4  3  2  0
  5  4  1  0
  5  6  2  0
  6  1  1  0
  8 13  1  0
  8  7  2  0
  9  8  1  0
 10  9  2  0
 10 11  1  0
 11 12  2  0
 12  7  1  0
  2 14  1  0
  3 15  1  0
  4 16  1  0
  5 17  1  0
  6 18  1  0
  7 19  1  0
 11 20  1  0
 13 21  1  0
M  ISO  8  14  14  15  14  16  14  17  14  18  14  19  14  20  14  21   3
M  END
>  <minimizedAffinity>  (1) 
-5.12824678

>  <minimizedRMSD>  (1) 
0.871495187

$$$$
