
     RDKit          3D

 34 36  0  0  1  0  0  0  0  0999 V2000
   35.3280   30.0900   47.2360 C   0  0  0  0  0  0  0  0  0  0  0  0
   36.6460   30.6420   47.1190 C   0  0  0  0  0  0  0  0  0  0  0  0
   37.1570   30.8180   45.8290 C   0  0  0  0  0  0  0  0  0  0  0  0
   36.3880   30.4610   44.7640 N   0  0  0  0  0  0  0  0  0  0  0  0
   35.1540   29.9450   44.9080 C   0  0  0  0  0  0  0  0  0  0  0  0
   34.6350   29.7650   46.1400 N   0  0  0  0  0  0  0  0  0  0  0  0
   37.2820   30.9480   48.3470 N   0  0  0  0  0  0  0  0  0  0  0  0
   38.0000   30.2220   49.4150 C   0  0  0  0  0  0  0  0  0  0  0  0
   37.2750   30.7350   50.6630 C   0  0  0  0  0  0  0  0  0  0  0  0
   36.9290   32.1810   50.3200 C   0  0  0  0  0  0  0  0  0  0  0  0
   37.3420   32.3070   48.8630 C   0  0  1  0  0  0  0  0  0  0  0  0
   38.7130   32.8640   48.8630 C   0  0  0  0  0  0  0  0  0  0  0  0
   39.2630   33.7910   49.4250 O   0  0  0  0  0  0  0  0  0  0  0  0
   38.4700   31.3650   45.6000 C   0  0  0  0  0  0  0  0  0  0  0  0
   38.5700   32.6560   45.1510 C   0  0  0  0  0  0  0  0  0  0  0  0
   39.7830   33.2700   44.9020 C   0  0  0  0  0  0  0  0  0  0  0  0
   40.9360   32.5090   45.1310 C   0  0  0  0  0  0  0  0  0  0  0  0
   40.9000   31.1920   45.5870 C   0  0  0  0  0  0  0  0  0  0  0  0
   39.6340   30.6590   45.8090 C   0  0  0  0  0  0  0  0  0  0  0  0
   34.8856   29.9334   48.2309 H   0  0  0  0  0  0  0  0  0  0  0  0
   34.5671   29.6693   44.0194 H   0  0  0  0  0  0  0  0  0  0  0  0
   37.8917   29.1329   49.3051 H   0  0  0  0  0  0  0  0  0  0  0  0
   39.0870   30.3904   49.4232 H   0  0  0  0  0  0  0  0  0  0  0  0
   36.3636   30.1496   50.8542 H   0  0  0  0  0  0  0  0  0  0  0  0
   37.8869   30.6503   51.5732 H   0  0  0  0  0  0  0  0  0  0  0  0
   35.8516   32.3671   50.4410 H   0  0  0  0  0  0  0  0  0  0  0  0
   37.4324   32.9091   50.9731 H   0  0  0  0  0  0  0  0  0  0  0  0
   36.7132   32.9636   48.2438 H   0  0  0  0  0  0  0  0  0  0  0  0
   39.3932   32.3098   48.1995 H   0  0  0  0  0  0  0  0  0  0  0  0
   37.6457   33.2278   44.9816 H   0  0  0  0  0  0  0  0  0  0  0  0
   39.8400   34.3075   44.5410 H   0  0  0  0  0  0  0  0  0  0  0  0
   41.9158   32.9719   44.9423 H   0  0  0  0  0  0  0  0  0  0  0  0
   41.8168   30.6096   45.7607 H   0  0  0  0  0  0  0  0  0  0  0  0
   39.5591   29.6224   46.1693 H   0  0  0  0  0  0  0  0  0  0  0  0
  2  1  2  0
  2  7  1  0
  3  2  1  0
  4  5  1  0
  4  3  2  0
  5  6  2  0
  6  1  1  0
  7 11  1  0
  7  8  1  0
  8  9  1  0
 10  9  1  0
 11 10  1  0
 12 11  1  0
 12 13  2  0
 14 19  1  0
 14  3  1  0
 15 14  2  0
 16 17  2  0
 16 15  1  0
 17 18  1  0
 18 19  2  0
  1 20  1  0
  5 21  1  0
  8 22  1  0
  8 23  1  0
  9 24  1  0
  9 25  1  0
 10 26  1  0
 10 27  1  0
 11 28  1  6
 12 29  1  0
 15 30  1  0
 16 31  1  0
 17 32  1  0
 18 33  1  0
 19 34  1  0
M  ISO  8  20  14  21  14  22  13  23  13  24  13  25  13  26  13  27  13
M  ISO  7  28  13  29   6  30  14  31  14  32  14  33  14  34  14
M  END
>  <minimizedAffinity>  (1) 
-5.8625226

>  <minimizedRMSD>  (1) 
1.66565788

$$$$
