
     RDKit          3D

 35 37  0  0  1  0  0  0  0  0999 V2000
   34.8080   29.8940   47.0180 C   0  0  0  0  0  0  0  0  0  0  0  0
   36.1170   30.4720   47.0210 C   0  0  0  0  0  0  0  0  0  0  0  0
   36.7450   30.6270   45.7880 C   0  0  0  0  0  0  0  0  0  0  0  0
   36.0970   30.2280   44.6600 N   0  0  0  0  0  0  0  0  0  0  0  0
   34.8640   29.6870   44.6960 C   0  0  0  0  0  0  0  0  0  0  0  0
   34.2310   29.5250   45.8630 N   0  0  0  0  0  0  0  0  0  0  0  0
   36.6200   30.8140   48.3010 N   0  0  0  0  0  0  0  0  0  0  0  0
   37.0250   32.0240   49.0290 C   0  0  0  0  0  0  0  0  0  0  0  0
   38.4060   31.6180   49.5520 C   0  0  0  0  0  0  0  0  0  0  0  0
   38.2620   30.1300   49.8440 C   0  0  0  0  0  0  0  0  0  0  0  0
   36.8720   29.8050   49.3190 C   0  0  1  0  0  0  0  0  0  0  0  0
   35.8460   29.7870   50.4100 C   0  0  0  0  0  0  0  0  0  0  0  0
   38.0660   31.1990   45.6780 C   0  0  0  0  0  0  0  0  0  0  0  0
   38.1800   32.4860   45.2090 C   0  0  0  0  0  0  0  0  0  0  0  0
   39.3980   33.1240   45.0650 C   0  0  0  0  0  0  0  0  0  0  0  0
   40.5340   32.4000   45.4210 C   0  0  0  0  0  0  0  0  0  0  0  0
   40.4820   31.0910   45.9020 C   0  0  0  0  0  0  0  0  0  0  0  0
   39.2100   30.5210   46.0150 C   0  0  0  0  0  0  0  0  0  0  0  0
   34.2712   29.7511   47.9675 H   0  0  0  0  0  0  0  0  0  0  0  0
   34.3751   29.3768   43.7607 H   0  0  0  0  0  0  0  0  0  0  0  0
   37.0890   32.8937   48.3586 H   0  0  0  0  0  0  0  0  0  0  0  0
   36.3201   32.3311   49.8156 H   0  0  0  0  0  0  0  0  0  0  0  0
   39.1805   31.7947   48.7911 H   0  0  0  0  0  0  0  0  0  0  0  0
   38.7128   32.1968   50.4357 H   0  0  0  0  0  0  0  0  0  0  0  0
   39.0299   29.5479   49.3135 H   0  0  0  0  0  0  0  0  0  0  0  0
   38.3887   29.8854   50.9090 H   0  0  0  0  0  0  0  0  0  0  0  0
   36.8089   28.7918   48.8955 H   0  0  0  0  0  0  0  0  0  0  0  0
   36.3502   29.7958   51.3876 H   0  0  0  0  0  0  0  0  0  0  0  0
   35.2014   30.6740   50.3218 H   0  0  0  0  0  0  0  0  0  0  0  0
   35.2329   28.8780   50.3218 H   0  0  0  0  0  0  0  0  0  0  0  0
   37.2640   33.0310   44.9369 H   0  0  0  0  0  0  0  0  0  0  0  0
   39.4670   34.1548   44.6871 H   0  0  0  0  0  0  0  0  0  0  0  0
   41.5172   32.8825   45.3182 H   0  0  0  0  0  0  0  0  0  0  0  0
   41.3920   30.5377   46.1773 H   0  0  0  0  0  0  0  0  0  0  0  0
   39.1235   29.4899   46.3883 H   0  0  0  0  0  0  0  0  0  0  0  0
  1  2  2  0
  2  7  1  0
  3  2  1  0
  4  5  1  0
  4  3  2  0
  5  6  2  0
  6  1  1  0
  7  8  1  0
  7 11  1  0
  8  9  1  0
  9 10  1  0
 11 10  1  0
 11 12  1  0
 13  3  1  0
 13 18  1  0
 14 13  2  0
 15 14  1  0
 15 16  2  0
 16 17  1  0
 17 18  2  0
  1 19  1  0
  5 20  1  0
  8 21  1  0
  8 22  1  0
  9 23  1  0
  9 24  1  0
 10 25  1  0
 10 26  1  0
 11 27  1  6
 12 28  1  0
 12 29  1  0
 12 30  1  0
 14 31  1  0
 15 32  1  0
 16 33  1  0
 17 34  1  0
 18 35  1  0
M  ISO  8  19  14  20  14  21  13  22  13  23  13  24  13  25  13  26  13
M  ISO  8  27  13  28   8  29   8  30   8  31  14  32  14  33  14  34  14
M  ISO  1  35  14
M  END
>  <minimizedAffinity>  (1) 
-5.40937901

>  <minimizedRMSD>  (1) 
0.628971219

$$$$
