
     RDKit          3D

 38 40  0  0  0  0  0  0  0  0999 V2000
   35.8440   30.6090   44.6500 C   0  0  0  0  0  0  0  0  0  0  0  0
   36.7460   30.6980   45.7090 C   0  0  0  0  0  0  0  0  0  0  0  0
   36.2900   30.3080   46.9710 C   0  0  0  0  0  0  0  0  0  0  0  0
   35.0110   29.8680   47.0990 N   0  0  0  0  0  0  0  0  0  0  0  0
   34.1700   29.7980   46.0380 C   0  0  0  0  0  0  0  0  0  0  0  0
   34.5900   30.1730   44.8000 N   0  0  0  0  0  0  0  0  0  0  0  0
   39.0350   30.5060   44.7600 C   0  0  0  0  0  0  0  0  0  0  0  0
   38.0760   31.1740   45.4840 C   0  0  0  0  0  0  0  0  0  0  0  0
   38.5050   32.4040   46.0090 C   0  0  0  0  0  0  0  0  0  0  0  0
   39.8010   32.8890   45.8020 C   0  0  0  0  0  0  0  0  0  0  0  0
   40.6910   32.1350   45.0540 C   0  0  0  0  0  0  0  0  0  0  0  0
   40.3030   30.9240   44.5240 C   0  0  0  0  0  0  0  0  0  0  0  0
   38.6890   29.2620   44.1970 O   0  0  0  0  0  0  0  0  0  0  0  0
   41.2180   30.1930   43.7820 O   0  0  0  0  0  0  0  0  0  0  0  0
   37.2000   30.3780   48.1420 C   0  0  0  0  0  0  0  0  0  0  0  0
   36.6780   29.3670   49.1460 C   0  0  0  0  0  0  0  0  0  0  0  0
   37.5670   29.2420   50.3430 C   0  0  0  0  0  0  0  0  0  0  0  0
   37.9350   30.6280   50.8080 C   0  0  0  0  0  0  0  0  0  0  0  0
   36.9950   31.6850   50.2380 C   0  0  0  0  0  0  0  0  0  0  0  0
   37.0690   31.7570   48.7380 C   0  0  0  0  0  0  0  0  0  0  0  0
   36.1793   30.9110   43.6468 H   0  0  0  0  0  0  0  0  0  0  0  0
   33.1411   29.4355   46.1794 H   0  0  0  0  0  0  0  0  0  0  0  0
   37.7998   33.0051   46.6017 H   0  0  0  0  0  0  0  0  0  0  0  0
   40.1091   33.8556   46.2272 H   0  0  0  0  0  0  0  0  0  0  0  0
   41.7125   32.5053   44.8825 H   0  0  0  0  0  0  0  0  0  0  0  0
   39.3559   28.7546   43.6698 H   0  0  0  0  0  0  0  0  0  0  0  0
   42.1326   30.5440   43.6392 H   0  0  0  0  0  0  0  0  0  0  0  0
   38.2473   30.1763   47.8730 H   0  0  0  0  0  0  0  0  0  0  0  0
   35.6787   29.6836   49.4794 H   0  0  0  0  0  0  0  0  0  0  0  0
   36.6445   28.3864   48.6487 H   0  0  0  0  0  0  0  0  0  0  0  0
   37.0365   28.7092   51.1459 H   0  0  0  0  0  0  0  0  0  0  0  0
   38.4742   28.6768   50.0832 H   0  0  0  0  0  0  0  0  0  0  0  0
   37.8832   30.6605   51.9063 H   0  0  0  0  0  0  0  0  0  0  0  0
   38.9526   30.8486   50.4534 H   0  0  0  0  0  0  0  0  0  0  0  0
   35.9639   31.4379   50.5309 H   0  0  0  0  0  0  0  0  0  0  0  0
   37.3004   32.6624   50.6398 H   0  0  0  0  0  0  0  0  0  0  0  0
   37.9425   32.3596   48.4484 H   0  0  0  0  0  0  0  0  0  0  0  0
   36.1442   32.2179   48.3609 H   0  0  0  0  0  0  0  0  0  0  0  0
  1  6  2  0
  1  2  1  0
  2  3  2  0
  3  4  1  0
  3 15  1  0
  5  4  2  0
  6  5  1  0
  7  8  2  0
  8  2  1  0
  8  9  1  0
 10  9  2  0
 11 10  1  0
 12  7  1  0
 12 11  2  0
 13  7  1  0
 14 12  1  0
 15 20  1  0
 15 16  1  0
 16 17  1  0
 17 18  1  0
 19 18  1  0
 20 19  1  0
  1 21  1  0
  5 22  1  0
  9 23  1  0
 10 24  1  0
 11 25  1  0
 13 26  1  0
 14 27  1  0
 15 28  1  0
 16 29  1  0
 16 30  1  0
 17 31  1  0
 17 32  1  0
 18 33  1  0
 18 34  1  0
 19 35  1  0
 19 36  1  0
 20 37  1  0
 20 38  1  0
M  ISO  8  21  14  22  14  23  14  24  14  25  14  26   3  27   3  28  13
M  ISO  8  29  13  30  13  31  13  32  13  33  13  34  13  35  13  36  13
M  ISO  2  37  13  38  13
M  END
>  <minimizedAffinity>  (1) 
-6.4236722

>  <minimizedRMSD>  (1) 
4.07978058

$$$$
