
     RDKit          3D

 41 43  0  0  0  0  0  0  0  0999 V2000
   38.1570   31.3660   47.8960 C   0  0  0  0  0  0  0  0  0  0  0  0
   37.2880   31.5860   48.9600 C   0  0  0  0  0  0  0  0  0  0  0  0
   37.4790   32.8030   49.6450 C   0  0  0  0  0  0  0  0  0  0  0  0
   38.4890   33.6930   49.2390 C   0  0  0  0  0  0  0  0  0  0  0  0
   39.3050   33.3780   48.1630 C   0  0  0  0  0  0  0  0  0  0  0  0
   39.1410   32.1990   47.4780 C   0  0  0  0  0  0  0  0  0  0  0  0
   35.1440   30.4650   48.5330 C   0  0  0  0  0  0  0  0  0  0  0  0
   36.2630   30.6670   49.3560 C   0  0  0  0  0  0  0  0  0  0  0  0
   36.3300   29.9500   50.5480 C   0  0  0  0  0  0  0  0  0  0  0  0
   35.3160   29.0960   50.8540 N   0  0  0  0  0  0  0  0  0  0  0  0
   34.2440   28.9290   50.0280 C   0  0  0  0  0  0  0  0  0  0  0  0
   34.1630   29.6130   48.8730 N   0  0  0  0  0  0  0  0  0  0  0  0
   37.4780   30.1160   51.4510 C   0  0  0  0  0  0  0  0  0  0  0  0
   38.0270   30.1780   47.1690 O   0  0  0  0  0  0  0  0  0  0  0  0
   39.9640   31.9260   46.4180 O   0  0  0  0  0  0  0  0  0  0  0  0
   39.7980   32.3860   45.1230 C   0  0  0  0  0  0  0  0  0  0  0  0
   38.3560   32.6230   44.7480 C   0  0  0  0  0  0  0  0  0  0  0  0
   37.7850   31.5780   43.8450 C   0  0  0  0  0  0  0  0  0  0  0  0
   38.6200   31.2820   42.6370 C   0  0  0  0  0  0  0  0  0  0  0  0
   40.0600   31.6200   42.7590 C   0  0  0  0  0  0  0  0  0  0  0  0
   40.4740   31.4110   44.1810 C   0  0  0  0  0  0  0  0  0  0  0  0
   36.8356   33.0574   50.5002 H   0  0  0  0  0  0  0  0  0  0  0  0
   38.6323   34.6420   49.7765 H   0  0  0  0  0  0  0  0  0  0  0  0
   40.0930   34.0808   47.8544 H   0  0  0  0  0  0  0  0  0  0  0  0
   35.0686   31.0186   47.5855 H   0  0  0  0  0  0  0  0  0  0  0  0
   33.4412   28.2311   50.3079 H   0  0  0  0  0  0  0  0  0  0  0  0
   37.1338   30.0662   52.4946 H   0  0  0  0  0  0  0  0  0  0  0  0
   38.2081   29.3141   51.2671 H   0  0  0  0  0  0  0  0  0  0  0  0
   37.9511   31.0919   51.2671 H   0  0  0  0  0  0  0  0  0  0  0  0
   38.6319   29.9953   46.4069 H   0  0  0  0  0  0  0  0  0  0  0  0
   40.2694   33.3767   45.0442 H   0  0  0  0  0  0  0  0  0  0  0  0
   37.7578   32.6476   45.6708 H   0  0  0  0  0  0  0  0  0  0  0  0
   38.3219   33.5743   44.1968 H   0  0  0  0  0  0  0  0  0  0  0  0
   37.6728   30.6483   44.4221 H   0  0  0  0  0  0  0  0  0  0  0  0
   36.8263   31.9712   43.4758 H   0  0  0  0  0  0  0  0  0  0  0  0
   38.2080   31.8528   41.7918 H   0  0  0  0  0  0  0  0  0  0  0  0
   38.5757   30.1917   42.4982 H   0  0  0  0  0  0  0  0  0  0  0  0
   40.6520   30.9680   42.0998 H   0  0  0  0  0  0  0  0  0  0  0  0
   40.2293   32.6665   42.4655 H   0  0  0  0  0  0  0  0  0  0  0  0
   40.2078   30.3866   44.4806 H   0  0  0  0  0  0  0  0  0  0  0  0
   41.5595   31.5774   44.2446 H   0  0  0  0  0  0  0  0  0  0  0  0
  1  2  2  0
  2  8  1  0
  2  3  1  0
  4  3  2  0
  5  4  1  0
  6  1  1  0
  6  5  2  0
  7 12  2  0
  7  8  1  0
  8  9  2  0
  9 10  1  0
  9 13  1  0
 11 10  2  0
 12 11  1  0
 14  1  1  0
 15  6  1  0
 16 15  1  0
 17 16  1  0
 18 17  1  0
 19 20  1  0
 19 18  1  0
 20 21  1  0
 21 16  1  0
  3 22  1  0
  4 23  1  0
  5 24  1  0
  7 25  1  0
 11 26  1  0
 13 27  1  0
 13 28  1  0
 13 29  1  0
 14 30  1  0
 16 31  1  0
 17 32  1  0
 17 33  1  0
 18 34  1  0
 18 35  1  0
 19 36  1  0
 19 37  1  0
 20 38  1  0
 20 39  1  0
 21 40  1  0
 21 41  1  0
M  ISO  8  22  14  23  14  24  14  25  14  26  14  27   8  28   8  29   8
M  ISO  8  30   3  31  13  32  13  33  13  34  13  35  13  36  13  37  13
M  ISO  4  38  13  39  13  40  13  41  13
M  END
>  <minimizedAffinity>  (1) 
-6.62358427

>  <minimizedRMSD>  (1) 
2.91452456

$$$$
