
     RDKit          3D

 53 57  0  0  0  0  0  0  0  0999 V2000
   38.1420   31.3920   47.7490 C   0  0  0  0  0  0  0  0  0  0  0  0
   37.1270   31.3760   48.6850 C   0  0  0  0  0  0  0  0  0  0  0  0
   37.1430   32.4690   49.5570 C   0  0  0  0  0  0  0  0  0  0  0  0
   38.1200   33.4790   49.4630 C   0  0  0  0  0  0  0  0  0  0  0  0
   39.1110   33.3900   48.4630 C   0  0  0  0  0  0  0  0  0  0  0  0
   39.1090   32.3180   47.5950 C   0  0  0  0  0  0  0  0  0  0  0  0
   35.0220   30.3880   47.9550 C   0  0  0  0  0  0  0  0  0  0  0  0
   36.1440   30.3630   48.7820 C   0  0  0  0  0  0  0  0  0  0  0  0
   36.2340   29.2940   49.6970 C   0  0  0  0  0  0  0  0  0  0  0  0
   35.2530   28.3700   49.7230 N   0  0  0  0  0  0  0  0  0  0  0  0
   34.1700   28.4470   48.8830 C   0  0  0  0  0  0  0  0  0  0  0  0
   34.0650   29.4470   48.0120 N   0  0  0  0  0  0  0  0  0  0  0  0
   37.4080   29.2080   50.6110 C   0  0  0  0  0  0  0  0  0  0  0  0
   38.2090   30.3360   46.8290 O   0  0  0  0  0  0  0  0  0  0  0  0
   40.1030   32.2950   46.6460 O   0  0  0  0  0  0  0  0  0  0  0  0
   40.2790   30.8120   44.6430 C   0  0  0  0  0  0  0  0  0  0  0  0
   39.9850   31.9740   45.3200 C   0  0  0  0  0  0  0  0  0  0  0  0
   39.4820   33.0440   44.5970 C   0  0  0  0  0  0  0  0  0  0  0  0
   39.2690   32.9610   43.2150 C   0  0  0  0  0  0  0  0  0  0  0  0
   38.8070   33.7990   42.2600 N   0  0  0  0  0  0  0  0  0  0  0  0
   38.8130   33.1930   41.0680 C   0  0  0  0  0  0  0  0  0  0  0  0
   39.2940   31.9320   41.2710 N   0  0  0  0  0  0  0  0  0  0  0  0
   39.5770   31.7810   42.5860 C   0  0  0  0  0  0  0  0  0  0  0  0
   40.0770   30.7170   43.2900 C   0  0  0  0  0  0  0  0  0  0  0  0
   40.4050   29.4790   42.6690 N   0  0  0  0  0  0  0  0  0  0  0  0
   39.3110   28.5720   42.9710 C   0  0  0  0  0  0  0  0  0  0  0  0
   39.6780   27.1830   42.5030 C   0  0  0  0  0  0  0  0  0  0  0  0
   40.0010   27.1370   41.0380 C   0  0  0  0  0  0  0  0  0  0  0  0
   40.9890   28.2250   40.6550 C   0  0  0  0  0  0  0  0  0  0  0  0
   41.5010   28.9660   41.8690 C   0  0  0  0  0  0  0  0  0  0  0  0
   36.3715   32.5419   50.3377 H   0  0  0  0  0  0  0  0  0  0  0  0
   38.1104   34.3283   50.1620 H   0  0  0  0  0  0  0  0  0  0  0  0
   39.8808   34.1709   48.3760 H   0  0  0  0  0  0  0  0  0  0  0  0
   34.9165   31.2080   47.2294 H   0  0  0  0  0  0  0  0  0  0  0  0
   33.3850   27.6779   48.9304 H   0  0  0  0  0  0  0  0  0  0  0  0
   37.0625   29.2333   51.6550 H   0  0  0  0  0  0  0  0  0  0  0  0
   37.9484   28.2679   50.4263 H   0  0  0  0  0  0  0  0  0  0  0  0
   38.0796   30.0594   50.4263 H   0  0  0  0  0  0  0  0  0  0  0  0
   38.9253   30.3194   46.1458 H   0  0  0  0  0  0  0  0  0  0  0  0
   40.6809   29.9490   45.1941 H   0  0  0  0  0  0  0  0  0  0  0  0
   39.2442   33.9814   45.1212 H   0  0  0  0  0  0  0  0  0  0  0  0
   38.4949   34.7663   42.4268 H   0  0  0  0  0  0  0  0  0  0  0  0
   38.4923   33.6269   40.1094 H   0  0  0  0  0  0  0  0  0  0  0  0
   39.1313   28.5598   44.0562 H   0  0  0  0  0  0  0  0  0  0  0  0
   38.3982   28.9076   42.4569 H   0  0  0  0  0  0  0  0  0  0  0  0
   40.5569   26.8407   43.0690 H   0  0  0  0  0  0  0  0  0  0  0  0
   38.8082   26.5318   42.6742 H   0  0  0  0  0  0  0  0  0  0  0  0
   40.4376   26.1563   40.7982 H   0  0  0  0  0  0  0  0  0  0  0  0
   39.0712   27.2985   40.4728 H   0  0  0  0  0  0  0  0  0  0  0  0
   41.8407   27.7655   40.1321 H   0  0  0  0  0  0  0  0  0  0  0  0
   40.4711   28.9461   40.0056 H   0  0  0  0  0  0  0  0  0  0  0  0
   42.1022   28.2786   42.4822 H   0  0  0  0  0  0  0  0  0  0  0  0
   42.1116   29.8150   41.5280 H   0  0  0  0  0  0  0  0  0  0  0  0
  1  2  2  0
  2  8  1  0
  2  3  1  0
  4  3  2  0
  5  4  1  0
  6  1  1  0
  6  5  2  0
  7 12  2  0
  7  8  1  0
  8  9  2  0
  9 10  1  0
  9 13  1  0
 11 10  2  0
 12 11  1  0
 14  1  1  0
 15  6  1  0
 16 17  2  0
 17 15  1  0
 18 17  1  0
 19 18  2  0
 20 19  1  0
 21 22  2  0
 21 20  1  0
 22 23  1  0
 23 19  1  0
 23 24  2  0
 24 16  1  0
 25 26  1  0
 25 24  1  0
 27 26  1  0
 28 27  1  0
 29 28  1  0
 29 30  1  0
 30 25  1  0
  3 31  1  0
  4 32  1  0
  5 33  1  0
  7 34  1  0
 11 35  1  0
 13 36  1  0
 13 37  1  0
 13 38  1  0
 14 39  1  0
 16 40  1  0
 18 41  1  0
 20 42  1  0
 21 43  1  0
 26 44  1  0
 26 45  1  0
 27 46  1  0
 27 47  1  0
 28 48  1  0
 28 49  1  0
 29 50  1  0
 29 51  1  0
 30 52  1  0
 30 53  1  0
M  ISO  8  31  14  32  14  33  14  34  14  35  14  36   8  37   8  38   8
M  ISO  8  39   3  40  14  41  14  42   9  43  14  44  13  45  13  46  13
M  ISO  7  47  13  48  13  49  13  50  13  51  13  52  13  53  13
M  END
>  <minimizedAffinity>  (1) 
-7.90546751

>  <minimizedRMSD>  (1) 
0.892099082

$$$$
