
     RDKit          3D

 39 42  0  0  0  0  0  0  0  0999 V2000
   38.0860   31.3250   47.8000 C   0  0  0  0  0  0  0  0  0  0  0  0
   37.0940   31.3230   48.7620 C   0  0  0  0  0  0  0  0  0  0  0  0
   37.1330   32.4310   49.6140 C   0  0  0  0  0  0  0  0  0  0  0  0
   38.0990   33.4360   49.4840 C   0  0  0  0  0  0  0  0  0  0  0  0
   39.0630   33.3370   48.4680 C   0  0  0  0  0  0  0  0  0  0  0  0
   39.0380   32.2440   47.6130 C   0  0  0  0  0  0  0  0  0  0  0  0
   34.9750   30.3070   48.0750 C   0  0  0  0  0  0  0  0  0  0  0  0
   36.1130   30.3060   48.8970 C   0  0  0  0  0  0  0  0  0  0  0  0
   36.2200   29.2660   49.8350 C   0  0  0  0  0  0  0  0  0  0  0  0
   35.2370   28.3340   49.8980 N   0  0  0  0  0  0  0  0  0  0  0  0
   34.1470   28.3850   49.0710 C   0  0  0  0  0  0  0  0  0  0  0  0
   34.0310   29.3710   48.1710 N   0  0  0  0  0  0  0  0  0  0  0  0
   37.4020   29.2080   50.7360 C   0  0  0  0  0  0  0  0  0  0  0  0
   38.1340   30.2460   46.8860 O   0  0  0  0  0  0  0  0  0  0  0  0
   40.0160   32.2200   46.6450 O   0  0  0  0  0  0  0  0  0  0  0  0
   40.5300   31.1450   44.4540 C   0  0  0  0  0  0  0  0  0  0  0  0
   39.8510   31.9800   45.3050 C   0  0  0  0  0  0  0  0  0  0  0  0
   38.8120   32.7390   44.7890 C   0  0  0  0  0  0  0  0  0  0  0  0
   38.4510   32.6640   43.4300 C   0  0  0  0  0  0  0  0  0  0  0  0
   37.5210   33.2510   42.6510 N   0  0  0  0  0  0  0  0  0  0  0  0
   37.6230   32.8040   41.3990 C   0  0  0  0  0  0  0  0  0  0  0  0
   38.6450   31.9060   41.3780 N   0  0  0  0  0  0  0  0  0  0  0  0
   39.1680   31.8110   42.6340 C   0  0  0  0  0  0  0  0  0  0  0  0
   40.2000   31.0520   43.1250 C   0  0  0  0  0  0  0  0  0  0  0  0
   40.9410   30.1770   42.3270 O   0  0  0  0  0  0  0  0  0  0  0  0
   36.3806   32.5158   50.4120 H   0  0  0  0  0  0  0  0  0  0  0  0
   38.1027   34.2949   50.1712 H   0  0  0  0  0  0  0  0  0  0  0  0
   39.8296   34.1171   48.3509 H   0  0  0  0  0  0  0  0  0  0  0  0
   34.8587   31.1058   47.3278 H   0  0  0  0  0  0  0  0  0  0  0  0
   33.3649   27.6150   49.1455 H   0  0  0  0  0  0  0  0  0  0  0  0
   37.0659   29.2245   51.7833 H   0  0  0  0  0  0  0  0  0  0  0  0
   37.9631   28.2812   50.5455 H   0  0  0  0  0  0  0  0  0  0  0  0
   38.0511   30.0754   50.5455 H   0  0  0  0  0  0  0  0  0  0  0  0
   38.8337   30.2209   46.1861 H   0  0  0  0  0  0  0  0  0  0  0  0
   41.3580   30.5360   44.8459 H   0  0  0  0  0  0  0  0  0  0  0  0
   38.2571   33.4150   45.4562 H   0  0  0  0  0  0  0  0  0  0  0  0
   36.8317   33.9441   42.9756 H   0  0  0  0  0  0  0  0  0  0  0  0
   36.9988   33.1044   40.5445 H   0  0  0  0  0  0  0  0  0  0  0  0
   41.6779   29.6485   42.7242 H   0  0  0  0  0  0  0  0  0  0  0  0
  1  2  2  0
  2  8  1  0
  2  3  1  0
  4  3  2  0
  5  4  1  0
  6  1  1  0
  6  5  2  0
  7 12  2  0
  7  8  1  0
  8  9  2  0
  9 10  1  0
  9 13  1  0
 11 10  2  0
 12 11  1  0
 14  1  1  0
 15  6  1  0
 16 17  2  0
 17 15  1  0
 18 17  1  0
 19 18  2  0
 20 19  1  0
 21 20  1  0
 22 21  2  0
 22 23  1  0
 23 24  2  0
 23 19  1  0
 24 16  1  0
 25 24  1  0
  3 26  1  0
  4 27  1  0
  5 28  1  0
  7 29  1  0
 11 30  1  0
 13 31  1  0
 13 32  1  0
 13 33  1  0
 14 34  1  0
 16 35  1  0
 18 36  1  0
 20 37  1  0
 21 38  1  0
 25 39  1  0
M  ISO  8  26  14  27  14  28  14  29  14  30  14  31   8  32   8  33   8
M  ISO  6  34   3  35  14  36  14  37   9  38  14  39   3
M  END
>  <minimizedAffinity>  (1) 
-7.25825691

>  <minimizedRMSD>  (1) 
0.0539243445

$$$$
