
     RDKit          3D

 44 47  0  0  0  0  0  0  0  0999 V2000
   38.0310   31.3560   48.1830 C   0  0  0  0  0  0  0  0  0  0  0  0
   37.1980   31.6180   49.2600 C   0  0  0  0  0  0  0  0  0  0  0  0
   37.4220   32.8650   49.8480 C   0  0  0  0  0  0  0  0  0  0  0  0
   38.4010   33.7520   49.3760 C   0  0  0  0  0  0  0  0  0  0  0  0
   39.1850   33.3820   48.2790 C   0  0  0  0  0  0  0  0  0  0  0  0
   38.9840   32.1410   47.6720 C   0  0  0  0  0  0  0  0  0  0  0  0
   34.9880   30.6090   49.0630 C   0  0  0  0  0  0  0  0  0  0  0  0
   36.2030   30.7200   49.7420 C   0  0  0  0  0  0  0  0  0  0  0  0
   36.3790   29.9310   50.8780 C   0  0  0  0  0  0  0  0  0  0  0  0
   35.3840   29.1050   51.2700 N   0  0  0  0  0  0  0  0  0  0  0  0
   34.2130   29.0290   50.5750 C   0  0  0  0  0  0  0  0  0  0  0  0
   34.0140   29.7720   49.4820 N   0  0  0  0  0  0  0  0  0  0  0  0
   37.6650   30.0170   51.6380 C   0  0  0  0  0  0  0  0  0  0  0  0
   37.8850   30.1240   47.5220 O   0  0  0  0  0  0  0  0  0  0  0  0
   39.7990   31.8540   46.5950 O   0  0  0  0  0  0  0  0  0  0  0  0
   40.1390   31.4270   44.1760 C   0  0  0  0  0  0  0  0  0  0  0  0
   39.4540   31.8590   45.2870 C   0  0  0  0  0  0  0  0  0  0  0  0
   38.1840   32.4050   45.1000 C   0  0  0  0  0  0  0  0  0  0  0  0
   37.6170   32.5110   43.8220 C   0  0  0  0  0  0  0  0  0  0  0  0
   36.4560   32.9710   43.3310 N   0  0  0  0  0  0  0  0  0  0  0  0
   36.4170   32.8350   42.0020 C   0  0  0  0  0  0  0  0  0  0  0  0
   37.5980   32.2670   41.6350 N   0  0  0  0  0  0  0  0  0  0  0  0
   38.3580   32.0560   42.7450 C   0  0  0  0  0  0  0  0  0  0  0  0
   39.6150   31.5160   42.9110 C   0  0  0  0  0  0  0  0  0  0  0  0
   40.3860   31.0240   41.7470 C   0  0  0  0  0  0  0  0  0  0  0  0
   41.0390   29.7130   42.1820 C   0  0  0  0  0  0  0  0  0  0  0  0
   36.8091   33.1621   50.7117 H   0  0  0  0  0  0  0  0  0  0  0  0
   38.5501   34.7269   49.8631 H   0  0  0  0  0  0  0  0  0  0  0  0
   39.9568   34.0658   47.8959 H   0  0  0  0  0  0  0  0  0  0  0  0
   34.8195   31.2191   48.1633 H   0  0  0  0  0  0  0  0  0  0  0  0
   33.4215   28.3468   50.9187 H   0  0  0  0  0  0  0  0  0  0  0  0
   37.4545   30.0029   52.7176 H   0  0  0  0  0  0  0  0  0  0  0  0
   38.3029   29.1595   51.3776 H   0  0  0  0  0  0  0  0  0  0  0  0
   38.1830   30.9518   51.3776 H   0  0  0  0  0  0  0  0  0  0  0  0
   38.4638   29.9052   46.7492 H   0  0  0  0  0  0  0  0  0  0  0  0
   41.1422   30.9949   44.3058 H   0  0  0  0  0  0  0  0  0  0  0  0
   37.6159   32.7595   45.9727 H   0  0  0  0  0  0  0  0  0  0  0  0
   35.6983   33.3739   43.9006 H   0  0  0  0  0  0  0  0  0  0  0  0
   35.5917   33.1254   41.3352 H   0  0  0  0  0  0  0  0  0  0  0  0
   41.1562   31.7567   41.4642 H   0  0  0  0  0  0  0  0  0  0  0  0
   39.7348   30.8734   40.8734 H   0  0  0  0  0  0  0  0  0  0  0  0
   41.0641   29.6627   43.2806 H   0  0  0  0  0  0  0  0  0  0  0  0
   40.4576   28.8658   41.7893 H   0  0  0  0  0  0  0  0  0  0  0  0
   42.0655   29.6667   41.7893 H   0  0  0  0  0  0  0  0  0  0  0  0
  1  2  2  0
  2  8  1  0
  2  3  1  0
  4  3  2  0
  5  4  1  0
  6  1  1  0
  6  5  2  0
  7 12  2  0
  7  8  1  0
  8  9  2  0
  9 10  1  0
  9 13  1  0
 11 10  2  0
 12 11  1  0
 14  1  1  0
 15  6  1  0
 16 17  2  0
 17 15  1  0
 18 17  1  0
 19 18  2  0
 20 19  1  0
 21 20  1  0
 22 21  2  0
 22 23  1  0
 23 24  2  0
 23 19  1  0
 24 16  1  0
 25 26  1  0
 25 24  1  0
  3 27  1  0
  4 28  1  0
  5 29  1  0
  7 30  1  0
 11 31  1  0
 13 32  1  0
 13 33  1  0
 13 34  1  0
 14 35  1  0
 16 36  1  0
 18 37  1  0
 20 38  1  0
 21 39  1  0
 25 40  1  0
 25 41  1  0
 26 42  1  0
 26 43  1  0
 26 44  1  0
M  ISO  8  27  14  28  14  29  14  30  14  31  14  32   8  33   8  34   8
M  ISO  8  35   3  36  14  37  14  38   9  39  14  40   8  41   8  42   8
M  ISO  2  43   8  44   8
M  END
>  <minimizedAffinity>  (1) 
-7.22475624

>  <minimizedRMSD>  (1) 
0.998919189

$$$$
