
     RDKit          3D

 32 33  0  0  0  0  0  0  0  0999 V2000
   36.3340   30.4750   47.4290 C   0  0  0  0  0  0  0  0  0  0  0  0
   36.3500   29.5030   51.0770 C   0  0  0  0  0  0  0  0  0  0  0  0
   35.9290   29.5700   49.7630 C   0  0  0  0  0  0  0  0  0  0  0  0
   36.6530   30.3090   48.8650 C   0  0  0  0  0  0  0  0  0  0  0  0
   37.7800   30.9510   49.3400 N   0  0  0  0  0  0  0  0  0  0  0  0
   38.1590   30.8660   50.6120 C   0  0  0  0  0  0  0  0  0  0  0  0
   37.4450   30.1380   51.4980 N   0  0  0  0  0  0  0  0  0  0  0  0
   34.9210   30.0240   47.1410 C   0  0  0  0  0  0  0  0  0  0  0  0
   34.7190   29.6750   45.3700 S   0  0  0  0  0  0  0  0  0  0  0  0
   30.3880   29.3860   44.6430 N   0  0  0  0  0  0  0  0  0  0  0  0
   30.9360   28.1860   45.2710 C   0  0  0  0  0  0  0  0  0  0  0  0
   32.3730   28.4180   45.6630 C   0  0  0  0  0  0  0  0  0  0  0  0
   32.9560   29.6220   44.9660 C   0  0  0  0  0  0  0  0  0  0  0  0
   32.2230   30.8470   45.4180 C   0  0  0  0  0  0  0  0  0  0  0  0
   30.7370   30.5880   45.3630 C   0  0  0  0  0  0  0  0  0  0  0  0
   36.4373   31.5356   47.1563 H   0  0  0  0  0  0  0  0  0  0  0  0
   37.0291   29.8600   46.8386 H   0  0  0  0  0  0  0  0  0  0  0  0
   35.7661   28.9096   51.7960 H   0  0  0  0  0  0  0  0  0  0  0  0
   35.0227   29.0360   49.4414 H   0  0  0  0  0  0  0  0  0  0  0  0
   39.0640   31.3944   50.9463 H   0  0  0  0  0  0  0  0  0  0  0  0
   34.7067   29.1119   47.7173 H   0  0  0  0  0  0  0  0  0  0  0  0
   34.2241   30.8247   47.4296 H   0  0  0  0  0  0  0  0  0  0  0  0
   30.7562   29.4556   43.6836 H   0  0  0  0  0  0  0  0  0  0  0  0
   30.3482   27.9442   46.1688 H   0  0  0  0  0  0  0  0  0  0  0  0
   30.8875   27.3510   44.5565 H   0  0  0  0  0  0  0  0  0  0  0  0
   32.4244   28.5764   46.7503 H   0  0  0  0  0  0  0  0  0  0  0  0
   32.9560   27.5343   45.3644 H   0  0  0  0  0  0  0  0  0  0  0  0
   32.8471   29.5675   43.8728 H   0  0  0  0  0  0  0  0  0  0  0  0
   32.5156   31.0904   46.4501 H   0  0  0  0  0  0  0  0  0  0  0  0
   32.4745   31.6911   44.7590 H   0  0  0  0  0  0  0  0  0  0  0  0
   30.2526   31.4430   44.8686 H   0  0  0  0  0  0  0  0  0  0  0  0
   30.3931   30.4556   46.3994 H   0  0  0  0  0  0  0  0  0  0  0  0
  1  4  1  0
  2  7  2  0
  3  2  1  0
  4  5  1  0
  4  3  2  0
  5  6  2  0
  6  7  1  0
  8  1  1  0
  9  8  1  0
 10 11  1  0
 10 15  1  0
 11 12  1  0
 13  9  1  0
 13 14  1  0
 13 12  1  0
 15 14  1  0
  1 16  1  0
  1 17  1  0
  2 18  1  0
  3 19  1  0
  6 20  1  0
  8 21  1  0
  8 22  1  0
 10 23  1  0
 11 24  1  0
 11 25  1  0
 12 26  1  0
 12 27  1  0
 13 28  1  0
 14 29  1  0
 14 30  1  0
 15 31  1  0
 15 32  1  0
M  ISO  8  16   8  17   8  18  14  19  14  20  14  21   8  22   8  23   5
M  ISO  8  24  13  25  13  26  13  27  13  28  13  29  13  30  13  31  13
M  ISO  1  32  13
M  END
>  <minimizedAffinity>  (1) 
-3.50231838

>  <minimizedRMSD>  (1) 
7.91286755

$$$$
