
     RDKit          3D

 34 35  0  0  1  0  0  0  0  0999 V2000
   38.3080   31.4440   49.3410 C   0  0  2  0  0  0  0  0  0  0  0  0
   38.8650   32.7610   49.8330 C   0  0  0  0  0  0  0  0  0  0  0  0
   39.0680   33.7250   48.6790 C   0  0  0  0  0  0  0  0  0  0  0  0
   39.5230   32.9440   47.4830 C   0  0  0  0  0  0  0  0  0  0  0  0
   38.3290   32.1940   46.9450 C   0  0  0  0  0  0  0  0  0  0  0  0
   37.5740   31.5820   48.0640 C   0  0  1  0  0  0  0  0  0  0  0  0
   37.3920   30.2490   47.6020 O   0  0  0  0  0  0  0  0  0  0  0  0
   37.1880   30.7860   50.5990 S   0  0  0  0  0  0  0  0  0  0  0  0
   36.5650   29.1380   50.2480 C   0  0  0  0  0  0  0  0  0  0  0  0
   35.0680   29.1450   50.4360 C   0  0  0  0  0  0  0  0  0  0  0  0
   32.8400   28.0700   47.6360 C   0  0  0  0  0  0  0  0  0  0  0  0
   33.5230   28.0950   48.8490 C   0  0  0  0  0  0  0  0  0  0  0  0
   34.3460   29.1310   49.1780 C   0  0  0  0  0  0  0  0  0  0  0  0
   34.4590   30.1350   48.2580 N   0  0  0  0  0  0  0  0  0  0  0  0
   33.8100   30.1110   47.1070 C   0  0  0  0  0  0  0  0  0  0  0  0
   32.9950   29.1030   46.7600 N   0  0  0  0  0  0  0  0  0  0  0  0
   39.1541   30.7642   49.1623 H   0  0  0  0  0  0  0  0  0  0  0  0
   38.1612   33.2037   50.5532 H   0  0  0  0  0  0  0  0  0  0  0  0
   39.8374   32.5754   50.3126 H   0  0  0  0  0  0  0  0  0  0  0  0
   38.1208   34.2355   48.4507 H   0  0  0  0  0  0  0  0  0  0  0  0
   39.8221   34.4800   48.9460 H   0  0  0  0  0  0  0  0  0  0  0  0
   39.9133   33.6280   46.7150 H   0  0  0  0  0  0  0  0  0  0  0  0
   40.3248   32.2442   47.7614 H   0  0  0  0  0  0  0  0  0  0  0  0
   37.6746   32.8912   46.4012 H   0  0  0  0  0  0  0  0  0  0  0  0
   38.6744   31.4021   46.2642 H   0  0  0  0  0  0  0  0  0  0  0  0
   36.6921   32.2025   48.2816 H   0  0  0  0  0  0  0  0  0  0  0  0
   37.3088   29.6394   48.3776 H   0  0  0  0  0  0  0  0  0  0  0  0
   37.0226   28.4132   50.9373 H   0  0  0  0  0  0  0  0  0  0  0  0
   36.8151   28.8512   49.2159 H   0  0  0  0  0  0  0  0  0  0  0  0
   34.7819   28.2551   51.0159 H   0  0  0  0  0  0  0  0  0  0  0  0
   34.8033   30.0748   50.9608 H   0  0  0  0  0  0  0  0  0  0  0  0
   32.1816   27.2248   47.3869 H   0  0  0  0  0  0  0  0  0  0  0  0
   33.3960   27.2621   49.5562 H   0  0  0  0  0  0  0  0  0  0  0  0
   33.9429   30.9490   46.4070 H   0  0  0  0  0  0  0  0  0  0  0  0
  1  2  1  0
  1  8  1  0
  3  2  1  0
  4  3  1  0
  5  4  1  0
  5  6  1  0
  6  1  1  0
  7  6  1  0
  9 10  1  0
  9  8  1  0
 11 12  2  0
 12 13  1  0
 13 10  1  0
 14 13  2  0
 15 14  1  0
 16 15  2  0
 16 11  1  0
  1 17  1  6
  2 18  1  0
  2 19  1  0
  3 20  1  0
  3 21  1  0
  4 22  1  0
  4 23  1  0
  5 24  1  0
  5 25  1  0
  6 26  1  1
  7 27  1  0
  9 28  1  0
  9 29  1  0
 10 30  1  0
 10 31  1  0
 11 32  1  0
 12 33  1  0
 15 34  1  0
M  ISO  8  17  13  18  13  19  13  20  13  21  13  22  13  23  13  24  13
M  ISO  8  25  13  26  13  27   3  28   8  29   8  30   8  31   8  32  14
M  ISO  2  33  14  34  14
M  END
>  <minimizedAffinity>  (1) 
-4.6324687

>  <minimizedRMSD>  (1) 
1.5237962

$$$$
