
     RDKit          3D

 30 31  0  0  1  0  0  0  0  0999 V2000
   36.0610   30.6960   49.0780 C   0  0  2  0  0  0  0  0  0  0  0  0
   37.0510   31.6380   49.7330 C   0  0  0  0  0  0  0  0  0  0  0  0
   38.0470   30.9460   50.6160 C   0  0  0  0  0  0  0  0  0  0  0  0
   37.3590   30.0820   51.6610 C   0  0  0  0  0  0  0  0  0  0  0  0
   36.1750   29.3280   51.1310 C   0  0  0  0  0  0  0  0  0  0  0  0
   36.2120   29.3090   49.6120 C   0  0  1  0  0  0  0  0  0  0  0  0
   36.3230   30.6460   47.6080 C   0  0  0  0  0  0  0  0  0  0  0  0
   37.5630   31.1470   47.1750 C   0  0  0  0  0  0  0  0  0  0  0  0
   37.8020   31.1100   45.7960 C   0  0  0  0  0  0  0  0  0  0  0  0
   36.8450   30.6030   44.9610 N   0  0  0  0  0  0  0  0  0  0  0  0
   35.6550   30.1270   45.4230 C   0  0  0  0  0  0  0  0  0  0  0  0
   35.4160   30.1590   46.7440 N   0  0  0  0  0  0  0  0  0  0  0  0
   33.9250   28.2400   49.2490 C   0  0  0  0  0  0  0  0  0  0  0  0
   33.0230   28.8720   49.8960 O   0  0  0  0  0  0  0  0  0  0  0  0
   35.3510   28.3340   49.0450 N   0  0  0  0  0  0  0  0  0  0  0  0
   35.0473   31.0670   49.2898 H   0  0  0  0  0  0  0  0  0  0  0  0
   37.5991   32.1709   48.9420 H   0  0  0  0  0  0  0  0  0  0  0  0
   36.4717   32.3193   50.3735 H   0  0  0  0  0  0  0  0  0  0  0  0
   38.6936   30.3089   49.9947 H   0  0  0  0  0  0  0  0  0  0  0  0
   38.6381   31.7134   51.1372 H   0  0  0  0  0  0  0  0  0  0  0  0
   38.0892   29.3559   52.0476 H   0  0  0  0  0  0  0  0  0  0  0  0
   36.9868   30.7581   52.4448 H   0  0  0  0  0  0  0  0  0  0  0  0
   36.2008   28.2955   51.5095 H   0  0  0  0  0  0  0  0  0  0  0  0
   35.2512   29.8232   51.4647 H   0  0  0  0  0  0  0  0  0  0  0  0
   37.2039   28.9652   49.2834 H   0  0  0  0  0  0  0  0  0  0  0  0
   38.3054   31.5465   47.8815 H   0  0  0  0  0  0  0  0  0  0  0  0
   38.7518   31.4857   45.3875 H   0  0  0  0  0  0  0  0  0  0  0  0
   34.9043   29.7242   44.7272 H   0  0  0  0  0  0  0  0  0  0  0  0
   33.4979   27.3910   48.6952 H   0  0  0  0  0  0  0  0  0  0  0  0
   35.7832   27.6285   48.4315 H   0  0  0  0  0  0  0  0  0  0  0  0
  1  6  1  0
  1  2  1  0
  2  3  1  0
  3  4  1  0
  5  4  1  0
  6  5  1  0
  7  1  1  0
  8  7  2  0
  9  8  1  0
 10 11  1  0
 10  9  2  0
 11 12  2  0
 12  7  1  0
 13 14  2  0
 15 13  1  0
 15  6  1  0
  1 16  1  6
  2 17  1  0
  2 18  1  0
  3 19  1  0
  3 20  1  0
  4 21  1  0
  4 22  1  0
  5 23  1  0
  5 24  1  0
  6 25  1  1
  8 26  1  0
  9 27  1  0
 11 28  1  0
 13 29  1  0
 15 30  1  0
M  ISO  8  16  13  17  13  18  13  19  13  20  13  21  13  22  13  23  13
M  ISO  6  24  13  25  13  26  14  27  14  28  14  29   6
M  END
>  <minimizedAffinity>  (1) 
-5.16621494

>  <minimizedRMSD>  (1) 
3.00369453

$$$$
