
     RDKit          3D

 33 36  0  0  1  0  0  0  0  0999 V2000
   37.5550   32.0360   48.4990 C   0  0  1  0  0  0  0  0  0  0  0  0
   38.6920   32.8820   48.7980 C   0  0  0  0  0  0  0  0  0  0  0  0
   38.8920   31.6400   47.9040 C   0  0  2  0  0  0  0  0  0  0  0  0
   39.3430   32.0590   46.5730 C   0  0  0  0  0  0  0  0  0  0  0  0
   39.8040   33.3830   46.6120 C   0  0  0  0  0  0  0  0  0  0  0  0
   40.2490   34.0270   45.4480 C   0  0  0  0  0  0  0  0  0  0  0  0
   40.2460   33.3740   44.2230 C   0  0  0  0  0  0  0  0  0  0  0  0
   39.7940   32.0880   44.2120 C   0  0  0  0  0  0  0  0  0  0  0  0
   39.7430   31.3000   43.0720 C   0  0  0  0  0  0  0  0  0  0  0  0
   39.2950   29.9810   43.0540 C   0  0  0  0  0  0  0  0  0  0  0  0
   38.8680   29.3990   44.2470 C   0  0  0  0  0  0  0  0  0  0  0  0
   38.9110   30.1630   45.3890 C   0  0  0  0  0  0  0  0  0  0  0  0
   39.3600   31.4600   45.3580 C   0  0  0  0  0  0  0  0  0  0  0  0
   35.2770   29.5930   50.2080 C   0  0  0  0  0  0  0  0  0  0  0  0
   35.7910   30.4980   49.2380 C   0  0  0  0  0  0  0  0  0  0  0  0
   37.0280   31.0820   49.4930 C   0  0  0  0  0  0  0  0  0  0  0  0
   37.6800   30.7600   50.6540 N   0  0  0  0  0  0  0  0  0  0  0  0
   37.1640   29.8990   51.5490 C   0  0  0  0  0  0  0  0  0  0  0  0
   35.9570   29.3070   51.3340 N   0  0  0  0  0  0  0  0  0  0  0  0
   36.5508   32.2843   48.1249 H   0  0  0  0  0  0  0  0  0  0  0  0
   38.7561   33.8887   48.3594 H   0  0  0  0  0  0  0  0  0  0  0  0
   39.1584   33.2519   49.7230 H   0  0  0  0  0  0  0  0  0  0  0  0
   39.3996   30.6652   47.8578 H   0  0  0  0  0  0  0  0  0  0  0  0
   39.8168   33.9244   47.5695 H   0  0  0  0  0  0  0  0  0  0  0  0
   40.6060   35.0658   45.5068 H   0  0  0  0  0  0  0  0  0  0  0  0
   40.5920   33.8708   43.3046 H   0  0  0  0  0  0  0  0  0  0  0  0
   40.0771   31.7441   42.1227 H   0  0  0  0  0  0  0  0  0  0  0  0
   39.2784   29.4085   42.1149 H   0  0  0  0  0  0  0  0  0  0  0  0
   38.5077   28.3600   44.2735 H   0  0  0  0  0  0  0  0  0  0  0  0
   38.5801   29.7279   46.3436 H   0  0  0  0  0  0  0  0  0  0  0  0
   34.3013   29.1159   50.0338 H   0  0  0  0  0  0  0  0  0  0  0  0
   35.2308   30.7277   48.3196 H   0  0  0  0  0  0  0  0  0  0  0  0
   37.7248   29.6700   52.4672 H   0  0  0  0  0  0  0  0  0  0  0  0
  1  2  1  0
  1 16  1  0
  3  1  1  0
  3  2  1  0
  4  5  2  0
  4  3  1  0
  6  5  1  0
  7  6  2  0
  8  7  1  0
  8 13  2  0
  9  8  1  0
 10  9  2  0
 10 11  1  0
 11 12  2  0
 13 12  1  0
 13  4  1  0
 14 19  2  0
 15 16  2  0
 15 14  1  0
 16 17  1  0
 17 18  2  0
 19 18  1  0
  1 20  1  6
  2 21  1  0
  2 22  1  0
  3 23  1  1
  5 24  1  0
  6 25  1  0
  7 26  1  0
  9 27  1  0
 10 28  1  0
 11 29  1  0
 12 30  1  0
 14 31  1  0
 15 32  1  0
 18 33  1  0
M  ISO  8  20  13  21  13  22  13  23  13  24  14  25  14  26  14  27  14
M  ISO  6  28  14  29  14  30  14  31  14  32  14  33  14
M  END
>  <minimizedAffinity>  (1) 
-6.22836447

>  <minimizedRMSD>  (1) 
3.75245261

$$$$
