
     RDKit          3D

 31 32  0  0  1  0  0  0  0  0999 V2000
   35.9660   29.9650   47.5220 C   0  0  0  0  0  0  0  0  0  0  0  0
   36.6090   30.6570   46.5860 C   0  0  0  0  0  0  0  0  0  0  0  0
   37.8940   30.4410   47.0500 O   0  0  0  0  0  0  0  0  0  0  0  0
   38.9190   31.0820   46.3770 C   0  0  0  0  0  0  0  0  0  0  0  0
   39.0880   32.4070   46.7860 C   0  0  0  0  0  0  0  0  0  0  0  0
   40.0830   33.1790   46.1970 C   0  0  0  0  0  0  0  0  0  0  0  0
   40.8480   32.5780   45.2360 N   0  0  0  0  0  0  0  0  0  0  0  0
   40.6740   31.2950   44.8490 C   0  0  0  0  0  0  0  0  0  0  0  0
   39.7140   30.5690   45.4250 N   0  0  0  0  0  0  0  0  0  0  0  0
   35.0930   30.5920   48.5600 C   0  0  0  0  0  0  0  0  0  0  0  0
   35.6120   30.3520   49.9580 C   0  0  1  0  0  0  0  0  0  0  0  0
   36.3260   29.0240   50.0900 C   0  0  0  0  0  0  0  0  0  0  0  0
   37.3250   29.3130   51.1620 C   0  0  0  0  0  0  0  0  0  0  0  0
   37.5770   30.6650   51.1880 O   0  0  0  0  0  0  0  0  0  0  0  0
   36.7960   31.2840   50.2460 C   0  0  0  0  0  0  0  0  0  0  0  0
   36.7418   29.4148   48.0747 H   0  0  0  0  0  0  0  0  0  0  0  0
   35.2235   29.4249   46.9162 H   0  0  0  0  0  0  0  0  0  0  0  0
   36.3357   31.7225   46.5915 H   0  0  0  0  0  0  0  0  0  0  0  0
   36.4123   30.3655   45.5437 H   0  0  0  0  0  0  0  0  0  0  0  0
   38.4408   32.8350   47.5657 H   0  0  0  0  0  0  0  0  0  0  0  0
   40.2475   34.2262   46.4908 H   0  0  0  0  0  0  0  0  0  0  0  0
   41.3146   30.8554   44.0703 H   0  0  0  0  0  0  0  0  0  0  0  0
   35.0491   31.6761   48.3790 H   0  0  0  0  0  0  0  0  0  0  0  0
   34.0954   30.1346   48.4854 H   0  0  0  0  0  0  0  0  0  0  0  0
   34.7250   30.4614   50.5993 H   0  0  0  0  0  0  0  0  0  0  0  0
   35.6327   28.2261   50.3945 H   0  0  0  0  0  0  0  0  0  0  0  0
   36.7741   28.6665   49.1512 H   0  0  0  0  0  0  0  0  0  0  0  0
   36.9239   28.9940   52.1353 H   0  0  0  0  0  0  0  0  0  0  0  0
   38.2571   28.7656   50.9581 H   0  0  0  0  0  0  0  0  0  0  0  0
   37.3760   31.4523   49.3266 H   0  0  0  0  0  0  0  0  0  0  0  0
   36.4454   32.2613   50.6092 H   0  0  0  0  0  0  0  0  0  0  0  0
  1 10  1  0
  2  3  1  0
  2  1  1  0
  4  5  2  0
  4  3  1  0
  6  5  1  0
  7  6  2  0
  8  7  1  0
  8  9  2  0
  9  4  1  0
 11 10  1  0
 11 12  1  0
 11 15  1  0
 12 13  1  0
 13 14  1  0
 15 14  1  0
  1 16  1  0
  1 17  1  0
  2 18  1  0
  2 19  1  0
  5 20  1  0
  6 21  1  0
  8 22  1  0
 10 23  1  0
 10 24  1  0
 11 25  1  1
 12 26  1  0
 12 27  1  0
 13 28  1  0
 13 29  1  0
 15 30  1  0
 15 31  1  0
M  ISO  8  16   8  17   8  18   8  19   8  20  14  21  14  22  14  23   8
M  ISO  8  24   8  25  13  26  13  27  13  28  13  29  13  30  13  31  13
M  END
>  <minimizedAffinity>  (1) 
-4.49208021

>  <minimizedRMSD>  (1) 
3.512465

$$$$
