
     RDKit          3D

 37 40  0  0  1  0  0  0  0  0999 V2000
   37.0210   31.4500   48.2660 C   0  0  1  0  0  0  0  0  0  0  0  0
   38.3580   31.5230   48.8770 C   0  0  0  0  0  0  0  0  0  0  0  0
   38.2380   30.7170   47.6350 C   0  0  2  0  0  0  0  0  0  0  0  0
   38.9670   31.3710   46.5170 C   0  0  0  0  0  0  0  0  0  0  0  0
   39.4410   32.6310   46.9070 C   0  0  0  0  0  0  0  0  0  0  0  0
   40.2150   33.3910   46.0560 C   0  0  0  0  0  0  0  0  0  0  0  0
   40.5430   32.9220   44.7900 C   0  0  0  0  0  0  0  0  0  0  0  0
   40.0730   31.6850   44.4210 C   0  0  0  0  0  0  0  0  0  0  0  0
   40.3100   31.1060   43.1980 C   0  0  0  0  0  0  0  0  0  0  0  0
   39.8230   29.8660   42.8290 C   0  0  0  0  0  0  0  0  0  0  0  0
   39.0540   29.1490   43.7200 C   0  0  0  0  0  0  0  0  0  0  0  0
   38.8060   29.7130   44.9520 C   0  0  0  0  0  0  0  0  0  0  0  0
   39.3100   30.9530   45.2810 C   0  0  0  0  0  0  0  0  0  0  0  0
   35.1830   29.1840   50.6500 C   0  0  0  0  0  0  0  0  0  0  0  0
   36.1630   30.0850   50.1380 C   0  0  0  0  0  0  0  0  0  0  0  0
   36.0190   30.5310   48.8430 C   0  0  0  0  0  0  0  0  0  0  0  0
   34.9450   30.0730   48.1560 N   0  0  0  0  0  0  0  0  0  0  0  0
   34.0210   29.2240   48.6390 C   0  0  0  0  0  0  0  0  0  0  0  0
   34.1460   28.7720   49.9150 N   0  0  0  0  0  0  0  0  0  0  0  0
   33.0430   29.4370   46.5230 C   0  0  0  0  0  0  0  0  0  0  0  0
   33.9370   30.2390   46.0980 O   0  0  0  0  0  0  0  0  0  0  0  0
   32.9400   28.8240   47.8020 N   0  0  0  0  0  0  0  0  0  0  0  0
   36.2825   32.2113   47.9744 H   0  0  0  0  0  0  0  0  0  0  0  0
   38.9118   32.4731   48.8531 H   0  0  0  0  0  0  0  0  0  0  0  0
   38.7426   31.3080   49.8849 H   0  0  0  0  0  0  0  0  0  0  0  0
   38.3883   29.6843   47.2872 H   0  0  0  0  0  0  0  0  0  0  0  0
   39.1921   33.0189   47.9058 H   0  0  0  0  0  0  0  0  0  0  0  0
   40.5761   34.3775   46.3823 H   0  0  0  0  0  0  0  0  0  0  0  0
   41.1596   33.5222   44.1048 H   0  0  0  0  0  0  0  0  0  0  0  0
   40.9219   31.6604   42.4712 H   0  0  0  0  0  0  0  0  0  0  0  0
   40.0472   29.4554   41.8334 H   0  0  0  0  0  0  0  0  0  0  0  0
   38.6518   28.1597   43.4562 H   0  0  0  0  0  0  0  0  0  0  0  0
   38.1959   29.1650   45.6851 H   0  0  0  0  0  0  0  0  0  0  0  0
   35.2841   28.8169   51.6820 H   0  0  0  0  0  0  0  0  0  0  0  0
   37.0090   30.4140   50.7593 H   0  0  0  0  0  0  0  0  0  0  0  0
   32.2466   29.1859   45.8070 H   0  0  0  0  0  0  0  0  0  0  0  0
   32.1876   28.1797   48.0842 H   0  0  0  0  0  0  0  0  0  0  0  0
  1 16  1  0
  1  2  1  0
  3  1  1  0
  3  2  1  0
  4  5  2  0
  4  3  1  0
  6  5  1  0
  7  6  2  0
  8  7  1  0
  8 13  2  0
  9  8  1  0
 10  9  2  0
 10 11  1  0
 11 12  2  0
 12 13  1  0
 13  4  1  0
 15 14  2  0
 16 15  1  0
 17 18  1  0
 17 16  2  0
 18 19  2  0
 19 14  1  0
 20 22  1  0
 21 20  2  0
 22 18  1  0
  1 23  1  6
  2 24  1  0
  2 25  1  0
  3 26  1  1
  5 27  1  0
  6 28  1  0
  7 29  1  0
  9 30  1  0
 10 31  1  0
 11 32  1  0
 12 33  1  0
 14 34  1  0
 15 35  1  0
 20 36  1  0
 22 37  1  0
M  ISO  8  23  13  24  13  25  13  26  13  27  14  28  14  29  14  30  14
M  ISO  6  31  14  32  14  33  14  34  14  35  14  36   6
M  END
>  <minimizedAffinity>  (1) 
-7.02714825

>  <minimizedRMSD>  (1) 
3.31363678

$$$$
