
     RDKit          3D

 27 28  0  0  0  0  0  0  0  0999 V2000
   38.7140   32.7040   49.5810 C   0  0  0  0  0  0  0  0  0  0  0  0
   38.9720   33.2970   48.4210 C   0  0  0  0  0  0  0  0  0  0  0  0
   39.1550   32.5450   47.1330 C   0  0  0  0  0  0  0  0  0  0  0  0
   40.1230   33.1710   46.1850 C   0  0  0  0  0  0  0  0  0  0  0  0
   40.8620   32.3590   45.1630 C   0  0  0  0  0  0  0  0  0  0  0  0
   39.7270   33.2670   44.7660 C   0  0  0  0  0  0  0  0  0  0  0  0
   37.3530   32.5310   49.4010 O   0  0  0  0  0  0  0  0  0  0  0  0
   36.8430   31.2800   49.6860 C   0  0  0  0  0  0  0  0  0  0  0  0
   36.1950   30.6900   48.5960 C   0  0  0  0  0  0  0  0  0  0  0  0
   35.6290   29.4280   48.7280 C   0  0  0  0  0  0  0  0  0  0  0  0
   35.7450   28.8170   49.9590 N   0  0  0  0  0  0  0  0  0  0  0  0
   36.3820   29.4190   51.0030 C   0  0  0  0  0  0  0  0  0  0  0  0
   36.9190   30.6200   50.8680 N   0  0  0  0  0  0  0  0  0  0  0  0
   39.2463   31.7475   49.6891 H   0  0  0  0  0  0  0  0  0  0  0  0
   39.0190   33.2514   50.4851 H   0  0  0  0  0  0  0  0  0  0  0  0
   38.1396   33.9948   48.2472 H   0  0  0  0  0  0  0  0  0  0  0  0
   39.9884   33.6802   48.5947 H   0  0  0  0  0  0  0  0  0  0  0  0
   39.5143   31.5335   47.3734 H   0  0  0  0  0  0  0  0  0  0  0  0
   38.1775   32.5446   46.6284 H   0  0  0  0  0  0  0  0  0  0  0  0
   40.4531   33.8683   46.9691 H   0  0  0  0  0  0  0  0  0  0  0  0
   41.8970   32.6171   44.8943 H   0  0  0  0  0  0  0  0  0  0  0  0
   41.0979   31.2930   45.0288 H   0  0  0  0  0  0  0  0  0  0  0  0
   39.9326   34.1874   44.1997 H   0  0  0  0  0  0  0  0  0  0  0  0
   38.7854   33.1353   44.2129 H   0  0  0  0  0  0  0  0  0  0  0  0
   36.1336   31.2240   47.6363 H   0  0  0  0  0  0  0  0  0  0  0  0
   35.1122   28.9387   47.8893 H   0  0  0  0  0  0  0  0  0  0  0  0
   36.4503   28.8992   51.9701 H   0  0  0  0  0  0  0  0  0  0  0  0
  2  1  1  0
  3  2  1  0
  4  3  1  0
  5  4  1  0
  6  5  1  0
  6  4  1  0
  7  1  1  0
  7  8  1  0
  8 13  2  0
  9 10  2  0
  9  8  1  0
 10 11  1  0
 11 12  2  0
 13 12  1  0
  1 14  1  0
  1 15  1  0
  2 16  1  0
  2 17  1  0
  3 18  1  0
  3 19  1  0
  4 20  1  0
  5 21  1  0
  5 22  1  0
  6 23  1  0
  6 24  1  0
  9 25  1  0
 10 26  1  0
 12 27  1  0
M  ISO  8  14   8  15   8  16   8  17   8  18   8  19   8  20  13  21  13
M  ISO  6  22  13  23  13  24  13  25  14  26  14  27  14
M  END
>  <minimizedAffinity>  (1) 
-4.43481207

>  <minimizedRMSD>  (1) 
5.89032078

$$$$
