
     RDKit          3D

 40 44  0  0  1  0  0  0  0  0999 V2000
   34.6220   30.1930   48.1910 C   0  0  1  0  0  0  0  0  0  0  0  0
   34.9460   30.4170   49.6100 C   0  0  0  0  0  0  0  0  0  0  0  0
   36.0710   30.0160   48.7240 C   0  0  2  0  0  0  0  0  0  0  0  0
   37.0330   31.1370   48.5650 C   0  0  0  0  0  0  0  0  0  0  0  0
   36.9950   31.9760   49.6850 C   0  0  0  0  0  0  0  0  0  0  0  0
   37.8620   33.0410   49.8080 C   0  0  0  0  0  0  0  0  0  0  0  0
   38.8070   33.3080   48.8140 C   0  0  0  0  0  0  0  0  0  0  0  0
   38.8280   32.4690   47.7250 C   0  0  0  0  0  0  0  0  0  0  0  0
   39.6940   32.6250   46.6670 C   0  0  0  0  0  0  0  0  0  0  0  0
   39.7070   31.7900   45.5610 C   0  0  0  0  0  0  0  0  0  0  0  0
   38.8120   30.7410   45.4980 C   0  0  0  0  0  0  0  0  0  0  0  0
   37.9430   30.5770   46.5480 C   0  0  0  0  0  0  0  0  0  0  0  0
   37.9570   31.4260   47.6300 C   0  0  0  0  0  0  0  0  0  0  0  0
   32.5360   27.0550   48.2250 C   0  0  0  0  0  0  0  0  0  0  0  0
   33.1230   28.2910   48.6520 C   0  0  0  0  0  0  0  0  0  0  0  0
   33.9860   28.9220   47.7870 C   0  0  0  0  0  0  0  0  0  0  0  0
   34.2230   28.3190   46.5690 N   0  0  0  0  0  0  0  0  0  0  0  0
   33.6610   27.1660   46.1950 C   0  0  0  0  0  0  0  0  0  0  0  0
   32.8100   26.5150   47.0150 N   0  0  0  0  0  0  0  0  0  0  0  0
   33.9500   26.5770   44.8920 C   0  0  0  0  0  0  0  0  0  0  0  0
   34.1610   25.2180   44.8360 C   0  0  0  0  0  0  0  0  0  0  0  0
   34.4120   24.8340   43.5770 N   0  0  0  0  0  0  0  0  0  0  0  0
   34.3610   25.9630   42.8200 C   0  0  0  0  0  0  0  0  0  0  0  0
   34.0800   27.0330   43.6130 N   0  0  0  0  0  0  0  0  0  0  0  0
   34.0942   30.7939   47.4358 H   0  0  0  0  0  0  0  0  0  0  0  0
   34.9159   31.4387   50.0165 H   0  0  0  0  0  0  0  0  0  0  0  0
   34.5431   30.0157   50.5516 H   0  0  0  0  0  0  0  0  0  0  0  0
   36.8103   29.2081   48.6205 H   0  0  0  0  0  0  0  0  0  0  0  0
   36.2607   31.7822   50.4808 H   0  0  0  0  0  0  0  0  0  0  0  0
   37.8092   33.6866   50.6971 H   0  0  0  0  0  0  0  0  0  0  0  0
   39.5049   34.1540   48.8992 H   0  0  0  0  0  0  0  0  0  0  0  0
   40.4138   33.4561   46.7009 H   0  0  0  0  0  0  0  0  0  0  0  0
   40.4222   31.9612   44.7429 H   0  0  0  0  0  0  0  0  0  0  0  0
   38.7956   30.0591   44.6350 H   0  0  0  0  0  0  0  0  0  0  0  0
   37.2198   29.7486   46.5235 H   0  0  0  0  0  0  0  0  0  0  0  0
   31.8434   26.5308   48.8999 H   0  0  0  0  0  0  0  0  0  0  0  0
   32.8911   28.7201   49.6379 H   0  0  0  0  0  0  0  0  0  0  0  0
   34.1282   24.5420   45.7031 H   0  0  0  0  0  0  0  0  0  0  0  0
   34.6047   23.8769   43.2487 H   0  0  0  0  0  0  0  0  0  0  0  0
   34.5223   26.0049   41.7327 H   0  0  0  0  0  0  0  0  0  0  0  0
  1  3  1  0
  1  2  1  0
  3  2  1  0
  4  3  1  0
  4  5  2  0
  5  6  1  0
  7  6  2  0
  8  7  1  0
  9  8  2  0
 10  9  1  0
 11 10  2  0
 11 12  1  0
 12 13  2  0
 13  8  1  0
 13  4  1  0
 14 15  2  0
 16  1  1  0
 16 15  1  0
 17 16  2  0
 18 17  1  0
 18 19  2  0
 19 14  1  0
 20 18  1  0
 21 20  2  0
 22 21  1  0
 23 22  1  0
 23 24  2  0
 24 20  1  0
  1 25  1  6
  2 26  1  0
  2 27  1  0
  3 28  1  1
  5 29  1  0
  6 30  1  0
  7 31  1  0
  9 32  1  0
 10 33  1  0
 11 34  1  0
 12 35  1  0
 14 36  1  0
 15 37  1  0
 21 38  1  0
 22 39  1  0
 23 40  1  0
M  ISO  8  25  13  26  13  27  13  28  13  29  14  30  14  31  14  32  14
M  ISO  8  33  14  34  14  35  14  36  14  37  14  38  14  39   9  40  14
M  END
>  <minimizedAffinity>  (1) 
-6.38382721

>  <minimizedRMSD>  (1) 
6.45801687

$$$$
