
     RDKit          3D

 40 44  0  0  1  0  0  0  0  0999 V2000
   36.7530   30.8730   45.1590 C   0  0  1  0  0  0  0  0  0  0  0  0
   37.8600   31.8050   45.4430 C   0  0  0  0  0  0  0  0  0  0  0  0
   38.2340   30.4080   45.1020 C   0  0  2  0  0  0  0  0  0  0  0  0
   38.9160   30.3530   43.7840 C   0  0  0  0  0  0  0  0  0  0  0  0
   39.2830   31.6400   43.3710 C   0  0  0  0  0  0  0  0  0  0  0  0
   40.0110   31.8370   42.2150 C   0  0  0  0  0  0  0  0  0  0  0  0
   40.3990   30.7570   41.4350 C   0  0  0  0  0  0  0  0  0  0  0  0
   40.0310   29.5010   41.8580 C   0  0  0  0  0  0  0  0  0  0  0  0
   40.3380   28.3480   41.1680 C   0  0  0  0  0  0  0  0  0  0  0  0
   39.9580   27.0840   41.5770 C   0  0  0  0  0  0  0  0  0  0  0  0
   39.2230   26.9530   42.7560 C   0  0  0  0  0  0  0  0  0  0  0  0
   38.9140   28.0950   43.4470 C   0  0  0  0  0  0  0  0  0  0  0  0
   39.3120   29.3320   43.0020 C   0  0  0  0  0  0  0  0  0  0  0  0
   34.0470   29.1910   47.1770 C   0  0  0  0  0  0  0  0  0  0  0  0
   34.7590   29.7400   46.0690 C   0  0  0  0  0  0  0  0  0  0  0  0
   36.0000   30.2940   46.2890 C   0  0  0  0  0  0  0  0  0  0  0  0
   36.4760   30.2780   47.5820 N   0  0  0  0  0  0  0  0  0  0  0  0
   35.7920   29.7590   48.6030 C   0  0  0  0  0  0  0  0  0  0  0  0
   34.5720   29.2080   48.4280 N   0  0  0  0  0  0  0  0  0  0  0  0
   36.5160   29.8670   49.8660 C   0  0  0  0  0  0  0  0  0  0  0  0
   36.2870   29.5580   51.2120 C   0  0  0  0  0  0  0  0  0  0  0  0
   37.4420   29.9460   51.8600 C   0  0  0  0  0  0  0  0  0  0  0  0
   38.3300   30.4610   50.9700 N   0  0  0  0  0  0  0  0  0  0  0  0
   37.7650   30.4110   49.7680 N   0  0  0  0  0  0  0  0  0  0  0  0
   35.8828   30.9164   44.4875 H   0  0  0  0  0  0  0  0  0  0  0  0
   38.0823   32.6134   44.7309 H   0  0  0  0  0  0  0  0  0  0  0  0
   38.0949   32.4675   46.2891 H   0  0  0  0  0  0  0  0  0  0  0  0
   38.7649   29.5521   45.5442 H   0  0  0  0  0  0  0  0  0  0  0  0
   38.9862   32.5081   43.9779 H   0  0  0  0  0  0  0  0  0  0  0  0
   40.2856   32.8575   41.9099 H   0  0  0  0  0  0  0  0  0  0  0  0
   40.9798   30.9001   40.5119 H   0  0  0  0  0  0  0  0  0  0  0  0
   40.9189   28.4393   40.2383 H   0  0  0  0  0  0  0  0  0  0  0  0
   40.2297   26.1979   40.9845 H   0  0  0  0  0  0  0  0  0  0  0  0
   38.9023   25.9653   43.1187 H   0  0  0  0  0  0  0  0  0  0  0  0
   38.3343   28.0196   44.3788 H   0  0  0  0  0  0  0  0  0  0  0  0
   33.0544   28.7459   47.0140 H   0  0  0  0  0  0  0  0  0  0  0  0
   34.3247   29.7210   45.0585 H   0  0  0  0  0  0  0  0  0  0  0  0
   35.3869   29.1065   51.6546 H   0  0  0  0  0  0  0  0  0  0  0  0
   37.6183   29.8518   52.9417 H   0  0  0  0  0  0  0  0  0  0  0  0
   39.2692   30.8238   51.1871 H   0  0  0  0  0  0  0  0  0  0  0  0
  1  2  1  0
  1 16  1  0
  3  1  1  0
  3  2  1  0
  4  3  1  0
  5  4  2  0
  6  5  1  0
  7  8  1  0
  7  6  2  0
  8 13  2  0
  9 10  2  0
  9  8  1  0
 10 11  1  0
 11 12  2  0
 13 12  1  0
 13  4  1  0
 14 19  2  0
 15 16  2  0
 15 14  1  0
 16 17  1  0
 17 18  2  0
 18 20  1  0
 19 18  1  0
 20 21  1  0
 21 22  2  0
 23 22  1  0
 24 20  2  0
 24 23  1  0
  1 25  1  6
  2 26  1  0
  2 27  1  0
  3 28  1  1
  5 29  1  0
  6 30  1  0
  7 31  1  0
  9 32  1  0
 10 33  1  0
 11 34  1  0
 12 35  1  0
 14 36  1  0
 15 37  1  0
 21 38  1  0
 22 39  1  0
 23 40  1  0
M  ISO  8  25  13  26  13  27  13  28  13  29  14  30  14  31  14  32  14
M  ISO  8  33  14  34  14  35  14  36  14  37  14  38  14  39  14  40   9
M  END
>  <minimizedAffinity>  (1) 
-6.20708942

>  <minimizedRMSD>  (1) 
3.36109543

$$$$
