
     RDKit          3D

 39 42  0  0  1  0  0  0  0  0999 V2000
   36.9590   31.3620   47.4000 C   0  0  1  0  0  0  0  0  0  0  0  0
   38.0990   32.0480   48.0290 C   0  0  0  0  0  0  0  0  0  0  0  0
   38.4190   30.8960   47.1440 C   0  0  2  0  0  0  0  0  0  0  0  0
   39.1140   31.3600   45.9150 C   0  0  0  0  0  0  0  0  0  0  0  0
   39.6180   32.6520   46.0970 C   0  0  0  0  0  0  0  0  0  0  0  0
   40.3810   33.2630   45.1220 C   0  0  0  0  0  0  0  0  0  0  0  0
   40.6680   32.6050   43.9300 C   0  0  0  0  0  0  0  0  0  0  0  0
   40.1620   31.3350   43.7740 C   0  0  0  0  0  0  0  0  0  0  0  0
   40.3590   30.5750   42.6410 C   0  0  0  0  0  0  0  0  0  0  0  0
   39.8490   29.3030   42.4650 C   0  0  0  0  0  0  0  0  0  0  0  0
   39.0890   28.7460   43.4850 C   0  0  0  0  0  0  0  0  0  0  0  0
   38.8840   29.4930   44.6210 C   0  0  0  0  0  0  0  0  0  0  0  0
   39.4120   30.7550   44.7520 C   0  0  0  0  0  0  0  0  0  0  0  0
   34.4280   28.7520   48.3850 C   0  0  0  0  0  0  0  0  0  0  0  0
   35.1790   29.6650   47.5910 C   0  0  0  0  0  0  0  0  0  0  0  0
   36.1730   30.3990   48.1970 C   0  0  0  0  0  0  0  0  0  0  0  0
   36.3720   30.1920   49.5450 N   0  0  0  0  0  0  0  0  0  0  0  0
   35.6560   29.3290   50.2720 C   0  0  0  0  0  0  0  0  0  0  0  0
   34.6740   28.5950   49.7090 N   0  0  0  0  0  0  0  0  0  0  0  0
   35.9910   29.2120   51.7370 C   0  0  0  0  0  0  0  0  0  0  0  0
   37.3360   29.9210   51.9420 C   0  0  0  0  0  0  0  0  0  0  0  0
   36.0974   31.7162   46.8151 H   0  0  0  0  0  0  0  0  0  0  0  0
   38.3617   33.0664   47.7068 H   0  0  0  0  0  0  0  0  0  0  0  0
   38.3528   32.2971   49.0699 H   0  0  0  0  0  0  0  0  0  0  0  0
   38.9070   29.9113   47.1918 H   0  0  0  0  0  0  0  0  0  0  0  0
   39.4030   33.1900   47.0321 H   0  0  0  0  0  0  0  0  0  0  0  0
   40.7658   34.2799   45.2891 H   0  0  0  0  0  0  0  0  0  0  0  0
   41.2743   33.0804   43.1449 H   0  0  0  0  0  0  0  0  0  0  0  0
   40.9591   31.0078   41.8270 H   0  0  0  0  0  0  0  0  0  0  0  0
   40.0408   28.7439   41.5373 H   0  0  0  0  0  0  0  0  0  0  0  0
   38.6633   27.7364   43.3870 H   0  0  0  0  0  0  0  0  0  0  0  0
   38.2850   29.0718   45.4419 H   0  0  0  0  0  0  0  0  0  0  0  0
   33.6297   28.1604   47.9131 H   0  0  0  0  0  0  0  0  0  0  0  0
   34.9693   29.7810   46.5174 H   0  0  0  0  0  0  0  0  0  0  0  0
   35.2114   29.6960   52.3436 H   0  0  0  0  0  0  0  0  0  0  0  0
   36.0494   28.1578   52.0456 H   0  0  0  0  0  0  0  0  0  0  0  0
   37.5349   30.0258   53.0188 H   0  0  0  0  0  0  0  0  0  0  0  0
   38.1376   29.3282   51.4771 H   0  0  0  0  0  0  0  0  0  0  0  0
   37.2999   30.9173   51.4771 H   0  0  0  0  0  0  0  0  0  0  0  0
  1  2  1  0
  1 16  1  0
  3  1  1  0
  3  2  1  0
  4  5  2  0
  4  3  1  0
  6  5  1  0
  7  6  2  0
  8  7  1  0
  8 13  2  0
  9  8  1  0
 10  9  2  0
 10 11  1  0
 11 12  2  0
 12 13  1  0
 13  4  1  0
 14 19  2  0
 15 16  2  0
 15 14  1  0
 16 17  1  0
 17 18  2  0
 18 20  1  0
 19 18  1  0
 20 21  1  0
  1 22  1  6
  2 23  1  0
  2 24  1  0
  3 25  1  1
  5 26  1  0
  6 27  1  0
  7 28  1  0
  9 29  1  0
 10 30  1  0
 11 31  1  0
 12 32  1  0
 14 33  1  0
 15 34  1  0
 20 35  1  0
 20 36  1  0
 21 37  1  0
 21 38  1  0
 21 39  1  0
M  ISO  8  22  13  23  13  24  13  25  13  26  14  27  14  28  14  29  14
M  ISO  8  30  14  31  14  32  14  33  14  34  14  35   8  36   8  37   8
M  ISO  2  38   8  39   8
M  END
>  <minimizedAffinity>  (1) 
-5.9569521

>  <minimizedRMSD>  (1) 
1.51448548

$$$$
