
     RDKit          3D

 48 52  0  0  1  0  0  0  0  0999 V2000
   36.0600   30.7320   45.2940 C   0  0  1  0  0  0  0  0  0  0  0  0
   37.2720   30.9790   46.1130 C   0  0  0  0  0  0  0  0  0  0  0  0
   37.4100   29.8960   45.1620 C   0  0  2  0  0  0  0  0  0  0  0  0
   38.3290   30.2850   44.0380 C   0  0  0  0  0  0  0  0  0  0  0  0
   39.4390   30.9610   44.5310 C   0  0  0  0  0  0  0  0  0  0  0  0
   40.4640   31.3150   43.6910 C   0  0  0  0  0  0  0  0  0  0  0  0
   40.4120   31.0020   42.3250 C   0  0  0  0  0  0  0  0  0  0  0  0
   39.2970   30.3290   41.8670 C   0  0  0  0  0  0  0  0  0  0  0  0
   39.1330   29.9810   40.5560 C   0  0  0  0  0  0  0  0  0  0  0  0
   38.0150   29.3170   40.0780 C   0  0  0  0  0  0  0  0  0  0  0  0
   37.0100   28.9870   40.9730 C   0  0  0  0  0  0  0  0  0  0  0  0
   37.1760   29.3360   42.2960 C   0  0  0  0  0  0  0  0  0  0  0  0
   38.3110   30.0000   42.7270 C   0  0  0  0  0  0  0  0  0  0  0  0
   32.7910   28.9270   45.8410 C   0  0  0  0  0  0  0  0  0  0  0  0
   33.8240   29.6960   45.2150 C   0  0  0  0  0  0  0  0  0  0  0  0
   34.9770   29.9250   45.9110 C   0  0  0  0  0  0  0  0  0  0  0  0
   35.0570   29.3860   47.1860 N   0  0  0  0  0  0  0  0  0  0  0  0
   34.0760   28.6690   47.7500 C   0  0  0  0  0  0  0  0  0  0  0  0
   32.9350   28.4280   47.0950 N   0  0  0  0  0  0  0  0  0  0  0  0
   34.3220   28.1860   49.1400 C   0  0  0  0  0  0  0  0  0  0  0  0
   34.2590   29.3950   50.0850 C   0  0  0  0  0  0  0  0  0  0  0  0
   35.5190   30.1580   50.0470 C   0  0  0  0  0  0  0  0  0  0  0  0
   36.5670   29.3240   50.4380 C   0  0  0  0  0  0  0  0  0  0  0  0
   37.9090   29.7120   50.5170 C   0  0  0  0  0  0  0  0  0  0  0  0
   38.2370   31.0220   50.1870 C   0  0  0  0  0  0  0  0  0  0  0  0
   37.1840   31.8090   49.8080 C   0  0  0  0  0  0  0  0  0  0  0  0
   35.9250   31.3900   49.7500 N   0  0  0  0  0  0  0  0  0  0  0  0
   35.4056   31.3631   44.6747 H   0  0  0  0  0  0  0  0  0  0  0  0
   37.8438   31.9050   45.9531 H   0  0  0  0  0  0  0  0  0  0  0  0
   37.4339   31.0373   47.1995 H   0  0  0  0  0  0  0  0  0  0  0  0
   37.6425   28.8209   45.1677 H   0  0  0  0  0  0  0  0  0  0  0  0
   39.4957   31.2134   45.6002 H   0  0  0  0  0  0  0  0  0  0  0  0
   41.3366   31.8504   44.0934 H   0  0  0  0  0  0  0  0  0  0  0  0
   41.2291   31.2822   41.6439 H   0  0  0  0  0  0  0  0  0  0  0  0
   39.9295   30.2414   39.8435 H   0  0  0  0  0  0  0  0  0  0  0  0
   37.9272   29.0578   39.0126 H   0  0  0  0  0  0  0  0  0  0  0  0
   36.1044   28.4608   40.6368 H   0  0  0  0  0  0  0  0  0  0  0  0
   36.3910   29.0818   43.0234 H   0  0  0  0  0  0  0  0  0  0  0  0
   31.8573   28.7358   45.2918 H   0  0  0  0  0  0  0  0  0  0  0  0
   33.6923   30.0930   44.1976 H   0  0  0  0  0  0  0  0  0  0  0  0
   33.5519   27.4527   49.4214 H   0  0  0  0  0  0  0  0  0  0  0  0
   35.3079   27.7026   49.2059 H   0  0  0  0  0  0  0  0  0  0  0  0
   33.4314   30.0507   49.7764 H   0  0  0  0  0  0  0  0  0  0  0  0
   34.0990   29.0315   51.1108 H   0  0  0  0  0  0  0  0  0  0  0  0
   36.3201   28.2855   50.7036 H   0  0  0  0  0  0  0  0  0  0  0  0
   38.6847   28.9986   50.8322 H   0  0  0  0  0  0  0  0  0  0  0  0
   39.2696   31.3990   50.2277 H   0  0  0  0  0  0  0  0  0  0  0  0
   37.3931   32.8537   49.5343 H   0  0  0  0  0  0  0  0  0  0  0  0
  1 16  1  0
  1  2  1  0
  3  1  1  0
  3  2  1  0
  4  5  2  0
  4  3  1  0
  6  5  1  0
  7  6  2  0
  8  7  1  0
  8 13  2  0
  9  8  1  0
 10  9  2  0
 10 11  1  0
 11 12  2  0
 12 13  1  0
 13  4  1  0
 14 19  2  0
 15 14  1  0
 15 16  2  0
 16 17  1  0
 17 18  2  0
 18 20  1  0
 19 18  1  0
 20 21  1  0
 22 21  1  0
 22 23  2  0
 23 24  1  0
 25 24  2  0
 26 25  1  0
 27 26  2  0
 27 22  1  0
  1 28  1  6
  2 29  1  0
  2 30  1  0
  3 31  1  1
  5 32  1  0
  6 33  1  0
  7 34  1  0
  9 35  1  0
 10 36  1  0
 11 37  1  0
 12 38  1  0
 14 39  1  0
 15 40  1  0
 20 41  1  0
 20 42  1  0
 21 43  1  0
 21 44  1  0
 23 45  1  0
 24 46  1  0
 25 47  1  0
 26 48  1  0
M  ISO  8  28  13  29  13  30  13  31  13  32  14  33  14  34  14  35  14
M  ISO  8  36  14  37  14  38  14  39  14  40  14  41   8  42   8  43   8
M  ISO  5  44   8  45  14  46  14  47  14  48  14
M  END
>  <minimizedAffinity>  (1) 
-5.58886528

>  <minimizedRMSD>  (1) 
2.95763469

$$$$
