
     RDKit          3D

 51 55  0  0  1  0  0  0  0  0999 V2000
   36.3300   30.5840   44.5100 C   0  0  1  0  0  0  0  0  0  0  0  0
   37.2230   31.7460   44.7420 C   0  0  0  0  0  0  0  0  0  0  0  0
   37.9070   30.4700   44.6940 C   0  0  2  0  0  0  0  0  0  0  0  0
   38.7150   30.3330   43.4370 C   0  0  0  0  0  0  0  0  0  0  0  0
   39.1450   31.5970   43.0010 C   0  0  0  0  0  0  0  0  0  0  0  0
   39.9900   31.6980   41.9280 C   0  0  0  0  0  0  0  0  0  0  0  0
   40.4420   30.5630   41.2450 C   0  0  0  0  0  0  0  0  0  0  0  0
   39.9980   29.3310   41.7030 C   0  0  0  0  0  0  0  0  0  0  0  0
   40.3580   28.1460   41.1240 C   0  0  0  0  0  0  0  0  0  0  0  0
   39.9250   26.9190   41.5590 C   0  0  0  0  0  0  0  0  0  0  0  0
   39.0710   26.8710   42.6470 C   0  0  0  0  0  0  0  0  0  0  0  0
   38.7020   28.0610   43.2370 C   0  0  0  0  0  0  0  0  0  0  0  0
   39.1640   29.2700   42.7640 C   0  0  0  0  0  0  0  0  0  0  0  0
   33.7910   28.7860   46.6370 C   0  0  0  0  0  0  0  0  0  0  0  0
   34.4930   29.2710   45.4900 C   0  0  0  0  0  0  0  0  0  0  0  0
   35.5950   30.0560   45.6840 C   0  0  0  0  0  0  0  0  0  0  0  0
   35.9450   30.3190   46.9880 N   0  0  0  0  0  0  0  0  0  0  0  0
   35.2820   29.8620   48.0500 C   0  0  0  0  0  0  0  0  0  0  0  0
   34.1890   29.0840   47.8930 N   0  0  0  0  0  0  0  0  0  0  0  0
   35.8220   30.2300   49.4140 C   0  0  0  0  0  0  0  0  0  0  0  0
   37.3210   30.2330   49.3320 C   0  0  0  0  0  0  0  0  0  0  0  0
   38.0020   31.4310   49.2030 N   0  0  0  0  0  0  0  0  0  0  0  0
   37.3710   32.6120   49.6870 C   0  0  0  0  0  0  0  0  0  0  0  0
   38.3350   33.7050   49.3730 C   0  0  0  0  0  0  0  0  0  0  0  0
   39.2150   33.1480   48.2770 C   0  0  0  0  0  0  0  0  0  0  0  0
   38.7670   31.7190   48.0640 C   0  0  0  0  0  0  0  0  0  0  0  0
   35.5610   30.3348   43.7640 H   0  0  0  0  0  0  0  0  0  0  0  0
   37.3821   32.4675   43.9271 H   0  0  0  0  0  0  0  0  0  0  0  0
   37.2110   32.5543   45.4880 H   0  0  0  0  0  0  0  0  0  0  0  0
   38.5576   29.8639   45.3416 H   0  0  0  0  0  0  0  0  0  0  0  0
   38.8036   32.5044   43.5206 H   0  0  0  0  0  0  0  0  0  0  0  0
   40.3208   32.6930   41.5956 H   0  0  0  0  0  0  0  0  0  0  0  0
   41.1199   30.6443   40.3825 H   0  0  0  0  0  0  0  0  0  0  0  0
   41.0352   28.1783   40.2577 H   0  0  0  0  0  0  0  0  0  0  0  0
   40.2486   25.9961   41.0554 H   0  0  0  0  0  0  0  0  0  0  0  0
   38.6971   25.9101   43.0303 H   0  0  0  0  0  0  0  0  0  0  0  0
   38.0246   28.0451   44.1035 H   0  0  0  0  0  0  0  0  0  0  0  0
   32.9029   28.1531   46.4929 H   0  0  0  0  0  0  0  0  0  0  0  0
   34.1541   29.0182   44.4745 H   0  0  0  0  0  0  0  0  0  0  0  0
   35.4615   31.2287   49.7016 H   0  0  0  0  0  0  0  0  0  0  0  0
   35.4812   29.5061   50.1688 H   0  0  0  0  0  0  0  0  0  0  0  0
   37.6908   29.7541   50.2507 H   0  0  0  0  0  0  0  0  0  0  0  0
   37.5245   29.7211   48.3799 H   0  0  0  0  0  0  0  0  0  0  0  0
   36.4127   32.7793   49.1736 H   0  0  0  0  0  0  0  0  0  0  0  0
   37.1402   32.5532   50.7609 H   0  0  0  0  0  0  0  0  0  0  0  0
   37.8023   34.6015   49.0230 H   0  0  0  0  0  0  0  0  0  0  0  0
   38.9169   34.0088   50.2557 H   0  0  0  0  0  0  0  0  0  0  0  0
   39.0873   33.7299   47.3523 H   0  0  0  0  0  0  0  0  0  0  0  0
   40.2790   33.1986   48.5515 H   0  0  0  0  0  0  0  0  0  0  0  0
   38.1585   31.6317   47.1518 H   0  0  0  0  0  0  0  0  0  0  0  0
   39.6107   31.0253   47.9337 H   0  0  0  0  0  0  0  0  0  0  0  0
  1  3  1  0
  1  2  1  0
  1 16  1  0
  3  2  1  0
  4  3  1  0
  5  4  2  0
  6  5  1  0
  7  8  1  0
  7  6  2  0
  8 13  2  0
  9 10  2  0
  9  8  1  0
 10 11  1  0
 11 12  2  0
 13 12  1  0
 13  4  1  0
 14 19  2  0
 15 16  2  0
 15 14  1  0
 16 17  1  0
 17 18  2  0
 18 20  1  0
 19 18  1  0
 21 20  1  0
 22 21  1  0
 22 23  1  0
 24 23  1  0
 25 24  1  0
 26 25  1  0
 26 22  1  0
  1 27  1  6
  2 28  1  0
  2 29  1  0
  3 30  1  1
  5 31  1  0
  6 32  1  0
  7 33  1  0
  9 34  1  0
 10 35  1  0
 11 36  1  0
 12 37  1  0
 14 38  1  0
 15 39  1  0
 20 40  1  0
 20 41  1  0
 21 42  1  0
 21 43  1  0
 23 44  1  0
 23 45  1  0
 24 46  1  0
 24 47  1  0
 25 48  1  0
 25 49  1  0
 26 50  1  0
 26 51  1  0
M  ISO  8  27  13  28  13  29  13  30  13  31  14  32  14  33  14  34  14
M  ISO  8  35  14  36  14  37  14  38  14  39  14  40   8  41   8  42   8
M  ISO  8  43   8  44  13  45  13  46  13  47  13  48  13  49  13  50  13
M  ISO  1  51  13
M  END
>  <minimizedAffinity>  (1) 
-5.51939011

>  <minimizedRMSD>  (1) 
2.66730618

$$$$
