
     RDKit          3D

 40 42  0  0  1  0  0  0  0  0999 V2000
   37.3390   31.3440   48.3530 C   0  0  0  0  0  0  0  0  0  0  0  0
   37.1760   32.0350   49.5810 C   0  0  0  0  0  0  0  0  0  0  0  0
   37.9700   33.1480   49.9110 C   0  0  0  0  0  0  0  0  0  0  0  0
   38.9480   33.5680   48.9760 C   0  0  0  0  0  0  0  0  0  0  0  0
   39.0820   32.8670   47.7790 C   0  0  0  0  0  0  0  0  0  0  0  0
   38.3050   31.7760   47.4580 C   0  0  0  0  0  0  0  0  0  0  0  0
   38.6820   31.1620   46.1800 C   0  0  0  0  0  0  0  0  0  0  0  0
   40.2050   31.1020   46.0130 C   0  0  0  0  0  0  0  0  0  0  0  0
   40.5980   31.2770   44.5610 C   0  0  0  0  0  0  0  0  0  0  0  0
   39.6150   30.4650   43.7280 C   0  0  0  0  0  0  0  0  0  0  0  0
   38.3090   31.2500   43.7160 C   0  0  0  0  0  0  0  0  0  0  0  0
   38.1540   32.0270   45.0130 C   0  0  0  0  0  0  0  0  0  0  0  0
   36.4550   30.2270   48.0840 C   0  0  0  0  0  0  0  0  0  0  0  0
   36.6870   29.2060   48.8340 O   0  0  0  0  0  0  0  0  0  0  0  0
   33.1010   30.4830   46.7270 C   0  0  0  0  0  0  0  0  0  0  0  0
   33.2550   30.2200   45.3730 C   0  0  0  0  0  0  0  0  0  0  0  0
   34.5270   29.9450   44.9220 C   0  0  0  0  0  0  0  0  0  0  0  0
   35.5980   29.9330   45.7920 N   0  0  0  0  0  0  0  0  0  0  0  0
   35.3960   30.1940   47.0860 C   0  0  0  0  0  0  0  0  0  0  0  0
   34.1520   30.4660   47.5510 N   0  0  0  0  0  0  0  0  0  0  0  0
   36.4102   31.6921   50.2923 H   0  0  0  0  0  0  0  0  0  0  0  0
   37.8357   33.6765   50.8663 H   0  0  0  0  0  0  0  0  0  0  0  0
   39.5914   34.4338   49.1914 H   0  0  0  0  0  0  0  0  0  0  0  0
   39.8429   33.2001   47.0578 H   0  0  0  0  0  0  0  0  0  0  0  0
   38.2558   30.1480   46.1723 H   0  0  0  0  0  0  0  0  0  0  0  0
   40.6643   31.9041   46.6094 H   0  0  0  0  0  0  0  0  0  0  0  0
   40.5571   30.1178   46.3557 H   0  0  0  0  0  0  0  0  0  0  0  0
   40.5421   32.3392   44.2807 H   0  0  0  0  0  0  0  0  0  0  0  0
   41.6296   30.9349   44.3915 H   0  0  0  0  0  0  0  0  0  0  0  0
   39.9950   30.3433   42.7029 H   0  0  0  0  0  0  0  0  0  0  0  0
   39.4714   29.4591   44.1494 H   0  0  0  0  0  0  0  0  0  0  0  0
   38.3147   31.9525   42.8696 H   0  0  0  0  0  0  0  0  0  0  0  0
   37.4682   30.5480   43.6145 H   0  0  0  0  0  0  0  0  0  0  0  0
   38.7315   32.9614   44.9551 H   0  0  0  0  0  0  0  0  0  0  0  0
   37.0938   32.2693   45.1782 H   0  0  0  0  0  0  0  0  0  0  0  0
   37.1677   29.8422   47.3397 H   0  0  0  0  0  0  0  0  0  0  0  0
   36.6260   29.4744   49.7850 H   0  0  0  0  0  0  0  0  0  0  0  0
   32.1011   30.7082   47.1264 H   0  0  0  0  0  0  0  0  0  0  0  0
   32.3951   30.2308   44.6871 H   0  0  0  0  0  0  0  0  0  0  0  0
   34.6911   29.7324   43.8553 H   0  0  0  0  0  0  0  0  0  0  0  0
  1  2  2  0
  2  3  1  0
  4  3  2  0
  5  4  1  0
  6  5  2  0
  6  1  1  0
  7  6  1  0
  8  7  1  0
  9  8  1  0
 10  9  1  0
 11 10  1  0
 11 12  1  0
 12  7  1  0
 13  1  1  0
 13 14  1  0
 15 20  2  0
 16 15  1  0
 17 16  2  0
 17 18  1  0
 18 19  2  0
 19 20  1  0
 19 13  1  0
  2 21  1  0
  3 22  1  0
  4 23  1  0
  5 24  1  0
  7 25  1  0
  8 26  1  0
  8 27  1  0
  9 28  1  0
  9 29  1  0
 10 30  1  0
 10 31  1  0
 11 32  1  0
 11 33  1  0
 12 34  1  0
 12 35  1  0
 13 36  1  0
 14 37  1  0
 15 38  1  0
 16 39  1  0
 17 40  1  0
M  ISO  8  21  14  22  14  23  14  24  14  25  13  26  13  27  13  28  13
M  ISO  8  29  13  30  13  31  13  32  13  33  13  34  13  35  13  36   8
M  ISO  4  37   3  38  14  39  14  40  14
M  END
>  <minimizedAffinity>  (1) 
-5.8864646

>  <minimizedRMSD>  (1) 
2.15504169

$$$$
