
     RDKit          3D

 34 36  0  0  1  0  0  0  0  0999 V2000
   37.1530   31.3250   48.4250 C   0  0  0  0  0  0  0  0  0  0  0  0
   37.0070   31.8910   49.6870 C   0  0  0  0  0  0  0  0  0  0  0  0
   37.7640   32.9740   50.1250 C   0  0  0  0  0  0  0  0  0  0  0  0
   38.7110   33.5220   49.2680 C   0  0  0  0  0  0  0  0  0  0  0  0
   38.8500   32.9490   48.0020 C   0  0  0  0  0  0  0  0  0  0  0  0
   38.0860   31.8740   47.5950 C   0  0  0  0  0  0  0  0  0  0  0  0
   38.4450   31.4370   46.2630 C   0  0  0  0  0  0  0  0  0  0  0  0
   38.0580   32.2980   45.2200 C   0  0  0  0  0  0  0  0  0  0  0  0
   38.3170   32.1000   43.8810 C   0  0  0  0  0  0  0  0  0  0  0  0
   39.0120   30.9710   43.5050 C   0  0  0  0  0  0  0  0  0  0  0  0
   39.4120   30.0980   44.4940 C   0  0  0  0  0  0  0  0  0  0  0  0
   39.1360   30.3310   45.8160 C   0  0  0  0  0  0  0  0  0  0  0  0
   36.3140   30.2040   48.0670 C   0  0  0  0  0  0  0  0  0  0  0  0
   36.5300   29.1520   48.7750 O   0  0  0  0  0  0  0  0  0  0  0  0
   33.0180   30.4980   46.5790 C   0  0  0  0  0  0  0  0  0  0  0  0
   33.2360   30.2580   45.2330 C   0  0  0  0  0  0  0  0  0  0  0  0
   34.5210   29.9840   44.8260 C   0  0  0  0  0  0  0  0  0  0  0  0
   35.5330   29.9570   45.7430 N   0  0  0  0  0  0  0  0  0  0  0  0
   35.3050   30.1900   47.0250 C   0  0  0  0  0  0  0  0  0  0  0  0
   34.0570   30.4500   47.3970 N   0  0  0  0  0  0  0  0  0  0  0  0
   36.2589   31.4631   50.3705 H   0  0  0  0  0  0  0  0  0  0  0  0
   37.6151   33.3892   51.1327 H   0  0  0  0  0  0  0  0  0  0  0  0
   39.3298   34.3776   49.5763 H   0  0  0  0  0  0  0  0  0  0  0  0
   39.5924   33.3680   47.3068 H   0  0  0  0  0  0  0  0  0  0  0  0
   37.5018   33.2058   45.4965 H   0  0  0  0  0  0  0  0  0  0  0  0
   37.9765   32.8270   43.1290 H   0  0  0  0  0  0  0  0  0  0  0  0
   39.2407   30.7724   42.4475 H   0  0  0  0  0  0  0  0  0  0  0  0
   39.9673   29.1905   44.2147 H   0  0  0  0  0  0  0  0  0  0  0  0
   39.4837   29.5978   46.5586 H   0  0  0  0  0  0  0  0  0  0  0  0
   37.0697   29.8703   47.3407 H   0  0  0  0  0  0  0  0  0  0  0  0
   36.4821   29.3854   49.7359 H   0  0  0  0  0  0  0  0  0  0  0  0
   32.0098   30.7222   46.9576 H   0  0  0  0  0  0  0  0  0  0  0  0
   32.4066   30.2856   44.5109 H   0  0  0  0  0  0  0  0  0  0  0  0
   34.7331   29.7871   43.7648 H   0  0  0  0  0  0  0  0  0  0  0  0
  1  2  2  0
  2  3  1  0
  4  3  2  0
  5  4  1  0
  6  5  2  0
  6  1  1  0
  7  6  1  0
  8  7  2  0
  9  8  1  0
 10  9  2  0
 10 11  1  0
 11 12  2  0
 12  7  1  0
 13  1  1  0
 13 14  1  0
 15 20  2  0
 16 15  1  0
 17 16  2  0
 17 18  1  0
 18 19  2  0
 19 20  1  0
 19 13  1  0
  2 21  1  0
  3 22  1  0
  4 23  1  0
  5 24  1  0
  8 25  1  0
  9 26  1  0
 10 27  1  0
 11 28  1  0
 12 29  1  0
 13 30  1  0
 14 31  1  0
 15 32  1  0
 16 33  1  0
 17 34  1  0
M  ISO  8  21  14  22  14  23  14  24  14  25  14  26  14  27  14  28  14
M  ISO  6  29  14  30   8  31   3  32  14  33  14  34  14
M  END
>  <minimizedAffinity>  (1) 
-5.57471895

>  <minimizedRMSD>  (1) 
2.10438871

$$$$
