
     RDKit          3D

 23 24  0  0  0  0  0  0  0  0999 V2000
   36.0780   29.6300   49.1160 C   0  0  0  0  0  0  0  0  0  0  0  0
   36.3470   29.6320   50.4870 C   0  0  0  0  0  0  0  0  0  0  0  0
   37.4290   30.3480   51.0250 C   0  0  0  0  0  0  0  0  0  0  0  0
   38.2580   31.0780   50.1710 C   0  0  0  0  0  0  0  0  0  0  0  0
   37.9780   31.0660   48.8180 C   0  0  0  0  0  0  0  0  0  0  0  0
   36.9230   30.3650   48.3080 C   0  0  0  0  0  0  0  0  0  0  0  0
   34.9380   28.8640   48.6350 C   0  0  0  0  0  0  0  0  0  0  0  0
   34.5910   27.9180   49.4110 O   0  0  0  0  0  0  0  0  0  0  0  0
   32.9140   30.6710   46.2180 C   0  0  0  0  0  0  0  0  0  0  0  0
   32.8480   29.8130   45.1170 C   0  0  0  0  0  0  0  0  0  0  0  0
   33.5090   28.5940   45.2050 C   0  0  0  0  0  0  0  0  0  0  0  0
   34.1940   28.2770   46.3510 N   0  0  0  0  0  0  0  0  0  0  0  0
   34.2340   29.1250   47.3840 C   0  0  0  0  0  0  0  0  0  0  0  0
   33.5930   30.3130   47.3070 N   0  0  0  0  0  0  0  0  0  0  0  0
   36.6480   30.3570   46.9490 O   0  0  0  0  0  0  0  0  0  0  0  0
   35.6950   29.0584   51.1621 H   0  0  0  0  0  0  0  0  0  0  0  0
   37.6213   30.3338   52.1080 H   0  0  0  0  0  0  0  0  0  0  0  0
   39.1122   31.6481   50.5652 H   0  0  0  0  0  0  0  0  0  0  0  0
   38.6225   31.6366   48.1331 H   0  0  0  0  0  0  0  0  0  0  0  0
   32.4038   31.6450   46.1855 H   0  0  0  0  0  0  0  0  0  0  0  0
   32.2912   30.0934   44.2107 H   0  0  0  0  0  0  0  0  0  0  0  0
   33.4834   27.8880   44.3619 H   0  0  0  0  0  0  0  0  0  0  0  0
   35.8772   29.8410   46.6030 H   0  0  0  0  0  0  0  0  0  0  0  0
  1  2  2  0
  2  3  1  0
  4  3  2  0
  5  4  1  0
  6  5  2  0
  6  1  1  0
  7  1  1  0
  7  8  2  0
  9 14  2  0
 10 11  2  0
 10  9  1  0
 11 12  1  0
 12 13  2  0
 13  7  1  0
 14 13  1  0
 15  6  1  0
  2 16  1  0
  3 17  1  0
  4 18  1  0
  5 19  1  0
  9 20  1  0
 10 21  1  0
 11 22  1  0
 15 23  1  0
M  ISO  8  16  14  17  14  18  14  19  14  20  14  21  14  22  14  23   3
M  END
>  <minimizedAffinity>  (1) 
-4.73026609

>  <minimizedRMSD>  (1) 
0.167726263

$$$$
