
     RDKit          3D

 22 22  0  0  0  0  0  0  0  0999 V2000
   35.6910   30.1150   49.6210 C   0  0  0  0  0  0  0  0  0  0  0  0
   36.2960   29.3930   50.5570 C   0  0  0  0  0  0  0  0  0  0  0  0
   37.0740   30.0010   51.6740 C   0  0  0  0  0  0  0  0  0  0  0  0
   38.0190   29.0310   52.1990 N   0  0  0  0  0  0  0  0  0  0  0  0
   36.5010   31.2230   49.6830 O   0  0  0  0  0  0  0  0  0  0  0  0
   37.2560   31.5490   48.5860 C   0  0  0  0  0  0  0  0  0  0  0  0
   38.2750   32.4520   48.8660 C   0  0  0  0  0  0  0  0  0  0  0  0
   39.1200   32.8650   47.8230 C   0  0  0  0  0  0  0  0  0  0  0  0
   38.8760   32.3390   46.5700 N   0  0  0  0  0  0  0  0  0  0  0  0
   37.8740   31.4600   46.3300 C   0  0  0  0  0  0  0  0  0  0  0  0
   37.0850   31.0840   47.3420 N   0  0  0  0  0  0  0  0  0  0  0  0
   34.6477   30.3461   49.8821 H   0  0  0  0  0  0  0  0  0  0  0  0
   35.5942   29.6417   48.6328 H   0  0  0  0  0  0  0  0  0  0  0  0
   35.5081   28.7885   51.0301 H   0  0  0  0  0  0  0  0  0  0  0  0
   37.0908   28.9015   49.9768 H   0  0  0  0  0  0  0  0  0  0  0  0
   37.6211   30.8799   51.3022 H   0  0  0  0  0  0  0  0  0  0  0  0
   36.3836   30.3061   52.4742 H   0  0  0  0  0  0  0  0  0  0  0  0
   37.9974   29.0531   53.2285 H   0  0  0  0  0  0  0  0  0  0  0  0
   37.7625   28.0891   51.8704 H   0  0  0  0  0  0  0  0  0  0  0  0
   38.4171   32.8364   49.8868 H   0  0  0  0  0  0  0  0  0  0  0  0
   39.9406   33.5766   47.9968 H   0  0  0  0  0  0  0  0  0  0  0  0
   37.7117   31.0613   45.3177 H   0  0  0  0  0  0  0  0  0  0  0  0
  1  5  1  0
  1  2  1  0
  2  3  1  0
  3  4  1  0
  6  7  2  0
  6  5  1  0
  8  7  1  0
  9  8  2  0
 10  9  1  0
 10 11  2  0
 11  6  1  0
  1 12  1  0
  1 13  1  0
  2 14  1  0
  2 15  1  0
  3 16  1  0
  3 17  1  0
  4 18  1  0
  4 19  1  0
  7 20  1  0
  8 21  1  0
 10 22  1  0
M  ISO  8  12   8  13   8  14   8  15   8  16   8  17   8  18   5  19   5
M  ISO  3  20  14  21  14  22  14
M  END
>  <minimizedAffinity>  (1) 
-3.55540967

>  <minimizedRMSD>  (1) 
0.421208143

$$$$
