
     RDKit          3D

 32 33  0  0  1  0  0  0  0  0999 V2000
   37.0790   30.9660   49.0420 C   0  0  0  0  0  0  0  0  0  0  0  0
   36.8210   31.9060   50.0450 C   0  0  0  0  0  0  0  0  0  0  0  0
   37.4340   33.1510   50.0750 C   0  0  0  0  0  0  0  0  0  0  0  0
   38.3430   33.4860   49.0710 C   0  0  0  0  0  0  0  0  0  0  0  0
   38.5840   32.5570   48.0980 C   0  0  0  0  0  0  0  0  0  0  0  0
   37.9680   31.3260   48.0840 C   0  0  0  0  0  0  0  0  0  0  0  0
   36.3860   29.6930   49.1030 C   0  0  0  0  0  0  0  0  0  0  0  0
   36.9260   28.8380   49.9080 O   0  0  0  0  0  0  0  0  0  0  0  0
   33.6180   30.1640   46.8220 C   0  0  0  0  0  0  0  0  0  0  0  0
   32.9480   28.9390   46.8480 C   0  0  0  0  0  0  0  0  0  0  0  0
   33.4450   27.9420   47.6510 C   0  0  0  0  0  0  0  0  0  0  0  0
   34.5700   28.1740   48.3970 N   0  0  0  0  0  0  0  0  0  0  0  0
   35.1940   29.3430   48.3600 C   0  0  0  0  0  0  0  0  0  0  0  0
   34.7090   30.3280   47.5700 N   0  0  0  0  0  0  0  0  0  0  0  0
   38.3230   30.4510   46.9930 C   0  0  0  0  0  0  0  0  0  0  0  0
   38.9210   30.8260   45.8660 C   0  0  0  0  0  0  0  0  0  0  0  0
   39.3420   30.0700   44.6830 C   0  0  0  0  0  0  0  0  0  0  0  0
   40.6040   30.3990   44.2050 O   0  0  0  0  0  0  0  0  0  0  0  0
   36.1054   31.6490   50.8399 H   0  0  0  0  0  0  0  0  0  0  0  0
   37.2059   33.8647   50.8804 H   0  0  0  0  0  0  0  0  0  0  0  0
   38.8479   34.4633   49.0628 H   0  0  0  0  0  0  0  0  0  0  0  0
   39.2965   32.8020   47.2965 H   0  0  0  0  0  0  0  0  0  0  0  0
   37.0107   29.3135   48.2809 H   0  0  0  0  0  0  0  0  0  0  0  0
   36.7534   29.1112   50.8438 H   0  0  0  0  0  0  0  0  0  0  0  0
   33.2490   30.9855   46.1904 H   0  0  0  0  0  0  0  0  0  0  0  0
   32.0452   28.7768   46.2408 H   0  0  0  0  0  0  0  0  0  0  0  0
   32.9432   26.9641   47.6948 H   0  0  0  0  0  0  0  0  0  0  0  0
   38.0784   29.3842   47.1027 H   0  0  0  0  0  0  0  0  0  0  0  0
   39.1402   31.9026   45.8115 H   0  0  0  0  0  0  0  0  0  0  0  0
   39.3409   29.0007   44.9410 H   0  0  0  0  0  0  0  0  0  0  0  0
   38.6304   30.3217   43.8829 H   0  0  0  0  0  0  0  0  0  0  0  0
   41.2146   30.5582   44.9678 H   0  0  0  0  0  0  0  0  0  0  0  0
  1  7  1  0
  1  2  2  0
  2  3  1  0
  4  3  2  0
  5  4  1  0
  6  5  2  0
  6  1  1  0
  7  8  1  0
  9 10  2  0
  9 14  1  0
 10 11  1  0
 11 12  2  0
 13 12  1  0
 13  7  1  0
 14 13  2  0
 15  6  1  0
 16 15  2  0
 17 16  1  0
 18 17  1  0
  2 19  1  0
  3 20  1  0
  4 21  1  0
  5 22  1  0
  7 23  1  0
  8 24  1  0
  9 25  1  0
 10 26  1  0
 11 27  1  0
 15 28  1  0
 16 29  1  0
 17 30  1  0
 17 31  1  0
 18 32  1  0
M  ISO  8  19  14  20  14  21  14  22  14  23   8  24   3  25  14  26  14
M  ISO  4  27  14  30   8  31   8  32   3
M  END
>  <minimizedAffinity>  (1) 
-5.54176283

>  <minimizedRMSD>  (1) 
0.138549522

$$$$
