
     RDKit          3D

 31 32  0  0  0  0  0  0  0  0999 V2000
   37.0860   30.9620   49.0410 C   0  0  0  0  0  0  0  0  0  0  0  0
   36.8220   31.9060   50.0490 C   0  0  0  0  0  0  0  0  0  0  0  0
   37.4380   33.1410   50.0560 C   0  0  0  0  0  0  0  0  0  0  0  0
   38.3450   33.4760   49.0480 C   0  0  0  0  0  0  0  0  0  0  0  0
   38.5840   32.5410   48.0780 C   0  0  0  0  0  0  0  0  0  0  0  0
   37.9650   31.3140   48.0830 C   0  0  0  0  0  0  0  0  0  0  0  0
   36.3880   29.6850   49.1160 C   0  0  0  0  0  0  0  0  0  0  0  0
   36.9080   28.8390   49.9190 O   0  0  0  0  0  0  0  0  0  0  0  0
   33.6120   30.1640   46.8200 C   0  0  0  0  0  0  0  0  0  0  0  0
   32.9380   28.9410   46.8410 C   0  0  0  0  0  0  0  0  0  0  0  0
   33.4410   27.9500   47.6480 C   0  0  0  0  0  0  0  0  0  0  0  0
   34.5650   28.1790   48.3950 N   0  0  0  0  0  0  0  0  0  0  0  0
   35.1830   29.3450   48.3570 C   0  0  0  0  0  0  0  0  0  0  0  0
   34.6950   30.3320   47.5620 N   0  0  0  0  0  0  0  0  0  0  0  0
   38.3190   30.4330   46.9930 C   0  0  0  0  0  0  0  0  0  0  0  0
   38.8800   30.7910   45.8480 C   0  0  0  0  0  0  0  0  0  0  0  0
   39.2930   30.0290   44.6660 C   0  0  0  0  0  0  0  0  0  0  0  0
   38.8370   30.7510   43.4750 N   0  0  0  0  0  0  0  0  0  0  0  0
   36.1096   31.6550   50.8487 H   0  0  0  0  0  0  0  0  0  0  0  0
   37.2145   33.8621   50.8561 H   0  0  0  0  0  0  0  0  0  0  0  0
   38.8480   34.4542   49.0345 H   0  0  0  0  0  0  0  0  0  0  0  0
   39.2923   32.7784   47.2706 H   0  0  0  0  0  0  0  0  0  0  0  0
   33.2436   30.9857   46.1883 H   0  0  0  0  0  0  0  0  0  0  0  0
   32.0362   28.7772   46.2328 H   0  0  0  0  0  0  0  0  0  0  0  0
   32.9403   26.9716   47.6941 H   0  0  0  0  0  0  0  0  0  0  0  0
   38.1017   29.3631   47.1274 H   0  0  0  0  0  0  0  0  0  0  0  0
   39.0738   31.8709   45.7685 H   0  0  0  0  0  0  0  0  0  0  0  0
   40.3888   29.9346   44.6477 H   0  0  0  0  0  0  0  0  0  0  0  0
   38.8542   29.0206   44.6909 H   0  0  0  0  0  0  0  0  0  0  0  0
   38.3087   31.5874   43.7618 H   0  0  0  0  0  0  0  0  0  0  0  0
   39.6519   31.0356   42.9130 H   0  0  0  0  0  0  0  0  0  0  0  0
  1  7  1  0
  1  2  2  0
  2  3  1  0
  4  3  2  0
  5  6  2  0
  5  4  1  0
  6  1  1  0
  7  8  2  0
  9 10  2  0
  9 14  1  0
 10 11  1  0
 11 12  2  0
 13 12  1  0
 13  7  1  0
 14 13  2  0
 15  6  1  0
 16 15  2  0
 17 16  1  0
 18 17  1  0
  2 19  1  0
  3 20  1  0
  4 21  1  0
  5 22  1  0
  9 23  1  0
 10 24  1  0
 11 25  1  0
 15 26  1  0
 16 27  1  0
 17 28  1  0
 17 29  1  0
 18 30  1  0
 18 31  1  0
M  ISO  8  19  14  20  14  21  14  22  14  23  14  24  14  25  14  28   8
M  ISO  3  29   8  30   5  31   5
M  END
>  <minimizedAffinity>  (1) 
-5.28986549

>  <minimizedRMSD>  (1) 
0.171689048

$$$$
