
     RDKit          3D

 27 28  0  0  0  0  0  0  0  0999 V2000
   33.7610   28.8060   49.4020 C   0  0  0  0  0  0  0  0  0  0  0  0
   32.8150   27.8470   48.7400 C   0  0  0  0  0  0  0  0  0  0  0  0
   32.9780   29.6210   46.2130 Cl  0  0  0  0  0  0  0  0  0  0  0  0
   33.4380   27.9330   46.2650 C   0  0  0  0  0  0  0  0  0  0  0  0
   33.2970   27.2800   47.4710 C   0  0  0  0  0  0  0  0  0  0  0  0
   33.6770   25.9380   47.4210 C   0  0  0  0  0  0  0  0  0  0  0  0
   34.1550   25.2560   46.3230 C   0  0  0  0  0  0  0  0  0  0  0  0
   34.2560   26.0150   45.1600 C   0  0  0  0  0  0  0  0  0  0  0  0
   33.9040   27.3530   45.1060 C   0  0  0  0  0  0  0  0  0  0  0  0
   35.0620   28.2890   49.5030 O   0  0  0  0  0  0  0  0  0  0  0  0
   37.4380   30.2670   51.3810 C   0  0  0  0  0  0  0  0  0  0  0  0
   38.1610   30.8310   50.3190 C   0  0  0  0  0  0  0  0  0  0  0  0
   37.8030   30.5110   49.0170 C   0  0  0  0  0  0  0  0  0  0  0  0
   36.7500   29.6490   48.8620 N   0  0  0  0  0  0  0  0  0  0  0  0
   36.0750   29.1230   49.9050 C   0  0  0  0  0  0  0  0  0  0  0  0
   36.4350   29.4440   51.1610 N   0  0  0  0  0  0  0  0  0  0  0  0
   33.3893   29.0277   50.4133 H   0  0  0  0  0  0  0  0  0  0  0  0
   33.8075   29.7136   48.7822 H   0  0  0  0  0  0  0  0  0  0  0  0
   32.6273   27.0163   49.4363 H   0  0  0  0  0  0  0  0  0  0  0  0
   31.9102   28.4235   48.4970 H   0  0  0  0  0  0  0  0  0  0  0  0
   33.5854   25.3649   48.3554 H   0  0  0  0  0  0  0  0  0  0  0  0
   34.4354   24.1931   46.3623 H   0  0  0  0  0  0  0  0  0  0  0  0
   34.6311   25.5314   44.2460 H   0  0  0  0  0  0  0  0  0  0  0  0
   33.9931   27.9302   44.1738 H   0  0  0  0  0  0  0  0  0  0  0  0
   37.7145   30.5172   52.4159 H   0  0  0  0  0  0  0  0  0  0  0  0
   38.9987   31.5163   50.5154 H   0  0  0  0  0  0  0  0  0  0  0  0
   38.3386   30.9291   48.1519 H   0  0  0  0  0  0  0  0  0  0  0  0
  1 10  1  0
  2  1  1  0
  3  4  1  0
  4  5  2  0
  5  2  1  0
  6  5  1  0
  7  6  2  0
  8  7  1  0
  9  8  2  0
  9  4  1  0
 10 15  1  0
 12 11  2  0
 13 12  1  0
 14 13  2  0
 14 15  1  0
 15 16  2  0
 16 11  1  0
  1 17  1  0
  1 18  1  0
  2 19  1  0
  2 20  1  0
  6 21  1  0
  7 22  1  0
  8 23  1  0
  9 24  1  0
 11 25  1  0
 12 26  1  0
 13 27  1  0
M  ISO  8  17   8  18   8  19   8  20   8  21  14  22  14  23  14  24  14
M  ISO  3  25  14  26  14  27  14
M  END
>  <minimizedAffinity>  (1) 
-4.33073616

>  <minimizedRMSD>  (1) 
3.22876

$$$$
