
     RDKit          3D

 25 25  0  0  0  0  0  0  0  0999 V2000
   33.8300   28.6650   48.7080 C   0  0  0  0  0  0  0  0  0  0  0  0
   32.5640   27.8380   48.6630 C   0  0  0  0  0  0  0  0  0  0  0  0
   31.5580   28.3220   49.5710 N   0  0  0  0  0  0  0  0  0  0  0  0
   30.0530   27.5920   49.1300 S   0  0  0  0  0  0  0  0  0  0  0  0
   30.3550   26.5670   48.0710 O   0  0  0  0  0  0  0  0  0  0  0  0
   29.0690   28.6300   48.6250 O   0  0  0  0  0  0  0  0  0  0  0  0
   29.3860   26.8740   50.5020 O   0  0  0  0  0  0  0  0  0  0  0  0
   34.6660   28.2770   49.7690 O   0  0  0  0  0  0  0  0  0  0  0  0
   37.2830   30.1880   51.4060 C   0  0  0  0  0  0  0  0  0  0  0  0
   37.9910   30.6290   50.2760 C   0  0  0  0  0  0  0  0  0  0  0  0
   37.5380   30.2520   49.0140 C   0  0  0  0  0  0  0  0  0  0  0  0
   36.4250   29.4690   48.9500 N   0  0  0  0  0  0  0  0  0  0  0  0
   35.7660   29.0610   50.0530 C   0  0  0  0  0  0  0  0  0  0  0  0
   36.2160   29.4350   51.2660 N   0  0  0  0  0  0  0  0  0  0  0  0
   33.5600   29.7237   48.8355 H   0  0  0  0  0  0  0  0  0  0  0  0
   34.3759   28.5085   47.7659 H   0  0  0  0  0  0  0  0  0  0  0  0
   32.1597   27.8669   47.6404 H   0  0  0  0  0  0  0  0  0  0  0  0
   32.8231   26.8128   48.9662 H   0  0  0  0  0  0  0  0  0  0  0  0
   31.8037   28.0624   50.5370 H   0  0  0  0  0  0  0  0  0  0  0  0
   30.6069   25.7119   48.5017 H   0  0  0  0  0  0  0  0  0  0  0  0
   28.6411   29.0814   49.3953 H   0  0  0  0  0  0  0  0  0  0  0  0
   29.7724   27.2899   51.3130 H   0  0  0  0  0  0  0  0  0  0  0  0
   37.6234   30.4743   52.4121 H   0  0  0  0  0  0  0  0  0  0  0  0
   38.8856   31.2597   50.3855 H   0  0  0  0  0  0  0  0  0  0  0  0
   38.0604   30.5750   48.1014 H   0  0  0  0  0  0  0  0  0  0  0  0
  1  8  1  0
  2  1  1  0
  2  3  1  0
  4  3  1  0
  4  7  1  0
  5  4  1  0
  6  4  1  0
  8 13  1  0
 10  9  2  0
 11 10  1  0
 12 11  2  0
 12 13  1  0
 13 14  2  0
 14  9  1  0
  1 15  1  0
  1 16  1  0
  2 17  1  0
  2 18  1  0
  3 19  1  0
  5 20  1  0
  6 21  1  0
  7 22  1  0
  9 23  1  0
 10 24  1  0
 11 25  1  0
M  ISO  8  15   8  16   8  17   8  18   8  19   5  20   3  21   3  22   3
M  ISO  3  23  14  24  14  25  14
M  END
>  <minimizedAffinity>  (1) 
-4.28089762

>  <minimizedRMSD>  (1) 
1.59673631

$$$$
