
     RDKit          3D

 24 24  0  0  0  0  0  0  0  0999 V2000
   35.1010   28.2290   49.5310 O   0  0  0  0  0  0  0  0  0  0  0  0
   37.4370   30.3050   51.3680 C   0  0  0  0  0  0  0  0  0  0  0  0
   38.1430   30.8760   50.3110 C   0  0  0  0  0  0  0  0  0  0  0  0
   37.7910   30.5270   49.0140 C   0  0  0  0  0  0  0  0  0  0  0  0
   36.7640   29.6370   48.8600 N   0  0  0  0  0  0  0  0  0  0  0  0
   36.1070   29.1080   49.9090 C   0  0  0  0  0  0  0  0  0  0  0  0
   36.4570   29.4540   51.1650 N   0  0  0  0  0  0  0  0  0  0  0  0
   33.7920   28.7350   49.4540 C   0  0  0  0  0  0  0  0  0  0  0  0
   32.9190   27.8770   48.5740 C   0  0  0  0  0  0  0  0  0  0  0  0
   33.7820   26.9680   47.7710 C   0  0  0  0  0  0  0  0  0  0  0  0
   33.4440   25.7520   47.3320 C   0  0  0  0  0  0  0  0  0  0  0  0
   34.2850   24.8160   46.5250 C   0  0  0  0  0  0  0  0  0  0  0  0
   37.7074   30.5740   52.3998 H   0  0  0  0  0  0  0  0  0  0  0  0
   38.9607   31.5871   50.4998 H   0  0  0  0  0  0  0  0  0  0  0  0
   38.3170   30.9494   48.1452 H   0  0  0  0  0  0  0  0  0  0  0  0
   33.3603   28.7651   50.4653 H   0  0  0  0  0  0  0  0  0  0  0  0
   33.8369   29.7436   49.0173 H   0  0  0  0  0  0  0  0  0  0  0  0
   32.2378   27.2813   49.1994 H   0  0  0  0  0  0  0  0  0  0  0  0
   32.3274   28.5163   47.9022 H   0  0  0  0  0  0  0  0  0  0  0  0
   34.7889   27.3300   47.5159 H   0  0  0  0  0  0  0  0  0  0  0  0
   32.4349   25.4008   47.5935 H   0  0  0  0  0  0  0  0  0  0  0  0
   34.8655   24.1700   47.2000 H   0  0  0  0  0  0  0  0  0  0  0  0
   33.6361   24.1944   45.8906 H   0  0  0  0  0  0  0  0  0  0  0  0
   34.9723   25.3949   45.8906 H   0  0  0  0  0  0  0  0  0  0  0  0
  1  6  1  0
  3  2  2  0
  4  3  1  0
  5  4  2  0
  5  6  1  0
  6  7  2  0
  7  2  1  0
  8  1  1  0
  9  8  1  0
 10  9  1  0
 11 10  2  0
 12 11  1  0
  2 13  1  0
  3 14  1  0
  4 15  1  0
  8 16  1  0
  8 17  1  0
  9 18  1  0
  9 19  1  0
 10 20  1  0
 11 21  1  0
 12 22  1  0
 12 23  1  0
 12 24  1  0
M  ISO  8  13  14  14  14  15  14  16   8  17   8  18   8  19   8  22   8
M  ISO  2  23   8  24   8
M  END
>  <minimizedAffinity>  (1) 
-3.89716029

>  <minimizedRMSD>  (1) 
1.31116891

$$$$
