
     RDKit          3D

 18 18  0  0  0  0  0  0  0  0999 V2000
   37.3470   30.2430   51.4280 C   0  0  0  0  0  0  0  0  0  0  0  0
   38.0930   30.7380   50.3590 C   0  0  0  0  0  0  0  0  0  0  0  0
   37.7090   30.3740   49.0720 C   0  0  0  0  0  0  0  0  0  0  0  0
   36.6260   29.5550   48.9340 N   0  0  0  0  0  0  0  0  0  0  0  0
   35.9290   29.0960   50.0010 C   0  0  0  0  0  0  0  0  0  0  0  0
   36.3070   29.4530   51.2430 N   0  0  0  0  0  0  0  0  0  0  0  0
   34.8760   28.2870   49.6420 O   0  0  0  0  0  0  0  0  0  0  0  0
   34.4210   28.3400   48.3130 C   0  0  0  0  0  0  0  0  0  0  0  0
   33.5740   27.1330   47.9690 C   0  0  0  0  0  0  0  0  0  0  0  0
   32.2840   27.2570   48.4880 O   0  0  0  0  0  0  0  0  0  0  0  0
   37.6336   30.5188   52.4536 H   0  0  0  0  0  0  0  0  0  0  0  0
   38.9583   31.3959   50.5278 H   0  0  0  0  0  0  0  0  0  0  0  0
   38.2617   30.7355   48.1923 H   0  0  0  0  0  0  0  0  0  0  0  0
   33.8184   29.2502   48.1773 H   0  0  0  0  0  0  0  0  0  0  0  0
   35.2971   28.3483   47.6479 H   0  0  0  0  0  0  0  0  0  0  0  0
   33.5129   27.0376   46.8748 H   0  0  0  0  0  0  0  0  0  0  0  0
   34.0428   26.2412   48.4105 H   0  0  0  0  0  0  0  0  0  0  0  0
   32.3245   27.2531   49.4772 H   0  0  0  0  0  0  0  0  0  0  0  0
  2  1  2  0
  3  2  1  0
  4  3  2  0
  4  5  1  0
  5  6  2  0
  6  1  1  0
  7  5  1  0
  8  7  1  0
  9  8  1  0
  9 10  1  0
  1 11  1  0
  2 12  1  0
  3 13  1  0
  8 14  1  0
  8 15  1  0
  9 16  1  0
  9 17  1  0
 10 18  1  0
M  ISO  8  11  14  12  14  13  14  14   8  15   8  16   8  17   8  18   3
M  END
>  <minimizedAffinity>  (1) 
-3.39453578

>  <minimizedRMSD>  (1) 
0.401427835

$$$$
