
     RDKit          3D

 27 28  0  0  0  0  0  0  0  0999 V2000
   33.8910   28.6550   48.7170 C   0  0  0  0  0  0  0  0  0  0  0  0
   33.0430   27.5160   48.2360 C   0  0  0  0  0  0  0  0  0  0  0  0
   31.5990   27.8850   48.1350 C   0  0  0  0  0  0  0  0  0  0  0  0
   30.7770   27.6260   49.2180 C   0  0  0  0  0  0  0  0  0  0  0  0
   29.4380   27.9470   49.1770 C   0  0  0  0  0  0  0  0  0  0  0  0
   28.9230   28.5130   48.0880 N   0  0  0  0  0  0  0  0  0  0  0  0
   29.7380   28.7590   47.0400 C   0  0  0  0  0  0  0  0  0  0  0  0
   31.0560   28.4630   47.0300 N   0  0  0  0  0  0  0  0  0  0  0  0
   34.7460   28.2310   49.7800 O   0  0  0  0  0  0  0  0  0  0  0  0
   37.2880   30.2270   51.4430 C   0  0  0  0  0  0  0  0  0  0  0  0
   38.0300   30.6500   50.3210 C   0  0  0  0  0  0  0  0  0  0  0  0
   37.6110   30.2240   49.0770 C   0  0  0  0  0  0  0  0  0  0  0  0
   36.5050   29.4210   49.0050 N   0  0  0  0  0  0  0  0  0  0  0  0
   35.8190   29.0330   50.0820 C   0  0  0  0  0  0  0  0  0  0  0  0
   36.2230   29.4450   51.2940 N   0  0  0  0  0  0  0  0  0  0  0  0
   38.3090   30.6070   47.8840 N   0  0  0  0  0  0  0  0  0  0  0  0
   33.2389   29.4639   49.0782 H   0  0  0  0  0  0  0  0  0  0  0  0
   34.5126   29.0116   47.8825 H   0  0  0  0  0  0  0  0  0  0  0  0
   33.3987   27.2056   47.2425 H   0  0  0  0  0  0  0  0  0  0  0  0
   33.1305   26.6998   48.9682 H   0  0  0  0  0  0  0  0  0  0  0  0
   31.1973   27.1590   50.1209 H   0  0  0  0  0  0  0  0  0  0  0  0
   28.7947   27.7356   50.0439 H   0  0  0  0  0  0  0  0  0  0  0  0
   29.3043   29.2268   46.1439 H   0  0  0  0  0  0  0  0  0  0  0  0
   37.5929   30.5468   52.4504 H   0  0  0  0  0  0  0  0  0  0  0  0
   38.9123   31.2972   50.4334 H   0  0  0  0  0  0  0  0  0  0  0  0
   37.9787   30.2774   46.9658 H   0  0  0  0  0  0  0  0  0  0  0  0
   39.1406   31.2116   47.9455 H   0  0  0  0  0  0  0  0  0  0  0  0
  1  9  1  0
  2  1  1  0
  3  2  1  0
  3  4  2  0
  5  4  1  0
  6  5  2  0
  7  6  1  0
  8  7  2  0
  8  3  1  0
  9 14  1  0
 11 10  2  0
 12 11  1  0
 13 12  2  0
 13 14  1  0
 14 15  2  0
 15 10  1  0
 16 12  1  0
  1 17  1  0
  1 18  1  0
  2 19  1  0
  2 20  1  0
  4 21  1  0
  5 22  1  0
  7 23  1  0
 10 24  1  0
 11 25  1  0
 16 26  1  0
 16 27  1  0
M  ISO  8  17   8  18   8  19   8  20   8  21  14  22  14  23  14  24  14
M  ISO  1  25  14
M  END
>  <minimizedAffinity>  (1) 
-4.78948641

>  <minimizedRMSD>  (1) 
0.324724317

$$$$
