
     RDKit          3D

 43 45  0  0  0  0  0  0  0  0999 V2000
   34.0120   29.2810   48.0970 C   0  0  0  0  0  0  0  0  0  0  0  0
   33.3230   28.3790   47.1130 C   0  0  0  0  0  0  0  0  0  0  0  0
   31.9100   28.1190   47.4810 C   0  0  0  0  0  0  0  0  0  0  0  0
   31.6750   27.1670   48.4740 C   0  0  0  0  0  0  0  0  0  0  0  0
   30.4090   26.8540   48.8850 C   0  0  0  0  0  0  0  0  0  0  0  0
   29.3820   27.4630   48.3320 N   0  0  0  0  0  0  0  0  0  0  0  0
   29.6060   28.3940   47.3610 C   0  0  0  0  0  0  0  0  0  0  0  0
   30.8370   28.7330   46.9250 N   0  0  0  0  0  0  0  0  0  0  0  0
   28.4790   29.0430   46.7750 N   0  0  0  0  0  0  0  0  0  0  0  0
   27.1590   29.6630   47.6930 S   0  0  0  0  0  0  0  0  0  0  0  0
   27.5890   30.0500   49.0790 O   0  0  0  0  0  0  0  0  0  0  0  0
   26.5910   30.9150   47.0670 O   0  0  0  0  0  0  0  0  0  0  0  0
   25.9620   28.4690   47.7280 O   0  0  0  0  0  0  0  0  0  0  0  0
   35.0360   28.5500   48.7760 O   0  0  0  0  0  0  0  0  0  0  0  0
   37.2200   30.0250   51.2520 C   0  0  0  0  0  0  0  0  0  0  0  0
   38.0510   30.8250   50.4140 C   0  0  0  0  0  0  0  0  0  0  0  0
   37.7900   30.7910   49.0510 C   0  0  0  0  0  0  0  0  0  0  0  0
   36.7600   29.9940   48.6340 N   0  0  0  0  0  0  0  0  0  0  0  0
   36.0030   29.2610   49.4360 C   0  0  0  0  0  0  0  0  0  0  0  0
   36.2410   29.2810   50.7630 N   0  0  0  0  0  0  0  0  0  0  0  0
   38.8080   33.4950   49.2110 F   0  0  0  0  0  0  0  0  0  0  0  0
   39.0030   32.7860   48.0990 C   0  0  0  0  0  0  0  0  0  0  0  0
   38.5200   31.5290   48.0490 C   0  0  0  0  0  0  0  0  0  0  0  0
   38.7830   30.8780   46.8340 C   0  0  0  0  0  0  0  0  0  0  0  0
   39.4660   31.4680   45.8040 C   0  0  0  0  0  0  0  0  0  0  0  0
   39.9390   32.7580   45.9080 C   0  0  0  0  0  0  0  0  0  0  0  0
   39.6960   33.4150   47.0850 C   0  0  0  0  0  0  0  0  0  0  0  0
   33.2798   29.6528   48.8289 H   0  0  0  0  0  0  0  0  0  0  0  0
   34.4607   30.1319   47.5634 H   0  0  0  0  0  0  0  0  0  0  0  0
   33.8609   27.4202   47.0754 H   0  0  0  0  0  0  0  0  0  0  0  0
   33.3288   28.8817   46.1346 H   0  0  0  0  0  0  0  0  0  0  0  0
   32.5307   26.6550   48.9383 H   0  0  0  0  0  0  0  0  0  0  0  0
   30.2506   26.1003   49.6704 H   0  0  0  0  0  0  0  0  0  0  0  0
   28.4529   29.1464   45.7505 H   0  0  0  0  0  0  0  0  0  0  0  0
   27.0432   29.5588   49.7431 H   0  0  0  0  0  0  0  0  0  0  0  0
   26.3071   31.5407   47.7797 H   0  0  0  0  0  0  0  0  0  0  0  0
   25.7421   28.2496   48.6680 H   0  0  0  0  0  0  0  0  0  0  0  0
   37.3980   30.0263   52.3375 H   0  0  0  0  0  0  0  0  0  0  0  0
   38.8623   31.4413   50.8288 H   0  0  0  0  0  0  0  0  0  0  0  0
   38.4241   29.8465   46.7029 H   0  0  0  0  0  0  0  0  0  0  0  0
   39.6401   30.9019   44.8770 H   0  0  0  0  0  0  0  0  0  0  0  0
   40.4866   33.2381   45.0836 H   0  0  0  0  0  0  0  0  0  0  0  0
   40.0540   34.4460   47.2222 H   0  0  0  0  0  0  0  0  0  0  0  0
  1 14  1  0
  2  3  1  0
  2  1  1  0
  3  4  2  0
  4  5  1  0
  6  5  2  0
  7  6  1  0
  8  7  2  0
  8  3  1  0
  9  7  1  0
  9 10  1  0
 10 13  1  0
 10 11  1  0
 12 10  1  0
 14 19  1  0
 16 15  2  0
 17 16  1  0
 18 17  2  0
 18 19  1  0
 19 20  2  0
 20 15  1  0
 22 21  1  0
 23 22  2  0
 23 17  1  0
 24 23  1  0
 25 26  1  0
 25 24  2  0
 26 27  2  0
 27 22  1  0
  1 28  1  0
  1 29  1  0
  2 30  1  0
  2 31  1  0
  4 32  1  0
  5 33  1  0
  9 34  1  0
 11 35  1  0
 12 36  1  0
 13 37  1  0
 15 38  1  0
 16 39  1  0
 24 40  1  0
 25 41  1  0
 26 42  1  0
 27 43  1  0
M  ISO  8  28   8  29   8  30   8  31   8  32  14  33  14  35   3  36   3
M  ISO  7  37   3  38  14  39  14  40  14  41  14  42  14  43  14
M  END
>  <minimizedAffinity>  (1) 
-7.08302164

>  <minimizedRMSD>  (1) 
1.24630117

$$$$
