
     RDKit          3D

 42 45  0  0  0  0  0  0  0  0999 V2000
   34.0350   29.0460   48.0700 C   0  0  0  0  0  0  0  0  0  0  0  0
   33.2090   28.0420   47.3300 C   0  0  0  0  0  0  0  0  0  0  0  0
   31.7960   28.0320   47.7690 C   0  0  0  0  0  0  0  0  0  0  0  0
   31.5130   27.7290   49.0930 C   0  0  0  0  0  0  0  0  0  0  0  0
   30.2540   27.6890   49.6090 C   0  0  0  0  0  0  0  0  0  0  0  0
   29.2490   27.9560   48.7990 N   0  0  0  0  0  0  0  0  0  0  0  0
   29.4930   28.2590   47.4880 C   0  0  0  0  0  0  0  0  0  0  0  0
   30.7390   28.3020   46.9600 N   0  0  0  0  0  0  0  0  0  0  0  0
   28.3390   28.5490   46.6270 C   0  0  0  0  0  0  0  0  0  0  0  0
   27.2680   27.7190   46.3750 C   0  0  0  0  0  0  0  0  0  0  0  0
   26.4050   28.3890   45.5080 C   0  0  0  0  0  0  0  0  0  0  0  0
   27.0050   29.6070   45.2770 C   0  0  0  0  0  0  0  0  0  0  0  0
   28.1280   29.6520   45.9520 O   0  0  0  0  0  0  0  0  0  0  0  0
   34.9970   28.3890   48.8750 O   0  0  0  0  0  0  0  0  0  0  0  0
   37.1250   30.0220   51.3010 C   0  0  0  0  0  0  0  0  0  0  0  0
   37.9460   30.8000   50.4250 C   0  0  0  0  0  0  0  0  0  0  0  0
   37.7040   30.7000   49.0770 C   0  0  0  0  0  0  0  0  0  0  0  0
   36.6930   29.8620   48.6910 N   0  0  0  0  0  0  0  0  0  0  0  0
   35.9400   29.1480   49.5110 C   0  0  0  0  0  0  0  0  0  0  0  0
   36.1670   29.2360   50.8440 N   0  0  0  0  0  0  0  0  0  0  0  0
   38.7930   33.3760   49.1690 F   0  0  0  0  0  0  0  0  0  0  0  0
   38.9430   32.6580   48.0690 C   0  0  0  0  0  0  0  0  0  0  0  0
   38.4250   31.4030   48.0430 C   0  0  0  0  0  0  0  0  0  0  0  0
   38.6400   30.7360   46.8350 C   0  0  0  0  0  0  0  0  0  0  0  0
   39.3100   31.2920   45.7730 C   0  0  0  0  0  0  0  0  0  0  0  0
   39.8180   32.5690   45.8460 C   0  0  0  0  0  0  0  0  0  0  0  0
   39.6200   33.2530   47.0290 C   0  0  0  0  0  0  0  0  0  0  0  0
   33.3797   29.6546   48.7105 H   0  0  0  0  0  0  0  0  0  0  0  0
   34.5534   29.6897   47.3441 H   0  0  0  0  0  0  0  0  0  0  0  0
   33.6367   27.0424   47.4969 H   0  0  0  0  0  0  0  0  0  0  0  0
   33.2248   28.3179   46.2653 H   0  0  0  0  0  0  0  0  0  0  0  0
   32.3553   27.5082   49.7651 H   0  0  0  0  0  0  0  0  0  0  0  0
   30.0810   27.4420   50.6669 H   0  0  0  0  0  0  0  0  0  0  0  0
   27.1202   26.7088   46.7844 H   0  0  0  0  0  0  0  0  0  0  0  0
   25.4519   28.0238   45.0977 H   0  0  0  0  0  0  0  0  0  0  0  0
   26.6088   30.4071   44.6345 H   0  0  0  0  0  0  0  0  0  0  0  0
   37.2965   30.0801   52.3860 H   0  0  0  0  0  0  0  0  0  0  0  0
   38.7402   31.4529   50.8161 H   0  0  0  0  0  0  0  0  0  0  0  0
   38.2525   29.7120   46.7287 H   0  0  0  0  0  0  0  0  0  0  0  0
   39.4426   30.7080   44.8503 H   0  0  0  0  0  0  0  0  0  0  0  0
   40.3566   33.0235   45.0014 H   0  0  0  0  0  0  0  0  0  0  0  0
   40.0049   34.2774   47.1406 H   0  0  0  0  0  0  0  0  0  0  0  0
  1 14  1  0
  2  3  1  0
  2  1  1  0
  3  4  2  0
  4  5  1  0
  6  5  2  0
  7  6  1  0
  8  7  2  0
  8  3  1  0
  9  7  1  0
 10  9  2  0
 11 10  1  0
 12 11  2  0
 12 13  1  0
 13  9  1  0
 14 19  1  0
 16 15  2  0
 17 16  1  0
 18 17  2  0
 18 19  1  0
 19 20  2  0
 20 15  1  0
 22 21  1  0
 23 22  2  0
 23 17  1  0
 24 23  1  0
 25 26  1  0
 25 24  2  0
 26 27  2  0
 27 22  1  0
  1 28  1  0
  1 29  1  0
  2 30  1  0
  2 31  1  0
  4 32  1  0
  5 33  1  0
 10 34  1  0
 11 35  1  0
 12 36  1  0
 15 37  1  0
 16 38  1  0
 24 39  1  0
 25 40  1  0
 26 41  1  0
 27 42  1  0
M  ISO  8  28   8  29   8  30   8  31   8  32  14  33  14  34  14  35  14
M  ISO  7  36  14  37  14  38  14  39  14  40  14  41  14  42  14
M  END
>  <minimizedAffinity>  (1) 
-6.68142223

>  <minimizedRMSD>  (1) 
1.16664422

$$$$
