
     RDKit          3D

 45 48  0  0  0  0  0  0  0  0999 V2000
   34.2070   29.4450   49.7870 C   0  0  0  0  0  0  0  0  0  0  0  0
   35.3600   30.3290   49.4830 C   0  0  0  0  0  0  0  0  0  0  0  0
   38.2390   31.5270   48.9740 Br  0  0  0  0  0  0  0  0  0  0  0  0
   36.9850   30.9030   47.6570 C   0  0  0  0  0  0  0  0  0  0  0  0
   37.3000   30.9500   46.3220 C   0  0  0  0  0  0  0  0  0  0  0  0
   36.3620   30.5030   45.4270 C   0  0  0  0  0  0  0  0  0  0  0  0
   35.1290   30.0150   45.8210 C   0  0  0  0  0  0  0  0  0  0  0  0
   34.8440   29.9840   47.1940 C   0  0  0  0  0  0  0  0  0  0  0  0
   35.7780   30.4270   48.0890 C   0  0  0  0  0  0  0  0  0  0  0  0
   39.7830   33.2810   45.0150 C   0  0  0  0  0  0  0  0  0  0  0  0
   40.9870   32.5030   44.9830 C   0  0  0  0  0  0  0  0  0  0  0  0
   40.9010   31.2050   45.4120 C   0  0  0  0  0  0  0  0  0  0  0  0
   39.7000   30.6940   45.8500 N   0  0  0  0  0  0  0  0  0  0  0  0
   38.5950   31.4650   45.8620 C   0  0  0  0  0  0  0  0  0  0  0  0
   38.6540   32.7390   45.4460 N   0  0  0  0  0  0  0  0  0  0  0  0
   34.5050   28.1260   49.3600 N   0  0  0  0  0  0  0  0  0  0  0  0
   33.4850   27.4140   48.6840 C   0  0  0  0  0  0  0  0  0  0  0  0
   32.1660   28.0240   49.0300 C   0  0  0  0  0  0  0  0  0  0  0  0
   31.2020   27.2480   48.1820 N   0  0  0  0  0  0  0  0  0  0  0  0
   31.5270   26.2710   47.2950 C   0  0  0  0  0  0  0  0  0  0  0  0
   30.3960   25.8130   46.7290 N   0  0  0  0  0  0  0  0  0  0  0  0
   29.3570   26.4740   47.2320 C   0  0  0  0  0  0  0  0  0  0  0  0
   27.9940   26.4780   47.0740 C   0  0  0  0  0  0  0  0  0  0  0  0
   27.1390   27.2940   47.7460 N   0  0  0  0  0  0  0  0  0  0  0  0
   27.6800   28.1700   48.6390 C   0  0  0  0  0  0  0  0  0  0  0  0
   29.0260   28.2050   48.8300 N   0  0  0  0  0  0  0  0  0  0  0  0
   29.8450   27.3740   48.1420 C   0  0  0  0  0  0  0  0  0  0  0  0
   34.0177   29.4469   50.8706 H   0  0  0  0  0  0  0  0  0  0  0  0
   33.3126   29.8104   49.2611 H   0  0  0  0  0  0  0  0  0  0  0  0
   35.0978   31.3423   49.8215 H   0  0  0  0  0  0  0  0  0  0  0  0
   36.2136   29.8688   50.0023 H   0  0  0  0  0  0  0  0  0  0  0  0
   36.5994   30.5337   44.3534 H   0  0  0  0  0  0  0  0  0  0  0  0
   34.3954   29.6625   45.0810 H   0  0  0  0  0  0  0  0  0  0  0  0
   33.8742   29.6053   47.5489 H   0  0  0  0  0  0  0  0  0  0  0  0
   39.7970   34.3291   44.6813 H   0  0  0  0  0  0  0  0  0  0  0  0
   41.9374   32.9295   44.6297 H   0  0  0  0  0  0  0  0  0  0  0  0
   41.7971   30.5670   45.4065 H   0  0  0  0  0  0  0  0  0  0  0  0
   35.3149   28.1820   48.7260 H   0  0  0  0  0  0  0  0  0  0  0  0
   33.4991   26.3598   48.9977 H   0  0  0  0  0  0  0  0  0  0  0  0
   33.6486   27.4655   47.5975 H   0  0  0  0  0  0  0  0  0  0  0  0
   31.9410   27.8990   50.0995 H   0  0  0  0  0  0  0  0  0  0  0  0
   32.1286   29.1080   48.8471 H   0  0  0  0  0  0  0  0  0  0  0  0
   32.5444   25.9145   47.0765 H   0  0  0  0  0  0  0  0  0  0  0  0
   27.5619   25.7699   46.3515 H   0  0  0  0  0  0  0  0  0  0  0  0
   27.0270   28.8497   49.2061 H   0  0  0  0  0  0  0  0  0  0  0  0
  2  1  1  0
  4  9  2  0
  4  3  1  0
  5  4  1  0
  6  7  1  0
  6  5  2  0
  7  8  2  0
  8  9  1  0
  9  2  1  0
 10 15  2  0
 11 10  1  0
 11 12  2  0
 12 13  1  0
 13 14  2  0
 14  5  1  0
 15 14  1  0
 16  1  1  0
 17 18  1  0
 17 16  1  0
 19 18  1  0
 20 19  1  0
 21 22  1  0
 21 20  2  0
 22 27  2  0
 23 22  1  0
 23 24  2  0
 24 25  1  0
 25 26  2  0
 27 19  1  0
 27 26  1  0
  1 28  1  0
  1 29  1  0
  2 30  1  0
  2 31  1  0
  6 32  1  0
  7 33  1  0
  8 34  1  0
 10 35  1  0
 11 36  1  0
 12 37  1  0
 16 38  1  0
 17 39  1  0
 17 40  1  0
 18 41  1  0
 18 42  1  0
 20 43  1  0
 23 44  1  0
 25 45  1  0
M  ISO  8  28   8  29   8  30   8  31   8  32  14  33  14  34  14  35  14
M  ISO  8  36  14  37  14  38   5  39   8  40   8  41   8  42   8  43  14
M  ISO  2  44  14  45  14
M  END
>  <minimizedAffinity>  (1) 
-5.93992138

>  <minimizedRMSD>  (1) 
1.77127981

$$$$
