
     RDKit          3D

 48 51  0  0  0  0  0  0  0  0999 V2000
   34.4980   28.4390   48.3260 C   0  0  0  0  0  0  0  0  0  0  0  0
   33.5200   27.3000   48.3410 C   0  0  0  0  0  0  0  0  0  0  0  0
   32.1460   27.7120   47.9360 C   0  0  0  0  0  0  0  0  0  0  0  0
   31.1400   27.6030   48.8800 C   0  0  0  0  0  0  0  0  0  0  0  0
   29.8430   27.9580   48.5980 C   0  0  0  0  0  0  0  0  0  0  0  0
   29.5460   28.4210   47.3790 N   0  0  0  0  0  0  0  0  0  0  0  0
   30.5510   28.5200   46.4630 C   0  0  0  0  0  0  0  0  0  0  0  0
   31.8200   28.1800   46.7180 N   0  0  0  0  0  0  0  0  0  0  0  0
   30.1640   29.0430   45.1180 C   0  0  0  0  0  0  0  0  0  0  0  0
   30.4630   30.4670   44.9250 C   0  0  0  0  0  0  0  0  0  0  0  0
   29.4690   31.2420   44.3200 C   0  0  0  0  0  0  0  0  0  0  0  0
   29.6290   32.5920   44.0820 C   0  0  0  0  0  0  0  0  0  0  0  0
   30.8090   33.2000   44.4540 C   0  0  0  0  0  0  0  0  0  0  0  0
   31.7860   32.4450   45.0490 C   0  0  0  0  0  0  0  0  0  0  0  0
   31.6440   31.0770   45.2970 C   0  0  0  0  0  0  0  0  0  0  0  0
   34.4740   29.1360   49.5630 O   0  0  0  0  0  0  0  0  0  0  0  0
   37.2800   29.9770   51.6710 C   0  0  0  0  0  0  0  0  0  0  0  0
   38.0940   30.6660   50.7430 C   0  0  0  0  0  0  0  0  0  0  0  0
   37.6200   30.7980   49.4380 C   0  0  0  0  0  0  0  0  0  0  0  0
   36.4020   30.2400   49.1900 N   0  0  0  0  0  0  0  0  0  0  0  0
   35.6400   29.5910   50.0710 C   0  0  0  0  0  0  0  0  0  0  0  0
   36.1000   29.4650   51.3350 N   0  0  0  0  0  0  0  0  0  0  0  0
   38.8160   33.4290   49.4410 F   0  0  0  0  0  0  0  0  0  0  0  0
   38.8710   32.6820   48.3350 C   0  0  0  0  0  0  0  0  0  0  0  0
   38.3100   31.4660   48.3590 C   0  0  0  0  0  0  0  0  0  0  0  0
   38.4240   30.7670   47.1550 C   0  0  0  0  0  0  0  0  0  0  0  0
   39.0520   31.2810   46.0520 C   0  0  0  0  0  0  0  0  0  0  0  0
   39.6130   32.5360   46.0810 C   0  0  0  0  0  0  0  0  0  0  0  0
   39.5150   33.2400   47.2490 C   0  0  0  0  0  0  0  0  0  0  0  0
   35.5100   28.0440   48.1534 H   0  0  0  0  0  0  0  0  0  0  0  0
   34.2184   29.1353   47.5216 H   0  0  0  0  0  0  0  0  0  0  0  0
   33.8734   26.5243   47.6457 H   0  0  0  0  0  0  0  0  0  0  0  0
   33.4625   26.9270   49.3742 H   0  0  0  0  0  0  0  0  0  0  0  0
   31.3852   27.2222   49.8824 H   0  0  0  0  0  0  0  0  0  0  0  0
   29.0597   27.8627   49.3643 H   0  0  0  0  0  0  0  0  0  0  0  0
   30.7073   28.4683   44.3535 H   0  0  0  0  0  0  0  0  0  0  0  0
   29.0729   28.9316   45.0340 H   0  0  0  0  0  0  0  0  0  0  0  0
   28.5264   30.7588   44.0233 H   0  0  0  0  0  0  0  0  0  0  0  0
   28.8276   33.1737   43.6030 H   0  0  0  0  0  0  0  0  0  0  0  0
   30.9640   34.2744   44.2761 H   0  0  0  0  0  0  0  0  0  0  0  0
   32.7239   32.9379   45.3446 H   0  0  0  0  0  0  0  0  0  0  0  0
   32.4509   30.5024   45.7753 H   0  0  0  0  0  0  0  0  0  0  0  0
   37.6348   29.8606   52.7057 H   0  0  0  0  0  0  0  0  0  0  0  0
   39.0674   31.0835   51.0399 H   0  0  0  0  0  0  0  0  0  0  0  0
   37.9898   29.7584   47.0900 H   0  0  0  0  0  0  0  0  0  0  0  0
   39.1084   30.6822   45.1310 H   0  0  0  0  0  0  0  0  0  0  0  0
   40.1201   32.9566   45.2002 H   0  0  0  0  0  0  0  0  0  0  0  0
   39.9482   34.2484   47.3231 H   0  0  0  0  0  0  0  0  0  0  0  0
  1  2  1  0
  1 16  1  0
  3  2  1  0
  3  4  2  0
  5  4  1  0
  6  5  2  0
  7  8  2  0
  7  6  1  0
  8  3  1  0
  9  7  1  0
 10  9  1  0
 10 15  1  0
 11 10  2  0
 12 11  1  0
 12 13  2  0
 13 14  1  0
 14 15  2  0
 16 21  1  0
 18 17  2  0
 19 18  1  0
 20 19  2  0
 20 21  1  0
 21 22  2  0
 22 17  1  0
 24 25  2  0
 24 23  1  0
 25 19  1  0
 26 25  1  0
 27 28  1  0
 27 26  2  0
 28 29  2  0
 29 24  1  0
  1 30  1  0
  1 31  1  0
  2 32  1  0
  2 33  1  0
  4 34  1  0
  5 35  1  0
  9 36  1  0
  9 37  1  0
 11 38  1  0
 12 39  1  0
 13 40  1  0
 14 41  1  0
 15 42  1  0
 17 43  1  0
 18 44  1  0
 26 45  1  0
 27 46  1  0
 28 47  1  0
 29 48  1  0
M  ISO  8  30   8  31   8  32   8  33   8  34  14  35  14  36   8  37   8
M  ISO  8  38  14  39  14  40  14  41  14  42  14  43  14  44  14  45  14
M  ISO  3  46  14  47  14  48  14
M  END
>  <minimizedAffinity>  (1) 
-6.45745087

>  <minimizedRMSD>  (1) 
1.18594825

$$$$
