
     RDKit          3D

 45 48  0  0  0  0  0  0  0  0999 V2000
   34.4820   28.2960   48.3560 C   0  0  0  0  0  0  0  0  0  0  0  0
   33.5070   27.1770   48.1930 C   0  0  0  0  0  0  0  0  0  0  0  0
   32.1300   27.6490   47.8480 C   0  0  0  0  0  0  0  0  0  0  0  0
   31.1690   27.6030   48.8420 C   0  0  0  0  0  0  0  0  0  0  0  0
   29.8860   28.0140   48.6140 C   0  0  0  0  0  0  0  0  0  0  0  0
   29.5460   28.4740   47.4020 N   0  0  0  0  0  0  0  0  0  0  0  0
   30.5080   28.5130   46.4340 C   0  0  0  0  0  0  0  0  0  0  0  0
   31.7700   28.1160   46.6330 N   0  0  0  0  0  0  0  0  0  0  0  0
   30.0800   29.0300   45.1110 C   0  0  0  0  0  0  0  0  0  0  0  0
   30.5060   30.4550   44.9770 C   0  0  0  0  0  0  0  0  0  0  0  0
   31.6550   31.0900   45.2600 C   0  0  0  0  0  0  0  0  0  0  0  0
   31.7810   32.4260   45.0370 C   0  0  0  0  0  0  0  0  0  0  0  0
   30.6030   33.0740   44.4860 C   0  0  0  0  0  0  0  0  0  0  0  0
   29.3930   31.6280   44.3440 S   0  0  0  0  0  0  0  0  0  0  0  0
   34.5030   28.7840   49.6850 O   0  0  0  0  0  0  0  0  0  0  0  0
   37.2380   29.9950   51.7100 C   0  0  0  0  0  0  0  0  0  0  0  0
   38.0050   30.6580   50.7300 C   0  0  0  0  0  0  0  0  0  0  0  0
   37.5300   30.6460   49.4280 C   0  0  0  0  0  0  0  0  0  0  0  0
   36.3430   29.9820   49.2120 N   0  0  0  0  0  0  0  0  0  0  0  0
   35.6360   29.3630   50.1560 C   0  0  0  0  0  0  0  0  0  0  0  0
   36.1070   29.3770   51.4270 N   0  0  0  0  0  0  0  0  0  0  0  0
   38.8980   33.1980   49.3230 F   0  0  0  0  0  0  0  0  0  0  0  0
   38.8090   32.4590   48.2220 C   0  0  0  0  0  0  0  0  0  0  0  0
   38.1680   31.2670   48.2800 C   0  0  0  0  0  0  0  0  0  0  0  0
   38.1330   30.5760   47.0770 C   0  0  0  0  0  0  0  0  0  0  0  0
   38.6990   31.0600   45.9280 C   0  0  0  0  0  0  0  0  0  0  0  0
   39.3410   32.2730   45.9070 C   0  0  0  0  0  0  0  0  0  0  0  0
   39.3880   32.9690   47.0780 C   0  0  0  0  0  0  0  0  0  0  0  0
   34.1994   29.1162   47.6797 H   0  0  0  0  0  0  0  0  0  0  0  0
   35.4851   27.9140   48.1155 H   0  0  0  0  0  0  0  0  0  0  0  0
   33.8629   26.5159   47.3891 H   0  0  0  0  0  0  0  0  0  0  0  0
   33.4435   26.6519   49.1575 H   0  0  0  0  0  0  0  0  0  0  0  0
   31.4439   27.2270   49.8385 H   0  0  0  0  0  0  0  0  0  0  0  0
   29.1379   27.9677   49.4191 H   0  0  0  0  0  0  0  0  0  0  0  0
   30.5451   28.4309   44.3143 H   0  0  0  0  0  0  0  0  0  0  0  0
   28.9854   28.9629   45.0255 H   0  0  0  0  0  0  0  0  0  0  0  0
   32.5020   30.5246   45.6759 H   0  0  0  0  0  0  0  0  0  0  0  0
   32.7077   32.9760   45.2578 H   0  0  0  0  0  0  0  0  0  0  0  0
   30.4539   34.1310   44.2205 H   0  0  0  0  0  0  0  0  0  0  0  0
   37.5961   29.9929   52.7501 H   0  0  0  0  0  0  0  0  0  0  0  0
   38.9456   31.1660   50.9893 H   0  0  0  0  0  0  0  0  0  0  0  0
   37.6295   29.5985   47.0452 H   0  0  0  0  0  0  0  0  0  0  0  0
   38.6381   30.4656   45.0044 H   0  0  0  0  0  0  0  0  0  0  0  0
   39.7972   32.6658   44.9864 H   0  0  0  0  0  0  0  0  0  0  0  0
   39.8921   33.9461   47.1114 H   0  0  0  0  0  0  0  0  0  0  0  0
  1 15  1  0
  2  1  1  0
  3  2  1  0
  3  4  2  0
  5  4  1  0
  6  5  2  0
  7  8  2  0
  7  6  1  0
  8  3  1  0
  9  7  1  0
 10  9  1  0
 10 11  2  0
 12 11  1  0
 13 12  2  0
 14 13  1  0
 14 10  1  0
 15 20  1  0
 17 16  2  0
 18 17  1  0
 19 18  2  0
 19 20  1  0
 20 21  2  0
 21 16  1  0
 23 24  2  0
 23 22  1  0
 24 18  1  0
 25 24  1  0
 26 25  2  0
 27 26  1  0
 27 28  2  0
 28 23  1  0
  1 29  1  0
  1 30  1  0
  2 31  1  0
  2 32  1  0
  4 33  1  0
  5 34  1  0
  9 35  1  0
  9 36  1  0
 11 37  1  0
 12 38  1  0
 13 39  1  0
 16 40  1  0
 17 41  1  0
 25 42  1  0
 26 43  1  0
 27 44  1  0
 28 45  1  0
M  ISO  8  29   8  30   8  31   8  32   8  33  14  34  14  35   8  36   8
M  ISO  8  37  14  38  14  39  14  40  14  41  14  42  14  43  14  44  14
M  ISO  1  45  14
M  END
>  <minimizedAffinity>  (1) 
-6.35086441

>  <minimizedRMSD>  (1) 
1.0681076

$$$$
