
     RDKit          3D

 15 15  0  0  0  0  0  0  0  0999 V2000
   38.2780   31.2560   50.0480 C   0  0  0  0  0  0  0  0  0  0  0  0
   38.2890   31.5340   48.6770 C   0  0  0  0  0  0  0  0  0  0  0  0
   37.2200   31.0750   47.9200 C   0  0  0  0  0  0  0  0  0  0  0  0
   36.2290   30.3840   48.5500 N   0  0  0  0  0  0  0  0  0  0  0  0
   36.2430   30.1320   49.8600 C   0  0  0  0  0  0  0  0  0  0  0  0
   37.2760   30.5740   50.5990 N   0  0  0  0  0  0  0  0  0  0  0  0
   35.1200   29.3720   50.4520 C   0  0  0  0  0  0  0  0  0  0  0  0
   35.2910   29.1240   51.8050 F   0  0  0  0  0  0  0  0  0  0  0  0
   33.9220   30.0530   50.3050 F   0  0  0  0  0  0  0  0  0  0  0  0
   34.9240   28.1480   49.8370 F   0  0  0  0  0  0  0  0  0  0  0  0
   37.1740   31.3300   46.5060 N   0  0  0  0  0  0  0  0  0  0  0  0
   39.1083   31.6055   50.6792 H   0  0  0  0  0  0  0  0  0  0  0  0
   39.1146   32.0958   48.2158 H   0  0  0  0  0  0  0  0  0  0  0  0
   37.9353   31.8548   46.0523 H   0  0  0  0  0  0  0  0  0  0  0  0
   36.3797   30.9879   45.9466 H   0  0  0  0  0  0  0  0  0  0  0  0
  1  6  2  0
  2  1  1  0
  3  4  1  0
  3  2  2  0
  4  5  2  0
  5  7  1  0
  5  6  1  0
  7  8  1  0
  9  7  1  0
 10  7  1  0
 11  3  1  0
  1 12  1  0
  2 13  1  0
 11 14  1  0
 11 15  1  0
M  ISO  2  12  14  13  14
M  END
>  <minimizedAffinity>  (1) 
-4.54433823

>  <minimizedRMSD>  (1) 
0.114748761

$$$$
