
     RDKit          3D

 16 16  0  0  0  0  0  0  0  0999 V2000
   38.2740   31.2900   50.0760 C   0  0  0  0  0  0  0  0  0  0  0  0
   38.3620   31.4470   48.6820 C   0  0  0  0  0  0  0  0  0  0  0  0
   37.3510   30.8950   47.8990 C   0  0  0  0  0  0  0  0  0  0  0  0
   36.3340   30.2330   48.5230 N   0  0  0  0  0  0  0  0  0  0  0  0
   36.2900   30.1060   49.8580 C   0  0  0  0  0  0  0  0  0  0  0  0
   37.2540   30.6300   50.6370 N   0  0  0  0  0  0  0  0  0  0  0  0
   35.1370   29.3650   50.4450 C   0  0  0  0  0  0  0  0  0  0  0  0
   35.2750   29.1190   51.7910 F   0  0  0  0  0  0  0  0  0  0  0  0
   33.9510   30.0810   50.2890 F   0  0  0  0  0  0  0  0  0  0  0  0
   34.9260   28.1410   49.8400 F   0  0  0  0  0  0  0  0  0  0  0  0
   37.4010   31.0350   46.4190 C   0  0  0  0  0  0  0  0  0  0  0  0
   39.0583   31.7177   50.7178 H   0  0  0  0  0  0  0  0  0  0  0  0
   39.2027   31.9887   48.2240 H   0  0  0  0  0  0  0  0  0  0  0  0
   37.7604   32.0413   46.1578 H   0  0  0  0  0  0  0  0  0  0  0  0
   38.0856   30.2815   46.0023 H   0  0  0  0  0  0  0  0  0  0  0  0
   36.3940   30.8857   46.0023 H   0  0  0  0  0  0  0  0  0  0  0  0
  1  6  2  0
  2  1  1  0
  3  4  1  0
  3  2  2  0
  4  5  2  0
  5  7  1  0
  5  6  1  0
  7  8  1  0
  9  7  1  0
 10  7  1  0
 11  3  1  0
  1 12  1  0
  2 13  1  0
 11 14  1  0
 11 15  1  0
 11 16  1  0
M  ISO  5  12  14  13  14  14   8  15   8  16   8
M  END
>  <minimizedAffinity>  (1) 
-4.46753836

>  <minimizedRMSD>  (1) 
0.247251153

$$$$
