
     RDKit          3D

 34 35  0  0  0  0  0  0  0  0999 V2000
   38.3820   32.2710   46.6440 C   0  0  0  0  0  0  0  0  0  0  0  0
   39.6140   32.8870   46.7200 C   0  0  0  0  0  0  0  0  0  0  0  0
   40.2630   33.2460   45.5450 C   0  0  0  0  0  0  0  0  0  0  0  0
   39.6250   32.9600   44.3700 N   0  0  0  0  0  0  0  0  0  0  0  0
   38.4230   32.3590   44.3100 C   0  0  0  0  0  0  0  0  0  0  0  0
   37.8510   32.0380   45.4430 N   0  0  0  0  0  0  0  0  0  0  0  0
   38.0580   30.9190   42.3280 C   0  0  0  0  0  0  0  0  0  0  0  0
   37.7380   32.0490   43.0760 C   0  0  0  0  0  0  0  0  0  0  0  0
   36.7250   32.8740   42.5870 C   0  0  0  0  0  0  0  0  0  0  0  0
   36.0260   32.6460   41.4210 C   0  0  0  0  0  0  0  0  0  0  0  0
   36.3250   31.5330   40.6620 C   0  0  0  0  0  0  0  0  0  0  0  0
   37.3270   30.7210   41.1500 C   0  0  0  0  0  0  0  0  0  0  0  0
   39.3030   29.8100   42.8310 S   0  0  0  0  0  0  0  0  0  0  0  0
   40.6870   30.3710   42.7010 O   0  0  0  0  0  0  0  0  0  0  0  0
   39.0330   29.1800   44.1630 O   0  0  0  0  0  0  0  0  0  0  0  0
   37.8380   31.9620   47.8790 O   0  0  0  0  0  0  0  0  0  0  0  0
   36.9030   30.9450   47.9390 C   0  0  0  0  0  0  0  0  0  0  0  0
   37.5600   30.1380   48.8000 C   0  0  0  0  0  0  0  0  0  0  0  0
   38.0150   30.7140   50.0990 C   0  0  0  0  0  0  0  0  0  0  0  0
   37.2470   29.9470   51.5160 S   0  0  0  0  0  0  0  0  0  0  0  0
   40.0761   33.0911   47.6971 H   0  0  0  0  0  0  0  0  0  0  0  0
   41.2465   33.7385   45.5595 H   0  0  0  0  0  0  0  0  0  0  0  0
   36.4660   33.7685   43.1725 H   0  0  0  0  0  0  0  0  0  0  0  0
   35.2386   33.3435   41.0992 H   0  0  0  0  0  0  0  0  0  0  0  0
   35.7960   31.3072   39.7244 H   0  0  0  0  0  0  0  0  0  0  0  0
   37.5768   29.8299   40.5554 H   0  0  0  0  0  0  0  0  0  0  0  0
   39.2538   28.7770   41.9324 H   0  0  0  0  0  0  0  0  0  0  0  0
   35.9389   31.2883   48.3424 H   0  0  0  0  0  0  0  0  0  0  0  0
   36.6165   30.4945   46.9772 H   0  0  0  0  0  0  0  0  0  0  0  0
   36.8912   29.2963   49.0329 H   0  0  0  0  0  0  0  0  0  0  0  0
   38.4916   29.8803   48.2750 H   0  0  0  0  0  0  0  0  0  0  0  0
   39.1042   30.5820   50.1775 H   0  0  0  0  0  0  0  0  0  0  0  0
   37.7258   31.7753   50.1051 H   0  0  0  0  0  0  0  0  0  0  0  0
   37.7761   30.4754   52.6640 H   0  0  0  0  0  0  0  0  0  0  0  0
  1  2  2  0
  1 16  1  0
  3  2  1  0
  4  3  2  0
  5  4  1  0
  5  6  2  0
  6  1  1  0
  7 13  1  0
  7  8  2  0
  8  5  1  0
  9  8  1  0
 10  9  2  0
 11 12  2  0
 11 10  1  0
 12  7  1  0
 13 15  2  0
 14 13  2  0
 16 17  1  0
 17 18  1  0
 18 19  1  0
 19 20  1  0
  2 21  1  0
  3 22  1  0
  9 23  1  0
 10 24  1  0
 11 25  1  0
 12 26  1  0
 13 27  1  0
 17 28  1  0
 17 29  1  0
 18 30  1  0
 18 31  1  0
 19 32  1  0
 19 33  1  0
 20 34  1  0
M  ISO  8  21  14  22  14  23  14  24  14  25  14  26  14  27  11  28   8
M  ISO  6  29   8  30   8  31   8  32   8  33   8  34  11
M  END
>  <minimizedAffinity>  (1) 
-4.43748617

>  <minimizedRMSD>  (1) 
1.43434465

$$$$
