
     RDKit          3D

 29 30  0  0  0  0  0  0  0  0999 V2000
   38.1570   31.2340   44.9220 C   0  0  0  0  0  0  0  0  0  0  0  0
   37.3370   30.9210   45.9700 C   0  0  0  0  0  0  0  0  0  0  0  0
   36.1170   30.3300   45.7220 C   0  0  0  0  0  0  0  0  0  0  0  0
   35.6630   30.0360   44.4530 C   0  0  0  0  0  0  0  0  0  0  0  0
   36.4590   30.3470   43.3760 C   0  0  0  0  0  0  0  0  0  0  0  0
   37.6650   30.9290   43.6520 C   0  0  0  0  0  0  0  0  0  0  0  0
   38.7030   32.7640   48.8650 C   0  0  0  0  0  0  0  0  0  0  0  0
   38.3120   32.4580   47.5620 C   0  0  0  0  0  0  0  0  0  0  0  0
   37.7010   31.2700   47.3140 C   0  0  0  0  0  0  0  0  0  0  0  0
   37.4850   30.4340   48.3780 N   0  0  0  0  0  0  0  0  0  0  0  0
   37.8550   30.7420   49.6280 C   0  0  0  0  0  0  0  0  0  0  0  0
   38.4660   31.9030   49.8580 N   0  0  0  0  0  0  0  0  0  0  0  0
   37.4350   29.8050   50.6960 C   0  0  0  0  0  0  0  0  0  0  0  0
   37.7150   30.2940   51.9560 F   0  0  0  0  0  0  0  0  0  0  0  0
   36.0100   29.6510   50.7000 F   0  0  0  0  0  0  0  0  0  0  0  0
   37.8940   28.5590   50.5760 F   0  0  0  0  0  0  0  0  0  0  0  0
   39.7220   31.9600   45.1110 S   0  0  0  0  0  0  0  0  0  0  0  0
   39.6540   33.4310   44.8930 O   0  0  0  0  0  0  0  0  0  0  0  0
   40.3040   31.5600   43.7570 O   0  0  0  0  0  0  0  0  0  0  0  0
   41.1420   31.2300   45.7200 C   0  0  0  0  0  0  0  0  0  0  0  0
   35.4733   30.0803   46.5784 H   0  0  0  0  0  0  0  0  0  0  0  0
   34.6818   29.5613   44.3054 H   0  0  0  0  0  0  0  0  0  0  0  0
   36.1414   30.1380   42.3438 H   0  0  0  0  0  0  0  0  0  0  0  0
   38.3064   31.1799   42.7943 H   0  0  0  0  0  0  0  0  0  0  0  0
   39.2085   33.7180   49.0758 H   0  0  0  0  0  0  0  0  0  0  0  0
   38.4961   33.1703   46.7442 H   0  0  0  0  0  0  0  0  0  0  0  0
   41.1180   31.2423   46.8197 H   0  0  0  0  0  0  0  0  0  0  0  0
   41.2004   30.1901   45.3662 H   0  0  0  0  0  0  0  0  0  0  0  0
   42.0217   31.7876   45.3662 H   0  0  0  0  0  0  0  0  0  0  0  0
  1 17  1  0
  1  2  2  0
  2  9  1  0
  3  2  1  0
  4  3  2  0
  5  6  2  0
  5  4  1  0
  6  1  1  0
  7 12  2  0
  8  7  1  0
  9  8  2  0
  9 10  1  0
 10 11  2  0
 11 12  1  0
 11 13  1  0
 13 15  1  0
 13 14  1  0
 16 13  1  0
 17 20  1  0
 18 17  2  0
 19 17  2  0
  3 21  1  0
  4 22  1  0
  5 23  1  0
  6 24  1  0
  7 25  1  0
  8 26  1  0
 20 27  1  0
 20 28  1  0
 20 29  1  0
M  ISO  8  21  14  22  14  23  14  24  14  25  14  26  14  27   8  28   8
M  ISO  1  29   8
M  END
>  <minimizedAffinity>  (1) 
-5.83780813

>  <minimizedRMSD>  (1) 
1.64569056

$$$$
