
     RDKit          3D

 29 30  0  0  0  0  0  0  0  0999 V2000
   38.7160   32.3470   46.4690 C   0  0  0  0  0  0  0  0  0  0  0  0
   39.9810   32.8480   46.2260 C   0  0  0  0  0  0  0  0  0  0  0  0
   40.3050   33.2170   44.9150 C   0  0  0  0  0  0  0  0  0  0  0  0
   39.3420   33.0590   43.9470 N   0  0  0  0  0  0  0  0  0  0  0  0
   38.1100   32.5600   44.2430 C   0  0  0  0  0  0  0  0  0  0  0  0
   37.8220   32.2180   45.4790 N   0  0  0  0  0  0  0  0  0  0  0  0
   37.0980   32.3960   43.2140 C   0  0  0  0  0  0  0  0  0  0  0  0
   36.0840   31.4680   43.4230 C   0  0  0  0  0  0  0  0  0  0  0  0
   35.1530   31.3570   42.4120 C   0  0  0  0  0  0  0  0  0  0  0  0
   35.2150   32.0910   41.3000 N   0  0  0  0  0  0  0  0  0  0  0  0
   36.1980   32.9920   41.0960 C   0  0  0  0  0  0  0  0  0  0  0  0
   37.1140   33.1100   42.0750 N   0  0  0  0  0  0  0  0  0  0  0  0
   38.5240   32.0190   47.8070 O   0  0  0  0  0  0  0  0  0  0  0  0
   37.3410   31.4040   48.1540 C   0  0  0  0  0  0  0  0  0  0  0  0
   37.8290   30.4540   48.9780 C   0  0  0  0  0  0  0  0  0  0  0  0
   38.1520   30.8480   50.3810 C   0  0  0  0  0  0  0  0  0  0  0  0
   37.2230   29.8830   51.5920 S   0  0  0  0  0  0  0  0  0  0  0  0
   40.7130   32.9539   47.0402 H   0  0  0  0  0  0  0  0  0  0  0  0
   41.2980   33.6203   44.6676 H   0  0  0  0  0  0  0  0  0  0  0  0
   36.0280   30.8601   44.3381 H   0  0  0  0  0  0  0  0  0  0  0  0
   34.3293   30.6370   42.5267 H   0  0  0  0  0  0  0  0  0  0  0  0
   36.2482   33.5976   40.1791 H   0  0  0  0  0  0  0  0  0  0  0  0
   36.6572   32.0901   48.6752 H   0  0  0  0  0  0  0  0  0  0  0  0
   36.7362   31.0345   47.3128 H   0  0  0  0  0  0  0  0  0  0  0  0
   37.0825   29.6476   49.0274 H   0  0  0  0  0  0  0  0  0  0  0  0
   38.7985   30.1774   48.5380 H   0  0  0  0  0  0  0  0  0  0  0  0
   39.2272   30.6927   50.5539 H   0  0  0  0  0  0  0  0  0  0  0  0
   37.8746   31.9050   50.5071 H   0  0  0  0  0  0  0  0  0  0  0  0
   37.5888   30.2630   52.8564 H   0  0  0  0  0  0  0  0  0  0  0  0
  1 13  1  0
  2  1  2  0
  3  2  1  0
  4  5  1  0
  4  3  2  0
  5  6  2  0
  6  1  1  0
  7  8  2  0
  7  5  1  0
  9  8  1  0
 10  9  2  0
 11 10  1  0
 11 12  2  0
 12  7  1  0
 13 14  1  0
 14 15  1  0
 15 16  1  0
 16 17  1  0
  2 18  1  0
  3 19  1  0
  8 20  1  0
  9 21  1  0
 11 22  1  0
 14 23  1  0
 14 24  1  0
 15 25  1  0
 15 26  1  0
 16 27  1  0
 16 28  1  0
 17 29  1  0
M  ISO  8  18  14  19  14  20  14  21  14  22  14  23   8  24   8  25   8
M  ISO  4  26   8  27   8  28   8  29  11
M  END
>  <minimizedAffinity>  (1) 
-4.20970583

>  <minimizedRMSD>  (1) 
0.466738582

$$$$
