
     RDKit          3D

 31 32  0  0  0  0  0  0  0  0999 V2000
   38.9030   32.3850   46.4350 C   0  0  0  0  0  0  0  0  0  0  0  0
   40.0760   32.9800   46.0230 C   0  0  0  0  0  0  0  0  0  0  0  0
   40.2150   33.3480   44.6900 C   0  0  0  0  0  0  0  0  0  0  0  0
   39.1650   33.0980   43.8410 N   0  0  0  0  0  0  0  0  0  0  0  0
   38.0150   32.5070   44.2830 C   0  0  0  0  0  0  0  0  0  0  0  0
   37.9090   32.1640   45.5650 N   0  0  0  0  0  0  0  0  0  0  0  0
   36.9130   32.2530   43.3570 C   0  0  0  0  0  0  0  0  0  0  0  0
   36.7540   33.0270   42.2260 C   0  0  0  0  0  0  0  0  0  0  0  0
   35.6980   32.7770   41.3480 C   0  0  0  0  0  0  0  0  0  0  0  0
   34.8270   31.7520   41.6290 C   0  0  0  0  0  0  0  0  0  0  0  0
   34.9580   30.9660   42.7420 C   0  0  0  0  0  0  0  0  0  0  0  0
   36.0190   31.2180   43.6230 C   0  0  0  0  0  0  0  0  0  0  0  0
   38.8810   32.0650   47.7770 O   0  0  0  0  0  0  0  0  0  0  0  0
   37.6630   31.8480   48.3810 C   0  0  0  0  0  0  0  0  0  0  0  0
   37.9670   30.7140   49.0310 C   0  0  0  0  0  0  0  0  0  0  0  0
   38.1810   30.7850   50.5090 C   0  0  0  0  0  0  0  0  0  0  0  0
   37.0710   29.7260   51.4270 S   0  0  0  0  0  0  0  0  0  0  0  0
   40.8909   33.1611   46.7393 H   0  0  0  0  0  0  0  0  0  0  0  0
   41.1373   33.8246   44.3264 H   0  0  0  0  0  0  0  0  0  0  0  0
   37.4610   33.8430   42.0157 H   0  0  0  0  0  0  0  0  0  0  0  0
   35.5651   33.3911   40.4451 H   0  0  0  0  0  0  0  0  0  0  0  0
   33.9958   31.5564   40.9356 H   0  0  0  0  0  0  0  0  0  0  0  0
   34.2448   30.1526   42.9412 H   0  0  0  0  0  0  0  0  0  0  0  0
   36.1456   30.5991   44.5235 H   0  0  0  0  0  0  0  0  0  0  0  0
   37.3905   32.6611   49.0699 H   0  0  0  0  0  0  0  0  0  0  0  0
   36.7958   31.7960   47.7062 H   0  0  0  0  0  0  0  0  0  0  0  0
   37.1445   30.0054   48.8538 H   0  0  0  0  0  0  0  0  0  0  0  0
   38.9471   30.4211   48.6264 H   0  0  0  0  0  0  0  0  0  0  0  0
   39.2156   30.4825   50.7283 H   0  0  0  0  0  0  0  0  0  0  0  0
   37.9811   31.8207   50.8211 H   0  0  0  0  0  0  0  0  0  0  0  0
   37.2673   29.9133   52.7699 H   0  0  0  0  0  0  0  0  0  0  0  0
  1 13  1  0
  2  1  2  0
  3  2  1  0
  4  5  1  0
  4  3  2  0
  5  6  2  0
  6  1  1  0
  7 12  1  0
  7  5  1  0
  8  7  2  0
  9 10  2  0
  9  8  1  0
 10 11  1  0
 11 12  2  0
 13 14  1  0
 14 15  1  0
 15 16  1  0
 16 17  1  0
  2 18  1  0
  3 19  1  0
  8 20  1  0
  9 21  1  0
 10 22  1  0
 11 23  1  0
 12 24  1  0
 14 25  1  0
 14 26  1  0
 15 27  1  0
 15 28  1  0
 16 29  1  0
 16 30  1  0
 17 31  1  0
M  ISO  8  18  14  19  14  20  14  21  14  22  14  23  14  24  14  25   8
M  ISO  6  26   8  27   8  28   8  29   8  30   8  31  11
M  END
>  <minimizedAffinity>  (1) 
-4.20648766

>  <minimizedRMSD>  (1) 
0.815836608

$$$$
