
     RDKit          3D

 27 29  0  0  0  0  0  0  0  0999 V2000
   33.8390   28.7880   48.2730 C   0  0  0  0  0  0  0  0  0  0  0  0
   34.4320   28.4220   49.4400 C   0  0  0  0  0  0  0  0  0  0  0  0
   35.7050   28.7930   49.8180 C   0  0  0  0  0  0  0  0  0  0  0  0
   36.4570   29.5800   48.9990 C   0  0  0  0  0  0  0  0  0  0  0  0
   35.8490   29.9570   47.8000 C   0  0  0  0  0  0  0  0  0  0  0  0
   34.6010   29.5710   47.4690 N   0  0  0  0  0  0  0  0  0  0  0  0
   31.6420   27.6480   48.7040 C   0  0  0  0  0  0  0  0  0  0  0  0
   32.5090   28.3980   47.8790 C   0  0  0  0  0  0  0  0  0  0  0  0
   32.0300   28.7610   46.6390 C   0  0  0  0  0  0  0  0  0  0  0  0
   30.7700   28.3930   46.2640 N   0  0  0  0  0  0  0  0  0  0  0  0
   29.9810   27.6730   47.0980 C   0  0  0  0  0  0  0  0  0  0  0  0
   30.4070   27.2970   48.3160 N   0  0  0  0  0  0  0  0  0  0  0  0
   37.7510   30.0530   49.2080 O   0  0  0  0  0  0  0  0  0  0  0  0
   38.1650   31.3010   48.7660 C   0  0  0  0  0  0  0  0  0  0  0  0
   37.8810   32.3290   49.6730 C   0  0  0  0  0  0  0  0  0  0  0  0
   38.3410   33.5180   49.1200 C   0  0  0  0  0  0  0  0  0  0  0  0
   38.8770   33.1830   47.9270 N   0  0  0  0  0  0  0  0  0  0  0  0
   38.7700   31.8840   47.7280 N   0  0  0  0  0  0  0  0  0  0  0  0
   33.8572   27.7866   50.1298 H   0  0  0  0  0  0  0  0  0  0  0  0
   36.1135   28.4534   50.7812 H   0  0  0  0  0  0  0  0  0  0  0  0
   36.4097   30.5930   47.0992 H   0  0  0  0  0  0  0  0  0  0  0  0
   31.9922   27.3407   49.7005 H   0  0  0  0  0  0  0  0  0  0  0  0
   32.6610   29.3456   45.9533 H   0  0  0  0  0  0  0  0  0  0  0  0
   28.9696   27.3901   46.7709 H   0  0  0  0  0  0  0  0  0  0  0  0
   37.3835   32.2159   50.6475 H   0  0  0  0  0  0  0  0  0  0  0  0
   38.2809   34.5233   49.5624 H   0  0  0  0  0  0  0  0  0  0  0  0
   39.3075   33.8466   47.2673 H   0  0  0  0  0  0  0  0  0  0  0  0
  1  2  2  0
  2  3  1  0
  4 13  1  0
  4  3  2  0
  5  4  1  0
  6  5  2  0
  6  1  1  0
  8  1  1  0
  8  7  2  0
  9  8  1  0
 10  9  2  0
 10 11  1  0
 11 12  2  0
 12  7  1  0
 14 13  1  0
 14 15  1  0
 16 15  2  0
 17 16  1  0
 18 17  1  0
 18 14  2  0
  2 19  1  0
  3 20  1  0
  5 21  1  0
  7 22  1  0
  9 23  1  0
 11 24  1  0
 15 25  1  0
 16 26  1  0
 17 27  1  0
M  ISO  8  19  14  20  14  21  14  22  14  23  14  24  14  25  14  26  14
M  ISO  1  27   9
M  END
>  <minimizedAffinity>  (1) 
-5.28055859

>  <minimizedRMSD>  (1) 
5.25230598

$$$$
