
     RDKit          3D

 23 23  0  0  0  0  0  0  0  0999 V2000
   38.4680   31.9710   47.7220 O   0  0  0  0  0  0  0  0  0  0  0  0
   38.6720   32.3150   46.4080 C   0  0  0  0  0  0  0  0  0  0  0  0
   39.9400   32.8180   46.1960 C   0  0  0  0  0  0  0  0  0  0  0  0
   40.3050   33.2180   44.8940 C   0  0  0  0  0  0  0  0  0  0  0  0
   39.3520   33.0730   43.9150 N   0  0  0  0  0  0  0  0  0  0  0  0
   38.1110   32.5710   44.1680 C   0  0  0  0  0  0  0  0  0  0  0  0
   37.7910   32.2000   45.4090 N   0  0  0  0  0  0  0  0  0  0  0  0
   37.1430   32.4430   43.0850 C   0  0  0  0  0  0  0  0  0  0  0  0
   37.2310   33.1920   42.0670 O   0  0  0  0  0  0  0  0  0  0  0  0
   37.3040   31.3120   48.0450 C   0  0  0  0  0  0  0  0  0  0  0  0
   37.8210   30.4270   48.9100 C   0  0  0  0  0  0  0  0  0  0  0  0
   38.1170   30.8820   50.3010 C   0  0  0  0  0  0  0  0  0  0  0  0
   37.2490   29.9370   51.5430 S   0  0  0  0  0  0  0  0  0  0  0  0
   40.6535   32.9053   47.0286 H   0  0  0  0  0  0  0  0  0  0  0  0
   41.3026   33.6256   44.6733 H   0  0  0  0  0  0  0  0  0  0  0  0
   36.3374   31.6970   43.1518 H   0  0  0  0  0  0  0  0  0  0  0  0
   36.5675   31.9768   48.5201 H   0  0  0  0  0  0  0  0  0  0  0  0
   36.7408   30.8876   47.2008 H   0  0  0  0  0  0  0  0  0  0  0  0
   37.1086   29.5923   48.9857 H   0  0  0  0  0  0  0  0  0  0  0  0
   38.8080   30.1837   48.4897 H   0  0  0  0  0  0  0  0  0  0  0  0
   39.1982   30.7854   50.4789 H   0  0  0  0  0  0  0  0  0  0  0  0
   37.7790   31.9254   50.3851 H   0  0  0  0  0  0  0  0  0  0  0  0
   37.6347   30.3569   52.7887 H   0  0  0  0  0  0  0  0  0  0  0  0
  1 10  1  0
  2  1  1  0
  3  2  2  0
  4  3  1  0
  5  6  1  0
  5  4  2  0
  6  7  2  0
  7  2  1  0
  8  6  1  0
  9  8  2  0
 10 11  1  0
 11 12  1  0
 12 13  1  0
  3 14  1  0
  4 15  1  0
  8 16  1  0
 10 17  1  0
 10 18  1  0
 11 19  1  0
 11 20  1  0
 12 21  1  0
 12 22  1  0
 13 23  1  0
M  ISO  8  14  14  15  14  16   6  17   8  18   8  19   8  20   8  21   8
M  ISO  2  22   8  23  11
M  END
>  <minimizedAffinity>  (1) 
-3.81607032

>  <minimizedRMSD>  (1) 
0.275036931

$$$$
