
     RDKit          3D

 33 35  0  0  0  0  0  0  0  0999 V2000
   34.0000   28.8190   48.2930 C   0  0  0  0  0  0  0  0  0  0  0  0
   34.6300   28.3610   49.4040 C   0  0  0  0  0  0  0  0  0  0  0  0
   35.8620   28.7920   49.8460 C   0  0  0  0  0  0  0  0  0  0  0  0
   36.5380   29.7480   49.1490 C   0  0  0  0  0  0  0  0  0  0  0  0
   35.8980   30.2300   47.9990 C   0  0  0  0  0  0  0  0  0  0  0  0
   34.6920   29.7780   47.6060 N   0  0  0  0  0  0  0  0  0  0  0  0
   31.9040   27.4990   48.5550 C   0  0  0  0  0  0  0  0  0  0  0  0
   32.7240   28.3730   47.8250 C   0  0  0  0  0  0  0  0  0  0  0  0
   32.2530   28.7890   46.6100 C   0  0  0  0  0  0  0  0  0  0  0  0
   31.0350   28.3500   46.1640 N   0  0  0  0  0  0  0  0  0  0  0  0
   30.2810   27.5000   46.9180 C   0  0  0  0  0  0  0  0  0  0  0  0
   30.7060   27.0630   48.1260 N   0  0  0  0  0  0  0  0  0  0  0  0
   37.7800   30.3000   49.4420 O   0  0  0  0  0  0  0  0  0  0  0  0
   38.3670   31.2590   48.6380 C   0  0  0  0  0  0  0  0  0  0  0  0
   38.4450   32.5200   49.2270 C   0  0  0  0  0  0  0  0  0  0  0  0
   39.0530   33.3680   48.3040 C   0  0  0  0  0  0  0  0  0  0  0  0
   39.3160   32.6250   47.2200 N   0  0  0  0  0  0  0  0  0  0  0  0
   38.9150   31.3940   47.4160 N   0  0  0  0  0  0  0  0  0  0  0  0
   39.9500   33.1110   46.0100 C   0  0  0  0  0  0  0  0  0  0  0  0
   40.6800   31.9430   45.3870 C   0  0  0  0  0  0  0  0  0  0  0  0
   34.1190   27.5877   49.9963 H   0  0  0  0  0  0  0  0  0  0  0  0
   36.2992   28.3648   50.7605 H   0  0  0  0  0  0  0  0  0  0  0  0
   36.3977   31.0035   47.3973 H   0  0  0  0  0  0  0  0  0  0  0  0
   32.2617   27.1502   49.5350 H   0  0  0  0  0  0  0  0  0  0  0  0
   32.8515   29.4748   45.9924 H   0  0  0  0  0  0  0  0  0  0  0  0
   29.3063   27.1623   46.5360 H   0  0  0  0  0  0  0  0  0  0  0  0
   38.0925   32.7941   50.2323 H   0  0  0  0  0  0  0  0  0  0  0  0
   39.2738   34.4372   48.4384 H   0  0  0  0  0  0  0  0  0  0  0  0
   39.1894   33.4945   45.3140 H   0  0  0  0  0  0  0  0  0  0  0  0
   40.6474   33.9308   46.2371 H   0  0  0  0  0  0  0  0  0  0  0  0
   41.0836   31.2973   46.1808 H   0  0  0  0  0  0  0  0  0  0  0  0
   39.9822   31.3649   44.7634 H   0  0  0  0  0  0  0  0  0  0  0  0
   41.5054   32.3169   44.7634 H   0  0  0  0  0  0  0  0  0  0  0  0
  1  2  2  0
  2  3  1  0
  4 13  1  0
  4  3  2  0
  5  4  1  0
  6  5  2  0
  6  1  1  0
  8  1  1  0
  8  7  2  0
  9  8  1  0
 10  9  2  0
 10 11  1  0
 11 12  2  0
 12  7  1  0
 14 15  1  0
 14 13  1  0
 16 15  2  0
 17 18  1  0
 17 16  1  0
 18 14  2  0
 19 17  1  0
 20 19  1  0
  2 21  1  0
  3 22  1  0
  5 23  1  0
  7 24  1  0
  9 25  1  0
 11 26  1  0
 15 27  1  0
 16 28  1  0
 19 29  1  0
 19 30  1  0
 20 31  1  0
 20 32  1  0
 20 33  1  0
M  ISO  8  21  14  22  14  23  14  24  14  25  14  26  14  27  14  28  14
M  ISO  5  29   8  30   8  31   8  32   8  33   8
M  END
>  <minimizedAffinity>  (1) 
-5.51128674

>  <minimizedRMSD>  (1) 
0.671750546

$$$$
