
     RDKit          3D

 41 43  0  0  0  0  0  0  0  0999 V2000
   38.3640   31.5930   48.8380 C   0  0  0  0  0  0  0  0  0  0  0  0
   38.5430   32.8630   49.3750 C   0  0  0  0  0  0  0  0  0  0  0  0
   39.1850   33.6320   48.4050 C   0  0  0  0  0  0  0  0  0  0  0  0
   39.3710   32.8440   47.3510 N   0  0  0  0  0  0  0  0  0  0  0  0
   38.8900   31.6480   47.6030 N   0  0  0  0  0  0  0  0  0  0  0  0
   40.0080   33.2240   46.0980 C   0  0  0  0  0  0  0  0  0  0  0  0
   40.6250   31.9640   45.5150 C   0  0  0  0  0  0  0  0  0  0  0  0
   40.4620   31.8670   44.1000 N   0  0  0  0  0  0  0  0  0  0  0  0
   39.1200   30.7890   43.7990 S   0  0  0  0  0  0  0  0  0  0  0  0
   37.8180   31.5260   43.9270 O   0  0  0  0  0  0  0  0  0  0  0  0
   39.1040   29.6440   44.7640 O   0  0  0  0  0  0  0  0  0  0  0  0
   39.2270   30.2480   42.2000 O   0  0  0  0  0  0  0  0  0  0  0  0
   37.7320   30.7100   49.6950 O   0  0  0  0  0  0  0  0  0  0  0  0
   34.1440   28.9150   48.4160 C   0  0  0  0  0  0  0  0  0  0  0  0
   34.8810   28.3800   49.4220 C   0  0  0  0  0  0  0  0  0  0  0  0
   36.0580   28.9090   49.8920 C   0  0  0  0  0  0  0  0  0  0  0  0
   36.5680   30.0480   49.3460 C   0  0  0  0  0  0  0  0  0  0  0  0
   35.8130   30.6100   48.3040 C   0  0  0  0  0  0  0  0  0  0  0  0
   34.6690   30.0610   47.8770 N   0  0  0  0  0  0  0  0  0  0  0  0
   32.0420   27.6140   48.6790 C   0  0  0  0  0  0  0  0  0  0  0  0
   32.9150   28.3900   47.9040 C   0  0  0  0  0  0  0  0  0  0  0  0
   32.5370   28.6310   46.6110 C   0  0  0  0  0  0  0  0  0  0  0  0
   31.3590   28.1200   46.1440 N   0  0  0  0  0  0  0  0  0  0  0  0
   30.5510   27.3750   46.9350 C   0  0  0  0  0  0  0  0  0  0  0  0
   30.8810   27.1110   48.2170 N   0  0  0  0  0  0  0  0  0  0  0  0
   38.2359   33.1981   50.3767 H   0  0  0  0  0  0  0  0  0  0  0  0
   39.4806   34.6877   48.4949 H   0  0  0  0  0  0  0  0  0  0  0  0
   39.2606   33.6352   45.4035 H   0  0  0  0  0  0  0  0  0  0  0  0
   40.7738   33.9959   46.2646 H   0  0  0  0  0  0  0  0  0  0  0  0
   41.7007   31.9615   45.7450 H   0  0  0  0  0  0  0  0  0  0  0  0
   40.1070   31.1047   45.9658 H   0  0  0  0  0  0  0  0  0  0  0  0
   40.2619   32.7967   43.7044 H   0  0  0  0  0  0  0  0  0  0  0  0
   37.6011   31.6488   44.8851 H   0  0  0  0  0  0  0  0  0  0  0  0
   39.1089   29.9931   45.6904 H   0  0  0  0  0  0  0  0  0  0  0  0
   39.4191   29.2768   42.1924 H   0  0  0  0  0  0  0  0  0  0  0  0
   34.5098   27.4583   49.8939 H   0  0  0  0  0  0  0  0  0  0  0  0
   36.5920   28.4100   50.7141 H   0  0  0  0  0  0  0  0  0  0  0  0
   36.1732   31.5313   47.8229 H   0  0  0  0  0  0  0  0  0  0  0  0
   32.3205   27.4042   49.7223 H   0  0  0  0  0  0  0  0  0  0  0  0
   33.1785   29.2332   45.9508 H   0  0  0  0  0  0  0  0  0  0  0  0
   29.6100   26.9783   46.5261 H   0  0  0  0  0  0  0  0  0  0  0  0
  1  2  1  0
  1 13  1  0
  3  2  2  0
  4  5  1  0
  4  3  1  0
  5  1  2  0
  6  4  1  0
  7  6  1  0
  8  7  1  0
  9 10  1  0
  9  8  1  0
  9 11  1  0
 12  9  1  0
 14 15  2  0
 15 16  1  0
 17 13  1  0
 17 16  2  0
 18 17  1  0
 19 18  2  0
 19 14  1  0
 21 14  1  0
 21 20  2  0
 22 21  1  0
 23 22  2  0
 23 24  1  0
 24 25  2  0
 25 20  1  0
  2 26  1  0
  3 27  1  0
  6 28  1  0
  6 29  1  0
  7 30  1  0
  7 31  1  0
  8 32  1  0
 10 33  1  0
 11 34  1  0
 12 35  1  0
 15 36  1  0
 16 37  1  0
 18 38  1  0
 20 39  1  0
 22 40  1  0
 24 41  1  0
M  ISO  8  26  14  27  14  28   8  29   8  30   8  31   8  32   5  33   3
M  ISO  8  34   3  35   3  36  14  37  14  38  14  39  14  40  14  41  14
M  END
>  <minimizedAffinity>  (1) 
-5.62984514

>  <minimizedRMSD>  (1) 
1.04424131

$$$$
