
     RDKit          3D

 28 29  0  0  0  0  0  0  0  0999 V2000
   37.1100   29.6190   51.2350 Br  0  0  0  0  0  0  0  0  0  0  0  0
   35.9930   29.3490   49.7200 C   0  0  0  0  0  0  0  0  0  0  0  0
   36.1330   30.1190   48.5860 C   0  0  0  0  0  0  0  0  0  0  0  0
   35.2830   29.8610   47.5270 C   0  0  0  0  0  0  0  0  0  0  0  0
   34.3100   28.8760   47.5570 C   0  0  0  0  0  0  0  0  0  0  0  0
   34.1950   28.1260   48.6980 C   0  0  0  0  0  0  0  0  0  0  0  0
   35.0400   28.3680   49.7760 C   0  0  0  0  0  0  0  0  0  0  0  0
   37.9740   33.1590   49.3990 C   0  0  0  0  0  0  0  0  0  0  0  0
   39.0290   33.1860   48.4480 C   0  0  0  0  0  0  0  0  0  0  0  0
   39.0780   32.1410   47.5400 C   0  0  0  0  0  0  0  0  0  0  0  0
   38.1340   31.1440   47.5880 N   0  0  0  0  0  0  0  0  0  0  0  0
   37.1460   31.1660   48.5170 C   0  0  0  0  0  0  0  0  0  0  0  0
   37.0680   32.1770   49.4240 N   0  0  0  0  0  0  0  0  0  0  0  0
   33.5080   28.7330   46.3780 N   0  0  0  0  0  0  0  0  0  0  0  0
   32.3480   29.8970   45.8490 S   0  0  0  0  0  0  0  0  0  0  0  0
   32.2770   29.9040   44.3630 O   0  0  0  0  0  0  0  0  0  0  0  0
   30.9880   29.4600   46.3720 O   0  0  0  0  0  0  0  0  0  0  0  0
   32.6260   31.4190   46.5010 O   0  0  0  0  0  0  0  0  0  0  0  0
   35.3844   30.4681   46.6153 H   0  0  0  0  0  0  0  0  0  0  0  0
   33.4351   27.3332   48.7614 H   0  0  0  0  0  0  0  0  0  0  0  0
   34.9408   27.7613   50.6882 H   0  0  0  0  0  0  0  0  0  0  0  0
   37.9006   33.9711   50.1373 H   0  0  0  0  0  0  0  0  0  0  0  0
   39.7713   33.9977   48.4334 H   0  0  0  0  0  0  0  0  0  0  0  0
   39.8729   32.1094   46.7803 H   0  0  0  0  0  0  0  0  0  0  0  0
   33.6314   27.8823   45.8106 H   0  0  0  0  0  0  0  0  0  0  0  0
   31.3334   29.9970   44.0781 H   0  0  0  0  0  0  0  0  0  0  0  0
   30.9985   29.4634   47.3619 H   0  0  0  0  0  0  0  0  0  0  0  0
   32.6155   31.3616   47.4893 H   0  0  0  0  0  0  0  0  0  0  0  0
  2  7  2  0
  2  1  1  0
  3  2  1  0
  4  5  1  0
  4  3  2  0
  5  6  2  0
  6  7  1  0
  8 13  2  0
  9  8  1  0
 10 11  1  0
 10  9  2  0
 11 12  2  0
 12  3  1  0
 12 13  1  0
 14  5  1  0
 15 17  1  0
 15 14  1  0
 15 18  1  0
 16 15  1  0
  4 19  1  0
  6 20  1  0
  7 21  1  0
  8 22  1  0
  9 23  1  0
 10 24  1  0
 14 25  1  0
 16 26  1  0
 17 27  1  0
 18 28  1  0
M  ISO  8  19  14  20  14  21  14  22  14  23  14  24  14  26   3  27   3
M  ISO  1  28   3
M  END
>  <minimizedAffinity>  (1) 
-5.98516417

>  <minimizedRMSD>  (1) 
1.06874049

$$$$
