
     RDKit          3D

 22 23  0  0  0  0  0  0  0  0999 V2000
   37.2790   29.3290   51.0380 Br  0  0  0  0  0  0  0  0  0  0  0  0
   35.9560   29.3190   49.6720 C   0  0  0  0  0  0  0  0  0  0  0  0
   35.9900   30.2330   48.6400 C   0  0  0  0  0  0  0  0  0  0  0  0
   34.9880   30.1600   47.6820 C   0  0  0  0  0  0  0  0  0  0  0  0
   33.9720   29.2250   47.7170 C   0  0  0  0  0  0  0  0  0  0  0  0
   33.9700   28.3270   48.7650 C   0  0  0  0  0  0  0  0  0  0  0  0
   34.9570   28.3850   49.7240 C   0  0  0  0  0  0  0  0  0  0  0  0
   37.9790   33.1760   49.4490 C   0  0  0  0  0  0  0  0  0  0  0  0
   39.0170   33.1730   48.4810 C   0  0  0  0  0  0  0  0  0  0  0  0
   39.0010   32.1360   47.5580 C   0  0  0  0  0  0  0  0  0  0  0  0
   38.0160   31.1850   47.6150 N   0  0  0  0  0  0  0  0  0  0  0  0
   37.0390   31.2320   48.5650 C   0  0  0  0  0  0  0  0  0  0  0  0
   37.0400   32.2270   49.4650 N   0  0  0  0  0  0  0  0  0  0  0  0
   32.9470   29.2080   46.6700 C   0  0  0  0  0  0  0  0  0  0  0  0
   32.6200   30.3550   46.2310 O   0  0  0  0  0  0  0  0  0  0  0  0
   35.0040   30.8832   46.8533 H   0  0  0  0  0  0  0  0  0  0  0  0
   33.1800   27.5647   48.8344 H   0  0  0  0  0  0  0  0  0  0  0  0
   34.9419   27.6621   50.5529 H   0  0  0  0  0  0  0  0  0  0  0  0
   37.9475   33.9772   50.2020 H   0  0  0  0  0  0  0  0  0  0  0  0
   39.7937   33.9517   48.4630 H   0  0  0  0  0  0  0  0  0  0  0  0
   39.7782   32.0778   46.7817 H   0  0  0  0  0  0  0  0  0  0  0  0
   32.4968   28.2774   46.2942 H   0  0  0  0  0  0  0  0  0  0  0  0
  2  7  2  0
  2  1  1  0
  3  2  1  0
  4  5  1  0
  4  3  2  0
  5  6  2  0
  6  7  1  0
  8 13  2  0
  9  8  1  0
 10 11  1  0
 10  9  2  0
 11 12  2  0
 12  3  1  0
 12 13  1  0
 14  5  1  0
 15 14  2  0
  4 16  1  0
  6 17  1  0
  7 18  1  0
  8 19  1  0
  9 20  1  0
 10 21  1  0
 14 22  1  0
M  ISO  7  16  14  17  14  18  14  19  14  20  14  21  14  22   6
M  END
>  <minimizedAffinity>  (1) 
-5.48299599

>  <minimizedRMSD>  (1) 
0.283050984

$$$$
