
     RDKit          3D

 28 30  0  0  0  0  0  0  0  0999 V2000
   37.3100   29.3330   51.0290 Br  0  0  0  0  0  0  0  0  0  0  0  0
   35.9640   29.3290   49.6790 C   0  0  0  0  0  0  0  0  0  0  0  0
   35.9930   30.2550   48.6390 C   0  0  0  0  0  0  0  0  0  0  0  0
   34.9890   30.1940   47.7020 C   0  0  0  0  0  0  0  0  0  0  0  0
   33.9660   29.2660   47.7460 C   0  0  0  0  0  0  0  0  0  0  0  0
   33.9630   28.3690   48.7800 C   0  0  0  0  0  0  0  0  0  0  0  0
   34.9590   28.4100   49.7320 C   0  0  0  0  0  0  0  0  0  0  0  0
   37.9920   33.1940   49.4620 C   0  0  0  0  0  0  0  0  0  0  0  0
   39.0230   33.1740   48.4730 C   0  0  0  0  0  0  0  0  0  0  0  0
   39.0070   32.1470   47.5440 C   0  0  0  0  0  0  0  0  0  0  0  0
   38.0140   31.2080   47.6140 N   0  0  0  0  0  0  0  0  0  0  0  0
   37.0520   31.2510   48.5590 C   0  0  0  0  0  0  0  0  0  0  0  0
   37.0470   32.2510   49.4830 N   0  0  0  0  0  0  0  0  0  0  0  0
   32.9030   29.2000   46.7560 C   0  0  0  0  0  0  0  0  0  0  0  0
   32.2640   28.0420   46.3650 C   0  0  0  0  0  0  0  0  0  0  0  0
   31.2540   28.0280   45.4160 C   0  0  0  0  0  0  0  0  0  0  0  0
   30.8700   29.1750   44.8450 N   0  0  0  0  0  0  0  0  0  0  0  0
   31.4860   30.3140   45.2170 C   0  0  0  0  0  0  0  0  0  0  0  0
   32.4590   30.3080   46.1350 N   0  0  0  0  0  0  0  0  0  0  0  0
   35.0005   30.9202   46.8759 H   0  0  0  0  0  0  0  0  0  0  0  0
   33.1653   27.6150   48.8512 H   0  0  0  0  0  0  0  0  0  0  0  0
   34.9422   27.6818   50.5562 H   0  0  0  0  0  0  0  0  0  0  0  0
   37.9766   33.9957   50.2150 H   0  0  0  0  0  0  0  0  0  0  0  0
   39.8036   33.9487   48.4502 H   0  0  0  0  0  0  0  0  0  0  0  0
   39.7794   32.0871   46.7631 H   0  0  0  0  0  0  0  0  0  0  0  0
   32.5685   27.0904   46.8253 H   0  0  0  0  0  0  0  0  0  0  0  0
   30.7716   27.0804   45.1344 H   0  0  0  0  0  0  0  0  0  0  0  0
   31.1833   31.2664   44.7574 H   0  0  0  0  0  0  0  0  0  0  0  0
  2  7  2  0
  2  1  1  0
  3  2  1  0
  4  5  1  0
  4  3  2  0
  5  6  2  0
  6  7  1  0
  8 13  2  0
  9  8  1  0
 10 11  1  0
 10  9  2  0
 11 12  2  0
 12  3  1  0
 12 13  1  0
 14  5  1  0
 15 14  2  0
 16 15  1  0
 17 18  1  0
 17 16  2  0
 18 19  2  0
 19 14  1  0
  4 20  1  0
  6 21  1  0
  7 22  1  0
  8 23  1  0
  9 24  1  0
 10 25  1  0
 15 26  1  0
 16 27  1  0
 18 28  1  0
M  ISO  8  20  14  21  14  22  14  23  14  24  14  25  14  26  14  27  14
M  ISO  1  28  14
M  END
>  <minimizedAffinity>  (1) 
-5.89594316

>  <minimizedRMSD>  (1) 
0.16248183

$$$$
