
     RDKit          3D

 36 39  0  0  0  0  0  0  0  0999 V2000
   37.4140   29.1650   50.8030 Br  0  0  0  0  0  0  0  0  0  0  0  0
   35.9980   29.2710   49.5290 C   0  0  0  0  0  0  0  0  0  0  0  0
   35.9990   30.2760   48.5670 C   0  0  0  0  0  0  0  0  0  0  0  0
   34.9410   30.2950   47.6730 C   0  0  0  0  0  0  0  0  0  0  0  0
   33.9070   29.3790   47.6940 C   0  0  0  0  0  0  0  0  0  0  0  0
   33.9490   28.4070   48.6610 C   0  0  0  0  0  0  0  0  0  0  0  0
   34.9880   28.3660   49.5600 C   0  0  0  0  0  0  0  0  0  0  0  0
   38.0080   33.1810   49.4650 C   0  0  0  0  0  0  0  0  0  0  0  0
   39.0410   33.1810   48.4710 C   0  0  0  0  0  0  0  0  0  0  0  0
   39.0170   32.1710   47.5110 C   0  0  0  0  0  0  0  0  0  0  0  0
   38.0200   31.2360   47.5580 N   0  0  0  0  0  0  0  0  0  0  0  0
   37.0650   31.2630   48.5030 C   0  0  0  0  0  0  0  0  0  0  0  0
   37.0730   32.2350   49.4420 N   0  0  0  0  0  0  0  0  0  0  0  0
   32.8050   29.4000   46.7610 C   0  0  0  0  0  0  0  0  0  0  0  0
   31.9860   28.3360   46.4840 C   0  0  0  0  0  0  0  0  0  0  0  0
   30.9380   28.3900   45.5850 C   0  0  0  0  0  0  0  0  0  0  0  0
   30.6960   29.5460   44.9370 N   0  0  0  0  0  0  0  0  0  0  0  0
   31.4910   30.6020   45.1980 C   0  0  0  0  0  0  0  0  0  0  0  0
   32.4880   30.5100   46.0710 N   0  0  0  0  0  0  0  0  0  0  0  0
   31.2460   31.8630   44.5090 C   0  0  0  0  0  0  0  0  0  0  0  0
   30.4970   31.8970   43.3510 C   0  0  0  0  0  0  0  0  0  0  0  0
   30.2620   33.0890   42.6940 C   0  0  0  0  0  0  0  0  0  0  0  0
   30.7700   34.2390   43.1870 N   0  0  0  0  0  0  0  0  0  0  0  0
   31.5100   34.2180   44.3280 C   0  0  0  0  0  0  0  0  0  0  0  0
   31.7290   33.0340   44.9610 N   0  0  0  0  0  0  0  0  0  0  0  0
   34.9232   31.0821   46.9048 H   0  0  0  0  0  0  0  0  0  0  0  0
   33.1469   27.6563   48.7173 H   0  0  0  0  0  0  0  0  0  0  0  0
   35.0008   27.5769   50.3263 H   0  0  0  0  0  0  0  0  0  0  0  0
   37.9886   33.9589   50.2424 H   0  0  0  0  0  0  0  0  0  0  0  0
   39.8257   33.9518   48.4662 H   0  0  0  0  0  0  0  0  0  0  0  0
   39.7880   32.1265   46.7277 H   0  0  0  0  0  0  0  0  0  0  0  0
   32.1736   27.3864   47.0065 H   0  0  0  0  0  0  0  0  0  0  0  0
   30.3121   27.5042   45.4016 H   0  0  0  0  0  0  0  0  0  0  0  0
   30.0815   30.9626   42.9456 H   0  0  0  0  0  0  0  0  0  0  0  0
   29.6627   33.1015   41.7717 H   0  0  0  0  0  0  0  0  0  0  0  0
   31.9278   35.1504   44.7354 H   0  0  0  0  0  0  0  0  0  0  0  0
  2  7  2  0
  2  1  1  0
  3  2  1  0
  4  5  1  0
  4  3  2  0
  5  6  2  0
  6  7  1  0
  9  8  2  0
 10 11  2  0
 10  9  1  0
 11 12  1  0
 12  3  1  0
 12 13  2  0
 13  8  1  0
 14  5  1  0
 15 14  2  0
 16 15  1  0
 17 18  1  0
 17 16  2  0
 18 19  2  0
 19 14  1  0
 20 25  1  0
 20 18  1  0
 21 20  2  0
 22 23  2  0
 22 21  1  0
 23 24  1  0
 24 25  2  0
  4 26  1  0
  6 27  1  0
  7 28  1  0
  8 29  1  0
  9 30  1  0
 10 31  1  0
 15 32  1  0
 16 33  1  0
 21 34  1  0
 22 35  1  0
 24 36  1  0
M  ISO  8  26  14  27  14  28  14  29  14  30  14  31  14  32  14  33  14
M  ISO  3  34  14  35  14  36  14
M  END
>  <minimizedAffinity>  (1) 
-6.65045547

>  <minimizedRMSD>  (1) 
0.395013988

$$$$
