
     RDKit          3D

 29 31  0  0  0  0  0  0  0  0999 V2000
   37.3170   29.3390   51.0290 Br  0  0  0  0  0  0  0  0  0  0  0  0
   35.9640   29.3270   49.6840 C   0  0  0  0  0  0  0  0  0  0  0  0
   35.9970   30.2560   48.6560 C   0  0  0  0  0  0  0  0  0  0  0  0
   34.9900   30.2010   47.7080 C   0  0  0  0  0  0  0  0  0  0  0  0
   33.9730   29.2790   47.7380 C   0  0  0  0  0  0  0  0  0  0  0  0
   33.9690   28.3730   48.7680 C   0  0  0  0  0  0  0  0  0  0  0  0
   34.9680   28.4130   49.7250 C   0  0  0  0  0  0  0  0  0  0  0  0
   37.9930   33.1970   49.4650 C   0  0  0  0  0  0  0  0  0  0  0  0
   39.0190   33.1870   48.4850 C   0  0  0  0  0  0  0  0  0  0  0  0
   39.0060   32.1670   47.5630 C   0  0  0  0  0  0  0  0  0  0  0  0
   38.0190   31.2150   47.6220 N   0  0  0  0  0  0  0  0  0  0  0  0
   37.0520   31.2570   48.5760 C   0  0  0  0  0  0  0  0  0  0  0  0
   37.0500   32.2530   49.4900 N   0  0  0  0  0  0  0  0  0  0  0  0
   32.9090   29.2000   46.7590 C   0  0  0  0  0  0  0  0  0  0  0  0
   32.2680   28.0480   46.3600 C   0  0  0  0  0  0  0  0  0  0  0  0
   31.2510   28.0450   45.4120 C   0  0  0  0  0  0  0  0  0  0  0  0
   30.8670   29.2040   44.8550 N   0  0  0  0  0  0  0  0  0  0  0  0
   31.4840   30.3390   45.2340 C   0  0  0  0  0  0  0  0  0  0  0  0
   32.4600   30.3240   46.1480 N   0  0  0  0  0  0  0  0  0  0  0  0
   31.1810   31.6050   44.7340 O   0  0  0  0  0  0  0  0  0  0  0  0
   35.0053   30.9340   46.8880 H   0  0  0  0  0  0  0  0  0  0  0  0
   33.1734   27.6162   48.8332 H   0  0  0  0  0  0  0  0  0  0  0  0
   34.9514   27.6789   50.5441 H   0  0  0  0  0  0  0  0  0  0  0  0
   37.9745   33.9981   50.2185 H   0  0  0  0  0  0  0  0  0  0  0  0
   39.7955   33.9658   48.4636 H   0  0  0  0  0  0  0  0  0  0  0  0
   39.7808   32.1143   46.7840 H   0  0  0  0  0  0  0  0  0  0  0  0
   32.5731   27.0916   46.8096 H   0  0  0  0  0  0  0  0  0  0  0  0
   30.7657   27.1016   45.1213 H   0  0  0  0  0  0  0  0  0  0  0  0
   31.6771   32.3975   45.0594 H   0  0  0  0  0  0  0  0  0  0  0  0
  2  7  2  0
  2  1  1  0
  3  2  1  0
  4  5  1  0
  4  3  2  0
  5  6  2  0
  6  7  1  0
  8 13  2  0
  9  8  1  0
 10 11  1  0
 10  9  2  0
 11 12  2  0
 12  3  1  0
 12 13  1  0
 14  5  1  0
 15 14  2  0
 16 15  1  0
 17 18  1  0
 17 16  2  0
 18 19  2  0
 19 14  1  0
 20 18  1  0
  4 21  1  0
  6 22  1  0
  7 23  1  0
  8 24  1  0
  9 25  1  0
 10 26  1  0
 15 27  1  0
 16 28  1  0
 20 29  1  0
M  ISO  8  21  14  22  14  23  14  24  14  25  14  26  14  27  14  28  14
M  ISO  1  29   3
M  END
>  <minimizedAffinity>  (1) 
-6.02970362

>  <minimizedRMSD>  (1) 
0.0155343451

$$$$
