
     RDKit          3D

 37 39  0  0  1  0  0  0  0  0999 V2000
   47.6680   29.3170   47.7730 C   0  0  1  0  0  0  0  0  0  0  0  0
   47.6170   28.3260   46.6500 C   0  0  0  0  0  0  0  0  0  0  0  0
   48.8920   27.5850   46.4010 C   0  0  0  0  0  0  0  0  0  0  0  0
   49.5850   27.1520   47.6750 C   0  0  0  0  0  0  0  0  0  0  0  0
   49.6040   28.2330   48.7330 C   0  0  0  0  0  0  0  0  0  0  0  0
   49.1560   29.5480   48.0940 C   0  0  2  0  0  0  0  0  0  0  0  0
   46.0370   32.7550   46.2400 C   0  0  0  0  0  0  0  0  0  0  0  0
   45.5980   32.4800   47.5310 C   0  0  0  0  0  0  0  0  0  0  0  0
   46.0650   31.3820   48.1310 C   0  0  0  0  0  0  0  0  0  0  0  0
   46.9690   30.5360   47.4790 C   0  0  0  0  0  0  0  0  0  0  0  0
   47.1690   31.3670   45.8890 S   0  0  0  0  0  0  0  0  0  0  0  0
   44.4960   35.8820   44.9290 C   0  0  0  0  0  0  0  0  0  0  0  0
   45.0870   35.9280   43.6530 C   0  0  0  0  0  0  0  0  0  0  0  0
   45.9770   34.9010   43.2980 C   0  0  0  0  0  0  0  0  0  0  0  0
   46.2070   33.9250   44.2150 N   0  0  0  0  0  0  0  0  0  0  0  0
   45.6240   33.9180   45.4240 C   0  0  0  0  0  0  0  0  0  0  0  0
   44.7620   34.8980   45.7900 N   0  0  0  0  0  0  0  0  0  0  0  0
   49.2280   30.6020   49.1540 C   0  0  0  0  0  0  0  0  0  0  0  0
   49.1180   30.3750   50.3700 O   0  0  0  0  0  0  0  0  0  0  0  0
   49.4270   32.0020   49.0080 N   0  0  0  0  0  0  0  0  0  0  0  0
   47.1422   28.9182   48.6531 H   0  0  0  0  0  0  0  0  0  0  0  0
   46.8338   27.5890   46.8809 H   0  0  0  0  0  0  0  0  0  0  0  0
   47.4161   28.9064   45.7374 H   0  0  0  0  0  0  0  0  0  0  0  0
   48.6656   26.6894   45.8037 H   0  0  0  0  0  0  0  0  0  0  0  0
   49.5723   28.2701   45.8739 H   0  0  0  0  0  0  0  0  0  0  0  0
   49.0592   26.2746   48.0795 H   0  0  0  0  0  0  0  0  0  0  0  0
   50.6300   26.9222   47.4199 H   0  0  0  0  0  0  0  0  0  0  0  0
   48.9174   27.9647   49.5494 H   0  0  0  0  0  0  0  0  0  0  0  0
   50.6192   28.3406   49.1426 H   0  0  0  0  0  0  0  0  0  0  0  0
   49.7532   29.8400   47.2176 H   0  0  0  0  0  0  0  0  0  0  0  0
   44.8878   33.1466   48.0422 H   0  0  0  0  0  0  0  0  0  0  0  0
   45.7345   31.1394   49.1517 H   0  0  0  0  0  0  0  0  0  0  0  0
   43.7965   36.6779   45.2244 H   0  0  0  0  0  0  0  0  0  0  0  0
   44.8585   36.7453   42.9531 H   0  0  0  0  0  0  0  0  0  0  0  0
   46.4694   34.8873   42.3145 H   0  0  0  0  0  0  0  0  0  0  0  0
   49.4536   32.6080   49.8405 H   0  0  0  0  0  0  0  0  0  0  0  0
   49.5446   32.4104   48.0698 H   0  0  0  0  0  0  0  0  0  0  0  0
  1  6  1  0
  2  1  1  0
  3  2  1  0
  3  4  1  0
  4  5  1  0
  6  5  1  0
  6 18  1  0
  7  8  2  0
  8  9  1  0
 10  1  1  0
 10  9  2  0
 11  7  1  0
 11 10  1  0
 12 17  2  0
 13 12  1  0
 14 13  2  0
 14 15  1  0
 15 16  2  0
 16 17  1  0
 16  7  1  0
 18 19  2  0
 20 18  1  0
  1 21  1  1
  2 22  1  0
  2 23  1  0
  3 24  1  0
  3 25  1  0
  4 26  1  0
  4 27  1  0
  5 28  1  0
  5 29  1  0
  6 30  1  6
  8 31  1  0
  9 32  1  0
 12 33  1  0
 13 34  1  0
 14 35  1  0
 20 36  1  0
 20 37  1  0
M  ISO  8  21  13  22  13  23  13  24  13  25  13  26  13  27  13  28  13
M  ISO  7  29  13  30  13  31  14  32  14  33  14  34  14  35  14
M  END
>  <minimizedAffinity>  (1) 
-4.72992134

>  <minimizedRMSD>  (1) 
0.756917119

$$$$
