
     RDKit          3D

 25 26  0  0  0  0  0  0  0  0999 V2000
   44.0670   34.5260   41.2590 C   0  0  0  0  0  0  0  0  0  0  0  0
   42.9040   35.2310   40.9080 C   0  0  0  0  0  0  0  0  0  0  0  0
   42.3490   34.9870   39.6310 C   0  0  0  0  0  0  0  0  0  0  0  0
   42.9810   34.0810   38.8230 N   0  0  0  0  0  0  0  0  0  0  0  0
   44.1000   33.4290   39.2130 C   0  0  0  0  0  0  0  0  0  0  0  0
   44.6450   33.6380   40.4040 N   0  0  0  0  0  0  0  0  0  0  0  0
   44.6290   34.7920   42.6110 C   0  0  0  0  0  0  0  0  0  0  0  0
   46.0840   35.2350   42.5720 C   0  0  0  0  0  0  0  0  0  0  0  0
   44.9850   36.1520   43.0170 C   0  0  0  0  0  0  0  0  0  0  0  0
   41.1290   35.7010   39.2140 C   0  0  0  0  0  0  0  0  0  0  0  0
   40.0530   35.6370   40.2710 C   0  0  0  0  0  0  0  0  0  0  0  0
   38.9980   34.7520   39.7980 N   0  0  0  0  0  0  0  0  0  0  0  0
   42.4413   35.9478   41.6024 H   0  0  0  0  0  0  0  0  0  0  0  0
   44.5689   32.7087   38.5265 H   0  0  0  0  0  0  0  0  0  0  0  0
   44.0184   34.0180   43.0989 H   0  0  0  0  0  0  0  0  0  0  0  0
   46.8055   34.8377   43.3011 H   0  0  0  0  0  0  0  0  0  0  0  0
   46.8799   35.2662   41.8133 H   0  0  0  0  0  0  0  0  0  0  0  0
   44.6955   37.0033   42.3834 H   0  0  0  0  0  0  0  0  0  0  0  0
   44.8070   36.7543   43.9201 H   0  0  0  0  0  0  0  0  0  0  0  0
   41.3803   36.7551   39.0251 H   0  0  0  0  0  0  0  0  0  0  0  0
   40.7438   35.2173   38.3043 H   0  0  0  0  0  0  0  0  0  0  0  0
   40.4751   35.2446   41.2079 H   0  0  0  0  0  0  0  0  0  0  0  0
   39.6477   36.6420   40.4598 H   0  0  0  0  0  0  0  0  0  0  0  0
   38.5075   34.3406   40.6049 H   0  0  0  0  0  0  0  0  0  0  0  0
   38.3296   35.2890   39.2273 H   0  0  0  0  0  0  0  0  0  0  0  0
  1  7  1  0
  2  1  2  0
  3  2  1  0
  4  5  1  0
  4  3  2  0
  5  6  2  0
  6  1  1  0
  7  9  1  0
  8  7  1  0
  8  9  1  0
 10  3  1  0
 10 11  1  0
 12 11  1  0
  2 13  1  0
  5 14  1  0
  7 15  1  0
  8 16  1  0
  8 17  1  0
  9 18  1  0
  9 19  1  0
 10 20  1  0
 10 21  1  0
 11 22  1  0
 11 23  1  0
 12 24  1  0
 12 25  1  0
M  ISO  8  13  14  14  14  15  13  16  13  17  13  18  13  19  13  20   8
M  ISO  5  21   8  22   8  23   8  24   5  25   5
M  END
>  <minimizedAffinity>  (1) 
-3.53344059

>  <minimizedRMSD>  (1) 
0.719153106

$$$$
