
     RDKit          3D

 25 27  0  0  0  0  0  0  0  0999 V2000
   48.0720   34.9690   42.1890 C   0  0  0  0  0  0  0  0  0  0  0  0
   47.0330   34.0870   42.3980 C   0  0  0  0  0  0  0  0  0  0  0  0
   46.5250   33.4440   41.3020 C   0  0  0  0  0  0  0  0  0  0  0  0
   46.9890   33.6300   40.0150 C   0  0  0  0  0  0  0  0  0  0  0  0
   46.6270   33.1000   38.8150 N   0  0  0  0  0  0  0  0  0  0  0  0
   47.4330   33.6480   37.8680 C   0  0  0  0  0  0  0  0  0  0  0  0
   48.2930   34.5190   38.4960 N   0  0  0  0  0  0  0  0  0  0  0  0
   48.0250   34.5110   39.8120 C   0  0  0  0  0  0  0  0  0  0  0  0
   48.5550   35.1690   40.8890 C   0  0  0  0  0  0  0  0  0  0  0  0
   45.2110   34.4230   45.6730 C   0  0  0  0  0  0  0  0  0  0  0  0
   45.5730   34.7250   44.3270 C   0  0  0  0  0  0  0  0  0  0  0  0
   46.5580   33.9060   43.7590 C   0  0  0  0  0  0  0  0  0  0  0  0
   47.0980   32.9090   44.4790 N   0  0  0  0  0  0  0  0  0  0  0  0
   46.7220   32.6550   45.7650 C   0  0  0  0  0  0  0  0  0  0  0  0
   45.7800   33.4200   46.3400 N   0  0  0  0  0  0  0  0  0  0  0  0
   44.2110   35.2410   46.2750 N   0  0  0  0  0  0  0  0  0  0  0  0
   48.5180   35.5112   43.0358 H   0  0  0  0  0  0  0  0  0  0  0  0
   45.6970   32.7363   41.4557 H   0  0  0  0  0  0  0  0  0  0  0  0
   45.8793   32.4101   38.6541 H   0  0  0  0  0  0  0  0  0  0  0  0
   47.4031   33.4331   36.7896 H   0  0  0  0  0  0  0  0  0  0  0  0
   49.3835   35.8747   40.7294 H   0  0  0  0  0  0  0  0  0  0  0  0
   45.1074   35.5505   43.7687 H   0  0  0  0  0  0  0  0  0  0  0  0
   47.1862   31.8308   46.3263 H   0  0  0  0  0  0  0  0  0  0  0  0
   43.7848   36.0111   45.7400 H   0  0  0  0  0  0  0  0  0  0  0  0
   43.9145   35.0620   47.2450 H   0  0  0  0  0  0  0  0  0  0  0  0
  1  2  2  0
  2 12  1  0
  3  2  1  0
  4  3  2  0
  5  4  1  0
  6  7  2  0
  6  5  1  0
  7  8  1  0
  8  4  1  0
  8  9  2  0
  9  1  1  0
 10 16  1  0
 10 15  2  0
 11 10  1  0
 12 11  2  0
 12 13  1  0
 13 14  2  0
 14 15  1  0
  1 17  1  0
  3 18  1  0
  5 19  1  0
  6 20  1  0
  9 21  1  0
 11 22  1  0
 14 23  1  0
 16 24  1  0
 16 25  1  0
M  ISO  7  17  14  18  14  19   9  20  14  21  14  22  14  23  14
M  END
>  <minimizedAffinity>  (1) 
-5.62632084

>  <minimizedRMSD>  (1) 
1.2112931

$$$$
