
     RDKit          3D

 22 23  0  0  0  0  0  0  0  0999 V2000
   44.5170   32.4560   42.0160 Cl  0  0  0  0  0  0  0  0  0  0  0  0
   45.8760   33.4580   41.5930 C   0  0  0  0  0  0  0  0  0  0  0  0
   46.4400   34.3040   42.4960 C   0  0  0  0  0  0  0  0  0  0  0  0
   47.5130   35.0480   42.0430 C   0  0  0  0  0  0  0  0  0  0  0  0
   47.9990   34.9630   40.7790 C   0  0  0  0  0  0  0  0  0  0  0  0
   47.4160   34.0980   39.8720 C   0  0  0  0  0  0  0  0  0  0  0  0
   46.3510   33.3530   40.3040 C   0  0  0  0  0  0  0  0  0  0  0  0
   44.4930   35.3760   45.5510 C   0  0  0  0  0  0  0  0  0  0  0  0
   45.0030   35.3390   44.2500 C   0  0  0  0  0  0  0  0  0  0  0  0
   45.8950   34.3680   43.8350 C   0  0  0  0  0  0  0  0  0  0  0  0
   46.2470   33.4460   44.7800 N   0  0  0  0  0  0  0  0  0  0  0  0
   45.7580   33.4780   46.0310 C   0  0  0  0  0  0  0  0  0  0  0  0
   44.8890   34.4310   46.4210 N   0  0  0  0  0  0  0  0  0  0  0  0
   49.1120   35.7610   40.3770 N   0  0  0  0  0  0  0  0  0  0  0  0
   47.9977   35.7446   42.7428 H   0  0  0  0  0  0  0  0  0  0  0  0
   47.7931   34.0113   38.8423 H   0  0  0  0  0  0  0  0  0  0  0  0
   45.8642   32.6555   39.6065 H   0  0  0  0  0  0  0  0  0  0  0  0
   43.7842   36.1601   45.8557 H   0  0  0  0  0  0  0  0  0  0  0  0
   44.6836   36.1088   43.5321 H   0  0  0  0  0  0  0  0  0  0  0  0
   46.0738   32.7098   46.7522 H   0  0  0  0  0  0  0  0  0  0  0  0
   49.4754   35.6910   39.4158 H   0  0  0  0  0  0  0  0  0  0  0  0
   49.5518   36.4068   41.0481 H   0  0  0  0  0  0  0  0  0  0  0  0
  2  1  1  0
  2  3  2  0
  3 10  1  0
  4  3  1  0
  5  4  2  0
  6  7  2  0
  6  5  1  0
  7  2  1  0
  8 13  2  0
  9  8  1  0
 10  9  2  0
 10 11  1  0
 11 12  2  0
 12 13  1  0
 14  5  1  0
  4 15  1  0
  6 16  1  0
  7 17  1  0
  8 18  1  0
  9 19  1  0
 12 20  1  0
 14 21  1  0
 14 22  1  0
M  ISO  6  15  14  16  14  17  14  18  14  19  14  20  14
M  END
>  <minimizedAffinity>  (1) 
-4.64059401

>  <minimizedRMSD>  (1) 
0.840196729

$$$$
