
     RDKit          3D

 37 39  0  0  0  0  0  0  0  0999 V2000
   43.8100   35.3360   42.4190 C   0  0  0  0  0  0  0  0  0  0  0  0
   42.7470   35.1220   41.5850 C   0  0  0  0  0  0  0  0  0  0  0  0
   42.9890   34.4960   40.3820 C   0  0  0  0  0  0  0  0  0  0  0  0
   44.2430   34.0670   39.9580 C   0  0  0  0  0  0  0  0  0  0  0  0
   45.3020   34.2980   40.8280 C   0  0  0  0  0  0  0  0  0  0  0  0
   45.0700   34.9250   42.0350 C   0  0  0  0  0  0  0  0  0  0  0  0
   41.3720   35.5330   41.9260 C   0  0  0  0  0  0  0  0  0  0  0  0
   39.1310   32.6850   41.1790 C   0  0  0  0  0  0  0  0  0  0  0  0
   38.4420   33.1440   40.0630 C   0  0  0  0  0  0  0  0  0  0  0  0
   38.7550   34.4070   39.5940 C   0  0  0  0  0  0  0  0  0  0  0  0
   39.6980   35.1300   40.2220 N   0  0  0  0  0  0  0  0  0  0  0  0
   40.3540   34.6590   41.3080 C   0  0  0  0  0  0  0  0  0  0  0  0
   40.0580   33.4440   41.7660 N   0  0  0  0  0  0  0  0  0  0  0  0
   43.6220   35.9590   43.6370 O   0  0  0  0  0  0  0  0  0  0  0  0
   46.1560   35.1350   42.8710 O   0  0  0  0  0  0  0  0  0  0  0  0
   47.1930   34.2160   42.8280 C   0  0  0  0  0  0  0  0  0  0  0  0
   46.9510   32.9870   43.4120 C   0  0  0  0  0  0  0  0  0  0  0  0
   47.9490   32.0300   43.3990 C   0  0  0  0  0  0  0  0  0  0  0  0
   49.1840   32.2900   42.8090 C   0  0  0  0  0  0  0  0  0  0  0  0
   49.3740   33.5480   42.2340 C   0  0  0  0  0  0  0  0  0  0  0  0
   48.3960   34.5160   42.2350 C   0  0  0  0  0  0  0  0  0  0  0  0
   48.6390   35.7630   41.6440 N   0  0  0  0  0  0  0  0  0  0  0  0
   42.1339   34.3238   39.7118 H   0  0  0  0  0  0  0  0  0  0  0  0
   44.3883   33.5717   38.9866 H   0  0  0  0  0  0  0  0  0  0  0  0
   46.3200   33.9825   40.5557 H   0  0  0  0  0  0  0  0  0  0  0  0
   41.2529   35.4961   43.0189 H   0  0  0  0  0  0  0  0  0  0  0  0
   41.2202   36.5512   41.5384 H   0  0  0  0  0  0  0  0  0  0  0  0
   38.9099   31.6859   41.5825 H   0  0  0  0  0  0  0  0  0  0  0  0
   37.6764   32.5261   39.5710 H   0  0  0  0  0  0  0  0  0  0  0  0
   38.2365   34.8163   38.7144 H   0  0  0  0  0  0  0  0  0  0  0  0
   44.3930   36.1126   44.2387 H   0  0  0  0  0  0  0  0  0  0  0  0
   45.9788   32.7733   43.8802 H   0  0  0  0  0  0  0  0  0  0  0  0
   47.7651   31.0490   43.8613 H   0  0  0  0  0  0  0  0  0  0  0  0
   49.9806   31.5316   42.7966 H   0  0  0  0  0  0  0  0  0  0  0  0
   50.3418   33.7738   41.7625 H   0  0  0  0  0  0  0  0  0  0  0  0
   47.9051   36.4857   41.6462 H   0  0  0  0  0  0  0  0  0  0  0  0
   49.5515   35.9569   41.2074 H   0  0  0  0  0  0  0  0  0  0  0  0
  1 14  1  0
  2  7  1  0
  2  1  2  0
  3  2  1  0
  4  3  2  0
  4  5  1  0
  5  6  2  0
  6  1  1  0
  6 15  1  0
  8 13  2  0
  9  8  1  0
 10  9  2  0
 10 11  1  0
 11 12  2  0
 12 13  1  0
 12  7  1  0
 16 15  1  0
 16 17  2  0
 18 17  1  0
 19 18  2  0
 20 21  2  0
 20 19  1  0
 21 16  1  0
 22 21  1  0
  3 23  1  0
  4 24  1  0
  5 25  1  0
  7 26  1  0
  7 27  1  0
  8 28  1  0
  9 29  1  0
 10 30  1  0
 14 31  1  0
 17 32  1  0
 18 33  1  0
 19 34  1  0
 20 35  1  0
 22 36  1  0
 22 37  1  0
M  ISO  8  23  14  24  14  25  14  26   8  27   8  28  14  29  14  30  14
M  ISO  5  31   3  32  14  33  14  34  14  35  14
M  END
>  <minimizedAffinity>  (1) 
-6.11983061

>  <minimizedRMSD>  (1) 
0.989655018

$$$$
