
     RDKit          3D

 47 50  0  0  1  0  0  0  0  0999 V2000
   47.1960   34.0470   41.6320 C   0  0  0  0  0  0  0  0  0  0  0  0
   48.0430   35.2040   41.1120 C   0  0  0  0  0  0  0  0  0  0  0  0
   48.6260   33.9930   41.6910 C   0  0  0  0  0  0  0  0  0  0  0  0
   46.4770   33.3230   40.5430 C   0  0  0  0  0  0  0  0  0  0  0  0
   47.0730   33.4930   39.1580 C   0  0  0  0  0  0  0  0  0  0  0  0
   46.2570   32.5800   38.2430 C   0  0  0  0  0  0  0  0  0  0  0  0
   45.0290   33.2160   38.0390 O   0  0  0  0  0  0  0  0  0  0  0  0
   44.3710   33.0060   39.2810 C   0  0  0  0  0  0  0  0  0  0  0  0
   45.0510   33.8620   40.3470 C   0  0  0  0  0  0  0  0  0  0  0  0
   45.8910   35.6130   43.1120 C   0  0  0  0  0  0  0  0  0  0  0  0
   46.3980   34.3440   42.8640 C   0  0  0  0  0  0  0  0  0  0  0  0
   46.1390   33.3500   43.8190 C   0  0  0  0  0  0  0  0  0  0  0  0
   45.4110   33.6620   44.9330 N   0  0  0  0  0  0  0  0  0  0  0  0
   44.9520   34.9060   45.1110 C   0  0  0  0  0  0  0  0  0  0  0  0
   45.1760   35.8660   44.2360 N   0  0  0  0  0  0  0  0  0  0  0  0
   44.1850   35.2860   46.2450 N   0  0  0  0  0  0  0  0  0  0  0  0
   46.6430   32.0110   43.7190 C   0  0  0  0  0  0  0  0  0  0  0  0
   46.0670   30.9990   43.1460 O   0  0  0  0  0  0  0  0  0  0  0  0
   47.7460   31.1410   44.0700 C   0  0  0  0  0  0  0  0  0  0  0  0
   48.8170   30.7860   43.3010 C   0  0  0  0  0  0  0  0  0  0  0  0
   49.7550   29.8450   43.7680 C   0  0  0  0  0  0  0  0  0  0  0  0
   49.6150   29.2640   45.0040 C   0  0  0  0  0  0  0  0  0  0  0  0
   48.5630   29.5710   45.8320 C   0  0  0  0  0  0  0  0  0  0  0  0
   47.6980   30.4970   45.2960 C   0  0  0  0  0  0  0  0  0  0  0  0
   48.1190   35.3979   40.0319 H   0  0  0  0  0  0  0  0  0  0  0  0
   48.1104   36.2857   41.3002 H   0  0  0  0  0  0  0  0  0  0  0  0
   49.1285   34.0496   42.6679 H   0  0  0  0  0  0  0  0  0  0  0  0
   49.3708   33.2667   41.3335 H   0  0  0  0  0  0  0  0  0  0  0  0
   46.5356   32.2792   40.8850 H   0  0  0  0  0  0  0  0  0  0  0  0
   46.9889   34.5395   38.8298 H   0  0  0  0  0  0  0  0  0  0  0  0
   48.1422   33.2350   39.1411 H   0  0  0  0  0  0  0  0  0  0  0  0
   46.7768   32.4410   37.2836 H   0  0  0  0  0  0  0  0  0  0  0  0
   46.1197   31.5859   38.6935 H   0  0  0  0  0  0  0  0  0  0  0  0
   43.3135   33.2956   39.1931 H   0  0  0  0  0  0  0  0  0  0  0  0
   44.4290   31.9437   39.5606 H   0  0  0  0  0  0  0  0  0  0  0  0
   45.0894   34.9105   40.0166 H   0  0  0  0  0  0  0  0  0  0  0  0
   44.4897   33.8165   41.2920 H   0  0  0  0  0  0  0  0  0  0  0  0
   46.0715   36.4218   42.3886 H   0  0  0  0  0  0  0  0  0  0  0  0
   43.8524   36.2562   46.3402 H   0  0  0  0  0  0  0  0  0  0  0  0
   43.9616   34.5913   46.9719 H   0  0  0  0  0  0  0  0  0  0  0  0
   47.1364   32.2676   42.7699 H   0  0  0  0  0  0  0  0  0  0  0  0
   45.7167   30.3835   43.8378 H   0  0  0  0  0  0  0  0  0  0  0  0
   48.9484   31.2393   42.3074 H   0  0  0  0  0  0  0  0  0  0  0  0
   50.6113   29.5719   43.1339 H   0  0  0  0  0  0  0  0  0  0  0  0
   50.3653   28.5332   45.3401 H   0  0  0  0  0  0  0  0  0  0  0  0
   48.4255   29.1207   46.8261 H   0  0  0  0  0  0  0  0  0  0  0  0
   46.8432   30.7654   45.9341 H   0  0  0  0  0  0  0  0  0  0  0  0
  1  3  1  0
  1 11  1  0
  2  1  1  0
  2  3  1  0
  4  1  1  0
  5  4  1  0
  6  5  1  0
  7  6  1  0
  7  8  1  0
  8  9  1  0
  9  4  1  0
 10 15  2  0
 11 10  1  0
 11 12  2  0
 12 13  1  0
 13 14  2  0
 14 16  1  0
 15 14  1  0
 17 18  1  0
 17 12  1  0
 17 19  1  0
 19 24  2  0
 20 21  2  0
 20 19  1  0
 21 22  1  0
 22 23  2  0
 24 23  1  0
  2 25  1  0
  2 26  1  0
  3 27  1  0
  3 28  1  0
  4 29  1  0
  5 30  1  0
  5 31  1  0
  6 32  1  0
  6 33  1  0
  8 34  1  0
  8 35  1  0
  9 36  1  0
  9 37  1  0
 10 38  1  0
 16 39  1  0
 16 40  1  0
 17 41  1  0
 18 42  1  0
 20 43  1  0
 21 44  1  0
 22 45  1  0
 23 46  1  0
 24 47  1  0
M  ISO  8  25  13  26  13  27  13  28  13  29  13  30  13  31  13  32  13
M  ISO  8  33  13  34  13  35  13  36  13  37  13  38  14  41   8  42   3
M  ISO  5  43  14  44  14  45  14  46  14  47  14
M  END
>  <minimizedAffinity>  (1) 
-5.28653574

>  <minimizedRMSD>  (1) 
1.82846987

$$$$
