
     RDKit          3D

 29 31  0  0  0  0  0  0  0  0999 V2000
   46.2900   34.4870   43.6030 C   0  0  0  0  0  0  0  0  0  0  0  0
   47.4230   33.9200   43.1510 C   0  0  0  0  0  0  0  0  0  0  0  0
   47.8040   32.7850   43.8220 C   0  0  0  0  0  0  0  0  0  0  0  0
   47.0300   32.3240   44.8740 N   0  0  0  0  0  0  0  0  0  0  0  0
   45.9100   32.9380   45.2760 C   0  0  0  0  0  0  0  0  0  0  0  0
   45.4950   34.0780   44.6280 N   0  0  0  0  0  0  0  0  0  0  0  0
   48.2360   34.4400   42.1170 C   0  0  0  0  0  0  0  0  0  0  0  0
   48.5740   35.7180   41.7920 C   0  0  0  0  0  0  0  0  0  0  0  0
   49.6980   34.9440   42.4770 C   0  0  0  0  0  0  0  0  0  0  0  0
   45.5400   35.6170   43.0220 C   0  0  0  0  0  0  0  0  0  0  0  0
   45.3270   36.8620   43.0090 O   0  0  0  0  0  0  0  0  0  0  0  0
   44.5860   35.1190   41.9710 C   0  0  0  0  0  0  0  0  0  0  0  0
   43.2260   35.4670   42.0800 C   0  0  0  0  0  0  0  0  0  0  0  0
   42.2110   35.1120   41.2230 C   0  0  0  0  0  0  0  0  0  0  0  0
   42.5420   34.3360   40.1460 C   0  0  0  0  0  0  0  0  0  0  0  0
   43.8860   33.9460   39.9700 C   0  0  0  0  0  0  0  0  0  0  0  0
   44.8530   34.3370   40.8630 C   0  0  0  0  0  0  0  0  0  0  0  0
   48.7163   32.2460   43.5268 H   0  0  0  0  0  0  0  0  0  0  0  0
   45.3271   32.5343   46.1169 H   0  0  0  0  0  0  0  0  0  0  0  0
   47.7286   33.6813   41.5031 H   0  0  0  0  0  0  0  0  0  0  0  0
   48.6830   35.9853   40.7305 H   0  0  0  0  0  0  0  0  0  0  0  0
   48.1016   36.6860   42.0154 H   0  0  0  0  0  0  0  0  0  0  0  0
   49.9887   35.1585   43.5160 H   0  0  0  0  0  0  0  0  0  0  0  0
   50.7404   34.6562   42.2755 H   0  0  0  0  0  0  0  0  0  0  0  0
   42.9456   36.0892   42.9427 H   0  0  0  0  0  0  0  0  0  0  0  0
   41.1750   35.4387   41.3963 H   0  0  0  0  0  0  0  0  0  0  0  0
   41.7710   34.0207   39.4276 H   0  0  0  0  0  0  0  0  0  0  0  0
   44.1626   33.3216   39.1077 H   0  0  0  0  0  0  0  0  0  0  0  0
   45.8894   34.0125   40.6883 H   0  0  0  0  0  0  0  0  0  0  0  0
  1  6  2  0
  2  1  1  0
  2  3  2  0
  3  4  1  0
  4  5  2  0
  6  5  1  0
  7  9  1  0
  7  2  1  0
  8  7  1  0
  8  9  1  0
 10  1  1  0
 11 10  2  0
 12 13  2  0
 12 10  1  0
 14 13  1  0
 15 14  2  0
 16 15  1  0
 16 17  2  0
 17 12  1  0
  3 18  1  0
  5 19  1  0
  7 20  1  0
  8 21  1  0
  8 22  1  0
  9 23  1  0
  9 24  1  0
 13 25  1  0
 14 26  1  0
 15 27  1  0
 16 28  1  0
 17 29  1  0
M  ISO  8  18  14  19  14  20  13  21  13  22  13  23  13  24  13  25  14
M  ISO  4  26  14  27  14  28  14  29  14
M  END
>  <minimizedAffinity>  (1) 
-5.10127354

>  <minimizedRMSD>  (1) 
0.342099339

$$$$
