
     RDKit          3D

 39 41  0  0  0  0  0  0  0  0999 V2000
   44.7760   34.6860   41.9990 C   0  0  0  0  0  0  0  0  0  0  0  0
   46.0860   34.5830   41.5480 C   0  0  0  0  0  0  0  0  0  0  0  0
   47.1060   34.3920   42.4680 C   0  0  0  0  0  0  0  0  0  0  0  0
   46.7600   34.3170   43.7740 N   0  0  0  0  0  0  0  0  0  0  0  0
   45.4880   34.4180   44.2130 C   0  0  0  0  0  0  0  0  0  0  0  0
   44.5220   34.6010   43.3130 N   0  0  0  0  0  0  0  0  0  0  0  0
   45.2200   34.3260   45.6450 C   0  0  0  0  0  0  0  0  0  0  0  0
   44.5230   35.2490   46.1410 O   0  0  0  0  0  0  0  0  0  0  0  0
   45.7680   33.1850   46.4000 C   0  0  0  0  0  0  0  0  0  0  0  0
   46.7900   32.3730   45.8950 C   0  0  0  0  0  0  0  0  0  0  0  0
   47.2350   31.3180   46.7010 C   0  0  0  0  0  0  0  0  0  0  0  0
   46.6700   31.1100   47.9380 C   0  0  0  0  0  0  0  0  0  0  0  0
   45.6650   31.8950   48.4530 C   0  0  0  0  0  0  0  0  0  0  0  0
   45.2400   32.9260   47.6520 C   0  0  0  0  0  0  0  0  0  0  0  0
   43.4970   34.9310   40.7530 S   0  0  0  0  0  0  0  0  0  0  0  0
   41.8590   35.0810   41.4700 C   0  0  0  0  0  0  0  0  0  0  0  0
   40.9620   35.9840   40.6940 C   0  0  0  0  0  0  0  0  0  0  0  0
   41.7910   36.2450   37.7750 Cl  0  0  0  0  0  0  0  0  0  0  0  0
   40.4610   35.2840   38.3280 C   0  0  0  0  0  0  0  0  0  0  0  0
   40.1550   35.2260   39.7010 C   0  0  0  0  0  0  0  0  0  0  0  0
   39.0920   34.4450   40.0520 C   0  0  0  0  0  0  0  0  0  0  0  0
   38.2840   33.7050   39.1990 C   0  0  0  0  0  0  0  0  0  0  0  0
   38.5970   33.7730   37.8550 C   0  0  0  0  0  0  0  0  0  0  0  0
   37.6430   32.8790   36.6790 Cl  0  0  0  0  0  0  0  0  0  0  0  0
   39.6600   34.5460   37.4480 C   0  0  0  0  0  0  0  0  0  0  0  0
   46.3116   34.6521   40.4736 H   0  0  0  0  0  0  0  0  0  0  0  0
   48.1550   34.3049   42.1486 H   0  0  0  0  0  0  0  0  0  0  0  0
   47.2271   32.5567   44.9024 H   0  0  0  0  0  0  0  0  0  0  0  0
   48.0371   30.6549   46.3448 H   0  0  0  0  0  0  0  0  0  0  0  0
   47.0413   30.2724   48.5467 H   0  0  0  0  0  0  0  0  0  0  0  0
   45.2286   31.7084   49.4453 H   0  0  0  0  0  0  0  0  0  0  0  0
   44.4381   33.5799   48.0252 H   0  0  0  0  0  0  0  0  0  0  0  0
   41.4010   34.0816   41.5092 H   0  0  0  0  0  0  0  0  0  0  0  0
   41.9782   35.5187   42.4721 H   0  0  0  0  0  0  0  0  0  0  0  0
   40.2825   36.4977   41.3900 H   0  0  0  0  0  0  0  0  0  0  0  0
   41.5865   36.7089   40.1512 H   0  0  0  0  0  0  0  0  0  0  0  0
   38.8498   34.3967   41.1239 H   0  0  0  0  0  0  0  0  0  0  0  0
   37.4441   33.1002   39.5714 H   0  0  0  0  0  0  0  0  0  0  0  0
   39.8931   34.5864   36.3737 H   0  0  0  0  0  0  0  0  0  0  0  0
  1  6  1  0
  2  1  2  0
  2  3  1  0
  3  4  2  0
  4  5  1  0
  5  7  1  0
  6  5  2  0
  7  8  2  0
  7  9  1  0
  9 14  1  0
 10  9  2  0
 10 11  1  0
 11 12  2  0
 12 13  1  0
 14 13  2  0
 15 16  1  0
 15  1  1  0
 17 16  1  0
 18 19  1  0
 19 20  2  0
 20 21  1  0
 20 17  1  0
 22 21  2  0
 23 22  1  0
 24 23  1  0
 25 23  2  0
 25 19  1  0
  2 26  1  0
  3 27  1  0
 10 28  1  0
 11 29  1  0
 12 30  1  0
 13 31  1  0
 14 32  1  0
 16 33  1  0
 16 34  1  0
 17 35  1  0
 17 36  1  0
 21 37  1  0
 22 38  1  0
 25 39  1  0
M  ISO  8  26  14  27  14  28  14  29  14  30  14  31  14  32  14  33   8
M  ISO  6  34   8  35   8  36   8  37  14  38  14  39  14
M  END
>  <minimizedAffinity>  (1) 
-7.06299353

>  <minimizedRMSD>  (1) 
0.20678924

$$$$
