
     RDKit          3D

 49 52  0  0  0  0  0  0  0  0999 V2000
   42.1750   33.6590   39.9610 C   0  0  0  0  0  0  0  0  0  0  0  0
   41.0450   34.3190   39.6800 N   0  0  0  0  0  0  0  0  0  0  0  0
   40.9260   35.5830   39.0190 C   0  0  0  0  0  0  0  0  0  0  0  0
   40.4310   35.0940   37.6580 C   0  0  0  0  0  0  0  0  0  0  0  0
   39.1800   34.3570   37.7130 C   0  0  0  0  0  0  0  0  0  0  0  0
   38.8090   33.7080   38.9520 C   0  0  0  0  0  0  0  0  0  0  0  0
   39.8030   33.6280   40.0820 C   0  0  0  0  0  0  0  0  0  0  0  0
   39.5070   32.8540   41.5860 S   0  0  0  0  0  0  0  0  0  0  0  0
   39.1170   31.1830   41.6680 C   0  0  0  0  0  0  0  0  0  0  0  0
   37.7960   31.0930   41.1700 C   0  0  0  0  0  0  0  0  0  0  0  0
   37.1200   29.8610   41.1010 C   0  0  0  0  0  0  0  0  0  0  0  0
   37.7920   28.7280   41.5400 C   0  0  0  0  0  0  0  0  0  0  0  0
   39.0750   28.7700   42.0300 C   0  0  0  0  0  0  0  0  0  0  0  0
   39.6570   30.0020   42.0640 C   0  0  0  0  0  0  0  0  0  0  0  0
   43.4110   34.4120   39.6190 C   0  0  0  0  0  0  0  0  0  0  0  0
   44.1220   34.7210   40.8730 C   0  0  0  0  0  0  0  0  0  0  0  0
   43.4530   35.2830   41.9350 C   0  0  0  0  0  0  0  0  0  0  0  0
   44.1720   35.5610   43.0920 C   0  0  0  0  0  0  0  0  0  0  0  0
   45.5050   35.2590   43.1130 N   0  0  0  0  0  0  0  0  0  0  0  0
   46.1160   34.7140   42.0650 C   0  0  0  0  0  0  0  0  0  0  0  0
   45.4040   34.4600   40.9680 N   0  0  0  0  0  0  0  0  0  0  0  0
   47.5380   34.3910   42.1950 C   0  0  0  0  0  0  0  0  0  0  0  0
   47.9430   33.0750   42.3890 C   0  0  0  0  0  0  0  0  0  0  0  0
   49.2840   32.7830   42.5230 C   0  0  0  0  0  0  0  0  0  0  0  0
   50.1100   33.8660   42.4480 C   0  0  0  0  0  0  0  0  0  0  0  0
   49.7630   35.2080   42.2570 C   0  0  0  0  0  0  0  0  0  0  0  0
   48.4180   35.4070   42.1340 N   0  0  0  0  0  0  0  0  0  0  0  0
   42.1896   33.4397   41.0388 H   0  0  0  0  0  0  0  0  0  0  0  0
   42.1748   32.7472   39.3457 H   0  0  0  0  0  0  0  0  0  0  0  0
   40.1944   36.2396   39.5126 H   0  0  0  0  0  0  0  0  0  0  0  0
   41.8400   36.1946   38.9986 H   0  0  0  0  0  0  0  0  0  0  0  0
   41.2004   34.4373   37.2258 H   0  0  0  0  0  0  0  0  0  0  0  0
   40.2457   35.9895   37.0467 H   0  0  0  0  0  0  0  0  0  0  0  0
   38.3758   35.0655   37.4653 H   0  0  0  0  0  0  0  0  0  0  0  0
   39.3299   33.5242   37.0101 H   0  0  0  0  0  0  0  0  0  0  0  0
   37.8048   33.2745   39.0687 H   0  0  0  0  0  0  0  0  0  0  0  0
   37.2862   32.0062   40.8292 H   0  0  0  0  0  0  0  0  0  0  0  0
   36.0930   29.7975   40.7121 H   0  0  0  0  0  0  0  0  0  0  0  0
   37.2763   27.7575   41.4936 H   0  0  0  0  0  0  0  0  0  0  0  0
   39.5995   27.8661   42.3733 H   0  0  0  0  0  0  0  0  0  0  0  0
   40.6832   30.0443   42.4580 H   0  0  0  0  0  0  0  0  0  0  0  0
   44.0524   33.7996   38.9681 H   0  0  0  0  0  0  0  0  0  0  0  0
   43.1562   35.3405   39.0871 H   0  0  0  0  0  0  0  0  0  0  0  0
   42.3779   35.5066   41.8708 H   0  0  0  0  0  0  0  0  0  0  0  0
   43.6813   36.0119   43.9671 H   0  0  0  0  0  0  0  0  0  0  0  0
   47.1957   32.2691   42.4354 H   0  0  0  0  0  0  0  0  0  0  0  0
   49.6573   31.7599   42.6778 H   0  0  0  0  0  0  0  0  0  0  0  0
   51.1852   33.6579   42.5507 H   0  0  0  0  0  0  0  0  0  0  0  0
   50.5011   36.0223   42.2105 H   0  0  0  0  0  0  0  0  0  0  0  0
  2  1  1  0
  2  7  1  0
  3  2  1  0
  4  5  1  0
  4  3  1  0
  5  6  1  0
  6  7  2  0
  7  8  1  0
  8  9  1  0
  9 14  1  0
 10  9  2  0
 11 10  1  0
 11 12  2  0
 12 13  1  0
 13 14  2  0
 15  1  1  0
 15 16  1  0
 16 21  1  0
 16 17  2  0
 17 18  1  0
 18 19  2  0
 20 22  1  0
 20 19  1  0
 21 20  2  0
 22 23  2  0
 23 24  1  0
 25 24  2  0
 26 25  1  0
 27 22  1  0
 27 26  2  0
  1 28  1  0
  1 29  1  0
  3 30  1  0
  3 31  1  0
  4 32  1  0
  4 33  1  0
  5 34  1  0
  5 35  1  0
  6 36  1  0
 10 37  1  0
 11 38  1  0
 12 39  1  0
 13 40  1  0
 14 41  1  0
 15 42  1  0
 15 43  1  0
 17 44  1  0
 18 45  1  0
 23 46  1  0
 24 47  1  0
 25 48  1  0
 26 49  1  0
M  ISO  8  28   8  29   8  30  13  31  13  32  13  33  13  34  13  35  13
M  ISO  8  36  13  37  14  38  14  39  14  40  14  41  14  42   8  43   8
M  ISO  6  44  14  45  14  46  14  47  14  48  14  49  14
M  END
>  <minimizedAffinity>  (1) 
-6.55640221

>  <minimizedRMSD>  (1) 
4.82766342

$$$$
