
     RDKit          3D

 24 25  0  0  0  0  0  0  0  0999 V2000
   46.3060   33.9350   40.9050 C   0  0  0  0  0  0  0  0  0  0  0  0
   45.3510   33.1770   41.2160 O   0  0  0  0  0  0  0  0  0  0  0  0
   46.7220   34.8170   41.9360 N   0  0  0  0  0  0  0  0  0  0  0  0
   44.5490   35.6750   44.8320 C   0  0  0  0  0  0  0  0  0  0  0  0
   45.1290   35.7300   43.5510 C   0  0  0  0  0  0  0  0  0  0  0  0
   46.1060   34.8010   43.2220 C   0  0  0  0  0  0  0  0  0  0  0  0
   46.4680   33.8740   44.1420 N   0  0  0  0  0  0  0  0  0  0  0  0
   45.8920   33.8440   45.3700 C   0  0  0  0  0  0  0  0  0  0  0  0
   44.9510   34.7310   45.7010 N   0  0  0  0  0  0  0  0  0  0  0  0
   46.8970   33.8720   39.5950 C   0  0  0  0  0  0  0  0  0  0  0  0
   46.2380   33.1430   38.6250 C   0  0  0  0  0  0  0  0  0  0  0  0
   46.7750   33.0540   37.3370 C   0  0  0  0  0  0  0  0  0  0  0  0
   47.9750   33.7020   37.0250 C   0  0  0  0  0  0  0  0  0  0  0  0
   48.6020   34.4230   38.0300 C   0  0  0  0  0  0  0  0  0  0  0  0
   48.0800   34.5160   39.3090 C   0  0  0  0  0  0  0  0  0  0  0  0
   47.4855   35.4832   41.7514 H   0  0  0  0  0  0  0  0  0  0  0  0
   43.7725   36.3989   45.1202 H   0  0  0  0  0  0  0  0  0  0  0  0
   44.8142   36.4941   42.8250 H   0  0  0  0  0  0  0  0  0  0  0  0
   46.2033   33.0818   46.0995 H   0  0  0  0  0  0  0  0  0  0  0  0
   45.2930   32.6336   38.8649 H   0  0  0  0  0  0  0  0  0  0  0  0
   46.2511   32.4714   36.5649 H   0  0  0  0  0  0  0  0  0  0  0  0
   48.4071   33.6415   36.0152 H   0  0  0  0  0  0  0  0  0  0  0  0
   49.5467   34.9389   37.8032 H   0  0  0  0  0  0  0  0  0  0  0  0
   48.6022   35.0954   40.0846 H   0  0  0  0  0  0  0  0  0  0  0  0
  1  2  2  0
  1  3  1  0
  3  6  1  0
  4  9  2  0
  5  4  1  0
  6  5  2  0
  6  7  1  0
  7  8  2  0
  8  9  1  0
 10  1  1  0
 11 10  2  0
 12 11  1  0
 13 12  2  0
 13 14  1  0
 14 15  2  0
 15 10  1  0
  3 16  1  0
  4 17  1  0
  5 18  1  0
  8 19  1  0
 11 20  1  0
 12 21  1  0
 13 22  1  0
 14 23  1  0
 15 24  1  0
M  ISO  8  17  14  18  14  19  14  20  14  21  14  22  14  23  14  24  14
M  END
>  <minimizedAffinity>  (1) 
-4.51448393

>  <minimizedRMSD>  (1) 
0.644332349

$$$$
