
     RDKit          3D

 44 47  0  0  1  0  0  0  0  0999 V2000
   49.5420   33.4810   41.5470 N   0  0  0  0  0  0  0  0  0  0  0  0
   50.7530   33.2150   42.2760 C   0  0  0  0  0  0  0  0  0  0  0  0
   51.3800   31.8950   41.9290 C   0  0  0  0  0  0  0  0  0  0  0  0
   50.4710   30.7860   42.4140 C   0  0  0  0  0  0  0  0  0  0  0  0
   49.0240   31.1670   42.2270 C   0  0  0  0  0  0  0  0  0  0  0  0
   48.9170   32.2410   41.1540 C   0  0  2  0  0  0  0  0  0  0  0  0
   47.3040   34.6770   42.0340 C   0  0  1  0  0  0  0  0  0  0  0  0
   48.3590   35.6430   41.7550 C   0  0  0  0  0  0  0  0  0  0  0  0
   48.7400   34.3300   42.3600 C   0  0  2  0  0  0  0  0  0  0  0  0
   45.5360   36.0480   43.1750 C   0  0  0  0  0  0  0  0  0  0  0  0
   46.3540   34.8920   43.1550 C   0  0  0  0  0  0  0  0  0  0  0  0
   46.2410   33.9840   44.2050 C   0  0  0  0  0  0  0  0  0  0  0  0
   45.3540   34.2670   45.1820 N   0  0  0  0  0  0  0  0  0  0  0  0
   44.5850   35.3680   45.1870 C   0  0  0  0  0  0  0  0  0  0  0  0
   44.6650   36.2730   44.1850 N   0  0  0  0  0  0  0  0  0  0  0  0
   49.3660   31.7060   39.9120 N   0  0  0  0  0  0  0  0  0  0  0  0
   49.0870   32.1940   38.6090 C   0  0  0  0  0  0  0  0  0  0  0  0
   49.4380   31.5780   37.4410 C   0  0  0  0  0  0  0  0  0  0  0  0
   49.1760   32.0470   36.1850 C   0  0  0  0  0  0  0  0  0  0  0  0
   48.5050   33.2290   36.0420 C   0  0  0  0  0  0  0  0  0  0  0  0
   48.1230   33.8970   37.1660 C   0  0  0  0  0  0  0  0  0  0  0  0
   48.4130   33.3820   38.4040 C   0  0  0  0  0  0  0  0  0  0  0  0
   51.4762   34.0136   42.0542 H   0  0  0  0  0  0  0  0  0  0  0  0
   50.4885   33.1785   43.3431 H   0  0  0  0  0  0  0  0  0  0  0  0
   51.5068   31.8201   40.8389 H   0  0  0  0  0  0  0  0  0  0  0  0
   52.3660   31.8096   42.4091 H   0  0  0  0  0  0  0  0  0  0  0  0
   50.6807   29.8702   41.8418 H   0  0  0  0  0  0  0  0  0  0  0  0
   50.6579   30.6164   43.4847 H   0  0  0  0  0  0  0  0  0  0  0  0
   48.4486   30.2817   41.9184 H   0  0  0  0  0  0  0  0  0  0  0  0
   48.6212   31.5539   43.1747 H   0  0  0  0  0  0  0  0  0  0  0  0
   47.8635   32.5266   41.0179 H   0  0  0  0  0  0  0  0  0  0  0  0
   46.5020   34.2282   41.4295 H   0  0  0  0  0  0  0  0  0  0  0  0
   48.6346   35.8640   40.7133 H   0  0  0  0  0  0  0  0  0  0  0  0
   48.5304   36.6941   42.0302 H   0  0  0  0  0  0  0  0  0  0  0  0
   49.2272   33.9413   43.2664 H   0  0  0  0  0  0  0  0  0  0  0  0
   45.6104   36.7763   42.3540 H   0  0  0  0  0  0  0  0  0  0  0  0
   46.8521   33.0699   44.2368 H   0  0  0  0  0  0  0  0  0  0  0  0
   43.8816   35.5358   46.0159 H   0  0  0  0  0  0  0  0  0  0  0  0
   49.9622   30.8679   39.9663 H   0  0  0  0  0  0  0  0  0  0  0  0
   49.9777   30.6227   37.5187 H   0  0  0  0  0  0  0  0  0  0  0  0
   49.5010   31.4804   35.2999 H   0  0  0  0  0  0  0  0  0  0  0  0
   48.2789   33.6312   35.0434 H   0  0  0  0  0  0  0  0  0  0  0  0
   47.5813   34.8506   37.0809 H   0  0  0  0  0  0  0  0  0  0  0  0
   48.0887   33.9504   39.2882 H   0  0  0  0  0  0  0  0  0  0  0  0
  1  2  1  0
  1  9  1  0
  3  2  1  0
  3  4  1  0
  5  4  1  0
  6  1  1  0
  6  5  1  0
  7  9  1  0
  7 11  1  0
  8  7  1  0
  8  9  1  0
 10 15  2  0
 11 10  1  0
 11 12  2  0
 12 13  1  0
 13 14  2  0
 15 14  1  0
 16  6  1  0
 17 16  1  0
 18 17  2  0
 19 18  1  0
 20 19  2  0
 20 21  1  0
 21 22  2  0
 22 17  1  0
  2 23  1  0
  2 24  1  0
  3 25  1  0
  3 26  1  0
  4 27  1  0
  4 28  1  0
  5 29  1  0
  5 30  1  0
  6 31  1  6
  7 32  1  6
  8 33  1  0
  8 34  1  0
  9 35  1  1
 10 36  1  0
 12 37  1  0
 14 38  1  0
 16 39  1  0
 18 40  1  0
 19 41  1  0
 20 42  1  0
 21 43  1  0
 22 44  1  0
M  ISO  8  23  13  24  13  25  13  26  13  27  13  28  13  29  13  30  13
M  ISO  8  31  13  32  13  33  13  34  13  35  13  36  14  37  14  38  14
M  ISO  5  40  14  41  14  42  14  43  14  44  14
M  END
>  <minimizedAffinity>  (1) 
-5.34739065

>  <minimizedRMSD>  (1) 
0.399609566

$$$$
