
     RDKit          3D

 47 49  0  0  0  0  0  0  0  0999 V2000
   42.3360   31.7220   42.5160 N   0  0  0  0  0  0  0  0  0  0  0  0
   43.0220   32.5360   41.5600 C   0  0  0  0  0  0  0  0  0  0  0  0
   43.6860   34.9230   41.8900 C   0  0  0  0  0  0  0  0  0  0  0  0
   43.9050   33.5850   42.1590 C   0  0  0  0  0  0  0  0  0  0  0  0
   44.9470   33.2460   42.9840 C   0  0  0  0  0  0  0  0  0  0  0  0
   45.7440   34.2150   43.5230 C   0  0  0  0  0  0  0  0  0  0  0  0
   45.5520   35.5510   43.2760 C   0  0  0  0  0  0  0  0  0  0  0  0
   44.4890   35.8540   42.4370 C   0  0  0  0  0  0  0  0  0  0  0  0
   40.3190   35.9600   40.5100 C   0  0  0  0  0  0  0  0  0  0  0  0
   41.3340   35.6890   41.4360 C   0  0  0  0  0  0  0  0  0  0  0  0
   42.5610   35.2350   41.0030 C   0  0  0  0  0  0  0  0  0  0  0  0
   42.7110   35.0760   39.6710 N   0  0  0  0  0  0  0  0  0  0  0  0
   41.7400   35.3350   38.7720 C   0  0  0  0  0  0  0  0  0  0  0  0
   40.5420   35.7780   39.2020 N   0  0  0  0  0  0  0  0  0  0  0  0
   40.6710   31.5780   42.1690 S   0  0  0  0  0  0  0  0  0  0  0  0
   39.9200   32.8180   42.5820 O   0  0  0  0  0  0  0  0  0  0  0  0
   40.0870   30.3810   42.8430 O   0  0  0  0  0  0  0  0  0  0  0  0
   40.5080   31.3870   40.4990 O   0  0  0  0  0  0  0  0  0  0  0  0
   39.6830   32.3940   40.0430 C   0  0  0  0  0  0  0  0  0  0  0  0
   38.2660   31.8500   39.8970 C   0  0  0  0  0  0  0  0  0  0  0  0
   38.2620   30.8040   38.8340 C   0  0  0  0  0  0  0  0  0  0  0  0
   38.6680   31.2950   37.5890 C   0  0  0  0  0  0  0  0  0  0  0  0
   38.7340   30.4980   36.4850 C   0  0  0  0  0  0  0  0  0  0  0  0
   38.3820   29.1720   36.6310 C   0  0  0  0  0  0  0  0  0  0  0  0
   37.9870   28.6960   37.8500 C   0  0  0  0  0  0  0  0  0  0  0  0
   37.9110   29.4790   38.9810 C   0  0  0  0  0  0  0  0  0  0  0  0
   42.7573   30.7821   42.5136 H   0  0  0  0  0  0  0  0  0  0  0  0
   42.2701   33.0370   40.9326 H   0  0  0  0  0  0  0  0  0  0  0  0
   43.6785   31.8627   40.9892 H   0  0  0  0  0  0  0  0  0  0  0  0
   45.1417   32.1878   43.2127 H   0  0  0  0  0  0  0  0  0  0  0  0
   46.5722   33.9128   44.1808 H   0  0  0  0  0  0  0  0  0  0  0  0
   46.1962   36.3282   43.7129 H   0  0  0  0  0  0  0  0  0  0  0  0
   44.2923   36.9115   42.2068 H   0  0  0  0  0  0  0  0  0  0  0  0
   39.3397   36.3219   40.8565 H   0  0  0  0  0  0  0  0  0  0  0  0
   41.1516   35.8387   42.5104 H   0  0  0  0  0  0  0  0  0  0  0  0
   41.9239   35.1861   37.6978 H   0  0  0  0  0  0  0  0  0  0  0  0
   39.8881   32.8707   43.5701 H   0  0  0  0  0  0  0  0  0  0  0  0
   40.1427   30.4951   43.8248 H   0  0  0  0  0  0  0  0  0  0  0  0
   39.6858   33.2265   40.7620 H   0  0  0  0  0  0  0  0  0  0  0  0
   40.0434   32.7559   39.0687 H   0  0  0  0  0  0  0  0  0  0  0  0
   37.9385   31.4099   40.8504 H   0  0  0  0  0  0  0  0  0  0  0  0
   37.5785   32.6641   39.6240 H   0  0  0  0  0  0  0  0  0  0  0  0
   38.9424   32.3563   37.4978 H   0  0  0  0  0  0  0  0  0  0  0  0
   39.0564   30.8979   35.5123 H   0  0  0  0  0  0  0  0  0  0  0  0
   38.4193   28.4960   35.7641 H   0  0  0  0  0  0  0  0  0  0  0  0
   37.7159   27.6331   37.9321 H   0  0  0  0  0  0  0  0  0  0  0  0
   37.5877   29.0690   39.9492 H   0  0  0  0  0  0  0  0  0  0  0  0
  2  4  1  0
  2  1  1  0
  3  4  1  0
  3  8  2  0
  4  5  2  0
  5  6  1  0
  7  6  2  0
  8  7  1  0
  9 10  2  0
 11 10  1  0
 11  3  1  0
 12 11  2  0
 13 14  2  0
 13 12  1  0
 14  9  1  0
 15  1  1  0
 15 16  1  0
 15 17  1  0
 18 15  1  0
 19 18  1  0
 20 19  1  0
 21 26  1  0
 21 20  1  0
 22 21  2  0
 23 24  2  0
 23 22  1  0
 24 25  1  0
 25 26  2  0
  1 27  1  0
  2 28  1  0
  2 29  1  0
  5 30  1  0
  6 31  1  0
  7 32  1  0
  8 33  1  0
  9 34  1  0
 10 35  1  0
 13 36  1  0
 16 37  1  0
 17 38  1  0
 19 39  1  0
 19 40  1  0
 20 41  1  0
 20 42  1  0
 22 43  1  0
 23 44  1  0
 24 45  1  0
 25 46  1  0
 26 47  1  0
M  ISO  8  27   5  28   8  29   8  30  14  31  14  32  14  33  14  34  14
M  ISO  8  35  14  36  14  37   3  38   3  39   8  40   8  41   8  42   8
M  ISO  5  43  14  44  14  45  14  46  14  47  14
M  END
>  <minimizedAffinity>  (1) 
-5.70676374

>  <minimizedRMSD>  (1) 
2.29089451

$$$$
