
     RDKit          3D

 33 35  0  0  1  0  0  0  0  0999 V2000
   48.0090   35.4590   41.8040 C   0  0  1  0  0  0  0  0  0  0  0  0
   49.2980   34.7320   41.6860 C   0  0  0  0  0  0  0  0  0  0  0  0
   48.4700   35.0710   40.4560 C   0  0  1  0  0  0  0  0  0  0  0  0
   46.0520   32.9150   43.7800 C   0  0  0  0  0  0  0  0  0  0  0  0
   47.1520   33.6200   43.2720 C   0  0  0  0  0  0  0  0  0  0  0  0
   46.8860   34.6680   42.3890 C   0  0  0  0  0  0  0  0  0  0  0  0
   45.6020   34.9680   42.0520 N   0  0  0  0  0  0  0  0  0  0  0  0
   44.5580   34.2690   42.5570 C   0  0  0  0  0  0  0  0  0  0  0  0
   44.7870   33.2400   43.4230 N   0  0  0  0  0  0  0  0  0  0  0  0
   47.7450   34.1640   39.7880 O   0  0  0  0  0  0  0  0  0  0  0  0
   48.5960   32.3830   38.0110 O   0  0  0  0  0  0  0  0  0  0  0  0
   48.1380   33.8060   38.2370 P   0  0  2  0  0  0  0  0  0  0  0  0
   49.3250   34.8130   37.5740 O   0  0  0  0  0  0  0  0  0  0  0  0
   46.7700   33.9970   37.2580 O   0  0  0  0  0  0  0  0  0  0  0  0
   45.7450   33.0760   37.1640 C   0  0  0  0  0  0  0  0  0  0  0  0
   45.7040   32.3910   35.9750 C   0  0  0  0  0  0  0  0  0  0  0  0
   44.7450   31.4440   35.7340 C   0  0  0  0  0  0  0  0  0  0  0  0
   43.7990   31.1620   36.6900 C   0  0  0  0  0  0  0  0  0  0  0  0
   43.8490   31.8550   37.8800 C   0  0  0  0  0  0  0  0  0  0  0  0
   44.8210   32.8180   38.1310 C   0  0  0  0  0  0  0  0  0  0  0  0
   47.6905   36.4125   42.2506 H   0  0  0  0  0  0  0  0  0  0  0  0
   50.2472   35.2547   41.8751 H   0  0  0  0  0  0  0  0  0  0  0  0
   49.7231   33.8135   42.1169 H   0  0  0  0  0  0  0  0  0  0  0  0
   48.7106   35.5670   39.5041 H   0  0  0  0  0  0  0  0  0  0  0  0
   46.2194   32.0836   44.4806 H   0  0  0  0  0  0  0  0  0  0  0  0
   48.1817   33.3584   43.5572 H   0  0  0  0  0  0  0  0  0  0  0  0
   43.5287   34.5300   42.2699 H   0  0  0  0  0  0  0  0  0  0  0  0
   49.8354   35.2460   38.3034 H   0  0  0  0  0  0  0  0  0  0  0  0
   46.4557   32.6070   35.2015 H   0  0  0  0  0  0  0  0  0  0  0  0
   44.7318   30.9080   34.7735 H   0  0  0  0  0  0  0  0  0  0  0  0
   43.0228   30.4036   36.5102 H   0  0  0  0  0  0  0  0  0  0  0  0
   43.0980   31.6403   38.6545 H   0  0  0  0  0  0  0  0  0  0  0  0
   44.8429   33.3588   39.0886 H   0  0  0  0  0  0  0  0  0  0  0  0
  1  6  1  0
  2  1  1  0
  3  2  1  0
  3  1  1  0
  5  4  2  0
  6  5  1  0
  7  6  2  0
  7  8  1  0
  8  9  2  0
  9  4  1  0
 10  3  1  0
 12 11  2  0
 12 10  1  0
 13 12  1  0
 14 12  1  0
 15 14  1  0
 15 20  1  0
 16 15  2  0
 17 16  1  0
 17 18  2  0
 18 19  1  0
 19 20  2  0
  1 21  1  6
  2 22  1  0
  2 23  1  0
  3 24  1  6
  4 25  1  0
  5 26  1  0
  8 27  1  0
 13 28  1  0
 16 29  1  0
 17 30  1  0
 18 31  1  0
 19 32  1  0
 20 33  1  0
M  ISO  8  21  13  22  13  23  13  24  13  25  14  26  14  27  14  28   3
M  ISO  5  29  14  30  14  31  14  32  14  33  14
M  END
>  <minimizedAffinity>  (1) 
-4.35223103

>  <minimizedRMSD>  (1) 
0.549653947

$$$$
