
     RDKit          3D

 27 28  0  0  0  0  0  0  0  0999 V2000
   47.8050   32.5610   48.1120 O   0  0  0  0  0  0  0  0  0  0  0  0
   46.7710   31.8560   47.2550 P   0  0  2  0  0  0  0  0  0  0  0  0
   47.5770   31.1400   45.9530 O   0  0  0  0  0  0  0  0  0  0  0  0
   45.6500   33.0180   46.7410 O   0  0  0  0  0  0  0  0  0  0  0  0
   44.9880   35.4200   44.1750 C   0  0  0  0  0  0  0  0  0  0  0  0
   45.9700   35.1610   43.2060 C   0  0  0  0  0  0  0  0  0  0  0  0
   46.8830   34.1100   43.4720 C   0  0  0  0  0  0  0  0  0  0  0  0
   46.7560   33.4350   44.6230 N   0  0  0  0  0  0  0  0  0  0  0  0
   45.7850   33.7190   45.5430 C   0  0  0  0  0  0  0  0  0  0  0  0
   44.9120   34.7130   45.3010 N   0  0  0  0  0  0  0  0  0  0  0  0
   44.1170   36.4330   43.9020 O   0  0  0  0  0  0  0  0  0  0  0  0
   46.0670   30.6570   48.1960 O   0  0  0  0  0  0  0  0  0  0  0  0
   45.6070   29.5120   47.5270 C   0  0  0  0  0  0  0  0  0  0  0  0
   46.4060   28.3790   47.6860 C   0  0  0  0  0  0  0  0  0  0  0  0
   46.0040   27.2260   47.0540 C   0  0  0  0  0  0  0  0  0  0  0  0
   44.8400   27.2330   46.2950 C   0  0  0  0  0  0  0  0  0  0  0  0
   44.0840   28.3770   46.1670 C   0  0  0  0  0  0  0  0  0  0  0  0
   44.4480   29.5390   46.7780 C   0  0  0  0  0  0  0  0  0  0  0  0
   48.2718   30.5228   46.2941 H   0  0  0  0  0  0  0  0  0  0  0  0
   46.0286   35.7494   42.2785 H   0  0  0  0  0  0  0  0  0  0  0  0
   47.6751   33.8549   42.7526 H   0  0  0  0  0  0  0  0  0  0  0  0
   44.1982   36.9412   43.0563 H   0  0  0  0  0  0  0  0  0  0  0  0
   47.3224   28.4073   48.2937 H   0  0  0  0  0  0  0  0  0  0  0  0
   46.5989   26.3056   47.1484 H   0  0  0  0  0  0  0  0  0  0  0  0
   44.5176   26.3111   45.7889 H   0  0  0  0  0  0  0  0  0  0  0  0
   43.1676   28.3520   45.5591 H   0  0  0  0  0  0  0  0  0  0  0  0
   43.8469   30.4549   46.6791 H   0  0  0  0  0  0  0  0  0  0  0  0
  2  1  2  0
  2 12  1  0
  3  2  1  0
  4  2  1  0
  5 10  2  0
  6  7  2  0
  6  5  1  0
  7  8  1  0
  8  9  2  0
  9  4  1  0
 10  9  1  0
 11  5  1  0
 13 14  2  0
 13 12  1  0
 15 14  1  0
 16 15  2  0
 17 16  1  0
 17 18  2  0
 18 13  1  0
  3 19  1  0
  6 20  1  0
  7 21  1  0
 11 22  1  0
 14 23  1  0
 15 24  1  0
 16 25  1  0
 17 26  1  0
 18 27  1  0
M  ISO  8  19   3  20  14  21  14  22   3  23  14  24  14  25  14  26  14
M  ISO  1  27  14
M  END
>  <minimizedAffinity>  (1) 
-4.53423071

>  <minimizedRMSD>  (1) 
2.62529945

$$$$
