
     RDKit          3D

 34 37  0  0  0  0  0  0  0  0999 V2000
   49.8850   32.9830   41.7970 C   0  0  0  0  0  0  0  0  0  0  0  0
   50.3610   34.1590   42.3470 C   0  0  0  0  0  0  0  0  0  0  0  0
   49.5020   35.2990   42.3360 C   0  0  0  0  0  0  0  0  0  0  0  0
   48.2720   35.1220   41.7780 N   0  0  0  0  0  0  0  0  0  0  0  0
   47.8530   33.9500   41.2540 C   0  0  0  0  0  0  0  0  0  0  0  0
   48.6610   32.8750   41.2620 N   0  0  0  0  0  0  0  0  0  0  0  0
   46.5470   33.8890   40.6960 N   0  0  0  0  0  0  0  0  0  0  0  0
   46.2120   33.3090   39.5190 C   0  0  0  0  0  0  0  0  0  0  0  0
   44.8700   33.4610   39.3410 N   0  0  0  0  0  0  0  0  0  0  0  0
   44.4200   34.1220   40.3980 C   0  0  0  0  0  0  0  0  0  0  0  0
   43.1700   34.5710   40.7960 C   0  0  0  0  0  0  0  0  0  0  0  0
   42.9680   35.2330   41.9380 N   0  0  0  0  0  0  0  0  0  0  0  0
   43.9790   35.5030   42.7780 C   0  0  0  0  0  0  0  0  0  0  0  0
   45.1950   35.0720   42.4040 N   0  0  0  0  0  0  0  0  0  0  0  0
   45.4520   34.4100   41.2790 C   0  0  0  0  0  0  0  0  0  0  0  0
   42.0160   34.3560   40.0060 N   0  0  0  0  0  0  0  0  0  0  0  0
   51.0500   31.5940   41.8550 S   0  0  0  0  0  0  0  0  0  0  0  0
   51.9150   31.4210   40.3030 C   0  0  0  0  0  0  0  0  0  0  0  0
   51.0920   31.5840   39.1930 C   0  0  0  0  0  0  0  0  0  0  0  0
   51.6510   31.4720   37.9210 C   0  0  0  0  0  0  0  0  0  0  0  0
   52.9700   31.2100   37.7200 C   0  0  0  0  0  0  0  0  0  0  0  0
   53.7550   31.0550   38.8360 C   0  0  0  0  0  0  0  0  0  0  0  0
   53.2570   31.1540   40.1190 C   0  0  0  0  0  0  0  0  0  0  0  0
   51.3708   34.2143   42.7798 H   0  0  0  0  0  0  0  0  0  0  0  0
   49.8158   36.2665   42.7548 H   0  0  0  0  0  0  0  0  0  0  0  0
   46.9026   32.8037   38.8278 H   0  0  0  0  0  0  0  0  0  0  0  0
   43.8207   36.0472   43.7208 H   0  0  0  0  0  0  0  0  0  0  0  0
   41.1003   34.7011   40.3273 H   0  0  0  0  0  0  0  0  0  0  0  0
   42.0917   33.8544   39.1096 H   0  0  0  0  0  0  0  0  0  0  0  0
   50.0200   31.7973   39.3170 H   0  0  0  0  0  0  0  0  0  0  0  0
   50.9988   31.6008   37.0446 H   0  0  0  0  0  0  0  0  0  0  0  0
   53.3902   31.1258   36.7069 H   0  0  0  0  0  0  0  0  0  0  0  0
   54.8260   30.8430   38.7015 H   0  0  0  0  0  0  0  0  0  0  0  0
   53.9217   31.0217   40.9854 H   0  0  0  0  0  0  0  0  0  0  0  0
  1 17  1  0
  1  2  2  0
  3  2  1  0
  4  3  2  0
  5  6  2  0
  5  4  1  0
  6  1  1  0
  7  5  1  0
  7 15  1  0
  8  7  1  0
  9  8  2  0
  9 10  1  0
 10 11  2  0
 10 15  1  0
 11 12  1  0
 12 13  2  0
 14 13  1  0
 15 14  2  0
 16 11  1  0
 18 17  1  0
 19 18  2  0
 20 19  1  0
 21 20  2  0
 21 22  1  0
 22 23  2  0
 23 18  1  0
  2 24  1  0
  3 25  1  0
  8 26  1  0
 13 27  1  0
 16 28  1  0
 16 29  1  0
 19 30  1  0
 20 31  1  0
 21 32  1  0
 22 33  1  0
 23 34  1  0
M  ISO  8  24  14  25  14  26  14  27  14  30  14  31  14  32  14  33  14
M  ISO  1  34  14
M  END
>  <minimizedAffinity>  (1) 
-5.50716591

>  <minimizedRMSD>  (1) 
5.41276169

$$$$
