
     RDKit          3D

 36 38  0  0  0  0  0  0  0  0999 V2000
   44.6070   36.2360   43.9730 C   0  0  0  0  0  0  0  0  0  0  0  0
   44.7900   35.4400   45.1000 C   0  0  0  0  0  0  0  0  0  0  0  0
   45.4960   34.2500   44.9460 C   0  0  0  0  0  0  0  0  0  0  0  0
   45.9630   33.9380   43.7050 N   0  0  0  0  0  0  0  0  0  0  0  0
   45.7690   34.7340   42.6270 C   0  0  0  0  0  0  0  0  0  0  0  0
   45.0870   35.8910   42.7560 N   0  0  0  0  0  0  0  0  0  0  0  0
   48.5210   35.6950   42.0270 Cl  0  0  0  0  0  0  0  0  0  0  0  0
   47.5560   34.7150   40.9520 C   0  0  0  0  0  0  0  0  0  0  0  0
   46.3060   34.3260   41.3210 C   0  0  0  0  0  0  0  0  0  0  0  0
   45.4990   33.5370   40.4840 C   0  0  0  0  0  0  0  0  0  0  0  0
   46.0470   33.1820   39.2720 C   0  0  0  0  0  0  0  0  0  0  0  0
   47.2990   33.5710   38.9030 C   0  0  0  0  0  0  0  0  0  0  0  0
   48.0730   34.3390   39.7290 C   0  0  0  0  0  0  0  0  0  0  0  0
   45.7060   33.3830   46.1220 C   0  0  0  0  0  0  0  0  0  0  0  0
   46.3630   32.0650   45.7930 C   0  0  0  0  0  0  0  0  0  0  0  0
   47.1980   31.5390   46.8700 C   0  0  0  0  0  0  0  0  0  0  0  0
   47.6670   30.2270   46.7410 C   0  0  0  0  0  0  0  0  0  0  0  0
   48.4690   29.5960   47.6830 C   0  0  0  0  0  0  0  0  0  0  0  0
   48.8170   30.3030   48.8050 C   0  0  0  0  0  0  0  0  0  0  0  0
   48.3680   31.5860   48.9500 C   0  0  0  0  0  0  0  0  0  0  0  0
   47.5600   32.2190   47.9980 C   0  0  0  0  0  0  0  0  0  0  0  0
   44.0518   37.1801   44.0755 H   0  0  0  0  0  0  0  0  0  0  0  0
   44.3902   35.7411   46.0796 H   0  0  0  0  0  0  0  0  0  0  0  0
   44.4878   33.2212   40.7801 H   0  0  0  0  0  0  0  0  0  0  0  0
   45.4552   32.5649   38.5800 H   0  0  0  0  0  0  0  0  0  0  0  0
   47.6945   33.2623   37.9241 H   0  0  0  0  0  0  0  0  0  0  0  0
   49.0837   34.6495   39.4255 H   0  0  0  0  0  0  0  0  0  0  0  0
   46.3438   33.9196   46.8398 H   0  0  0  0  0  0  0  0  0  0  0  0
   44.7124   33.1534   46.5342 H   0  0  0  0  0  0  0  0  0  0  0  0
   45.5750   31.3295   45.5740 H   0  0  0  0  0  0  0  0  0  0  0  0
   47.0239   32.2419   44.9316 H   0  0  0  0  0  0  0  0  0  0  0  0
   47.3838   29.6622   45.8406 H   0  0  0  0  0  0  0  0  0  0  0  0
   48.8140   28.5622   47.5337 H   0  0  0  0  0  0  0  0  0  0  0  0
   49.4496   29.8436   49.5788 H   0  0  0  0  0  0  0  0  0  0  0  0
   48.6538   32.1449   49.8533 H   0  0  0  0  0  0  0  0  0  0  0  0
   47.2202   33.2531   48.1567 H   0  0  0  0  0  0  0  0  0  0  0  0
  1  2  2  0
  3  2  1  0
  3 14  1  0
  4  3  2  0
  5  6  2  0
  5  4  1  0
  6  1  1  0
  8  9  2  0
  8  7  1  0
  9  5  1  0
 10  9  1  0
 11 10  2  0
 12 11  1  0
 12 13  2  0
 13  8  1  0
 15 14  1  0
 15 16  1  0
 16 21  1  0
 17 16  2  0
 17 18  1  0
 18 19  2  0
 19 20  1  0
 21 20  2  0
  1 22  1  0
  2 23  1  0
 10 24  1  0
 11 25  1  0
 12 26  1  0
 13 27  1  0
 14 28  1  0
 14 29  1  0
 15 30  1  0
 15 31  1  0
 17 32  1  0
 18 33  1  0
 19 34  1  0
 20 35  1  0
 21 36  1  0
M  ISO  8  22  14  23  14  24  14  25  14  26  14  27  14  28   8  29   8
M  ISO  7  30   8  31   8  32  14  33  14  34  14  35  14  36  14
M  END
>  <minimizedAffinity>  (1) 
-5.87639189

>  <minimizedRMSD>  (1) 
0.705060959

$$$$
