
     RDKit          3D

 41 43  0  0  0  0  0  0  0  0999 V2000
   45.4860   33.6970   42.0560 C   0  0  0  0  0  0  0  0  0  0  0  0
   47.7290   33.8990   43.1440 C   0  0  0  0  0  0  0  0  0  0  0  0
   46.8950   34.1970   42.0600 C   0  0  0  0  0  0  0  0  0  0  0  0
   47.4010   34.9470   41.0220 C   0  0  0  0  0  0  0  0  0  0  0  0
   48.6900   35.3870   41.0560 C   0  0  0  0  0  0  0  0  0  0  0  0
   49.5370   35.1180   42.0950 C   0  0  0  0  0  0  0  0  0  0  0  0
   48.9940   34.3560   43.1300 C   0  0  0  0  0  0  0  0  0  0  0  0
   46.6710   31.0710   45.4060 C   0  0  0  0  0  0  0  0  0  0  0  0
   47.2760   31.7420   44.3280 C   0  0  0  0  0  0  0  0  0  0  0  0
   47.1460   33.1030   44.2160 C   0  0  0  0  0  0  0  0  0  0  0  0
   46.4260   33.7560   45.1710 N   0  0  0  0  0  0  0  0  0  0  0  0
   45.8460   33.0960   46.2080 C   0  0  0  0  0  0  0  0  0  0  0  0
   45.9650   31.7730   46.3270 N   0  0  0  0  0  0  0  0  0  0  0  0
   44.6610   34.3020   41.0420 N   0  0  0  0  0  0  0  0  0  0  0  0
   43.0950   34.6790   41.6310 S   0  0  0  0  0  0  0  0  0  0  0  0
   43.1660   35.4870   42.8880 O   0  0  0  0  0  0  0  0  0  0  0  0
   42.2620   33.4580   41.8240 O   0  0  0  0  0  0  0  0  0  0  0  0
   42.3700   35.6530   40.4400 O   0  0  0  0  0  0  0  0  0  0  0  0
   41.3090   35.0460   39.7390 C   0  0  0  0  0  0  0  0  0  0  0  0
   40.0890   35.2890   40.3340 C   0  0  0  0  0  0  0  0  0  0  0  0
   38.9380   34.7560   39.7610 C   0  0  0  0  0  0  0  0  0  0  0  0
   39.0460   34.0040   38.6210 C   0  0  0  0  0  0  0  0  0  0  0  0
   40.2840   33.7810   38.0520 C   0  0  0  0  0  0  0  0  0  0  0  0
   41.4660   34.2950   38.5930 C   0  0  0  0  0  0  0  0  0  0  0  0
   45.5034   32.6102   41.8870 H   0  0  0  0  0  0  0  0  0  0  0  0
   45.0472   33.9629   43.0290 H   0  0  0  0  0  0  0  0  0  0  0  0
   46.7615   35.1921   40.1612 H   0  0  0  0  0  0  0  0  0  0  0  0
   49.0652   35.9840   40.2117 H   0  0  0  0  0  0  0  0  0  0  0  0
   50.5763   35.4780   42.1137 H   0  0  0  0  0  0  0  0  0  0  0  0
   49.6399   34.1142   43.9869 H   0  0  0  0  0  0  0  0  0  0  0  0
   46.7702   29.9797   45.5018 H   0  0  0  0  0  0  0  0  0  0  0  0
   47.8506   31.1781   43.5784 H   0  0  0  0  0  0  0  0  0  0  0  0
   45.2717   33.6597   46.9579 H   0  0  0  0  0  0  0  0  0  0  0  0
   44.5707   33.6473   40.2520 H   0  0  0  0  0  0  0  0  0  0  0  0
   43.1130   34.8840   43.6714 H   0  0  0  0  0  0  0  0  0  0  0  0
   42.1457   33.2875   42.7923 H   0  0  0  0  0  0  0  0  0  0  0  0
   40.0263   35.8960   41.2492 H   0  0  0  0  0  0  0  0  0  0  0  0
   37.9538   34.9364   40.2179 H   0  0  0  0  0  0  0  0  0  0  0  0
   38.1443   33.5769   38.1579 H   0  0  0  0  0  0  0  0  0  0  0  0
   40.3426   33.1745   37.1362 H   0  0  0  0  0  0  0  0  0  0  0  0
   42.4506   34.1135   38.1374 H   0  0  0  0  0  0  0  0  0  0  0  0
  1  3  1  0
  2 10  1  0
  3  2  2  0
  4  5  2  0
  4  3  1  0
  5  6  1  0
  6  7  2  0
  7  2  1  0
  8 13  2  0
  9  8  1  0
 10  9  2  0
 10 11  1  0
 11 12  2  0
 12 13  1  0
 14 15  1  0
 14  1  1  0
 15 17  1  0
 15 16  1  0
 18 15  1  0
 19 20  2  0
 19 18  1  0
 21 20  1  0
 22 21  2  0
 23 24  2  0
 23 22  1  0
 24 19  1  0
  1 25  1  0
  1 26  1  0
  4 27  1  0
  5 28  1  0
  6 29  1  0
  7 30  1  0
  8 31  1  0
  9 32  1  0
 12 33  1  0
 14 34  1  0
 16 35  1  0
 17 36  1  0
 20 37  1  0
 21 38  1  0
 22 39  1  0
 23 40  1  0
 24 41  1  0
M  ISO  8  25   8  26   8  27  14  28  14  29  14  30  14  31  14  32  14
M  ISO  8  33  14  34   5  35   3  36   3  37  14  38  14  39  14  40  14
M  ISO  1  41  14
M  END
>  <minimizedAffinity>  (1) 
-6.53769207

>  <minimizedRMSD>  (1) 
7.1136694

$$$$
