
     RDKit          3D

 44 47  0  0  1  0  0  0  0  0999 V2000
   42.1500   33.2720   41.1920 C   0  0  0  0  0  0  0  0  0  0  0  0
   42.8410   34.4340   41.3650 C   0  0  0  0  0  0  0  0  0  0  0  0
   42.1270   35.6460   41.2840 C   0  0  0  0  0  0  0  0  0  0  0  0
   40.7810   35.7130   41.0420 C   0  0  0  0  0  0  0  0  0  0  0  0
   40.0900   34.5430   40.8700 C   0  0  0  0  0  0  0  0  0  0  0  0
   40.7720   33.3650   40.9460 C   0  0  0  0  0  0  0  0  0  0  0  0
   42.8810   31.7600   41.3100 S   0  0  0  0  0  0  0  0  0  0  0  0
   42.1500   30.9700   40.2060 O   0  0  0  0  0  0  0  0  0  0  0  0
   42.5470   31.0980   42.6360 O   0  0  0  0  0  0  0  0  0  0  0  0
   44.3310   31.1540   40.7850 C   0  0  0  0  0  0  0  0  0  0  0  0
   44.6010   31.1270   39.3940 C   0  0  0  0  0  0  0  0  0  0  0  0
   45.7980   30.6800   38.8990 C   0  0  0  0  0  0  0  0  0  0  0  0
   46.7520   30.2490   39.7700 C   0  0  0  0  0  0  0  0  0  0  0  0
   46.6790   30.1990   41.1190 C   0  0  0  0  0  0  0  0  0  0  0  0
   45.4460   30.6680   41.5200 C   0  0  0  0  0  0  0  0  0  0  0  0
   44.2760   34.4690   41.6130 C   0  0  0  0  0  0  0  0  0  0  0  0
   45.1670   34.4570   40.6960 O   0  0  0  0  0  0  0  0  0  0  0  0
   44.6030   34.5200   43.0060 C   0  0  0  0  0  0  0  0  0  0  0  0
   44.2980   35.7530   43.6730 C   0  0  0  0  0  0  0  0  0  0  0  0
   44.5990   35.8150   45.0240 C   0  0  0  0  0  0  0  0  0  0  0  0
   45.1510   34.7270   45.6210 N   0  0  0  0  0  0  0  0  0  0  0  0
   45.4240   33.5680   44.9380 C   0  0  0  0  0  0  0  0  0  0  0  0
   45.1440   33.5140   43.6840 N   0  0  0  0  0  0  0  0  0  0  0  0
   46.0160   32.4400   45.6730 C   0  0  1  0  0  0  0  0  0  0  0  0
   46.9730   32.7270   46.8130 C   0  0  0  0  0  0  0  0  0  0  0  0
   45.5590   32.2940   47.0810 C   0  0  1  0  0  0  0  0  0  0  0  0
   44.7860   33.3590   47.7000 N   0  0  0  0  0  0  0  0  0  0  0  0
   42.6795   36.5871   41.4223 H   0  0  0  0  0  0  0  0  0  0  0  0
   40.2666   36.6838   40.9870 H   0  0  0  0  0  0  0  0  0  0  0  0
   39.0075   34.5536   40.6747 H   0  0  0  0  0  0  0  0  0  0  0  0
   40.2078   32.4312   40.8060 H   0  0  0  0  0  0  0  0  0  0  0  0
   43.8284   31.4745   38.6924 H   0  0  0  0  0  0  0  0  0  0  0  0
   45.9854   30.6695   37.8151 H   0  0  0  0  0  0  0  0  0  0  0  0
   47.6943   29.8999   39.3226 H   0  0  0  0  0  0  0  0  0  0  0  0
   47.4750   29.8417   41.7888 H   0  0  0  0  0  0  0  0  0  0  0  0
   45.2980   30.6655   42.6100 H   0  0  0  0  0  0  0  0  0  0  0  0
   43.8490   36.6041   43.1401 H   0  0  0  0  0  0  0  0  0  0  0  0
   44.3948   36.7282   45.6022 H   0  0  0  0  0  0  0  0  0  0  0  0
   46.0744   31.8006   44.7798 H   0  0  0  0  0  0  0  0  0  0  0  0
   47.8090   32.0422   47.0184 H   0  0  0  0  0  0  0  0  0  0  0  0
   47.6017   33.5785   47.1126 H   0  0  0  0  0  0  0  0  0  0  0  0
   45.0340   31.4744   47.5934 H   0  0  0  0  0  0  0  0  0  0  0  0
   44.8463   33.2759   48.7249 H   0  0  0  0  0  0  0  0  0  0  0  0
   45.1627   34.2717   47.4068 H   0  0  0  0  0  0  0  0  0  0  0  0
  1  7  1  0
  1  2  1  0
  2 16  1  0
  3  2  2  0
  4  3  1  0
  5  6  1  0
  5  4  2  0
  6  1  2  0
  7  9  2  0
  8  7  2  0
 10  7  1  0
 10 15  1  0
 11 10  2  0
 12 11  1  0
 12 13  2  0
 13 14  1  0
 14 15  2  0
 16 18  1  0
 17 16  2  0
 18 19  2  0
 18 23  1  0
 19 20  1  0
 20 21  2  0
 22 21  1  0
 22 24  1  0
 23 22  2  0
 24 25  1  0
 24 26  1  0
 25 26  1  0
 26 27  1  0
  3 28  1  0
  4 29  1  0
  5 30  1  0
  6 31  1  0
 11 32  1  0
 12 33  1  0
 13 34  1  0
 14 35  1  0
 15 36  1  0
 19 37  1  0
 20 38  1  0
 24 39  1  6
 25 40  1  0
 25 41  1  0
 26 42  1  6
 27 43  1  0
 27 44  1  0
M  ISO  8  28  14  29  14  30  14  31  14  32  14  33  14  34  14  35  14
M  ISO  8  36  14  37  14  38  14  39  13  40  13  41  13  42  13  43   5
M  ISO  1  44   5
M  END
>  <minimizedAffinity>  (1) 
-5.72198915

>  <minimizedRMSD>  (1) 
0.864726841

$$$$
