
     RDKit          3D

 24 25  0  0  0  0  0  0  0  0999 V2000
   41.6870   35.4110   39.6820 C   0  0  0  0  0  0  0  0  0  0  0  0
   40.4300   34.7670   39.2830 C   0  0  0  0  0  0  0  0  0  0  0  0
   40.1040   34.6460   37.9270 C   0  0  0  0  0  0  0  0  0  0  0  0
   38.9080   34.0330   37.5560 C   0  0  0  0  0  0  0  0  0  0  0  0
   38.0410   33.5410   38.5300 C   0  0  0  0  0  0  0  0  0  0  0  0
   38.3280   33.6410   39.8840 C   0  0  0  0  0  0  0  0  0  0  0  0
   39.5220   34.2570   40.1880 C   0  0  0  0  0  0  0  0  0  0  0  0
   42.0410   35.2680   41.4340 S   0  0  0  0  0  0  0  0  0  0  0  0
   44.4360   35.6780   42.7770 C   0  0  0  0  0  0  0  0  0  0  0  0
   43.8280   35.0980   41.6700 C   0  0  0  0  0  0  0  0  0  0  0  0
   44.5730   34.3810   40.7270 C   0  0  0  0  0  0  0  0  0  0  0  0
   45.9110   34.2930   40.9660 N   0  0  0  0  0  0  0  0  0  0  0  0
   46.4600   34.8650   42.0430 C   0  0  0  0  0  0  0  0  0  0  0  0
   45.7750   35.5530   42.9550 N   0  0  0  0  0  0  0  0  0  0  0  0
   41.6277   36.4789   39.4251 H   0  0  0  0  0  0  0  0  0  0  0  0
   42.4979   34.8966   39.1456 H   0  0  0  0  0  0  0  0  0  0  0  0
   40.7884   35.0328   37.1576 H   0  0  0  0  0  0  0  0  0  0  0  0
   38.6479   33.9374   36.4915 H   0  0  0  0  0  0  0  0  0  0  0  0
   37.1028   33.0599   38.2166 H   0  0  0  0  0  0  0  0  0  0  0  0
   37.6500   33.2556   40.6597 H   0  0  0  0  0  0  0  0  0  0  0  0
   39.7758   34.3513   41.2542 H   0  0  0  0  0  0  0  0  0  0  0  0
   43.8327   36.2372   43.5073 H   0  0  0  0  0  0  0  0  0  0  0  0
   44.1062   33.9165   39.8459 H   0  0  0  0  0  0  0  0  0  0  0  0
   47.5458   34.7607   42.1847 H   0  0  0  0  0  0  0  0  0  0  0  0
  1  8  1  0
  2  1  1  0
  2  7  1  0
  3  2  2  0
  4  3  1  0
  4  5  2  0
  5  6  1  0
  6  7  2  0
  8 10  1  0
  9 14  2  0
 10  9  1  0
 11 12  1  0
 11 10  2  0
 12 13  2  0
 13 14  1  0
  1 15  1  0
  1 16  1  0
  3 17  1  0
  4 18  1  0
  5 19  1  0
  6 20  1  0
  7 21  1  0
  9 22  1  0
 11 23  1  0
 13 24  1  0
M  ISO  8  15   8  16   8  17  14  18  14  19  14  20  14  21  14  22  14
M  ISO  2  23  14  24  14
M  END
>  <minimizedAffinity>  (1) 
-4.75089407

>  <minimizedRMSD>  (1) 
3.40406752

$$$$
