
     RDKit          3D

 46 49  0  0  1  0  0  0  0  0999 V2000
   44.5090   35.5180   45.1360 C   0  0  0  0  0  0  0  0  0  0  0  0
   45.1630   35.5070   43.8810 C   0  0  0  0  0  0  0  0  0  0  0  0
   46.0800   34.5480   43.6240 C   0  0  0  0  0  0  0  0  0  0  0  0
   46.3240   33.6360   44.6010 N   0  0  0  0  0  0  0  0  0  0  0  0
   45.7060   33.6530   45.7740 C   0  0  0  0  0  0  0  0  0  0  0  0
   44.7970   34.5870   46.0570 N   0  0  0  0  0  0  0  0  0  0  0  0
   46.0380   32.6400   46.7410 N   0  0  0  0  0  0  0  0  0  0  0  0
   45.2970   32.3960   47.9290 C   0  0  0  0  0  0  0  0  0  0  0  0
   46.3740   32.0390   48.9390 C   0  0  0  0  0  0  0  0  0  0  0  0
   47.6510   31.9390   48.1710 C   0  0  0  0  0  0  0  0  0  0  0  0
   47.1520   31.7280   46.7410 C   0  0  1  0  0  0  0  0  0  0  0  0
   44.8070   36.5290   42.9400 N   0  0  0  0  0  0  0  0  0  0  0  0
   46.6360   30.0380   46.5540 S   0  0  0  0  0  0  0  0  0  0  0  0
   45.6270   30.5130   43.4130 O   0  0  0  0  0  0  0  0  0  0  0  0
   44.9950   29.9780   44.3370 C   0  0  0  0  0  0  0  0  0  0  0  0
   45.0850   29.7560   45.8040 C   0  0  1  0  0  0  0  0  0  0  0  0
   44.5410   28.3560   45.9360 C   0  0  0  0  0  0  0  0  0  0  0  0
   43.2280   28.5750   45.1750 C   0  0  0  0  0  0  0  0  0  0  0  0
   43.7480   29.3210   44.0340 N   0  0  0  0  0  0  0  0  0  0  0  0
   42.9690   29.2880   42.8340 C   0  0  0  0  0  0  0  0  0  0  0  0
   43.1930   28.5260   41.7340 C   0  0  0  0  0  0  0  0  0  0  0  0
   42.3210   28.6270   40.6510 C   0  0  0  0  0  0  0  0  0  0  0  0
   41.2350   29.5060   40.7110 C   0  0  0  0  0  0  0  0  0  0  0  0
   41.0140   30.2780   41.8330 C   0  0  0  0  0  0  0  0  0  0  0  0
   41.8870   30.1670   42.9000 C   0  0  0  0  0  0  0  0  0  0  0  0
   43.7611   36.2938   45.3569 H   0  0  0  0  0  0  0  0  0  0  0  0
   46.6088   34.5074   42.6603 H   0  0  0  0  0  0  0  0  0  0  0  0
   44.7447   33.2945   48.2415 H   0  0  0  0  0  0  0  0  0  0  0  0
   44.5369   31.6096   47.8109 H   0  0  0  0  0  0  0  0  0  0  0  0
   46.4514   32.8230   49.7066 H   0  0  0  0  0  0  0  0  0  0  0  0
   46.1421   31.0954   49.4546 H   0  0  0  0  0  0  0  0  0  0  0  0
   48.2406   32.8638   48.2553 H   0  0  0  0  0  0  0  0  0  0  0  0
   48.3196   31.1416   48.5276 H   0  0  0  0  0  0  0  0  0  0  0  0
   47.8735   31.9037   45.9295 H   0  0  0  0  0  0  0  0  0  0  0  0
   45.2591   36.5574   42.0149 H   0  0  0  0  0  0  0  0  0  0  0  0
   44.0993   37.2346   43.1892 H   0  0  0  0  0  0  0  0  0  0  0  0
   44.5177   30.5061   46.3745 H   0  0  0  0  0  0  0  0  0  0  0  0
   45.1862   27.6091   45.4504 H   0  0  0  0  0  0  0  0  0  0  0  0
   44.4501   27.9642   46.9598 H   0  0  0  0  0  0  0  0  0  0  0  0
   42.7644   27.6252   44.8703 H   0  0  0  0  0  0  0  0  0  0  0  0
   42.4294   29.0746   45.7430 H   0  0  0  0  0  0  0  0  0  0  0  0
   44.0506   27.8382   41.6972 H   0  0  0  0  0  0  0  0  0  0  0  0
   42.4868   28.0165   39.7511 H   0  0  0  0  0  0  0  0  0  0  0  0
   40.5494   29.5828   39.8542 H   0  0  0  0  0  0  0  0  0  0  0  0
   40.1593   30.9690   41.8781 H   0  0  0  0  0  0  0  0  0  0  0  0
   41.7280   30.7736   43.8037 H   0  0  0  0  0  0  0  0  0  0  0  0
  1  6  2  0
  2  1  1  0
  3  2  2  0
  3  4  1  0
  4  5  2  0
  5  6  1  0
  5  7  1  0
  7 11  1  0
  7  8  1  0
  8  9  1  0
 10  9  1  0
 11 10  1  0
 12  2  1  0
 13 11  1  0
 14 15  2  0
 15 16  1  0
 16 17  1  0
 16 13  1  0
 18 17  1  0
 19 15  1  0
 19 18  1  0
 20 25  1  0
 20 19  1  0
 21 20  2  0
 22 23  2  0
 22 21  1  0
 23 24  1  0
 24 25  2  0
  1 26  1  0
  3 27  1  0
  8 28  1  0
  8 29  1  0
  9 30  1  0
  9 31  1  0
 10 32  1  0
 10 33  1  0
 11 34  1  6
 12 35  1  0
 12 36  1  0
 16 37  1  1
 17 38  1  0
 17 39  1  0
 18 40  1  0
 18 41  1  0
 21 42  1  0
 22 43  1  0
 23 44  1  0
 24 45  1  0
 25 46  1  0
M  ISO  8  26  14  27  14  28  13  29  13  30  13  31  13  32  13  33  13
M  ISO  8  34  13  37  13  38  13  39  13  40  13  41  13  42  14  43  14
M  ISO  3  44  14  45  14  46  14
M  END
>  <minimizedAffinity>  (1) 
-5.32496881

>  <minimizedRMSD>  (1) 
0.302103043

$$$$
