
     RDKit          3D

 27 28  0  0  0  0  0  0  0  0999 V2000
   47.0300   34.2940   43.0030 C   0  0  0  0  0  0  0  0  0  0  0  0
   45.8280   34.6420   43.5970 C   0  0  0  0  0  0  0  0  0  0  0  0
   45.2830   33.7640   44.5490 C   0  0  0  0  0  0  0  0  0  0  0  0
   45.9490   32.6340   44.8400 N   0  0  0  0  0  0  0  0  0  0  0  0
   47.1300   32.3240   44.2360 C   0  0  0  0  0  0  0  0  0  0  0  0
   47.6660   33.1490   43.3240 N   0  0  0  0  0  0  0  0  0  0  0  0
   47.8190   31.0860   44.5810 C   0  0  0  0  0  0  0  0  0  0  0  0
   48.7040   30.5200   43.6690 C   0  0  0  0  0  0  0  0  0  0  0  0
   49.3940   29.3570   43.9150 C   0  0  0  0  0  0  0  0  0  0  0  0
   49.1990   28.7190   45.1240 C   0  0  0  0  0  0  0  0  0  0  0  0
   48.3270   29.2460   46.0640 C   0  0  0  0  0  0  0  0  0  0  0  0
   47.6460   30.4260   45.7800 C   0  0  0  0  0  0  0  0  0  0  0  0
   45.1570   35.9180   43.2140 C   0  0  0  0  0  0  0  0  0  0  0  0
   46.1100   36.9250   43.0890 F   0  0  0  0  0  0  0  0  0  0  0  0
   44.5950   35.7440   41.9690 F   0  0  0  0  0  0  0  0  0  0  0  0
   44.2310   36.3670   44.0940 F   0  0  0  0  0  0  0  0  0  0  0  0
   47.5430   35.1530   42.0850 O   0  0  0  0  0  0  0  0  0  0  0  0
   48.8560   35.1960   41.5990 C   0  0  0  0  0  0  0  0  0  0  0  0
   49.6930   35.4330   42.7070 F   0  0  0  0  0  0  0  0  0  0  0  0
   49.1690   34.0150   40.9720 F   0  0  0  0  0  0  0  0  0  0  0  0
   49.0380   36.2980   40.7890 F   0  0  0  0  0  0  0  0  0  0  0  0
   44.3299   33.9972   45.0462 H   0  0  0  0  0  0  0  0  0  0  0  0
   48.8589   31.0273   42.7053 H   0  0  0  0  0  0  0  0  0  0  0  0
   50.0857   28.9440   43.1660 H   0  0  0  0  0  0  0  0  0  0  0  0
   49.7393   27.7861   45.3427 H   0  0  0  0  0  0  0  0  0  0  0  0
   48.1746   28.7357   47.0265 H   0  0  0  0  0  0  0  0  0  0  0  0
   46.9547   30.8415   46.5279 H   0  0  0  0  0  0  0  0  0  0  0  0
  1  6  2  0
  1  2  1  0
  2  3  2  0
  3  4  1  0
  5  7  1  0
  5  4  2  0
  6  5  1  0
  7 12  2  0
  8  9  2  0
  8  7  1  0
  9 10  1  0
 10 11  2  0
 12 11  1  0
 13  2  1  0
 13 16  1  0
 14 13  1  0
 15 13  1  0
 17  1  1  0
 18 17  1  0
 18 19  1  0
 20 18  1  0
 21 18  1  0
  3 22  1  0
  8 23  1  0
  9 24  1  0
 10 25  1  0
 11 26  1  0
 12 27  1  0
M  ISO  6  22  14  23  14  24  14  25  14  26  14  27  14
M  END
>  <minimizedAffinity>  (1) 
-5.08630419

>  <minimizedRMSD>  (1) 
0.784069061

$$$$
