
     RDKit          3D

 26 27  0  0  0  0  0  0  0  0999 V2000
   45.6930   34.5360   44.2020 C   0  0  0  0  0  0  0  0  0  0  0  0
   46.7750   34.2660   43.3630 C   0  0  0  0  0  0  0  0  0  0  0  0
   47.5670   33.1630   43.6920 C   0  0  0  0  0  0  0  0  0  0  0  0
   47.2490   32.4310   44.7860 N   0  0  0  0  0  0  0  0  0  0  0  0
   46.1880   32.7260   45.5770 C   0  0  0  0  0  0  0  0  0  0  0  0
   45.4150   33.7800   45.2800 N   0  0  0  0  0  0  0  0  0  0  0  0
   45.8640   31.9230   46.7510 C   0  0  0  0  0  0  0  0  0  0  0  0
   45.7690   32.5500   47.9860 C   0  0  0  0  0  0  0  0  0  0  0  0
   45.4680   31.8750   49.1520 C   0  0  0  0  0  0  0  0  0  0  0  0
   45.2470   30.5110   49.1020 C   0  0  0  0  0  0  0  0  0  0  0  0
   45.3440   29.8920   47.8570 C   0  0  0  0  0  0  0  0  0  0  0  0
   45.6470   30.5600   46.6750 C   0  0  0  0  0  0  0  0  0  0  0  0
   47.0160   35.1200   42.2220 C   0  0  0  0  0  0  0  0  0  0  0  0
   48.5100   35.1530   41.9500 C   0  0  0  0  0  0  0  0  0  0  0  0
   45.0456   35.3957   43.9745 H   0  0  0  0  0  0  0  0  0  0  0  0
   48.4350   32.8935   43.0723 H   0  0  0  0  0  0  0  0  0  0  0  0
   45.9416   33.6351   48.0379 H   0  0  0  0  0  0  0  0  0  0  0  0
   45.4048   32.4151   50.1082 H   0  0  0  0  0  0  0  0  0  0  0  0
   45.0043   29.9373   50.0086 H   0  0  0  0  0  0  0  0  0  0  0  0
   45.1700   28.8071   47.8059 H   0  0  0  0  0  0  0  0  0  0  0  0
   45.7114   30.0241   45.7166 H   0  0  0  0  0  0  0  0  0  0  0  0
   46.4878   34.7222   41.3430 H   0  0  0  0  0  0  0  0  0  0  0  0
   46.6485   36.1361   42.4281 H   0  0  0  0  0  0  0  0  0  0  0  0
   49.0563   35.1651   42.9047 H   0  0  0  0  0  0  0  0  0  0  0  0
   48.7977   34.2610   41.3742 H   0  0  0  0  0  0  0  0  0  0  0  0
   48.7580   36.0568   41.3742 H   0  0  0  0  0  0  0  0  0  0  0  0
  1  6  2  0
  2  3  2  0
  2  1  1  0
  3  4  1  0
  4  5  2  0
  5  7  1  0
  6  5  1  0
  7  8  2  0
  8  9  1  0
 10  9  2  0
 11 10  1  0
 12  7  1  0
 12 11  2  0
 13  2  1  0
 14 13  1  0
  1 15  1  0
  3 16  1  0
  8 17  1  0
  9 18  1  0
 10 19  1  0
 11 20  1  0
 12 21  1  0
 13 22  1  0
 13 23  1  0
 14 24  1  0
 14 25  1  0
 14 26  1  0
M  ISO  8  15  14  16  14  17  14  18  14  19  14  20  14  21  14  22   8
M  ISO  4  23   8  24   8  25   8  26   8
M  END
>  <minimizedAffinity>  (1) 
-4.70856476

>  <minimizedRMSD>  (1) 
1.95634615

$$$$
