
     RDKit          3D

 22 23  0  0  0  0  0  0  0  0999 V2000
   46.2100   34.4600   43.6690 C   0  0  0  0  0  0  0  0  0  0  0  0
   45.2370   35.4490   43.7910 C   0  0  0  0  0  0  0  0  0  0  0  0
   44.5280   35.5350   44.9970 C   0  0  0  0  0  0  0  0  0  0  0  0
   44.8580   34.6300   45.9630 N   0  0  0  0  0  0  0  0  0  0  0  0
   45.8010   33.6950   45.8040 C   0  0  0  0  0  0  0  0  0  0  0  0
   46.4810   33.6070   44.6540 N   0  0  0  0  0  0  0  0  0  0  0  0
   46.0710   32.7780   46.9060 C   0  0  0  0  0  0  0  0  0  0  0  0
   45.1460   32.6360   47.9240 C   0  0  0  0  0  0  0  0  0  0  0  0
   45.3690   31.7850   48.9720 C   0  0  0  0  0  0  0  0  0  0  0  0
   46.5540   31.0720   48.9760 C   0  0  0  0  0  0  0  0  0  0  0  0
   47.4810   31.2100   47.9640 C   0  0  0  0  0  0  0  0  0  0  0  0
   47.2680   32.0680   46.8970 C   0  0  0  0  0  0  0  0  0  0  0  0
   46.8820   34.4550   42.3910 C   0  0  0  0  0  0  0  0  0  0  0  0
   47.6960   35.3410   41.9790 O   0  0  0  0  0  0  0  0  0  0  0  0
   45.0306   36.1437   42.9635 H   0  0  0  0  0  0  0  0  0  0  0  0
   43.7464   36.2925   45.1562 H   0  0  0  0  0  0  0  0  0  0  0  0
   44.2133   33.2182   47.8907 H   0  0  0  0  0  0  0  0  0  0  0  0
   44.6328   31.6721   49.7815 H   0  0  0  0  0  0  0  0  0  0  0  0
   46.7619   30.3793   49.8048 H   0  0  0  0  0  0  0  0  0  0  0  0
   48.4116   30.6249   48.0050 H   0  0  0  0  0  0  0  0  0  0  0  0
   48.0042   32.1817   46.0876 H   0  0  0  0  0  0  0  0  0  0  0  0
   46.6718   33.6125   41.7158 H   0  0  0  0  0  0  0  0  0  0  0  0
  1  2  2  0
  1  6  1  0
  2  3  1  0
  3  4  2  0
  5  4  1  0
  5  7  1  0
  6  5  2  0
  7  8  2  0
  8  9  1  0
  9 10  2  0
 11 10  1  0
 12  7  1  0
 12 11  2  0
 13  1  1  0
 14 13  2  0
  2 15  1  0
  3 16  1  0
  8 17  1  0
  9 18  1  0
 10 19  1  0
 11 20  1  0
 12 21  1  0
 13 22  1  0
M  ISO  8  15  14  16  14  17  14  18  14  19  14  20  14  21  14  22   6
M  END
>  <minimizedAffinity>  (1) 
-4.91149426

>  <minimizedRMSD>  (1) 
0.834225297

$$$$
