
     RDKit          3D

 30 32  0  0  0  0  0  0  0  0999 V2000
   47.3410   33.8770   39.7760 C   0  0  0  0  0  0  0  0  0  0  0  0
   48.3100   34.6460   39.1920 C   0  0  0  0  0  0  0  0  0  0  0  0
   48.3290   34.3680   37.8430 C   0  0  0  0  0  0  0  0  0  0  0  0
   47.3340   33.4080   37.6650 C   0  0  0  0  0  0  0  0  0  0  0  0
   46.7670   33.1380   38.8320 O   0  0  0  0  0  0  0  0  0  0  0  0
   46.9990   32.8140   36.3720 C   0  0  0  0  0  0  0  0  0  0  0  0
   45.6670   32.5810   36.0080 C   0  0  0  0  0  0  0  0  0  0  0  0
   45.3950   32.0110   34.7610 C   0  0  0  0  0  0  0  0  0  0  0  0
   46.4210   31.6810   33.8980 C   0  0  0  0  0  0  0  0  0  0  0  0
   47.7290   31.9210   34.2760 C   0  0  0  0  0  0  0  0  0  0  0  0
   48.0110   32.4780   35.4930 C   0  0  0  0  0  0  0  0  0  0  0  0
   46.9130   33.7740   41.1160 O   0  0  0  0  0  0  0  0  0  0  0  0
   47.2020   34.7840   42.0380 C   0  0  0  0  0  0  0  0  0  0  0  0
   48.1740   35.5340   41.7550 O   0  0  0  0  0  0  0  0  0  0  0  0
   46.3640   34.8400   43.1830 C   0  0  0  0  0  0  0  0  0  0  0  0
   45.4790   35.9190   43.1560 C   0  0  0  0  0  0  0  0  0  0  0  0
   44.6130   36.0410   44.2630 C   0  0  0  0  0  0  0  0  0  0  0  0
   44.6910   35.1220   45.2670 N   0  0  0  0  0  0  0  0  0  0  0  0
   45.5710   34.1090   45.2200 C   0  0  0  0  0  0  0  0  0  0  0  0
   46.4130   33.9650   44.1750 N   0  0  0  0  0  0  0  0  0  0  0  0
   48.9624   35.3636   39.7109 H   0  0  0  0  0  0  0  0  0  0  0  0
   48.9843   34.8065   37.0760 H   0  0  0  0  0  0  0  0  0  0  0  0
   44.8471   32.8426   36.6931 H   0  0  0  0  0  0  0  0  0  0  0  0
   44.3526   31.8234   34.4641 H   0  0  0  0  0  0  0  0  0  0  0  0
   46.1998   31.2313   32.9188 H   0  0  0  0  0  0  0  0  0  0  0  0
   48.5504   31.6617   33.5918 H   0  0  0  0  0  0  0  0  0  0  0  0
   49.0581   32.6611   35.7760 H   0  0  0  0  0  0  0  0  0  0  0  0
   45.4580   36.6332   42.3196 H   0  0  0  0  0  0  0  0  0  0  0  0
   43.8861   36.8649   44.3153 H   0  0  0  0  0  0  0  0  0  0  0  0
   45.6063   33.3844   46.0469 H   0  0  0  0  0  0  0  0  0  0  0  0
  1 12  1  0
  2  1  2  0
  3  2  1  0
  4  3  2  0
  4  5  1  0
  5  1  1  0
  6  4  1  0
  7  6  2  0
  8  7  1  0
  9 10  1  0
  9  8  2  0
 10 11  2  0
 11  6  1  0
 12 13  1  0
 13 15  1  0
 14 13  2  0
 15 20  1  0
 16 15  2  0
 16 17  1  0
 17 18  2  0
 19 18  1  0
 20 19  2  0
  2 21  1  0
  3 22  1  0
  7 23  1  0
  8 24  1  0
  9 25  1  0
 10 26  1  0
 11 27  1  0
 16 28  1  0
 17 29  1  0
 19 30  1  0
M  ISO  8  21  14  22  14  23  14  24  14  25  14  26  14  27  14  28  14
M  ISO  2  29  14  30  14
M  END
>  <minimizedAffinity>  (1) 
-5.1042738

>  <minimizedRMSD>  (1) 
0.881037414

$$$$
