
     RDKit          3D

 30 32  0  0  0  0  0  0  0  0999 V2000
   46.3060   33.1580   38.2900 Cl  0  0  0  0  0  0  0  0  0  0  0  0
   46.9100   33.9710   39.7160 C   0  0  0  0  0  0  0  0  0  0  0  0
   46.1690   34.0620   40.8650 C   0  0  0  0  0  0  0  0  0  0  0  0
   46.7400   34.7200   41.9170 C   0  0  0  0  0  0  0  0  0  0  0  0
   47.9900   35.2720   41.8580 C   0  0  0  0  0  0  0  0  0  0  0  0
   48.7310   35.1770   40.6970 C   0  0  0  0  0  0  0  0  0  0  0  0
   48.1740   34.5200   39.6320 C   0  0  0  0  0  0  0  0  0  0  0  0
   42.4340   33.5450   40.5380 C   0  0  0  0  0  0  0  0  0  0  0  0
   43.6960   34.1490   40.5120 C   0  0  0  0  0  0  0  0  0  0  0  0
   44.8530   33.4660   40.8850 C   0  0  0  0  0  0  0  0  0  0  0  0
   44.6520   32.1840   41.2690 N   0  0  0  0  0  0  0  0  0  0  0  0
   43.4440   31.6050   41.2940 C   0  0  0  0  0  0  0  0  0  0  0  0
   42.3260   32.2800   40.9290 N   0  0  0  0  0  0  0  0  0  0  0  0
   46.0390   34.8630   43.1700 C   0  0  0  0  0  0  0  0  0  0  0  0
   45.2560   36.0130   43.3330 C   0  0  0  0  0  0  0  0  0  0  0  0
   44.5540   36.2370   44.5000 C   0  0  0  0  0  0  0  0  0  0  0  0
   44.6010   35.3330   45.5490 C   0  0  0  0  0  0  0  0  0  0  0  0
   45.3650   34.1940   45.4090 C   0  0  0  0  0  0  0  0  0  0  0  0
   46.0600   33.9870   44.2360 C   0  0  0  0  0  0  0  0  0  0  0  0
   48.4045   35.7911   42.7347 H   0  0  0  0  0  0  0  0  0  0  0  0
   49.7376   35.6154   40.6293 H   0  0  0  0  0  0  0  0  0  0  0  0
   48.7428   34.4283   38.6949 H   0  0  0  0  0  0  0  0  0  0  0  0
   41.5404   34.1119   40.2377 H   0  0  0  0  0  0  0  0  0  0  0  0
   43.7780   35.1966   40.1867 H   0  0  0  0  0  0  0  0  0  0  0  0
   43.3571   30.5575   41.6182 H   0  0  0  0  0  0  0  0  0  0  0  0
   45.1997   36.7494   42.5178 H   0  0  0  0  0  0  0  0  0  0  0  0
   43.9468   37.1489   44.5990 H   0  0  0  0  0  0  0  0  0  0  0  0
   44.0393   35.5206   46.4760 H   0  0  0  0  0  0  0  0  0  0  0  0
   45.4197   33.4579   46.2246 H   0  0  0  0  0  0  0  0  0  0  0  0
   46.6648   33.0727   44.1451 H   0  0  0  0  0  0  0  0  0  0  0  0
  1  2  1  0
  2  3  2  0
  3 10  1  0
  3  4  1  0
  4 14  1  0
  5  4  2  0
  6  5  1  0
  7  2  1  0
  7  6  2  0
  8 13  2  0
  9  8  1  0
  9 10  2  0
 10 11  1  0
 11 12  2  0
 13 12  1  0
 14 15  2  0
 14 19  1  0
 15 16  1  0
 16 17  2  0
 18 17  1  0
 19 18  2  0
  5 20  1  0
  6 21  1  0
  7 22  1  0
  8 23  1  0
  9 24  1  0
 12 25  1  0
 15 26  1  0
 16 27  1  0
 17 28  1  0
 18 29  1  0
 19 30  1  0
M  ISO  8  20  14  21  14  22  14  23  14  24  14  25  14  26  14  27  14
M  ISO  3  28  14  29  14  30  14
M  END
>  <minimizedAffinity>  (1) 
-5.83382034

>  <minimizedRMSD>  (1) 
3.9558661

$$$$
