
     RDKit          3D

 47 51  0  0  1  0  0  0  0  0999 V2000
   45.2030   36.0680   43.3420 C   0  0  0  0  0  0  0  0  0  0  0  0
   46.0070   34.9550   43.1450 C   0  0  0  0  0  0  0  0  0  0  0  0
   46.0800   34.0250   44.1520 C   0  0  0  0  0  0  0  0  0  0  0  0
   45.3630   34.2360   45.3010 N   0  0  0  0  0  0  0  0  0  0  0  0
   44.5910   35.3280   45.4650 C   0  0  0  0  0  0  0  0  0  0  0  0
   44.5170   36.2270   44.4950 N   0  0  0  0  0  0  0  0  0  0  0  0
   46.7110   34.8530   41.9460 N   0  0  0  0  0  0  0  0  0  0  0  0
   47.9980   35.4040   41.7650 C   0  0  0  0  0  0  0  0  0  0  0  0
   48.6670   35.0580   40.4630 C   0  0  0  0  0  0  0  0  0  0  0  0
   48.4800   33.7440   40.0090 N   0  0  0  0  0  0  0  0  0  0  0  0
   47.2090   33.2020   40.1870 C   0  0  0  0  0  0  0  0  0  0  0  0
   46.2310   34.1990   40.7760 C   0  0  0  0  0  0  0  0  0  0  0  0
   46.3830   32.0470   45.3920 C   0  0  0  0  0  0  0  0  0  0  0  0
   46.7840   32.8150   44.2770 C   0  0  0  0  0  0  0  0  0  0  0  0
   47.8330   32.1970   43.6200 C   0  0  0  0  0  0  0  0  0  0  0  0
   48.4250   31.0250   43.9680 C   0  0  0  0  0  0  0  0  0  0  0  0
   47.9680   30.3460   45.0810 C   0  0  0  0  0  0  0  0  0  0  0  0
   46.9390   30.8500   45.8040 C   0  0  0  0  0  0  0  0  0  0  0  0
   48.7750   29.2230   45.1630 O   0  0  0  0  0  0  0  0  0  0  0  0
   49.6990   29.1960   44.1020 C   0  0  1  0  0  0  0  0  0  0  0  0
   49.4710   30.3790   43.3270 O   0  0  0  0  0  0  0  0  0  0  0  0
   51.1080   29.1620   44.5010 C   0  0  0  0  0  0  0  0  0  0  0  0
   52.2180   29.6190   43.8240 C   0  0  0  0  0  0  0  0  0  0  0  0
   53.4760   29.5000   44.3630 C   0  0  0  0  0  0  0  0  0  0  0  0
   53.6890   28.9140   45.6140 C   0  0  0  0  0  0  0  0  0  0  0  0
   52.5750   28.4540   46.2970 C   0  0  0  0  0  0  0  0  0  0  0  0
   51.2960   28.5710   45.7560 C   0  0  0  0  0  0  0  0  0  0  0  0
   45.1231   36.8288   42.5516 H   0  0  0  0  0  0  0  0  0  0  0  0
   44.0261   35.4720   46.3979 H   0  0  0  0  0  0  0  0  0  0  0  0
   47.9101   36.4990   41.8217 H   0  0  0  0  0  0  0  0  0  0  0  0
   48.6285   34.9715   42.5558 H   0  0  0  0  0  0  0  0  0  0  0  0
   48.2777   35.7396   39.6924 H   0  0  0  0  0  0  0  0  0  0  0  0
   49.7468   35.1589   40.6468 H   0  0  0  0  0  0  0  0  0  0  0  0
   49.1502   33.1417   40.5080 H   0  0  0  0  0  0  0  0  0  0  0  0
   46.8277   32.8683   39.2106 H   0  0  0  0  0  0  0  0  0  0  0  0
   47.2987   32.3638   40.8937 H   0  0  0  0  0  0  0  0  0  0  0  0
   46.0150   34.9636   40.0153 H   0  0  0  0  0  0  0  0  0  0  0  0
   45.3350   33.6328   41.0705 H   0  0  0  0  0  0  0  0  0  0  0  0
   45.5475   32.4389   45.9907 H   0  0  0  0  0  0  0  0  0  0  0  0
   48.2267   32.7051   42.7273 H   0  0  0  0  0  0  0  0  0  0  0  0
   46.5577   30.3233   46.6912 H   0  0  0  0  0  0  0  0  0  0  0  0
   49.5325   28.2598   43.5490 H   0  0  0  0  0  0  0  0  0  0  0  0
   52.0947   30.0866   42.8360 H   0  0  0  0  0  0  0  0  0  0  0  0
   54.3393   29.8762   43.7945 H   0  0  0  0  0  0  0  0  0  0  0  0
   54.6995   28.8219   46.0387 H   0  0  0  0  0  0  0  0  0  0  0  0
   52.7024   27.9876   47.2850 H   0  0  0  0  0  0  0  0  0  0  0  0
   50.4284   28.1964   46.3189 H   0  0  0  0  0  0  0  0  0  0  0  0
  1  6  2  0
  2  1  1  0
  2  3  2  0
  3 14  1  0
  3  4  1  0
  4  5  2  0
  6  5  1  0
  7  2  1  0
  8  7  1  0
  9  8  1  0
 10 11  1  0
 10  9  1  0
 11 12  1  0
 12  7  1  0
 13 18  2  0
 14 13  1  0
 15 16  1  0
 15 14  2  0
 16 17  2  0
 17 19  1  0
 17 18  1  0
 20 22  1  0
 20 19  1  0
 21 16  1  0
 21 20  1  0
 22 27  2  0
 23 24  2  0
 23 22  1  0
 24 25  1  0
 25 26  2  0
 27 26  1  0
  1 28  1  0
  5 29  1  0
  8 30  1  0
  8 31  1  0
  9 32  1  0
  9 33  1  0
 10 34  1  0
 11 35  1  0
 11 36  1  0
 12 37  1  0
 12 38  1  0
 13 39  1  0
 15 40  1  0
 18 41  1  0
 20 42  1  6
 23 43  1  0
 24 44  1  0
 25 45  1  0
 26 46  1  0
 27 47  1  0
M  ISO  8  28  14  29  14  30  13  31  13  32  13  33  13  34   5  35  13
M  ISO  8  36  13  37  13  38  13  39  14  40  14  41  14  42  13  43  14
M  ISO  4  44  14  45  14  46  14  47  14
M  END
>  <minimizedAffinity>  (1) 
-5.42202473

>  <minimizedRMSD>  (1) 
0.295000225

$$$$
