
     RDKit          3D

 33 35  0  0  0  0  0  0  0  0999 V2000
   44.5150   35.5980   44.0970 C   0  0  0  0  0  0  0  0  0  0  0  0
   44.4770   34.9390   42.8730 C   0  0  0  0  0  0  0  0  0  0  0  0
   44.9060   33.6310   42.8500 C   0  0  0  0  0  0  0  0  0  0  0  0
   45.3330   33.0680   43.9990 N   0  0  0  0  0  0  0  0  0  0  0  0
   45.3590   33.7330   45.1720 C   0  0  0  0  0  0  0  0  0  0  0  0
   44.9510   35.0080   45.2440 N   0  0  0  0  0  0  0  0  0  0  0  0
   45.8420   33.0270   46.3560 C   0  0  0  0  0  0  0  0  0  0  0  0
   45.1620   33.0980   47.5560 C   0  0  0  0  0  0  0  0  0  0  0  0
   45.6120   32.4320   48.6840 C   0  0  0  0  0  0  0  0  0  0  0  0
   46.7740   31.6880   48.5590 C   0  0  0  0  0  0  0  0  0  0  0  0
   47.4920   31.5820   47.3840 C   0  0  0  0  0  0  0  0  0  0  0  0
   46.9910   32.2760   46.2760 C   0  0  0  0  0  0  0  0  0  0  0  0
   43.9800   35.7210   41.7370 C   0  0  0  0  0  0  0  0  0  0  0  0
   42.7270   35.1440   41.2830 N   0  0  0  0  0  0  0  0  0  0  0  0
   41.5970   35.3990   41.9320 C   0  0  0  0  0  0  0  0  0  0  0  0
   40.4260   34.8230   41.4590 C   0  0  0  0  0  0  0  0  0  0  0  0
   40.4310   34.0130   40.3540 C   0  0  0  0  0  0  0  0  0  0  0  0
   39.3650   33.5040   39.9440 O   0  0  0  0  0  0  0  0  0  0  0  0
   41.6040   33.7740   39.7150 N   0  0  0  0  0  0  0  0  0  0  0  0
   42.7600   34.3380   40.1760 C   0  0  0  0  0  0  0  0  0  0  0  0
   43.8060   34.0780   39.5440 O   0  0  0  0  0  0  0  0  0  0  0  0
   44.1773   36.6440   44.1405 H   0  0  0  0  0  0  0  0  0  0  0  0
   44.9007   33.0559   41.9123 H   0  0  0  0  0  0  0  0  0  0  0  0
   44.2417   33.6974   47.6173 H   0  0  0  0  0  0  0  0  0  0  0  0
   45.0695   32.4913   49.6391 H   0  0  0  0  0  0  0  0  0  0  0  0
   47.1454   31.1519   49.4448 H   0  0  0  0  0  0  0  0  0  0  0  0
   48.4119   30.9821   47.3217 H   0  0  0  0  0  0  0  0  0  0  0  0
   47.5295   32.2191   45.3185 H   0  0  0  0  0  0  0  0  0  0  0  0
   43.8154   36.7628   42.0493 H   0  0  0  0  0  0  0  0  0  0  0  0
   44.7169   35.7031   40.9205 H   0  0  0  0  0  0  0  0  0  0  0  0
   41.5891   36.0486   42.8197 H   0  0  0  0  0  0  0  0  0  0  0  0
   39.4777   35.0203   41.9803 H   0  0  0  0  0  0  0  0  0  0  0  0
   41.6229   33.1676   38.8827 H   0  0  0  0  0  0  0  0  0  0  0  0
  1  6  2  0
  2  1  1  0
  3  2  2  0
  3  4  1  0
  4  5  2  0
  5  6  1  0
  5  7  1  0
  7  8  2  0
  8  9  1  0
 10  9  2  0
 11 10  1  0
 12  7  1  0
 12 11  2  0
 13  2  1  0
 14 13  1  0
 14 15  1  0
 16 15  2  0
 17 16  1  0
 18 17  2  0
 19 20  1  0
 19 17  1  0
 20 14  1  0
 21 20  2  0
  1 22  1  0
  3 23  1  0
  8 24  1  0
  9 25  1  0
 10 26  1  0
 11 27  1  0
 12 28  1  0
 13 29  1  0
 13 30  1  0
 15 31  1  0
 16 32  1  0
 19 33  1  0
M  ISO  8  22  14  23  14  24  14  25  14  26  14  27  14  28  14  29   8
M  ISO  4  30   8  31  14  32  14  33   9
M  END
>  <minimizedAffinity>  (1) 
-5.69403172

>  <minimizedRMSD>  (1) 
1.11251307

$$$$
