
     RDKit          3D

 43 45  0  0  1  0  0  0  0  0999 V2000
   47.6740   32.5870   41.3270 C   0  0  1  0  0  0  0  0  0  0  0  0
   47.0770   31.9380   40.1620 C   0  0  0  0  0  0  0  0  0  0  0  0
   47.9880   32.2670   38.9810 C   0  0  0  0  0  0  0  0  0  0  0  0
   47.8090   33.7500   38.6980 C   0  0  0  0  0  0  0  0  0  0  0  0
   48.0480   34.6340   39.8860 C   0  0  0  0  0  0  0  0  0  0  0  0
   47.6700   34.1140   41.2060 C   0  0  1  0  0  0  0  0  0  0  0  0
   45.4500   31.0110   43.9460 C   0  0  0  0  0  0  0  0  0  0  0  0
   46.0120   31.4170   42.7310 C   0  0  0  0  0  0  0  0  0  0  0  0
   47.1630   32.2040   42.6270 C   0  0  0  0  0  0  0  0  0  0  0  0
   47.7190   32.5600   43.7850 N   0  0  0  0  0  0  0  0  0  0  0  0
   47.1850   32.1740   44.9740 C   0  0  0  0  0  0  0  0  0  0  0  0
   46.0880   31.4240   45.0670 N   0  0  0  0  0  0  0  0  0  0  0  0
   46.4190   34.6910   41.6990 C   0  0  0  0  0  0  0  0  0  0  0  0
   46.2800   35.5500   42.8010 C   0  0  0  0  0  0  0  0  0  0  0  0
   44.9830   35.9860   43.0700 C   0  0  0  0  0  0  0  0  0  0  0  0
   43.9620   35.5490   42.2530 C   0  0  0  0  0  0  0  0  0  0  0  0
   44.1200   34.7040   41.1760 C   0  0  0  0  0  0  0  0  0  0  0  0
   45.3930   34.2830   40.9200 N   0  0  0  0  0  0  0  0  0  0  0  0
   42.9800   34.2900   40.3510 C   0  0  0  0  0  0  0  0  0  0  0  0
   42.0880   33.5810   40.8900 O   0  0  0  0  0  0  0  0  0  0  0  0
   42.8620   34.6560   38.9960 O   0  0  0  0  0  0  0  0  0  0  0  0
   40.5400   34.0600   37.8200 O   0  0  0  0  0  0  0  0  0  0  0  0
   41.3610   35.2060   38.3510 P   0  0  0  0  0  0  0  0  0  0  0  0
   41.7300   36.3280   37.1400 O   0  0  0  0  0  0  0  0  0  0  0  0
   40.4400   36.0070   39.5270 O   0  0  0  0  0  0  0  0  0  0  0  0
   48.7028   32.1988   41.2984 H   0  0  0  0  0  0  0  0  0  0  0  0
   47.0277   30.8498   40.3146 H   0  0  0  0  0  0  0  0  0  0  0  0
   46.0498   32.2907   39.9878 H   0  0  0  0  0  0  0  0  0  0  0  0
   49.0359   32.0529   39.2382 H   0  0  0  0  0  0  0  0  0  0  0  0
   47.7321   31.6601   38.1000 H   0  0  0  0  0  0  0  0  0  0  0  0
   48.5154   34.0381   37.9055 H   0  0  0  0  0  0  0  0  0  0  0  0
   46.7587   33.8919   38.4035 H   0  0  0  0  0  0  0  0  0  0  0  0
   49.1240   34.8602   39.9170 H   0  0  0  0  0  0  0  0  0  0  0  0
   47.3889   35.5002   39.7273 H   0  0  0  0  0  0  0  0  0  0  0  0
   48.4823   34.4531   41.8657 H   0  0  0  0  0  0  0  0  0  0  0  0
   44.5419   30.3917   43.9885 H   0  0  0  0  0  0  0  0  0  0  0  0
   45.5185   31.0978   41.8012 H   0  0  0  0  0  0  0  0  0  0  0  0
   47.6813   32.4956   45.9015 H   0  0  0  0  0  0  0  0  0  0  0  0
   47.1398   35.8594   43.4134 H   0  0  0  0  0  0  0  0  0  0  0  0
   44.7795   36.6621   43.9135 H   0  0  0  0  0  0  0  0  0  0  0  0
   42.9445   35.9015   42.4778 H   0  0  0  0  0  0  0  0  0  0  0  0
   42.0107   37.1816   37.5555 H   0  0  0  0  0  0  0  0  0  0  0  0
   40.7493   35.7380   40.4281 H   0  0  0  0  0  0  0  0  0  0  0  0
  1  9  1  0
  2  1  1  0
  3  2  1  0
  4  3  1  0
  4  5  1  0
  5  6  1  0
  6  1  1  0
  6 13  1  0
  7 12  2  0
  8  7  1  0
  9  8  2  0
  9 10  1  0
 10 11  2  0
 11 12  1  0
 13 14  2  0
 14 15  1  0
 16 15  2  0
 17 16  1  0
 18 17  2  0
 18 13  1  0
 19 20  2  0
 19 17  1  0
 21 19  1  0
 22 23  2  0
 23 21  1  0
 23 25  1  0
 24 23  1  0
  1 26  1  1
  2 27  1  0
  2 28  1  0
  3 29  1  0
  3 30  1  0
  4 31  1  0
  4 32  1  0
  5 33  1  0
  5 34  1  0
  6 35  1  1
  7 36  1  0
  8 37  1  0
 11 38  1  0
 14 39  1  0
 15 40  1  0
 16 41  1  0
 24 42  1  0
 25 43  1  0
M  ISO  8  26  13  27  13  28  13  29  13  30  13  31  13  32  13  33  13
M  ISO  8  34  13  35  13  36  14  37  14  38  14  39  14  40  14  41  14
M  ISO  2  42   3  43   3
M  END
>  <minimizedAffinity>  (1) 
-5.51637316

>  <minimizedRMSD>  (1) 
2.48313022

$$$$
