
     RDKit          3D

 41 42  0  0  0  0  0  0  0  0999 V2000
   48.5370   33.3670   40.4400 C   0  0  0  0  0  0  0  0  0  0  0  0
   48.8470   32.5020   39.4070 C   0  0  0  0  0  0  0  0  0  0  0  0
   49.9540   31.6790   39.4630 C   0  0  0  0  0  0  0  0  0  0  0  0
   50.7310   31.7630   40.5910 N   0  0  0  0  0  0  0  0  0  0  0  0
   50.3900   32.6350   41.5960 C   0  0  0  0  0  0  0  0  0  0  0  0
   49.3180   33.4010   41.4920 N   0  0  0  0  0  0  0  0  0  0  0  0
   47.3320   34.1950   40.2670 C   0  0  0  0  0  0  0  0  0  0  0  0
   46.7210   34.6370   41.5600 C   0  0  0  0  0  0  0  0  0  0  0  0
   45.2340   34.7650   41.5070 C   0  0  0  0  0  0  0  0  0  0  0  0
   44.5450   35.5310   42.4920 C   0  0  0  0  0  0  0  0  0  0  0  0
   42.7920   35.3740   41.9920 S   0  0  0  0  0  0  0  0  0  0  0  0
   43.2750   34.2850   40.5140 C   0  0  0  0  0  0  0  0  0  0  0  0
   44.4080   34.2420   40.6310 N   0  0  0  0  0  0  0  0  0  0  0  0
   42.3450   33.7580   39.6180 O   0  0  0  0  0  0  0  0  0  0  0  0
   40.5360   34.1450   37.7100 O   0  0  0  0  0  0  0  0  0  0  0  0
   41.5490   34.8500   38.5890 P   0  0  0  0  0  0  0  0  0  0  0  0
   40.7310   35.9820   39.5570 O   0  0  0  0  0  0  0  0  0  0  0  0
   42.6830   35.7020   37.6490 O   0  0  0  0  0  0  0  0  0  0  0  0
   47.7920   32.4290   37.9410 S   0  0  0  0  0  0  0  0  0  0  0  0
   48.6530   33.1620   36.5270 C   0  0  0  0  0  0  0  0  0  0  0  0
   48.2060   32.4690   35.2820 C   0  0  0  0  0  0  0  0  0  0  0  0
   49.2540   32.4980   34.3600 O   0  0  0  0  0  0  0  0  0  0  0  0
   49.4680   33.8770   32.1620 O   0  0  0  0  0  0  0  0  0  0  0  0
   48.6590   32.7650   32.7830 P   0  0  0  0  0  0  0  0  0  0  0  0
   47.0370   33.2110   32.9370 O   0  0  0  0  0  0  0  0  0  0  0  0
   48.7960   31.3190   31.8790 O   0  0  0  0  0  0  0  0  0  0  0  0
   50.2013   30.9890   38.6428 H   0  0  0  0  0  0  0  0  0  0  0  0
   51.0165   32.6965   42.4980 H   0  0  0  0  0  0  0  0  0  0  0  0
   47.6042   35.0891   39.6868 H   0  0  0  0  0  0  0  0  0  0  0  0
   46.5843   33.5747   39.7510 H   0  0  0  0  0  0  0  0  0  0  0  0
   46.9790   33.9011   42.3358 H   0  0  0  0  0  0  0  0  0  0  0  0
   47.1227   35.6369   41.7808 H   0  0  0  0  0  0  0  0  0  0  0  0
   44.9653   36.0828   43.3458 H   0  0  0  0  0  0  0  0  0  0  0  0
   40.8836   35.7709   40.5121 H   0  0  0  0  0  0  0  0  0  0  0  0
   43.3152   36.1770   38.2447 H   0  0  0  0  0  0  0  0  0  0  0  0
   48.4115   34.2332   36.4614 H   0  0  0  0  0  0  0  0  0  0  0  0
   49.7401   33.0474   36.6498 H   0  0  0  0  0  0  0  0  0  0  0  0
   47.9423   31.4261   35.5118 H   0  0  0  0  0  0  0  0  0  0  0  0
   47.3223   32.9743   34.8652 H   0  0  0  0  0  0  0  0  0  0  0  0
   46.8022   33.2756   33.8966 H   0  0  0  0  0  0  0  0  0  0  0  0
   48.8689   30.5491   32.4971 H   0  0  0  0  0  0  0  0  0  0  0  0
  1  6  2  0
  2  3  2  0
  2  1  1  0
  3  4  1  0
  4  5  2  0
  6  5  1  0
  7  1  1  0
  7  8  1  0
  9  8  1  0
  9 10  2  0
 11 10  1  0
 12 13  2  0
 12 11  1  0
 13  9  1  0
 14 12  1  0
 15 16  2  0
 16 17  1  0
 16 14  1  0
 18 16  1  0
 19  2  1  0
 20 19  1  0
 21 20  1  0
 22 21  1  0
 23 24  2  0
 24 25  1  0
 24 22  1  0
 26 24  1  0
  3 27  1  0
  5 28  1  0
  7 29  1  0
  7 30  1  0
  8 31  1  0
  8 32  1  0
 10 33  1  0
 17 34  1  0
 18 35  1  0
 20 36  1  0
 20 37  1  0
 21 38  1  0
 21 39  1  0
 25 40  1  0
 26 41  1  0
M  ISO  8  27  14  28  14  29   8  30   8  31   8  32   8  33  14  34   3
M  ISO  7  35   3  36   8  37   8  38   8  39   8  40   3  41   3
M  END
>  <minimizedAffinity>  (1) 
-5.35485363

>  <minimizedRMSD>  (1) 
1.53192985

$$$$
