
     RDKit          3D

 19 19  0  0  0  0  0  0  0  0999 V2000
   45.0570   34.6810   45.1300 C   0  0  0  0  0  0  0  0  0  0  0  0
   45.5990   35.0630   43.8970 C   0  0  0  0  0  0  0  0  0  0  0  0
   46.7360   34.3750   43.4500 C   0  0  0  0  0  0  0  0  0  0  0  0
   47.2400   33.3940   44.2230 N   0  0  0  0  0  0  0  0  0  0  0  0
   46.6910   33.0550   45.4030 C   0  0  0  0  0  0  0  0  0  0  0  0
   45.5930   33.6890   45.8780 N   0  0  0  0  0  0  0  0  0  0  0  0
   44.9080   36.1680   43.1830 C   0  0  0  0  0  0  0  0  0  0  0  0
   47.1960   34.8170   42.2370 O   0  0  0  0  0  0  0  0  0  0  0  0
   49.2100   33.4870   41.2000 O   0  0  0  0  0  0  0  0  0  0  0  0
   48.8440   34.8210   41.7870 P   0  0  0  0  0  0  0  0  0  0  0  0
   49.7660   35.1260   43.1810 O   0  0  0  0  0  0  0  0  0  0  0  0
   49.2270   36.0160   40.6720 O   0  0  0  0  0  0  0  0  0  0  0  0
   44.1649   35.2052   45.5035 H   0  0  0  0  0  0  0  0  0  0  0  0
   47.1435   32.2456   45.9947 H   0  0  0  0  0  0  0  0  0  0  0  0
   44.4733   36.8631   43.9164 H   0  0  0  0  0  0  0  0  0  0  0  0
   45.6311   36.7056   42.5521 H   0  0  0  0  0  0  0  0  0  0  0  0
   44.1081   35.7532   42.5521 H   0  0  0  0  0  0  0  0  0  0  0  0
   49.2180   34.9447   43.9853 H   0  0  0  0  0  0  0  0  0  0  0  0
   49.4915   36.8413   41.1506 H   0  0  0  0  0  0  0  0  0  0  0  0
  1  6  2  0
  2  1  1  0
  3  2  2  0
  3  4  1  0
  4  5  2  0
  5  6  1  0
  7  2  1  0
  8  3  1  0
  9 10  2  0
 10  8  1  0
 10 11  1  0
 12 10  1  0
  1 13  1  0
  5 14  1  0
  7 15  1  0
  7 16  1  0
  7 17  1  0
 11 18  1  0
 12 19  1  0
M  ISO  7  13  14  14  14  15   8  16   8  17   8  18   3  19   3
M  END
>  <minimizedAffinity>  (1) 
-4.58397388

>  <minimizedRMSD>  (1) 
2.05490828

$$$$
