
     RDKit          3D

 39 41  0  0  1  0  0  0  0  0999 V2000
   45.1800   34.8100   44.7190 C   0  0  0  0  0  0  0  0  0  0  0  0
   46.1080   34.5720   43.7190 C   0  0  0  0  0  0  0  0  0  0  0  0
   46.9500   33.4920   43.9040 C   0  0  0  0  0  0  0  0  0  0  0  0
   46.8770   32.6950   45.0080 N   0  0  0  0  0  0  0  0  0  0  0  0
   45.9500   32.9700   45.9610 C   0  0  0  0  0  0  0  0  0  0  0  0
   45.1070   34.0150   45.8260 N   0  0  0  0  0  0  0  0  0  0  0  0
   47.3240   31.7770   47.6600 C   0  0  2  0  0  0  0  0  0  0  0  0
   45.8940   32.1050   47.1360 C   0  0  1  0  0  0  0  0  0  0  0  0
   45.3900   32.6620   48.2610 O   0  0  0  0  0  0  0  0  0  0  0  0
   45.7090   31.8500   49.3120 C   0  0  0  0  0  0  0  0  0  0  0  0
   46.8890   31.0080   48.9170 C   0  0  2  0  0  0  0  0  0  0  0  0
   47.9350   32.9040   48.0730 O   0  0  0  0  0  0  0  0  0  0  0  0
   47.8690   30.9460   49.8720 O   0  0  0  0  0  0  0  0  0  0  0  0
   46.2090   35.3880   42.5330 C   0  0  0  0  0  0  0  0  0  0  0  0
   45.7740   34.6140   41.3370 C   0  0  0  0  0  0  0  0  0  0  0  0
   44.4490   34.2650   41.0890 C   0  0  0  0  0  0  0  0  0  0  0  0
   44.0590   33.5480   39.9950 C   0  0  0  0  0  0  0  0  0  0  0  0
   45.0450   33.1740   39.1300 C   0  0  0  0  0  0  0  0  0  0  0  0
   46.3550   33.5240   39.3810 C   0  0  0  0  0  0  0  0  0  0  0  0
   46.8240   34.2550   40.4740 C   0  0  0  0  0  0  0  0  0  0  0  0
   48.2630   34.3990   40.4650 C   0  0  0  0  0  0  0  0  0  0  0  0
   48.7170   35.7260   40.2920 F   0  0  0  0  0  0  0  0  0  0  0  0
   49.1160   33.7490   41.2150 F   0  0  0  0  0  0  0  0  0  0  0  0
   48.6550   33.9260   39.1310 F   0  0  0  0  0  0  0  0  0  0  0  0
   44.4867   35.6581   44.6190 H   0  0  0  0  0  0  0  0  0  0  0  0
   47.7041   33.2678   43.1352 H   0  0  0  0  0  0  0  0  0  0  0  0
   48.0000   31.2825   46.9469 H   0  0  0  0  0  0  0  0  0  0  0  0
   45.2825   31.2736   46.7554 H   0  0  0  0  0  0  0  0  0  0  0  0
   45.9656   32.4613   50.1897 H   0  0  0  0  0  0  0  0  0  0  0  0
   44.8536   31.2073   49.5674 H   0  0  0  0  0  0  0  0  0  0  0  0
   46.6651   29.9414   48.7679 H   0  0  0  0  0  0  0  0  0  0  0  0
   47.9483   32.9285   49.0626 H   0  0  0  0  0  0  0  0  0  0  0  0
   47.4556   30.9722   50.7712 H   0  0  0  0  0  0  0  0  0  0  0  0
   45.5667   36.2739   42.6458 H   0  0  0  0  0  0  0  0  0  0  0  0
   47.2559   35.6976   42.3986 H   0  0  0  0  0  0  0  0  0  0  0  0
   43.6801   34.5822   41.8089 H   0  0  0  0  0  0  0  0  0  0  0  0
   43.0051   33.2856   39.8202 H   0  0  0  0  0  0  0  0  0  0  0  0
   44.7948   32.5922   38.2306 H   0  0  0  0  0  0  0  0  0  0  0  0
   47.1051   33.1944   38.6470 H   0  0  0  0  0  0  0  0  0  0  0  0
  1  6  2  0
  2  3  2  0
  2  1  1  0
  3  4  1  0
  4  5  2  0
  5  8  1  0
  6  5  1  0
  7 12  1  0
  7 11  1  0
  8  7  1  0
  8  9  1  0
  9 10  1  0
 11 10  1  0
 11 13  1  0
 14  2  1  0
 15 14  1  0
 16 15  2  0
 17 16  1  0
 18 19  1  0
 18 17  2  0
 19 20  2  0
 20 15  1  0
 21 20  1  0
 21 23  1  0
 22 21  1  0
 24 21  1  0
  1 25  1  0
  3 26  1  0
  7 27  1  6
  8 28  1  6
 10 29  1  0
 10 30  1  0
 11 31  1  6
 12 32  1  0
 13 33  1  0
 14 34  1  0
 14 35  1  0
 16 36  1  0
 17 37  1  0
 18 38  1  0
 19 39  1  0
M  ISO  8  25  14  26  14  27  13  28  13  29  13  30  13  31  13  32   3
M  ISO  7  33   3  34   8  35   8  36  14  37  14  38  14  39  14
M  END
>  <minimizedAffinity>  (1) 
-6.94730139

>  <minimizedRMSD>  (1) 
1.32470655

$$$$
