
     RDKit          3D

 38 41  0  0  0  0  0  0  0  0999 V2000
   46.1130   32.6800   46.9060 C   0  0  0  0  0  0  0  0  0  0  0  0
   47.2350   31.8720   46.9690 C   0  0  0  0  0  0  0  0  0  0  0  0
   47.4420   31.0380   48.0370 C   0  0  0  0  0  0  0  0  0  0  0  0
   46.5250   30.9910   49.0750 C   0  0  0  0  0  0  0  0  0  0  0  0
   45.4110   31.7710   49.0430 C   0  0  0  0  0  0  0  0  0  0  0  0
   45.2290   32.6000   47.9580 C   0  0  0  0  0  0  0  0  0  0  0  0
   44.6980   35.3780   44.8810 C   0  0  0  0  0  0  0  0  0  0  0  0
   45.4300   35.3110   43.6820 C   0  0  0  0  0  0  0  0  0  0  0  0
   46.4200   34.3290   43.5630 C   0  0  0  0  0  0  0  0  0  0  0  0
   46.6490   33.4700   44.6030 N   0  0  0  0  0  0  0  0  0  0  0  0
   45.9110   33.5730   45.7510 C   0  0  0  0  0  0  0  0  0  0  0  0
   44.9430   34.5190   45.8920 N   0  0  0  0  0  0  0  0  0  0  0  0
   48.8930   30.0360   48.0890 S   0  0  0  0  0  0  0  0  0  0  0  0
   49.7940   30.2920   49.5640 C   0  0  0  0  0  0  0  0  0  0  0  0
   50.0110   31.5280   50.1050 N   0  0  0  0  0  0  0  0  0  0  0  0
   50.7170   31.7330   51.2130 C   0  0  0  0  0  0  0  0  0  0  0  0
   51.2370   30.6600   51.8210 N   0  0  0  0  0  0  0  0  0  0  0  0
   51.0760   29.4080   51.3610 C   0  0  0  0  0  0  0  0  0  0  0  0
   51.6380   28.3030   51.9760 C   0  0  0  0  0  0  0  0  0  0  0  0
   51.4690   27.0520   51.4590 C   0  0  0  0  0  0  0  0  0  0  0  0
   50.7310   26.8590   50.3100 C   0  0  0  0  0  0  0  0  0  0  0  0
   50.1580   27.9530   49.6760 C   0  0  0  0  0  0  0  0  0  0  0  0
   50.3360   29.2070   50.2030 C   0  0  0  0  0  0  0  0  0  0  0  0
   49.4800   27.5870   48.4340 C   0  0  0  0  0  0  0  0  0  0  0  0
   48.2150   28.0780   48.2320 F   0  0  0  0  0  0  0  0  0  0  0  0
   49.7980   26.3630   47.9210 F   0  0  0  0  0  0  0  0  0  0  0  0
   50.0390   28.2900   47.3560 F   0  0  0  0  0  0  0  0  0  0  0  0
   47.9703   31.8995   46.1513 H   0  0  0  0  0  0  0  0  0  0  0  0
   46.6988   30.3197   49.9289 H   0  0  0  0  0  0  0  0  0  0  0  0
   44.6759   31.7406   49.8608 H   0  0  0  0  0  0  0  0  0  0  0  0
   44.3290   33.2319   47.9309 H   0  0  0  0  0  0  0  0  0  0  0  0
   43.9146   36.1416   44.9961 H   0  0  0  0  0  0  0  0  0  0  0  0
   45.2295   36.0125   42.8588 H   0  0  0  0  0  0  0  0  0  0  0  0
   47.0107   34.2482   42.6386 H   0  0  0  0  0  0  0  0  0  0  0  0
   50.8679   32.7459   51.6146 H   0  0  0  0  0  0  0  0  0  0  0  0
   52.2290   28.4352   52.8942 H   0  0  0  0  0  0  0  0  0  0  0  0
   51.9261   26.1882   51.9638 H   0  0  0  0  0  0  0  0  0  0  0  0
   50.5976   25.8472   49.8996 H   0  0  0  0  0  0  0  0  0  0  0  0
  1  2  2  0
  1  6  1  0
  2  3  1  0
  3 13  1  0
  3  4  2  0
  5  4  1  0
  6  5  2  0
  7 12  2  0
  8  7  1  0
  9  8  2  0
  9 10  1  0
 10 11  2  0
 11 12  1  0
 11  1  1  0
 13 14  1  0
 14 15  2  0
 14 23  1  0
 15 16  1  0
 16 17  2  0
 18 17  1  0
 18 19  2  0
 20 19  1  0
 21 20  2  0
 22 23  2  0
 22 21  1  0
 23 18  1  0
 24 22  1  0
 25 24  1  0
 26 24  1  0
 27 24  1  0
  2 28  1  0
  4 29  1  0
  5 30  1  0
  6 31  1  0
  7 32  1  0
  8 33  1  0
  9 34  1  0
 16 35  1  0
 19 36  1  0
 20 37  1  0
 21 38  1  0
M  ISO  8  28  14  29  14  30  14  31  14  32  14  33  14  34  14  35  14
M  ISO  3  36  14  37  14  38  14
M  END
>  <minimizedAffinity>  (1) 
-6.55793095

>  <minimizedRMSD>  (1) 
0.306647003

$$$$
