
     RDKit          3D

 27 28  0  0  1  0  0  0  0  0999 V2000
   46.5250   34.0380   41.8070 N   0  0  0  0  0  0  0  0  0  0  0  0
   47.7950   34.1380   41.1810 C   0  0  1  0  0  0  0  0  0  0  0  0
   47.7810   34.1670   39.6890 C   0  0  0  0  0  0  0  0  0  0  0  0
   46.7140   33.5780   39.0030 N   0  0  0  0  0  0  0  0  0  0  0  0
   45.4840   33.4760   39.6710 C   0  0  0  0  0  0  0  0  0  0  0  0
   45.4420   34.3090   40.9160 C   0  0  0  0  0  0  0  0  0  0  0  0
   45.4690   34.4110   43.9070 C   0  0  0  0  0  0  0  0  0  0  0  0
   46.4590   33.7190   43.1780 C   0  0  0  0  0  0  0  0  0  0  0  0
   47.2840   32.8400   43.8520 C   0  0  0  0  0  0  0  0  0  0  0  0
   47.1560   32.6390   45.1890 N   0  0  0  0  0  0  0  0  0  0  0  0
   46.1890   33.3210   45.8840 C   0  0  0  0  0  0  0  0  0  0  0  0
   45.3680   34.1840   45.2510 N   0  0  0  0  0  0  0  0  0  0  0  0
   48.5130   35.4470   41.5820 C   0  0  0  0  0  0  0  0  0  0  0  0
   49.0890   36.1010   40.5530 F   0  0  0  0  0  0  0  0  0  0  0  0
   49.5630   35.1130   42.4500 F   0  0  0  0  0  0  0  0  0  0  0  0
   47.6640   36.2270   42.3450 F   0  0  0  0  0  0  0  0  0  0  0  0
   48.3003   33.2235   41.5250 H   0  0  0  0  0  0  0  0  0  0  0  0
   47.8111   35.2247   39.3883 H   0  0  0  0  0  0  0  0  0  0  0  0
   48.6452   33.5470   39.4083 H   0  0  0  0  0  0  0  0  0  0  0  0
   47.0037   32.6238   38.7451 H   0  0  0  0  0  0  0  0  0  0  0  0
   44.6848   33.8116   38.9938 H   0  0  0  0  0  0  0  0  0  0  0  0
   45.3468   32.4249   39.9647 H   0  0  0  0  0  0  0  0  0  0  0  0
   45.4817   35.3702   40.6290 H   0  0  0  0  0  0  0  0  0  0  0  0
   44.5106   34.0608   41.4460 H   0  0  0  0  0  0  0  0  0  0  0  0
   44.7928   35.1182   43.4044 H   0  0  0  0  0  0  0  0  0  0  0  0
   48.0591   32.2926   43.2956 H   0  0  0  0  0  0  0  0  0  0  0  0
   46.0824   33.1624   46.9673 H   0  0  0  0  0  0  0  0  0  0  0  0
  1  8  1  0
  2 13  1  0
  2  1  1  0
  3  2  1  0
  4  5  1  0
  4  3  1  0
  5  6  1  0
  6  1  1  0
  7 12  2  0
  8  9  2  0
  8  7  1  0
  9 10  1  0
 10 11  2  0
 12 11  1  0
 13 16  1  0
 13 15  1  0
 14 13  1  0
  2 17  1  6
  3 18  1  0
  3 19  1  0
  4 20  1  0
  5 21  1  0
  5 22  1  0
  6 23  1  0
  6 24  1  0
  7 25  1  0
  9 26  1  0
 11 27  1  0
M  ISO  8  17  13  18  13  19  13  20   5  21  13  22  13  23  13  24  13
M  ISO  3  25  14  26  14  27  14
M  END
>  <minimizedAffinity>  (1) 
-4.77237844

>  <minimizedRMSD>  (1) 
2.88189888

$$$$
