
     RDKit          3D

 30 32  0  0  0  0  0  0  0  0999 V2000
   46.2510   33.1230   44.8060 C   0  0  0  0  0  0  0  0  0  0  0  0
   47.3110   33.6110   44.0420 C   0  0  0  0  0  0  0  0  0  0  0  0
   46.8250   34.0800   42.8630 C   0  0  0  0  0  0  0  0  0  0  0  0
   45.4900   33.8830   42.9010 N   0  0  0  0  0  0  0  0  0  0  0  0
   45.1690   33.3150   44.0610 N   0  0  0  0  0  0  0  0  0  0  0  0
   45.2240   32.5210   40.4450 F   0  0  0  0  0  0  0  0  0  0  0  0
   44.3900   33.5460   40.7270 C   0  0  0  0  0  0  0  0  0  0  0  0
   44.5360   34.1960   41.9270 C   0  0  0  0  0  0  0  0  0  0  0  0
   43.6810   35.2640   42.2430 C   0  0  0  0  0  0  0  0  0  0  0  0
   42.6990   35.6930   41.4000 C   0  0  0  0  0  0  0  0  0  0  0  0
   42.5800   35.0250   40.2140 C   0  0  0  0  0  0  0  0  0  0  0  0
   43.4010   33.9730   39.8710 C   0  0  0  0  0  0  0  0  0  0  0  0
   43.2600   33.2590   38.5800 C   0  0  0  0  0  0  0  0  0  0  0  0
   44.3410   33.4810   37.7260 F   0  0  0  0  0  0  0  0  0  0  0  0
   42.0940   33.6650   37.9170 F   0  0  0  0  0  0  0  0  0  0  0  0
   43.1740   31.8930   38.7530 F   0  0  0  0  0  0  0  0  0  0  0  0
   47.4310   31.0690   47.6000 C   0  0  0  0  0  0  0  0  0  0  0  0
   46.5720   31.4540   48.6350 C   0  0  0  0  0  0  0  0  0  0  0  0
   45.5940   32.4130   48.3780 C   0  0  0  0  0  0  0  0  0  0  0  0
   45.5570   32.9030   47.1120 N   0  0  0  0  0  0  0  0  0  0  0  0
   46.3700   32.5410   46.1280 C   0  0  0  0  0  0  0  0  0  0  0  0
   47.3240   31.6110   46.3610 N   0  0  0  0  0  0  0  0  0  0  0  0
   48.3685   33.6154   44.3447 H   0  0  0  0  0  0  0  0  0  0  0  0
   47.4032   34.5298   42.0424 H   0  0  0  0  0  0  0  0  0  0  0  0
   43.8085   35.7748   43.2088 H   0  0  0  0  0  0  0  0  0  0  0  0
   42.0376   36.5324   41.6608 H   0  0  0  0  0  0  0  0  0  0  0  0
   41.7989   35.3391   39.5060 H   0  0  0  0  0  0  0  0  0  0  0  0
   48.2067   30.3136   47.7943 H   0  0  0  0  0  0  0  0  0  0  0  0
   46.6670   31.0069   49.6356 H   0  0  0  0  0  0  0  0  0  0  0  0
   44.8933   32.7530   49.1548 H   0  0  0  0  0  0  0  0  0  0  0  0
  1 21  1  0
  2  1  1  0
  3  4  1  0
  3  2  2  0
  4  5  1  0
  5  1  2  0
  6  7  1  0
  7  8  2  0
  8  9  1  0
  8  4  1  0
 10  9  2  0
 11 10  1  0
 12 11  2  0
 12  7  1  0
 13 16  1  0
 13 12  1  0
 14 13  1  0
 15 13  1  0
 17 18  2  0
 19 18  1  0
 20 19  2  0
 21 22  2  0
 21 20  1  0
 22 17  1  0
  2 23  1  0
  3 24  1  0
  9 25  1  0
 10 26  1  0
 11 27  1  0
 17 28  1  0
 18 29  1  0
 19 30  1  0
M  ISO  8  23  14  24  14  25  14  26  14  27  14  28  14  29  14  30  14
M  END
>  <minimizedAffinity>  (1) 
-4.90461159

>  <minimizedRMSD>  (1) 
0.511348665

$$$$
