
     RDKit          3D

 26 27  0  0  1  0  0  0  0  0999 V2000
   46.9230   34.9560   42.1040 C   0  0  2  0  0  0  0  0  0  0  0  0
   46.2780   34.2300   40.9700 C   0  0  0  0  0  0  0  0  0  0  0  0
   47.4690   34.1100   40.0190 C   0  0  0  0  0  0  0  0  0  0  0  0
   48.6850   34.0060   40.9110 C   0  0  1  0  0  0  0  0  0  0  0  0
   48.1600   34.0820   42.3240 C   0  0  0  0  0  0  0  0  0  0  0  0
   44.4340   36.0360   44.7350 C   0  0  0  0  0  0  0  0  0  0  0  0
   45.1640   36.0730   43.5320 C   0  0  0  0  0  0  0  0  0  0  0  0
   46.0960   35.0370   43.3270 C   0  0  0  0  0  0  0  0  0  0  0  0
   46.2450   34.0600   44.2950 N   0  0  0  0  0  0  0  0  0  0  0  0
   45.5080   34.0950   45.4190 C   0  0  0  0  0  0  0  0  0  0  0  0
   44.6120   35.0660   45.6460 N   0  0  0  0  0  0  0  0  0  0  0  0
   49.3450   32.6700   40.6320 C   0  0  0  0  0  0  0  0  0  0  0  0
   48.5600   31.6790   41.2240 F   0  0  0  0  0  0  0  0  0  0  0  0
   50.6200   32.6130   41.1600 F   0  0  0  0  0  0  0  0  0  0  0  0
   49.3890   32.4880   39.2640 F   0  0  0  0  0  0  0  0  0  0  0  0
   47.1165   36.0156   41.8806 H   0  0  0  0  0  0  0  0  0  0  0  0
   45.9011   33.2437   41.2785 H   0  0  0  0  0  0  0  0  0  0  0  0
   45.3940   34.7276   40.5446 H   0  0  0  0  0  0  0  0  0  0  0  0
   47.5387   34.9992   39.3752 H   0  0  0  0  0  0  0  0  0  0  0  0
   47.3746   33.2401   39.3524 H   0  0  0  0  0  0  0  0  0  0  0  0
   49.4298   34.7978   40.7426 H   0  0  0  0  0  0  0  0  0  0  0  0
   48.8820   34.5604   43.0021 H   0  0  0  0  0  0  0  0  0  0  0  0
   47.9604   33.1087   42.7960 H   0  0  0  0  0  0  0  0  0  0  0  0
   43.6951   36.8260   44.9348 H   0  0  0  0  0  0  0  0  0  0  0  0
   45.0142   36.8707   42.7895 H   0  0  0  0  0  0  0  0  0  0  0  0
   45.6439   33.3055   46.1728 H   0  0  0  0  0  0  0  0  0  0  0  0
  1  5  1  0
  1  8  1  0
  2  1  1  0
  3  4  1  0
  3  2  1  0
  4  5  1  0
  6 11  2  0
  7  6  1  0
  8  7  2  0
  8  9  1  0
  9 10  2  0
 10 11  1  0
 12  4  1  0
 12 14  1  0
 12 13  1  0
 15 12  1  0
  1 16  1  6
  2 17  1  0
  2 18  1  0
  3 19  1  0
  3 20  1  0
  4 21  1  6
  5 22  1  0
  5 23  1  0
  6 24  1  0
  7 25  1  0
 10 26  1  0
M  ISO  8  16  13  17  13  18  13  19  13  20  13  21  13  22  13  23  13
M  ISO  3  24  14  25  14  26  14
M  END
>  <minimizedAffinity>  (1) 
-4.62981939

>  <minimizedRMSD>  (1) 
1.51569843

$$$$
