
     RDKit          3D

 34 36  0  0  1  0  0  0  0  0999 V2000
   47.1660   33.3100   41.2730 N   0  0  0  0  0  0  0  0  0  0  0  0
   46.5260   32.4970   42.2390 C   0  0  1  0  0  0  0  0  0  0  0  0
   46.7960   33.0760   43.6060 C   0  0  0  0  0  0  0  0  0  0  0  0
   46.1410   34.3850   43.6140 N   0  0  0  0  0  0  0  0  0  0  0  0
   46.7530   35.2980   42.6960 C   0  0  0  0  0  0  0  0  0  0  0  0
   47.1270   34.7040   41.3750 C   0  0  1  0  0  0  0  0  0  0  0  0
   43.1180   33.0310   41.4460 C   0  0  0  0  0  0  0  0  0  0  0  0
   43.0070   31.8570   42.1710 C   0  0  0  0  0  0  0  0  0  0  0  0
   44.2480   31.4940   42.5670 C   0  0  0  0  0  0  0  0  0  0  0  0
   45.1010   32.4280   42.0920 N   0  0  0  0  0  0  0  0  0  0  0  0
   44.4100   33.3480   41.4180 N   0  0  0  0  0  0  0  0  0  0  0  0
   41.2170   35.3840   39.3520 C   0  0  0  0  0  0  0  0  0  0  0  0
   39.8850   35.1190   39.7090 C   0  0  0  0  0  0  0  0  0  0  0  0
   39.6600   34.1280   40.6710 C   0  0  0  0  0  0  0  0  0  0  0  0
   40.7330   33.4910   41.1940 N   0  0  0  0  0  0  0  0  0  0  0  0
   42.0000   33.7680   40.8310 C   0  0  0  0  0  0  0  0  0  0  0  0
   42.2490   34.7120   39.9120 N   0  0  0  0  0  0  0  0  0  0  0  0
   48.5400   35.2300   41.0760 C   0  0  0  0  0  0  0  0  0  0  0  0
   49.5080   34.2980   41.4010 F   0  0  0  0  0  0  0  0  0  0  0  0
   48.6740   35.5040   39.7310 F   0  0  0  0  0  0  0  0  0  0  0  0
   48.8180   36.3750   41.7980 F   0  0  0  0  0  0  0  0  0  0  0  0
   46.7482   33.0697   40.3627 H   0  0  0  0  0  0  0  0  0  0  0  0
   46.9300   31.4828   42.1041 H   0  0  0  0  0  0  0  0  0  0  0  0
   46.3715   32.4292   44.3879 H   0  0  0  0  0  0  0  0  0  0  0  0
   47.8741   33.1585   43.8080 H   0  0  0  0  0  0  0  0  0  0  0  0
   45.1522   34.2634   43.3524 H   0  0  0  0  0  0  0  0  0  0  0  0
   46.0486   36.1228   42.5130 H   0  0  0  0  0  0  0  0  0  0  0  0
   47.6926   35.6252   43.1652 H   0  0  0  0  0  0  0  0  0  0  0  0
   46.3324   34.9977   40.6733 H   0  0  0  0  0  0  0  0  0  0  0  0
   42.0743   31.3152   42.3868 H   0  0  0  0  0  0  0  0  0  0  0  0
   44.5125   30.6076   43.1622 H   0  0  0  0  0  0  0  0  0  0  0  0
   41.4265   36.1573   38.5982 H   0  0  0  0  0  0  0  0  0  0  0  0
   39.0504   35.6693   39.2500 H   0  0  0  0  0  0  0  0  0  0  0  0
   38.6393   33.8740   40.9930 H   0  0  0  0  0  0  0  0  0  0  0  0
  1  6  1  0
  1  2  1  0
  2  3  1  0
  3  4  1  0
  5  4  1  0
  6  5  1  0
  7  8  1  0
  8  9  2  0
 10  2  1  0
 10  9  1  0
 11  7  2  0
 11 10  1  0
 12 13  2  0
 12 17  1  0
 13 14  1  0
 14 15  2  0
 16 15  1  0
 16  7  1  0
 17 16  2  0
 18  6  1  0
 18 19  1  0
 18 21  1  0
 20 18  1  0
  1 22  1  0
  2 23  1  1
  3 24  1  0
  3 25  1  0
  4 26  1  0
  5 27  1  0
  5 28  1  0
  6 29  1  6
  8 30  1  0
  9 31  1  0
 12 32  1  0
 13 33  1  0
 14 34  1  0
M  ISO  8  22   5  23  13  24  13  25  13  26   5  27  13  28  13  29  13
M  ISO  5  30  14  31  14  32  14  33  14  34  14
M  END
>  <minimizedAffinity>  (1) 
-5.34241581

>  <minimizedRMSD>  (1) 
7.3981266

$$$$
