
     RDKit          3D

 29 31  0  0  0  0  0  0  0  0999 V2000
   45.5320   36.1810   43.2260 C   0  0  0  0  0  0  0  0  0  0  0  0
   46.1620   34.9440   43.0070 C   0  0  0  0  0  0  0  0  0  0  0  0
   45.9270   33.9880   43.9850 C   0  0  0  0  0  0  0  0  0  0  0  0
   45.1600   34.2150   45.0610 N   0  0  0  0  0  0  0  0  0  0  0  0
   44.5690   35.4330   45.2280 C   0  0  0  0  0  0  0  0  0  0  0  0
   44.7580   36.4030   44.3140 N   0  0  0  0  0  0  0  0  0  0  0  0
   46.5270   32.7270   43.8370 C   0  0  0  0  0  0  0  0  0  0  0  0
   47.7580   32.1970   44.0910 C   0  0  0  0  0  0  0  0  0  0  0  0
   48.0930   30.9430   43.8600 C   0  0  0  0  0  0  0  0  0  0  0  0
   47.1150   30.1620   43.3330 C   0  0  0  0  0  0  0  0  0  0  0  0
   45.6790   31.3030   43.1780 S   0  0  0  0  0  0  0  0  0  0  0  0
   46.9610   34.7570   41.8540 C   0  0  0  0  0  0  0  0  0  0  0  0
   48.1820   35.1160   41.9660 O   0  0  0  0  0  0  0  0  0  0  0  0
   46.3680   34.1740   40.6070 C   0  0  0  0  0  0  0  0  0  0  0  0
   45.0390   33.9030   40.3810 C   0  0  0  0  0  0  0  0  0  0  0  0
   44.9740   33.3920   39.1360 N   0  0  0  0  0  0  0  0  0  0  0  0
   46.2300   33.3560   38.6200 C   0  0  0  0  0  0  0  0  0  0  0  0
   47.1000   33.8440   39.5360 N   0  0  0  0  0  0  0  0  0  0  0  0
   46.5610   32.8470   37.2440 C   0  0  0  0  0  0  0  0  0  0  0  0
   45.4680   33.0390   36.4140 F   0  0  0  0  0  0  0  0  0  0  0  0
   47.6750   33.4440   36.7330 F   0  0  0  0  0  0  0  0  0  0  0  0
   46.8060   31.4850   37.2530 F   0  0  0  0  0  0  0  0  0  0  0  0
   45.6716   36.9901   42.4940 H   0  0  0  0  0  0  0  0  0  0  0  0
   43.9383   35.6225   46.1091 H   0  0  0  0  0  0  0  0  0  0  0  0
   48.5237   32.8615   44.5178 H   0  0  0  0  0  0  0  0  0  0  0  0
   49.0985   30.5549   44.0797 H   0  0  0  0  0  0  0  0  0  0  0  0
   47.1684   29.0972   43.0622 H   0  0  0  0  0  0  0  0  0  0  0  0
   44.2012   34.0692   41.0741 H   0  0  0  0  0  0  0  0  0  0  0  0
   44.1169   33.0812   38.6566 H   0  0  0  0  0  0  0  0  0  0  0  0
  1  6  2  0
  2  1  1  0
  2  3  2  0
  3  4  1  0
  4  5  2  0
  6  5  1  0
  7  3  1  0
  7  8  2  0
  9  8  1  0
 10  9  2  0
 11 10  1  0
 11  7  1  0
 12 13  2  0
 12  2  1  0
 14 12  1  0
 15 14  2  0
 16 15  1  0
 17 16  1  0
 17 18  2  0
 18 14  1  0
 19 22  1  0
 19 17  1  0
 20 19  1  0
 21 19  1  0
  1 23  1  0
  5 24  1  0
  8 25  1  0
  9 26  1  0
 10 27  1  0
 15 28  1  0
 16 29  1  0
M  ISO  7  23  14  24  14  25  14  26  14  27  14  28  14  29   9
M  END
>  <minimizedAffinity>  (1) 
-4.64204788

>  <minimizedRMSD>  (1) 
0.74656868

$$$$
