
     RDKit          3D

 13 13  0  0  0  0  0  0  0  0999 V2000
   44.9290   35.1010   44.9410 C   0  0  0  0  0  0  0  0  0  0  0  0
   45.8180   34.8020   43.8990 C   0  0  0  0  0  0  0  0  0  0  0  0
   46.6960   33.7380   44.0910 C   0  0  0  0  0  0  0  0  0  0  0  0
   46.6590   33.0430   45.2560 N   0  0  0  0  0  0  0  0  0  0  0  0
   45.7790   33.3670   46.2390 C   0  0  0  0  0  0  0  0  0  0  0  0
   44.9180   34.3880   46.0880 N   0  0  0  0  0  0  0  0  0  0  0  0
   45.7380   35.6530   42.6850 C   0  0  0  0  0  0  0  0  0  0  0  0
   45.2940   36.8940   43.1050 F   0  0  0  0  0  0  0  0  0  0  0  0
   44.8520   35.0910   41.8070 F   0  0  0  0  0  0  0  0  0  0  0  0
   47.0210   35.7170   42.1320 F   0  0  0  0  0  0  0  0  0  0  0  0
   44.2235   35.9364   44.8215 H   0  0  0  0  0  0  0  0  0  0  0  0
   47.4140   33.4631   43.3043 H   0  0  0  0  0  0  0  0  0  0  0  0
   45.7710   32.7851   47.1724 H   0  0  0  0  0  0  0  0  0  0  0  0
  1  6  2  0
  2  3  2  0
  2  1  1  0
  3  4  1  0
  4  5  2  0
  6  5  1  0
  7  8  1  0
  7  2  1  0
  9  7  1  0
 10  7  1  0
  1 11  1  0
  3 12  1  0
  5 13  1  0
M  ISO  3  11  14  12  14  13  14
M  END
>  <minimizedAffinity>  (1) 
-3.55380392

>  <minimizedRMSD>  (1) 
1.33704507

$$$$
