
     RDKit          3D

 16 16  0  0  0  0  0  0  0  0999 V2000
   44.8480   35.1470   44.9590 C   0  0  0  0  0  0  0  0  0  0  0  0
   45.4590   35.3020   43.7110 C   0  0  0  0  0  0  0  0  0  0  0  0
   46.4950   34.4380   43.3930 C   0  0  0  0  0  0  0  0  0  0  0  0
   46.8550   33.5020   44.2960 N   0  0  0  0  0  0  0  0  0  0  0  0
   46.2420   33.3770   45.4980 C   0  0  0  0  0  0  0  0  0  0  0  0
   45.2280   34.2010   45.8450 N   0  0  0  0  0  0  0  0  0  0  0  0
   44.9020   36.3920   42.8850 C   0  0  0  0  0  0  0  0  0  0  0  0
   47.1010   34.6390   42.0810 C   0  0  0  0  0  0  0  0  0  0  0  0
   47.7340   35.8540   42.0300 F   0  0  0  0  0  0  0  0  0  0  0  0
   47.9400   33.5970   41.7370 F   0  0  0  0  0  0  0  0  0  0  0  0
   46.0590   34.6790   41.1480 F   0  0  0  0  0  0  0  0  0  0  0  0
   44.0240   35.8233   45.2304 H   0  0  0  0  0  0  0  0  0  0  0  0
   46.5730   32.5966   46.1990 H   0  0  0  0  0  0  0  0  0  0  0  0
   44.4997   37.1792   43.5396 H   0  0  0  0  0  0  0  0  0  0  0  0
   45.6955   36.8131   42.2501 H   0  0  0  0  0  0  0  0  0  0  0  0
   44.0959   35.9957   42.2501 H   0  0  0  0  0  0  0  0  0  0  0  0
  1  6  2  0
  2  1  1  0
  3  2  2  0
  3  4  1  0
  4  5  2  0
  5  6  1  0
  7  2  1  0
  8  3  1  0
  9  8  1  0
 10  8  1  0
 11  8  1  0
  1 12  1  0
  5 13  1  0
  7 14  1  0
  7 15  1  0
  7 16  1  0
M  ISO  5  12  14  13  14  14   8  15   8  16   8
M  END
>  <minimizedAffinity>  (1) 
-3.82225657

>  <minimizedRMSD>  (1) 
1.75381482

$$$$
