
     RDKit          3D

 31 33  0  0  0  0  0  0  0  0999 V2000
   45.6440   34.0420   44.9430 C   0  0  0  0  0  0  0  0  0  0  0  0
   44.8570   35.1440   45.0940 C   0  0  0  0  0  0  0  0  0  0  0  0
   44.5190   35.9960   44.0600 C   0  0  0  0  0  0  0  0  0  0  0  0
   45.0280   35.6640   42.8490 N   0  0  0  0  0  0  0  0  0  0  0  0
   45.8030   34.5780   42.7020 C   0  0  0  0  0  0  0  0  0  0  0  0
   46.1340   33.7420   43.7170 N   0  0  0  0  0  0  0  0  0  0  0  0
   46.3430   34.2440   41.3590 C   0  0  0  0  0  0  0  0  0  0  0  0
   45.5710   33.5040   40.4840 C   0  0  0  0  0  0  0  0  0  0  0  0
   45.9720   33.1400   39.2180 C   0  0  0  0  0  0  0  0  0  0  0  0
   47.2490   33.5580   38.8160 C   0  0  0  0  0  0  0  0  0  0  0  0
   48.0080   34.2880   39.6840 C   0  0  0  0  0  0  0  0  0  0  0  0
   47.5900   34.6430   40.9440 C   0  0  0  0  0  0  0  0  0  0  0  0
   48.4350   35.4390   41.8710 C   0  0  0  0  0  0  0  0  0  0  0  0
   47.6080   36.4110   42.4470 F   0  0  0  0  0  0  0  0  0  0  0  0
   48.9850   34.7210   42.8880 F   0  0  0  0  0  0  0  0  0  0  0  0
   49.3690   36.1430   41.1160 F   0  0  0  0  0  0  0  0  0  0  0  0
   47.3330   31.5170   46.9940 C   0  0  0  0  0  0  0  0  0  0  0  0
   46.5940   31.5470   48.1710 C   0  0  0  0  0  0  0  0  0  0  0  0
   45.5260   32.4220   48.2670 C   0  0  0  0  0  0  0  0  0  0  0  0
   45.2410   33.2270   47.1930 N   0  0  0  0  0  0  0  0  0  0  0  0
   45.9720   33.1770   46.0660 C   0  0  0  0  0  0  0  0  0  0  0  0
   47.0020   32.3350   45.9690 N   0  0  0  0  0  0  0  0  0  0  0  0
   44.4679   35.3686   46.0981 H   0  0  0  0  0  0  0  0  0  0  0  0
   43.8823   36.8805   44.2093 H   0  0  0  0  0  0  0  0  0  0  0  0
   44.5731   33.1856   40.8200 H   0  0  0  0  0  0  0  0  0  0  0  0
   45.3225   32.5502   38.5544 H   0  0  0  0  0  0  0  0  0  0  0  0
   47.6325   33.3016   37.8174 H   0  0  0  0  0  0  0  0  0  0  0  0
   49.0080   34.6095   39.3575 H   0  0  0  0  0  0  0  0  0  0  0  0
   48.1857   30.8290   46.8964 H   0  0  0  0  0  0  0  0  0  0  0  0
   46.8536   30.8867   49.0116 H   0  0  0  0  0  0  0  0  0  0  0  0
   44.9195   32.4710   49.1834 H   0  0  0  0  0  0  0  0  0  0  0  0
  1  2  2  0
  1 21  1  0
  3  2  1  0
  4  3  2  0
  5  4  1  0
  5  6  2  0
  6  1  1  0
  7  5  1  0
  8  7  2  0
  9  8  1  0
 10  9  2  0
 10 11  1  0
 11 12  2  0
 12  7  1  0
 12 13  1  0
 13 14  1  0
 13 15  1  0
 16 13  1  0
 17 18  2  0
 18 19  1  0
 20 19  2  0
 21 20  1  0
 22 21  2  0
 22 17  1  0
  2 23  1  0
  3 24  1  0
  8 25  1  0
  9 26  1  0
 10 27  1  0
 11 28  1  0
 17 29  1  0
 18 30  1  0
 19 31  1  0
M  ISO  8  23  14  24  14  25  14  26  14  27  14  28  14  29  14  30  14
M  ISO  1  31  14
M  END
>  <minimizedAffinity>  (1) 
-6.44527197

>  <minimizedRMSD>  (1) 
1.49907517

$$$$
