
     RDKit          3D

 23 24  0  0  0  0  0  0  0  0999 V2000
   46.7300   34.8030   42.0130 C   0  0  0  0  0  0  0  0  0  0  0  0
   47.9940   35.3260   41.9620 C   0  0  0  0  0  0  0  0  0  0  0  0
   48.7760   35.2310   40.8380 C   0  0  0  0  0  0  0  0  0  0  0  0
   48.2370   34.5790   39.7410 C   0  0  0  0  0  0  0  0  0  0  0  0
   46.9780   34.0330   39.7240 C   0  0  0  0  0  0  0  0  0  0  0  0
   46.2430   34.1710   40.9060 C   0  0  0  0  0  0  0  0  0  0  0  0
   44.4580   36.0700   44.7460 C   0  0  0  0  0  0  0  0  0  0  0  0
   45.1210   36.0320   43.4960 C   0  0  0  0  0  0  0  0  0  0  0  0
   45.9890   34.9600   43.2550 C   0  0  0  0  0  0  0  0  0  0  0  0
   46.1360   34.0390   44.2240 N   0  0  0  0  0  0  0  0  0  0  0  0
   45.4980   34.0860   45.4120 C   0  0  0  0  0  0  0  0  0  0  0  0
   44.6460   35.1220   45.6720 N   0  0  0  0  0  0  0  0  0  0  0  0
   44.8680   33.6090   40.9830 C   0  0  0  0  0  0  0  0  0  0  0  0
   44.5420   32.9180   39.8250 F   0  0  0  0  0  0  0  0  0  0  0  0
   43.9790   34.6680   41.0970 F   0  0  0  0  0  0  0  0  0  0  0  0
   44.7320   32.8210   42.1050 F   0  0  0  0  0  0  0  0  0  0  0  0
   48.3953   35.8381   42.8490 H   0  0  0  0  0  0  0  0  0  0  0  0
   49.7903   35.6557   40.8094 H   0  0  0  0  0  0  0  0  0  0  0  0
   48.8523   34.4942   38.8331 H   0  0  0  0  0  0  0  0  0  0  0  0
   46.5734   33.5204   38.8388 H   0  0  0  0  0  0  0  0  0  0  0  0
   43.7700   36.9006   44.9621 H   0  0  0  0  0  0  0  0  0  0  0  0
   44.9602   36.8160   42.7414 H   0  0  0  0  0  0  0  0  0  0  0  0
   45.6620   33.2990   46.1628 H   0  0  0  0  0  0  0  0  0  0  0  0
  1  9  1  0
  2  1  2  0
  3  2  1  0
  4  3  2  0
  5  4  1  0
  5  6  2  0
  6 13  1  0
  6  1  1  0
  7 12  2  0
  8  7  1  0
  9  8  2  0
  9 10  1  0
 10 11  2  0
 11 12  1  0
 13 15  1  0
 13 16  1  0
 14 13  1  0
  2 17  1  0
  3 18  1  0
  4 19  1  0
  5 20  1  0
  7 21  1  0
  8 22  1  0
 11 23  1  0
M  ISO  7  17  14  18  14  19  14  20  14  21  14  22  14  23  14
M  END
>  <minimizedAffinity>  (1) 
-5.29689693

>  <minimizedRMSD>  (1) 
0.622442544

$$$$
