
     RDKit          3D

 23 24  0  0  1  0  0  0  0  0999 V2000
   46.5100   33.1230   45.6020 C   0  0  0  0  0  0  0  0  0  0  0  0
   47.2540   32.4930   44.5630 C   0  0  0  0  0  0  0  0  0  0  0  0
   47.1140   32.9010   43.2420 C   0  0  0  0  0  0  0  0  0  0  0  0
   46.2320   33.9220   43.0250 N   0  0  0  0  0  0  0  0  0  0  0  0
   45.5410   34.4970   44.0320 C   0  0  0  0  0  0  0  0  0  0  0  0
   45.6780   34.1060   45.2910 N   0  0  0  0  0  0  0  0  0  0  0  0
   46.6870   32.6420   46.9820 C   0  0  1  0  0  0  0  0  0  0  0  0
   45.8940   31.3210   47.2400 C   0  0  1  0  0  0  0  0  0  0  0  0
   47.3860   31.4460   47.3360 C   0  0  0  0  0  0  0  0  0  0  0  0
   45.1750   31.3010   48.5680 C   0  0  0  0  0  0  0  0  0  0  0  0
   45.8880   31.9400   49.5570 F   0  0  0  0  0  0  0  0  0  0  0  0
   43.9590   31.9870   48.4180 F   0  0  0  0  0  0  0  0  0  0  0  0
   44.8440   30.0150   48.9280 F   0  0  0  0  0  0  0  0  0  0  0  0
   44.6270   35.5890   43.6270 C   0  0  0  0  0  0  0  0  0  0  0  0
   43.8910   35.9470   44.7290 F   0  0  0  0  0  0  0  0  0  0  0  0
   43.7750   35.1440   42.6420 F   0  0  0  0  0  0  0  0  0  0  0  0
   45.3100   36.7190   43.2020 F   0  0  0  0  0  0  0  0  0  0  0  0
   47.9467   31.6748   44.8092 H   0  0  0  0  0  0  0  0  0  0  0  0
   47.6778   32.4315   42.4224 H   0  0  0  0  0  0  0  0  0  0  0  0
   46.7917   33.6632   47.3773 H   0  0  0  0  0  0  0  0  0  0  0  0
   45.1797   30.6835   46.6983 H   0  0  0  0  0  0  0  0  0  0  0  0
   48.0165   30.9493   46.5838 H   0  0  0  0  0  0  0  0  0  0  0  0
   48.1104   31.2059   48.1282 H   0  0  0  0  0  0  0  0  0  0  0  0
  1  7  1  0
  2  1  2  0
  3  2  1  0
  4  3  2  0
  4  5  1  0
  5  6  2  0
  6  1  1  0
  7  8  1  0
  7  9  1  0
  8  9  1  0
  8 10  1  0
 10 13  1  0
 10 11  1  0
 12 10  1  0
 14  5  1  0
 14 15  1  0
 16 14  1  0
 17 14  1  0
  2 18  1  0
  3 19  1  0
  7 20  1  1
  8 21  1  6
  9 22  1  0
  9 23  1  0
M  ISO  6  18  14  19  14  20  13  21  13  22  13  23  13
M  END
>  <minimizedAffinity>  (1) 
-5.16113853

>  <minimizedRMSD>  (1) 
5.52368546

$$$$
