
     RDKit          3D

 33 35  0  0  0  0  0  0  0  0999 V2000
   45.0000   33.5140   41.2240 F   0  0  0  0  0  0  0  0  0  0  0  0
   46.2180   34.1500   41.0810 C   0  0  0  0  0  0  0  0  0  0  0  0
   46.7710   34.8080   42.1280 C   0  0  0  0  0  0  0  0  0  0  0  0
   48.0500   35.3020   41.9200 C   0  0  0  0  0  0  0  0  0  0  0  0
   48.7300   35.1350   40.7290 C   0  0  0  0  0  0  0  0  0  0  0  0
   48.0670   34.4490   39.7420 C   0  0  0  0  0  0  0  0  0  0  0  0
   46.8180   33.9500   39.8760 C   0  0  0  0  0  0  0  0  0  0  0  0
   46.2550   33.2940   38.7320 C   0  0  0  0  0  0  0  0  0  0  0  0
   45.0040   32.6880   38.8750 C   0  0  0  0  0  0  0  0  0  0  0  0
   44.5220   32.0050   37.7850 C   0  0  0  0  0  0  0  0  0  0  0  0
   45.2520   31.9220   36.5830 C   0  0  0  0  0  0  0  0  0  0  0  0
   46.4960   32.5550   36.5040 C   0  0  0  0  0  0  0  0  0  0  0  0
   47.0160   33.2530   37.5760 C   0  0  0  0  0  0  0  0  0  0  0  0
   48.3190   33.8070   37.2000 C   0  0  0  0  0  0  0  0  0  0  0  0
   48.5820   33.5500   35.7990 F   0  0  0  0  0  0  0  0  0  0  0  0
   49.4100   33.0290   37.6570 F   0  0  0  0  0  0  0  0  0  0  0  0
   48.4840   35.1430   37.2130 F   0  0  0  0  0  0  0  0  0  0  0  0
   44.4470   35.9540   44.8690 C   0  0  0  0  0  0  0  0  0  0  0  0
   45.1320   35.9160   43.6400 C   0  0  0  0  0  0  0  0  0  0  0  0
   46.0210   34.9090   43.3670 C   0  0  0  0  0  0  0  0  0  0  0  0
   46.1630   34.0050   44.3460 N   0  0  0  0  0  0  0  0  0  0  0  0
   45.5240   34.0260   45.5130 C   0  0  0  0  0  0  0  0  0  0  0  0
   44.6600   35.0110   45.7720 N   0  0  0  0  0  0  0  0  0  0  0  0
   48.5433   35.8493   42.7368 H   0  0  0  0  0  0  0  0  0  0  0  0
   49.7459   35.5297   40.5800 H   0  0  0  0  0  0  0  0  0  0  0  0
   48.5839   34.2960   38.7832 H   0  0  0  0  0  0  0  0  0  0  0  0
   44.4338   32.7546   39.8133 H   0  0  0  0  0  0  0  0  0  0  0  0
   43.5417   31.5106   37.8524 H   0  0  0  0  0  0  0  0  0  0  0  0
   44.8501   31.3687   35.7214 H   0  0  0  0  0  0  0  0  0  0  0  0
   47.0723   32.4958   35.5689 H   0  0  0  0  0  0  0  0  0  0  0  0
   43.7357   36.7665   45.0783 H   0  0  0  0  0  0  0  0  0  0  0  0
   44.9522   36.7018   42.8915 H   0  0  0  0  0  0  0  0  0  0  0  0
   45.7060   33.2381   46.2587 H   0  0  0  0  0  0  0  0  0  0  0  0
  2  1  1  0
  2  3  2  0
  3 20  1  0
  4  3  1  0
  5  4  2  0
  6  7  2  0
  6  5  1  0
  7  2  1  0
  8  9  2  0
  8  7  1  0
 10  9  1  0
 11 10  2  0
 12 11  1  0
 12 13  2  0
 13  8  1  0
 14 17  1  0
 14 13  1  0
 14 16  1  0
 15 14  1  0
 18 23  2  0
 19 18  1  0
 20 19  2  0
 20 21  1  0
 21 22  2  0
 22 23  1  0
  4 24  1  0
  5 25  1  0
  6 26  1  0
  9 27  1  0
 10 28  1  0
 11 29  1  0
 12 30  1  0
 18 31  1  0
 19 32  1  0
 22 33  1  0
M  ISO  8  24  14  25  14  26  14  27  14  28  14  29  14  30  14  31  14
M  ISO  2  32  14  33  14
M  END
>  <minimizedAffinity>  (1) 
-6.61541224

>  <minimizedRMSD>  (1) 
0.74530828

$$$$
