
     RDKit          3D

 29 30  0  0  0  0  0  0  0  0999 V2000
   46.8500   32.7110   46.0990 C   0  0  0  0  0  0  0  0  0  0  0  0
   46.2760   31.8960   47.2140 C   0  0  0  0  0  0  0  0  0  0  0  0
   45.4920   32.3500   48.2880 C   0  0  0  0  0  0  0  0  0  0  0  0
   44.9220   31.5430   49.2370 C   0  0  0  0  0  0  0  0  0  0  0  0
   45.1710   30.2370   49.0630 C   0  0  0  0  0  0  0  0  0  0  0  0
   45.9330   29.7680   48.0330 C   0  0  0  0  0  0  0  0  0  0  0  0
   46.5370   30.5290   47.0520 C   0  0  0  0  0  0  0  0  0  0  0  0
   47.3450   29.6700   46.1630 C   0  0  0  0  0  0  0  0  0  0  0  0
   48.7240   29.8890   46.3520 F   0  0  0  0  0  0  0  0  0  0  0  0
   47.3970   28.3190   46.7360 F   0  0  0  0  0  0  0  0  0  0  0  0
   46.9400   29.3340   44.9450 F   0  0  0  0  0  0  0  0  0  0  0  0
   45.9670   32.6050   44.8780 C   0  0  0  0  0  0  0  0  0  0  0  0
   44.5690   35.9980   44.7860 C   0  0  0  0  0  0  0  0  0  0  0  0
   44.9870   36.4670   43.5160 C   0  0  0  0  0  0  0  0  0  0  0  0
   45.7520   35.6030   42.7560 C   0  0  0  0  0  0  0  0  0  0  0  0
   46.0590   34.3950   43.2320 N   0  0  0  0  0  0  0  0  0  0  0  0
   45.6320   33.9940   44.4550 C   0  0  0  0  0  0  0  0  0  0  0  0
   44.9040   34.7700   45.2230 N   0  0  0  0  0  0  0  0  0  0  0  0
   46.9146   33.7635   46.4122 H   0  0  0  0  0  0  0  0  0  0  0  0
   47.8539   32.3339   45.8541 H   0  0  0  0  0  0  0  0  0  0  0  0
   45.3234   33.4337   48.3731 H   0  0  0  0  0  0  0  0  0  0  0  0
   44.3144   31.9317   50.0675 H   0  0  0  0  0  0  0  0  0  0  0  0
   44.7451   29.5170   49.7772 H   0  0  0  0  0  0  0  0  0  0  0  0
   46.0803   28.6792   47.9790 H   0  0  0  0  0  0  0  0  0  0  0  0
   46.5016   32.0836   44.0703 H   0  0  0  0  0  0  0  0  0  0  0  0
   45.0540   32.0347   45.1045 H   0  0  0  0  0  0  0  0  0  0  0  0
   43.9586   36.6506   45.4275 H   0  0  0  0  0  0  0  0  0  0  0  0
   44.7159   37.4694   43.1530 H   0  0  0  0  0  0  0  0  0  0  0  0
   46.1069   35.9103   41.7612 H   0  0  0  0  0  0  0  0  0  0  0  0
  1  2  1  0
  2  3  2  0
  3  4  1  0
  5  4  2  0
  6  5  1  0
  7  2  1  0
  7  6  2  0
  8  9  1  0
  8 10  1  0
  8  7  1  0
 11  8  1  0
 12  1  1  0
 13 18  2  0
 14 13  1  0
 15 16  1  0
 15 14  2  0
 16 17  2  0
 17 12  1  0
 17 18  1  0
  1 19  1  0
  1 20  1  0
  3 21  1  0
  4 22  1  0
  5 23  1  0
  6 24  1  0
 12 25  1  0
 12 26  1  0
 13 27  1  0
 14 28  1  0
 15 29  1  0
M  ISO  8  19   8  20   8  21  14  22  14  23  14  24  14  25   8  26   8
M  ISO  3  27  14  28  14  29  14
M  END
>  <minimizedAffinity>  (1) 
-4.73923063

>  <minimizedRMSD>  (1) 
0.78221333

$$$$
