
     RDKit          3D

 23 24  0  0  0  0  0  0  0  0999 V2000
   44.0350   32.8690   40.9750 Cl  0  0  0  0  0  0  0  0  0  0  0  0
   45.6040   33.4690   40.5220 C   0  0  0  0  0  0  0  0  0  0  0  0
   46.3740   34.1990   41.3840 C   0  0  0  0  0  0  0  0  0  0  0  0
   47.5990   34.6210   40.9130 C   0  0  0  0  0  0  0  0  0  0  0  0
   48.0360   34.3330   39.6540 C   0  0  0  0  0  0  0  0  0  0  0  0
   47.2710   33.6050   38.7930 C   0  0  0  0  0  0  0  0  0  0  0  0
   46.0380   33.1720   39.2480 C   0  0  0  0  0  0  0  0  0  0  0  0
   44.5280   35.8230   44.2550 C   0  0  0  0  0  0  0  0  0  0  0  0
   45.0240   35.5600   42.9790 C   0  0  0  0  0  0  0  0  0  0  0  0
   45.8580   34.4760   42.7070 C   0  0  0  0  0  0  0  0  0  0  0  0
   46.1510   33.7010   43.7690 N   0  0  0  0  0  0  0  0  0  0  0  0
   45.6770   33.9490   44.9990 C   0  0  0  0  0  0  0  0  0  0  0  0
   44.8760   34.9910   45.2540 N   0  0  0  0  0  0  0  0  0  0  0  0
   48.4450   35.4180   41.8440 C   0  0  0  0  0  0  0  0  0  0  0  0
   49.4120   36.1250   41.1690 F   0  0  0  0  0  0  0  0  0  0  0  0
   49.0010   34.6230   42.8080 F   0  0  0  0  0  0  0  0  0  0  0  0
   47.5910   36.3750   42.4010 F   0  0  0  0  0  0  0  0  0  0  0  0
   49.0225   34.6943   39.3280 H   0  0  0  0  0  0  0  0  0  0  0  0
   47.6198   33.3707   37.7764 H   0  0  0  0  0  0  0  0  0  0  0  0
   45.3931   32.5806   38.5814 H   0  0  0  0  0  0  0  0  0  0  0  0
   43.8711   36.6857   44.4400 H   0  0  0  0  0  0  0  0  0  0  0  0
   44.7468   36.2336   42.1548 H   0  0  0  0  0  0  0  0  0  0  0  0
   45.9549   33.2757   45.8233 H   0  0  0  0  0  0  0  0  0  0  0  0
  2  1  1  0
  2  3  2  0
  3 10  1  0
  4  3  1  0
  4 14  1  0
  5  4  2  0
  6  7  2  0
  6  5  1  0
  7  2  1  0
  8 13  2  0
  9  8  1  0
 10  9  2  0
 10 11  1  0
 11 12  2  0
 12 13  1  0
 14 17  1  0
 14 16  1  0
 15 14  1  0
  5 18  1  0
  6 19  1  0
  7 20  1  0
  8 21  1  0
  9 22  1  0
 12 23  1  0
M  ISO  6  18  14  19  14  20  14  21  14  22  14  23  14
M  END
>  <minimizedAffinity>  (1) 
-5.30742979

>  <minimizedRMSD>  (1) 
1.07064891

$$$$
