
     RDKit          3D

 40 41  0  0  0  0  0  0  0  0999 V2000
   45.3000   34.2420   43.7610 C   0  0  0  0  0  0  0  0  0  0  0  0
   46.4540   34.7520   43.1470 C   0  0  0  0  0  0  0  0  0  0  0  0
   47.6450   34.0890   43.2910 C   0  0  0  0  0  0  0  0  0  0  0  0
   47.6170   32.9690   44.0330 N   0  0  0  0  0  0  0  0  0  0  0  0
   46.5240   32.4900   44.6120 C   0  0  0  0  0  0  0  0  0  0  0  0
   45.3680   33.1280   44.4730 N   0  0  0  0  0  0  0  0  0  0  0  0
   48.9090   34.5070   42.6650 C   0  0  0  0  0  0  0  0  0  0  0  0
   48.7350   35.6490   41.7150 C   0  0  0  0  0  0  0  0  0  0  0  0
   48.6150   35.2710   40.3100 C   0  0  0  0  0  0  0  0  0  0  0  0
   48.0490   34.3530   39.5380 C   0  0  0  0  0  0  0  0  0  0  0  0
   48.2250   34.2070   38.0350 C   0  0  0  0  0  0  0  0  0  0  0  0
   46.5150   31.3430   45.3680 O   0  0  0  0  0  0  0  0  0  0  0  0
   45.4620   30.1460   47.2350 C   0  0  0  0  0  0  0  0  0  0  0  0
   46.0610   31.2230   46.6760 C   0  0  0  0  0  0  0  0  0  0  0  0
   46.2760   32.3520   47.4410 C   0  0  0  0  0  0  0  0  0  0  0  0
   45.9080   32.4370   48.7590 C   0  0  0  0  0  0  0  0  0  0  0  0
   45.2930   31.3380   49.3430 C   0  0  0  0  0  0  0  0  0  0  0  0
   45.0780   30.2070   48.5720 C   0  0  0  0  0  0  0  0  0  0  0  0
   45.1130   28.8080   46.2030 S   0  0  0  0  0  0  0  0  0  0  0  0
   44.2270   29.1340   45.0610 O   0  0  0  0  0  0  0  0  0  0  0  0
   44.2840   27.8360   47.0750 O   0  0  0  0  0  0  0  0  0  0  0  0
   46.4620   27.7400   45.8170 C   0  0  0  0  0  0  0  0  0  0  0  0
   46.5030   26.8510   46.9290 F   0  0  0  0  0  0  0  0  0  0  0  0
   47.6260   28.4150   45.8270 F   0  0  0  0  0  0  0  0  0  0  0  0
   46.2490   26.8800   44.7740 F   0  0  0  0  0  0  0  0  0  0  0  0
   44.3398   34.7673   43.6509 H   0  0  0  0  0  0  0  0  0  0  0  0
   46.4032   35.6773   42.5543 H   0  0  0  0  0  0  0  0  0  0  0  0
   49.6094   34.8118   43.4566 H   0  0  0  0  0  0  0  0  0  0  0  0
   49.2920   33.6519   42.0886 H   0  0  0  0  0  0  0  0  0  0  0  0
   47.8234   36.1943   42.0005 H   0  0  0  0  0  0  0  0  0  0  0  0
   49.6496   36.2552   41.7928 H   0  0  0  0  0  0  0  0  0  0  0  0
   49.1793   35.9806   39.6871 H   0  0  0  0  0  0  0  0  0  0  0  0
   47.3879   33.6266   40.0334 H   0  0  0  0  0  0  0  0  0  0  0  0
   49.0566   33.5172   37.8285 H   0  0  0  0  0  0  0  0  0  0  0  0
   47.2995   33.8078   37.5945 H   0  0  0  0  0  0  0  0  0  0  0  0
   48.4463   35.1904   37.5945 H   0  0  0  0  0  0  0  0  0  0  0  0
   46.7632   33.2202   46.9732 H   0  0  0  0  0  0  0  0  0  0  0  0
   46.0953   33.3527   49.3389 H   0  0  0  0  0  0  0  0  0  0  0  0
   44.9823   31.3645   50.3979 H   0  0  0  0  0  0  0  0  0  0  0  0
   44.5905   29.3331   49.0288 H   0  0  0  0  0  0  0  0  0  0  0  0
  1  6  2  0
  2  3  2  0
  2  1  1  0
  3  4  1  0
  4  5  2  0
  5 12  1  0
  6  5  1  0
  7  3  1  0
  8  7  1  0
  9  8  1  0
 10  9  2  0
 11 10  1  0
 12 14  1  0
 13 18  2  0
 14 13  1  0
 14 15  2  0
 15 16  1  0
 16 17  2  0
 18 17  1  0
 19 21  2  0
 19 13  1  0
 20 19  2  0
 22 24  1  0
 22 19  1  0
 22 23  1  0
 25 22  1  0
  1 26  1  0
  2 27  1  0
  7 28  1  0
  7 29  1  0
  8 30  1  0
  8 31  1  0
  9 32  1  0
 10 33  1  0
 11 34  1  0
 11 35  1  0
 11 36  1  0
 15 37  1  0
 16 38  1  0
 17 39  1  0
 18 40  1  0
M  ISO  8  26  14  27  14  28   8  29   8  30   8  31   8  34   8  35   8
M  ISO  5  36   8  37  14  38  14  39  14  40  14
M  END
>  <minimizedAffinity>  (1) 
-5.52804422

>  <minimizedRMSD>  (1) 
0.773504853

$$$$
