
     RDKit          3D

 22 22  0  0  0  0  0  0  0  0999 V2000
   45.3830   34.7160   44.3960 C   0  0  0  0  0  0  0  0  0  0  0  0
   46.3620   34.1320   43.5890 C   0  0  0  0  0  0  0  0  0  0  0  0
   47.1320   33.1070   44.1750 C   0  0  0  0  0  0  0  0  0  0  0  0
   46.8890   32.7530   45.4500 N   0  0  0  0  0  0  0  0  0  0  0  0
   45.9200   33.3590   46.1850 C   0  0  0  0  0  0  0  0  0  0  0  0
   45.1580   34.3560   45.6440 N   0  0  0  0  0  0  0  0  0  0  0  0
   44.5620   35.8050   43.7780 C   0  0  0  0  0  0  0  0  0  0  0  0
   45.7850   32.8910   47.4790 O   0  0  0  0  0  0  0  0  0  0  0  0
   45.3240   31.2580   49.4170 O   0  0  0  0  0  0  0  0  0  0  0  0
   45.6850   31.2680   47.9240 P   0  0  1  0  0  0  0  0  0  0  0  0
   44.4580   30.4280   47.1200 O   0  0  0  0  0  0  0  0  0  0  0  0
   47.1490   30.4920   47.6440 O   0  0  0  0  0  0  0  0  0  0  0  0
   48.1040   31.0220   48.5360 C   0  0  0  0  0  0  0  0  0  0  0  0
   47.8860   30.6450   49.8350 F   0  0  0  0  0  0  0  0  0  0  0  0
   49.3760   30.5760   48.2110 F   0  0  0  0  0  0  0  0  0  0  0  0
   48.1530   32.4010   48.4950 F   0  0  0  0  0  0  0  0  0  0  0  0
   46.5238   34.4552   42.5501 H   0  0  0  0  0  0  0  0  0  0  0  0
   47.9211   32.6032   43.5975 H   0  0  0  0  0  0  0  0  0  0  0  0
   44.1033   36.4135   44.5713 H   0  0  0  0  0  0  0  0  0  0  0  0
   45.2070   36.4415   43.1543 H   0  0  0  0  0  0  0  0  0  0  0  0
   43.7726   35.3601   43.1543 H   0  0  0  0  0  0  0  0  0  0  0  0
   43.8522   30.0132   47.7841 H   0  0  0  0  0  0  0  0  0  0  0  0
  1  6  2  0
  2  3  2  0
  2  1  1  0
  3  4  1  0
  4  5  2  0
  5  8  1  0
  6  5  1  0
  7  1  1  0
  8 10  1  0
 10  9  2  0
 11 10  1  0
 12 10  1  0
 12 13  1  0
 13 14  1  0
 15 13  1  0
 16 13  1  0
  2 17  1  0
  3 18  1  0
  7 19  1  0
  7 20  1  0
  7 21  1  0
 11 22  1  0
M  ISO  6  17  14  18  14  19   8  20   8  21   8  22   3
M  END
>  <minimizedAffinity>  (1) 
-4.58552361

>  <minimizedRMSD>  (1) 
0.675695181

$$$$
