
     RDKit          3D

 35 37  0  0  1  0  0  0  0  0999 V2000
   49.0240   32.4410   38.1740 O   0  0  0  0  0  0  0  0  0  0  0  0
   48.2130   33.6850   38.5380 P   0  0  2  0  0  0  0  0  0  0  0  0
   48.9280   34.9530   37.6680 O   0  0  0  0  0  0  0  0  0  0  0  0
   48.1300   33.9230   40.1530 O   0  0  0  0  0  0  0  0  0  0  0  0
   47.9880   35.6140   41.8770 C   0  0  1  0  0  0  0  0  0  0  0  0
   49.3490   35.0790   42.0070 C   0  0  0  0  0  0  0  0  0  0  0  0
   48.6000   35.0740   40.6630 C   0  0  1  0  0  0  0  0  0  0  0  0
   46.2270   33.1180   44.1200 C   0  0  0  0  0  0  0  0  0  0  0  0
   47.2370   33.8930   43.5620 C   0  0  0  0  0  0  0  0  0  0  0  0
   46.9150   34.7740   42.5100 C   0  0  0  0  0  0  0  0  0  0  0  0
   45.6290   34.8410   42.0680 N   0  0  0  0  0  0  0  0  0  0  0  0
   44.6630   34.0700   42.6330 C   0  0  0  0  0  0  0  0  0  0  0  0
   44.9590   33.2120   43.6540 N   0  0  0  0  0  0  0  0  0  0  0  0
   46.6910   33.4170   37.8800 O   0  0  0  0  0  0  0  0  0  0  0  0
   45.6330   32.8500   38.5760 C   0  0  0  0  0  0  0  0  0  0  0  0
   45.5840   31.6090   39.1880 C   0  0  0  0  0  0  0  0  0  0  0  0
   44.4600   31.1890   39.8400 C   0  0  0  0  0  0  0  0  0  0  0  0
   43.3440   31.9980   39.9010 C   0  0  0  0  0  0  0  0  0  0  0  0
   43.4350   33.2410   39.2700 C   0  0  0  0  0  0  0  0  0  0  0  0
   44.5630   33.6380   38.6280 N   0  0  0  0  0  0  0  0  0  0  0  0
   42.2350   34.1160   39.3330 C   0  0  0  0  0  0  0  0  0  0  0  0
   41.5850   34.0370   38.1380 F   0  0  0  0  0  0  0  0  0  0  0  0
   41.4020   33.5600   40.3100 F   0  0  0  0  0  0  0  0  0  0  0  0
   42.5550   35.4010   39.7230 F   0  0  0  0  0  0  0  0  0  0  0  0
   49.3023   35.6168   38.2999 H   0  0  0  0  0  0  0  0  0  0  0  0
   47.5168   36.5788   42.1159 H   0  0  0  0  0  0  0  0  0  0  0  0
   50.1995   35.7582   42.1659 H   0  0  0  0  0  0  0  0  0  0  0  0
   49.8428   34.3247   42.6372 H   0  0  0  0  0  0  0  0  0  0  0  0
   48.8153   35.4445   39.6499 H   0  0  0  0  0  0  0  0  0  0  0  0
   46.4585   32.4259   44.9430 H   0  0  0  0  0  0  0  0  0  0  0  0
   48.2693   33.8200   43.9348 H   0  0  0  0  0  0  0  0  0  0  0  0
   43.6292   34.1377   42.2634 H   0  0  0  0  0  0  0  0  0  0  0  0
   46.4645   30.9509   39.1484 H   0  0  0  0  0  0  0  0  0  0  0  0
   44.4442   30.1992   40.3197 H   0  0  0  0  0  0  0  0  0  0  0  0
   42.4281   31.6800   40.4207 H   0  0  0  0  0  0  0  0  0  0  0  0
  2  1  2  0
  2  4  1  0
  3  2  1  0
  4  7  1  0
  5  6  1  0
  5 10  1  0
  7  5  1  0
  7  6  1  0
  9  8  2  0
 10  9  1  0
 11 10  2  0
 11 12  1  0
 12 13  2  0
 13  8  1  0
 14  2  1  0
 14 15  1  0
 15 20  1  0
 15 16  2  0
 16 17  1  0
 17 18  2  0
 19 21  1  0
 19 18  1  0
 20 19  2  0
 21 24  1  0
 21 23  1  0
 22 21  1  0
  3 25  1  0
  5 26  1  6
  6 27  1  0
  6 28  1  0
  7 29  1  6
  8 30  1  0
  9 31  1  0
 12 32  1  0
 16 33  1  0
 17 34  1  0
 18 35  1  0
M  ISO  8  25   3  26  13  27  13  28  13  29  13  30  14  31  14  32  14
M  ISO  3  33  14  34  14  35  14
M  END
>  <minimizedAffinity>  (1) 
-4.74317408

>  <minimizedRMSD>  (1) 
1.81100416

$$$$
