
     RDKit          3D

 41 43  0  0  1  0  0  0  0  0999 V2000
   42.8040   34.4820   38.7660 C   0  0  1  0  0  0  0  0  0  0  0  0
   42.9640   35.1760   40.1100 C   0  0  1  0  0  0  0  0  0  0  0  0
   41.6810   35.4350   40.6280 O   0  0  0  0  0  0  0  0  0  0  0  0
   40.7530   35.7670   39.6320 C   0  0  0  0  0  0  0  0  0  0  0  0
   40.4250   34.5780   38.7540 C   0  0  2  0  0  0  0  0  0  0  0  0
   41.6200   33.5830   38.9070 C   0  0  1  0  0  0  0  0  0  0  0  0
   42.5980   35.4200   37.7400 O   0  0  0  0  0  0  0  0  0  0  0  0
   40.4390   34.9550   37.4210 O   0  0  0  0  0  0  0  0  0  0  0  0
   43.4890   34.2020   40.9710 O   0  0  0  0  0  0  0  0  0  0  0  0
   44.5960   34.3450   41.7080 C   0  0  0  0  0  0  0  0  0  0  0  0
   45.8540   34.4460   41.1080 C   0  0  0  0  0  0  0  0  0  0  0  0
   46.9740   34.5960   41.9040 C   0  0  0  0  0  0  0  0  0  0  0  0
   46.8150   34.6400   43.2800 N   0  0  0  0  0  0  0  0  0  0  0  0
   45.5840   34.5380   43.8290 C   0  0  0  0  0  0  0  0  0  0  0  0
   44.4840   34.3920   43.0460 N   0  0  0  0  0  0  0  0  0  0  0  0
   48.3520   34.6900   41.3280 C   0  0  0  0  0  0  0  0  0  0  0  0
   49.0780   36.0220   41.5030 C   0  0  0  0  0  0  0  0  0  0  0  0
   49.5040   34.7000   42.1720 C   0  0  0  0  0  0  0  0  0  0  0  0
   41.4680   32.6130   37.9820 O   0  0  0  0  0  0  0  0  0  0  0  0
   40.7800   31.4740   37.9900 C   0  0  0  0  0  0  0  0  0  0  0  0
   39.5770   31.3640   37.4360 O   0  0  0  0  0  0  0  0  0  0  0  0
   40.5160   29.5570   39.6870 C   0  0  0  0  0  0  0  0  0  0  0  0
   39.7050   30.2390   40.3590 O   0  0  0  0  0  0  0  0  0  0  0  0
   41.0580   30.1380   38.5200 N   0  0  0  0  0  0  0  0  0  0  0  0
   43.7084   33.9165   38.4972 H   0  0  0  0  0  0  0  0  0  0  0  0
   43.5704   36.0891   40.0170 H   0  0  0  0  0  0  0  0  0  0  0  0
   39.8286   36.1228   40.1103 H   0  0  0  0  0  0  0  0  0  0  0  0
   41.1952   36.5498   38.9983 H   0  0  0  0  0  0  0  0  0  0  0  0
   39.4459   34.1626   39.0348 H   0  0  0  0  0  0  0  0  0  0  0  0
   41.7109   33.0246   39.8504 H   0  0  0  0  0  0  0  0  0  0  0  0
   42.4035   36.3058   38.1369 H   0  0  0  0  0  0  0  0  0  0  0  0
   40.4757   35.9423   37.3577 H   0  0  0  0  0  0  0  0  0  0  0  0
   45.9520   34.4065   40.0131 H   0  0  0  0  0  0  0  0  0  0  0  0
   45.4719   34.5737   44.9227 H   0  0  0  0  0  0  0  0  0  0  0  0
   48.0700   34.0528   40.4769 H   0  0  0  0  0  0  0  0  0  0  0  0
   49.6692   36.4522   40.6812 H   0  0  0  0  0  0  0  0  0  0  0  0
   48.8205   37.0407   41.8285 H   0  0  0  0  0  0  0  0  0  0  0  0
   49.3849   34.5757   43.2584 H   0  0  0  0  0  0  0  0  0  0  0  0
   50.4389   34.1212   42.2012 H   0  0  0  0  0  0  0  0  0  0  0  0
   40.7956   28.5393   39.9971 H   0  0  0  0  0  0  0  0  0  0  0  0
   41.7204   29.5596   37.9837 H   0  0  0  0  0  0  0  0  0  0  0  0
  1  6  1  0
  1  2  1  0
  2  3  1  0
  2  9  1  0
  4  3  1  0
  5  6  1  0
  5  4  1  0
  7  1  1  0
  8  5  1  0
  9 10  1  0
 10 15  1  0
 11 10  2  0
 11 12  1  0
 12 13  2  0
 13 14  1  0
 15 14  2  0
 16 17  1  0
 16 12  1  0
 16 18  1  0
 17 18  1  0
 19 20  1  0
 19  6  1  0
 20 24  1  0
 21 20  2  0
 22 23  2  0
 24 22  1  0
  1 25  1  6
  2 26  1  6
  4 27  1  0
  4 28  1  0
  5 29  1  1
  6 30  1  1
  7 31  1  0
  8 32  1  0
 11 33  1  0
 14 34  1  0
 16 35  1  0
 17 36  1  0
 17 37  1  0
 18 38  1  0
 18 39  1  0
 22 40  1  0
 24 41  1  0
M  ISO  8  25  13  26  13  27  13  28  13  29  13  30  13  31   3  32   3
M  ISO  8  33  14  34  14  35  13  36  13  37  13  38  13  39  13  40   6
M  END
>  <minimizedAffinity>  (1) 
-5.91197586

>  <minimizedRMSD>  (1) 
0.256838292

$$$$
