
     RDKit          3D

 39 41  0  0  1  0  0  0  0  0999 V2000
   47.8640   29.1830   47.9310 C   0  0  1  0  0  0  0  0  0  0  0  0
   47.6880   28.1650   46.8720 C   0  0  0  0  0  0  0  0  0  0  0  0
   48.9260   27.3690   46.5610 C   0  0  0  0  0  0  0  0  0  0  0  0
   49.6620   26.9240   47.7960 C   0  0  0  0  0  0  0  0  0  0  0  0
   49.8040   28.0250   48.8120 C   0  0  0  0  0  0  0  0  0  0  0  0
   49.3740   29.3620   48.2070 C   0  0  2  0  0  0  0  0  0  0  0  0
   46.1960   32.5870   46.4040 C   0  0  0  0  0  0  0  0  0  0  0  0
   45.9800   32.4630   47.7730 C   0  0  0  0  0  0  0  0  0  0  0  0
   46.4770   31.3860   48.3910 C   0  0  0  0  0  0  0  0  0  0  0  0
   47.1970   30.4140   47.6590 C   0  0  0  0  0  0  0  0  0  0  0  0
   47.1640   31.0770   45.9620 S   0  0  0  0  0  0  0  0  0  0  0  0
   44.5510   35.6340   45.0490 C   0  0  0  0  0  0  0  0  0  0  0  0
   45.1340   35.7080   43.7820 C   0  0  0  0  0  0  0  0  0  0  0  0
   46.0600   34.7110   43.4450 C   0  0  0  0  0  0  0  0  0  0  0  0
   46.3390   33.7310   44.3660 N   0  0  0  0  0  0  0  0  0  0  0  0
   45.7400   33.7220   45.5670 C   0  0  0  0  0  0  0  0  0  0  0  0
   44.8390   34.6760   45.9180 N   0  0  0  0  0  0  0  0  0  0  0  0
   49.5770   30.4220   49.1970 C   0  0  0  0  0  0  0  0  0  0  0  0
   49.2660   30.2920   50.3970 O   0  0  0  0  0  0  0  0  0  0  0  0
   50.7250   32.5270   50.1550 C   0  0  0  0  0  0  0  0  0  0  0  0
   50.8730   31.9510   51.2470 O   0  0  0  0  0  0  0  0  0  0  0  0
   50.0870   31.7160   49.2090 N   0  0  0  0  0  0  0  0  0  0  0  0
   47.3735   28.8177   48.8453 H   0  0  0  0  0  0  0  0  0  0  0  0
   46.9020   27.4662   47.1942 H   0  0  0  0  0  0  0  0  0  0  0  0
   47.4275   28.7108   45.9531 H   0  0  0  0  0  0  0  0  0  0  0  0
   48.6349   26.4778   45.9857 H   0  0  0  0  0  0  0  0  0  0  0  0
   49.6032   28.0215   45.9904 H   0  0  0  0  0  0  0  0  0  0  0  0
   49.1097   26.0904   48.2544 H   0  0  0  0  0  0  0  0  0  0  0  0
   50.6739   26.6199   47.4900 H   0  0  0  0  0  0  0  0  0  0  0  0
   49.1704   27.7998   49.6825 H   0  0  0  0  0  0  0  0  0  0  0  0
   50.8574   28.0937   49.1213 H   0  0  0  0  0  0  0  0  0  0  0  0
   49.9386   29.6318   47.3023 H   0  0  0  0  0  0  0  0  0  0  0  0
   45.4178   33.2272   48.3298 H   0  0  0  0  0  0  0  0  0  0  0  0
   46.3250   31.2560   49.4727 H   0  0  0  0  0  0  0  0  0  0  0  0
   43.8210   36.4045   45.3381 H   0  0  0  0  0  0  0  0  0  0  0  0
   44.8775   36.5140   43.0788 H   0  0  0  0  0  0  0  0  0  0  0  0
   46.5536   34.7135   42.4620 H   0  0  0  0  0  0  0  0  0  0  0  0
   51.0575   33.5563   49.9551 H   0  0  0  0  0  0  0  0  0  0  0  0
   49.9661   32.1922   48.3038 H   0  0  0  0  0  0  0  0  0  0  0  0
  1  6  1  0
  2  1  1  0
  3  2  1  0
  3  4  1  0
  4  5  1  0
  6  5  1  0
  6 18  1  0
  7  8  2  0
  8  9  1  0
 10  1  1  0
 10  9  2  0
 11  7  1  0
 11 10  1  0
 12 17  2  0
 13 12  1  0
 14 13  2  0
 14 15  1  0
 15 16  2  0
 16 17  1  0
 16  7  1  0
 18 22  1  0
 18 19  2  0
 20 21  2  0
 22 20  1  0
  1 23  1  1
  2 24  1  0
  2 25  1  0
  3 26  1  0
  3 27  1  0
  4 28  1  0
  4 29  1  0
  5 30  1  0
  5 31  1  0
  6 32  1  6
  8 33  1  0
  9 34  1  0
 12 35  1  0
 13 36  1  0
 14 37  1  0
 20 38  1  0
 22 39  1  0
M  ISO  8  23  13  24  13  25  13  26  13  27  13  28  13  29  13  30  13
M  ISO  8  31  13  32  13  33  14  34  14  35  14  36  14  37  14  38   6
M  END
>  <minimizedAffinity>  (1) 
-5.25053692

>  <minimizedRMSD>  (1) 
1.09912908

$$$$
