
     RDKit          3D

 28 28  0  0  0  0  0  0  0  0999 V2000
   44.8080   36.3070   43.5210 C   0  0  0  0  0  0  0  0  0  0  0  0
   45.0220   34.7720   45.4230 C   0  0  0  0  0  0  0  0  0  0  0  0
   45.4000   35.1370   44.1400 C   0  0  0  0  0  0  0  0  0  0  0  0
   46.3470   34.3300   43.5190 C   0  0  0  0  0  0  0  0  0  0  0  0
   46.8610   33.2320   44.1810 N   0  0  0  0  0  0  0  0  0  0  0  0
   46.4510   32.9310   45.4290 C   0  0  0  0  0  0  0  0  0  0  0  0
   45.5210   33.7060   46.0660 N   0  0  0  0  0  0  0  0  0  0  0  0
   46.7280   34.7360   42.1630 C   0  0  0  0  0  0  0  0  0  0  0  0
   47.5660   33.7590   41.6210 F   0  0  0  0  0  0  0  0  0  0  0  0
   47.4650   35.8820   42.2830 F   0  0  0  0  0  0  0  0  0  0  0  0
   45.6570   34.8140   41.3360 F   0  0  0  0  0  0  0  0  0  0  0  0
   44.9070   37.4620   44.4340 N   0  0  0  0  0  0  0  0  0  0  0  0
   45.3910   38.5510   43.6460 C   0  0  0  0  0  0  0  0  0  0  0  0
   45.3900   39.8600   44.4170 C   0  0  0  0  0  0  0  0  0  0  0  0
   44.8230   40.6370   46.6530 C   0  0  0  0  0  0  0  0  0  0  0  0
   44.1730   41.6120   46.1930 O   0  0  0  0  0  0  0  0  0  0  0  0
   45.4940   39.6670   45.8490 N   0  0  0  0  0  0  0  0  0  0  0  0
   45.3412   36.5343   42.5861 H   0  0  0  0  0  0  0  0  0  0  0  0
   43.7484   36.1056   43.3050 H   0  0  0  0  0  0  0  0  0  0  0  0
   44.2733   35.3893   45.9410 H   0  0  0  0  0  0  0  0  0  0  0  0
   46.8690   32.0519   45.9414 H   0  0  0  0  0  0  0  0  0  0  0  0
   43.9816   37.6881   44.8258 H   0  0  0  0  0  0  0  0  0  0  0  0
   44.7482   38.6608   42.7601 H   0  0  0  0  0  0  0  0  0  0  0  0
   46.4295   38.3270   43.3608 H   0  0  0  0  0  0  0  0  0  0  0  0
   46.2439   40.4667   44.0810 H   0  0  0  0  0  0  0  0  0  0  0  0
   44.4310   40.3610   44.2187 H   0  0  0  0  0  0  0  0  0  0  0  0
   44.8775   40.5252   47.7460 H   0  0  0  0  0  0  0  0  0  0  0  0
   46.0179   38.8812   46.2601 H   0  0  0  0  0  0  0  0  0  0  0  0
  1  3  1  0
  1 12  1  0
  2  7  2  0
  3  2  1  0
  4  3  2  0
  4  5  1  0
  5  6  2  0
  6  7  1  0
  8 10  1  0
  8  4  1  0
  9  8  1  0
 11  8  1  0
 13 14  1  0
 13 12  1  0
 14 17  1  0
 16 15  2  0
 17 15  1  0
  1 18  1  0
  1 19  1  0
  2 20  1  0
  6 21  1  0
 12 22  1  0
 13 23  1  0
 13 24  1  0
 14 25  1  0
 14 26  1  0
 15 27  1  0
 17 28  1  0
M  ISO  8  18   8  19   8  20  14  21  14  22   5  23   8  24   8  25   8
M  ISO  2  26   8  27   6
M  END
>  <minimizedAffinity>  (1) 
-4.88975048

>  <minimizedRMSD>  (1) 
1.27175999

$$$$
