
     RDKit          3D

 40 41  0  0  0  0  0  0  0  0999 V2000
   43.6880   35.0510   40.9110 C   0  0  0  0  0  0  0  0  0  0  0  0
   43.9310   35.5360   42.1360 C   0  0  0  0  0  0  0  0  0  0  0  0
   45.3120   35.5990   42.7520 C   0  0  0  0  0  0  0  0  0  0  0  0
   45.2560   34.9420   43.9620 O   0  0  0  0  0  0  0  0  0  0  0  0
   45.9350   32.7410   42.6170 O   0  0  0  0  0  0  0  0  0  0  0  0
   46.1410   33.5190   43.9060 P   0  0  1  0  0  0  0  0  0  0  0  0
   47.8110   33.8830   43.9680 O   0  0  0  0  0  0  0  0  0  0  0  0
   45.8160   32.5340   45.2230 O   0  0  0  0  0  0  0  0  0  0  0  0
   46.0680   33.1810   46.4300 C   0  0  0  0  0  0  0  0  0  0  0  0
   46.9680   32.4520   47.4020 C   0  0  0  0  0  0  0  0  0  0  0  0
   45.4760   32.5650   47.6610 C   0  0  0  0  0  0  0  0  0  0  0  0
   42.3740   35.0740   40.5120 O   0  0  0  0  0  0  0  0  0  0  0  0
   41.2440   35.2730   41.2320 C   0  0  0  0  0  0  0  0  0  0  0  0
   40.2220   33.2050   42.0600 C   0  0  0  0  0  0  0  0  0  0  0  0
   40.2230   34.1940   41.0630 C   0  0  0  0  0  0  0  0  0  0  0  0
   39.3220   34.0800   40.0490 C   0  0  0  0  0  0  0  0  0  0  0  0
   38.5010   33.0280   40.0830 N   0  0  0  0  0  0  0  0  0  0  0  0
   38.5070   32.1130   41.0160 C   0  0  0  0  0  0  0  0  0  0  0  0
   39.3930   32.1630   42.0760 N   0  0  0  0  0  0  0  0  0  0  0  0
   37.5760   31.0300   40.9410 N   0  0  0  0  0  0  0  0  0  0  0  0
   40.0640   34.7210   37.8700 C   0  0  0  0  0  0  0  0  0  0  0  0
   40.5660   33.5470   37.8320 O   0  0  0  0  0  0  0  0  0  0  0  0
   39.3570   35.1010   39.0610 N   0  0  0  0  0  0  0  0  0  0  0  0
   44.4890   34.6597   40.2665 H   0  0  0  0  0  0  0  0  0  0  0  0
   43.0807   35.9086   42.7261 H   0  0  0  0  0  0  0  0  0  0  0  0
   46.0409   35.1073   42.0910 H   0  0  0  0  0  0  0  0  0  0  0  0
   45.6263   36.6437   42.8925 H   0  0  0  0  0  0  0  0  0  0  0  0
   48.1002   33.9460   44.9127 H   0  0  0  0  0  0  0  0  0  0  0  0
   46.0538   34.1877   45.9870 H   0  0  0  0  0  0  0  0  0  0  0  0
   47.4085   31.4826   47.1258 H   0  0  0  0  0  0  0  0  0  0  0  0
   47.8804   32.7036   47.9626 H   0  0  0  0  0  0  0  0  0  0  0  0
   45.1064   33.2075   48.4738 H   0  0  0  0  0  0  0  0  0  0  0  0
   44.6652   31.8482   47.8581 H   0  0  0  0  0  0  0  0  0  0  0  0
   41.5163   35.3292   42.2963 H   0  0  0  0  0  0  0  0  0  0  0  0
   40.7895   36.2046   40.8639 H   0  0  0  0  0  0  0  0  0  0  0  0
   40.9512   33.2968   42.8784 H   0  0  0  0  0  0  0  0  0  0  0  0
   37.5717   30.3031   41.6707 H   0  0  0  0  0  0  0  0  0  0  0  0
   36.9098   30.9769   40.1572 H   0  0  0  0  0  0  0  0  0  0  0  0
   40.1692   35.4146   37.0227 H   0  0  0  0  0  0  0  0  0  0  0  0
   38.9178   36.0241   39.1869 H   0  0  0  0  0  0  0  0  0  0  0  0
  1  2  2  0
  2  3  1  0
  3  4  1  0
  6  5  2  0
  6  4  1  0
  6  7  1  0
  6  8  1  0
  8  9  1  0
  9 10  1  0
  9 11  1  0
 10 11  1  0
 12  1  1  0
 12 13  1  0
 14 19  2  0
 15 13  1  0
 15 14  1  0
 16 17  1  0
 16 15  2  0
 17 18  2  0
 18 19  1  0
 20 18  1  0
 21 23  1  0
 22 21  2  0
 23 16  1  0
  1 24  1  0
  2 25  1  0
  3 26  1  0
  3 27  1  0
  7 28  1  0
  9 29  1  0
 10 30  1  0
 10 31  1  0
 11 32  1  0
 11 33  1  0
 13 34  1  0
 13 35  1  0
 14 36  1  0
 20 37  1  0
 20 38  1  0
 21 39  1  0
 23 40  1  0
M  ISO  8  26   8  27   8  28   3  29  13  30  13  31  13  32  13  33  13
M  ISO  4  34   8  35   8  36  14  39   6
M  END
>  <minimizedAffinity>  (1) 
-4.90399981

>  <minimizedRMSD>  (1) 
0.712024689

$$$$
