
     RDKit          3D

 45 48  0  0  1  0  0  0  0  0999 V2000
   46.8490   31.0000   46.8690 C   0  0  0  0  0  0  0  0  0  0  0  0
   46.4460   31.4840   48.2200 C   0  0  1  0  0  0  0  0  0  0  0  0
   46.2930   30.4050   49.2400 C   0  0  0  0  0  0  0  0  0  0  0  0
   47.3790   31.3730   49.3540 C   0  0  1  0  0  0  0  0  0  0  0  0
   48.8000   31.0040   49.0660 C   0  0  2  0  0  0  0  0  0  0  0  0
   49.4410   30.1070   50.1560 C   0  0  0  0  0  0  0  0  0  0  0  0
   49.8700   31.5070   50.0350 C   0  0  1  0  0  0  0  0  0  0  0  0
   51.9140   32.9630   50.0670 C   0  0  0  0  0  0  0  0  0  0  0  0
   51.4810   33.5710   51.0540 O   0  0  0  0  0  0  0  0  0  0  0  0
   51.1530   31.8890   49.4780 N   0  0  0  0  0  0  0  0  0  0  0  0
   45.9040   33.0460   46.1810 C   0  0  0  0  0  0  0  0  0  0  0  0
   46.6490   32.0840   45.8360 C   0  0  0  0  0  0  0  0  0  0  0  0
   44.5390   36.0200   44.4830 C   0  0  0  0  0  0  0  0  0  0  0  0
   45.2070   36.0180   43.2630 C   0  0  0  0  0  0  0  0  0  0  0  0
   46.0880   35.0110   43.0650 C   0  0  0  0  0  0  0  0  0  0  0  0
   46.2920   34.0640   44.0250 N   0  0  0  0  0  0  0  0  0  0  0  0
   45.6260   34.0990   45.1990 C   0  0  0  0  0  0  0  0  0  0  0  0
   44.7660   35.0810   45.3930 N   0  0  0  0  0  0  0  0  0  0  0  0
   46.8640   34.8740   41.8330 C   0  0  0  0  0  0  0  0  0  0  0  0
   48.0820   35.4570   41.6090 C   0  0  0  0  0  0  0  0  0  0  0  0
   48.8030   35.3200   40.4420 C   0  0  0  0  0  0  0  0  0  0  0  0
   48.2960   34.5520   39.4110 C   0  0  0  0  0  0  0  0  0  0  0  0
   47.0810   33.9430   39.5780 C   0  0  0  0  0  0  0  0  0  0  0  0
   46.3980   34.1160   40.7730 C   0  0  0  0  0  0  0  0  0  0  0  0
   47.9103   30.7114   46.8898 H   0  0  0  0  0  0  0  0  0  0  0  0
   46.2253   30.1345   46.6010 H   0  0  0  0  0  0  0  0  0  0  0  0
   45.8520   32.3163   47.8145 H   0  0  0  0  0  0  0  0  0  0  0  0
   45.4533   30.4337   49.9499 H   0  0  0  0  0  0  0  0  0  0  0  0
   46.2282   29.3074   49.2088 H   0  0  0  0  0  0  0  0  0  0  0  0
   47.7150   32.0283   50.1711 H   0  0  0  0  0  0  0  0  0  0  0  0
   48.6830   31.0061   47.9722 H   0  0  0  0  0  0  0  0  0  0  0  0
   48.8452   29.7897   51.0245 H   0  0  0  0  0  0  0  0  0  0  0  0
   49.9588   29.1365   50.1528 H   0  0  0  0  0  0  0  0  0  0  0  0
   49.9549   32.3146   50.7770 H   0  0  0  0  0  0  0  0  0  0  0  0
   52.8863   33.2438   49.6359 H   0  0  0  0  0  0  0  0  0  0  0  0
   51.5232   31.3901   48.6564 H   0  0  0  0  0  0  0  0  0  0  0  0
   45.4751   33.0917   47.1929 H   0  0  0  0  0  0  0  0  0  0  0  0
   47.1225   32.0393   44.8441 H   0  0  0  0  0  0  0  0  0  0  0  0
   43.8091   36.8145   44.6975 H   0  0  0  0  0  0  0  0  0  0  0  0
   45.0288   36.7919   42.5019 H   0  0  0  0  0  0  0  0  0  0  0  0
   48.5129   36.0741   42.4112 H   0  0  0  0  0  0  0  0  0  0  0  0
   49.7769   35.8194   40.3320 H   0  0  0  0  0  0  0  0  0  0  0  0
   48.8583   34.4321   38.4732 H   0  0  0  0  0  0  0  0  0  0  0  0
   46.6523   33.3249   38.7754 H   0  0  0  0  0  0  0  0  0  0  0  0
   45.4233   33.6187   40.8853 H   0  0  0  0  0  0  0  0  0  0  0  0
  1  2  1  0
  2  3  1  0
  2  4  1  0
  3  4  1  0
  5  4  1  0
  5  7  1  0
  5  6  1  0
  7  6  1  0
  8  9  2  0
 10  7  1  0
 10  8  1  0
 12 11  2  0
 12  1  1  0
 13 18  2  0
 14 13  1  0
 15 14  2  0
 15 16  1  0
 16 17  2  0
 17 18  1  0
 17 11  1  0
 19 15  1  0
 20 19  2  0
 21 20  1  0
 22 23  1  0
 22 21  2  0
 23 24  2  0
 24 19  1  0
  1 25  1  0
  1 26  1  0
  2 27  1  6
  3 28  1  0
  3 29  1  0
  4 30  1  1
  5 31  1  6
  6 32  1  0
  6 33  1  0
  7 34  1  1
  8 35  1  0
 10 36  1  0
 11 37  1  0
 12 38  1  0
 13 39  1  0
 14 40  1  0
 20 41  1  0
 21 42  1  0
 22 43  1  0
 23 44  1  0
 24 45  1  0
M  ISO  8  25   8  26   8  27  13  28  13  29  13  30  13  31  13  32  13
M  ISO  8  33  13  34  13  35   6  39  14  40  14  41  14  42  14  43  14
M  ISO  2  44  14  45  14
M  END
>  <minimizedAffinity>  (1) 
-6.28055906

>  <minimizedRMSD>  (1) 
0.904117286

$$$$
