
     RDKit          3D

 43 45  0  0  1  0  0  0  0  0999 V2000
   47.3510   33.6200   42.8060 C   0  0  0  0  0  0  0  0  0  0  0  0
   48.4520   33.4490   43.4050 O   0  0  0  0  0  0  0  0  0  0  0  0
   47.0210   33.0860   41.5100 N   0  0  0  0  0  0  0  0  0  0  0  0
   45.8150   32.4590   41.0150 C   0  0  0  0  0  0  0  0  0  0  0  0
   45.3800   33.1480   39.7210 C   0  0  0  0  0  0  0  0  0  0  0  0
   46.4230   33.0160   38.6540 C   0  0  0  0  0  0  0  0  0  0  0  0
   47.6940   32.4560   39.2870 C   0  0  0  0  0  0  0  0  0  0  0  0
   48.0810   33.2050   40.5230 C   0  0  2  0  0  0  0  0  0  0  0  0
   45.9750   35.6550   42.9030 C   0  0  0  0  0  0  0  0  0  0  0  0
   46.3500   34.4180   43.4900 C   0  0  0  0  0  0  0  0  0  0  0  0
   45.7600   34.0310   44.6610 C   0  0  0  0  0  0  0  0  0  0  0  0
   44.8400   34.8380   45.2260 N   0  0  0  0  0  0  0  0  0  0  0  0
   44.4700   36.0290   44.6730 C   0  0  0  0  0  0  0  0  0  0  0  0
   45.0460   36.4070   43.5270 N   0  0  0  0  0  0  0  0  0  0  0  0
   46.1630   32.7580   45.2430 C   0  0  0  0  0  0  0  0  0  0  0  0
   45.7660   31.5910   44.6610 C   0  0  0  0  0  0  0  0  0  0  0  0
   46.1590   30.3910   45.2370 C   0  0  0  0  0  0  0  0  0  0  0  0
   46.9410   30.3240   46.3820 C   0  0  0  0  0  0  0  0  0  0  0  0
   47.3140   31.5500   46.9290 C   0  0  0  0  0  0  0  0  0  0  0  0
   46.9210   32.6990   46.3520 N   0  0  0  0  0  0  0  0  0  0  0  0
   49.4210   32.8050   40.9830 C   0  0  0  0  0  0  0  0  0  0  0  0
   50.3710   30.5250   42.0860 C   0  0  0  0  0  0  0  0  0  0  0  0
   51.1970   30.9520   42.9230 O   0  0  0  0  0  0  0  0  0  0  0  0
   49.6460   31.4370   41.2950 N   0  0  0  0  0  0  0  0  0  0  0  0
   46.0093   31.3946   40.8169 H   0  0  0  0  0  0  0  0  0  0  0  0
   45.0173   32.5509   41.7668 H   0  0  0  0  0  0  0  0  0  0  0  0
   44.4457   32.6877   39.3671 H   0  0  0  0  0  0  0  0  0  0  0  0
   45.2331   34.2177   39.9310 H   0  0  0  0  0  0  0  0  0  0  0  0
   46.6310   34.0025   38.2141 H   0  0  0  0  0  0  0  0  0  0  0  0
   46.0679   32.3417   37.8607 H   0  0  0  0  0  0  0  0  0  0  0  0
   47.5253   31.4011   39.5491 H   0  0  0  0  0  0  0  0  0  0  0  0
   48.5108   32.5587   38.5575 H   0  0  0  0  0  0  0  0  0  0  0  0
   48.1790   34.2806   40.3146 H   0  0  0  0  0  0  0  0  0  0  0  0
   46.4318   35.9922   41.9608 H   0  0  0  0  0  0  0  0  0  0  0  0
   43.7147   36.6641   45.1590 H   0  0  0  0  0  0  0  0  0  0  0  0
   45.1461   31.6002   43.7523 H   0  0  0  0  0  0  0  0  0  0  0  0
   45.8364   29.4511   44.7652 H   0  0  0  0  0  0  0  0  0  0  0  0
   47.2461   29.3660   46.8282 H   0  0  0  0  0  0  0  0  0  0  0  0
   47.9333   31.5780   47.8377 H   0  0  0  0  0  0  0  0  0  0  0  0
   50.1327   33.0795   40.1905 H   0  0  0  0  0  0  0  0  0  0  0  0
   49.5449   33.3263   41.9437 H   0  0  0  0  0  0  0  0  0  0  0  0
   50.2119   29.4429   41.9686 H   0  0  0  0  0  0  0  0  0  0  0  0
   49.0194   30.8833   40.6936 H   0  0  0  0  0  0  0  0  0  0  0  0
  1  2  2  0
  1 10  1  0
  3  1  1  0
  4  3  1  0
  5  4  1  0
  6  7  1  0
  6  5  1  0
  7  8  1  0
  8 21  1  0
  8  3  1  0
  9 10  2  0
  9 14  1  0
 10 11  1  0
 11 12  2  0
 11 15  1  0
 13 12  1  0
 14 13  2  0
 15 20  2  0
 16 17  2  0
 16 15  1  0
 17 18  1  0
 18 19  2  0
 20 19  1  0
 21 24  1  0
 22 23  2  0
 24 22  1  0
  4 25  1  0
  4 26  1  0
  5 27  1  0
  5 28  1  0
  6 29  1  0
  6 30  1  0
  7 31  1  0
  7 32  1  0
  8 33  1  6
  9 34  1  0
 13 35  1  0
 16 36  1  0
 17 37  1  0
 18 38  1  0
 19 39  1  0
 21 40  1  0
 21 41  1  0
 22 42  1  0
 24 43  1  0
M  ISO  8  25  13  26  13  27  13  28  13  29  13  30  13  31  13  32  13
M  ISO  8  33  13  34  14  35  14  36  14  37  14  38  14  39  14  40   8
M  ISO  2  41   8  42   6
M  END
>  <minimizedAffinity>  (1) 
-4.77029848

>  <minimizedRMSD>  (1) 
0.15745008

$$$$
