
     RDKit          3D

 20 20  0  0  0  0  0  0  0  0999 V2000
   44.7190   35.3240   44.7860 C   0  0  0  0  0  0  0  0  0  0  0  0
   45.2310   35.5170   43.4920 C   0  0  0  0  0  0  0  0  0  0  0  0
   46.3510   34.7580   43.1380 C   0  0  0  0  0  0  0  0  0  0  0  0
   46.8880   33.8820   44.0410 N   0  0  0  0  0  0  0  0  0  0  0  0
   46.3540   33.7340   45.2780 C   0  0  0  0  0  0  0  0  0  0  0  0
   45.2820   34.4500   45.6370 N   0  0  0  0  0  0  0  0  0  0  0  0
   46.2310   32.4070   47.3510 C   0  0  0  0  0  0  0  0  0  0  0  0
   45.0770   32.8320   47.6230 O   0  0  0  0  0  0  0  0  0  0  0  0
   46.9410   32.8120   46.1900 N   0  0  0  0  0  0  0  0  0  0  0  0
   46.8620   34.9470   41.8530 O   0  0  0  0  0  0  0  0  0  0  0  0
   48.7600   33.2660   41.1050 O   0  0  0  0  0  0  0  0  0  0  0  0
   48.5310   34.6980   41.5830 P   0  0  0  0  0  0  0  0  0  0  0  0
   49.0550   35.8230   40.4500 O   0  0  0  0  0  0  0  0  0  0  0  0
   49.3220   34.8980   43.0610 O   0  0  0  0  0  0  0  0  0  0  0  0
   43.8394   35.9001   45.1089 H   0  0  0  0  0  0  0  0  0  0  0  0
   44.7731   36.2306   42.7912 H   0  0  0  0  0  0  0  0  0  0  0  0
   46.7075   31.6941   48.0399 H   0  0  0  0  0  0  0  0  0  0  0  0
   47.8830   32.4378   46.0072 H   0  0  0  0  0  0  0  0  0  0  0  0
   49.4236   36.6144   40.9168 H   0  0  0  0  0  0  0  0  0  0  0  0
   48.6844   34.7368   43.8010 H   0  0  0  0  0  0  0  0  0  0  0  0
  1  6  2  0
  2  1  1  0
  3  2  2  0
  3  4  1  0
  4  5  2  0
  5  6  1  0
  5  9  1  0
  7  8  2  0
  9  7  1  0
 10  3  1  0
 11 12  2  0
 12 10  1  0
 12 14  1  0
 13 12  1  0
  1 15  1  0
  2 16  1  0
  7 17  1  0
  9 18  1  0
 13 19  1  0
 14 20  1  0
M  ISO  5  15  14  16  14  17   6  19   3  20   3
M  END
>  <minimizedAffinity>  (1) 
-5.15562248

>  <minimizedRMSD>  (1) 
0.725297153

$$$$
