
     RDKit          3D

 27 28  0  0  1  0  0  0  0  0999 V2000
   45.4300   35.0180   42.7720 C   0  0  2  0  0  0  0  0  0  0  0  0
   47.6530   35.3660   41.8100 C   0  0  0  0  0  0  0  0  0  0  0  0
   46.3970   34.7310   41.7020 C   0  0  0  0  0  0  0  0  0  0  0  0
   46.1300   33.8930   40.6070 C   0  0  0  0  0  0  0  0  0  0  0  0
   47.1250   33.7560   39.7180 N   0  0  0  0  0  0  0  0  0  0  0  0
   48.3180   34.3640   39.8290 C   0  0  0  0  0  0  0  0  0  0  0  0
   48.5920   35.1690   40.8700 N   0  0  0  0  0  0  0  0  0  0  0  0
   45.8580   34.2860   44.0060 C   0  0  0  0  0  0  0  0  0  0  0  0
   46.9480   33.4810   44.2070 C   0  0  0  0  0  0  0  0  0  0  0  0
   46.9600   33.0260   45.4790 N   0  0  0  0  0  0  0  0  0  0  0  0
   45.8550   33.5590   46.0790 C   0  0  0  0  0  0  0  0  0  0  0  0
   45.1950   34.3190   45.1810 N   0  0  0  0  0  0  0  0  0  0  0  0
   44.0850   34.5250   42.3490 C   0  0  0  0  0  0  0  0  0  0  0  0
   42.0070   35.4480   41.7220 C   0  0  0  0  0  0  0  0  0  0  0  0
   42.0860   34.7310   40.7090 O   0  0  0  0  0  0  0  0  0  0  0  0
   43.0210   35.4490   42.7160 N   0  0  0  0  0  0  0  0  0  0  0  0
   45.3842   36.0989   42.9710 H   0  0  0  0  0  0  0  0  0  0  0  0
   47.8633   36.0239   42.6661 H   0  0  0  0  0  0  0  0  0  0  0  0
   45.1642   33.3805   40.4859 H   0  0  0  0  0  0  0  0  0  0  0  0
   49.0828   34.2004   39.0555 H   0  0  0  0  0  0  0  0  0  0  0  0
   47.7031   33.2402   43.4442 H   0  0  0  0  0  0  0  0  0  0  0  0
   47.6597   32.4041   45.9086 H   0  0  0  0  0  0  0  0  0  0  0  0
   45.5526   33.3953   47.1239 H   0  0  0  0  0  0  0  0  0  0  0  0
   43.8948   33.5554   42.8324 H   0  0  0  0  0  0  0  0  0  0  0  0
   44.0885   34.4315   41.2530 H   0  0  0  0  0  0  0  0  0  0  0  0
   41.1291   36.0981   41.8513 H   0  0  0  0  0  0  0  0  0  0  0  0
   43.0061   36.0206   43.5727 H   0  0  0  0  0  0  0  0  0  0  0  0
  1  8  1  0
  3  2  2  0
  3  1  1  0
  4  3  1  0
  5  6  1  0
  5  4  2  0
  6  7  2  0
  7  2  1  0
  8  9  2  0
  8 12  1  0
  9 10  1  0
 10 11  1  0
 12 11  2  0
 13 16  1  0
 13  1  1  0
 14 16  1  0
 15 14  2  0
  1 17  1  1
  2 18  1  0
  4 19  1  0
  6 20  1  0
  9 21  1  0
 10 22  1  0
 11 23  1  0
 13 24  1  0
 13 25  1  0
 14 26  1  0
 16 27  1  0
M  ISO  8  17   8  18  14  19  14  20  14  21  14  22   9  23  14  24   8
M  ISO  2  25   8  26   6
M  END
>  <minimizedAffinity>  (1) 
-4.57457495

>  <minimizedRMSD>  (1) 
5.75959015

$$$$
