
     RDKit          3D

 35 36  0  0  1  0  0  0  0  0999 V2000
   48.6610   33.8100   41.3370 N   0  0  0  0  0  0  0  0  0  0  0  0
   48.9220   32.9010   42.4030 C   0  0  0  0  0  0  0  0  0  0  0  0
   48.7450   31.4400   42.0880 C   0  0  0  0  0  0  0  0  0  0  0  0
   49.0680   31.0670   40.6680 C   0  0  0  0  0  0  0  0  0  0  0  0
   49.5520   32.2340   39.8600 C   0  0  0  0  0  0  0  0  0  0  0  0
   48.4430   33.3100   40.0480 C   0  0  2  0  0  0  0  0  0  0  0  0
   48.1440   34.3410   37.7120 C   0  0  0  0  0  0  0  0  0  0  0  0
   47.3280   33.4100   37.4360 O   0  0  0  0  0  0  0  0  0  0  0  0
   48.7310   34.3240   39.0270 N   0  0  0  0  0  0  0  0  0  0  0  0
   47.9520   34.9870   41.7460 C   0  0  0  0  0  0  0  0  0  0  0  0
   46.4760   34.7680   41.6340 C   0  0  0  0  0  0  0  0  0  0  0  0
   44.5670   36.2230   44.5270 C   0  0  0  0  0  0  0  0  0  0  0  0
   45.1500   36.0700   43.2550 C   0  0  0  0  0  0  0  0  0  0  0  0
   45.8620   34.9230   42.9780 C   0  0  0  0  0  0  0  0  0  0  0  0
   45.9590   34.0040   43.9520 N   0  0  0  0  0  0  0  0  0  0  0  0
   45.4000   34.1600   45.1620 C   0  0  0  0  0  0  0  0  0  0  0  0
   44.7010   35.2600   45.4680 N   0  0  0  0  0  0  0  0  0  0  0  0
   49.9630   33.0513   42.7251 H   0  0  0  0  0  0  0  0  0  0  0  0
   48.1722   33.1289   43.1749 H   0  0  0  0  0  0  0  0  0  0  0  0
   49.4033   30.8624   42.7536 H   0  0  0  0  0  0  0  0  0  0  0  0
   47.6789   31.2138   42.2371 H   0  0  0  0  0  0  0  0  0  0  0  0
   49.8517   30.2952   40.6762 H   0  0  0  0  0  0  0  0  0  0  0  0
   48.1418   30.7005   40.2014 H   0  0  0  0  0  0  0  0  0  0  0  0
   49.6544   31.9595   38.7997 H   0  0  0  0  0  0  0  0  0  0  0  0
   50.5431   32.5879   40.1802 H   0  0  0  0  0  0  0  0  0  0  0  0
   47.4046   32.9618   39.9461 H   0  0  0  0  0  0  0  0  0  0  0  0
   48.3918   35.1248   36.9811 H   0  0  0  0  0  0  0  0  0  0  0  0
   49.3966   35.0726   39.2666 H   0  0  0  0  0  0  0  0  0  0  0  0
   48.2063   35.2194   42.7906 H   0  0  0  0  0  0  0  0  0  0  0  0
   48.2406   35.8241   41.0933 H   0  0  0  0  0  0  0  0  0  0  0  0
   46.0445   35.5077   40.9436 H   0  0  0  0  0  0  0  0  0  0  0  0
   46.2779   33.7569   41.2487 H   0  0  0  0  0  0  0  0  0  0  0  0
   43.9967   37.1347   44.7584 H   0  0  0  0  0  0  0  0  0  0  0  0
   45.0388   36.8551   42.4926 H   0  0  0  0  0  0  0  0  0  0  0  0
   45.5184   33.3688   45.9169 H   0  0  0  0  0  0  0  0  0  0  0  0
  1 10  1  0
  1  2  1  0
  3  2  1  0
  4  3  1  0
  5  6  1  0
  5  4  1  0
  6  1  1  0
  7  9  1  0
  8  7  2  0
  9  6  1  0
 11 10  1  0
 11 14  1  0
 12 17  2  0
 13 12  1  0
 14 13  2  0
 14 15  1  0
 15 16  2  0
 16 17  1  0
  2 18  1  0
  2 19  1  0
  3 20  1  0
  3 21  1  0
  4 22  1  0
  4 23  1  0
  5 24  1  0
  5 25  1  0
  6 26  1  1
  7 27  1  0
  9 28  1  0
 10 29  1  0
 10 30  1  0
 11 31  1  0
 11 32  1  0
 12 33  1  0
 13 34  1  0
 16 35  1  0
M  ISO  8  18  13  19  13  20  13  21  13  22  13  23  13  24  13  25  13
M  ISO  8  26  13  27   6  29   8  30   8  31   8  32   8  33  14  34  14
M  ISO  1  35  14
M  END
>  <minimizedAffinity>  (1) 
-4.53824282

>  <minimizedRMSD>  (1) 
1.25969195

$$$$
