
     RDKit          3D

 24 25  0  0  0  0  0  0  0  0999 V2000
   44.7350   33.3470   41.0210 Br  0  0  0  0  0  0  0  0  0  0  0  0
   46.4520   34.1730   40.9050 C   0  0  0  0  0  0  0  0  0  0  0  0
   46.9620   34.8580   41.9860 C   0  0  0  0  0  0  0  0  0  0  0  0
   48.2210   35.4670   41.9090 C   0  0  0  0  0  0  0  0  0  0  0  0
   48.9240   35.3610   40.7460 C   0  0  0  0  0  0  0  0  0  0  0  0
   48.3840   34.6710   39.6960 C   0  0  0  0  0  0  0  0  0  0  0  0
   47.1750   34.0740   39.7360 C   0  0  0  0  0  0  0  0  0  0  0  0
   45.6000   34.0410   45.2760 C   0  0  0  0  0  0  0  0  0  0  0  0
   44.6780   35.0700   45.5260 C   0  0  0  0  0  0  0  0  0  0  0  0
   44.5380   36.0550   44.5260 C   0  0  0  0  0  0  0  0  0  0  0  0
   45.2900   35.9560   43.3990 N   0  0  0  0  0  0  0  0  0  0  0  0
   46.1670   34.9410   43.2060 C   0  0  0  0  0  0  0  0  0  0  0  0
   46.3080   33.9970   44.1500 N   0  0  0  0  0  0  0  0  0  0  0  0
   47.4030   33.7900   37.4150 C   0  0  0  0  0  0  0  0  0  0  0  0
   48.2740   34.6670   37.7090 O   0  0  0  0  0  0  0  0  0  0  0  0
   46.6850   33.3700   38.5880 N   0  0  0  0  0  0  0  0  0  0  0  0
   48.6329   36.0181   42.7673 H   0  0  0  0  0  0  0  0  0  0  0  0
   49.9165   35.8261   40.6529 H   0  0  0  0  0  0  0  0  0  0  0  0
   48.9682   34.5988   38.7668 H   0  0  0  0  0  0  0  0  0  0  0  0
   45.7406   33.2519   46.0293 H   0  0  0  0  0  0  0  0  0  0  0  0
   44.0930   35.1063   46.4568 H   0  0  0  0  0  0  0  0  0  0  0  0
   43.8323   36.8886   44.6565 H   0  0  0  0  0  0  0  0  0  0  0  0
   47.2226   33.4043   36.4008 H   0  0  0  0  0  0  0  0  0  0  0  0
   45.9313   32.6681   38.6011 H   0  0  0  0  0  0  0  0  0  0  0  0
  2  1  1  0
  2  3  2  0
  3 12  1  0
  4  3  1  0
  5  4  2  0
  6  7  2  0
  6  5  1  0
  7  2  1  0
  8  9  2  0
 10  9  1  0
 11 10  2  0
 12 11  1  0
 12 13  2  0
 13  8  1  0
 14 15  2  0
 14 16  1  0
 16  7  1  0
  4 17  1  0
  5 18  1  0
  6 19  1  0
  8 20  1  0
  9 21  1  0
 10 22  1  0
 14 23  1  0
 16 24  1  0
M  ISO  7  17  14  18  14  19  14  20  14  21  14  22  14  23   6
M  END
>  <minimizedAffinity>  (1) 
-5.43667841

>  <minimizedRMSD>  (1) 
1.33184791

$$$$
