
     RDKit          3D

 21 22  0  0  0  0  0  0  0  0999 V2000
   44.6820   36.0540   44.2350 C   0  0  0  0  0  0  0  0  0  0  0  0
   45.5990   35.6580   43.2350 C   0  0  0  0  0  0  0  0  0  0  0  0
   46.3480   34.5260   43.5150 C   0  0  0  0  0  0  0  0  0  0  0  0
   46.1840   33.8540   44.7010 N   0  0  0  0  0  0  0  0  0  0  0  0
   45.2830   34.2730   45.6370 C   0  0  0  0  0  0  0  0  0  0  0  0
   44.5460   35.3680   45.3910 N   0  0  0  0  0  0  0  0  0  0  0  0
   46.1530   32.6210   47.2080 C   0  0  0  0  0  0  0  0  0  0  0  0
   47.1700   32.3710   46.5270 O   0  0  0  0  0  0  0  0  0  0  0  0
   45.1220   33.5670   46.8620 N   0  0  0  0  0  0  0  0  0  0  0  0
   47.3320   34.0010   42.5130 C   0  0  0  0  0  0  0  0  0  0  0  0
   47.9340   35.0790   41.6370 C   0  0  0  0  0  0  0  0  0  0  0  0
   48.7460   34.2890   42.7020 C   0  0  0  0  0  0  0  0  0  0  0  0
   44.0612   36.9464   44.0673 H   0  0  0  0  0  0  0  0  0  0  0  0
   45.7113   36.2140   42.2925 H   0  0  0  0  0  0  0  0  0  0  0  0
   46.0340   32.0716   48.1535 H   0  0  0  0  0  0  0  0  0  0  0  0
   44.3074   33.7245   47.4724 H   0  0  0  0  0  0  0  0  0  0  0  0
   46.7965   33.0544   42.3481 H   0  0  0  0  0  0  0  0  0  0  0  0
   48.0975   34.9010   40.5639 H   0  0  0  0  0  0  0  0  0  0  0  0
   47.7250   36.1362   41.4167 H   0  0  0  0  0  0  0  0  0  0  0  0
   49.0861   34.7932   43.6186 H   0  0  0  0  0  0  0  0  0  0  0  0
   49.6687   33.6904   42.6876 H   0  0  0  0  0  0  0  0  0  0  0  0
  1  6  2  0
  2  3  2  0
  2  1  1  0
  3  4  1  0
  4  5  2  0
  5  9  1  0
  6  5  1  0
  8  7  2  0
  9  7  1  0
 10 12  1  0
 10  3  1  0
 11 10  1  0
 11 12  1  0
  1 13  1  0
  2 14  1  0
  7 15  1  0
  9 16  1  0
 10 17  1  0
 11 18  1  0
 11 19  1  0
 12 20  1  0
 12 21  1  0
M  ISO  8  13  14  14  14  15   6  17  13  18  13  19  13  20  13  21  13
M  END
>  <minimizedAffinity>  (1) 
-4.81318569

>  <minimizedRMSD>  (1) 
0.927558839

$$$$
