
     RDKit          3D

 38 40  0  0  0  0  0  0  0  0999 V2000
   46.9780   32.6520   36.7370 C   0  0  0  0  0  0  0  0  0  0  0  0
   46.0810   31.7300   36.8780 O   0  0  0  0  0  0  0  0  0  0  0  0
   47.6280   32.3820   35.4350 C   0  0  0  0  0  0  0  0  0  0  0  0
   48.9950   32.5490   35.1310 C   0  0  0  0  0  0  0  0  0  0  0  0
   49.3150   32.2180   33.8270 C   0  0  0  0  0  0  0  0  0  0  0  0
   48.4060   31.7830   32.9540 C   0  0  0  0  0  0  0  0  0  0  0  0
   46.8300   31.7970   33.9970 S   0  0  0  0  0  0  0  0  0  0  0  0
   48.3500   31.3590   31.5810 C   0  0  0  0  0  0  0  0  0  0  0  0
   47.8960   30.1180   31.2360 C   0  0  0  0  0  0  0  0  0  0  0  0
   47.9040   29.8620   29.8740 C   0  0  0  0  0  0  0  0  0  0  0  0
   48.3460   30.8210   28.9740 C   0  0  0  0  0  0  0  0  0  0  0  0
   48.7960   32.0630   29.3760 C   0  0  0  0  0  0  0  0  0  0  0  0
   48.7790   32.2930   30.7210 N   0  0  0  0  0  0  0  0  0  0  0  0
   46.9800   33.4790   37.7870 O   0  0  0  0  0  0  0  0  0  0  0  0
   48.0630   34.7460   39.7510 O   0  0  0  0  0  0  0  0  0  0  0  0
   47.9210   33.3780   39.1630 P   0  0  2  0  0  0  0  0  0  0  0  0
   49.4310   32.8370   38.7400 O   0  0  0  0  0  0  0  0  0  0  0  0
   47.1530   32.3070   40.2910 O   0  0  0  0  0  0  0  0  0  0  0  0
   45.2870   33.1770   41.4840 C   0  0  0  0  0  0  0  0  0  0  0  0
   46.6140   32.7970   41.4750 C   0  0  0  0  0  0  0  0  0  0  0  0
   47.3570   32.9230   42.6580 C   0  0  0  0  0  0  0  0  0  0  0  0
   46.7200   33.4170   43.7580 N   0  0  0  0  0  0  0  0  0  0  0  0
   45.4360   33.7760   43.7310 C   0  0  0  0  0  0  0  0  0  0  0  0
   44.7160   33.6590   42.6080 N   0  0  0  0  0  0  0  0  0  0  0  0
   44.5930   35.7110   44.8570 C   0  0  0  0  0  0  0  0  0  0  0  0
   44.9340   36.4370   43.8850 O   0  0  0  0  0  0  0  0  0  0  0  0
   44.7960   34.2930   44.9120 N   0  0  0  0  0  0  0  0  0  0  0  0
   49.7355   32.9080   35.8609 H   0  0  0  0  0  0  0  0  0  0  0  0
   50.3597   32.3174   33.4973 H   0  0  0  0  0  0  0  0  0  0  0  0
   47.5523   29.3823   31.9780 H   0  0  0  0  0  0  0  0  0  0  0  0
   47.5558   28.8871   29.5021 H   0  0  0  0  0  0  0  0  0  0  0  0
   48.3376   30.5830   27.9001 H   0  0  0  0  0  0  0  0  0  0  0  0
   49.1460   32.8190   28.6577 H   0  0  0  0  0  0  0  0  0  0  0  0
   49.9555   32.6491   39.5584 H   0  0  0  0  0  0  0  0  0  0  0  0
   44.6886   33.0860   40.5655 H   0  0  0  0  0  0  0  0  0  0  0  0
   48.4174   32.6332   42.6972 H   0  0  0  0  0  0  0  0  0  0  0  0
   44.1090   36.1960   45.7175 H   0  0  0  0  0  0  0  0  0  0  0  0
   44.5141   33.7071   45.7108 H   0  0  0  0  0  0  0  0  0  0  0  0
  1  2  2  0
  1 14  1  0
  3  1  1  0
  4  3  2  0
  5  4  1  0
  6  5  2  0
  6  7  1  0
  7  3  1  0
  8  6  1  0
  9  8  2  0
 10  9  1  0
 11 12  1  0
 11 10  2  0
 12 13  2  0
 13  8  1  0
 14 16  1  0
 16 15  2  0
 16 18  1  0
 17 16  1  0
 18 20  1  0
 19 24  2  0
 20 19  1  0
 20 21  2  0
 21 22  1  0
 23 22  2  0
 23 27  1  0
 24 23  1  0
 25 27  1  0
 26 25  2  0
  4 28  1  0
  5 29  1  0
  9 30  1  0
 10 31  1  0
 11 32  1  0
 12 33  1  0
 17 34  1  0
 19 35  1  0
 21 36  1  0
 25 37  1  0
 27 38  1  0
M  ISO  8  28  14  29  14  30  14  31  14  32  14  33  14  34   3  35  14
M  ISO  2  36  14  37   6
M  END
>  <minimizedAffinity>  (1) 
-6.00078249

>  <minimizedRMSD>  (1) 
2.93061543

$$$$
