
     RDKit          3D

 37 39  0  0  1  0  0  0  0  0999 V2000
   48.1190   34.4360   41.1620 C   0  0  1  0  0  0  0  0  0  0  0  0
   48.8480   35.7490   41.6550 C   0  0  0  0  0  0  0  0  0  0  0  0
   49.0390   34.4420   42.2930 C   0  0  2  0  0  0  0  0  0  0  0  0
   46.6480   34.5110   41.3840 C   0  0  0  0  0  0  0  0  0  0  0  0
   45.9210   34.3130   40.4160 O   0  0  0  0  0  0  0  0  0  0  0  0
   45.4240   35.9660   42.9290 C   0  0  0  0  0  0  0  0  0  0  0  0
   46.0330   34.7930   42.6380 C   0  0  0  0  0  0  0  0  0  0  0  0
   46.0420   33.7960   43.6550 C   0  0  0  0  0  0  0  0  0  0  0  0
   45.4620   34.0320   44.8540 N   0  0  0  0  0  0  0  0  0  0  0  0
   44.8620   35.2330   45.0970 C   0  0  0  0  0  0  0  0  0  0  0  0
   44.8480   36.1640   44.1590 N   0  0  0  0  0  0  0  0  0  0  0  0
   50.3270   33.9330   42.1570 O   0  0  0  0  0  0  0  0  0  0  0  0
   48.9460   31.9570   43.0730 O   0  0  0  0  0  0  0  0  0  0  0  0
   50.1940   32.2410   42.2590 P   0  0  2  0  0  0  0  0  0  0  0  0
   51.5410   31.5090   42.9040 O   0  0  0  0  0  0  0  0  0  0  0  0
   49.8420   31.6490   40.6780 O   0  0  0  0  0  0  0  0  0  0  0  0
   52.1820   32.0150   40.5430 N   0  0  0  0  0  0  0  0  0  0  0  0
   53.2240   31.4020   39.7370 C   0  0  0  0  0  0  0  0  0  0  0  0
   52.8810   29.9160   39.8250 C   0  0  0  0  0  0  0  0  0  0  0  0
   51.4570   29.8600   40.3940 C   0  0  0  0  0  0  0  0  0  0  0  0
   51.0210   31.2890   40.0930 C   0  0  1  0  0  0  0  0  0  0  0  0
   48.0435   33.7973   40.2696 H   0  0  0  0  0  0  0  0  0  0  0  0
   49.6520   36.1998   41.0547 H   0  0  0  0  0  0  0  0  0  0  0  0
   48.5415   36.7545   41.9790 H   0  0  0  0  0  0  0  0  0  0  0  0
   48.9115   34.0377   43.3080 H   0  0  0  0  0  0  0  0  0  0  0  0
   45.3904   36.7660   42.1748 H   0  0  0  0  0  0  0  0  0  0  0  0
   46.5245   32.8261   43.4639 H   0  0  0  0  0  0  0  0  0  0  0  0
   44.3907   35.4261   46.0720 H   0  0  0  0  0  0  0  0  0  0  0  0
   51.4902   31.5366   43.8923 H   0  0  0  0  0  0  0  0  0  0  0  0
   52.3499   31.8732   41.5493 H   0  0  0  0  0  0  0  0  0  0  0  0
   54.2209   31.6050   40.1552 H   0  0  0  0  0  0  0  0  0  0  0  0
   53.2608   31.7826   38.7056 H   0  0  0  0  0  0  0  0  0  0  0  0
   52.9155   29.4533   38.8277 H   0  0  0  0  0  0  0  0  0  0  0  0
   53.5958   29.3677   40.4562 H   0  0  0  0  0  0  0  0  0  0  0  0
   50.8332   29.1201   39.8712 H   0  0  0  0  0  0  0  0  0  0  0  0
   51.3814   29.5554   41.4483 H   0  0  0  0  0  0  0  0  0  0  0  0
   50.7657   31.4798   39.0402 H   0  0  0  0  0  0  0  0  0  0  0  0
  1  4  1  0
  1  2  1  0
  1  3  1  0
  2  3  1  0
  4  7  1  0
  5  4  2  0
  6 11  2  0
  7  6  1  0
  7  8  2  0
  8  9  1  0
  9 10  2  0
 11 10  1  0
 12 14  1  0
 12  3  1  0
 14 15  1  0
 14 13  2  0
 16 14  1  0
 18 19  1  0
 18 17  1  0
 19 20  1  0
 21 20  1  0
 21 17  1  0
 21 16  1  0
  1 22  1  6
  2 23  1  0
  2 24  1  0
  3 25  1  1
  6 26  1  0
  8 27  1  0
 10 28  1  0
 15 29  1  0
 17 30  1  0
 18 31  1  0
 18 32  1  0
 19 33  1  0
 19 34  1  0
 20 35  1  0
 20 36  1  0
 21 37  1  6
M  ISO  8  22  13  23  13  24  13  25  13  26  14  27  14  28  14  29   3
M  ISO  8  30   5  31  13  32  13  33  13  34  13  35  13  36  13  37  13
M  END
>  <minimizedAffinity>  (1) 
-5.03902578

>  <minimizedRMSD>  (1) 
1.76505864

$$$$
