
     RDKit          3D

 35 37  0  0  1  0  0  0  0  0999 V2000
   48.0230   34.6550   41.9790 C   0  0  2  0  0  0  0  0  0  0  0  0
   46.7360   33.8770   42.2980 C   0  0  1  0  0  0  0  0  0  0  0  0
   47.3000   32.6560   42.6190 O   0  0  0  0  0  0  0  0  0  0  0  0
   48.1280   32.3700   41.5310 C   0  0  0  0  0  0  0  0  0  0  0  0
   48.5150   33.6940   40.8920 C   0  0  1  0  0  0  0  0  0  0  0  0
   44.5170   36.0280   44.5070 C   0  0  0  0  0  0  0  0  0  0  0  0
   45.1900   35.6330   43.3480 C   0  0  0  0  0  0  0  0  0  0  0  0
   45.9660   34.4850   43.3780 C   0  0  0  0  0  0  0  0  0  0  0  0
   46.0330   33.7880   44.5590 N   0  0  0  0  0  0  0  0  0  0  0  0
   45.3820   34.1750   45.6690 C   0  0  0  0  0  0  0  0  0  0  0  0
   44.6200   35.2960   45.6510 N   0  0  0  0  0  0  0  0  0  0  0  0
   48.9160   34.5560   43.0010 O   0  0  0  0  0  0  0  0  0  0  0  0
   47.7350   33.9450   39.7570 O   0  0  0  0  0  0  0  0  0  0  0  0
   49.4620   33.0770   38.4150 N   0  0  0  0  0  0  0  0  0  0  0  0
   48.7810   32.1370   37.5490 C   0  0  0  0  0  0  0  0  0  0  0  0
   47.9890   33.0010   36.5910 C   0  0  0  0  0  0  0  0  0  0  0  0
   47.6900   34.2480   37.3900 C   0  0  0  0  0  0  0  0  0  0  0  0
   48.5390   34.1730   38.6330 C   0  0  1  0  0  0  0  0  0  0  0  0
   47.8986   35.7254   41.7580 H   0  0  0  0  0  0  0  0  0  0  0  0
   45.9840   33.8353   41.4962 H   0  0  0  0  0  0  0  0  0  0  0  0
   49.0292   31.8405   41.8737 H   0  0  0  0  0  0  0  0  0  0  0  0
   47.6075   31.7270   40.8060 H   0  0  0  0  0  0  0  0  0  0  0  0
   49.5722   33.7541   40.5943 H   0  0  0  0  0  0  0  0  0  0  0  0
   43.8988   36.9378   44.4955 H   0  0  0  0  0  0  0  0  0  0  0  0
   45.1052   36.2248   42.4247 H   0  0  0  0  0  0  0  0  0  0  0  0
   45.4674   33.5824   46.5918 H   0  0  0  0  0  0  0  0  0  0  0  0
   48.4358   34.6092   43.8651 H   0  0  0  0  0  0  0  0  0  0  0  0
   50.3218   33.4196   37.9631 H   0  0  0  0  0  0  0  0  0  0  0  0
   49.5069   31.5169   37.0026 H   0  0  0  0  0  0  0  0  0  0  0  0
   48.1390   31.4430   38.1113 H   0  0  0  0  0  0  0  0  0  0  0  0
   47.0590   32.4980   36.2876 H   0  0  0  0  0  0  0  0  0  0  0  0
   48.5355   33.2139   35.6604 H   0  0  0  0  0  0  0  0  0  0  0  0
   47.9483   35.1442   36.8068 H   0  0  0  0  0  0  0  0  0  0  0  0
   46.6211   34.3128   37.6414 H   0  0  0  0  0  0  0  0  0  0  0  0
   49.0800   35.1124   38.8196 H   0  0  0  0  0  0  0  0  0  0  0  0
  1  2  1  0
  1 12  1  0
  2  3  1  0
  2  8  1  0
  4  3  1  0
  5  4  1  0
  5  1  1  0
  6 11  2  0
  7  8  2  0
  7  6  1  0
  8  9  1  0
  9 10  2  0
 11 10  1  0
 13  5  1  0
 14 18  1  0
 15 14  1  0
 16 17  1  0
 16 15  1  0
 17 18  1  0
 18 13  1  0
  1 19  1  6
  2 20  1  6
  4 21  1  0
  4 22  1  0
  5 23  1  6
  6 24  1  0
  7 25  1  0
 10 26  1  0
 12 27  1  0
 14 28  1  0
 15 29  1  0
 15 30  1  0
 16 31  1  0
 16 32  1  0
 17 33  1  0
 17 34  1  0
 18 35  1  1
M  ISO  8  19  13  20  13  21  13  22  13  23  13  24  14  25  14  26  14
M  ISO  8  27   3  28   5  29  13  30  13  31  13  32  13  33  13  34  13
M  ISO  1  35  13
M  END
>  <minimizedAffinity>  (1) 
-4.77384377

>  <minimizedRMSD>  (1) 
1.40444803

$$$$
