
     RDKit          3D

 46 48  0  0  1  0  0  0  0  0999 V2000
   46.6690   34.5300   42.2980 C   0  0  2  0  0  0  0  0  0  0  0  0
   46.4560   35.8560   42.9070 C   0  0  0  0  0  0  0  0  0  0  0  0
   44.9750   36.1780   42.9090 C   0  0  0  0  0  0  0  0  0  0  0  0
   44.2770   35.3900   43.7980 O   0  0  0  0  0  0  0  0  0  0  0  0
   44.8900   34.1520   43.9610 C   0  0  0  0  0  0  0  0  0  0  0  0
   45.4300   33.6820   42.6120 C   0  0  1  0  0  0  0  0  0  0  0  0
   44.3410   33.9200   41.7170 N   0  0  0  0  0  0  0  0  0  0  0  0
   44.6020   33.9350   40.3330 C   0  0  0  0  0  0  0  0  0  0  0  0
   43.1860   33.8830   39.7410 C   0  0  0  0  0  0  0  0  0  0  0  0
   42.6340   32.7160   40.5640 C   0  0  0  0  0  0  0  0  0  0  0  0
   43.4150   32.8210   41.8630 C   0  0  0  0  0  0  0  0  0  0  0  0
   47.8120   33.8920   42.5570 O   0  0  0  0  0  0  0  0  0  0  0  0
   50.3130   34.6670   42.4200 O   0  0  0  0  0  0  0  0  0  0  0  0
   49.1450   34.2000   41.6370 P   0  0  2  0  0  0  0  0  0  0  0  0
   48.7620   35.4400   40.5400 O   0  0  0  0  0  0  0  0  0  0  0  0
   49.5630   32.8130   40.7010 O   0  0  0  0  0  0  0  0  0  0  0  0
   49.9440   31.0680   42.2430 C   0  0  0  0  0  0  0  0  0  0  0  0
   50.4020   31.8340   41.1960 C   0  0  0  0  0  0  0  0  0  0  0  0
   51.6990   31.5850   40.6810 C   0  0  0  0  0  0  0  0  0  0  0  0
   52.4130   30.5960   41.2610 N   0  0  0  0  0  0  0  0  0  0  0  0
   51.9390   29.8780   42.2690 C   0  0  0  0  0  0  0  0  0  0  0  0
   50.6950   30.1250   42.7540 N   0  0  0  0  0  0  0  0  0  0  0  0
   47.5510   30.4170   42.4780 C   0  0  0  0  0  0  0  0  0  0  0  0
   47.4220   30.1080   41.2330 O   0  0  0  0  0  0  0  0  0  0  0  0
   48.7990   30.9230   43.0690 N   0  0  0  0  0  0  0  0  0  0  0  0
   46.7960   34.7050   41.2195 H   0  0  0  0  0  0  0  0  0  0  0  0
   46.8314   35.8494   43.9410 H   0  0  0  0  0  0  0  0  0  0  0  0
   46.9965   36.6178   42.3261 H   0  0  0  0  0  0  0  0  0  0  0  0
   44.8413   37.2333   43.1890 H   0  0  0  0  0  0  0  0  0  0  0  0
   44.5830   35.9814   41.9002 H   0  0  0  0  0  0  0  0  0  0  0  0
   45.7188   34.2427   44.6785 H   0  0  0  0  0  0  0  0  0  0  0  0
   44.1596   33.4235   44.3427 H   0  0  0  0  0  0  0  0  0  0  0  0
   45.7452   32.6295   42.5582 H   0  0  0  0  0  0  0  0  0  0  0  0
   45.1263   34.8549   40.0350 H   0  0  0  0  0  0  0  0  0  0  0  0
   45.2543   33.1161   39.9956 H   0  0  0  0  0  0  0  0  0  0  0  0
   42.6288   34.8147   39.9186 H   0  0  0  0  0  0  0  0  0  0  0  0
   43.1306   33.7636   38.6489 H   0  0  0  0  0  0  0  0  0  0  0  0
   41.5544   32.8313   40.7404 H   0  0  0  0  0  0  0  0  0  0  0  0
   42.7453   31.7412   40.0665 H   0  0  0  0  0  0  0  0  0  0  0  0
   43.9652   31.8867   42.0485 H   0  0  0  0  0  0  0  0  0  0  0  0
   42.7379   32.9912   42.7130 H   0  0  0  0  0  0  0  0  0  0  0  0
   48.5098   36.2565   41.0398 H   0  0  0  0  0  0  0  0  0  0  0  0
   52.1065   32.1721   39.8448 H   0  0  0  0  0  0  0  0  0  0  0  0
   52.5538   29.0813   42.7131 H   0  0  0  0  0  0  0  0  0  0  0  0
   46.6778   30.2952   43.1357 H   0  0  0  0  0  0  0  0  0  0  0  0
   48.8415   31.1687   44.0684 H   0  0  0  0  0  0  0  0  0  0  0  0
  1 12  1  0
  1  6  1  0
  1  2  1  0
  2  3  1  0
  3  4  1  0
  4  5  1  0
  6  5  1  0
  7  8  1  0
  7 11  1  0
  7  6  1  0
  9  8  1  0
  9 10  1  0
 10 11  1  0
 14 13  2  0
 14 12  1  0
 15 14  1  0
 16 18  1  0
 16 14  1  0
 17 22  2  0
 17 25  1  0
 18 17  1  0
 19 18  2  0
 19 20  1  0
 20 21  2  0
 21 22  1  0
 23 25  1  0
 24 23  2  0
  1 26  1  6
  2 27  1  0
  2 28  1  0
  3 29  1  0
  3 30  1  0
  5 31  1  0
  5 32  1  0
  6 33  1  1
  8 34  1  0
  8 35  1  0
  9 36  1  0
  9 37  1  0
 10 38  1  0
 10 39  1  0
 11 40  1  0
 11 41  1  0
 15 42  1  0
 19 43  1  0
 21 44  1  0
 23 45  1  0
 25 46  1  0
M  ISO  8  26  13  27  13  28  13  29  13  30  13  31  13  32  13  33  13
M  ISO  8  34  13  35  13  36  13  37  13  38  13  39  13  40  13  41  13
M  ISO  4  42   3  43  14  44  14  45   6
M  END
>  <minimizedAffinity>  (1) 
-4.14618444

>  <minimizedRMSD>  (1) 
1.73540056

$$$$
