
     RDKit          3D

 36 38  0  0  0  0  0  0  0  0999 V2000
   46.4780   34.7130   41.8590 N   0  0  0  0  0  0  0  0  0  0  0  0
   47.7840   35.1320   41.6000 C   0  0  0  0  0  0  0  0  0  0  0  0
   48.3470   34.7420   40.2700 C   0  0  0  0  0  0  0  0  0  0  0  0
   47.9600   33.5010   39.7460 N   0  0  0  0  0  0  0  0  0  0  0  0
   46.6680   33.0520   40.0390 C   0  0  0  0  0  0  0  0  0  0  0  0
   45.8440   34.1380   40.7190 C   0  0  0  0  0  0  0  0  0  0  0  0
   45.1970   36.0540   43.3860 C   0  0  0  0  0  0  0  0  0  0  0  0
   45.8700   34.8770   43.1030 C   0  0  0  0  0  0  0  0  0  0  0  0
   45.8870   33.9470   44.1060 C   0  0  0  0  0  0  0  0  0  0  0  0
   45.2940   34.1380   45.3080 N   0  0  0  0  0  0  0  0  0  0  0  0
   44.6430   35.3120   45.5420 C   0  0  0  0  0  0  0  0  0  0  0  0
   44.6080   36.2320   44.5950 N   0  0  0  0  0  0  0  0  0  0  0  0
   46.5020   32.6800   44.0990 N   0  0  0  0  0  0  0  0  0  0  0  0
   47.6910   31.7990   44.1020 C   0  0  0  0  0  0  0  0  0  0  0  0
   47.4790   30.8390   45.2440 C   0  0  0  0  0  0  0  0  0  0  0  0
   45.9600   30.7740   45.3690 C   0  0  0  0  0  0  0  0  0  0  0  0
   45.6120   31.4940   44.0820 C   0  0  0  0  0  0  0  0  0  0  0  0
   47.8042   36.2299   41.6650 H   0  0  0  0  0  0  0  0  0  0  0  0
   48.4116   34.6248   42.3476 H   0  0  0  0  0  0  0  0  0  0  0  0
   48.0481   35.5140   39.5457 H   0  0  0  0  0  0  0  0  0  0  0  0
   49.4303   34.6516   40.4380 H   0  0  0  0  0  0  0  0  0  0  0  0
   48.6203   32.7957   40.1029 H   0  0  0  0  0  0  0  0  0  0  0  0
   46.1703   32.7580   39.1031 H   0  0  0  0  0  0  0  0  0  0  0  0
   46.7459   32.1955   40.7248 H   0  0  0  0  0  0  0  0  0  0  0  0
   45.6536   34.9376   39.9880 H   0  0  0  0  0  0  0  0  0  0  0  0
   44.9178   33.6622   41.0737 H   0  0  0  0  0  0  0  0  0  0  0  0
   45.1398   36.8481   42.6269 H   0  0  0  0  0  0  0  0  0  0  0  0
   44.1517   35.4916   46.5096 H   0  0  0  0  0  0  0  0  0  0  0  0
   47.7671   31.2530   43.1501 H   0  0  0  0  0  0  0  0  0  0  0  0
   48.6227   32.3720   44.2186 H   0  0  0  0  0  0  0  0  0  0  0  0
   47.8980   29.8492   45.0100 H   0  0  0  0  0  0  0  0  0  0  0  0
   47.9745   31.1581   46.1728 H   0  0  0  0  0  0  0  0  0  0  0  0
   45.5868   29.7393   45.3817 H   0  0  0  0  0  0  0  0  0  0  0  0
   45.5327   31.1974   46.2900 H   0  0  0  0  0  0  0  0  0  0  0  0
   44.5543   31.7959   44.0737 H   0  0  0  0  0  0  0  0  0  0  0  0
   45.7499   30.8669   43.1888 H   0  0  0  0  0  0  0  0  0  0  0  0
  1  8  1  0
  2  1  1  0
  3  2  1  0
  4  5  1  0
  4  3  1  0
  5  6  1  0
  6  1  1  0
  7 12  2  0
  8  7  1  0
  8  9  2  0
  9 10  1  0
 10 11  2  0
 12 11  1  0
 13 14  1  0
 13  9  1  0
 14 15  1  0
 15 16  1  0
 17 13  1  0
 17 16  1  0
  2 18  1  0
  2 19  1  0
  3 20  1  0
  3 21  1  0
  4 22  1  0
  5 23  1  0
  5 24  1  0
  6 25  1  0
  6 26  1  0
  7 27  1  0
 11 28  1  0
 14 29  1  0
 14 30  1  0
 15 31  1  0
 15 32  1  0
 16 33  1  0
 16 34  1  0
 17 35  1  0
 17 36  1  0
M  ISO  8  18  13  19  13  20  13  21  13  22   5  23  13  24  13  25  13
M  ISO  8  26  13  27  14  28  14  29  13  30  13  31  13  32  13  33  13
M  ISO  3  34  13  35  13  36  13
M  END
>  <minimizedAffinity>  (1) 
-4.44200706

>  <minimizedRMSD>  (1) 
3.01884413

$$$$
