
     RDKit          3D

 25 26  0  0  0  0  0  0  0  0999 V2000
   45.0840   34.7770   45.1540 C   0  0  0  0  0  0  0  0  0  0  0  0
   45.8360   34.5830   43.9980 C   0  0  0  0  0  0  0  0  0  0  0  0
   46.6630   33.4600   43.9490 C   0  0  0  0  0  0  0  0  0  0  0  0
   46.7010   32.6210   45.0060 N   0  0  0  0  0  0  0  0  0  0  0  0
   45.9440   32.8510   46.1230 C   0  0  0  0  0  0  0  0  0  0  0  0
   45.1400   33.9250   46.1920 N   0  0  0  0  0  0  0  0  0  0  0  0
   46.0070   31.9450   47.2220 N   0  0  0  0  0  0  0  0  0  0  0  0
   46.4120   32.2610   48.5780 C   0  0  0  0  0  0  0  0  0  0  0  0
   45.3690   31.5190   49.3790 C   0  0  0  0  0  0  0  0  0  0  0  0
   45.1500   30.2710   48.5520 C   0  0  0  0  0  0  0  0  0  0  0  0
   45.6720   30.5340   47.1740 C   0  0  0  0  0  0  0  0  0  0  0  0
   45.7030   35.5860   42.9040 C   0  0  0  0  0  0  0  0  0  0  0  0
   45.2550   36.7520   43.5160 F   0  0  0  0  0  0  0  0  0  0  0  0
   44.7840   35.1420   42.0030 F   0  0  0  0  0  0  0  0  0  0  0  0
   46.9630   35.7570   42.3250 F   0  0  0  0  0  0  0  0  0  0  0  0
   44.4239   35.6545   45.2196 H   0  0  0  0  0  0  0  0  0  0  0  0
   47.2774   33.2605   43.0586 H   0  0  0  0  0  0  0  0  0  0  0  0
   47.4246   31.8889   48.7928 H   0  0  0  0  0  0  0  0  0  0  0  0
   46.4629   33.3385   48.7933 H   0  0  0  0  0  0  0  0  0  0  0  0
   45.7416   31.2702   50.3836 H   0  0  0  0  0  0  0  0  0  0  0  0
   44.4505   32.0999   49.5490 H   0  0  0  0  0  0  0  0  0  0  0  0
   45.6911   29.4253   49.0014 H   0  0  0  0  0  0  0  0  0  0  0  0
   44.0798   30.0194   48.5145 H   0  0  0  0  0  0  0  0  0  0  0  0
   44.9022   30.3350   46.4139 H   0  0  0  0  0  0  0  0  0  0  0  0
   46.5231   29.8930   46.9006 H   0  0  0  0  0  0  0  0  0  0  0  0
  1  6  2  0
  2  1  1  0
  3  2  2  0
  3  4  1  0
  4  5  2  0
  5  6  1  0
  5  7  1  0
  7  8  1  0
  8  9  1  0
 10  9  1  0
 11  7  1  0
 11 10  1  0
 12 13  1  0
 12  2  1  0
 14 12  1  0
 15 12  1  0
  1 16  1  0
  3 17  1  0
  8 18  1  0
  8 19  1  0
  9 20  1  0
  9 21  1  0
 10 22  1  0
 10 23  1  0
 11 24  1  0
 11 25  1  0
M  ISO  8  16  14  17  14  18  13  19  13  20  13  21  13  22  13  23  13
M  ISO  2  24  13  25  13
M  END
>  <minimizedAffinity>  (1) 
-5.29451799

>  <minimizedRMSD>  (1) 
0.608152211

$$$$
