
     RDKit          3D

 47 50  0  0  1  0  0  0  0  0999 V2000
   46.7880   33.4340   44.6020 F   0  0  0  0  0  0  0  0  0  0  0  0
   47.4320   32.2450   44.4080 C   0  0  0  0  0  0  0  0  0  0  0  0
   48.2490   32.1220   43.3020 C   0  0  0  0  0  0  0  0  0  0  0  0
   48.8840   30.9360   43.1200 C   0  0  0  0  0  0  0  0  0  0  0  0
   48.7070   29.9020   44.0200 C   0  0  0  0  0  0  0  0  0  0  0  0
   47.9010   30.0190   45.1140 C   0  0  0  0  0  0  0  0  0  0  0  0
   47.2460   31.2390   45.3040 C   0  0  0  0  0  0  0  0  0  0  0  0
   46.4180   31.3140   46.4570 N   0  0  0  0  0  0  0  0  0  0  0  0
   45.3590   30.4750   46.9230 C   0  0  0  0  0  0  0  0  0  0  0  0
   45.7210   30.2280   48.3910 C   0  0  0  0  0  0  0  0  0  0  0  0
   46.5980   31.4050   48.7340 C   0  0  0  0  0  0  0  0  0  0  0  0
   46.4050   32.3030   47.5410 C   0  0  2  0  0  0  0  0  0  0  0  0
   45.1650   33.1230   47.5850 C   0  0  0  0  0  0  0  0  0  0  0  0
   49.0640   35.4330   41.9710 C   0  0  0  0  0  0  0  0  0  0  0  0
   48.6810   35.3450   40.6100 C   0  0  0  0  0  0  0  0  0  0  0  0
   48.1530   34.1180   40.2220 C   0  0  0  0  0  0  0  0  0  0  0  0
   48.0310   33.1150   41.1110 N   0  0  0  0  0  0  0  0  0  0  0  0
   48.4030   33.2390   42.3830 C   0  0  0  0  0  0  0  0  0  0  0  0
   48.9130   34.3910   42.7980 N   0  0  0  0  0  0  0  0  0  0  0  0
   47.7560   33.9890   38.8600 N   0  0  0  0  0  0  0  0  0  0  0  0
   46.5830   33.2470   38.4370 C   0  0  0  0  0  0  0  0  0  0  0  0
   46.8560   32.8920   36.9700 C   0  0  0  0  0  0  0  0  0  0  0  0
   48.2810   33.3430   36.7240 C   0  0  0  0  0  0  0  0  0  0  0  0
   48.3820   34.5270   37.6660 C   0  0  0  0  0  0  0  0  0  0  0  0
   49.5436   30.7970   42.2507 H   0  0  0  0  0  0  0  0  0  0  0  0
   49.2343   28.9521   43.8480 H   0  0  0  0  0  0  0  0  0  0  0  0
   47.7714   29.1852   45.8197 H   0  0  0  0  0  0  0  0  0  0  0  0
   44.3874   30.9835   46.8375 H   0  0  0  0  0  0  0  0  0  0  0  0
   45.2607   29.5456   46.3429 H   0  0  0  0  0  0  0  0  0  0  0  0
   44.8199   30.2108   49.0217 H   0  0  0  0  0  0  0  0  0  0  0  0
   46.2161   29.2596   48.5555 H   0  0  0  0  0  0  0  0  0  0  0  0
   46.2638   31.8950   49.6604 H   0  0  0  0  0  0  0  0  0  0  0  0
   47.6482   31.1346   48.9181 H   0  0  0  0  0  0  0  0  0  0  0  0
   47.1678   33.0903   47.4499 H   0  0  0  0  0  0  0  0  0  0  0  0
   44.8849   33.3082   48.6325 H   0  0  0  0  0  0  0  0  0  0  0  0
   45.3419   34.0828   47.0775 H   0  0  0  0  0  0  0  0  0  0  0  0
   44.3511   32.5845   47.0775 H   0  0  0  0  0  0  0  0  0  0  0  0
   49.4918   36.3713   42.3540 H   0  0  0  0  0  0  0  0  0  0  0  0
   48.7931   36.1864   39.9104 H   0  0  0  0  0  0  0  0  0  0  0  0
   46.4618   32.3355   39.0408 H   0  0  0  0  0  0  0  0  0  0  0  0
   45.6565   33.8272   38.5597 H   0  0  0  0  0  0  0  0  0  0  0  0
   46.7588   31.8083   36.8086 H   0  0  0  0  0  0  0  0  0  0  0  0
   46.1428   33.3743   36.2854 H   0  0  0  0  0  0  0  0  0  0  0  0
   49.0038   32.5564   36.9863 H   0  0  0  0  0  0  0  0  0  0  0  0
   48.5041   33.5815   35.6736 H   0  0  0  0  0  0  0  0  0  0  0  0
   49.4295   34.8072   37.8510 H   0  0  0  0  0  0  0  0  0  0  0  0
   47.9153   35.4480   37.2865 H   0  0  0  0  0  0  0  0  0  0  0  0
  2  1  1  0
  2  7  2  0
  3  2  1  0
  4  3  2  0
  4  5  1  0
  5  6  2  0
  6  7  1  0
  7  8  1  0
  8  9  1  0
  8 12  1  0
  9 10  1  0
 10 11  1  0
 12 13  1  0
 12 11  1  0
 14 19  2  0
 15 14  1  0
 16 15  2  0
 16 17  1  0
 17 18  2  0
 18 19  1  0
 18  3  1  0
 20 16  1  0
 21 20  1  0
 22 21  1  0
 23 22  1  0
 23 24  1  0
 24 20  1  0
  4 25  1  0
  5 26  1  0
  6 27  1  0
  9 28  1  0
  9 29  1  0
 10 30  1  0
 10 31  1  0
 11 32  1  0
 11 33  1  0
 12 34  1  6
 13 35  1  0
 13 36  1  0
 13 37  1  0
 14 38  1  0
 15 39  1  0
 21 40  1  0
 21 41  1  0
 22 42  1  0
 22 43  1  0
 23 44  1  0
 23 45  1  0
 24 46  1  0
 24 47  1  0
M  ISO  8  25  14  26  14  27  14  28  13  29  13  30  13  31  13  32  13
M  ISO  8  33  13  34  13  35   8  36   8  37   8  38  14  39  14  40  13
M  ISO  7  41  13  42  13  43  13  44  13  45  13  46  13  47  13
M  END
>  <minimizedAffinity>  (1) 
-5.66871977

>  <minimizedRMSD>  (1) 
1.12029874

$$$$
