
     RDKit          3D

 48 51  0  0  0  0  0  0  0  0999 V2000
   39.5830   35.4510   40.2690 C   0  0  0  0  0  0  0  0  0  0  0  0
   39.0490   33.0630   40.2410 C   0  0  0  0  0  0  0  0  0  0  0  0
   39.1830   32.9400   41.4890 O   0  0  0  0  0  0  0  0  0  0  0  0
   39.1400   34.2880   39.5290 N   0  0  0  0  0  0  0  0  0  0  0  0
   38.7710   31.8550   39.4190 C   0  0  0  0  0  0  0  0  0  0  0  0
   38.9750   31.9060   38.0540 C   0  0  0  0  0  0  0  0  0  0  0  0
   38.7570   30.8620   37.1820 C   0  0  0  0  0  0  0  0  0  0  0  0
   38.2980   29.6890   37.7530 C   0  0  0  0  0  0  0  0  0  0  0  0
   38.1050   29.6660   39.1090 C   0  0  0  0  0  0  0  0  0  0  0  0
   38.3280   30.7080   39.9430 N   0  0  0  0  0  0  0  0  0  0  0  0
   37.6330   28.4710   39.7290 N   0  0  0  0  0  0  0  0  0  0  0  0
   37.2960   27.1830   39.1440 C   0  0  0  0  0  0  0  0  0  0  0  0
   38.1570   26.2790   40.0360 C   0  0  0  0  0  0  0  0  0  0  0  0
   38.2750   27.0170   41.3670 C   0  0  0  0  0  0  0  0  0  0  0  0
   37.3610   28.2280   41.1350 C   0  0  0  0  0  0  0  0  0  0  0  0
   40.8890   36.0220   39.7290 C   0  0  0  0  0  0  0  0  0  0  0  0
   43.8100   34.5860   41.6660 C   0  0  0  0  0  0  0  0  0  0  0  0
   42.7390   35.4400   41.2970 C   0  0  0  0  0  0  0  0  0  0  0  0
   42.0220   35.1630   40.1480 C   0  0  0  0  0  0  0  0  0  0  0  0
   42.4120   34.0530   39.4330 N   0  0  0  0  0  0  0  0  0  0  0  0
   43.4520   33.2670   39.8380 C   0  0  0  0  0  0  0  0  0  0  0  0
   44.1400   33.5350   40.9440 N   0  0  0  0  0  0  0  0  0  0  0  0
   44.5780   34.9120   42.9080 C   0  0  0  0  0  0  0  0  0  0  0  0
   46.0630   35.3160   42.5680 C   0  0  0  0  0  0  0  0  0  0  0  0
   45.0910   36.1740   43.2560 C   0  0  0  0  0  0  0  0  0  0  0  0
   38.8057   36.2268   40.2059 H   0  0  0  0  0  0  0  0  0  0  0  0
   39.7586   35.1392   41.3092 H   0  0  0  0  0  0  0  0  0  0  0  0
   38.9011   34.3468   38.5288 H   0  0  0  0  0  0  0  0  0  0  0  0
   39.3397   32.8534   37.6304 H   0  0  0  0  0  0  0  0  0  0  0  0
   38.9365   30.9554   36.1008 H   0  0  0  0  0  0  0  0  0  0  0  0
   38.0940   28.8010   37.1367 H   0  0  0  0  0  0  0  0  0  0  0  0
   36.2241   26.9551   39.2389 H   0  0  0  0  0  0  0  0  0  0  0  0
   37.4795   27.0927   38.0632 H   0  0  0  0  0  0  0  0  0  0  0  0
   37.6701   25.3030   40.1789 H   0  0  0  0  0  0  0  0  0  0  0  0
   39.1424   26.0818   39.5887 H   0  0  0  0  0  0  0  0  0  0  0  0
   37.9154   26.3976   42.2019 H   0  0  0  0  0  0  0  0  0  0  0  0
   39.3070   27.2828   41.6396 H   0  0  0  0  0  0  0  0  0  0  0  0
   37.6486   29.0847   41.7622 H   0  0  0  0  0  0  0  0  0  0  0  0
   36.3018   28.0686   41.3852 H   0  0  0  0  0  0  0  0  0  0  0  0
   41.0349   37.0380   40.1246 H   0  0  0  0  0  0  0  0  0  0  0  0
   40.8447   36.0556   38.6304 H   0  0  0  0  0  0  0  0  0  0  0  0
   42.4824   36.3115   41.9172 H   0  0  0  0  0  0  0  0  0  0  0  0
   43.7279   32.3898   39.2343 H   0  0  0  0  0  0  0  0  0  0  0  0
   43.9816   34.2087   43.5078 H   0  0  0  0  0  0  0  0  0  0  0  0
   46.9075   34.8705   43.1142 H   0  0  0  0  0  0  0  0  0  0  0  0
   46.6980   35.3743   41.6717 H   0  0  0  0  0  0  0  0  0  0  0  0
   44.7077   37.0648   42.7368 H   0  0  0  0  0  0  0  0  0  0  0  0
   45.1321   36.7153   44.2127 H   0  0  0  0  0  0  0  0  0  0  0  0
  2  3  2  0
  4  2  1  0
  4  1  1  0
  5 10  1  0
  5  2  1  0
  6  5  2  0
  7  8  2  0
  7  6  1  0
  8  9  1  0
  9 11  1  0
  9 10  2  0
 11 15  1  0
 12 11  1  0
 12 13  1  0
 13 14  1  0
 15 14  1  0
 16 19  1  0
 16  1  1  0
 17 23  1  0
 18 17  2  0
 19 18  1  0
 20 21  1  0
 20 19  2  0
 21 22  2  0
 22 17  1  0
 23 25  1  0
 24 23  1  0
 24 25  1  0
  1 26  1  0
  1 27  1  0
  4 28  1  0
  6 29  1  0
  7 30  1  0
  8 31  1  0
 12 32  1  0
 12 33  1  0
 13 34  1  0
 13 35  1  0
 14 36  1  0
 14 37  1  0
 15 38  1  0
 15 39  1  0
 16 40  1  0
 16 41  1  0
 18 42  1  0
 21 43  1  0
 23 44  1  0
 24 45  1  0
 24 46  1  0
 25 47  1  0
 25 48  1  0
M  ISO  8  26   8  27   8  29  14  30  14  31  14  32  13  33  13  34  13
M  ISO  8  35  13  36  13  37  13  38  13  39  13  40   8  41   8  42  14
M  ISO  6  43  14  44  13  45  13  46  13  47  13  48  13
M  END
>  <minimizedAffinity>  (1) 
-5.25578547

>  <minimizedRMSD>  (1) 
1.52011716

$$$$
