
     RDKit          3D

 40 42  0  0  1  0  0  0  0  0999 V2000
   46.3610   33.7030   44.7430 C   0  0  0  0  0  0  0  0  0  0  0  0
   45.1800   34.3720   44.9560 C   0  0  0  0  0  0  0  0  0  0  0  0
   44.6880   35.3790   44.1520 C   0  0  0  0  0  0  0  0  0  0  0  0
   45.4200   35.7520   43.0540 C   0  0  0  0  0  0  0  0  0  0  0  0
   46.6060   35.1120   42.8000 C   0  0  0  0  0  0  0  0  0  0  0  0
   47.0710   34.0990   43.6360 C   0  0  0  0  0  0  0  0  0  0  0  0
   47.6390   30.4570   45.8330 C   0  0  0  0  0  0  0  0  0  0  0  0
   47.7250   30.5850   47.2100 C   0  0  0  0  0  0  0  0  0  0  0  0
   47.3400   31.8000   47.7720 C   0  0  0  0  0  0  0  0  0  0  0  0
   46.8930   32.8270   46.9790 N   0  0  0  0  0  0  0  0  0  0  0  0
   46.8240   32.6540   45.6220 C   0  0  0  0  0  0  0  0  0  0  0  0
   47.2010   31.4710   45.0950 N   0  0  0  0  0  0  0  0  0  0  0  0
   48.3020   33.5440   43.2380 N   0  0  0  0  0  0  0  0  0  0  0  0
   49.7000   34.2030   42.5260 S   0  0  0  0  0  0  0  0  0  0  0  0
   49.3840   34.5580   41.0670 O   0  0  0  0  0  0  0  0  0  0  0  0
   50.2230   35.4230   43.1990 O   0  0  0  0  0  0  0  0  0  0  0  0
   50.8440   32.9660   42.4170 O   0  0  0  0  0  0  0  0  0  0  0  0
   49.4850   31.5970   41.0660 N   0  0  0  0  0  0  0  0  0  0  0  0
   49.3040   30.1440   41.0260 C   0  0  0  0  0  0  0  0  0  0  0  0
   50.7340   29.6640   41.1570 C   0  0  0  0  0  0  0  0  0  0  0  0
   51.2570   30.5980   42.2380 C   0  0  0  0  0  0  0  0  0  0  0  0
   50.2700   31.7190   42.3040 C   0  0  1  0  0  0  0  0  0  0  0  0
   44.5823   34.0830   45.8331 H   0  0  0  0  0  0  0  0  0  0  0  0
   43.7322   35.8707   44.3858 H   0  0  0  0  0  0  0  0  0  0  0  0
   45.0619   36.5511   42.3882 H   0  0  0  0  0  0  0  0  0  0  0  0
   47.2002   35.4033   41.9214 H   0  0  0  0  0  0  0  0  0  0  0  0
   47.9340   29.5138   45.3499 H   0  0  0  0  0  0  0  0  0  0  0  0
   48.0847   29.7562   47.8374 H   0  0  0  0  0  0  0  0  0  0  0  0
   47.3948   31.9376   48.8620 H   0  0  0  0  0  0  0  0  0  0  0  0
   48.3705   32.5314   43.4138 H   0  0  0  0  0  0  0  0  0  0  0  0
   48.7260   35.2972   41.0423 H   0  0  0  0  0  0  0  0  0  0  0  0
   50.1727   35.3056   44.1807 H   0  0  0  0  0  0  0  0  0  0  0  0
   48.5849   32.0932   41.1330 H   0  0  0  0  0  0  0  0  0  0  0  0
   48.6828   29.7923   41.8629 H   0  0  0  0  0  0  0  0  0  0  0  0
   48.7865   29.7788   40.1267 H   0  0  0  0  0  0  0  0  0  0  0  0
   50.7793   28.6121   41.4757 H   0  0  0  0  0  0  0  0  0  0  0  0
   51.3083   29.6899   40.2192 H   0  0  0  0  0  0  0  0  0  0  0  0
   51.3118   30.0758   43.2046 H   0  0  0  0  0  0  0  0  0  0  0  0
   52.2715   30.9583   42.0123 H   0  0  0  0  0  0  0  0  0  0  0  0
   49.6557   31.6369   43.2128 H   0  0  0  0  0  0  0  0  0  0  0  0
  1  2  2  0
  1 11  1  0
  3  2  1  0
  4  3  2  0
  5  4  1  0
  5  6  2  0
  6  1  1  0
  7  8  2  0
  8  9  1  0
 10  9  2  0
 11 10  1  0
 12 11  2  0
 12  7  1  0
 13  6  1  0
 14 16  1  0
 14 13  1  0
 15 14  1  0
 17 14  1  0
 18 22  1  0
 19 18  1  0
 19 20  1  0
 20 21  1  0
 21 22  1  0
 22 17  1  0
  2 23  1  0
  3 24  1  0
  4 25  1  0
  5 26  1  0
  7 27  1  0
  8 28  1  0
  9 29  1  0
 13 30  1  0
 15 31  1  0
 16 32  1  0
 18 33  1  0
 19 34  1  0
 19 35  1  0
 20 36  1  0
 20 37  1  0
 21 38  1  0
 21 39  1  0
 22 40  1  1
M  ISO  8  23  14  24  14  25  14  26  14  27  14  28  14  29  14  31   3
M  ISO  8  32   3  33   5  34  13  35  13  36  13  37  13  38  13  39  13
M  ISO  1  40  13
M  END
>  <minimizedAffinity>  (1) 
-5.79035759

>  <minimizedRMSD>  (1) 
2.35771847

$$$$
