
     RDKit          3D

 46 49  0  0  0  0  0  0  0  0999 V2000
   45.3640   33.7540   45.5950 C   0  0  0  0  0  0  0  0  0  0  0  0
   44.8310   34.9690   45.8560 C   0  0  0  0  0  0  0  0  0  0  0  0
   44.3960   35.8400   44.8850 C   0  0  0  0  0  0  0  0  0  0  0  0
   44.5270   35.4200   43.6120 N   0  0  0  0  0  0  0  0  0  0  0  0
   45.0580   34.2070   43.3440 C   0  0  0  0  0  0  0  0  0  0  0  0
   45.4820   33.3590   44.3000 N   0  0  0  0  0  0  0  0  0  0  0  0
   45.6240   32.1130   48.8560 C   0  0  0  0  0  0  0  0  0  0  0  0
   46.6420   31.1820   48.6310 C   0  0  0  0  0  0  0  0  0  0  0  0
   47.2470   31.1000   47.3820 C   0  0  0  0  0  0  0  0  0  0  0  0
   46.8060   31.9580   46.4020 N   0  0  0  0  0  0  0  0  0  0  0  0
   45.8150   32.8520   46.6510 C   0  0  0  0  0  0  0  0  0  0  0  0
   45.2400   32.9200   47.8620 N   0  0  0  0  0  0  0  0  0  0  0  0
   48.2800   30.1940   47.0620 N   0  0  0  0  0  0  0  0  0  0  0  0
   49.3120   29.6190   47.9050 C   0  0  0  0  0  0  0  0  0  0  0  0
   49.4170   28.2230   47.2920 C   0  0  0  0  0  0  0  0  0  0  0  0
   49.5500   28.6290   45.8210 C   0  0  0  0  0  0  0  0  0  0  0  0
   48.4550   29.6660   45.7020 C   0  0  0  0  0  0  0  0  0  0  0  0
   45.1930   33.7650   41.9380 C   0  0  0  0  0  0  0  0  0  0  0  0
   44.1990   32.9890   41.3730 C   0  0  0  0  0  0  0  0  0  0  0  0
   44.2250   32.5210   40.0650 C   0  0  0  0  0  0  0  0  0  0  0  0
   45.3330   32.8720   39.3050 C   0  0  0  0  0  0  0  0  0  0  0  0
   46.3080   33.6350   39.8660 C   0  0  0  0  0  0  0  0  0  0  0  0
   46.2800   34.0980   41.1630 C   0  0  0  0  0  0  0  0  0  0  0  0
   47.2520   34.8680   41.7450 O   0  0  0  0  0  0  0  0  0  0  0  0
   49.6660   35.5320   42.4860 O   0  0  0  0  0  0  0  0  0  0  0  0
   48.8980   34.8830   41.3380 P   0  0  0  0  0  0  0  0  0  0  0  0
   49.5290   33.3750   40.9680 O   0  0  0  0  0  0  0  0  0  0  0  0
   49.1100   35.8830   39.9950 O   0  0  0  0  0  0  0  0  0  0  0  0
   44.7400   35.2790   46.9075 H   0  0  0  0  0  0  0  0  0  0  0  0
   43.9664   36.8218   45.1332 H   0  0  0  0  0  0  0  0  0  0  0  0
   45.1429   32.1810   49.8429 H   0  0  0  0  0  0  0  0  0  0  0  0
   46.9647   30.5136   49.4429 H   0  0  0  0  0  0  0  0  0  0  0  0
   50.2594   30.1719   47.8233 H   0  0  0  0  0  0  0  0  0  0  0  0
   49.0888   29.6339   48.9820 H   0  0  0  0  0  0  0  0  0  0  0  0
   50.3015   27.6776   47.6528 H   0  0  0  0  0  0  0  0  0  0  0  0
   48.5898   27.5362   47.5246 H   0  0  0  0  0  0  0  0  0  0  0  0
   50.5392   29.0613   45.6100 H   0  0  0  0  0  0  0  0  0  0  0  0
   49.4589   27.7929   45.1120 H   0  0  0  0  0  0  0  0  0  0  0  0
   48.7558   30.4680   45.0119 H   0  0  0  0  0  0  0  0  0  0  0  0
   47.5236   29.2386   45.3023 H   0  0  0  0  0  0  0  0  0  0  0  0
   43.3330   32.7253   41.9978 H   0  0  0  0  0  0  0  0  0  0  0  0
   43.4115   31.9054   39.6535 H   0  0  0  0  0  0  0  0  0  0  0  0
   45.4206   32.5364   38.2611 H   0  0  0  0  0  0  0  0  0  0  0  0
   47.1757   33.8999   39.2439 H   0  0  0  0  0  0  0  0  0  0  0  0
   49.7328   32.8880   41.8055 H   0  0  0  0  0  0  0  0  0  0  0  0
   49.3055   36.8051   40.2977 H   0  0  0  0  0  0  0  0  0  0  0  0
  1  2  2  0
  1 11  1  0
  3  2  1  0
  4  3  2  0
  5  4  1  0
  5  6  2  0
  6  1  1  0
  8  7  2  0
  9  8  1  0
 10 11  1  0
 10  9  2  0
 11 12  2  0
 12  7  1  0
 13  9  1  0
 13 14  1  0
 15 14  1  0
 16 15  1  0
 17 16  1  0
 17 13  1  0
 18  5  1  0
 19 18  2  0
 20 19  1  0
 21 22  1  0
 21 20  2  0
 22 23  2  0
 23 24  1  0
 23 18  1  0
 26 24  1  0
 26 25  2  0
 27 26  1  0
 28 26  1  0
  2 29  1  0
  3 30  1  0
  7 31  1  0
  8 32  1  0
 14 33  1  0
 14 34  1  0
 15 35  1  0
 15 36  1  0
 16 37  1  0
 16 38  1  0
 17 39  1  0
 17 40  1  0
 19 41  1  0
 20 42  1  0
 21 43  1  0
 22 44  1  0
 27 45  1  0
 28 46  1  0
M  ISO  8  29  14  30  14  31  14  32  14  33  13  34  13  35  13  36  13
M  ISO  8  37  13  38  13  39  13  40  13  41  14  42  14  43  14  44  14
M  ISO  2  45   3  46   3
M  END
>  <minimizedAffinity>  (1) 
-6.59055567

>  <minimizedRMSD>  (1) 
0.463532239

$$$$
