
     RDKit          3D

 49 51  0  0  1  0  0  0  0  0999 V2000
   47.6890   34.8610   41.1760 C   0  0  0  0  0  0  0  0  0  0  0  0
   48.8940   34.0680   41.4840 C   0  0  0  0  0  0  0  0  0  0  0  0
   49.0060   32.8230   40.8840 C   0  0  0  0  0  0  0  0  0  0  0  0
   50.0970   32.0100   41.1130 C   0  0  0  0  0  0  0  0  0  0  0  0
   51.0660   32.5030   41.9670 N   0  0  0  0  0  0  0  0  0  0  0  0
   50.9180   33.7340   42.5370 C   0  0  0  0  0  0  0  0  0  0  0  0
   49.8500   34.4840   42.2890 N   0  0  0  0  0  0  0  0  0  0  0  0
   47.7140   32.2490   39.7910 S   0  0  0  0  0  0  0  0  0  0  0  0
   48.2070   32.4450   38.0590 C   0  0  0  0  0  0  0  0  0  0  0  0
   47.9360   33.8660   37.6400 C   0  0  0  0  0  0  0  0  0  0  0  0
   47.9360   33.9050   36.2070 N   0  0  0  0  0  0  0  0  0  0  0  0
   46.7370   34.9650   42.3170 C   0  0  0  0  0  0  0  0  0  0  0  0
   45.3100   34.8250   41.9250 C   0  0  0  0  0  0  0  0  0  0  0  0
   44.3640   35.7960   42.3850 C   0  0  0  0  0  0  0  0  0  0  0  0
   42.7940   35.2090   41.6600 S   0  0  0  0  0  0  0  0  0  0  0  0
   43.6910   33.7280   40.8430 C   0  0  0  0  0  0  0  0  0  0  0  0
   44.7620   33.9060   41.1880 N   0  0  0  0  0  0  0  0  0  0  0  0
   43.0390   32.7780   40.0650 O   0  0  0  0  0  0  0  0  0  0  0  0
   42.0360   32.2050   37.6730 O   0  0  0  0  0  0  0  0  0  0  0  0
   43.1930   32.9290   38.3820 P   0  0  1  0  0  0  0  0  0  0  0  0
   43.0810   34.5810   38.0010 O   0  0  0  0  0  0  0  0  0  0  0  0
   44.6860   32.3590   37.8560 O   0  0  0  0  0  0  0  0  0  0  0  0
   44.9500   32.5800   35.5990 N   0  0  0  0  0  0  0  0  0  0  0  0
   45.7680   31.8100   34.6890 C   0  0  0  0  0  0  0  0  0  0  0  0
   46.2530   30.6050   35.4570 C   0  0  0  0  0  0  0  0  0  0  0  0
   45.2310   30.4080   36.5540 C   0  0  0  0  0  0  0  0  0  0  0  0
   44.4890   31.6980   36.6460 C   0  0  1  0  0  0  0  0  0  0  0  0
   48.0037   35.8760   40.8918 H   0  0  0  0  0  0  0  0  0  0  0  0
   47.1614   34.3436   40.3612 H   0  0  0  0  0  0  0  0  0  0  0  0
   50.1909   31.0210   40.6407 H   0  0  0  0  0  0  0  0  0  0  0  0
   51.6977   34.1123   43.2145 H   0  0  0  0  0  0  0  0  0  0  0  0
   49.2795   32.2252   37.9519 H   0  0  0  0  0  0  0  0  0  0  0  0
   47.6359   31.7509   37.4249 H   0  0  0  0  0  0  0  0  0  0  0  0
   46.9572   34.1896   38.0237 H   0  0  0  0  0  0  0  0  0  0  0  0
   48.7055   34.5403   38.0439 H   0  0  0  0  0  0  0  0  0  0  0  0
   48.9071   33.9143   35.8638 H   0  0  0  0  0  0  0  0  0  0  0  0
   47.4505   33.0737   35.8409 H   0  0  0  0  0  0  0  0  0  0  0  0
   46.9766   34.1726   43.0414 H   0  0  0  0  0  0  0  0  0  0  0  0
   46.8546   35.9735   42.7402 H   0  0  0  0  0  0  0  0  0  0  0  0
   44.5394   36.6779   43.0187 H   0  0  0  0  0  0  0  0  0  0  0  0
   43.0451   35.1107   38.8366 H   0  0  0  0  0  0  0  0  0  0  0  0
   44.1432   32.9742   35.0945 H   0  0  0  0  0  0  0  0  0  0  0  0
   46.6233   32.4111   34.3468 H   0  0  0  0  0  0  0  0  0  0  0  0
   45.1949   31.5085   33.7998 H   0  0  0  0  0  0  0  0  0  0  0  0
   46.2956   29.7209   34.8039 H   0  0  0  0  0  0  0  0  0  0  0  0
   47.2679   30.7485   35.8564 H   0  0  0  0  0  0  0  0  0  0  0  0
   44.5448   29.5877   36.2969 H   0  0  0  0  0  0  0  0  0  0  0  0
   45.7057   30.1420   37.5100 H   0  0  0  0  0  0  0  0  0  0  0  0
   43.4206   31.4527   36.5543 H   0  0  0  0  0  0  0  0  0  0  0  0
  1  2  1  0
  1 12  1  0
  2  7  2  0
  3  4  2  0
  3  2  1  0
  4  5  1  0
  5  6  2  0
  7  6  1  0
  8  3  1  0
  9  8  1  0
 10  9  1  0
 11 10  1  0
 13 12  1  0
 13 14  2  0
 15 14  1  0
 16 17  2  0
 16 15  1  0
 17 13  1  0
 18 16  1  0
 20 19  2  0
 20 18  1  0
 21 20  1  0
 22 20  1  0
 23 27  1  0
 24 25  1  0
 24 23  1  0
 25 26  1  0
 26 27  1  0
 27 22  1  0
  1 28  1  0
  1 29  1  0
  4 30  1  0
  6 31  1  0
  9 32  1  0
  9 33  1  0
 10 34  1  0
 10 35  1  0
 11 36  1  0
 11 37  1  0
 12 38  1  0
 12 39  1  0
 14 40  1  0
 21 41  1  0
 23 42  1  0
 24 43  1  0
 24 44  1  0
 25 45  1  0
 25 46  1  0
 26 47  1  0
 26 48  1  0
 27 49  1  6
M  ISO  8  28   8  29   8  30  14  31  14  32   8  33   8  34   8  35   8
M  ISO  8  36   5  37   5  38   8  39   8  40  14  41   3  42   5  43  13
M  ISO  6  44  13  45  13  46  13  47  13  48  13  49  13
M  END
>  <minimizedAffinity>  (1) 
-4.59107971

>  <minimizedRMSD>  (1) 
1.86984873

$$$$
