
     RDKit          3D

 26 27  0  0  1  0  0  0  0  0999 V2000
   45.4460   35.0310   44.2130 C   0  0  0  0  0  0  0  0  0  0  0  0
   46.4130   34.2480   43.5700 C   0  0  0  0  0  0  0  0  0  0  0  0
   46.9180   33.1460   44.2650 C   0  0  0  0  0  0  0  0  0  0  0  0
   46.4490   32.8920   45.5210 N   0  0  0  0  0  0  0  0  0  0  0  0
   45.5130   33.6820   46.0970 C   0  0  0  0  0  0  0  0  0  0  0  0
   45.0100   34.7480   45.4520 N   0  0  0  0  0  0  0  0  0  0  0  0
   48.3230   35.0230   42.1490 C   0  0  2  0  0  0  0  0  0  0  0  0
   46.8870   34.5730   42.1950 C   0  0  1  0  0  0  0  0  0  0  0  0
   46.7410   33.5370   41.3020 O   0  0  0  0  0  0  0  0  0  0  0  0
   47.9670   33.0480   40.9430 C   0  0  0  0  0  0  0  0  0  0  0  0
   48.8420   34.2800   40.9120 C   0  0  1  0  0  0  0  0  0  0  0  0
   49.0770   34.6390   43.2380 O   0  0  0  0  0  0  0  0  0  0  0  0
   48.5230   34.9740   39.7550 O   0  0  0  0  0  0  0  0  0  0  0  0
   44.9050   36.2140   43.4630 C   0  0  0  0  0  0  0  0  0  0  0  0
   47.6789   32.4958   43.8085 H   0  0  0  0  0  0  0  0  0  0  0  0
   45.1578   33.4472   47.1112 H   0  0  0  0  0  0  0  0  0  0  0  0
   48.3939   36.1206   42.1350 H   0  0  0  0  0  0  0  0  0  0  0  0
   46.2322   35.4043   41.8947 H   0  0  0  0  0  0  0  0  0  0  0  0
   48.3341   32.3234   41.6848 H   0  0  0  0  0  0  0  0  0  0  0  0
   47.9499   32.5100   39.9837 H   0  0  0  0  0  0  0  0  0  0  0  0
   49.9301   34.1188   40.9190 H   0  0  0  0  0  0  0  0  0  0  0  0
   48.6006   34.8816   44.0713 H   0  0  0  0  0  0  0  0  0  0  0  0
   48.1217   35.8470   39.9938 H   0  0  0  0  0  0  0  0  0  0  0  0
   44.5575   36.9740   44.1783 H   0  0  0  0  0  0  0  0  0  0  0  0
   45.6974   36.6409   42.8306 H   0  0  0  0  0  0  0  0  0  0  0  0
   44.0638   35.8938   42.8306 H   0  0  0  0  0  0  0  0  0  0  0  0
  1  6  2  0
  2  1  1  0
  2  3  2  0
  3  4  1  0
  4  5  2  0
  6  5  1  0
  7  8  1  0
  7 12  1  0
  8  2  1  0
  9  8  1  0
 10  9  1  0
 11 13  1  0
 11 10  1  0
 11  7  1  0
 14  1  1  0
  3 15  1  0
  5 16  1  0
  7 17  1  6
  8 18  1  6
 10 19  1  0
 10 20  1  0
 11 21  1  1
 12 22  1  0
 13 23  1  0
 14 24  1  0
 14 25  1  0
 14 26  1  0
M  ISO  8  15  14  16  14  17  13  18  13  19  13  20  13  21  13  22   3
M  ISO  4  23   3  24   8  25   8  26   8
M  END
>  <minimizedAffinity>  (1) 
-4.63163996

>  <minimizedRMSD>  (1) 
1.27626193

$$$$
