
     RDKit          3D

 43 47  0  0  1  0  0  0  0  0999 V2000
   46.1130   30.7580   45.3110 C   0  0  0  0  0  0  0  0  0  0  0  0
   46.5220   32.0760   45.3800 C   0  0  0  0  0  0  0  0  0  0  0  0
   46.4500   32.8260   46.5370 C   0  0  0  0  0  0  0  0  0  0  0  0
   45.9490   32.2640   47.7000 C   0  0  0  0  0  0  0  0  0  0  0  0
   45.7310   32.6740   48.9830 N   0  0  0  0  0  0  0  0  0  0  0  0
   45.2050   31.6390   49.6820 C   0  0  0  0  0  0  0  0  0  0  0  0
   45.1000   30.5950   48.8210 N   0  0  0  0  0  0  0  0  0  0  0  0
   45.5460   30.9460   47.6090 C   0  0  0  0  0  0  0  0  0  0  0  0
   45.6060   30.1790   46.4750 C   0  0  0  0  0  0  0  0  0  0  0  0
   47.2110   34.5780   42.7630 C   0  0  0  0  0  0  0  0  0  0  0  0
   48.0730   33.8910   41.9130 C   0  0  0  0  0  0  0  0  0  0  0  0
   48.4170   32.5830   42.2290 C   0  0  0  0  0  0  0  0  0  0  0  0
   47.8900   32.0260   43.3700 N   0  0  0  0  0  0  0  0  0  0  0  0
   47.0580   32.7110   44.1780 C   0  0  0  0  0  0  0  0  0  0  0  0
   46.7240   33.9720   43.8750 N   0  0  0  0  0  0  0  0  0  0  0  0
   45.1500   28.7820   46.4840 C   0  0  0  0  0  0  0  0  0  0  0  0
   43.9240   28.3580   46.0010 C   0  0  0  0  0  0  0  0  0  0  0  0
   43.9480   26.9780   46.2210 C   0  0  0  0  0  0  0  0  0  0  0  0
   45.1660   26.6510   46.8150 C   0  0  0  0  0  0  0  0  0  0  0  0
   45.8440   27.7720   46.9470 O   0  0  0  0  0  0  0  0  0  0  0  0
   45.8100   25.2150   48.7590 C   0  0  2  0  0  0  0  0  0  0  0  0
   45.6770   25.3440   47.2410 C   0  0  1  0  0  0  0  0  0  0  0  0
   44.8140   24.2790   46.9880 O   0  0  0  0  0  0  0  0  0  0  0  0
   45.5140   23.2130   47.5550 C   0  0  0  0  0  0  0  0  0  0  0  0
   46.0860   23.7220   48.8580 C   0  0  2  0  0  0  0  0  0  0  0  0
   44.5530   25.4290   49.3570 O   0  0  0  0  0  0  0  0  0  0  0  0
   45.4840   23.1380   49.9650 O   0  0  0  0  0  0  0  0  0  0  0  0
   46.1844   30.1866   44.3737 H   0  0  0  0  0  0  0  0  0  0  0  0
   46.7911   33.8718   46.5354 H   0  0  0  0  0  0  0  0  0  0  0  0
   45.9323   33.6122   49.3573 H   0  0  0  0  0  0  0  0  0  0  0  0
   44.9181   31.6440   50.7439 H   0  0  0  0  0  0  0  0  0  0  0  0
   46.9240   35.6146   42.5327 H   0  0  0  0  0  0  0  0  0  0  0  0
   48.4735   34.3741   41.0096 H   0  0  0  0  0  0  0  0  0  0  0  0
   49.0947   32.0067   41.5820 H   0  0  0  0  0  0  0  0  0  0  0  0
   43.1225   28.9626   45.5515 H   0  0  0  0  0  0  0  0  0  0  0  0
   43.1438   26.2712   45.9687 H   0  0  0  0  0  0  0  0  0  0  0  0
   46.5404   25.8967   49.2193 H   0  0  0  0  0  0  0  0  0  0  0  0
   46.6230   25.2980   46.6816 H   0  0  0  0  0  0  0  0  0  0  0  0
   44.8345   22.3684   47.7421 H   0  0  0  0  0  0  0  0  0  0  0  0
   46.3087   22.8560   46.8834 H   0  0  0  0  0  0  0  0  0  0  0  0
   47.1504   23.4820   48.9975 H   0  0  0  0  0  0  0  0  0  0  0  0
   44.6492   25.4126   50.3422 H   0  0  0  0  0  0  0  0  0  0  0  0
   45.8749   23.5173   50.7917 H   0  0  0  0  0  0  0  0  0  0  0  0
  1  2  2  0
  1  9  1  0
  2  3  1  0
  3  4  2  0
  4  5  1  0
  5  6  1  0
  7  6  2  0
  8  4  1  0
  8  7  1  0
  9 16  1  0
  9  8  2  0
 10 15  2  0
 11 12  2  0
 11 10  1  0
 12 13  1  0
 13 14  2  0
 14  2  1  0
 15 14  1  0
 16 20  1  0
 17 18  1  0
 17 16  2  0
 18 19  2  0
 19 20  1  0
 21 25  1  0
 21 26  1  0
 22 19  1  0
 22 21  1  0
 23 22  1  0
 23 24  1  0
 24 25  1  0
 25 27  1  0
  1 28  1  0
  3 29  1  0
  5 30  1  0
  6 31  1  0
 10 32  1  0
 11 33  1  0
 12 34  1  0
 17 35  1  0
 18 36  1  0
 21 37  1  1
 22 38  1  6
 24 39  1  0
 24 40  1  0
 25 41  1  6
 26 42  1  0
 27 43  1  0
M  ISO  8  28  14  29  14  30   9  31  14  32  14  33  14  34  14  35  14
M  ISO  8  36  14  37  13  38  13  39  13  40  13  41  13  42   3  43   3
M  END
>  <minimizedAffinity>  (1) 
-6.42843723

>  <minimizedRMSD>  (1) 
2.3986187

$$$$
