
     RDKit          3D

 39 42  0  0  1  0  0  0  0  0999 V2000
   46.6820   34.6050   42.1740 C   0  0  0  0  0  0  0  0  0  0  0  0
   47.7910   35.3380   41.8120 C   0  0  0  0  0  0  0  0  0  0  0  0
   48.5160   35.1660   40.6550 C   0  0  0  0  0  0  0  0  0  0  0  0
   48.1150   34.1870   39.7730 C   0  0  0  0  0  0  0  0  0  0  0  0
   47.0140   33.4720   40.1480 C   0  0  0  0  0  0  0  0  0  0  0  0
   46.3430   33.6720   41.2800 N   0  0  0  0  0  0  0  0  0  0  0  0
   44.4650   35.9540   44.9010 C   0  0  0  0  0  0  0  0  0  0  0  0
   45.0910   35.8860   43.6520 C   0  0  0  0  0  0  0  0  0  0  0  0
   45.9480   34.8290   43.4160 C   0  0  0  0  0  0  0  0  0  0  0  0
   46.1360   33.9180   44.4030 N   0  0  0  0  0  0  0  0  0  0  0  0
   45.5160   34.0070   45.6060 C   0  0  0  0  0  0  0  0  0  0  0  0
   44.6780   35.0430   45.8310 N   0  0  0  0  0  0  0  0  0  0  0  0
   46.5500   32.4020   39.2200 C   0  0  2  0  0  0  0  0  0  0  0  0
   47.5620   31.3300   38.9160 C   0  0  0  0  0  0  0  0  0  0  0  0
   47.1110   32.3140   37.8760 C   0  0  1  0  0  0  0  0  0  0  0  0
   45.8040   33.0740   35.9360 C   0  0  1  0  0  0  0  0  0  0  0  0
   46.1810   31.8770   36.7910 C   0  0  1  0  0  0  0  0  0  0  0  0
   46.7600   31.0230   35.8660 O   0  0  0  0  0  0  0  0  0  0  0  0
   45.8820   31.0110   34.7910 C   0  0  0  0  0  0  0  0  0  0  0  0
   45.3310   32.4130   34.6650 C   0  0  2  0  0  0  0  0  0  0  0  0
   44.8120   33.8510   36.5250 O   0  0  0  0  0  0  0  0  0  0  0  0
   45.8460   33.0310   33.5160 O   0  0  0  0  0  0  0  0  0  0  0  0
   48.1242   36.1251   42.5044 H   0  0  0  0  0  0  0  0  0  0  0  0
   49.3931   35.7941   40.4401 H   0  0  0  0  0  0  0  0  0  0  0  0
   48.6464   33.9941   38.8294 H   0  0  0  0  0  0  0  0  0  0  0  0
   43.7786   36.7871   45.1128 H   0  0  0  0  0  0  0  0  0  0  0  0
   44.9066   36.6500   42.8824 H   0  0  0  0  0  0  0  0  0  0  0  0
   45.6921   33.2498   46.3842 H   0  0  0  0  0  0  0  0  0  0  0  0
   45.5177   32.4432   39.5976 H   0  0  0  0  0  0  0  0  0  0  0  0
   48.5776   31.3904   39.3342 H   0  0  0  0  0  0  0  0  0  0  0  0
   47.6001   30.2340   39.0012 H   0  0  0  0  0  0  0  0  0  0  0  0
   47.6504   32.9918   37.1980 H   0  0  0  0  0  0  0  0  0  0  0  0
   46.6308   33.7832   35.7830 H   0  0  0  0  0  0  0  0  0  0  0  0
   45.3494   31.3893   37.3208 H   0  0  0  0  0  0  0  0  0  0  0  0
   46.4136   30.7284   33.8704 H   0  0  0  0  0  0  0  0  0  0  0  0
   45.0743   30.2809   34.9477 H   0  0  0  0  0  0  0  0  0  0  0  0
   44.2379   32.4640   34.5535 H   0  0  0  0  0  0  0  0  0  0  0  0
   44.8878   33.7916   37.5103 H   0  0  0  0  0  0  0  0  0  0  0  0
   46.4567   33.7638   33.7810 H   0  0  0  0  0  0  0  0  0  0  0  0
  1  9  1  0
  2  1  2  0
  3  2  1  0
  4  5  1  0
  4  3  2  0
  5  6  2  0
  6  1  1  0
  7 12  2  0
  8  7  1  0
  9  8  2  0
  9 10  1  0
 10 11  2  0
 11 12  1  0
 13  5  1  0
 14 13  1  0
 15 14  1  0
 15 13  1  0
 16 21  1  0
 16 17  1  0
 17 18  1  0
 17 15  1  0
 19 18  1  0
 20 22  1  0
 20 19  1  0
 20 16  1  0
  2 23  1  0
  3 24  1  0
  4 25  1  0
  7 26  1  0
  8 27  1  0
 11 28  1  0
 13 29  1  6
 14 30  1  0
 14 31  1  0
 15 32  1  6
 16 33  1  6
 17 34  1  1
 19 35  1  0
 19 36  1  0
 20 37  1  6
 21 38  1  0
 22 39  1  0
M  ISO  8  23  14  24  14  25  14  26  14  27  14  28  14  29  13  30  13
M  ISO  8  31  13  32  13  33  13  34  13  35  13  36  13  37  13  38   3
M  ISO  1  39   3
M  END
>  <minimizedAffinity>  (1) 
-6.47267532

>  <minimizedRMSD>  (1) 
0.924988627

$$$$
