
     RDKit          3D

 52 57  0  0  1  0  0  0  0  0999 V2000
   47.2160   34.0410   42.7790 C   0  0  0  0  0  0  0  0  0  0  0  0
   46.8510   33.0420   41.8200 C   0  0  0  0  0  0  0  0  0  0  0  0
   46.1370   31.9610   42.2640 C   0  0  0  0  0  0  0  0  0  0  0  0
   45.8200   31.9050   43.5880 N   0  0  0  0  0  0  0  0  0  0  0  0
   46.1750   32.8600   44.4800 C   0  0  0  0  0  0  0  0  0  0  0  0
   46.8740   33.9280   44.0700 N   0  0  0  0  0  0  0  0  0  0  0  0
   47.2730   33.2240   40.3990 C   0  0  1  0  0  0  0  0  0  0  0  0
   48.0110   34.4160   39.9880 C   0  0  0  0  0  0  0  0  0  0  0  0
   48.7660   33.1440   40.1220 C   0  0  2  0  0  0  0  0  0  0  0  0
   49.1100   32.4260   38.8630 C   0  0  0  0  0  0  0  0  0  0  0  0
   49.7990   31.2260   38.8050 C   0  0  0  0  0  0  0  0  0  0  0  0
   50.0710   30.6170   37.5920 C   0  0  0  0  0  0  0  0  0  0  0  0
   49.6600   31.1940   36.4130 C   0  0  0  0  0  0  0  0  0  0  0  0
   49.9040   30.6090   35.2250 N   0  0  0  0  0  0  0  0  0  0  0  0
   49.4760   31.1970   34.0730 C   0  0  0  0  0  0  0  0  0  0  0  0
   48.7760   32.4100   34.0250 C   0  0  0  0  0  0  0  0  0  0  0  0
   48.5250   33.0110   35.2450 C   0  0  0  0  0  0  0  0  0  0  0  0
   48.9640   32.4040   36.4150 C   0  0  0  0  0  0  0  0  0  0  0  0
   48.7120   32.9820   37.6440 C   0  0  0  0  0  0  0  0  0  0  0  0
   45.7650   32.6840   45.8980 C   0  0  2  0  0  0  0  0  0  0  0  0
   46.5690   33.1910   46.9920 C   0  0  0  0  0  0  0  0  0  0  0  0
   46.6900   31.7150   46.6920 C   0  0  1  0  0  0  0  0  0  0  0  0
   46.7530   29.3740   47.4030 C   0  0  1  0  0  0  0  0  0  0  0  0
   46.0730   30.7160   47.6090 C   0  0  1  0  0  0  0  0  0  0  0  0
   46.4450   31.0270   48.9100 O   0  0  0  0  0  0  0  0  0  0  0  0
   47.8110   30.7760   48.9490 C   0  0  0  0  0  0  0  0  0  0  0  0
   48.1370   29.7030   47.9630 C   0  0  1  0  0  0  0  0  0  0  0  0
   46.1650   28.4110   48.2220 O   0  0  0  0  0  0  0  0  0  0  0  0
   48.7500   28.6190   48.5580 O   0  0  0  0  0  0  0  0  0  0  0  0
   47.7893   34.9199   42.4490 H   0  0  0  0  0  0  0  0  0  0  0  0
   45.8289   31.1625   41.5730 H   0  0  0  0  0  0  0  0  0  0  0  0
   46.3588   32.7371   40.0286 H   0  0  0  0  0  0  0  0  0  0  0  0
   48.1798   35.2275   40.7111 H   0  0  0  0  0  0  0  0  0  0  0  0
   47.8878   35.1509   39.1789 H   0  0  0  0  0  0  0  0  0  0  0  0
   49.6724   32.8366   40.6642 H   0  0  0  0  0  0  0  0  0  0  0  0
   50.1354   30.7493   39.7375 H   0  0  0  0  0  0  0  0  0  0  0  0
   50.6202   29.6641   37.5708 H   0  0  0  0  0  0  0  0  0  0  0  0
   49.6932   30.6884   33.1222 H   0  0  0  0  0  0  0  0  0  0  0  0
   48.4464   32.8567   33.0753 H   0  0  0  0  0  0  0  0  0  0  0  0
   47.9801   33.9655   35.2888 H   0  0  0  0  0  0  0  0  0  0  0  0
   48.1657   33.9365   37.6645 H   0  0  0  0  0  0  0  0  0  0  0  0
   44.6962   32.7995   45.6648 H   0  0  0  0  0  0  0  0  0  0  0  0
   47.4169   33.8575   46.7756 H   0  0  0  0  0  0  0  0  0  0  0  0
   46.3345   33.7617   47.9027 H   0  0  0  0  0  0  0  0  0  0  0  0
   47.5085   31.0166   46.4632 H   0  0  0  0  0  0  0  0  0  0  0  0
   46.7192   28.9882   46.3734 H   0  0  0  0  0  0  0  0  0  0  0  0
   44.9876   30.7057   47.4305 H   0  0  0  0  0  0  0  0  0  0  0  0
   48.3618   31.6928   48.6918 H   0  0  0  0  0  0  0  0  0  0  0  0
   48.1004   30.4521   49.9596 H   0  0  0  0  0  0  0  0  0  0  0  0
   48.8605   30.0034   47.1908 H   0  0  0  0  0  0  0  0  0  0  0  0
   46.3116   28.6510   49.1712 H   0  0  0  0  0  0  0  0  0  0  0  0
   48.6985   28.7101   49.5425 H   0  0  0  0  0  0  0  0  0  0  0  0
  1  6  2  0
  2  3  2  0
  2  1  1  0
  3  4  1  0
  4  5  2  0
  5 20  1  0
  6  5  1  0
  7  2  1  0
  8  9  1  0
  8  7  1  0
  9  7  1  0
 10  9  1  0
 11 10  2  0
 12 11  1  0
 13 18  1  0
 13 12  2  0
 14 13  1  0
 15 14  2  0
 16 15  1  0
 16 17  2  0
 17 18  1  0
 18 19  2  0
 19 10  1  0
 20 22  1  0
 20 21  1  0
 22 21  1  0
 22 24  1  0
 23 24  1  0
 23 27  1  0
 23 28  1  0
 24 25  1  0
 25 26  1  0
 27 29  1  0
 27 26  1  0
  1 30  1  0
  3 31  1  0
  7 32  1  6
  8 33  1  0
  8 34  1  0
  9 35  1  1
 11 36  1  0
 12 37  1  0
 15 38  1  0
 16 39  1  0
 17 40  1  0
 19 41  1  0
 20 42  1  6
 21 43  1  0
 21 44  1  0
 22 45  1  6
 23 46  1  6
 24 47  1  1
 26 48  1  0
 26 49  1  0
 27 50  1  6
 28 51  1  0
 29 52  1  0
M  ISO  8  30  14  31  14  32  13  33  13  34  13  35  13  36  14  37  14
M  ISO  8  38  14  39  14  40  14  41  14  42  13  43  13  44  13  45  13
M  ISO  7  46  13  47  13  48  13  49  13  50  13  51   3  52   3
M  END
>  <minimizedAffinity>  (1) 
-5.42478704

>  <minimizedRMSD>  (1) 
3.31265163

$$$$
