
     RDKit          3D

 30 32  0  0  1  0  0  0  0  0999 V2000
   44.7840   35.3590   44.6530 C   0  0  0  0  0  0  0  0  0  0  0  0
   45.3710   35.5340   43.3910 C   0  0  0  0  0  0  0  0  0  0  0  0
   46.4160   34.6590   43.1100 C   0  0  0  0  0  0  0  0  0  0  0  0
   46.7990   33.7170   44.0370 N   0  0  0  0  0  0  0  0  0  0  0  0
   46.1910   33.5990   45.2390 C   0  0  0  0  0  0  0  0  0  0  0  0
   45.1810   34.4360   45.5260 N   0  0  0  0  0  0  0  0  0  0  0  0
   47.1320   34.7190   41.7880 C   0  0  0  0  0  0  0  0  0  0  0  0
   48.4120   35.5190   41.8540 C   0  0  0  0  0  0  0  0  0  0  0  0
   48.3800   33.9810   41.6450 C   0  0  0  0  0  0  0  0  0  0  0  0
   45.8030   31.3700   46.2490 C   0  0  2  0  0  0  0  0  0  0  0  0
   46.7840   32.5110   46.0600 C   0  0  2  0  0  0  0  0  0  0  0  0
   47.1160   32.9850   47.3240 O   0  0  0  0  0  0  0  0  0  0  0  0
   46.9290   31.9260   48.2080 C   0  0  0  0  0  0  0  0  0  0  0  0
   45.5500   31.4460   47.7430 C   0  0  1  0  0  0  0  0  0  0  0  0
   46.3940   30.1360   45.9920 O   0  0  0  0  0  0  0  0  0  0  0  0
   44.6350   32.4730   47.9560 O   0  0  0  0  0  0  0  0  0  0  0  0
   43.9514   36.0197   44.9362 H   0  0  0  0  0  0  0  0  0  0  0  0
   45.0322   36.3019   42.6800 H   0  0  0  0  0  0  0  0  0  0  0  0
   46.2187   34.7316   41.1750 H   0  0  0  0  0  0  0  0  0  0  0  0
   48.6952   36.1892   41.0290 H   0  0  0  0  0  0  0  0  0  0  0  0
   48.8793   36.2164   42.5648 H   0  0  0  0  0  0  0  0  0  0  0  0
   48.7169   33.3100   42.4490 H   0  0  0  0  0  0  0  0  0  0  0  0
   48.7924   33.2903   40.8948 H   0  0  0  0  0  0  0  0  0  0  0  0
   44.9240   31.4516   45.5927 H   0  0  0  0  0  0  0  0  0  0  0  0
   47.6780   32.1559   45.5265 H   0  0  0  0  0  0  0  0  0  0  0  0
   47.6970   31.1483   48.0844 H   0  0  0  0  0  0  0  0  0  0  0  0
   46.9973   32.1893   49.2738 H   0  0  0  0  0  0  0  0  0  0  0  0
   45.1759   30.5311   48.2258 H   0  0  0  0  0  0  0  0  0  0  0  0
   46.6085   29.6881   46.8484 H   0  0  0  0  0  0  0  0  0  0  0  0
   44.5131   32.6098   48.9289 H   0  0  0  0  0  0  0  0  0  0  0  0
  1  6  2  0
  2  1  1  0
  3  2  2  0
  3  4  1  0
  4  5  2  0
  5  6  1  0
  7  8  1  0
  7  3  1  0
  9  7  1  0
  9  8  1  0
 10 15  1  0
 10 14  1  0
 11  5  1  0
 11 10  1  0
 11 12  1  0
 12 13  1  0
 14 16  1  0
 14 13  1  0
  1 17  1  0
  2 18  1  0
  7 19  1  0
  8 20  1  0
  8 21  1  0
  9 22  1  0
  9 23  1  0
 10 24  1  6
 11 25  1  6
 13 26  1  0
 13 27  1  0
 14 28  1  1
 15 29  1  0
 16 30  1  0
M  ISO  8  17  14  18  14  19  13  20  13  21  13  22  13  23  13  24  13
M  ISO  6  25  13  26  13  27  13  28  13  29   3  30   3
M  END
>  <minimizedAffinity>  (1) 
-5.36680698

>  <minimizedRMSD>  (1) 
0.85243696

$$$$
