
     RDKit          3D

 54 56  0  0  1  0  0  0  0  0999 V2000
   46.1910   34.5450   43.5930 C   0  0  0  0  0  0  0  0  0  0  0  0
   46.2070   33.7650   44.7250 C   0  0  0  0  0  0  0  0  0  0  0  0
   45.3770   34.1440   45.7460 C   0  0  0  0  0  0  0  0  0  0  0  0
   44.5940   35.2360   45.6110 N   0  0  0  0  0  0  0  0  0  0  0  0
   44.5790   35.9880   44.5150 C   0  0  0  0  0  0  0  0  0  0  0  0
   45.3800   35.6230   43.5320 N   0  0  0  0  0  0  0  0  0  0  0  0
   47.0300   34.1040   42.4720 C   0  0  0  0  0  0  0  0  0  0  0  0
   48.4100   34.6910   42.5570 C   0  0  0  0  0  0  0  0  0  0  0  0
   48.7100   35.5850   41.4390 C   0  0  0  0  0  0  0  0  0  0  0  0
   48.5120   34.9080   40.1000 C   0  0  0  0  0  0  0  0  0  0  0  0
   47.2700   34.1080   40.0190 C   0  0  0  0  0  0  0  0  0  0  0  0
   46.3470   34.3870   41.1830 C   0  0  0  0  0  0  0  0  0  0  0  0
   46.8970   32.6690   45.0430 O   0  0  0  0  0  0  0  0  0  0  0  0
   47.0110   31.9150   46.1790 C   0  0  0  0  0  0  0  0  0  0  0  0
   47.2180   30.4330   45.9010 C   0  0  0  0  0  0  0  0  0  0  0  0
   46.2050   29.8920   45.0230 N   0  0  0  0  0  0  0  0  0  0  0  0
   45.2550   28.7680   45.9470 S   0  0  0  0  0  0  0  0  0  0  0  0
   44.6560   27.7140   45.0670 O   0  0  0  0  0  0  0  0  0  0  0  0
   44.1770   29.5600   46.6270 O   0  0  0  0  0  0  0  0  0  0  0  0
   46.1880   28.0520   47.1310 O   0  0  0  0  0  0  0  0  0  0  0  0
   45.9290   25.7030   47.5280 C   0  0  1  0  0  0  0  0  0  0  0  0
   45.4800   27.1060   47.8140 C   0  0  2  0  0  0  0  0  0  0  0  0
   44.1140   27.1570   47.6140 O   0  0  0  0  0  0  0  0  0  0  0  0
   43.6030   25.8900   47.8060 C   0  0  0  0  0  0  0  0  0  0  0  0
   44.6690   24.8780   47.5920 C   0  0  1  0  0  0  0  0  0  0  0  0
   46.5400   25.5620   46.2750 O   0  0  0  0  0  0  0  0  0  0  0  0
   44.4980   24.0780   46.4680 O   0  0  0  0  0  0  0  0  0  0  0  0
   45.3480   33.5586   46.6768 H   0  0  0  0  0  0  0  0  0  0  0  0
   43.9300   36.8722   44.4315 H   0  0  0  0  0  0  0  0  0  0  0  0
   47.1689   33.0144   42.5304 H   0  0  0  0  0  0  0  0  0  0  0  0
   48.4941   35.2593   43.4951 H   0  0  0  0  0  0  0  0  0  0  0  0
   49.1290   33.8593   42.5211 H   0  0  0  0  0  0  0  0  0  0  0  0
   48.0454   36.4596   41.4960 H   0  0  0  0  0  0  0  0  0  0  0  0
   49.7666   35.8811   41.5160 H   0  0  0  0  0  0  0  0  0  0  0  0
   48.4780   35.6830   39.3201 H   0  0  0  0  0  0  0  0  0  0  0  0
   49.3532   34.2128   39.9624 H   0  0  0  0  0  0  0  0  0  0  0  0
   46.7476   34.3549   39.0830 H   0  0  0  0  0  0  0  0  0  0  0  0
   47.5458   33.0435   40.0483 H   0  0  0  0  0  0  0  0  0  0  0  0
   46.0442   35.4442   41.1589 H   0  0  0  0  0  0  0  0  0  0  0  0
   45.4642   33.7362   41.0993 H   0  0  0  0  0  0  0  0  0  0  0  0
   47.8699   32.2846   46.7584 H   0  0  0  0  0  0  0  0  0  0  0  0
   46.0647   32.0133   46.7310 H   0  0  0  0  0  0  0  0  0  0  0  0
   48.2031   30.2956   45.4313 H   0  0  0  0  0  0  0  0  0  0  0  0
   47.1518   29.8986   46.8602 H   0  0  0  0  0  0  0  0  0  0  0  0
   45.6053   30.6509   44.6690 H   0  0  0  0  0  0  0  0  0  0  0  0
   44.2531   27.0051   45.6285 H   0  0  0  0  0  0  0  0  0  0  0  0
   44.2808   29.4837   47.6086 H   0  0  0  0  0  0  0  0  0  0  0  0
   46.6948   25.3886   48.2524 H   0  0  0  0  0  0  0  0  0  0  0  0
   45.6942   27.3629   48.8619 H   0  0  0  0  0  0  0  0  0  0  0  0
   43.2185   25.8034   48.8330 H   0  0  0  0  0  0  0  0  0  0  0  0
   42.7879   25.7153   47.0883 H   0  0  0  0  0  0  0  0  0  0  0  0
   44.6745   24.1315   48.3999 H   0  0  0  0  0  0  0  0  0  0  0  0
   47.4972   25.3411   46.3976 H   0  0  0  0  0  0  0  0  0  0  0  0
   44.2997   23.1501   46.7504 H   0  0  0  0  0  0  0  0  0  0  0  0
  1  2  1  0
  2 13  1  0
  2  3  2  0
  4  3  1  0
  5  4  2  0
  6  1  2  0
  6  5  1  0
  7  8  1  0
  7  1  1  0
  9  8  1  0
 10  9  1  0
 11 10  1  0
 11 12  1  0
 12  7  1  0
 13 14  1  0
 15 14  1  0
 16 15  1  0
 16 17  1  0
 17 19  1  0
 17 20  1  0
 18 17  1  0
 21 26  1  0
 21 25  1  0
 21 22  1  0
 22 20  1  0
 23 24  1  0
 23 22  1  0
 25 27  1  0
 25 24  1  0
  3 28  1  0
  5 29  1  0
  7 30  1  0
  8 31  1  0
  8 32  1  0
  9 33  1  0
  9 34  1  0
 10 35  1  0
 10 36  1  0
 11 37  1  0
 11 38  1  0
 12 39  1  0
 12 40  1  0
 14 41  1  0
 14 42  1  0
 15 43  1  0
 15 44  1  0
 16 45  1  0
 18 46  1  0
 19 47  1  0
 21 48  1  1
 22 49  1  1
 24 50  1  0
 24 51  1  0
 25 52  1  1
 26 53  1  0
 27 54  1  0
M  ISO  8  28  14  29  14  30  13  31  13  32  13  33  13  34  13  35  13
M  ISO  8  36  13  37  13  38  13  39  13  40  13  41   8  42   8  43   8
M  ISO  8  44   8  45   5  46   3  47   3  48  13  49  13  50  13  51  13
M  ISO  3  52  13  53   3  54   3
M  END
>  <minimizedAffinity>  (1) 
-5.45296478

>  <minimizedRMSD>  (1) 
2.18715644

$$$$
