
     RDKit          3D

 49 52  0  0  1  0  0  0  0  0999 V2000
   44.5860   35.6150   44.5570 C   0  0  0  0  0  0  0  0  0  0  0  0
   45.1860   35.5300   43.2800 C   0  0  0  0  0  0  0  0  0  0  0  0
   46.2240   34.5610   43.0990 C   0  0  0  0  0  0  0  0  0  0  0  0
   46.5750   33.7820   44.1410 N   0  0  0  0  0  0  0  0  0  0  0  0
   45.9830   33.8900   45.3410 C   0  0  0  0  0  0  0  0  0  0  0  0
   44.9810   34.8090   45.5600 N   0  0  0  0  0  0  0  0  0  0  0  0
   46.4140   33.0100   46.4520 C   0  0  2  0  0  0  0  0  0  0  0  0
   46.9570   31.7660   45.7790 C   0  0  0  0  0  0  0  0  0  0  0  0
   46.0960   30.5730   45.8260 C   0  0  0  0  0  0  0  0  0  0  0  0
   45.8350   30.3400   47.3130 C   0  0  0  0  0  0  0  0  0  0  0  0
   45.0290   31.4090   47.8910 C   0  0  0  0  0  0  0  0  0  0  0  0
   45.3730   32.7670   47.4090 C   0  0  0  0  0  0  0  0  0  0  0  0
   44.6580   33.9080   47.8940 N   0  0  0  0  0  0  0  0  0  0  0  0
   46.8520   34.4510   41.7980 C   0  0  0  0  0  0  0  0  0  0  0  0
   47.9740   35.1970   41.5520 C   0  0  0  0  0  0  0  0  0  0  0  0
   48.5360   35.0450   40.2690 C   0  0  0  0  0  0  0  0  0  0  0  0
   47.9040   34.1700   39.4070 C   0  0  0  0  0  0  0  0  0  0  0  0
   46.7950   33.4310   39.6470 C   0  0  0  0  0  0  0  0  0  0  0  0
   46.2810   33.6060   40.9010 N   0  0  0  0  0  0  0  0  0  0  0  0
   46.2210   32.5830   38.7420 O   0  0  0  0  0  0  0  0  0  0  0  0
   45.3790   33.1710   36.5460 C   0  0  1  0  0  0  0  0  0  0  0  0
   46.4940   32.5360   37.4000 C   0  0  2  0  0  0  0  0  0  0  0  0
   46.4810   31.2400   36.8800 O   0  0  0  0  0  0  0  0  0  0  0  0
   46.2620   31.3010   35.5290 C   0  0  0  0  0  0  0  0  0  0  0  0
   45.9440   32.7440   35.1840 C   0  0  1  0  0  0  0  0  0  0  0  0
   44.1920   32.4830   36.6860 O   0  0  0  0  0  0  0  0  0  0  0  0
   45.0200   32.8520   34.1660 O   0  0  0  0  0  0  0  0  0  0  0  0
   43.7861   36.3492   44.7333 H   0  0  0  0  0  0  0  0  0  0  0  0
   44.8670   36.1845   42.4555 H   0  0  0  0  0  0  0  0  0  0  0  0
   47.1909   33.4780   47.0744 H   0  0  0  0  0  0  0  0  0  0  0  0
   47.9106   31.5110   46.2644 H   0  0  0  0  0  0  0  0  0  0  0  0
   47.0458   32.0230   44.7131 H   0  0  0  0  0  0  0  0  0  0  0  0
   45.1524   30.7545   45.2905 H   0  0  0  0  0  0  0  0  0  0  0  0
   46.5655   29.7023   45.3449 H   0  0  0  0  0  0  0  0  0  0  0  0
   45.3030   29.3852   47.4366 H   0  0  0  0  0  0  0  0  0  0  0  0
   46.8040   30.3203   47.8332 H   0  0  0  0  0  0  0  0  0  0  0  0
   44.2310   31.2224   48.6247 H   0  0  0  0  0  0  0  0  0  0  0  0
   43.9013   33.7872   48.5823 H   0  0  0  0  0  0  0  0  0  0  0  0
   44.9001   34.8499   47.5548 H   0  0  0  0  0  0  0  0  0  0  0  0
   48.4076   35.8702   42.3062 H   0  0  0  0  0  0  0  0  0  0  0  0
   49.4376   35.5983   39.9673 H   0  0  0  0  0  0  0  0  0  0  0  0
   48.3541   34.0608   38.4093 H   0  0  0  0  0  0  0  0  0  0  0  0
   45.1732   34.2316   36.7526 H   0  0  0  0  0  0  0  0  0  0  0  0
   47.4699   33.0405   37.3446 H   0  0  0  0  0  0  0  0  0  0  0  0
   47.1621   30.9748   34.9874 H   0  0  0  0  0  0  0  0  0  0  0  0
   45.4304   30.6411   35.2408 H   0  0  0  0  0  0  0  0  0  0  0  0
   46.7824   33.3456   34.8031 H   0  0  0  0  0  0  0  0  0  0  0  0
   43.9899   32.3659   37.6481 H   0  0  0  0  0  0  0  0  0  0  0  0
   44.1145   32.9578   34.5520 H   0  0  0  0  0  0  0  0  0  0  0  0
  1  6  2  0
  2  1  1  0
  3  2  2  0
  3  4  1  0
  4  5  2  0
  5  6  1  0
  5  7  1  0
  7 12  1  0
  8  9  1  0
  8  7  1  0
  9 10  1  0
 10 11  1  0
 12 11  2  0
 12 13  1  0
 14  3  1  0
 15 14  2  0
 16 15  1  0
 17 18  1  0
 17 16  2  0
 18 19  2  0
 19 14  1  0
 20 18  1  0
 21 26  1  0
 21 22  1  0
 22 20  1  0
 23 22  1  0
 24 23  1  0
 25 27  1  0
 25 24  1  0
 25 21  1  0
  1 28  1  0
  2 29  1  0
  7 30  1  1
  8 31  1  0
  8 32  1  0
  9 33  1  0
  9 34  1  0
 10 35  1  0
 10 36  1  0
 11 37  1  0
 13 38  1  0
 13 39  1  0
 15 40  1  0
 16 41  1  0
 17 42  1  0
 21 43  1  6
 22 44  1  1
 24 45  1  0
 24 46  1  0
 25 47  1  6
 26 48  1  0
 27 49  1  0
M  END
>  <minimizedAffinity>  (1) 
-7.97853327

>  <minimizedRMSD>  (1) 
0.56366384

$$$$
