
     RDKit          3D

 48 50  0  0  1  0  0  0  0  0999 V2000
   44.2810   33.3560   41.7220 C   0  0  2  0  0  0  0  0  0  0  0  0
   43.6690   32.0880   42.1600 C   0  0  0  0  0  0  0  0  0  0  0  0
   42.2340   32.0560   41.6830 C   0  0  0  0  0  0  0  0  0  0  0  0
   42.1740   31.8580   40.3050 O   0  0  0  0  0  0  0  0  0  0  0  0
   43.2650   32.4420   39.6830 C   0  0  0  0  0  0  0  0  0  0  0  0
   43.6490   33.7620   40.3920 C   0  0  1  0  0  0  0  0  0  0  0  0
   42.5560   34.5710   40.4040 N   0  0  0  0  0  0  0  0  0  0  0  0
   42.2260   35.0770   39.0880 C   0  0  0  0  0  0  0  0  0  0  0  0
   40.7040   34.9090   38.9860 C   0  0  0  0  0  0  0  0  0  0  0  0
   40.1900   35.8870   39.9250 N   0  0  0  0  0  0  0  0  0  0  0  0
   40.6840   35.7350   41.2430 C   0  0  0  0  0  0  0  0  0  0  0  0
   42.2090   35.5380   41.3310 C   0  0  0  0  0  0  0  0  0  0  0  0
   45.6180   33.4260   41.6930 O   0  0  0  0  0  0  0  0  0  0  0  0
   46.6550   34.0940   44.0080 O   0  0  0  0  0  0  0  0  0  0  0  0
   46.3980   34.5440   42.6200 P   0  0  2  0  0  0  0  0  0  0  0  0
   45.4160   35.9320   42.7210 O   0  0  0  0  0  0  0  0  0  0  0  0
   47.8690   35.0280   41.8600 O   0  0  0  0  0  0  0  0  0  0  0  0
   48.8920   33.1500   40.8640 C   0  0  0  0  0  0  0  0  0  0  0  0
   48.9510   34.1760   41.7780 C   0  0  0  0  0  0  0  0  0  0  0  0
   50.1130   34.2990   42.5790 C   0  0  0  0  0  0  0  0  0  0  0  0
   51.0980   33.3930   42.3930 N   0  0  0  0  0  0  0  0  0  0  0  0
   51.0050   32.4220   41.5060 C   0  0  0  0  0  0  0  0  0  0  0  0
   49.8900   32.3110   40.7420 N   0  0  0  0  0  0  0  0  0  0  0  0
   47.7510   33.3820   38.6640 C   0  0  0  0  0  0  0  0  0  0  0  0
   48.2570   34.5420   38.4270 O   0  0  0  0  0  0  0  0  0  0  0  0
   48.0150   32.6160   39.8830 N   0  0  0  0  0  0  0  0  0  0  0  0
   44.0542   34.0805   42.5180 H   0  0  0  0  0  0  0  0  0  0  0  0
   44.2222   31.2408   41.7285 H   0  0  0  0  0  0  0  0  0  0  0  0
   43.7026   32.0131   43.2569 H   0  0  0  0  0  0  0  0  0  0  0  0
   41.7043   31.2351   42.1885 H   0  0  0  0  0  0  0  0  0  0  0  0
   41.7622   33.0207   41.9211 H   0  0  0  0  0  0  0  0  0  0  0  0
   44.1181   31.7486   39.7218 H   0  0  0  0  0  0  0  0  0  0  0  0
   43.0032   32.6623   38.6376 H   0  0  0  0  0  0  0  0  0  0  0  0
   44.4062   34.3840   39.8923 H   0  0  0  0  0  0  0  0  0  0  0  0
   42.5078   36.1363   38.9962 H   0  0  0  0  0  0  0  0  0  0  0  0
   42.7614   34.5453   38.2876 H   0  0  0  0  0  0  0  0  0  0  0  0
   40.3528   35.1218   37.9655 H   0  0  0  0  0  0  0  0  0  0  0  0
   40.3708   33.8849   39.2099 H   0  0  0  0  0  0  0  0  0  0  0  0
   40.4481   36.8257   39.5887 H   0  0  0  0  0  0  0  0  0  0  0  0
   40.4197   36.6362   41.8157 H   0  0  0  0  0  0  0  0  0  0  0  0
   40.2250   34.8207   41.6473 H   0  0  0  0  0  0  0  0  0  0  0  0
   42.4874   35.2064   42.3422 H   0  0  0  0  0  0  0  0  0  0  0  0
   42.7349   36.4815   41.1231 H   0  0  0  0  0  0  0  0  0  0  0  0
   45.2577   36.1557   43.6723 H   0  0  0  0  0  0  0  0  0  0  0  0
   50.2097   35.1021   43.3245 H   0  0  0  0  0  0  0  0  0  0  0  0
   51.8295   31.7039   41.3860 H   0  0  0  0  0  0  0  0  0  0  0  0
   47.0833   32.9423   37.9085 H   0  0  0  0  0  0  0  0  0  0  0  0
   47.5692   31.6989   40.0278 H   0  0  0  0  0  0  0  0  0  0  0  0
  1  2  1  0
  3  2  1  0
  4  3  1  0
  5  4  1  0
  5  6  1  0
  6  7  1  0
  6  1  1  0
  7 12  1  0
  8  7  1  0
  9  8  1  0
  9 10  1  0
 10 11  1  0
 11 12  1  0
 13  1  1  0
 13 15  1  0
 15 16  1  0
 15 14  2  0
 17 15  1  0
 18 19  2  0
 19 17  1  0
 19 20  1  0
 21 20  2  0
 22 21  1  0
 23 18  1  0
 23 22  2  0
 24 26  1  0
 25 24  2  0
 26 18  1  0
  1 27  1  1
  2 28  1  0
  2 29  1  0
  3 30  1  0
  3 31  1  0
  5 32  1  0
  5 33  1  0
  6 34  1  6
  8 35  1  0
  8 36  1  0
  9 37  1  0
  9 38  1  0
 10 39  1  0
 11 40  1  0
 11 41  1  0
 12 42  1  0
 12 43  1  0
 16 44  1  0
 20 45  1  0
 22 46  1  0
 24 47  1  0
 26 48  1  0
M  ISO  8  27  13  28  13  29  13  30  13  31  13  32  13  33  13  34  13
M  ISO  8  35  13  36  13  37  13  38  13  39   5  40  13  41  13  42  13
M  ISO  5  43  13  44   3  45  14  46  14  47   6
M  END
>  <minimizedAffinity>  (1) 
-5.43778133

>  <minimizedRMSD>  (1) 
3.63618398

$$$$
