
     RDKit          3D

 38 41  0  0  1  0  0  0  0  0999 V2000
   46.9240   33.4470   39.1040 C   0  0  0  0  0  0  0  0  0  0  0  0
   48.3040   33.2620   39.2730 C   0  0  0  0  0  0  0  0  0  0  0  0
   48.8780   33.5260   40.5280 C   0  0  0  0  0  0  0  0  0  0  0  0
   48.0360   33.9530   41.5160 N   0  0  0  0  0  0  0  0  0  0  0  0
   46.7050   34.1210   41.3170 C   0  0  0  0  0  0  0  0  0  0  0  0
   46.1610   33.8710   40.1270 N   0  0  0  0  0  0  0  0  0  0  0  0
   45.9260   34.5740   42.4190 N   0  0  0  0  0  0  0  0  0  0  0  0
   44.9730   35.5380   42.3760 C   0  0  0  0  0  0  0  0  0  0  0  0
   44.4620   35.6830   43.6330 N   0  0  0  0  0  0  0  0  0  0  0  0
   45.1050   34.8180   44.4060 C   0  0  0  0  0  0  0  0  0  0  0  0
   45.0380   34.4970   45.7480 C   0  0  0  0  0  0  0  0  0  0  0  0
   45.8060   33.5680   46.3080 N   0  0  0  0  0  0  0  0  0  0  0  0
   46.7110   32.8730   45.5910 C   0  0  0  0  0  0  0  0  0  0  0  0
   46.7850   33.1770   44.2840 N   0  0  0  0  0  0  0  0  0  0  0  0
   46.0340   34.1020   43.6750 C   0  0  0  0  0  0  0  0  0  0  0  0
   44.1410   35.1400   46.6330 N   0  0  0  0  0  0  0  0  0  0  0  0
   46.2750   33.0870   37.4660 S   0  0  0  0  0  0  0  0  0  0  0  0
   47.5890   32.9830   35.1040 N   0  0  0  0  0  0  0  0  0  0  0  0
   47.6290   32.4660   36.4390 C   0  0  2  0  0  0  0  0  0  0  0  0
   47.6890   30.9570   36.4280 C   0  0  0  0  0  0  0  0  0  0  0  0
   48.9630   30.5850   35.8400 N   0  0  0  0  0  0  0  0  0  0  0  0
   48.9800   31.0780   34.4540 C   0  0  0  0  0  0  0  0  0  0  0  0
   48.8050   32.5810   34.4270 C   0  0  0  0  0  0  0  0  0  0  0  0
   48.9275   32.9155   38.4357 H   0  0  0  0  0  0  0  0  0  0  0  0
   49.9554   33.3950   40.7070 H   0  0  0  0  0  0  0  0  0  0  0  0
   44.6658   36.1039   41.4841 H   0  0  0  0  0  0  0  0  0  0  0  0
   47.3505   32.1034   46.0479 H   0  0  0  0  0  0  0  0  0  0  0  0
   44.1195   34.8738   47.6278 H   0  0  0  0  0  0  0  0  0  0  0  0
   43.5094   35.8743   46.2826 H   0  0  0  0  0  0  0  0  0  0  0  0
   46.7710   32.6025   34.6070 H   0  0  0  0  0  0  0  0  0  0  0  0
   48.5537   32.8363   36.9058 H   0  0  0  0  0  0  0  0  0  0  0  0
   47.6198   30.5691   37.4550 H   0  0  0  0  0  0  0  0  0  0  0  0
   46.8531   30.5360   35.8500 H   0  0  0  0  0  0  0  0  0  0  0  0
   49.7333   31.0128   36.3735 H   0  0  0  0  0  0  0  0  0  0  0  0
   49.9415   30.8165   33.9880 H   0  0  0  0  0  0  0  0  0  0  0  0
   48.1522   30.6122   33.8992 H   0  0  0  0  0  0  0  0  0  0  0  0
   49.6650   33.0506   34.9268 H   0  0  0  0  0  0  0  0  0  0  0  0
   48.7401   32.9035   33.3774 H   0  0  0  0  0  0  0  0  0  0  0  0
  1  2  2  0
  1  6  1  0
  2  3  1  0
  3  4  2  0
  5  4  1  0
  5  7  1  0
  6  5  2  0
  7 15  1  0
  8  7  1  0
  8  9  2  0
  9 10  1  0
 10 11  2  0
 11 12  1  0
 11 16  1  0
 13 12  2  0
 14 13  1  0
 15 14  2  0
 15 10  1  0
 17  1  1  0
 18 19  1  0
 19 17  1  0
 20 19  1  0
 21 20  1  0
 22 21  1  0
 23 22  1  0
 23 18  1  0
  2 24  1  0
  3 25  1  0
  8 26  1  0
 13 27  1  0
 16 28  1  0
 16 29  1  0
 18 30  1  0
 19 31  1  1
 20 32  1  0
 20 33  1  0
 21 34  1  0
 22 35  1  0
 22 36  1  0
 23 37  1  0
 23 38  1  0
M  ISO  8  24  14  25  14  26  14  27  14  30   5  31  13  32  13  33  13
M  ISO  5  34   5  35  13  36  13  37  13  38  13
M  END
>  <minimizedAffinity>  (1) 
-6.08346128

>  <minimizedRMSD>  (1) 
1.35265732

$$$$
