
     RDKit          3D

 41 43  0  0  1  0  0  0  0  0999 V2000
   45.0820   34.7310   44.9260 C   0  0  0  0  0  0  0  0  0  0  0  0
   45.9230   34.5090   43.8060 C   0  0  0  0  0  0  0  0  0  0  0  0
   46.9270   33.5130   43.9260 C   0  0  0  0  0  0  0  0  0  0  0  0
   47.0240   32.8350   45.1000 N   0  0  0  0  0  0  0  0  0  0  0  0
   46.2070   33.0760   46.1390 C   0  0  0  0  0  0  0  0  0  0  0  0
   45.2380   34.0210   46.0520 N   0  0  0  0  0  0  0  0  0  0  0  0
   46.3710   32.3380   47.3060 N   0  0  0  0  0  0  0  0  0  0  0  0
   47.6270   32.3630   48.0130 C   0  0  0  0  0  0  0  0  0  0  0  0
   47.8140   31.2460   48.9930 C   0  0  0  0  0  0  0  0  0  0  0  0
   46.6370   30.7730   49.6330 N   0  0  0  0  0  0  0  0  0  0  0  0
   45.4660   31.5390   49.3180 C   0  0  0  0  0  0  0  0  0  0  0  0
   45.2900   31.5250   47.8430 C   0  0  2  0  0  0  0  0  0  0  0  0
   45.2440   30.1540   47.2560 C   0  0  0  0  0  0  0  0  0  0  0  0
   45.9660   30.0660   46.0090 N   0  0  0  0  0  0  0  0  0  0  0  0
   45.1000   29.7830   44.8880 C   0  0  0  0  0  0  0  0  0  0  0  0
   45.4390   28.4320   44.3000 C   0  0  0  0  0  0  0  0  0  0  0  0
   45.4770   27.4640   45.3480 N   0  0  0  0  0  0  0  0  0  0  0  0
   46.6590   27.7150   46.1490 C   0  0  0  0  0  0  0  0  0  0  0  0
   47.0750   29.1620   46.1030 C   0  0  0  0  0  0  0  0  0  0  0  0
   44.2924   35.4948   44.8700 H   0  0  0  0  0  0  0  0  0  0  0  0
   45.8017   35.0875   42.8783 H   0  0  0  0  0  0  0  0  0  0  0  0
   47.6088   33.2955   43.0907 H   0  0  0  0  0  0  0  0  0  0  0  0
   48.4386   32.3090   47.2724 H   0  0  0  0  0  0  0  0  0  0  0  0
   47.6369   33.2949   48.5974 H   0  0  0  0  0  0  0  0  0  0  0  0
   48.2677   30.4000   48.4559 H   0  0  0  0  0  0  0  0  0  0  0  0
   48.4416   31.6594   49.7963 H   0  0  0  0  0  0  0  0  0  0  0  0
   46.4769   29.7982   49.3414 H   0  0  0  0  0  0  0  0  0  0  0  0
   44.5859   31.0916   49.8030 H   0  0  0  0  0  0  0  0  0  0  0  0
   45.5771   32.5720   49.6793 H   0  0  0  0  0  0  0  0  0  0  0  0
   44.3083   31.9397   47.5705 H   0  0  0  0  0  0  0  0  0  0  0  0
   45.6886   29.4476   47.9725 H   0  0  0  0  0  0  0  0  0  0  0  0
   44.1907   29.9110   47.0522 H   0  0  0  0  0  0  0  0  0  0  0  0
   44.0538   29.7801   45.2277 H   0  0  0  0  0  0  0  0  0  0  0  0
   45.2408   30.5568   44.1190 H   0  0  0  0  0  0  0  0  0  0  0  0
   44.6730   28.1479   43.5635 H   0  0  0  0  0  0  0  0  0  0  0  0
   46.4190   28.4791   43.8027 H   0  0  0  0  0  0  0  0  0  0  0  0
   44.6338   27.5496   45.9333 H   0  0  0  0  0  0  0  0  0  0  0  0
   46.4459   27.4397   47.1925 H   0  0  0  0  0  0  0  0  0  0  0  0
   47.4821   27.1116   45.7385 H   0  0  0  0  0  0  0  0  0  0  0  0
   47.7232   29.3117   45.2270 H   0  0  0  0  0  0  0  0  0  0  0  0
   47.5970   29.3821   47.0459 H   0  0  0  0  0  0  0  0  0  0  0  0
  1  6  2  0
  2  3  2  0
  2  1  1  0
  3  4  1  0
  4  5  2  0
  5  7  1  0
  6  5  1  0
  7 12  1  0
  7  8  1  0
  8  9  1  0
  9 10  1  0
 11 10  1  0
 12 11  1  0
 13 12  1  0
 14 19  1  0
 14 13  1  0
 15 14  1  0
 16 15  1  0
 16 17  1  0
 17 18  1  0
 19 18  1  0
  1 20  1  0
  2 21  1  0
  3 22  1  0
  8 23  1  0
  8 24  1  0
  9 25  1  0
  9 26  1  0
 10 27  1  0
 11 28  1  0
 11 29  1  0
 12 30  1  1
 13 31  1  0
 13 32  1  0
 15 33  1  0
 15 34  1  0
 16 35  1  0
 16 36  1  0
 17 37  1  0
 18 38  1  0
 18 39  1  0
 19 40  1  0
 19 41  1  0
M  ISO  8  20  14  21  14  22  14  23  13  24  13  25  13  26  13  27   5
M  ISO  8  28  13  29  13  30  13  31   8  32   8  33  13  34  13  35  13
M  ISO  6  36  13  37   5  38  13  39  13  40  13  41  13
M  END
>  <minimizedAffinity>  (1) 
-4.99083328

>  <minimizedRMSD>  (1) 
1.2672143

$$$$
