
     RDKit          3D

 33 35  0  0  0  0  0  0  0  0999 V2000
   45.5930   34.0330   45.6260 C   0  0  0  0  0  0  0  0  0  0  0  0
   44.6510   35.0480   45.8160 C   0  0  0  0  0  0  0  0  0  0  0  0
   44.4140   35.9340   44.7390 C   0  0  0  0  0  0  0  0  0  0  0  0
   45.1220   35.7440   43.5760 N   0  0  0  0  0  0  0  0  0  0  0  0
   46.0220   34.7380   43.4610 C   0  0  0  0  0  0  0  0  0  0  0  0
   46.2630   33.8930   44.4560 N   0  0  0  0  0  0  0  0  0  0  0  0
   46.7440   34.5940   42.1890 C   0  0  0  0  0  0  0  0  0  0  0  0
   47.9170   35.2880   41.9820 C   0  0  0  0  0  0  0  0  0  0  0  0
   48.6720   35.2280   40.8310 C   0  0  0  0  0  0  0  0  0  0  0  0
   48.1520   34.3880   39.8540 C   0  0  0  0  0  0  0  0  0  0  0  0
   46.9560   33.6730   40.0490 C   0  0  0  0  0  0  0  0  0  0  0  0
   46.2730   33.7930   41.2200 N   0  0  0  0  0  0  0  0  0  0  0  0
   45.8930   33.0990   46.6540 N   0  0  0  0  0  0  0  0  0  0  0  0
   47.0860   32.2740   46.6540 C   0  0  0  0  0  0  0  0  0  0  0  0
   47.6470   32.0510   48.0330 C   0  0  0  0  0  0  0  0  0  0  0  0
   46.6390   31.6040   48.9720 N   0  0  0  0  0  0  0  0  0  0  0  0
   45.3350   31.4910   48.3410 C   0  0  0  0  0  0  0  0  0  0  0  0
   45.0320   32.8920   47.7960 C   0  0  0  0  0  0  0  0  0  0  0  0
   44.1129   35.1541   46.7695 H   0  0  0  0  0  0  0  0  0  0  0  0
   43.6839   36.7518   44.8295 H   0  0  0  0  0  0  0  0  0  0  0  0
   48.2762   35.9366   42.7946 H   0  0  0  0  0  0  0  0  0  0  0  0
   49.6048   35.7955   40.6973 H   0  0  0  0  0  0  0  0  0  0  0  0
   48.6906   34.2789   38.9011 H   0  0  0  0  0  0  0  0  0  0  0  0
   46.5726   33.0163   39.2541 H   0  0  0  0  0  0  0  0  0  0  0  0
   46.8364   31.2968   46.2149 H   0  0  0  0  0  0  0  0  0  0  0  0
   47.8522   32.8036   46.0688 H   0  0  0  0  0  0  0  0  0  0  0  0
   48.4379   31.2888   47.9739 H   0  0  0  0  0  0  0  0  0  0  0  0
   48.0408   33.0122   48.3950 H   0  0  0  0  0  0  0  0  0  0  0  0
   46.9122   30.6827   49.3427 H   0  0  0  0  0  0  0  0  0  0  0  0
   45.3643   30.7564   47.5228 H   0  0  0  0  0  0  0  0  0  0  0  0
   44.5641   31.1477   49.0466 H   0  0  0  0  0  0  0  0  0  0  0  0
   45.2385   33.6494   48.5665 H   0  0  0  0  0  0  0  0  0  0  0  0
   43.9736   32.9802   47.5095 H   0  0  0  0  0  0  0  0  0  0  0  0
  1  2  2  0
  1 13  1  0
  3  2  1  0
  4  3  2  0
  5  4  1  0
  5  6  2  0
  6  1  1  0
  7  5  1  0
  8  7  2  0
  9  8  1  0
 10 11  1  0
 10  9  2  0
 11 12  2  0
 12  7  1  0
 13 14  1  0
 13 18  1  0
 14 15  1  0
 15 16  1  0
 17 16  1  0
 18 17  1  0
  2 19  1  0
  3 20  1  0
  8 21  1  0
  9 22  1  0
 10 23  1  0
 11 24  1  0
 14 25  1  0
 14 26  1  0
 15 27  1  0
 15 28  1  0
 16 29  1  0
 17 30  1  0
 17 31  1  0
 18 32  1  0
 18 33  1  0
M  ISO  8  19  14  20  14  21  14  22  14  23  14  24  14  25  13  26  13
M  ISO  7  27  13  28  13  29   5  30  13  31  13  32  13  33  13
M  END
>  <minimizedAffinity>  (1) 
-6.05242538

>  <minimizedRMSD>  (1) 
0.812467277

$$$$
