
     RDKit          3D

 53 57  0  0  0  0  0  0  0  0999 V2000
   46.2650   32.9620   46.0570 C   0  0  0  0  0  0  0  0  0  0  0  0
   47.3250   32.0700   45.8550 C   0  0  0  0  0  0  0  0  0  0  0  0
   47.4350   31.2830   46.9520 C   0  0  0  0  0  0  0  0  0  0  0  0
   46.4810   31.6740   47.8000 N   0  0  0  0  0  0  0  0  0  0  0  0
   45.7830   32.6740   47.2710 N   0  0  0  0  0  0  0  0  0  0  0  0
   44.5210   35.8210   44.6000 C   0  0  0  0  0  0  0  0  0  0  0  0
   45.0170   35.8760   43.3100 C   0  0  0  0  0  0  0  0  0  0  0  0
   45.9610   34.9190   42.9410 C   0  0  0  0  0  0  0  0  0  0  0  0
   46.3220   34.0090   43.8660 N   0  0  0  0  0  0  0  0  0  0  0  0
   45.8390   33.9710   45.0940 C   0  0  0  0  0  0  0  0  0  0  0  0
   44.9340   34.8850   45.4550 N   0  0  0  0  0  0  0  0  0  0  0  0
   46.6130   34.7660   41.6850 N   0  0  0  0  0  0  0  0  0  0  0  0
   46.0300   34.1600   40.5040 C   0  0  0  0  0  0  0  0  0  0  0  0
   47.1240   33.6590   39.5850 C   0  0  0  0  0  0  0  0  0  0  0  0
   48.1190   32.9710   40.4000 N   0  0  0  0  0  0  0  0  0  0  0  0
   48.8760   33.9930   41.1010 C   0  0  0  0  0  0  0  0  0  0  0  0
   47.9620   35.1790   41.3480 C   0  0  0  0  0  0  0  0  0  0  0  0
   46.2340   31.1000   49.1080 C   0  0  0  0  0  0  0  0  0  0  0  0
   44.9050   30.4390   49.1420 C   0  0  0  0  0  0  0  0  0  0  0  0
   44.9070   27.8840   48.9010 C   0  0  0  0  0  0  0  0  0  0  0  0
   44.7730   29.1750   48.4280 C   0  0  0  0  0  0  0  0  0  0  0  0
   44.4700   29.3050   47.0770 C   0  0  0  0  0  0  0  0  0  0  0  0
   44.3100   28.2150   46.2600 C   0  0  0  0  0  0  0  0  0  0  0  0
   44.0230   28.0400   44.9530 N   0  0  0  0  0  0  0  0  0  0  0  0
   43.9790   26.7460   44.6310 C   0  0  0  0  0  0  0  0  0  0  0  0
   44.2490   25.9930   45.7690 C   0  0  0  0  0  0  0  0  0  0  0  0
   44.4440   26.9400   46.7380 C   0  0  0  0  0  0  0  0  0  0  0  0
   44.7470   26.8010   48.0840 C   0  0  0  0  0  0  0  0  0  0  0  0
   44.9030   25.4680   48.6530 C   0  0  0  0  0  0  0  0  0  0  0  0
   45.1930   25.2960   49.8620 O   0  0  0  0  0  0  0  0  0  0  0  0
   47.9601   32.0172   44.9584 H   0  0  0  0  0  0  0  0  0  0  0  0
   48.1677   30.4784   47.1128 H   0  0  0  0  0  0  0  0  0  0  0  0
   43.7746   36.5606   44.9254 H   0  0  0  0  0  0  0  0  0  0  0  0
   44.6790   36.6465   42.6014 H   0  0  0  0  0  0  0  0  0  0  0  0
   45.3921   33.3159   40.8049 H   0  0  0  0  0  0  0  0  0  0  0  0
   45.4281   34.9117   39.9723 H   0  0  0  0  0  0  0  0  0  0  0  0
   47.5909   34.5076   39.0636 H   0  0  0  0  0  0  0  0  0  0  0  0
   46.7064   32.9734   38.8330 H   0  0  0  0  0  0  0  0  0  0  0  0
   47.6533   32.3496   41.0766 H   0  0  0  0  0  0  0  0  0  0  0  0
   49.2369   33.5955   42.0611 H   0  0  0  0  0  0  0  0  0  0  0  0
   49.7429   34.3021   40.4985 H   0  0  0  0  0  0  0  0  0  0  0  0
   48.3691   35.7738   42.1790 H   0  0  0  0  0  0  0  0  0  0  0  0
   47.9144   35.7694   40.4211 H   0  0  0  0  0  0  0  0  0  0  0  0
   47.0139   30.3569   49.3306 H   0  0  0  0  0  0  0  0  0  0  0  0
   46.2514   31.9037   49.8588 H   0  0  0  0  0  0  0  0  0  0  0  0
   44.6553   30.2513   50.1967 H   0  0  0  0  0  0  0  0  0  0  0  0
   44.2292   31.1324   48.6200 H   0  0  0  0  0  0  0  0  0  0  0  0
   45.1486   27.7241   49.9622 H   0  0  0  0  0  0  0  0  0  0  0  0
   44.3552   30.3125   46.6507 H   0  0  0  0  0  0  0  0  0  0  0  0
   43.8586   28.8088   44.2876 H   0  0  0  0  0  0  0  0  0  0  0  0
   43.7646   26.3414   43.6308 H   0  0  0  0  0  0  0  0  0  0  0  0
   44.2948   24.8983   45.8668 H   0  0  0  0  0  0  0  0  0  0  0  0
   44.7629   24.5897   48.0057 H   0  0  0  0  0  0  0  0  0  0  0  0
  1  5  2  0
  2  1  1  0
  2  3  2  0
  3  4  1  0
  4 18  1  0
  5  4  1  0
  6 11  2  0
  7  6  1  0
  8  7  2  0
  8  9  1  0
  9 10  2  0
 10 11  1  0
 10  1  1  0
 12  8  1  0
 13 12  1  0
 14 15  1  0
 14 13  1  0
 15 16  1  0
 16 17  1  0
 17 12  1  0
 18 19  1  0
 21 20  2  0
 21 19  1  0
 22 21  1  0
 23 27  1  0
 23 22  2  0
 24 23  1  0
 25 24  1  0
 25 26  2  0
 26 27  1  0
 27 28  2  0
 28 29  1  0
 28 20  1  0
 29 30  2  0
  2 31  1  0
  3 32  1  0
  6 33  1  0
  7 34  1  0
 13 35  1  0
 13 36  1  0
 14 37  1  0
 14 38  1  0
 15 39  1  0
 16 40  1  0
 16 41  1  0
 17 42  1  0
 17 43  1  0
 18 44  1  0
 18 45  1  0
 19 46  1  0
 19 47  1  0
 20 48  1  0
 22 49  1  0
 24 50  1  0
 25 51  1  0
 26 52  1  0
 29 53  1  0
M  ISO  8  31  14  32  14  33  14  34  14  35  13  36  13  37  13  38  13
M  ISO  8  39   5  40  13  41  13  42  13  43  13  44   8  45   8  46   8
M  ISO  7  47   8  48  14  49  14  50   9  51  14  52  14  53   6
M  END
>  <minimizedAffinity>  (1) 
-5.7769289

>  <minimizedRMSD>  (1) 
1.16533053

$$$$
