
     RDKit          3D

 41 44  0  0  0  0  0  0  0  0999 V2000
   45.0240   32.4860   40.6100 F   0  0  0  0  0  0  0  0  0  0  0  0
   44.7090   33.6490   41.2220 C   0  0  0  0  0  0  0  0  0  0  0  0
   45.2520   33.9420   42.4400 C   0  0  0  0  0  0  0  0  0  0  0  0
   44.9340   35.1310   43.0720 C   0  0  0  0  0  0  0  0  0  0  0  0
   44.0720   36.0520   42.5100 C   0  0  0  0  0  0  0  0  0  0  0  0
   43.5400   35.7380   41.2900 C   0  0  0  0  0  0  0  0  0  0  0  0
   43.8430   34.5560   40.6380 C   0  0  0  0  0  0  0  0  0  0  0  0
   43.2470   34.2910   39.3570 N   0  0  0  0  0  0  0  0  0  0  0  0
   42.1560   34.9470   38.6480 C   0  0  0  0  0  0  0  0  0  0  0  0
   41.0470   33.9830   38.3060 C   0  0  0  0  0  0  0  0  0  0  0  0
   41.4760   32.7100   37.8450 N   0  0  0  0  0  0  0  0  0  0  0  0
   42.6450   32.1650   38.4700 C   0  0  0  0  0  0  0  0  0  0  0  0
   43.7500   33.1970   38.5490 C   0  0  0  0  0  0  0  0  0  0  0  0
   46.9710   32.0800   44.8840 C   0  0  0  0  0  0  0  0  0  0  0  0
   47.7100   31.7600   43.7480 C   0  0  0  0  0  0  0  0  0  0  0  0
   47.1780   32.4060   42.6730 C   0  0  0  0  0  0  0  0  0  0  0  0
   46.1400   33.1060   43.1300 N   0  0  0  0  0  0  0  0  0  0  0  0
   46.0220   32.9050   44.4580 N   0  0  0  0  0  0  0  0  0  0  0  0
   47.7810   29.8220   47.6540 C   0  0  0  0  0  0  0  0  0  0  0  0
   47.7270   30.6900   48.7650 C   0  0  0  0  0  0  0  0  0  0  0  0
   47.4150   32.0400   48.5540 C   0  0  0  0  0  0  0  0  0  0  0  0
   47.1870   32.3960   47.2730 N   0  0  0  0  0  0  0  0  0  0  0  0
   47.2360   31.5820   46.2210 C   0  0  0  0  0  0  0  0  0  0  0  0
   47.5360   30.2720   46.3990 N   0  0  0  0  0  0  0  0  0  0  0  0
   45.3817   35.3495   44.0527 H   0  0  0  0  0  0  0  0  0  0  0  0
   43.8247   36.9947   43.0202 H   0  0  0  0  0  0  0  0  0  0  0  0
   42.8491   36.4479   40.8118 H   0  0  0  0  0  0  0  0  0  0  0  0
   41.7485   35.7466   39.2841 H   0  0  0  0  0  0  0  0  0  0  0  0
   42.5564   35.3535   37.7075 H   0  0  0  0  0  0  0  0  0  0  0  0
   40.4374   33.8308   39.2089 H   0  0  0  0  0  0  0  0  0  0  0  0
   40.4909   34.4388   37.4735 H   0  0  0  0  0  0  0  0  0  0  0  0
   40.7028   32.0461   37.9943 H   0  0  0  0  0  0  0  0  0  0  0  0
   42.3880   31.8348   39.4873 H   0  0  0  0  0  0  0  0  0  0  0  0
   43.0009   31.3164   37.8673 H   0  0  0  0  0  0  0  0  0  0  0  0
   44.6434   32.7595   39.0185 H   0  0  0  0  0  0  0  0  0  0  0  0
   44.0348   33.5468   37.5457 H   0  0  0  0  0  0  0  0  0  0  0  0
   48.5838   31.0923   43.7227 H   0  0  0  0  0  0  0  0  0  0  0  0
   47.5346   32.3591   41.6335 H   0  0  0  0  0  0  0  0  0  0  0  0
   48.0263   28.7610   47.8090 H   0  0  0  0  0  0  0  0  0  0  0  0
   47.9263   30.3137   49.7792 H   0  0  0  0  0  0  0  0  0  0  0  0
   47.3596   32.7635   49.3807 H   0  0  0  0  0  0  0  0  0  0  0  0
  1  2  1  0
  2  3  2  0
  3  4  1  0
  3 17  1  0
  5  4  2  0
  6  5  1  0
  7  2  1  0
  7  6  2  0
  8  7  1  0
  9  8  1  0
 10  9  1  0
 11 10  1  0
 11 12  1  0
 12 13  1  0
 13  8  1  0
 14 23  1  0
 15 14  1  0
 16 17  1  0
 16 15  2  0
 17 18  1  0
 18 14  2  0
 19 20  2  0
 21 20  1  0
 22 21  2  0
 23 24  2  0
 23 22  1  0
 24 19  1  0
  4 25  1  0
  5 26  1  0
  6 27  1  0
  9 28  1  0
  9 29  1  0
 10 30  1  0
 10 31  1  0
 11 32  1  0
 12 33  1  0
 12 34  1  0
 13 35  1  0
 13 36  1  0
 15 37  1  0
 16 38  1  0
 19 39  1  0
 20 40  1  0
 21 41  1  0
M  ISO  8  25  14  26  14  27  14  28  13  29  13  30  13  31  13  32   5
M  ISO  8  33  13  34  13  35  13  36  13  37  14  38  14  39  14  40  14
M  ISO  1  41  14
M  END
>  <minimizedAffinity>  (1) 
-5.11008453

>  <minimizedRMSD>  (1) 
1.6070503

$$$$
