
     RDKit          3D

 33 35  0  0  0  0  0  0  0  0999 V2000
   46.7340   34.6810   42.0900 C   0  0  0  0  0  0  0  0  0  0  0  0
   47.9470   35.3210   41.9060 C   0  0  0  0  0  0  0  0  0  0  0  0
   48.6950   35.2760   40.7510 C   0  0  0  0  0  0  0  0  0  0  0  0
   48.1180   34.5030   39.7250 C   0  0  0  0  0  0  0  0  0  0  0  0
   46.9060   33.8610   39.9030 C   0  0  0  0  0  0  0  0  0  0  0  0
   46.2390   33.9630   41.0780 N   0  0  0  0  0  0  0  0  0  0  0  0
   46.2980   33.0760   38.8930 N   0  0  0  0  0  0  0  0  0  0  0  0
   45.2140   32.1390   39.0520 C   0  0  0  0  0  0  0  0  0  0  0  0
   44.0690   32.4590   38.1140 C   0  0  0  0  0  0  0  0  0  0  0  0
   44.5030   32.3460   36.7510 N   0  0  0  0  0  0  0  0  0  0  0  0
   45.5670   33.3320   36.5620 C   0  0  0  0  0  0  0  0  0  0  0  0
   46.6990   33.1120   37.5220 C   0  0  0  0  0  0  0  0  0  0  0  0
   45.5660   33.9670   45.4890 C   0  0  0  0  0  0  0  0  0  0  0  0
   44.6850   35.0390   45.7450 C   0  0  0  0  0  0  0  0  0  0  0  0
   44.5070   36.0040   44.7250 C   0  0  0  0  0  0  0  0  0  0  0  0
   45.1990   35.8390   43.5510 N   0  0  0  0  0  0  0  0  0  0  0  0
   46.0260   34.8000   43.3600 C   0  0  0  0  0  0  0  0  0  0  0  0
   46.2150   33.8700   44.3060 N   0  0  0  0  0  0  0  0  0  0  0  0
   48.3436   35.9102   42.7460 H   0  0  0  0  0  0  0  0  0  0  0  0
   49.6572   35.7972   40.6396 H   0  0  0  0  0  0  0  0  0  0  0  0
   48.6419   34.4079   38.7625 H   0  0  0  0  0  0  0  0  0  0  0  0
   45.5819   31.1252   38.8357 H   0  0  0  0  0  0  0  0  0  0  0  0
   44.8453   32.2064   40.0862 H   0  0  0  0  0  0  0  0  0  0  0  0
   43.2439   31.7538   38.2929 H   0  0  0  0  0  0  0  0  0  0  0  0
   43.7280   33.4882   38.2995 H   0  0  0  0  0  0  0  0  0  0  0  0
   44.8625   31.3977   36.5710 H   0  0  0  0  0  0  0  0  0  0  0  0
   45.9498   33.2518   35.5339 H   0  0  0  0  0  0  0  0  0  0  0  0
   45.1473   34.3317   36.7473 H   0  0  0  0  0  0  0  0  0  0  0  0
   47.1796   32.1535   37.2766 H   0  0  0  0  0  0  0  0  0  0  0  0
   47.3814   33.9677   37.4118 H   0  0  0  0  0  0  0  0  0  0  0  0
   45.7272   33.2004   46.2612 H   0  0  0  0  0  0  0  0  0  0  0  0
   44.1544   35.1220   46.7050 H   0  0  0  0  0  0  0  0  0  0  0  0
   43.8334   36.8617   44.8689 H   0  0  0  0  0  0  0  0  0  0  0  0
  1 17  1  0
  2  1  2  0
  3  2  1  0
  4  5  1  0
  4  3  2  0
  5  6  2  0
  6  1  1  0
  7  8  1  0
  7  5  1  0
  9  8  1  0
 10  9  1  0
 11 10  1  0
 11 12  1  0
 12  7  1  0
 13 14  2  0
 15 14  1  0
 16 15  2  0
 17 16  1  0
 17 18  2  0
 18 13  1  0
  2 19  1  0
  3 20  1  0
  4 21  1  0
  8 22  1  0
  8 23  1  0
  9 24  1  0
  9 25  1  0
 10 26  1  0
 11 27  1  0
 11 28  1  0
 12 29  1  0
 12 30  1  0
 13 31  1  0
 14 32  1  0
 15 33  1  0
M  ISO  8  19  14  20  14  21  14  22  13  23  13  24  13  25  13  26   5
M  ISO  7  27  13  28  13  29  13  30  13  31  14  32  14  33  14
M  END
>  <minimizedAffinity>  (1) 
-5.79673386

>  <minimizedRMSD>  (1) 
0.166822717

$$$$
