
     RDKit          3D

 31 33  0  0  1  0  0  0  0  0999 V2000
   44.5550   34.7840   43.4810 C   0  0  1  0  0  0  0  0  0  0  0  0
   45.2250   36.0930   43.0070 C   0  0  0  0  0  0  0  0  0  0  0  0
   44.8660   35.0150   42.0850 C   0  0  2  0  0  0  0  0  0  0  0  0
   45.4350   33.9400   44.3410 C   0  0  0  0  0  0  0  0  0  0  0  0
   46.3670   33.0680   43.7040 C   0  0  0  0  0  0  0  0  0  0  0  0
   47.1870   32.2990   44.5190 C   0  0  0  0  0  0  0  0  0  0  0  0
   47.0470   32.4280   45.8670 N   0  0  0  0  0  0  0  0  0  0  0  0
   46.1510   33.2680   46.4360 C   0  0  0  0  0  0  0  0  0  0  0  0
   45.3380   34.0310   45.6780 N   0  0  0  0  0  0  0  0  0  0  0  0
   43.8090   35.0840   41.1340 N   0  0  0  0  0  0  0  0  0  0  0  0
   43.8770   34.1650   40.0600 C   0  0  0  0  0  0  0  0  0  0  0  0
   42.5820   33.4260   39.8340 C   0  0  0  0  0  0  0  0  0  0  0  0
   41.5520   34.3950   39.6210 N   0  0  0  0  0  0  0  0  0  0  0  0
   41.5090   35.4720   40.5720 C   0  0  0  0  0  0  0  0  0  0  0  0
   42.5280   35.4160   41.6480 C   0  0  0  0  0  0  0  0  0  0  0  0
   43.6387   34.4576   43.9946 H   0  0  0  0  0  0  0  0  0  0  0  0
   44.6617   37.0378   43.0052 H   0  0  0  0  0  0  0  0  0  0  0  0
   46.1401   36.6500   43.2566 H   0  0  0  0  0  0  0  0  0  0  0  0
   45.4571   34.4954   41.3164 H   0  0  0  0  0  0  0  0  0  0  0  0
   46.4336   33.0070   42.6077 H   0  0  0  0  0  0  0  0  0  0  0  0
   47.9264   31.6074   44.0890 H   0  0  0  0  0  0  0  0  0  0  0  0
   46.0852   33.3290   47.5323 H   0  0  0  0  0  0  0  0  0  0  0  0
   44.1308   34.7162   39.1425 H   0  0  0  0  0  0  0  0  0  0  0  0
   44.6425   33.4172   40.3148 H   0  0  0  0  0  0  0  0  0  0  0  0
   42.6720   32.7765   38.9508 H   0  0  0  0  0  0  0  0  0  0  0  0
   42.3426   32.7989   40.7054 H   0  0  0  0  0  0  0  0  0  0  0  0
   41.6890   34.8032   38.6853 H   0  0  0  0  0  0  0  0  0  0  0  0
   41.6481   36.4147   40.0226 H   0  0  0  0  0  0  0  0  0  0  0  0
   40.5343   35.3911   41.0753 H   0  0  0  0  0  0  0  0  0  0  0  0
   42.2296   34.6546   42.3837 H   0  0  0  0  0  0  0  0  0  0  0  0
   42.5906   36.4093   42.1163 H   0  0  0  0  0  0  0  0  0  0  0  0
  1  4  1  0
  2  1  1  0
  3  2  1  0
  3  1  1  0
  4  9  1  0
  5  4  2  0
  5  6  1  0
  6  7  2  0
  7  8  1  0
  9  8  2  0
 10 15  1  0
 10  3  1  0
 11 10  1  0
 12 11  1  0
 13 12  1  0
 13 14  1  0
 14 15  1  0
  1 16  1  6
  2 17  1  0
  2 18  1  0
  3 19  1  6
  5 20  1  0
  6 21  1  0
  8 22  1  0
 11 23  1  0
 11 24  1  0
 12 25  1  0
 12 26  1  0
 13 27  1  0
 14 28  1  0
 14 29  1  0
 15 30  1  0
 15 31  1  0
M  ISO  8  16  13  17  13  18  13  19  13  20  14  21  14  22  14  23  13
M  ISO  8  24  13  25  13  26  13  27   5  28  13  29  13  30  13  31  13
M  END
>  <minimizedAffinity>  (1) 
-3.99334478

>  <minimizedRMSD>  (1) 
1.37511671

$$$$
