
     RDKit          3D

 31 33  0  0  0  0  0  0  0  0999 V2000
   46.1160   33.7090   40.3490 C   0  0  0  0  0  0  0  0  0  0  0  0
   44.7810   34.0270   40.6700 C   0  0  0  0  0  0  0  0  0  0  0  0
   43.7610   33.7810   39.7470 C   0  0  0  0  0  0  0  0  0  0  0  0
   44.1280   33.2350   38.5560 N   0  0  0  0  0  0  0  0  0  0  0  0
   45.4250   32.9420   38.2820 C   0  0  0  0  0  0  0  0  0  0  0  0
   46.4050   33.1730   39.1590 N   0  0  0  0  0  0  0  0  0  0  0  0
   42.3890   34.0600   39.9590 N   0  0  0  0  0  0  0  0  0  0  0  0
   41.5070   34.3940   38.8590 C   0  0  0  0  0  0  0  0  0  0  0  0
   41.0340   35.8150   39.0860 C   0  0  0  0  0  0  0  0  0  0  0  0
   40.2290   35.7930   40.2910 N   0  0  0  0  0  0  0  0  0  0  0  0
   40.9430   35.3410   41.4390 C   0  0  0  0  0  0  0  0  0  0  0  0
   41.7100   34.0500   41.2330 C   0  0  0  0  0  0  0  0  0  0  0  0
   47.1590   33.9920   41.3570 C   0  0  0  0  0  0  0  0  0  0  0  0
   48.2020   35.0260   40.8530 C   0  0  0  0  0  0  0  0  0  0  0  0
   47.2990   35.2680   42.0240 C   0  0  0  0  0  0  0  0  0  0  0  0
   44.5417   34.4694   41.6483 H   0  0  0  0  0  0  0  0  0  0  0  0
   45.6765   32.5003   37.3065 H   0  0  0  0  0  0  0  0  0  0  0  0
   40.6474   33.7079   38.8424 H   0  0  0  0  0  0  0  0  0  0  0  0
   42.0298   34.3036   37.8954 H   0  0  0  0  0  0  0  0  0  0  0  0
   41.8957   36.4861   39.2168 H   0  0  0  0  0  0  0  0  0  0  0  0
   40.4542   36.1834   38.2269 H   0  0  0  0  0  0  0  0  0  0  0  0
   39.8877   36.7475   40.4734 H   0  0  0  0  0  0  0  0  0  0  0  0
   41.6593   36.1240   41.7286 H   0  0  0  0  0  0  0  0  0  0  0  0
   40.1910   35.1381   42.2158 H   0  0  0  0  0  0  0  0  0  0  0  0
   41.0078   33.2038   41.2617 H   0  0  0  0  0  0  0  0  0  0  0  0
   42.4585   33.9507   42.0329 H   0  0  0  0  0  0  0  0  0  0  0  0
   47.1118   32.9724   41.7671 H   0  0  0  0  0  0  0  0  0  0  0  0
   49.2780   34.8535   41.0028 H   0  0  0  0  0  0  0  0  0  0  0  0
   48.4285   35.5318   39.9028 H   0  0  0  0  0  0  0  0  0  0  0  0
   46.4935   36.0124   41.9397 H   0  0  0  0  0  0  0  0  0  0  0  0
   47.4784   35.5588   43.0696 H   0  0  0  0  0  0  0  0  0  0  0  0
  1  2  2  0
  1 13  1  0
  3  7  1  0
  3  2  1  0
  4  3  2  0
  5  4  1  0
  5  6  2  0
  6  1  1  0
  7 12  1  0
  8  9  1  0
  8  7  1  0
  9 10  1  0
 10 11  1  0
 12 11  1  0
 13 15  1  0
 14 13  1  0
 14 15  1  0
  2 16  1  0
  5 17  1  0
  8 18  1  0
  8 19  1  0
  9 20  1  0
  9 21  1  0
 10 22  1  0
 11 23  1  0
 11 24  1  0
 12 25  1  0
 12 26  1  0
 13 27  1  0
 14 28  1  0
 14 29  1  0
 15 30  1  0
 15 31  1  0
M  ISO  8  16  14  17  14  18  13  19  13  20  13  21  13  22   5  23  13
M  ISO  8  24  13  25  13  26  13  27  13  28  13  29  13  30  13  31  13
M  END
>  <minimizedAffinity>  (1) 
-4.25291729

>  <minimizedRMSD>  (1) 
7.66141558

$$$$
