
     RDKit          3D

 42 44  0  0  1  0  0  0  0  0999 V2000
   46.6310   31.6330   48.0870 C   0  0  2  0  0  0  0  0  0  0  0  0
   45.7470   31.9990   49.2900 C   0  0  0  0  0  0  0  0  0  0  0  0
   44.4720   31.3240   48.7540 C   0  0  0  0  0  0  0  0  0  0  0  0
   44.9100   30.1060   48.2560 O   0  0  0  0  0  0  0  0  0  0  0  0
   46.2420   30.2010   47.9620 C   0  0  1  0  0  0  0  0  0  0  0  0
   46.6050   29.5670   46.7370 N   0  0  0  0  0  0  0  0  0  0  0  0
   45.5580   29.3570   45.7960 C   0  0  0  0  0  0  0  0  0  0  0  0
   44.7320   28.1240   46.0770 C   0  0  0  0  0  0  0  0  0  0  0  0
   45.5800   26.9460   46.2310 N   0  0  0  0  0  0  0  0  0  0  0  0
   46.5910   27.1640   47.2220 C   0  0  0  0  0  0  0  0  0  0  0  0
   47.3990   28.3970   46.9280 C   0  0  0  0  0  0  0  0  0  0  0  0
   48.0740   31.8820   48.3560 C   0  0  0  0  0  0  0  0  0  0  0  0
   49.7210   30.2370   49.1530 C   0  0  0  0  0  0  0  0  0  0  0  0
   48.6470   30.9680   49.3760 C   0  0  0  0  0  0  0  0  0  0  0  0
   50.9580   28.9170   52.3480 C   0  0  0  0  0  0  0  0  0  0  0  0
   51.2640   27.5720   52.0060 C   0  0  0  0  0  0  0  0  0  0  0  0
   51.0290   27.1820   50.6850 C   0  0  0  0  0  0  0  0  0  0  0  0
   50.5270   28.0870   49.7950 N   0  0  0  0  0  0  0  0  0  0  0  0
   50.2510   29.3600   50.1750 C   0  0  0  0  0  0  0  0  0  0  0  0
   50.4570   29.7850   51.4260 N   0  0  0  0  0  0  0  0  0  0  0  0
   46.4917   32.2163   47.1649 H   0  0  0  0  0  0  0  0  0  0  0  0
   46.1019   31.5532   50.2309 H   0  0  0  0  0  0  0  0  0  0  0  0
   45.6789   33.0629   49.5610 H   0  0  0  0  0  0  0  0  0  0  0  0
   43.7416   31.1739   49.5627 H   0  0  0  0  0  0  0  0  0  0  0  0
   43.9653   31.9317   47.9898 H   0  0  0  0  0  0  0  0  0  0  0  0
   46.8346   29.6223   48.6858 H   0  0  0  0  0  0  0  0  0  0  0  0
   46.0043   29.2563   44.7957 H   0  0  0  0  0  0  0  0  0  0  0  0
   44.8819   30.2218   45.8668 H   0  0  0  0  0  0  0  0  0  0  0  0
   44.1602   28.2784   47.0039 H   0  0  0  0  0  0  0  0  0  0  0  0
   44.0540   27.9571   45.2271 H   0  0  0  0  0  0  0  0  0  0  0  0
   44.9965   26.1465   46.5160 H   0  0  0  0  0  0  0  0  0  0  0  0
   46.1090   27.2791   48.2041 H   0  0  0  0  0  0  0  0  0  0  0  0
   47.2701   26.2987   47.2160 H   0  0  0  0  0  0  0  0  0  0  0  0
   47.9835   28.2200   46.0131 H   0  0  0  0  0  0  0  0  0  0  0  0
   48.0389   28.5803   47.8037 H   0  0  0  0  0  0  0  0  0  0  0  0
   48.6319   31.7512   47.4171 H   0  0  0  0  0  0  0  0  0  0  0  0
   48.1603   32.9054   48.7500 H   0  0  0  0  0  0  0  0  0  0  0  0
   50.2220   30.2944   48.1754 H   0  0  0  0  0  0  0  0  0  0  0  0
   48.1554   30.8980   50.3576 H   0  0  0  0  0  0  0  0  0  0  0  0
   51.1292   29.2638   53.3778 H   0  0  0  0  0  0  0  0  0  0  0  0
   51.6682   26.8686   52.7489 H   0  0  0  0  0  0  0  0  0  0  0  0
   51.2471   26.1526   50.3644 H   0  0  0  0  0  0  0  0  0  0  0  0
  1 12  1  0
  1  2  1  0
  3  2  1  0
  4  3  1  0
  5  1  1  0
  5  4  1  0
  6 11  1  0
  6  5  1  0
  7  8  1  0
  7  6  1  0
  8  9  1  0
  9 10  1  0
 11 10  1  0
 12 14  1  0
 13 14  2  0
 13 19  1  0
 16 15  2  0
 17 16  1  0
 18 19  1  0
 18 17  2  0
 19 20  2  0
 20 15  1  0
  1 21  1  6
  2 22  1  0
  2 23  1  0
  3 24  1  0
  3 25  1  0
  5 26  1  1
  7 27  1  0
  7 28  1  0
  8 29  1  0
  8 30  1  0
  9 31  1  0
 10 32  1  0
 10 33  1  0
 11 34  1  0
 11 35  1  0
 12 36  1  0
 12 37  1  0
 13 38  1  0
 14 39  1  0
 15 40  1  0
 16 41  1  0
 17 42  1  0
M  ISO  8  21  13  22  13  23  13  24  13  25  13  26  13  27  13  28  13
M  ISO  8  29  13  30  13  31   5  32  13  33  13  34  13  35  13  36   8
M  ISO  4  37   8  40  14  41  14  42  14
M  END
>  <minimizedAffinity>  (1) 
-4.27741003

>  <minimizedRMSD>  (1) 
7.12925816

$$$$
