
     RDKit          3D

 51 54  0  0  1  0  0  0  0  0999 V2000
   47.4050   32.9670   44.3560 C   0  0  2  0  0  0  0  0  0  0  0  0
   47.3510   33.3720   42.9260 C   0  0  1  0  0  0  0  0  0  0  0  0
   47.3170   32.1620   41.9880 C   0  0  0  0  0  0  0  0  0  0  0  0
   48.4370   31.4130   42.3610 O   0  0  0  0  0  0  0  0  0  0  0  0
   48.2380   30.7730   43.5640 C   0  0  0  0  0  0  0  0  0  0  0  0
   47.2410   31.4390   44.4590 C   0  0  1  0  0  0  0  0  0  0  0  0
   45.0030   36.1730   42.7440 C   0  0  0  0  0  0  0  0  0  0  0  0
   43.9900   35.7210   41.8420 C   0  0  0  0  0  0  0  0  0  0  0  0
   44.1740   34.4150   41.3170 C   0  0  0  0  0  0  0  0  0  0  0  0
   45.2600   33.6990   41.6880 N   0  0  0  0  0  0  0  0  0  0  0  0
   46.1820   34.1850   42.5450 C   0  0  0  0  0  0  0  0  0  0  0  0
   46.0540   35.4260   43.0750 N   0  0  0  0  0  0  0  0  0  0  0  0
   44.8350   37.4220   43.2520 O   0  0  0  0  0  0  0  0  0  0  0  0
   46.4170   33.5600   45.1460 O   0  0  0  0  0  0  0  0  0  0  0  0
   47.3870   31.1150   45.7880 O   0  0  0  0  0  0  0  0  0  0  0  0
   46.9650   28.4450   45.7450 F   0  0  0  0  0  0  0  0  0  0  0  0
   46.4430   29.2960   46.6520 C   0  0  0  0  0  0  0  0  0  0  0  0
   46.6050   30.6620   46.7520 C   0  0  0  0  0  0  0  0  0  0  0  0
   45.9380   31.2600   47.8080 C   0  0  0  0  0  0  0  0  0  0  0  0
   45.1520   30.6260   48.7370 C   0  0  0  0  0  0  0  0  0  0  0  0
   45.0250   29.2750   48.5930 C   0  0  0  0  0  0  0  0  0  0  0  0
   45.6500   28.5820   47.5710 C   0  0  0  0  0  0  0  0  0  0  0  0
   45.4190   27.1760   47.5570 N   0  0  0  0  0  0  0  0  0  0  0  0
   46.3650   26.1650   48.0380 C   0  0  0  0  0  0  0  0  0  0  0  0
   45.6720   25.1620   48.9320 C   0  0  0  0  0  0  0  0  0  0  0  0
   44.3860   24.7720   48.4600 N   0  0  0  0  0  0  0  0  0  0  0  0
   43.5150   25.8610   48.1320 C   0  0  0  0  0  0  0  0  0  0  0  0
   44.1590   26.6790   47.0350 C   0  0  0  0  0  0  0  0  0  0  0  0
   48.3808   33.3060   44.7339 H   0  0  0  0  0  0  0  0  0  0  0  0
   48.2665   33.9724   42.8196 H   0  0  0  0  0  0  0  0  0  0  0  0
   47.3912   32.4795   40.9374 H   0  0  0  0  0  0  0  0  0  0  0  0
   46.3802   31.5909   42.0676 H   0  0  0  0  0  0  0  0  0  0  0  0
   47.8863   29.7516   43.3566 H   0  0  0  0  0  0  0  0  0  0  0  0
   49.2011   30.7944   44.0949 H   0  0  0  0  0  0  0  0  0  0  0  0
   46.2543   31.0894   44.1211 H   0  0  0  0  0  0  0  0  0  0  0  0
   43.1247   36.3444   41.5725 H   0  0  0  0  0  0  0  0  0  0  0  0
   43.4410   33.9896   40.6157 H   0  0  0  0  0  0  0  0  0  0  0  0
   44.0457   37.9601   42.9920 H   0  0  0  0  0  0  0  0  0  0  0  0
   46.6362   33.4285   46.1024 H   0  0  0  0  0  0  0  0  0  0  0  0
   46.0491   32.3494   47.9122 H   0  0  0  0  0  0  0  0  0  0  0  0
   44.6536   31.1745   49.5499 H   0  0  0  0  0  0  0  0  0  0  0  0
   44.4059   28.7189   49.3124 H   0  0  0  0  0  0  0  0  0  0  0  0
   46.7998   25.6389   47.1754 H   0  0  0  0  0  0  0  0  0  0  0  0
   47.1532   26.6678   48.6176 H   0  0  0  0  0  0  0  0  0  0  0  0
   46.3037   24.2642   49.0028 H   0  0  0  0  0  0  0  0  0  0  0  0
   45.5244   25.6471   49.9082 H   0  0  0  0  0  0  0  0  0  0  0  0
   44.5147   24.1979   47.6146 H   0  0  0  0  0  0  0  0  0  0  0  0
   42.5476   25.4701   47.7837 H   0  0  0  0  0  0  0  0  0  0  0  0
   43.3465   26.4885   49.0196 H   0  0  0  0  0  0  0  0  0  0  0  0
   43.5065   27.5206   46.7593 H   0  0  0  0  0  0  0  0  0  0  0  0
   44.3218   26.0678   46.1350 H   0  0  0  0  0  0  0  0  0  0  0  0
  1  6  1  0
  1 14  1  0
  2  1  1  0
  3  4  1  0
  3  2  1  0
  4  5  1  0
  5  6  1  0
  6 15  1  0
  7 12  2  0
  7 13  1  0
  8  7  1  0
  9 10  1  0
  9  8  2  0
 10 11  2  0
 11  2  1  0
 11 12  1  0
 15 18  1  0
 16 17  1  0
 17 18  2  0
 17 22  1  0
 18 19  1  0
 19 20  2  0
 21 20  1  0
 22 21  2  0
 23 22  1  0
 23 24  1  0
 24 25  1  0
 26 25  1  0
 27 26  1  0
 28 23  1  0
 28 27  1  0
  1 29  1  1
  2 30  1  6
  3 31  1  0
  3 32  1  0
  5 33  1  0
  5 34  1  0
  6 35  1  6
  8 36  1  0
  9 37  1  0
 13 38  1  0
 14 39  1  0
 19 40  1  0
 20 41  1  0
 21 42  1  0
 24 43  1  0
 24 44  1  0
 25 45  1  0
 25 46  1  0
 26 47  1  0
 27 48  1  0
 27 49  1  0
 28 50  1  0
 28 51  1  0
M  ISO  8  29  13  30  13  31  13  32  13  33  13  34  13  35  13  36  14
M  ISO  8  37  14  38   3  39   3  40  14  41  14  42  14  43  13  44  13
M  ISO  7  45  13  46  13  47   5  48  13  49  13  50  13  51  13
M  END
>  <minimizedAffinity>  (1) 
-5.67572117

>  <minimizedRMSD>  (1) 
1.54801619

$$$$
