
     RDKit          3D

 39 41  0  0  1  0  0  0  0  0999 V2000
   47.2580   34.0530   42.5340 C   0  0  2  0  0  0  0  0  0  0  0  0
   48.6290   34.5870   42.6810 C   0  0  0  0  0  0  0  0  0  0  0  0
   48.9350   35.6550   41.6820 C   0  0  0  0  0  0  0  0  0  0  0  0
   48.7110   35.2270   40.2570 C   0  0  0  0  0  0  0  0  0  0  0  0
   47.5280   34.3230   40.0670 C   0  0  2  0  0  0  0  0  0  0  0  0
   46.5820   34.3950   41.2490 C   0  0  0  0  0  0  0  0  0  0  0  0
   46.3680   34.3860   43.6580 C   0  0  0  0  0  0  0  0  0  0  0  0
   45.5500   35.4890   43.4210 C   0  0  0  0  0  0  0  0  0  0  0  0
   44.6370   35.9020   44.3930 C   0  0  0  0  0  0  0  0  0  0  0  0
   44.6190   35.1560   45.5580 N   0  0  0  0  0  0  0  0  0  0  0  0
   45.4260   34.0970   45.7530 C   0  0  0  0  0  0  0  0  0  0  0  0
   46.2880   33.7260   44.8030 N   0  0  0  0  0  0  0  0  0  0  0  0
   48.0070   32.9570   39.7640 C   0  0  0  0  0  0  0  0  0  0  0  0
   47.4940   32.3270   38.5220 C   0  0  0  0  0  0  0  0  0  0  0  0
   47.3820   33.2520   37.3530 C   0  0  0  0  0  0  0  0  0  0  0  0
   47.8180   32.5930   36.0350 C   0  0  0  0  0  0  0  0  0  0  0  0
   48.6240   33.6700   36.6070 C   0  0  0  0  0  0  0  0  0  0  0  0
   47.4318   32.9668   42.5318 H   0  0  0  0  0  0  0  0  0  0  0  0
   48.7378   35.0072   43.6917 H   0  0  0  0  0  0  0  0  0  0  0  0
   49.3316   33.7579   42.5111 H   0  0  0  0  0  0  0  0  0  0  0  0
   48.2904   36.5216   41.8905 H   0  0  0  0  0  0  0  0  0  0  0  0
   50.0036   35.8955   41.7831 H   0  0  0  0  0  0  0  0  0  0  0  0
   48.5585   36.1286   39.6455 H   0  0  0  0  0  0  0  0  0  0  0  0
   49.5998   34.6537   39.9547 H   0  0  0  0  0  0  0  0  0  0  0  0
   46.9299   34.6587   39.2070 H   0  0  0  0  0  0  0  0  0  0  0  0
   46.1817   35.4171   41.3205 H   0  0  0  0  0  0  0  0  0  0  0  0
   45.7794   33.6611   41.0841 H   0  0  0  0  0  0  0  0  0  0  0  0
   45.6237   36.0341   42.4684 H   0  0  0  0  0  0  0  0  0  0  0  0
   43.9735   36.7663   44.2421 H   0  0  0  0  0  0  0  0  0  0  0  0
   45.3755   33.5354   46.6975 H   0  0  0  0  0  0  0  0  0  0  0  0
   49.1036   32.9984   39.6875 H   0  0  0  0  0  0  0  0  0  0  0  0
   47.6248   32.3302   40.5832 H   0  0  0  0  0  0  0  0  0  0  0  0
   48.1747   31.5079   38.2469 H   0  0  0  0  0  0  0  0  0  0  0  0
   46.4731   31.9843   38.7461 H   0  0  0  0  0  0  0  0  0  0  0  0
   46.5276   33.8088   37.7652 H   0  0  0  0  0  0  0  0  0  0  0  0
   47.2399   32.7686   35.1158 H   0  0  0  0  0  0  0  0  0  0  0  0
   48.0189   31.5605   35.7130 H   0  0  0  0  0  0  0  0  0  0  0  0
   49.6140   33.4426   37.0292 H   0  0  0  0  0  0  0  0  0  0  0  0
   48.9979   34.6308   36.2235 H   0  0  0  0  0  0  0  0  0  0  0  0
  1  2  1  0
  1  7  1  0
  3  2  1  0
  4  3  1  0
  5  4  1  0
  5  6  1  0
  6  1  1  0
  7 12  1  0
  8  7  2  0
  8  9  1  0
  9 10  2  0
 10 11  1  0
 12 11  2  0
 13  5  1  0
 14 13  1  0
 15 14  1  0
 16 17  1  0
 16 15  1  0
 17 15  1  0
  1 18  1  6
  2 19  1  0
  2 20  1  0
  3 21  1  0
  3 22  1  0
  4 23  1  0
  4 24  1  0
  5 25  1  6
  6 26  1  0
  6 27  1  0
  8 28  1  0
  9 29  1  0
 11 30  1  0
 13 31  1  0
 13 32  1  0
 14 33  1  0
 14 34  1  0
 15 35  1  0
 16 36  1  0
 16 37  1  0
 17 38  1  0
 17 39  1  0
M  ISO  8  18  13  19  13  20  13  21  13  22  13  23  13  24  13  25  13
M  ISO  8  26  13  27  13  28  14  29  14  30  14  31   8  32   8  33   8
M  ISO  6  34   8  35  13  36  13  37  13  38  13  39  13
M  END
>  <minimizedAffinity>  (1) 
-5.17858601

>  <minimizedRMSD>  (1) 
0.713010967

$$$$
