
     RDKit          3D

 42 46  0  0  1  0  0  0  0  0999 V2000
   45.9240   32.4740   42.7900 C   0  0  0  0  0  0  0  0  0  0  0  0
   46.5800   31.4340   43.4370 C   0  0  0  0  0  0  0  0  0  0  0  0
   46.7730   31.3950   44.8120 C   0  0  0  0  0  0  0  0  0  0  0  0
   46.3050   32.4180   45.6040 C   0  0  0  0  0  0  0  0  0  0  0  0
   45.6540   33.4570   44.9980 C   0  0  0  0  0  0  0  0  0  0  0  0
   45.1890   34.4850   45.7890 C   0  0  0  0  0  0  0  0  0  0  0  0
   44.5260   35.5720   45.2450 C   0  0  0  0  0  0  0  0  0  0  0  0
   44.3570   35.5680   43.8760 C   0  0  0  0  0  0  0  0  0  0  0  0
   44.8210   34.5380   43.0810 C   0  0  0  0  0  0  0  0  0  0  0  0
   45.4780   33.4660   43.6270 C   0  0  0  0  0  0  0  0  0  0  0  0
   44.5440   34.7030   41.6320 C   0  0  0  0  0  0  0  0  0  0  0  0
   43.2680   34.3820   40.9800 C   0  0  0  0  0  0  0  0  0  0  0  0
   43.4530   35.7790   41.3180 C   0  0  0  0  0  0  0  0  0  0  0  0
   45.7790   32.4160   41.4010 N   0  0  0  0  0  0  0  0  0  0  0  0
   48.1300   33.0520   40.6750 C   0  0  1  0  0  0  0  0  0  0  0  0
   47.1890   33.3980   39.5370 C   0  0  0  0  0  0  0  0  0  0  0  0
   46.9160   32.2760   40.5300 C   0  0  2  0  0  0  0  0  0  0  0  0
   50.8620   31.3960   38.7840 C   0  0  0  0  0  0  0  0  0  0  0  0
   51.8840   31.3190   39.7780 C   0  0  0  0  0  0  0  0  0  0  0  0
   51.6060   31.8460   41.0650 C   0  0  0  0  0  0  0  0  0  0  0  0
   50.4110   32.3930   41.3060 N   0  0  0  0  0  0  0  0  0  0  0  0
   49.4590   32.4530   40.3400 C   0  0  0  0  0  0  0  0  0  0  0  0
   49.6930   31.9560   39.0970 N   0  0  0  0  0  0  0  0  0  0  0  0
   46.9653   30.6009   42.8308 H   0  0  0  0  0  0  0  0  0  0  0  0
   47.3009   30.5447   45.2684 H   0  0  0  0  0  0  0  0  0  0  0  0
   46.4503   32.4008   46.6942 H   0  0  0  0  0  0  0  0  0  0  0  0
   45.3480   34.4411   46.8766 H   0  0  0  0  0  0  0  0  0  0  0  0
   44.1535   36.3957   45.8717 H   0  0  0  0  0  0  0  0  0  0  0  0
   43.8357   36.4126   43.4018 H   0  0  0  0  0  0  0  0  0  0  0  0
   45.5811   34.4338   41.3829 H   0  0  0  0  0  0  0  0  0  0  0  0
   42.5190   33.7923   41.5288 H   0  0  0  0  0  0  0  0  0  0  0  0
   43.0162   33.8662   40.0416 H   0  0  0  0  0  0  0  0  0  0  0  0
   43.6201   36.5241   40.5263 H   0  0  0  0  0  0  0  0  0  0  0  0
   42.8967   36.5302   41.8979 H   0  0  0  0  0  0  0  0  0  0  0  0
   44.8359   32.4749   40.9911 H   0  0  0  0  0  0  0  0  0  0  0  0
   48.5757   33.6055   41.5147 H   0  0  0  0  0  0  0  0  0  0  0  0
   47.4628   33.1686   38.4966 H   0  0  0  0  0  0  0  0  0  0  0  0
   46.6603   34.2970   39.1872 H   0  0  0  0  0  0  0  0  0  0  0  0
   46.7359   31.1917   40.4878 H   0  0  0  0  0  0  0  0  0  0  0  0
   51.0366   30.9986   37.7733 H   0  0  0  0  0  0  0  0  0  0  0  0
   52.8595   30.8638   39.5520 H   0  0  0  0  0  0  0  0  0  0  0  0
   52.3674   31.8048   41.8578 H   0  0  0  0  0  0  0  0  0  0  0  0
  1  2  2  0
  1 10  1  0
  2  3  1  0
  3  4  2  0
  5  4  1  0
  5  6  2  0
  7  6  1  0
  8  7  2  0
  9 10  2  0
  9  8  1  0
 10  5  1  0
 11  9  1  0
 12 13  1  0
 12 11  1  0
 13 11  1  0
 14  1  1  0
 16 17  1  0
 16 15  1  0
 17 15  1  0
 17 14  1  0
 18 23  2  0
 18 19  1  0
 19 20  2  0
 20 21  1  0
 22 15  1  0
 22 21  2  0
 23 22  1  0
  2 24  1  0
  3 25  1  0
  4 26  1  0
  6 27  1  0
  7 28  1  0
  8 29  1  0
 11 30  1  0
 12 31  1  0
 12 32  1  0
 13 33  1  0
 13 34  1  0
 14 35  1  0
 15 36  1  1
 16 37  1  0
 16 38  1  0
 17 39  1  6
 18 40  1  0
 19 41  1  0
 20 42  1  0
M  ISO  8  24  14  25  14  26  14  27  14  28  14  29  14  30  13  31  13
M  ISO  8  32  13  33  13  34  13  36  13  37  13  38  13  39  13  40  14
M  ISO  2  41  14  42  14
M  END
>  <minimizedAffinity>  (1) 
-5.00287199

>  <minimizedRMSD>  (1) 
1.93659532

$$$$
