
     RDKit          3D

 27 29  0  0  0  0  0  0  0  0999 V2000
   45.1390   34.5910   44.6560 C   0  0  0  0  0  0  0  0  0  0  0  0
   45.1640   33.8120   43.5080 C   0  0  0  0  0  0  0  0  0  0  0  0
   45.5000   32.4640   43.5660 C   0  0  0  0  0  0  0  0  0  0  0  0
   45.8010   31.9600   44.8100 N   0  0  0  0  0  0  0  0  0  0  0  0
   45.7770   32.7080   45.9080 C   0  0  0  0  0  0  0  0  0  0  0  0
   45.4480   34.0100   45.8230 N   0  0  0  0  0  0  0  0  0  0  0  0
   46.1010   32.1430   47.2030 C   0  0  0  0  0  0  0  0  0  0  0  0
   47.3730   31.8520   47.5770 C   0  0  0  0  0  0  0  0  0  0  0  0
   47.7470   31.3200   48.7770 C   0  0  0  0  0  0  0  0  0  0  0  0
   46.7230   31.0790   49.6430 N   0  0  0  0  0  0  0  0  0  0  0  0
   45.4610   31.3620   49.2880 C   0  0  0  0  0  0  0  0  0  0  0  0
   45.0960   31.8900   48.0930 N   0  0  0  0  0  0  0  0  0  0  0  0
   44.8270   34.4400   42.2340 C   0  0  0  0  0  0  0  0  0  0  0  0
   43.6300   34.4160   41.8760 O   0  0  0  0  0  0  0  0  0  0  0  0
   45.9140   35.0640   41.4510 C   0  0  0  0  0  0  0  0  0  0  0  0
   47.3210   34.9740   42.0010 C   0  0  0  0  0  0  0  0  0  0  0  0
   46.9000   34.2240   40.7190 C   0  0  0  0  0  0  0  0  0  0  0  0
   44.8726   35.6572   44.6092 H   0  0  0  0  0  0  0  0  0  0  0  0
   45.5239   31.8339   42.6647 H   0  0  0  0  0  0  0  0  0  0  0  0
   48.1713   32.0632   46.8502 H   0  0  0  0  0  0  0  0  0  0  0  0
   48.7960   31.1022   49.0262 H   0  0  0  0  0  0  0  0  0  0  0  0
   44.6654   31.1510   50.0177 H   0  0  0  0  0  0  0  0  0  0  0  0
   45.2458   35.8799   41.1381 H   0  0  0  0  0  0  0  0  0  0  0  0
   47.9967   35.8399   41.9407 H   0  0  0  0  0  0  0  0  0  0  0  0
   47.7745   34.6958   42.9638 H   0  0  0  0  0  0  0  0  0  0  0  0
   46.8042   33.1282   40.7287 H   0  0  0  0  0  0  0  0  0  0  0  0
   47.2708   34.1818   39.6842 H   0  0  0  0  0  0  0  0  0  0  0  0
  1  6  2  0
  2  3  2  0
  2  1  1  0
  3  4  1  0
  4  5  2  0
  5  7  1  0
  6  5  1  0
  7  8  2  0
  7 12  1  0
  8  9  1  0
  9 10  2  0
 11 10  1  0
 12 11  2  0
 13  2  1  0
 14 13  2  0
 15 16  1  0
 15 13  1  0
 17 15  1  0
 17 16  1  0
  1 18  1  0
  3 19  1  0
  8 20  1  0
  9 21  1  0
 11 22  1  0
 15 23  1  0
 16 24  1  0
 16 25  1  0
 17 26  1  0
 17 27  1  0
M  ISO  8  18  14  19  14  20  14  21  14  22  14  23  13  24  13  25  13
M  ISO  2  26  13  27  13
M  END
>  <minimizedAffinity>  (1) 
-4.30402756

>  <minimizedRMSD>  (1) 
1.99463701

$$$$
