
     RDKit          3D

 43 46  0  0  1  0  0  0  0  0999 V2000
   44.5040   35.5250   45.1360 C   0  0  0  0  0  0  0  0  0  0  0  0
   45.1740   35.5140   43.8890 C   0  0  0  0  0  0  0  0  0  0  0  0
   46.1010   34.5600   43.6460 C   0  0  0  0  0  0  0  0  0  0  0  0
   46.3350   33.6560   44.6310 N   0  0  0  0  0  0  0  0  0  0  0  0
   45.7040   33.6720   45.7970 C   0  0  0  0  0  0  0  0  0  0  0  0
   44.7850   34.5990   46.0660 N   0  0  0  0  0  0  0  0  0  0  0  0
   46.0360   32.6660   46.7700 N   0  0  0  0  0  0  0  0  0  0  0  0
   45.2900   32.4160   47.9500 C   0  0  0  0  0  0  0  0  0  0  0  0
   46.3610   32.0880   48.9740 C   0  0  0  0  0  0  0  0  0  0  0  0
   47.6480   31.9830   48.2120 C   0  0  0  0  0  0  0  0  0  0  0  0
   47.1600   31.7630   46.7840 C   0  0  1  0  0  0  0  0  0  0  0  0
   44.8170   36.5380   42.9470 N   0  0  0  0  0  0  0  0  0  0  0  0
   46.6560   30.0670   46.6020 S   0  0  0  0  0  0  0  0  0  0  0  0
   45.7100   30.5720   43.4440 O   0  0  0  0  0  0  0  0  0  0  0  0
   45.0650   30.0130   44.3430 C   0  0  0  0  0  0  0  0  0  0  0  0
   45.1300   29.7690   45.8120 C   0  0  1  0  0  0  0  0  0  0  0  0
   44.6180   28.3570   45.9140 C   0  0  0  0  0  0  0  0  0  0  0  0
   43.3180   28.5540   45.1310 C   0  0  0  0  0  0  0  0  0  0  0  0
   43.8360   29.3390   44.0160 N   0  0  0  0  0  0  0  0  0  0  0  0
   43.1000   29.3650   42.7440 C   0  0  0  0  0  0  0  0  0  0  0  0
   41.6430   29.3130   42.7350 C   0  0  0  0  0  0  0  0  0  0  0  0
   42.3310   30.5660   42.3430 C   0  0  0  0  0  0  0  0  0  0  0  0
   43.7486   36.2971   45.3440 H   0  0  0  0  0  0  0  0  0  0  0  0
   46.6430   34.5183   42.6897 H   0  0  0  0  0  0  0  0  0  0  0  0
   44.7165   33.3054   48.2500 H   0  0  0  0  0  0  0  0  0  0  0  0
   44.5480   31.6130   47.8294 H   0  0  0  0  0  0  0  0  0  0  0  0
   46.4272   32.8877   49.7264 H   0  0  0  0  0  0  0  0  0  0  0  0
   46.1332   31.1536   49.5079 H   0  0  0  0  0  0  0  0  0  0  0  0
   48.2368   32.9085   48.2941 H   0  0  0  0  0  0  0  0  0  0  0  0
   48.3144   31.1881   48.5783 H   0  0  0  0  0  0  0  0  0  0  0  0
   47.8866   31.9420   45.9778 H   0  0  0  0  0  0  0  0  0  0  0  0
   45.2761   36.5729   42.0256 H   0  0  0  0  0  0  0  0  0  0  0  0
   44.1019   37.2374   43.1929 H   0  0  0  0  0  0  0  0  0  0  0  0
   44.5338   30.5013   46.3761 H   0  0  0  0  0  0  0  0  0  0  0  0
   45.2908   27.6325   45.4318 H   0  0  0  0  0  0  0  0  0  0  0  0
   44.5159   27.9494   46.9306 H   0  0  0  0  0  0  0  0  0  0  0  0
   42.8892   27.5976   44.7973 H   0  0  0  0  0  0  0  0  0  0  0  0
   42.4946   29.0189   45.6930 H   0  0  0  0  0  0  0  0  0  0  0  0
   43.9005   28.7693   42.2811 H   0  0  0  0  0  0  0  0  0  0  0  0
   41.1201   28.7135   41.9753 H   0  0  0  0  0  0  0  0  0  0  0  0
   40.8724   29.0510   43.4750 H   0  0  0  0  0  0  0  0  0  0  0  0
   42.3261   30.8943   41.2932 H   0  0  0  0  0  0  0  0  0  0  0  0
   42.2920   31.6164   42.6674 H   0  0  0  0  0  0  0  0  0  0  0  0
  1  6  2  0
  2  1  1  0
  3  2  2  0
  3  4  1  0
  4  5  2  0
  5  6  1  0
  5  7  1  0
  7 11  1  0
  7  8  1  0
  8  9  1  0
 10  9  1  0
 11 10  1  0
 12  2  1  0
 13 11  1  0
 14 15  2  0
 15 16  1  0
 16 17  1  0
 16 13  1  0
 18 17  1  0
 19 15  1  0
 19 18  1  0
 20 19  1  0
 21 20  1  0
 22 21  1  0
 22 20  1  0
  1 23  1  0
  3 24  1  0
  8 25  1  0
  8 26  1  0
  9 27  1  0
  9 28  1  0
 10 29  1  0
 10 30  1  0
 11 31  1  6
 12 32  1  0
 12 33  1  0
 16 34  1  1
 17 35  1  0
 17 36  1  0
 18 37  1  0
 18 38  1  0
 20 39  1  0
 21 40  1  0
 21 41  1  0
 22 42  1  0
 22 43  1  0
M  ISO  8  23  14  24  14  25  13  26  13  27  13  28  13  29  13  30  13
M  ISO  8  31  13  34  13  35  13  36  13  37  13  38  13  39  13  40  13
M  ISO  3  41  13  42  13  43  13
M  END
>  <minimizedAffinity>  (1) 
-5.1425271

>  <minimizedRMSD>  (1) 
0.0983855724

$$$$
