
     RDKit          3D

 29 30  0  0  0  0  0  0  0  0999 V2000
   43.3330   35.4400   41.6320 C   0  0  0  0  0  0  0  0  0  0  0  0
   43.3090   35.5870   43.0970 N   0  0  0  0  0  0  0  0  0  0  0  0
   44.8790   35.9240   43.7190 S   0  0  0  0  0  0  0  0  0  0  0  0
   45.9410   35.6670   42.7080 O   0  0  0  0  0  0  0  0  0  0  0  0
   44.8670   37.3850   44.1080 O   0  0  0  0  0  0  0  0  0  0  0  0
   45.1150   35.0700   45.1350 O   0  0  0  0  0  0  0  0  0  0  0  0
   45.3940   33.7360   44.9320 C   0  0  0  0  0  0  0  0  0  0  0  0
   45.9780   33.0350   46.1400 C   0  0  0  0  0  0  0  0  0  0  0  0
   46.8290   33.2890   44.9430 C   0  0  0  0  0  0  0  0  0  0  0  0
   42.7680   33.7960   41.2330 S   0  0  0  0  0  0  0  0  0  0  0  0
   40.0830   33.0870   41.3010 C   0  0  0  0  0  0  0  0  0  0  0  0
   41.0460   33.8650   40.6710 C   0  0  0  0  0  0  0  0  0  0  0  0
   40.7160   34.7020   39.6130 C   0  0  0  0  0  0  0  0  0  0  0  0
   39.3980   34.7170   39.2270 N   0  0  0  0  0  0  0  0  0  0  0  0
   38.5150   33.9500   39.8660 C   0  0  0  0  0  0  0  0  0  0  0  0
   38.7980   33.1480   40.8710 N   0  0  0  0  0  0  0  0  0  0  0  0
   42.6680   36.1853   41.1712 H   0  0  0  0  0  0  0  0  0  0  0  0
   44.3522   35.5970   41.2491 H   0  0  0  0  0  0  0  0  0  0  0  0
   42.6764   36.3608   43.3461 H   0  0  0  0  0  0  0  0  0  0  0  0
   46.7925   35.4609   43.1690 H   0  0  0  0  0  0  0  0  0  0  0  0
   44.8664   37.4637   45.0949 H   0  0  0  0  0  0  0  0  0  0  0  0
   44.5587   33.5836   44.2327 H   0  0  0  0  0  0  0  0  0  0  0  0
   46.1547   33.5962   47.0694 H   0  0  0  0  0  0  0  0  0  0  0  0
   45.7090   32.1453   46.7282 H   0  0  0  0  0  0  0  0  0  0  0  0
   47.1460   32.4487   44.3078 H   0  0  0  0  0  0  0  0  0  0  0  0
   47.7952   33.7863   44.7725 H   0  0  0  0  0  0  0  0  0  0  0  0
   40.3592   32.4294   42.1385 H   0  0  0  0  0  0  0  0  0  0  0  0
   41.4724   35.3219   39.1094 H   0  0  0  0  0  0  0  0  0  0  0  0
   37.4691   33.9901   39.5276 H   0  0  0  0  0  0  0  0  0  0  0  0
  1  2  1  0
  2  3  1  0
  3  5  1  0
  3  6  1  0
  4  3  1  0
  7  9  1  0
  7  6  1  0
  7  8  1  0
  9  8  1  0
 10  1  1  0
 12 10  1  0
 12 11  2  0
 13 12  1  0
 14 13  2  0
 14 15  1  0
 15 16  2  0
 16 11  1  0
  1 17  1  0
  1 18  1  0
  2 19  1  0
  4 20  1  0
  5 21  1  0
  7 22  1  0
  8 23  1  0
  8 24  1  0
  9 25  1  0
  9 26  1  0
 11 27  1  0
 13 28  1  0
 15 29  1  0
M  ISO  8  17   8  18   8  19   5  20   3  21   3  22  13  23  13  24  13
M  ISO  5  25  13  26  13  27  14  28  14  29  14
M  END
>  <minimizedAffinity>  (1) 
-4.70260382

>  <minimizedRMSD>  (1) 
1.2718066

$$$$
