
     RDKit          3D

 31 33  0  0  0  0  0  0  0  0999 V2000
   43.3680   35.5070   40.8300 C   0  0  0  0  0  0  0  0  0  0  0  0
   42.0080   35.0550   40.6350 N   0  0  0  0  0  0  0  0  0  0  0  0
   41.1250   35.1370   41.6200 C   0  0  0  0  0  0  0  0  0  0  0  0
   39.8340   34.6830   41.3670 C   0  0  0  0  0  0  0  0  0  0  0  0
   39.4750   34.1680   40.1490 C   0  0  0  0  0  0  0  0  0  0  0  0
   38.3040   33.7750   39.9770 O   0  0  0  0  0  0  0  0  0  0  0  0
   40.4000   34.1000   39.1720 N   0  0  0  0  0  0  0  0  0  0  0  0
   41.6600   34.5380   39.4030 C   0  0  0  0  0  0  0  0  0  0  0  0
   42.4730   34.4450   38.4430 O   0  0  0  0  0  0  0  0  0  0  0  0
   44.5770   35.3620   42.9550 C   0  0  0  0  0  0  0  0  0  0  0  0
   43.9870   34.6850   41.8760 C   0  0  0  0  0  0  0  0  0  0  0  0
   44.0500   33.3150   41.9050 C   0  0  0  0  0  0  0  0  0  0  0  0
   44.6560   32.6890   42.9310 N   0  0  0  0  0  0  0  0  0  0  0  0
   45.2090   33.3990   43.9470 C   0  0  0  0  0  0  0  0  0  0  0  0
   45.1860   34.7600   43.9880 N   0  0  0  0  0  0  0  0  0  0  0  0
   45.8370   32.7540   45.0070 O   0  0  0  0  0  0  0  0  0  0  0  0
   46.0990   33.3320   46.2450 C   0  0  0  0  0  0  0  0  0  0  0  0
   46.9800   32.4720   47.1640 C   0  0  0  0  0  0  0  0  0  0  0  0
   45.5380   32.6240   47.4800 C   0  0  0  0  0  0  0  0  0  0  0  0
   43.3673   36.5625   41.1396 H   0  0  0  0  0  0  0  0  0  0  0  0
   43.9346   35.4122   39.8919 H   0  0  0  0  0  0  0  0  0  0  0  0
   41.4024   35.5488   42.6015 H   0  0  0  0  0  0  0  0  0  0  0  0
   39.0810   34.7391   42.1669 H   0  0  0  0  0  0  0  0  0  0  0  0
   40.1489   33.7152   38.2502 H   0  0  0  0  0  0  0  0  0  0  0  0
   44.5373   36.4613   42.9535 H   0  0  0  0  0  0  0  0  0  0  0  0
   43.6047   32.7272   41.0888 H   0  0  0  0  0  0  0  0  0  0  0  0
   46.0857   34.3674   45.8739 H   0  0  0  0  0  0  0  0  0  0  0  0
   47.3634   31.5048   46.8069 H   0  0  0  0  0  0  0  0  0  0  0  0
   47.9147   32.6416   47.7185 H   0  0  0  0  0  0  0  0  0  0  0  0
   45.2297   33.2144   48.3554 H   0  0  0  0  0  0  0  0  0  0  0  0
   44.7097   31.9218   47.6555 H   0  0  0  0  0  0  0  0  0  0  0  0
  1 11  1  0
  2  1  1  0
  2  3  1  0
  4  3  2  0
  5  4  1  0
  6  5  2  0
  7  8  1  0
  7  5  1  0
  8  2  1  0
  9  8  2  0
 10 15  2  0
 11 12  2  0
 11 10  1  0
 12 13  1  0
 13 14  2  0
 14 15  1  0
 14 16  1  0
 16 17  1  0
 17 18  1  0
 17 19  1  0
 18 19  1  0
  1 20  1  0
  1 21  1  0
  3 22  1  0
  4 23  1  0
  7 24  1  0
 10 25  1  0
 12 26  1  0
 17 27  1  0
 18 28  1  0
 18 29  1  0
 19 30  1  0
 19 31  1  0
M  ISO  8  20   8  21   8  22  14  23  14  24   9  25  14  26  14  27  13
M  ISO  4  28  13  29  13  30  13  31  13
M  END
>  <minimizedAffinity>  (1) 
-4.82429552

>  <minimizedRMSD>  (1) 
1.43299973

$$$$
