
     RDKit          3D

 33 36  0  0  0  0  0  0  0  0999 V2000
   46.0500   31.7020   45.1520 C   0  0  0  0  0  0  0  0  0  0  0  0
   45.8000   33.0160   45.5480 C   0  0  0  0  0  0  0  0  0  0  0  0
   45.5190   33.2780   46.8640 C   0  0  0  0  0  0  0  0  0  0  0  0
   45.4870   32.2480   47.7770 C   0  0  0  0  0  0  0  0  0  0  0  0
   45.2480   32.1980   49.0950 N   0  0  0  0  0  0  0  0  0  0  0  0
   45.3310   30.9370   49.5520 C   0  0  0  0  0  0  0  0  0  0  0  0
   45.6410   30.1130   48.4840 C   0  0  0  0  0  0  0  0  0  0  0  0
   45.7350   30.9410   47.3820 C   0  0  0  0  0  0  0  0  0  0  0  0
   46.0180   30.6680   46.0630 C   0  0  0  0  0  0  0  0  0  0  0  0
   46.9240   34.9530   42.6680 C   0  0  0  0  0  0  0  0  0  0  0  0
   45.9890   35.9770   42.5690 C   0  0  0  0  0  0  0  0  0  0  0  0
   44.9530   36.0050   43.5070 C   0  0  0  0  0  0  0  0  0  0  0  0
   44.9120   35.0370   44.4620 N   0  0  0  0  0  0  0  0  0  0  0  0
   45.8530   34.0520   44.5180 C   0  0  0  0  0  0  0  0  0  0  0  0
   46.8590   34.0150   43.6160 N   0  0  0  0  0  0  0  0  0  0  0  0
   47.9530   35.0010   41.6640 C   0  0  0  0  0  0  0  0  0  0  0  0
   48.8640   35.9010   41.5730 O   0  0  0  0  0  0  0  0  0  0  0  0
   48.0930   33.9850   40.5740 C   0  0  0  0  0  0  0  0  0  0  0  0
   48.1450   34.3810   39.1540 C   0  0  0  0  0  0  0  0  0  0  0  0
   46.9120   33.6340   39.7470 C   0  0  0  0  0  0  0  0  0  0  0  0
   46.2760   31.4878   44.0970 H   0  0  0  0  0  0  0  0  0  0  0  0
   45.3194   34.3095   47.1899 H   0  0  0  0  0  0  0  0  0  0  0  0
   45.0297   33.0173   49.6798 H   0  0  0  0  0  0  0  0  0  0  0  0
   45.1791   30.6158   50.5930 H   0  0  0  0  0  0  0  0  0  0  0  0
   45.7833   29.0225   48.5077 H   0  0  0  0  0  0  0  0  0  0  0  0
   46.2165   29.6356   45.7393 H   0  0  0  0  0  0  0  0  0  0  0  0
   46.0620   36.7393   41.7793 H   0  0  0  0  0  0  0  0  0  0  0  0
   44.1867   36.7935   43.4736 H   0  0  0  0  0  0  0  0  0  0  0  0
   48.7817   33.4120   41.2123 H   0  0  0  0  0  0  0  0  0  0  0  0
   48.8241   33.8650   38.4593 H   0  0  0  0  0  0  0  0  0  0  0  0
   48.3062   35.3203   38.6047 H   0  0  0  0  0  0  0  0  0  0  0  0
   45.9576   34.1623   39.8887 H   0  0  0  0  0  0  0  0  0  0  0  0
   46.3582   32.7132   39.5116 H   0  0  0  0  0  0  0  0  0  0  0  0
  1  2  2  0
  1  9  1  0
  2  3  1  0
  3  4  2  0
  4  5  1  0
  5  6  1  0
  7  6  2  0
  8  4  1  0
  8  7  1  0
  9  8  2  0
 10 15  1  0
 11 10  2  0
 11 12  1  0
 12 13  2  0
 13 14  1  0
 14  2  1  0
 15 14  2  0
 16 10  1  0
 17 16  2  0
 18 16  1  0
 19 20  1  0
 19 18  1  0
 20 18  1  0
  1 21  1  0
  3 22  1  0
  5 23  1  0
  6 24  1  0
  7 25  1  0
  9 26  1  0
 11 27  1  0
 12 28  1  0
 18 29  1  0
 19 30  1  0
 19 31  1  0
 20 32  1  0
 20 33  1  0
M  ISO  8  21  14  22  14  23   9  24  14  25  14  26  14  27  14  28  14
M  ISO  5  29  13  30  13  31  13  32  13  33  13
M  END
>  <minimizedAffinity>  (1) 
-5.83981419

>  <minimizedRMSD>  (1) 
0.273982346

$$$$
