
     RDKit          3D

 34 37  0  0  0  0  0  0  0  0999 V2000
   45.3070   33.3170   41.0760 F   0  0  0  0  0  0  0  0  0  0  0  0
   46.4700   34.0050   40.9450 C   0  0  0  0  0  0  0  0  0  0  0  0
   46.9350   34.8070   41.9610 C   0  0  0  0  0  0  0  0  0  0  0  0
   48.1280   35.4650   41.7300 C   0  0  0  0  0  0  0  0  0  0  0  0
   48.8470   35.3610   40.5770 C   0  0  0  0  0  0  0  0  0  0  0  0
   48.3320   34.5420   39.5930 C   0  0  0  0  0  0  0  0  0  0  0  0
   47.1450   33.8590   39.7650 C   0  0  0  0  0  0  0  0  0  0  0  0
   44.4840   35.9830   44.6030 C   0  0  0  0  0  0  0  0  0  0  0  0
   45.2240   35.9270   43.4060 C   0  0  0  0  0  0  0  0  0  0  0  0
   46.1540   34.9030   43.1780 C   0  0  0  0  0  0  0  0  0  0  0  0
   46.2860   33.9830   44.1840 N   0  0  0  0  0  0  0  0  0  0  0  0
   45.5620   34.0620   45.3250 C   0  0  0  0  0  0  0  0  0  0  0  0
   44.6760   35.0490   45.5260 N   0  0  0  0  0  0  0  0  0  0  0  0
   46.6180   32.9980   38.7140 C   0  0  0  0  0  0  0  0  0  0  0  0
   46.3670   31.6460   38.7960 C   0  0  0  0  0  0  0  0  0  0  0  0
   45.8720   31.2190   37.5730 C   0  0  0  0  0  0  0  0  0  0  0  0
   45.8400   32.3250   36.7910 N   0  0  0  0  0  0  0  0  0  0  0  0
   46.2810   33.3980   37.4530 N   0  0  0  0  0  0  0  0  0  0  0  0
   45.3910   32.3760   35.4090 C   0  0  0  0  0  0  0  0  0  0  0  0
   46.4270   31.9450   34.3370 C   0  0  0  0  0  0  0  0  0  0  0  0
   45.1910   31.1470   34.6340 C   0  0  0  0  0  0  0  0  0  0  0  0
   48.5219   36.1133   42.5266 H   0  0  0  0  0  0  0  0  0  0  0  0
   49.7932   35.9043   40.4373 H   0  0  0  0  0  0  0  0  0  0  0  0
   48.8818   34.4306   38.6468 H   0  0  0  0  0  0  0  0  0  0  0  0
   43.7562   36.7906   44.7707 H   0  0  0  0  0  0  0  0  0  0  0  0
   45.0698   36.6990   42.6377 H   0  0  0  0  0  0  0  0  0  0  0  0
   45.7034   33.2995   46.1051 H   0  0  0  0  0  0  0  0  0  0  0  0
   46.5312   31.0131   39.6806 H   0  0  0  0  0  0  0  0  0  0  0  0
   45.5694   30.1983   37.2963 H   0  0  0  0  0  0  0  0  0  0  0  0
   44.7537   33.2491   35.6129 H   0  0  0  0  0  0  0  0  0  0  0  0
   47.4170   31.5713   34.6375 H   0  0  0  0  0  0  0  0  0  0  0  0
   46.8809   32.4009   33.4448 H   0  0  0  0  0  0  0  0  0  0  0  0
   44.3833   31.1024   33.8886 H   0  0  0  0  0  0  0  0  0  0  0  0
   45.0128   30.0968   34.9083 H   0  0  0  0  0  0  0  0  0  0  0  0
  2  1  1  0
  2  3  2  0
  3 10  1  0
  4  3  1  0
  5  4  2  0
  6  7  2  0
  6  5  1  0
  7  2  1  0
  8 13  2  0
  9  8  1  0
 10  9  2  0
 10 11  1  0
 11 12  2  0
 12 13  1  0
 14 15  1  0
 14  7  1  0
 16 15  2  0
 17 18  1  0
 17 16  1  0
 18 14  2  0
 19 17  1  0
 20 21  1  0
 20 19  1  0
 21 19  1  0
  4 22  1  0
  5 23  1  0
  6 24  1  0
  8 25  1  0
  9 26  1  0
 12 27  1  0
 15 28  1  0
 16 29  1  0
 19 30  1  0
 20 31  1  0
 20 32  1  0
 21 33  1  0
 21 34  1  0
M  ISO  8  22  14  23  14  24  14  25  14  26  14  27  14  28  14  29  14
M  ISO  5  30  13  31  13  32  13  33  13  34  13
M  END
>  <minimizedAffinity>  (1) 
-5.66083908

>  <minimizedRMSD>  (1) 
1.02853465

$$$$
