
     RDKit          3D

 21 22  0  0  0  0  0  0  0  0999 V2000
   44.5580   35.9030   44.3320 C   0  0  0  0  0  0  0  0  0  0  0  0
   45.3940   35.9640   43.1880 C   0  0  0  0  0  0  0  0  0  0  0  0
   46.3980   35.0000   43.0610 C   0  0  0  0  0  0  0  0  0  0  0  0
   46.5290   34.0650   44.0180 N   0  0  0  0  0  0  0  0  0  0  0  0
   45.7260   34.0140   45.1070 C   0  0  0  0  0  0  0  0  0  0  0  0
   44.7490   34.9320   45.2550 N   0  0  0  0  0  0  0  0  0  0  0  0
   46.9710   34.2470   40.7570 C   0  0  0  0  0  0  0  0  0  0  0  0
   45.8660   33.6180   40.8080 O   0  0  0  0  0  0  0  0  0  0  0  0
   47.2590   35.0170   41.9380 N   0  0  0  0  0  0  0  0  0  0  0  0
   47.9490   34.2570   39.6390 C   0  0  0  0  0  0  0  0  0  0  0  0
   48.5010   32.9640   39.1060 C   0  0  0  0  0  0  0  0  0  0  0  0
   47.4150   33.6270   38.3310 C   0  0  0  0  0  0  0  0  0  0  0  0
   43.7560   36.6434   44.4687 H   0  0  0  0  0  0  0  0  0  0  0  0
   45.2567   36.7447   42.4254 H   0  0  0  0  0  0  0  0  0  0  0  0
   45.8693   33.2300   45.8651 H   0  0  0  0  0  0  0  0  0  0  0  0
   48.1117   35.5940   41.9667 H   0  0  0  0  0  0  0  0  0  0  0  0
   48.4180   35.1958   39.9687 H   0  0  0  0  0  0  0  0  0  0  0  0
   49.5218   32.9361   38.6970 H   0  0  0  0  0  0  0  0  0  0  0  0
   48.6333   31.9572   39.5289 H   0  0  0  0  0  0  0  0  0  0  0  0
   47.6367   34.0969   37.3615 H   0  0  0  0  0  0  0  0  0  0  0  0
   46.4261   33.3251   37.9555 H   0  0  0  0  0  0  0  0  0  0  0  0
  1  6  2  0
  2  1  1  0
  3  2  2  0
  3  4  1  0
  4  5  2  0
  5  6  1  0
  7  8  2  0
  7  9  1  0
  9  3  1  0
 10  7  1  0
 11 10  1  0
 12 11  1  0
 12 10  1  0
  1 13  1  0
  2 14  1  0
  5 15  1  0
  9 16  1  0
 10 17  1  0
 11 18  1  0
 11 19  1  0
 12 20  1  0
 12 21  1  0
M  ISO  8  13  14  14  14  15  14  17  13  18  13  19  13  20  13  21  13
M  END
>  <minimizedAffinity>  (1) 
-3.84381151

>  <minimizedRMSD>  (1) 
0.498957217

$$$$
