
     RDKit          3D

 23 24  0  0  0  0  0  0  0  0999 V2000
   44.6980   36.1380   44.4410 C   0  0  0  0  0  0  0  0  0  0  0  0
   44.8890   36.0010   43.0550 C   0  0  0  0  0  0  0  0  0  0  0  0
   45.2910   34.7560   42.5880 C   0  0  0  0  0  0  0  0  0  0  0  0
   45.4780   33.7440   43.4700 N   0  0  0  0  0  0  0  0  0  0  0  0
   45.2870   33.9060   44.7890 C   0  0  0  0  0  0  0  0  0  0  0  0
   44.8950   35.1020   45.2870 N   0  0  0  0  0  0  0  0  0  0  0  0
   45.4810   34.6260   41.2100 O   0  0  0  0  0  0  0  0  0  0  0  0
   46.1520   32.1610   40.5410 O   0  0  0  0  0  0  0  0  0  0  0  0
   46.7090   33.5850   40.6370 P   0  0  1  0  0  0  0  0  0  0  0  0
   47.2560   34.1320   39.1600 O   0  0  0  0  0  0  0  0  0  0  0  0
   47.9490   33.5450   41.8060 O   0  0  0  0  0  0  0  0  0  0  0  0
   49.0420   34.3130   41.3810 C   0  0  0  0  0  0  0  0  0  0  0  0
   48.8930   35.7840   41.6690 C   0  0  0  0  0  0  0  0  0  0  0  0
   49.8790   34.9860   42.4390 C   0  0  0  0  0  0  0  0  0  0  0  0
   44.3811   37.1102   44.8464 H   0  0  0  0  0  0  0  0  0  0  0  0
   44.7268   36.8450   42.3685 H   0  0  0  0  0  0  0  0  0  0  0  0
   45.4506   33.0589   45.4713 H   0  0  0  0  0  0  0  0  0  0  0  0
   47.9489   34.8249   39.3007 H   0  0  0  0  0  0  0  0  0  0  0  0
   49.2765   33.6784   40.5136 H   0  0  0  0  0  0  0  0  0  0  0  0
   49.2410   36.5248   40.9341 H   0  0  0  0  0  0  0  0  0  0  0  0
   48.0508   36.4399   41.9345 H   0  0  0  0  0  0  0  0  0  0  0  0
   49.6985   34.7684   43.5021 H   0  0  0  0  0  0  0  0  0  0  0  0
   50.9578   35.0690   42.6372 H   0  0  0  0  0  0  0  0  0  0  0  0
  1  6  2  0
  2  1  1  0
  3  2  2  0
  3  4  1  0
  4  5  2  0
  5  6  1  0
  7  3  1  0
  9  8  2  0
  9  7  1  0
  9 11  1  0
 10  9  1  0
 12 13  1  0
 12 11  1  0
 12 14  1  0
 13 14  1  0
  1 15  1  0
  2 16  1  0
  5 17  1  0
 10 18  1  0
 12 19  1  0
 13 20  1  0
 13 21  1  0
 14 22  1  0
 14 23  1  0
M  ISO  8  15  14  16  14  17  14  18   3  19  13  20  13  21  13  22  13
M  ISO  1  23  13
M  END
>  <minimizedAffinity>  (1) 
-4.21998358

>  <minimizedRMSD>  (1) 
1.9763552

$$$$
