
     RDKit          3D

 42 44  0  0  0  0  0  0  0  0999 V2000
   47.4620   34.2170   40.5000 C   0  0  0  0  0  0  0  0  0  0  0  0
   48.7180   33.5050   40.8200 C   0  0  0  0  0  0  0  0  0  0  0  0
   49.0860   32.4730   39.9630 C   0  0  0  0  0  0  0  0  0  0  0  0
   50.2380   31.7500   40.1760 C   0  0  0  0  0  0  0  0  0  0  0  0
   51.0020   32.0930   41.2640 N   0  0  0  0  0  0  0  0  0  0  0  0
   50.6110   33.1090   42.0790 C   0  0  0  0  0  0  0  0  0  0  0  0
   49.4910   33.7840   41.8410 N   0  0  0  0  0  0  0  0  0  0  0  0
   48.0430   32.0590   38.5420 S   0  0  0  0  0  0  0  0  0  0  0  0
   48.5670   32.9970   37.1030 C   0  0  0  0  0  0  0  0  0  0  0  0
   47.7820   32.5330   35.8970 C   0  0  0  0  0  0  0  0  0  0  0  0
   48.6950   32.7240   34.6970 C   0  0  0  0  0  0  0  0  0  0  0  0
   48.0600   32.4280   33.3470 C   0  0  0  0  0  0  0  0  0  0  0  0
   49.1820   31.5910   33.9110 C   0  0  0  0  0  0  0  0  0  0  0  0
   46.8030   34.8150   41.6900 C   0  0  0  0  0  0  0  0  0  0  0  0
   45.3130   34.8530   41.5930 C   0  0  0  0  0  0  0  0  0  0  0  0
   44.5510   35.5500   42.5710 C   0  0  0  0  0  0  0  0  0  0  0  0
   42.8210   35.2980   42.0070 S   0  0  0  0  0  0  0  0  0  0  0  0
   43.4170   34.2800   40.5240 C   0  0  0  0  0  0  0  0  0  0  0  0
   44.5510   34.3100   40.6890 N   0  0  0  0  0  0  0  0  0  0  0  0
   42.5470   33.7250   39.5910 O   0  0  0  0  0  0  0  0  0  0  0  0
   40.6360   34.0340   37.7780 O   0  0  0  0  0  0  0  0  0  0  0  0
   41.6620   34.7900   38.6140 P   0  0  0  0  0  0  0  0  0  0  0  0
   40.8360   35.8590   39.6420 O   0  0  0  0  0  0  0  0  0  0  0  0
   42.7240   35.6970   37.6400 O   0  0  0  0  0  0  0  0  0  0  0  0
   47.6898   35.0223   39.7861 H   0  0  0  0  0  0  0  0  0  0  0  0
   46.7657   33.4752   40.0817 H   0  0  0  0  0  0  0  0  0  0  0  0
   50.5339   30.9319   39.5028 H   0  0  0  0  0  0  0  0  0  0  0  0
   51.2306   33.3761   42.9478 H   0  0  0  0  0  0  0  0  0  0  0  0
   48.3813   34.0677   37.2737 H   0  0  0  0  0  0  0  0  0  0  0  0
   49.6416   32.8389   36.9289 H   0  0  0  0  0  0  0  0  0  0  0  0
   47.5100   31.4726   36.0041 H   0  0  0  0  0  0  0  0  0  0  0  0
   46.8475   33.1022   35.7840 H   0  0  0  0  0  0  0  0  0  0  0  0
   49.2186   33.5607   35.1826 H   0  0  0  0  0  0  0  0  0  0  0  0
   48.2394   33.0938   32.4900 H   0  0  0  0  0  0  0  0  0  0  0  0
   47.0417   32.2393   32.9761 H   0  0  0  0  0  0  0  0  0  0  0  0
   48.9796   30.5644   34.2502 H   0  0  0  0  0  0  0  0  0  0  0  0
   50.1702   31.2805   33.5409 H   0  0  0  0  0  0  0  0  0  0  0  0
   47.0788   34.2223   42.5747 H   0  0  0  0  0  0  0  0  0  0  0  0
   47.1482   35.8571   41.7600 H   0  0  0  0  0  0  0  0  0  0  0  0
   44.9100   36.1046   43.4505 H   0  0  0  0  0  0  0  0  0  0  0  0
   41.0210   35.6195   40.5846 H   0  0  0  0  0  0  0  0  0  0  0  0
   43.3358   36.2195   38.2168 H   0  0  0  0  0  0  0  0  0  0  0  0
  1  2  1  0
  1 14  1  0
  2  7  2  0
  3  4  2  0
  3  2  1  0
  4  5  1  0
  5  6  2  0
  7  6  1  0
  8  3  1  0
  9  8  1  0
 10  9  1  0
 11 10  1  0
 12 13  1  0
 12 11  1  0
 13 11  1  0
 15 14  1  0
 15 16  2  0
 17 16  1  0
 18 19  2  0
 18 17  1  0
 19 15  1  0
 20 18  1  0
 21 22  2  0
 22 20  1  0
 22 23  1  0
 24 22  1  0
  1 25  1  0
  1 26  1  0
  4 27  1  0
  6 28  1  0
  9 29  1  0
  9 30  1  0
 10 31  1  0
 10 32  1  0
 11 33  1  0
 12 34  1  0
 12 35  1  0
 13 36  1  0
 13 37  1  0
 14 38  1  0
 14 39  1  0
 16 40  1  0
 23 41  1  0
 24 42  1  0
M  ISO  8  25   8  26   8  27  14  28  14  29   8  30   8  31   8  32   8
M  ISO  8  33  13  34  13  35  13  36  13  37  13  38   8  39   8  40  14
M  ISO  2  41   3  42   3
M  END
>  <minimizedAffinity>  (1) 
-4.58272219

>  <minimizedRMSD>  (1) 
1.14742231

$$$$
