
     RDKit          3D

 26 28  0  0  1  0  0  0  0  0999 V2000
   48.1220   34.5160   42.0590 C   0  0  1  0  0  0  0  0  0  0  0  0
   48.9070   35.7120   41.6090 C   0  0  0  0  0  0  0  0  0  0  0  0
   49.4900   34.6570   42.5720 C   0  0  2  0  0  0  0  0  0  0  0  0
   45.7340   34.0430   44.8620 C   0  0  0  0  0  0  0  0  0  0  0  0
   44.7930   35.1020   44.6060 C   0  0  0  0  0  0  0  0  0  0  0  0
   45.0210   35.9490   43.4770 C   0  0  0  0  0  0  0  0  0  0  0  0
   46.0910   35.7290   42.7060 N   0  0  0  0  0  0  0  0  0  0  0  0
   46.9650   34.7140   42.9800 C   0  0  0  0  0  0  0  0  0  0  0  0
   46.7810   33.8840   44.0480 N   0  0  0  0  0  0  0  0  0  0  0  0
   50.5970   33.9150   42.0720 N   0  0  0  0  0  0  0  0  0  0  0  0
   50.2110   32.5200   41.9280 C   0  0  0  0  0  0  0  0  0  0  0  0
   50.3450   31.8250   40.6460 C   0  0  0  0  0  0  0  0  0  0  0  0
   51.2690   31.4700   41.8040 C   0  0  0  0  0  0  0  0  0  0  0  0
   47.5878   33.7097   41.5352 H   0  0  0  0  0  0  0  0  0  0  0  0
   49.2708   35.7811   40.5732 H   0  0  0  0  0  0  0  0  0  0  0  0
   48.7646   36.8027   41.6224 H   0  0  0  0  0  0  0  0  0  0  0  0
   49.8995   34.6059   43.5916 H   0  0  0  0  0  0  0  0  0  0  0  0
   45.5920   33.3704   45.7208 H   0  0  0  0  0  0  0  0  0  0  0  0
   43.9226   35.2553   45.2609 H   0  0  0  0  0  0  0  0  0  0  0  0
   44.3261   36.7699   43.2460 H   0  0  0  0  0  0  0  0  0  0  0  0
   50.8782   34.2912   41.1553 H   0  0  0  0  0  0  0  0  0  0  0  0
   49.3658   32.6928   42.6105 H   0  0  0  0  0  0  0  0  0  0  0  0
   50.7416   32.3590   39.7699 H   0  0  0  0  0  0  0  0  0  0  0  0
   49.6638   31.2594   39.9932 H   0  0  0  0  0  0  0  0  0  0  0  0
   51.1606   30.5079   42.3262 H   0  0  0  0  0  0  0  0  0  0  0  0
   52.3569   31.4235   41.9600 H   0  0  0  0  0  0  0  0  0  0  0  0
  1  3  1  0
  1  8  1  0
  2  1  1  0
  2  3  1  0
  5  4  2  0
  6  5  1  0
  7  8  1  0
  7  6  2  0
  8  9  2  0
  9  4  1  0
 10  3  1  0
 11 10  1  0
 12 13  1  0
 12 11  1  0
 13 11  1  0
  1 14  1  6
  2 15  1  0
  2 16  1  0
  3 17  1  1
  4 18  1  0
  5 19  1  0
  6 20  1  0
 10 21  1  0
 11 22  1  0
 12 23  1  0
 12 24  1  0
 13 25  1  0
 13 26  1  0
M  ISO  8  14  13  15  13  16  13  17  13  18  14  19  14  20  14  21   5
M  ISO  5  22  13  23  13  24  13  25  13  26  13
M  END
>  <minimizedAffinity>  (1) 
-4.20703793

>  <minimizedRMSD>  (1) 
6.48150873

$$$$
