
     RDKit          3D

 27 29  0  0  0  0  0  0  0  0999 V2000
   43.7190   33.1350   41.3000 Cl  0  0  0  0  0  0  0  0  0  0  0  0
   45.3310   33.6070   40.8420 C   0  0  0  0  0  0  0  0  0  0  0  0
   46.1460   34.2850   41.6940 C   0  0  0  0  0  0  0  0  0  0  0  0
   47.3930   34.6070   41.2300 C   0  0  0  0  0  0  0  0  0  0  0  0
   47.8290   34.2820   39.9900 C   0  0  0  0  0  0  0  0  0  0  0  0
   47.0020   33.5920   39.1240 C   0  0  0  0  0  0  0  0  0  0  0  0
   45.7420   33.2590   39.5720 C   0  0  0  0  0  0  0  0  0  0  0  0
   44.4920   36.0920   44.5870 C   0  0  0  0  0  0  0  0  0  0  0  0
   44.9590   35.8110   43.2840 C   0  0  0  0  0  0  0  0  0  0  0  0
   45.6450   34.6200   43.0220 C   0  0  0  0  0  0  0  0  0  0  0  0
   45.8140   33.7970   44.0750 N   0  0  0  0  0  0  0  0  0  0  0  0
   45.3650   34.0760   45.3070 C   0  0  0  0  0  0  0  0  0  0  0  0
   44.7070   35.2160   45.5640 N   0  0  0  0  0  0  0  0  0  0  0  0
   48.3150   35.3510   42.1340 C   0  0  0  0  0  0  0  0  0  0  0  0
   49.3650   36.2410   41.5440 C   0  0  0  0  0  0  0  0  0  0  0  0
   49.7310   34.9400   42.2830 C   0  0  0  0  0  0  0  0  0  0  0  0
   48.8425   34.5675   39.6716 H   0  0  0  0  0  0  0  0  0  0  0  0
   47.3376   33.3183   38.1128 H   0  0  0  0  0  0  0  0  0  0  0  0
   45.0566   32.7098   38.9097 H   0  0  0  0  0  0  0  0  0  0  0  0
   43.9540   37.0293   44.7922 H   0  0  0  0  0  0  0  0  0  0  0  0
   44.7827   36.5315   42.4717 H   0  0  0  0  0  0  0  0  0  0  0  0
   45.5393   33.3573   46.1213 H   0  0  0  0  0  0  0  0  0  0  0  0
   47.4912   35.4957   42.8484 H   0  0  0  0  0  0  0  0  0  0  0  0
   49.4834   36.3108   40.4526 H   0  0  0  0  0  0  0  0  0  0  0  0
   49.6396   37.3022   41.6354 H   0  0  0  0  0  0  0  0  0  0  0  0
   50.2173   34.9835   43.2687 H   0  0  0  0  0  0  0  0  0  0  0  0
   50.3133   34.0394   42.0382 H   0  0  0  0  0  0  0  0  0  0  0  0
  2  1  1  0
  2  3  2  0
  3 10  1  0
  4  3  1  0
  4 14  1  0
  5  4  2  0
  6  7  2  0
  6  5  1  0
  7  2  1  0
  8 13  2  0
  9  8  1  0
 10  9  2  0
 10 11  1  0
 11 12  2  0
 12 13  1  0
 14 16  1  0
 15 14  1  0
 15 16  1  0
  5 17  1  0
  6 18  1  0
  7 19  1  0
  8 20  1  0
  9 21  1  0
 12 22  1  0
 14 23  1  0
 15 24  1  0
 15 25  1  0
 16 26  1  0
 16 27  1  0
M  ISO  8  17  14  18  14  19  14  20  14  21  14  22  14  23  13  24  13
M  ISO  3  25  13  26  13  27  13
M  END
>  <minimizedAffinity>  (1) 
-5.57837152

>  <minimizedRMSD>  (1) 
1.01679289

$$$$
