
     RDKit          3D

 36 38  0  0  1  0  0  0  0  0999 V2000
   45.2960   34.7890   42.6270 C   0  0  0  0  0  0  0  0  0  0  0  0
   46.3910   35.3110   41.8780 C   0  0  0  0  0  0  0  0  0  0  0  0
   47.6630   34.9020   42.2980 C   0  0  0  0  0  0  0  0  0  0  0  0
   47.7580   34.0720   43.3470 N   0  0  0  0  0  0  0  0  0  0  0  0
   46.6900   33.6030   44.0260 C   0  0  0  0  0  0  0  0  0  0  0  0
   45.4510   33.9700   43.6580 N   0  0  0  0  0  0  0  0  0  0  0  0
   43.5260   34.4600   41.1200 C   0  0  0  0  0  0  0  0  0  0  0  0
   44.3190   33.6820   40.5550 O   0  0  0  0  0  0  0  0  0  0  0  0
   43.9530   35.1350   42.2910 N   0  0  0  0  0  0  0  0  0  0  0  0
   42.2250   34.6200   40.5440 N   0  0  0  0  0  0  0  0  0  0  0  0
   41.9740   34.1630   39.1750 C   0  0  0  0  0  0  0  0  0  0  0  0
   40.9080   35.1230   38.7300 C   0  0  0  0  0  0  0  0  0  0  0  0
   40.5330   35.9750   39.8990 C   0  0  0  0  0  0  0  0  0  0  0  0
   41.0140   35.2150   41.0920 C   0  0  1  0  0  0  0  0  0  0  0  0
   48.7690   35.4530   41.5080 C   0  0  0  0  0  0  0  0  0  0  0  0
   49.9220   34.7240   41.7900 F   0  0  0  0  0  0  0  0  0  0  0  0
   49.0200   36.7350   41.9810 F   0  0  0  0  0  0  0  0  0  0  0  0
   48.5630   35.4030   40.1670 F   0  0  0  0  0  0  0  0  0  0  0  0
   40.0610   34.2780   41.7220 C   0  0  0  0  0  0  0  0  0  0  0  0
   40.3700   32.8130   41.6210 C   0  0  0  0  0  0  0  0  0  0  0  0
   39.1600   33.4390   40.9360 C   0  0  0  0  0  0  0  0  0  0  0  0
   46.2462   35.9909   41.0255 H   0  0  0  0  0  0  0  0  0  0  0  0
   46.8335   32.9223   44.8781 H   0  0  0  0  0  0  0  0  0  0  0  0
   43.3693   35.7906   42.8298 H   0  0  0  0  0  0  0  0  0  0  0  0
   42.8763   34.2471   38.5514 H   0  0  0  0  0  0  0  0  0  0  0  0
   41.6837   33.1046   39.1015 H   0  0  0  0  0  0  0  0  0  0  0  0
   41.2919   35.7552   37.9158 H   0  0  0  0  0  0  0  0  0  0  0  0
   40.0294   34.5729   38.3620 H   0  0  0  0  0  0  0  0  0  0  0  0
   41.0274   36.9558   39.8387 H   0  0  0  0  0  0  0  0  0  0  0  0
   39.4517   36.1730   39.9399 H   0  0  0  0  0  0  0  0  0  0  0  0
   41.1743   35.8471   41.9778 H   0  0  0  0  0  0  0  0  0  0  0  0
   39.8771   34.9982   42.5328 H   0  0  0  0  0  0  0  0  0  0  0  0
   41.2276   32.4652   41.0264 H   0  0  0  0  0  0  0  0  0  0  0  0
   40.5391   31.9896   42.3305 H   0  0  0  0  0  0  0  0  0  0  0  0
   39.1373   33.5338   39.8403 H   0  0  0  0  0  0  0  0  0  0  0  0
   38.0774   33.2442   40.9428 H   0  0  0  0  0  0  0  0  0  0  0  0
  1  6  2  0
  2  3  2  0
  2  1  1  0
  3  4  1  0
  4  5  2  0
  6  5  1  0
  7  9  1  0
  8  7  2  0
  9  1  1  0
 10 14  1  0
 10  7  1  0
 11 10  1  0
 12 11  1  0
 12 13  1  0
 13 14  1  0
 14 19  1  0
 15 16  1  0
 15 17  1  0
 15  3  1  0
 18 15  1  0
 20 19  1  0
 21 20  1  0
 21 19  1  0
  2 22  1  0
  5 23  1  0
  9 24  1  0
 11 25  1  0
 11 26  1  0
 12 27  1  0
 12 28  1  0
 13 29  1  0
 13 30  1  0
 14 31  1  1
 19 32  1  0
 20 33  1  0
 20 34  1  0
 21 35  1  0
 21 36  1  0
M  ISO  8  22  14  23  14  25  13  26  13  27  13  28  13  29  13  30  13
M  ISO  6  31  13  32  13  33  13  34  13  35  13  36  13
M  END
>  <minimizedAffinity>  (1) 
-6.62336254

>  <minimizedRMSD>  (1) 
0.719629943

$$$$
