
     RDKit          3D

 27 29  0  0  1  0  0  0  0  0999 V2000
   46.0700   32.6250   45.4380 C   0  0  0  0  0  0  0  0  0  0  0  0
   45.8850   31.3940   44.7560 C   0  0  0  0  0  0  0  0  0  0  0  0
   45.6770   30.2500   45.5150 C   0  0  0  0  0  0  0  0  0  0  0  0
   45.6630   30.3760   46.8660 N   0  0  0  0  0  0  0  0  0  0  0  0
   45.8440   31.5710   47.4820 C   0  0  0  0  0  0  0  0  0  0  0  0
   46.0480   32.7000   46.7550 N   0  0  0  0  0  0  0  0  0  0  0  0
   46.3090   33.8540   44.6330 C   0  0  1  0  0  0  0  0  0  0  0  0
   47.5120   33.7540   43.6760 C   0  0  0  0  0  0  0  0  0  0  0  0
   46.1030   33.8670   43.1830 C   0  0  2  0  0  0  0  0  0  0  0  0
   45.6580   35.1050   42.4460 C   0  0  0  0  0  0  0  0  0  0  0  0
   44.2020   35.4190   42.2730 C   0  0  0  0  0  0  0  0  0  0  0  0
   45.1130   36.2910   43.1410 C   0  0  0  0  0  0  0  0  0  0  0  0
   45.8020   31.4810   48.9790 C   0  0  0  0  0  0  0  0  0  0  0  0
   45.7580   32.7250   49.5600 F   0  0  0  0  0  0  0  0  0  0  0  0
   46.9420   30.8200   49.4410 F   0  0  0  0  0  0  0  0  0  0  0  0
   44.7260   30.6830   49.3500 F   0  0  0  0  0  0  0  0  0  0  0  0
   45.9058   31.3476   43.6572 H   0  0  0  0  0  0  0  0  0  0  0  0
   45.5281   29.2712   45.0356 H   0  0  0  0  0  0  0  0  0  0  0  0
   45.9494   34.5149   45.4354 H   0  0  0  0  0  0  0  0  0  0  0  0
   48.2087   34.5983   43.5679 H   0  0  0  0  0  0  0  0  0  0  0  0
   48.3490   33.0560   43.5271 H   0  0  0  0  0  0  0  0  0  0  0  0
   45.4670   33.2715   42.5115 H   0  0  0  0  0  0  0  0  0  0  0  0
   46.5053   34.9505   41.7618 H   0  0  0  0  0  0  0  0  0  0  0  0
   43.8268   35.7961   41.3102 H   0  0  0  0  0  0  0  0  0  0  0  0
   43.2567   34.8765   42.4219 H   0  0  0  0  0  0  0  0  0  0  0  0
   45.0015   36.2851   44.2353 H   0  0  0  0  0  0  0  0  0  0  0  0
   45.3677   37.3606   43.1737 H   0  0  0  0  0  0  0  0  0  0  0  0
  1  6  1  0
  2  1  2  0
  2  3  1  0
  3  4  2  0
  4  5  1  0
  5 13  1  0
  6  5  2  0
  7  1  1  0
  8  7  1  0
  9  8  1  0
  9  7  1  0
 10 12  1  0
 10  9  1  0
 11 10  1  0
 11 12  1  0
 13 16  1  0
 13 15  1  0
 13 14  1  0
  2 17  1  0
  3 18  1  0
  7 19  1  1
  8 20  1  0
  8 21  1  0
  9 22  1  1
 10 23  1  0
 11 24  1  0
 11 25  1  0
 12 26  1  0
 12 27  1  0
M  ISO  8  17  14  18  14  19  13  20  13  21  13  22  13  23  13  24  13
M  ISO  3  25  13  26  13  27  13
M  END
>  <minimizedAffinity>  (1) 
-4.71307945

>  <minimizedRMSD>  (1) 
2.47917032

$$$$
