
     RDKit          3D

 42 45  0  0  1  0  0  0  0  0999 V2000
   43.3510   34.4380   40.7950 C   0  0  0  0  0  0  0  0  0  0  0  0
   43.2720   35.6830   40.4930 O   0  0  0  0  0  0  0  0  0  0  0  0
   41.9970   34.0350   40.4710 N   0  0  0  0  0  0  0  0  0  0  0  0
   41.6110   34.2370   39.0860 C   0  0  0  0  0  0  0  0  0  0  0  0
   40.7840   35.5380   39.0840 C   0  0  0  0  0  0  0  0  0  0  0  0
   39.9940   35.5440   40.3880 C   0  0  0  0  0  0  0  0  0  0  0  0
   39.6760   34.1130   40.8340 C   0  0  0  0  0  0  0  0  0  0  0  0
   40.9640   33.4610   41.3140 C   0  0  1  0  0  0  0  0  0  0  0  0
   40.8910   31.9540   41.2080 C   0  0  0  0  0  0  0  0  0  0  0  0
   39.5310   31.3640   41.3480 C   0  0  0  0  0  0  0  0  0  0  0  0
   40.5290   31.2690   42.4790 C   0  0  0  0  0  0  0  0  0  0  0  0
   44.4260   33.7480   41.2790 O   0  0  0  0  0  0  0  0  0  0  0  0
   45.7520   34.0970   41.1120 C   0  0  0  0  0  0  0  0  0  0  0  0
   46.3900   34.7410   42.1820 C   0  0  0  0  0  0  0  0  0  0  0  0
   47.7410   35.0910   41.9970 C   0  0  0  0  0  0  0  0  0  0  0  0
   48.3370   34.7840   40.8070 N   0  0  0  0  0  0  0  0  0  0  0  0
   47.6810   34.1690   39.8230 C   0  0  0  0  0  0  0  0  0  0  0  0
   46.3880   33.8250   39.9740 N   0  0  0  0  0  0  0  0  0  0  0  0
   45.6620   35.0200   43.4060 C   0  0  0  0  0  0  0  0  0  0  0  0
   45.0210   36.2200   43.6350 C   0  0  0  0  0  0  0  0  0  0  0  0
   44.4640   36.0830   44.8830 C   0  0  0  0  0  0  0  0  0  0  0  0
   44.7550   34.8570   45.3780 N   0  0  0  0  0  0  0  0  0  0  0  0
   45.4750   34.2410   44.4700 N   0  0  0  0  0  0  0  0  0  0  0  0
   42.5013   34.3446   38.4489 H   0  0  0  0  0  0  0  0  0  0  0  0
   41.0391   33.3851   38.6896 H   0  0  0  0  0  0  0  0  0  0  0  0
   41.4496   36.4125   39.0378 H   0  0  0  0  0  0  0  0  0  0  0  0
   40.1161   35.5862   38.2113 H   0  0  0  0  0  0  0  0  0  0  0  0
   40.5884   36.0419   41.1682 H   0  0  0  0  0  0  0  0  0  0  0  0
   39.0487   36.0830   40.2268 H   0  0  0  0  0  0  0  0  0  0  0  0
   38.9426   34.1338   41.6535 H   0  0  0  0  0  0  0  0  0  0  0  0
   39.2534   33.5411   39.9947 H   0  0  0  0  0  0  0  0  0  0  0  0
   41.1659   33.6509   42.3785 H   0  0  0  0  0  0  0  0  0  0  0  0
   41.6976   31.8521   40.4671 H   0  0  0  0  0  0  0  0  0  0  0  0
   38.6525   32.0194   41.4413 H   0  0  0  0  0  0  0  0  0  0  0  0
   38.9297   30.6431   40.7746 H   0  0  0  0  0  0  0  0  0  0  0  0
   40.9846   30.3004   42.7324 H   0  0  0  0  0  0  0  0  0  0  0  0
   40.5313   31.5464   43.5434 H   0  0  0  0  0  0  0  0  0  0  0  0
   48.3040   35.6003   42.7930 H   0  0  0  0  0  0  0  0  0  0  0  0
   48.2000   33.9408   38.8804 H   0  0  0  0  0  0  0  0  0  0  0  0
   44.9678   37.0922   42.9669 H   0  0  0  0  0  0  0  0  0  0  0  0
   43.8720   36.8519   45.4011 H   0  0  0  0  0  0  0  0  0  0  0  0
   44.4666   34.4799   46.2921 H   0  0  0  0  0  0  0  0  0  0  0  0
  1 12  1  0
  2  1  2  0
  3  1  1  0
  3  8  1  0
  4  3  1  0
  5  4  1  0
  5  6  1  0
  6  7  1  0
  7  8  1  0
  9  8  1  0
  9 10  1  0
  9 11  1  0
 10 11  1  0
 13 12  1  0
 13 14  1  0
 14 19  1  0
 15 14  2  0
 16 15  1  0
 17 18  1  0
 17 16  2  0
 18 13  2  0
 19 20  1  0
 19 23  2  0
 20 21  2  0
 21 22  1  0
 23 22  1  0
  4 24  1  0
  4 25  1  0
  5 26  1  0
  5 27  1  0
  6 28  1  0
  6 29  1  0
  7 30  1  0
  7 31  1  0
  8 32  1  1
  9 33  1  0
 10 34  1  0
 10 35  1  0
 11 36  1  0
 11 37  1  0
 15 38  1  0
 17 39  1  0
 20 40  1  0
 21 41  1  0
 22 42  1  0
M  ISO  8  24  13  25  13  26  13  27  13  28  13  29  13  30  13  31  13
M  ISO  8  32  13  33  13  34  13  35  13  36  13  37  13  38  14  39  14
M  ISO  3  40  14  41  14  42   9
M  END
>  <minimizedAffinity>  (1) 
-6.44847202

>  <minimizedRMSD>  (1) 
0.167428911

$$$$
