
     RDKit          3D

 28 30  0  0  0  0  0  0  0  0999 V2000
   46.1870   32.6420   47.0510 C   0  0  0  0  0  0  0  0  0  0  0  0
   45.1360   32.4090   47.8960 C   0  0  0  0  0  0  0  0  0  0  0  0
   45.3530   31.6560   49.0270 C   0  0  0  0  0  0  0  0  0  0  0  0
   46.6060   31.1350   49.3180 C   0  0  0  0  0  0  0  0  0  0  0  0
   47.6490   31.3980   48.4280 C   0  0  0  0  0  0  0  0  0  0  0  0
   47.3910   32.1220   47.3620 N   0  0  0  0  0  0  0  0  0  0  0  0
   44.9380   35.0150   44.5610 C   0  0  0  0  0  0  0  0  0  0  0  0
   45.8680   34.8690   43.5280 C   0  0  0  0  0  0  0  0  0  0  0  0
   46.9340   33.9520   43.6800 C   0  0  0  0  0  0  0  0  0  0  0  0
   46.9660   33.2720   44.8500 N   0  0  0  0  0  0  0  0  0  0  0  0
   46.0590   33.4310   45.8240 C   0  0  0  0  0  0  0  0  0  0  0  0
   45.0410   34.3020   45.6850 N   0  0  0  0  0  0  0  0  0  0  0  0
   43.8820   35.9450   44.3690 N   0  0  0  0  0  0  0  0  0  0  0  0
   49.0170   30.8630   48.6890 C   0  0  0  0  0  0  0  0  0  0  0  0
   49.3770   30.4290   50.0660 C   0  0  0  0  0  0  0  0  0  0  0  0
   49.8990   31.7450   49.5670 C   0  0  0  0  0  0  0  0  0  0  0  0
   44.1379   32.8155   47.6755 H   0  0  0  0  0  0  0  0  0  0  0  0
   44.5163   31.4630   49.7145 H   0  0  0  0  0  0  0  0  0  0  0  0
   46.7724   30.5326   50.2232 H   0  0  0  0  0  0  0  0  0  0  0  0
   45.7719   35.4613   42.6061 H   0  0  0  0  0  0  0  0  0  0  0  0
   47.6904   33.8007   42.8958 H   0  0  0  0  0  0  0  0  0  0  0  0
   43.8232   36.4839   43.4932 H   0  0  0  0  0  0  0  0  0  0  0  0
   43.1749   36.0806   45.1056 H   0  0  0  0  0  0  0  0  0  0  0  0
   49.0890   30.3828   47.7020 H   0  0  0  0  0  0  0  0  0  0  0  0
   48.6070   30.4092   50.8513 H   0  0  0  0  0  0  0  0  0  0  0  0
   49.8424   29.5280   50.4921 H   0  0  0  0  0  0  0  0  0  0  0  0
   50.9676   31.8639   49.3348 H   0  0  0  0  0  0  0  0  0  0  0  0
   49.8638   32.7868   49.9184 H   0  0  0  0  0  0  0  0  0  0  0  0
  1  6  1  0
  1  2  2  0
  2  3  1  0
  3  4  2  0
  5 14  1  0
  5  4  1  0
  6  5  2  0
  7 12  2  0
  8  9  2  0
  8  7  1  0
  9 10  1  0
 10 11  2  0
 11  1  1  0
 12 11  1  0
 13  7  1  0
 14 16  1  0
 14 15  1  0
 16 15  1  0
  2 17  1  0
  3 18  1  0
  4 19  1  0
  8 20  1  0
  9 21  1  0
 13 22  1  0
 13 23  1  0
 14 24  1  0
 15 25  1  0
 15 26  1  0
 16 27  1  0
 16 28  1  0
M  ISO  8  17  14  18  14  19  14  20  14  21  14  24  13  25  13  26  13
M  ISO  2  27  13  28  13
M  END
>  <minimizedAffinity>  (1) 
-5.89218807

>  <minimizedRMSD>  (1) 
0.381701052

$$$$
