
     RDKit          3D

 20 21  0  0  0  0  0  0  0  0999 V2000
   45.9820   34.4920   43.2870 C   0  0  0  0  0  0  0  0  0  0  0  0
   46.4180   34.7100   41.9640 C   0  0  0  0  0  0  0  0  0  0  0  0
   47.6160   34.0730   41.5740 C   0  0  0  0  0  0  0  0  0  0  0  0
   48.2600   33.3050   42.4810 N   0  0  0  0  0  0  0  0  0  0  0  0
   47.7970   33.1220   43.7540 C   0  0  0  0  0  0  0  0  0  0  0  0
   46.6520   33.7240   44.1450 N   0  0  0  0  0  0  0  0  0  0  0  0
   48.0270   34.3300   40.1950 C   0  0  0  0  0  0  0  0  0  0  0  0
   49.0250   33.4160   39.8640 F   0  0  0  0  0  0  0  0  0  0  0  0
   48.6520   35.5730   40.1920 F   0  0  0  0  0  0  0  0  0  0  0  0
   47.0270   34.2250   39.2840 F   0  0  0  0  0  0  0  0  0  0  0  0
   44.7200   35.1610   43.7050 C   0  0  0  0  0  0  0  0  0  0  0  0
   44.4900   35.6650   45.0570 C   0  0  0  0  0  0  0  0  0  0  0  0
   44.9190   36.6570   44.0510 C   0  0  0  0  0  0  0  0  0  0  0  0
   45.8514   35.3465   41.2684 H   0  0  0  0  0  0  0  0  0  0  0  0
   48.3546   32.4868   44.4579 H   0  0  0  0  0  0  0  0  0  0  0  0
   44.1079   34.5171   43.0564 H   0  0  0  0  0  0  0  0  0  0  0  0
   43.4637   35.7049   45.4508 H   0  0  0  0  0  0  0  0  0  0  0  0
   44.8744   35.3772   46.0466 H   0  0  0  0  0  0  0  0  0  0  0  0
   45.9299   37.0889   44.0915 H   0  0  0  0  0  0  0  0  0  0  0  0
   44.5345   37.6148   43.6705 H   0  0  0  0  0  0  0  0  0  0  0  0
  1 11  1  0
  1  6  1  0
  2  1  2  0
  3  2  1  0
  3  4  2  0
  4  5  1  0
  5  6  2  0
  7  3  1  0
  8  7  1  0
  9  7  1  0
 10  7  1  0
 11 13  1  0
 11 12  1  0
 13 12  1  0
  2 14  1  0
  5 15  1  0
 11 16  1  0
 12 17  1  0
 12 18  1  0
 13 19  1  0
 13 20  1  0
M  ISO  7  14  14  15  14  16  13  17  13  18  13  19  13  20  13
M  END
>  <minimizedAffinity>  (1) 
-4.08560562

>  <minimizedRMSD>  (1) 
2.30480337

$$$$
