
     RDKit          3D

 19 20  0  0  0  0  0  0  0  0999 V2000
   44.5610   35.6470   45.1760 C   0  0  0  0  0  0  0  0  0  0  0  0
   45.1130   35.7680   43.9010 C   0  0  0  0  0  0  0  0  0  0  0  0
   45.9710   34.7740   43.4200 C   0  0  0  0  0  0  0  0  0  0  0  0
   46.2090   33.7290   44.2590 N   0  0  0  0  0  0  0  0  0  0  0  0
   45.6680   33.6270   45.4890 C   0  0  0  0  0  0  0  0  0  0  0  0
   44.8340   34.5990   45.9510 N   0  0  0  0  0  0  0  0  0  0  0  0
   44.7500   36.9400   43.1520 N   0  0  0  0  0  0  0  0  0  0  0  0
   46.0160   32.4180   46.3140 C   0  0  0  0  0  0  0  0  0  0  0  0
   45.6600   32.3760   47.7540 C   0  0  0  0  0  0  0  0  0  0  0  0
   47.0680   32.6220   47.3580 C   0  0  0  0  0  0  0  0  0  0  0  0
   43.8871   36.4324   45.5487 H   0  0  0  0  0  0  0  0  0  0  0  0
   46.4274   34.8333   42.4209 H   0  0  0  0  0  0  0  0  0  0  0  0
   45.1273   37.0828   42.2043 H   0  0  0  0  0  0  0  0  0  0  0  0
   44.1126   37.6369   43.5630 H   0  0  0  0  0  0  0  0  0  0  0  0
   45.8415   31.7323   45.4717 H   0  0  0  0  0  0  0  0  0  0  0  0
   45.0645   33.1886   48.1957 H   0  0  0  0  0  0  0  0  0  0  0  0
   45.1546   31.6483   48.4060 H   0  0  0  0  0  0  0  0  0  0  0  0
   47.8313   31.8487   47.5291 H   0  0  0  0  0  0  0  0  0  0  0  0
   47.8126   33.4029   47.5718 H   0  0  0  0  0  0  0  0  0  0  0  0
  1  6  2  0
  2  1  1  0
  3  2  2  0
  3  4  1  0
  4  5  2  0
  5  6  1  0
  5  8  1  0
  7  2  1  0
  8 10  1  0
  8  9  1  0
 10  9  1  0
  1 11  1  0
  3 12  1  0
  7 13  1  0
  7 14  1  0
  8 15  1  0
  9 16  1  0
  9 17  1  0
 10 18  1  0
 10 19  1  0
M  ISO  7  11  14  12  14  15  13  16  13  17  13  18  13  19  13
M  END
>  <minimizedAffinity>  (1) 
-3.86665034

>  <minimizedRMSD>  (1) 
0.95445168

$$$$
