
     RDKit          3D

 39 42  0  0  1  0  0  0  0  0999 V2000
   45.4030   33.2480   45.3370 F   0  0  0  0  0  0  0  0  0  0  0  0
   46.3330   32.3830   44.8820 C   0  0  0  0  0  0  0  0  0  0  0  0
   46.7520   31.3700   45.7030 C   0  0  0  0  0  0  0  0  0  0  0  0
   47.6960   30.4950   45.2230 C   0  0  0  0  0  0  0  0  0  0  0  0
   48.1870   30.6630   43.9470 C   0  0  0  0  0  0  0  0  0  0  0  0
   47.7740   31.6750   43.1170 C   0  0  0  0  0  0  0  0  0  0  0  0
   46.8080   32.5620   43.6210 C   0  0  0  0  0  0  0  0  0  0  0  0
   46.4050   33.5880   42.7150 N   0  0  0  0  0  0  0  0  0  0  0  0
   45.3720   33.5650   41.6950 C   0  0  0  0  0  0  0  0  0  0  0  0
   44.6510   34.8800   41.9400 C   0  0  0  0  0  0  0  0  0  0  0  0
   45.6300   35.7200   42.7270 C   0  0  0  0  0  0  0  0  0  0  0  0
   46.9070   34.9440   42.5920 C   0  0  2  0  0  0  0  0  0  0  0  0
   47.6180   35.2710   41.3350 C   0  0  0  0  0  0  0  0  0  0  0  0
   49.0510   35.8340   41.5980 C   0  0  0  0  0  0  0  0  0  0  0  0
   48.8270   34.5350   40.8900 C   0  0  0  0  0  0  0  0  0  0  0  0
   44.9980   29.9960   48.6180 C   0  0  0  0  0  0  0  0  0  0  0  0
   45.1570   31.0380   49.5820 C   0  0  0  0  0  0  0  0  0  0  0  0
   45.8690   32.1840   49.1860 C   0  0  0  0  0  0  0  0  0  0  0  0
   46.3650   32.2400   47.9170 N   0  0  0  0  0  0  0  0  0  0  0  0
   46.1960   31.2450   47.0430 C   0  0  0  0  0  0  0  0  0  0  0  0
   45.5160   30.1210   47.3850 N   0  0  0  0  0  0  0  0  0  0  0  0
   48.0565   29.6677   45.8519 H   0  0  0  0  0  0  0  0  0  0  0  0
   48.9433   29.9550   43.5771 H   0  0  0  0  0  0  0  0  0  0  0  0
   48.1815   31.7868   42.1014 H   0  0  0  0  0  0  0  0  0  0  0  0
   44.6960   32.7080   41.8310 H   0  0  0  0  0  0  0  0  0  0  0  0
   45.7630   33.4593   40.6723 H   0  0  0  0  0  0  0  0  0  0  0  0
   44.4017   35.3681   40.9863 H   0  0  0  0  0  0  0  0  0  0  0  0
   43.7020   34.7378   42.4777 H   0  0  0  0  0  0  0  0  0  0  0  0
   45.7287   36.7261   42.2934 H   0  0  0  0  0  0  0  0  0  0  0  0
   45.3256   35.8846   43.7712 H   0  0  0  0  0  0  0  0  0  0  0  0
   47.6928   35.1593   43.3310 H   0  0  0  0  0  0  0  0  0  0  0  0
   46.6914   35.5348   40.8041 H   0  0  0  0  0  0  0  0  0  0  0  0
   49.4126   36.7131   41.0445 H   0  0  0  0  0  0  0  0  0  0  0  0
   49.6197   36.1647   42.4796 H   0  0  0  0  0  0  0  0  0  0  0  0
   49.1008   33.5933   41.3882 H   0  0  0  0  0  0  0  0  0  0  0  0
   49.1562   34.1332   39.9204 H   0  0  0  0  0  0  0  0  0  0  0  0
   44.4465   29.0832   48.8877 H   0  0  0  0  0  0  0  0  0  0  0  0
   44.7385   30.9474   50.5952 H   0  0  0  0  0  0  0  0  0  0  0  0
   46.0228   33.0186   49.8858 H   0  0  0  0  0  0  0  0  0  0  0  0
  2  1  1  0
  2  3  2  0
  3 20  1  0
  4  3  1  0
  5  4  2  0
  6  7  2  0
  6  5  1  0
  7  2  1  0
  8  7  1  0
  9 10  1  0
  9  8  1  0
 10 11  1  0
 12  8  1  0
 12 11  1  0
 13 14  1  0
 13 12  1  0
 15 13  1  0
 15 14  1  0
 16 17  2  0
 18 17  1  0
 19 18  2  0
 20 21  2  0
 20 19  1  0
 21 16  1  0
  4 22  1  0
  5 23  1  0
  6 24  1  0
  9 25  1  0
  9 26  1  0
 10 27  1  0
 10 28  1  0
 11 29  1  0
 11 30  1  0
 12 31  1  1
 13 32  1  0
 14 33  1  0
 14 34  1  0
 15 35  1  0
 15 36  1  0
 16 37  1  0
 17 38  1  0
 18 39  1  0
M  ISO  8  22  14  23  14  24  14  25  13  26  13  27  13  28  13  29  13
M  ISO  8  30  13  31  13  32  13  33  13  34  13  35  13  36  13  37  14
M  ISO  2  38  14  39  14
M  END
>  <minimizedAffinity>  (1) 
-5.50721502

>  <minimizedRMSD>  (1) 
6.39080572

$$$$
