
     RDKit          3D

 35 37  0  0  1  0  0  0  0  0999 V2000
   45.6130   32.8100   46.4830 N   0  0  0  0  0  0  0  0  0  0  0  0
   45.2580   33.0210   47.8590 C   0  0  0  0  0  0  0  0  0  0  0  0
   46.0250   31.9790   48.6430 C   0  0  0  0  0  0  0  0  0  0  0  0
   45.3800   30.6540   48.3800 C   0  0  0  0  0  0  0  0  0  0  0  0
   45.4850   30.4090   46.9230 C   0  0  0  0  0  0  0  0  0  0  0  0
   45.9920   31.5140   46.0930 C   0  0  2  0  0  0  0  0  0  0  0  0
   46.0640   34.7890   43.3880 C   0  0  0  0  0  0  0  0  0  0  0  0
   46.2190   33.7670   44.3260 C   0  0  0  0  0  0  0  0  0  0  0  0
   45.5430   33.8280   45.5250 C   0  0  0  0  0  0  0  0  0  0  0  0
   44.7530   34.8780   45.7450 N   0  0  0  0  0  0  0  0  0  0  0  0
   44.5930   35.8760   44.8390 C   0  0  0  0  0  0  0  0  0  0  0  0
   45.2550   35.8200   43.6640 N   0  0  0  0  0  0  0  0  0  0  0  0
   46.8090   34.6780   42.1050 C   0  0  0  0  0  0  0  0  0  0  0  0
   45.9550   34.6710   41.0110 F   0  0  0  0  0  0  0  0  0  0  0  0
   47.7210   35.7160   42.0540 F   0  0  0  0  0  0  0  0  0  0  0  0
   47.5760   33.5050   42.1190 F   0  0  0  0  0  0  0  0  0  0  0  0
   47.4600   31.2970   45.7980 C   0  0  0  0  0  0  0  0  0  0  0  0
   47.8610   30.6480   44.4980 C   0  0  0  0  0  0  0  0  0  0  0  0
   47.9260   29.8480   45.7140 C   0  0  0  0  0  0  0  0  0  0  0  0
   45.5480   34.0326   48.1793 H   0  0  0  0  0  0  0  0  0  0  0  0
   44.1731   32.9315   48.0172 H   0  0  0  0  0  0  0  0  0  0  0  0
   47.0743   31.9580   48.3135 H   0  0  0  0  0  0  0  0  0  0  0  0
   46.0077   32.2121   49.7179 H   0  0  0  0  0  0  0  0  0  0  0  0
   45.9023   29.8615   48.9359 H   0  0  0  0  0  0  0  0  0  0  0  0
   44.3293   30.6548   48.7055 H   0  0  0  0  0  0  0  0  0  0  0  0
   46.1574   29.5505   46.7788 H   0  0  0  0  0  0  0  0  0  0  0  0
   44.4502   30.2505   46.5853 H   0  0  0  0  0  0  0  0  0  0  0  0
   45.4615   31.4722   45.1303 H   0  0  0  0  0  0  0  0  0  0  0  0
   46.8795   32.9147   44.1084 H   0  0  0  0  0  0  0  0  0  0  0  0
   43.9287   36.7242   45.0607 H   0  0  0  0  0  0  0  0  0  0  0  0
   47.7547   32.2122   46.3323 H   0  0  0  0  0  0  0  0  0  0  0  0
   48.7912   30.9572   43.9990 H   0  0  0  0  0  0  0  0  0  0  0  0
   47.3708   30.5203   43.5216 H   0  0  0  0  0  0  0  0  0  0  0  0
   47.2066   29.0309   45.8716 H   0  0  0  0  0  0  0  0  0  0  0  0
   48.7099   29.2573   46.2106 H   0  0  0  0  0  0  0  0  0  0  0  0
  1  2  1  0
  2  3  1  0
  4  3  1  0
  5  4  1  0
  6  1  1  0
  6  5  1  0
  7 12  2  0
  7  8  1  0
  8  9  2  0
  9 10  1  0
  9  1  1  0
 11 10  2  0
 12 11  1  0
 13 16  1  0
 13  7  1  0
 14 13  1  0
 15 13  1  0
 17  6  1  0
 18 19  1  0
 18 17  1  0
 19 17  1  0
  2 20  1  0
  2 21  1  0
  3 22  1  0
  3 23  1  0
  4 24  1  0
  4 25  1  0
  5 26  1  0
  5 27  1  0
  6 28  1  6
  8 29  1  0
 11 30  1  0
 17 31  1  0
 18 32  1  0
 18 33  1  0
 19 34  1  0
 19 35  1  0
M  ISO  8  20  13  21  13  22  13  23  13  24  13  25  13  26  13  27  13
M  ISO  8  28  13  29  14  30  14  31  13  32  13  33  13  34  13  35  13
M  END
>  <minimizedAffinity>  (1) 
-5.3390398

>  <minimizedRMSD>  (1) 
0.572739959

$$$$
