
     RDKit          3D

 33 35  0  0  0  0  0  0  0  0999 V2000
   44.2190   33.5030   40.9210 C   0  0  0  0  0  0  0  0  0  0  0  0
   45.5840   34.0330   41.1030 C   0  0  0  0  0  0  0  0  0  0  0  0
   46.5820   33.9720   40.1410 C   0  0  0  0  0  0  0  0  0  0  0  0
   47.8440   34.4710   40.3200 C   0  0  0  0  0  0  0  0  0  0  0  0
   48.1150   35.0690   41.5450 C   0  0  0  0  0  0  0  0  0  0  0  0
   47.1420   35.1420   42.5140 C   0  0  0  0  0  0  0  0  0  0  0  0
   45.8890   34.6370   42.3140 C   0  0  0  0  0  0  0  0  0  0  0  0
   44.8520   34.7210   43.3620 C   0  0  0  0  0  0  0  0  0  0  0  0
   45.1660   34.7310   44.8080 C   0  0  0  0  0  0  0  0  0  0  0  0
   44.7000   36.0030   44.1570 C   0  0  0  0  0  0  0  0  0  0  0  0
   43.6270   33.9290   39.5910 C   0  0  0  0  0  0  0  0  0  0  0  0
   40.8750   35.9610   41.1650 C   0  0  0  0  0  0  0  0  0  0  0  0
   42.1510   35.3820   40.9570 C   0  0  0  0  0  0  0  0  0  0  0  0
   42.3090   34.5610   39.8530 C   0  0  0  0  0  0  0  0  0  0  0  0
   41.2300   34.3580   39.0340 N   0  0  0  0  0  0  0  0  0  0  0  0
   40.0320   34.9200   39.2560 C   0  0  0  0  0  0  0  0  0  0  0  0
   39.8580   35.7290   40.3330 N   0  0  0  0  0  0  0  0  0  0  0  0
   44.2545   32.4043   40.9603 H   0  0  0  0  0  0  0  0  0  0  0  0
   43.5841   33.9047   41.7245 H   0  0  0  0  0  0  0  0  0  0  0  0
   46.3453   33.4949   39.1785 H   0  0  0  0  0  0  0  0  0  0  0  0
   48.6078   34.4020   39.5314 H   0  0  0  0  0  0  0  0  0  0  0  0
   49.1138   35.4864   41.7406 H   0  0  0  0  0  0  0  0  0  0  0  0
   47.3793   35.6199   43.4759 H   0  0  0  0  0  0  0  0  0  0  0  0
   44.2061   34.0900   42.7338 H   0  0  0  0  0  0  0  0  0  0  0  0
   44.5071   34.2049   45.5144 H   0  0  0  0  0  0  0  0  0  0  0  0
   46.0430   34.4484   45.4088 H   0  0  0  0  0  0  0  0  0  0  0  0
   45.4020   36.8359   44.0038 H   0  0  0  0  0  0  0  0  0  0  0  0
   43.8897   36.7253   44.3351 H   0  0  0  0  0  0  0  0  0  0  0  0
   43.4966   33.0501   38.9425 H   0  0  0  0  0  0  0  0  0  0  0  0
   44.2970   34.6408   39.0865 H   0  0  0  0  0  0  0  0  0  0  0  0
   40.7188   36.6178   42.0335 H   0  0  0  0  0  0  0  0  0  0  0  0
   42.9853   35.5773   41.6468 H   0  0  0  0  0  0  0  0  0  0  0  0
   39.1949   34.7265   38.5691 H   0  0  0  0  0  0  0  0  0  0  0  0
  1  2  1  0
  2  7  2  0
  3  4  2  0
  3  2  1  0
  4  5  1  0
  5  6  2  0
  7  6  1  0
  7  8  1  0
  8 10  1  0
  8  9  1  0
 10  9  1  0
 11 14  1  0
 11  1  1  0
 13 12  2  0
 14 13  1  0
 15 16  1  0
 15 14  2  0
 16 17  2  0
 17 12  1  0
  1 18  1  0
  1 19  1  0
  3 20  1  0
  4 21  1  0
  5 22  1  0
  6 23  1  0
  8 24  1  0
  9 25  1  0
  9 26  1  0
 10 27  1  0
 10 28  1  0
 11 29  1  0
 11 30  1  0
 12 31  1  0
 13 32  1  0
 16 33  1  0
M  ISO  8  18   8  19   8  20  14  21  14  22  14  23  14  24  13  25  13
M  ISO  8  26  13  27  13  28  13  29   8  30   8  31  14  32  14  33  14
M  END
>  <minimizedAffinity>  (1) 
-5.08434677

>  <minimizedRMSD>  (1) 
1.65690792

$$$$
