
     RDKit          3D

 33 36  0  0  0  0  0  0  0  0999 V2000
   46.1860   33.7230   40.4170 C   0  0  0  0  0  0  0  0  0  0  0  0
   47.3330   34.4710   40.7160 C   0  0  0  0  0  0  0  0  0  0  0  0
   48.2830   34.6180   39.7380 C   0  0  0  0  0  0  0  0  0  0  0  0
   48.1820   34.0720   38.4670 C   0  0  0  0  0  0  0  0  0  0  0  0
   48.9720   34.0920   37.3790 N   0  0  0  0  0  0  0  0  0  0  0  0
   48.3960   33.3980   36.3950 C   0  0  0  0  0  0  0  0  0  0  0  0
   47.1920   32.9180   36.8750 C   0  0  0  0  0  0  0  0  0  0  0  0
   47.0350   33.3320   38.1880 C   0  0  0  0  0  0  0  0  0  0  0  0
   46.0710   33.1690   39.1430 C   0  0  0  0  0  0  0  0  0  0  0  0
   47.5600   35.1080   42.0170 C   0  0  0  0  0  0  0  0  0  0  0  0
   48.6250   35.7920   42.0570 O   0  0  0  0  0  0  0  0  0  0  0  0
   46.6260   34.9320   43.0910 C   0  0  0  0  0  0  0  0  0  0  0  0
   45.6150   35.8970   43.1860 C   0  0  0  0  0  0  0  0  0  0  0  0
   44.6940   35.7290   44.2360 C   0  0  0  0  0  0  0  0  0  0  0  0
   44.8440   34.6630   45.0750 N   0  0  0  0  0  0  0  0  0  0  0  0
   45.8440   33.7690   44.9250 C   0  0  0  0  0  0  0  0  0  0  0  0
   46.7350   33.9130   43.9240 N   0  0  0  0  0  0  0  0  0  0  0  0
   46.0010   32.6030   45.8470 C   0  0  0  0  0  0  0  0  0  0  0  0
   45.5170   32.7030   47.2460 C   0  0  0  0  0  0  0  0  0  0  0  0
   46.9970   32.7260   46.9770 C   0  0  0  0  0  0  0  0  0  0  0  0
   45.3964   33.5768   41.1688 H   0  0  0  0  0  0  0  0  0  0  0  0
   49.1816   35.2059   39.9765 H   0  0  0  0  0  0  0  0  0  0  0  0
   49.8823   34.5697   37.3148 H   0  0  0  0  0  0  0  0  0  0  0  0
   48.8048   33.2374   35.3865 H   0  0  0  0  0  0  0  0  0  0  0  0
   46.4751   32.3068   36.3071 H   0  0  0  0  0  0  0  0  0  0  0  0
   45.1743   32.5809   38.8981 H   0  0  0  0  0  0  0  0  0  0  0  0
   45.5453   36.7378   42.4801 H   0  0  0  0  0  0  0  0  0  0  0  0
   43.8692   36.4428   44.3780 H   0  0  0  0  0  0  0  0  0  0  0  0
   45.8267   31.8924   45.0256 H   0  0  0  0  0  0  0  0  0  0  0  0
   45.0076   33.6169   47.5855 H   0  0  0  0  0  0  0  0  0  0  0  0
   44.8558   32.0950   47.8809 H   0  0  0  0  0  0  0  0  0  0  0  0
   47.6234   31.8665   47.2579 H   0  0  0  0  0  0  0  0  0  0  0  0
   47.8274   33.4053   47.2196 H   0  0  0  0  0  0  0  0  0  0  0  0
  1  2  2  0
  2 10  1  0
  3  2  1  0
  4  3  2  0
  5  4  1  0
  6  7  2  0
  6  5  1  0
  7  8  1  0
  8  4  1  0
  8  9  2  0
  9  1  1  0
 10 11  2  0
 10 12  1  0
 12 13  2  0
 12 17  1  0
 13 14  1  0
 14 15  2  0
 16 15  1  0
 16 18  1  0
 17 16  2  0
 18 20  1  0
 18 19  1  0
 20 19  1  0
  1 21  1  0
  3 22  1  0
  5 23  1  0
  6 24  1  0
  7 25  1  0
  9 26  1  0
 13 27  1  0
 14 28  1  0
 18 29  1  0
 19 30  1  0
 19 31  1  0
 20 32  1  0
 20 33  1  0
M  ISO  8  21  14  22  14  23   9  24  14  25  14  26  14  27  14  28  14
M  ISO  5  29  13  30  13  31  13  32  13  33  13
M  END
>  <minimizedAffinity>  (1) 
-5.87554312

>  <minimizedRMSD>  (1) 
0.408210307

$$$$
