
     RDKit          3D

 20 21  0  0  0  0  0  0  0  0999 V2000
   45.4740   34.8680   44.0650 C   0  0  0  0  0  0  0  0  0  0  0  0
   46.4060   35.0980   43.0370 C   0  0  0  0  0  0  0  0  0  0  0  0
   47.5150   34.2240   42.9530 C   0  0  0  0  0  0  0  0  0  0  0  0
   47.6040   33.2290   43.8610 N   0  0  0  0  0  0  0  0  0  0  0  0
   46.6760   33.0500   44.8360 C   0  0  0  0  0  0  0  0  0  0  0  0
   45.6170   33.8660   44.9360 N   0  0  0  0  0  0  0  0  0  0  0  0
   44.3040   35.8050   44.1410 C   0  0  0  0  0  0  0  0  0  0  0  0
   48.5180   34.4190   41.8980 C   0  0  0  0  0  0  0  0  0  0  0  0
   49.8350   34.9940   42.4190 C   0  0  0  0  0  0  0  0  0  0  0  0
   48.9520   35.7560   41.4630 C   0  0  0  0  0  0  0  0  0  0  0  0
   46.2773   35.9265   42.3250 H   0  0  0  0  0  0  0  0  0  0  0  0
   46.7947   32.2245   45.5533 H   0  0  0  0  0  0  0  0  0  0  0  0
   44.0592   36.0011   45.1953 H   0  0  0  0  0  0  0  0  0  0  0  0
   44.5591   36.7514   43.6417 H   0  0  0  0  0  0  0  0  0  0  0  0
   43.4362   35.3493   43.6417 H   0  0  0  0  0  0  0  0  0  0  0  0
   48.1614   33.5516   41.3231 H   0  0  0  0  0  0  0  0  0  0  0  0
   49.9252   35.3144   43.4674 H   0  0  0  0  0  0  0  0  0  0  0  0
   50.8862   34.6703   42.4357 H   0  0  0  0  0  0  0  0  0  0  0  0
   49.2796   35.9118   40.4245 H   0  0  0  0  0  0  0  0  0  0  0  0
   48.4903   36.7543   41.4744 H   0  0  0  0  0  0  0  0  0  0  0  0
  1  7  1  0
  1  6  2  0
  2  1  1  0
  3  2  2  0
  3  4  1  0
  4  5  2  0
  5  6  1  0
  8  9  1  0
  8  3  1  0
 10  8  1  0
 10  9  1  0
  2 11  1  0
  5 12  1  0
  7 13  1  0
  7 14  1  0
  7 15  1  0
  8 16  1  0
  9 17  1  0
  9 18  1  0
 10 19  1  0
 10 20  1  0
M  ISO  8  11  14  12  14  13   8  14   8  15   8  16  13  17  13  18  13
M  ISO  2  19  13  20  13
M  END
>  <minimizedAffinity>  (1) 
-4.00241423

>  <minimizedRMSD>  (1) 
2.22743511

$$$$
