
     RDKit          3D

 20 21  0  0  1  0  0  0  0  0999 V2000
   44.6320   35.4500   45.1220 C   0  0  0  0  0  0  0  0  0  0  0  0
   45.1050   35.7280   43.7920 C   0  0  0  0  0  0  0  0  0  0  0  0
   46.0500   34.8340   43.3600 C   0  0  0  0  0  0  0  0  0  0  0  0
   46.4970   33.7830   44.1340 N   0  0  0  0  0  0  0  0  0  0  0  0
   46.0120   33.5860   45.3680 C   0  0  0  0  0  0  0  0  0  0  0  0
   45.0740   34.4190   45.8710 N   0  0  0  0  0  0  0  0  0  0  0  0
   46.5440   34.9880   41.9410 C   0  0  1  0  0  0  0  0  0  0  0  0
   48.0680   35.2930   41.9380 C   0  0  0  0  0  0  0  0  0  0  0  0
   47.3940   33.9910   41.3930 C   0  0  2  0  0  0  0  0  0  0  0  0
   47.5720   33.7850   39.5790 S   0  0  0  0  0  0  0  0  0  0  0  0
   44.6510   36.8190   43.0340 N   0  0  0  0  0  0  0  0  0  0  0  0
   43.8680   36.1147   45.5516 H   0  0  0  0  0  0  0  0  0  0  0  0
   46.3786   32.7437   45.9732 H   0  0  0  0  0  0  0  0  0  0  0  0
   45.6241   35.4346   41.5356 H   0  0  0  0  0  0  0  0  0  0  0  0
   48.4939   36.0392   41.2512 H   0  0  0  0  0  0  0  0  0  0  0  0
   48.8428   35.5580   42.6725 H   0  0  0  0  0  0  0  0  0  0  0  0
   47.4477   32.9095   41.5866 H   0  0  0  0  0  0  0  0  0  0  0  0
   48.4515   32.7672   39.3191 H   0  0  0  0  0  0  0  0  0  0  0  0
   45.0202   36.9763   42.0854 H   0  0  0  0  0  0  0  0  0  0  0  0
   43.9487   37.4622   43.4265 H   0  0  0  0  0  0  0  0  0  0  0  0
  1  6  2  0
  2  1  1  0
  3  2  2  0
  3  4  1  0
  4  5  2  0
  5  6  1  0
  7  3  1  0
  8  7  1  0
  9  8  1  0
  9  7  1  0
 10  9  1  0
 11  2  1  0
  1 12  1  0
  5 13  1  0
  7 14  1  6
  8 15  1  0
  8 16  1  0
  9 17  1  1
 10 18  1  0
 11 19  1  0
 11 20  1  0
M  ISO  7  12  14  13  14  14  13  15  13  16  13  17  13  18  11
M  END
>  <minimizedAffinity>  (1) 
-4.16024303

>  <minimizedRMSD>  (1) 
0.0186578631

$$$$
