
     RDKit          3D

 24 25  0  0  0  0  0  0  0  0999 V2000
   46.7080   34.2430   40.7000 C   0  0  0  0  0  0  0  0  0  0  0  0
   48.0510   34.1790   41.3050 C   0  0  0  0  0  0  0  0  0  0  0  0
   48.7490   32.9790   41.1730 C   0  0  0  0  0  0  0  0  0  0  0  0
   50.0190   32.8760   41.7300 C   0  0  0  0  0  0  0  0  0  0  0  0
   50.5360   33.9480   42.3830 N   0  0  0  0  0  0  0  0  0  0  0  0
   49.8290   35.0980   42.4900 C   0  0  0  0  0  0  0  0  0  0  0  0
   48.6170   35.1880   41.9570 N   0  0  0  0  0  0  0  0  0  0  0  0
   48.0130   31.5870   40.2950 S   0  0  0  0  0  0  0  0  0  0  0  0
   45.6300   34.6120   41.6760 C   0  0  0  0  0  0  0  0  0  0  0  0
   44.2590   34.6040   41.0690 C   0  0  0  0  0  0  0  0  0  0  0  0
   43.2900   35.5650   41.5100 C   0  0  0  0  0  0  0  0  0  0  0  0
   41.8090   35.1550   40.4930 S   0  0  0  0  0  0  0  0  0  0  0  0
   42.7720   33.7560   39.6550 C   0  0  0  0  0  0  0  0  0  0  0  0
   43.7870   33.8040   40.1430 N   0  0  0  0  0  0  0  0  0  0  0  0
   42.3490   32.4380   38.2850 S   0  0  0  0  0  0  0  0  0  0  0  0
   46.7231   34.9947   39.8970 H   0  0  0  0  0  0  0  0  0  0  0  0
   46.4738   33.2362   40.3239 H   0  0  0  0  0  0  0  0  0  0  0  0
   50.5944   31.9425   41.6430 H   0  0  0  0  0  0  0  0  0  0  0  0
   50.2605   35.9599   43.0201 H   0  0  0  0  0  0  0  0  0  0  0  0
   47.5325   30.6783   41.2007 H   0  0  0  0  0  0  0  0  0  0  0  0
   45.6490   33.8919   42.5073 H   0  0  0  0  0  0  0  0  0  0  0  0
   45.8324   35.6385   42.0155 H   0  0  0  0  0  0  0  0  0  0  0  0
   43.4031   36.3532   42.2689 H   0  0  0  0  0  0  0  0  0  0  0  0
   41.9722   31.2638   38.8818 H   0  0  0  0  0  0  0  0  0  0  0  0
  1  2  1  0
  1  9  1  0
  2  7  1  0
  3  2  2  0
  3  4  1  0
  4  5  2  0
  5  6  1  0
  7  6  2  0
  8  3  1  0
 10 11  2  0
 10  9  1  0
 12 11  1  0
 13 14  2  0
 13 12  1  0
 14 10  1  0
 15 13  1  0
  1 16  1  0
  1 17  1  0
  4 18  1  0
  6 19  1  0
  8 20  1  0
  9 21  1  0
  9 22  1  0
 11 23  1  0
 15 24  1  0
M  ISO  8  16   8  17   8  18  14  19  14  20  11  21   8  22   8  23  14
M  ISO  1  24  11
M  END
>  <minimizedAffinity>  (1) 
-3.7714653

>  <minimizedRMSD>  (1) 
0.250170231

$$$$
