
     RDKit          3D

 41 43  0  0  0  0  0  0  0  0999 V2000
   45.8580   33.7970   40.5890 C   0  0  0  0  0  0  0  0  0  0  0  0
   46.3900   33.5100   39.3490 C   0  0  0  0  0  0  0  0  0  0  0  0
   47.6380   33.8980   38.9310 C   0  0  0  0  0  0  0  0  0  0  0  0
   48.3890   34.6310   39.8580 C   0  0  0  0  0  0  0  0  0  0  0  0
   47.9140   34.9450   41.1040 C   0  0  0  0  0  0  0  0  0  0  0  0
   46.6650   34.5360   41.4700 C   0  0  0  0  0  0  0  0  0  0  0  0
   46.2630   34.9030   42.7740 N   0  0  0  0  0  0  0  0  0  0  0  0
   45.3800   35.9920   43.0770 C   0  0  0  0  0  0  0  0  0  0  0  0
   44.7770   35.8490   44.4510 C   0  0  0  0  0  0  0  0  0  0  0  0
   44.4400   34.5180   44.7950 N   0  0  0  0  0  0  0  0  0  0  0  0
   45.4870   33.5820   44.6800 C   0  0  0  0  0  0  0  0  0  0  0  0
   46.6850   34.2270   44.0090 C   0  0  0  0  0  0  0  0  0  0  0  0
   44.5240   33.3860   41.0270 C   0  0  0  0  0  0  0  0  0  0  0  0
   43.7340   32.7600   39.8960 C   0  0  0  0  0  0  0  0  0  0  0  0
   41.4180   35.5170   38.7630 C   0  0  0  0  0  0  0  0  0  0  0  0
   42.6080   34.7830   38.9880 C   0  0  0  0  0  0  0  0  0  0  0  0
   42.5110   33.5570   39.6520 C   0  0  0  0  0  0  0  0  0  0  0  0
   41.2670   33.1360   40.0480 N   0  0  0  0  0  0  0  0  0  0  0  0
   40.1660   33.8540   39.8190 C   0  0  0  0  0  0  0  0  0  0  0  0
   40.2340   35.0370   39.1810 N   0  0  0  0  0  0  0  0  0  0  0  0
   38.6010   33.2000   40.3830 S   0  0  0  0  0  0  0  0  0  0  0  0
   45.7716   32.9307   38.6476 H   0  0  0  0  0  0  0  0  0  0  0  0
   48.0239   33.6491   37.9314 H   0  0  0  0  0  0  0  0  0  0  0  0
   49.3975   34.9671   39.5753 H   0  0  0  0  0  0  0  0  0  0  0  0
   48.5351   35.5227   41.8043 H   0  0  0  0  0  0  0  0  0  0  0  0
   45.9459   36.9342   43.0314 H   0  0  0  0  0  0  0  0  0  0  0  0
   44.5634   35.9893   42.3400 H   0  0  0  0  0  0  0  0  0  0  0  0
   45.5024   36.2239   45.1881 H   0  0  0  0  0  0  0  0  0  0  0  0
   43.8398   36.4248   44.4493 H   0  0  0  0  0  0  0  0  0  0  0  0
   44.1162   34.5145   45.7728 H   0  0  0  0  0  0  0  0  0  0  0  0
   45.7750   33.2320   45.6823 H   0  0  0  0  0  0  0  0  0  0  0  0
   45.1465   32.7307   44.0723 H   0  0  0  0  0  0  0  0  0  0  0  0
   47.4274   33.4527   43.7655 H   0  0  0  0  0  0  0  0  0  0  0  0
   47.1287   34.9657   44.6927 H   0  0  0  0  0  0  0  0  0  0  0  0
   44.6256   32.6524   41.8403 H   0  0  0  0  0  0  0  0  0  0  0  0
   43.9837   34.2806   41.3702 H   0  0  0  0  0  0  0  0  0  0  0  0
   44.3490   32.7427   38.9842 H   0  0  0  0  0  0  0  0  0  0  0  0
   43.4546   31.7314   40.1677 H   0  0  0  0  0  0  0  0  0  0  0  0
   41.4628   36.4854   38.2432 H   0  0  0  0  0  0  0  0  0  0  0  0
   43.5816   35.1671   38.6496 H   0  0  0  0  0  0  0  0  0  0  0  0
   38.5772   33.1901   41.7528 H   0  0  0  0  0  0  0  0  0  0  0  0
  1 13  1  0
  1  6  1  0
  2  1  2  0
  3  2  1  0
  3  4  2  0
  4  5  1  0
  5  6  2  0
  6  7  1  0
  7  8  1  0
  7 12  1  0
  8  9  1  0
  9 10  1  0
 11 10  1  0
 12 11  1  0
 14 13  1  0
 15 16  2  0
 15 20  1  0
 16 17  1  0
 17 14  1  0
 17 18  2  0
 19 18  1  0
 19 21  1  0
 20 19  2  0
  2 22  1  0
  3 23  1  0
  4 24  1  0
  5 25  1  0
  8 26  1  0
  8 27  1  0
  9 28  1  0
  9 29  1  0
 10 30  1  0
 11 31  1  0
 11 32  1  0
 12 33  1  0
 12 34  1  0
 13 35  1  0
 13 36  1  0
 14 37  1  0
 14 38  1  0
 15 39  1  0
 16 40  1  0
 21 41  1  0
M  ISO  8  22  14  23  14  24  14  25  14  26  13  27  13  28  13  29  13
M  ISO  8  30   5  31  13  32  13  33  13  34  13  35   8  36   8  37   8
M  ISO  4  38   8  39  14  40  14  41  11
M  END
>  <minimizedAffinity>  (1) 
-5.41124249

>  <minimizedRMSD>  (1) 
0.880832613

$$$$
