
     RDKit          3D

 25 27  0  0  1  0  0  0  0  0999 V2000
   46.8910   33.0020   40.2950 C   0  0  1  0  0  0  0  0  0  0  0  0
   46.1280   31.9300   41.0790 C   0  0  0  0  0  0  0  0  0  0  0  0
   45.4400   33.0920   40.5470 C   0  0  1  0  0  0  0  0  0  0  0  0
   47.8930   33.7690   41.0630 C   0  0  0  0  0  0  0  0  0  0  0  0
   48.1170   35.1140   40.7190 C   0  0  0  0  0  0  0  0  0  0  0  0
   49.0790   35.8190   41.4570 C   0  0  0  0  0  0  0  0  0  0  0  0
   49.7420   35.1560   42.4690 N   0  0  0  0  0  0  0  0  0  0  0  0
   49.4840   33.8560   42.7560 C   0  0  0  0  0  0  0  0  0  0  0  0
   48.5650   33.1660   42.0560 N   0  0  0  0  0  0  0  0  0  0  0  0
   44.9950   34.1250   41.5340 C   0  0  0  0  0  0  0  0  0  0  0  0
   44.3330   35.3320   41.3690 C   0  0  0  0  0  0  0  0  0  0  0  0
   44.1380   35.9010   42.5780 N   0  0  0  0  0  0  0  0  0  0  0  0
   44.6650   35.0680   43.4720 C   0  0  0  0  0  0  0  0  0  0  0  0
   45.1920   33.9840   42.8880 N   0  0  0  0  0  0  0  0  0  0  0  0
   44.6660   35.3650   45.2450 S   0  0  0  0  0  0  0  0  0  0  0  0
   47.4999   33.0927   39.3834 H   0  0  0  0  0  0  0  0  0  0  0  0
   45.9590   30.9374   40.6360 H   0  0  0  0  0  0  0  0  0  0  0  0
   46.2284   31.4666   42.0716 H   0  0  0  0  0  0  0  0  0  0  0  0
   44.5608   33.2218   39.8988 H   0  0  0  0  0  0  0  0  0  0  0  0
   47.5589   35.5949   39.9021 H   0  0  0  0  0  0  0  0  0  0  0  0
   49.2992   36.8735   41.2346 H   0  0  0  0  0  0  0  0  0  0  0  0
   50.0323   33.3598   43.5704 H   0  0  0  0  0  0  0  0  0  0  0  0
   44.0167   35.7586   40.4057 H   0  0  0  0  0  0  0  0  0  0  0  0
   43.6740   36.8003   42.7699 H   0  0  0  0  0  0  0  0  0  0  0  0
   44.6620   34.1666   45.9088 H   0  0  0  0  0  0  0  0  0  0  0  0
  1  3  1  0
  1  4  1  0
  1  2  1  0
  3  2  1  0
  3 10  1  0
  4  9  1  0
  5  4  2  0
  5  6  1  0
  6  7  2  0
  7  8  1  0
  9  8  2  0
 10 14  1  0
 11 10  2  0
 11 12  1  0
 12 13  1  0
 13 15  1  0
 14 13  2  0
  1 16  1  6
  2 17  1  0
  2 18  1  0
  3 19  1  6
  5 20  1  0
  6 21  1  0
  8 22  1  0
 11 23  1  0
 12 24  1  0
 15 25  1  0
M  ISO  8  16  13  17  13  18  13  19  13  20  14  21  14  22  14  23  14
M  ISO  2  24   9  25  11
M  END
>  <minimizedAffinity>  (1) 
-4.05953217

>  <minimizedRMSD>  (1) 
1.38039589

$$$$
