
     RDKit          3D

 38 41  0  0  1  0  0  0  0  0999 V2000
   47.4720   32.5240   44.3360 C   0  0  0  0  0  0  0  0  0  0  0  0
   46.7740   33.4950   43.6240 C   0  0  0  0  0  0  0  0  0  0  0  0
   45.7380   34.2380   44.1780 C   0  0  0  0  0  0  0  0  0  0  0  0
   45.3670   34.0150   45.5020 C   0  0  0  0  0  0  0  0  0  0  0  0
   44.4510   34.5140   46.3540 N   0  0  0  0  0  0  0  0  0  0  0  0
   44.5500   33.9050   47.5430 C   0  0  0  0  0  0  0  0  0  0  0  0
   45.5500   33.0090   47.4200 N   0  0  0  0  0  0  0  0  0  0  0  0
   46.0730   33.0470   46.1870 C   0  0  0  0  0  0  0  0  0  0  0  0
   47.1030   32.2940   45.6680 C   0  0  0  0  0  0  0  0  0  0  0  0
   47.0010   33.1540   39.9830 C   0  0  0  0  0  0  0  0  0  0  0  0
   47.8390   34.2250   39.6250 C   0  0  0  0  0  0  0  0  0  0  0  0
   48.3130   35.0490   40.6410 C   0  0  0  0  0  0  0  0  0  0  0  0
   47.9540   34.7930   41.9400 N   0  0  0  0  0  0  0  0  0  0  0  0
   47.1430   33.7470   42.2380 C   0  0  0  0  0  0  0  0  0  0  0  0
   46.6510   32.9120   41.2830 N   0  0  0  0  0  0  0  0  0  0  0  0
   44.8670   35.4680   43.2490 S   0  0  0  0  0  0  0  0  0  0  0  0
   42.3620   35.3340   42.4750 N   0  0  0  0  0  0  0  0  0  0  0  0
   43.6560   34.7960   42.0910 C   0  0  1  0  0  0  0  0  0  0  0  0
   44.0660   35.3030   40.7110 C   0  0  0  0  0  0  0  0  0  0  0  0
   43.0370   35.2840   39.7910 O   0  0  0  0  0  0  0  0  0  0  0  0
   41.9030   34.6140   40.1790 C   0  0  0  0  0  0  0  0  0  0  0  0
   41.3690   35.2050   41.4540 C   0  0  1  0  0  0  0  0  0  0  0  0
   40.0880   34.0630   42.0810 S   0  0  0  0  0  0  0  0  0  0  0  0
   48.2883   31.9546   43.8675 H   0  0  0  0  0  0  0  0  0  0  0  0
   43.7736   35.2553   46.1249 H   0  0  0  0  0  0  0  0  0  0  0  0
   43.9396   34.0969   48.4378 H   0  0  0  0  0  0  0  0  0  0  0  0
   47.6183   31.5378   46.2784 H   0  0  0  0  0  0  0  0  0  0  0  0
   46.6155   32.4912   39.1943 H   0  0  0  0  0  0  0  0  0  0  0  0
   48.1112   34.4057   38.5746 H   0  0  0  0  0  0  0  0  0  0  0  0
   48.9702   35.8988   40.4045 H   0  0  0  0  0  0  0  0  0  0  0  0
   42.0355   34.8327   43.3135 H   0  0  0  0  0  0  0  0  0  0  0  0
   43.6060   33.6971   42.0894 H   0  0  0  0  0  0  0  0  0  0  0  0
   44.4239   36.3382   40.8122 H   0  0  0  0  0  0  0  0  0  0  0  0
   44.8485   34.6267   40.3364 H   0  0  0  0  0  0  0  0  0  0  0  0
   41.1411   34.6999   39.3903 H   0  0  0  0  0  0  0  0  0  0  0  0
   42.1482   33.5548   40.3463 H   0  0  0  0  0  0  0  0  0  0  0  0
   40.9906   36.2126   41.2270 H   0  0  0  0  0  0  0  0  0  0  0  0
   40.0987   34.0725   43.4509 H   0  0  0  0  0  0  0  0  0  0  0  0
  1  9  2  0
  2  3  2  0
  2  1  1  0
  3  4  1  0
  4  8  2  0
  4  5  1  0
  5  6  1  0
  7  6  2  0
  8  7  1  0
  9  8  1  0
 10 15  2  0
 11 10  1  0
 11 12  2  0
 12 13  1  0
 13 14  2  0
 14  2  1  0
 15 14  1  0
 16  3  1  0
 18 17  1  0
 18 16  1  0
 19 18  1  0
 20 21  1  0
 20 19  1  0
 21 22  1  0
 22 23  1  0
 22 17  1  0
  1 24  1  0
  5 25  1  0
  6 26  1  0
  9 27  1  0
 10 28  1  0
 11 29  1  0
 12 30  1  0
 17 31  1  0
 18 32  1  6
 19 33  1  0
 19 34  1  0
 21 35  1  0
 21 36  1  0
 22 37  1  6
 23 38  1  0
M  ISO  8  24  14  25   9  26  14  27  14  28  14  29  14  30  14  31   5
M  ISO  7  32  13  33  13  34  13  35  13  36  13  37  13  38  11
M  END
>  <minimizedAffinity>  (1) 
-5.51588535

>  <minimizedRMSD>  (1) 
0.30243808

$$$$
