
     RDKit          3D

 26 26  0  0  0  0  0  0  0  0999 V2000
   43.4390   35.5250   41.6920 C   0  0  0  0  0  0  0  0  0  0  0  0
   43.2760   35.6410   43.1300 N   0  0  0  0  0  0  0  0  0  0  0  0
   44.7480   35.9130   43.9650 S   0  0  0  0  0  0  0  0  0  0  0  0
   45.9100   35.3430   43.2220 O   0  0  0  0  0  0  0  0  0  0  0  0
   44.8890   37.4030   44.0980 O   0  0  0  0  0  0  0  0  0  0  0  0
   44.6440   35.2770   45.5110 O   0  0  0  0  0  0  0  0  0  0  0  0
   45.3870   34.1150   45.6530 C   0  0  0  0  0  0  0  0  0  0  0  0
   43.1680   33.7990   41.2760 S   0  0  0  0  0  0  0  0  0  0  0  0
   40.6290   32.9350   40.5720 C   0  0  0  0  0  0  0  0  0  0  0  0
   41.7300   33.6690   40.1820 C   0  0  0  0  0  0  0  0  0  0  0  0
   41.7690   34.3290   38.9390 C   0  0  0  0  0  0  0  0  0  0  0  0
   40.6600   34.1920   38.1680 N   0  0  0  0  0  0  0  0  0  0  0  0
   39.6120   33.4770   38.5710 C   0  0  0  0  0  0  0  0  0  0  0  0
   39.5680   32.8490   39.7480 N   0  0  0  0  0  0  0  0  0  0  0  0
   38.1750   33.3360   37.4980 S   0  0  0  0  0  0  0  0  0  0  0  0
   42.7035   36.1590   41.1752 H   0  0  0  0  0  0  0  0  0  0  0  0
   44.4418   35.8530   41.3809 H   0  0  0  0  0  0  0  0  0  0  0  0
   42.6410   36.4285   43.3237 H   0  0  0  0  0  0  0  0  0  0  0  0
   46.5841   35.0123   43.8672 H   0  0  0  0  0  0  0  0  0  0  0  0
   44.9122   37.6480   45.0569 H   0  0  0  0  0  0  0  0  0  0  0  0
   45.5263   33.8972   46.7222 H   0  0  0  0  0  0  0  0  0  0  0  0
   44.8554   33.2791   45.1747 H   0  0  0  0  0  0  0  0  0  0  0  0
   46.3688   34.2468   45.1747 H   0  0  0  0  0  0  0  0  0  0  0  0
   40.6182   32.4251   41.5466 H   0  0  0  0  0  0  0  0  0  0  0  0
   42.6402   34.9167   38.6141 H   0  0  0  0  0  0  0  0  0  0  0  0
   37.0435   33.2250   38.2623 H   0  0  0  0  0  0  0  0  0  0  0  0
  1  2  1  0
  2  3  1  0
  3  5  1  0
  3  6  1  0
  4  3  1  0
  6  7  1  0
  8  1  1  0
 10  9  2  0
 10  8  1  0
 11 10  1  0
 12 13  1  0
 12 11  2  0
 13 14  2  0
 14  9  1  0
 15 13  1  0
  1 16  1  0
  1 17  1  0
  2 18  1  0
  4 19  1  0
  5 20  1  0
  7 21  1  0
  7 22  1  0
  7 23  1  0
  9 24  1  0
 11 25  1  0
 15 26  1  0
M  ISO  8  16   8  17   8  18   5  19   3  20   3  21   8  22   8  23   8
M  ISO  3  24  14  25  14  26  11
M  END
>  <minimizedAffinity>  (1) 
-4.44809914

>  <minimizedRMSD>  (1) 
1.06784618

$$$$
