
     RDKit          3D

 54 58  0  0  0  0  0  0  0  0999 V2000
   49.9160   30.4870   49.6950 C   0  0  0  0  0  0  0  0  0  0  0  0
   50.1050   31.7810   50.1110 N   0  0  0  0  0  0  0  0  0  0  0  0
   50.8350   32.1120   51.1660 C   0  0  0  0  0  0  0  0  0  0  0  0
   51.4130   31.1210   51.8510 N   0  0  0  0  0  0  0  0  0  0  0  0
   51.2800   29.8380   51.5160 C   0  0  0  0  0  0  0  0  0  0  0  0
   51.8950   28.8180   52.2390 C   0  0  0  0  0  0  0  0  0  0  0  0
   51.7410   27.5020   51.8660 C   0  0  0  0  0  0  0  0  0  0  0  0
   50.9700   27.1850   50.7670 C   0  0  0  0  0  0  0  0  0  0  0  0
   50.3530   28.1850   50.0330 C   0  0  0  0  0  0  0  0  0  0  0  0
   50.5100   29.4830   50.4050 C   0  0  0  0  0  0  0  0  0  0  0  0
   49.5460   27.7260   48.8930 C   0  0  0  0  0  0  0  0  0  0  0  0
   49.4700   26.1820   48.8170 C   0  0  0  0  0  0  0  0  0  0  0  0
   47.9830   25.9330   48.4550 C   0  0  0  0  0  0  0  0  0  0  0  0
   47.8610   24.5230   47.9020 C   0  0  0  0  0  0  0  0  0  0  0  0
   48.9840   23.6990   48.4670 C   0  0  0  0  0  0  0  0  0  0  0  0
   50.3130   24.1360   47.8600 C   0  0  0  0  0  0  0  0  0  0  0  0
   50.2000   25.6330   47.6300 C   0  0  0  0  0  0  0  0  0  0  0  0
   48.9970   30.1190   48.2880 S   0  0  0  0  0  0  0  0  0  0  0  0
   46.1480   32.6150   47.0030 C   0  0  0  0  0  0  0  0  0  0  0  0
   47.2960   31.8620   47.1200 C   0  0  0  0  0  0  0  0  0  0  0  0
   47.5010   31.0270   48.1900 C   0  0  0  0  0  0  0  0  0  0  0  0
   46.5520   30.9220   49.1820 C   0  0  0  0  0  0  0  0  0  0  0  0
   45.3980   31.6430   49.1170 C   0  0  0  0  0  0  0  0  0  0  0  0
   45.2140   32.4740   48.0350 C   0  0  0  0  0  0  0  0  0  0  0  0
   44.7310   35.2880   44.9720 C   0  0  0  0  0  0  0  0  0  0  0  0
   45.4690   35.2040   43.7610 C   0  0  0  0  0  0  0  0  0  0  0  0
   46.4480   34.2240   43.6580 C   0  0  0  0  0  0  0  0  0  0  0  0
   46.6850   33.3710   44.7030 N   0  0  0  0  0  0  0  0  0  0  0  0
   45.9350   33.4990   45.8610 C   0  0  0  0  0  0  0  0  0  0  0  0
   44.9700   34.4480   45.9900 N   0  0  0  0  0  0  0  0  0  0  0  0
   50.9605   33.1627   51.4665 H   0  0  0  0  0  0  0  0  0  0  0  0
   52.5097   29.0669   53.1166 H   0  0  0  0  0  0  0  0  0  0  0  0
   52.2319   26.7046   52.4432 H   0  0  0  0  0  0  0  0  0  0  0  0
   50.8444   26.1328   50.4719 H   0  0  0  0  0  0  0  0  0  0  0  0
   48.5267   28.1266   48.9959 H   0  0  0  0  0  0  0  0  0  0  0  0
   50.0258   28.0871   47.9714 H   0  0  0  0  0  0  0  0  0  0  0  0
   49.8694   25.7373   49.7404 H   0  0  0  0  0  0  0  0  0  0  0  0
   47.3581   26.0360   49.3544 H   0  0  0  0  0  0  0  0  0  0  0  0
   47.6451   26.6659   47.7075 H   0  0  0  0  0  0  0  0  0  0  0  0
   46.8947   24.0889   48.1985 H   0  0  0  0  0  0  0  0  0  0  0  0
   47.9165   24.5392   46.8035 H   0  0  0  0  0  0  0  0  0  0  0  0
   49.0207   23.8339   49.5581 H   0  0  0  0  0  0  0  0  0  0  0  0
   48.8095   22.6400   48.2259 H   0  0  0  0  0  0  0  0  0  0  0  0
   51.1391   23.9176   48.5527 H   0  0  0  0  0  0  0  0  0  0  0  0
   50.5215   23.6003   46.9222 H   0  0  0  0  0  0  0  0  0  0  0  0
   51.2004   26.0842   47.5549 H   0  0  0  0  0  0  0  0  0  0  0  0
   49.6688   25.8565   46.6930 H   0  0  0  0  0  0  0  0  0  0  0  0
   48.0662   31.9316   46.3377 H   0  0  0  0  0  0  0  0  0  0  0  0
   46.7273   30.2497   50.0349 H   0  0  0  0  0  0  0  0  0  0  0  0
   44.6356   31.5635   49.9059 H   0  0  0  0  0  0  0  0  0  0  0  0
   44.2835   33.0580   47.9789 H   0  0  0  0  0  0  0  0  0  0  0  0
   43.9499   36.0554   45.0766 H   0  0  0  0  0  0  0  0  0  0  0  0
   45.2708   35.8953   42.9286 H   0  0  0  0  0  0  0  0  0  0  0  0
   47.0358   34.1326   42.7327 H   0  0  0  0  0  0  0  0  0  0  0  0
  1  2  2  0
  1 10  1  0
  2  3  1  0
  3  4  2  0
  5  4  1  0
  5  6  2  0
  7  6  1  0
  8  7  2  0
  9 10  2  0
  9  8  1  0
 10  5  1  0
 11  9  1  0
 12 11  1  0
 13 12  1  0
 14 13  1  0
 14 15  1  0
 16 15  1  0
 17 16  1  0
 17 12  1  0
 18  1  1  0
 19 20  2  0
 19 24  1  0
 20 21  1  0
 21 18  1  0
 21 22  2  0
 23 22  1  0
 24 23  2  0
 25 30  2  0
 26 25  1  0
 27 26  2  0
 27 28  1  0
 28 29  2  0
 29 30  1  0
 29 19  1  0
  3 31  1  0
  6 32  1  0
  7 33  1  0
  8 34  1  0
 11 35  1  0
 11 36  1  0
 12 37  1  0
 13 38  1  0
 13 39  1  0
 14 40  1  0
 14 41  1  0
 15 42  1  0
 15 43  1  0
 16 44  1  0
 16 45  1  0
 17 46  1  0
 17 47  1  0
 20 48  1  0
 22 49  1  0
 23 50  1  0
 24 51  1  0
 25 52  1  0
 26 53  1  0
 27 54  1  0
M  ISO  8  31  14  32  14  33  14  34  14  35   8  36   8  37  13  38  13
M  ISO  8  39  13  40  13  41  13  42  13  43  13  44  13  45  13  46  13
M  ISO  8  47  13  48  14  49  14  50  14  51  14  52  14  53  14  54  14
M  END
>  <minimizedAffinity>  (1) 
-6.56192827

>  <minimizedRMSD>  (1) 
0.695240796

$$$$
