
     RDKit          3D

 32 33  0  0  1  0  0  0  0  0999 V2000
   45.8780   35.2450   42.4260 C   0  0  2  0  0  0  0  0  0  0  0  0
   44.8420   35.2850   44.6520 C   0  0  0  0  0  0  0  0  0  0  0  0
   45.7850   34.6940   43.7740 C   0  0  0  0  0  0  0  0  0  0  0  0
   46.5600   33.6410   44.2670 C   0  0  0  0  0  0  0  0  0  0  0  0
   46.3560   33.2550   45.5500 N   0  0  0  0  0  0  0  0  0  0  0  0
   45.4570   33.8380   46.3470 C   0  0  0  0  0  0  0  0  0  0  0  0
   44.6900   34.8510   45.9230 N   0  0  0  0  0  0  0  0  0  0  0  0
   44.7850   34.7960   41.4790 C   0  0  0  0  0  0  0  0  0  0  0  0
   44.4420   33.3480   41.6680 C   0  0  0  0  0  0  0  0  0  0  0  0
   43.0570   32.9970   41.1880 C   0  0  0  0  0  0  0  0  0  0  0  0
   42.6350   33.9200   40.0590 C   0  0  0  0  0  0  0  0  0  0  0  0
   42.4370   35.2620   40.6860 C   0  0  0  0  0  0  0  0  0  0  0  0
   43.6050   35.7130   41.4680 C   0  0  0  0  0  0  0  0  0  0  0  0
   47.2750   34.9190   41.9150 C   0  0  0  0  0  0  0  0  0  0  0  0
   45.7166   36.3321   42.4715 H   0  0  0  0  0  0  0  0  0  0  0  0
   44.2192   36.1165   44.2904 H   0  0  0  0  0  0  0  0  0  0  0  0
   47.3100   33.1424   43.6354 H   0  0  0  0  0  0  0  0  0  0  0  0
   45.3433   33.4766   47.3797 H   0  0  0  0  0  0  0  0  0  0  0  0
   45.1912   34.8716   40.4595 H   0  0  0  0  0  0  0  0  0  0  0  0
   45.1696   32.7408   41.1095 H   0  0  0  0  0  0  0  0  0  0  0  0
   44.4746   33.1432   42.7483 H   0  0  0  0  0  0  0  0  0  0  0  0
   43.0516   31.9579   40.8271 H   0  0  0  0  0  0  0  0  0  0  0  0
   42.3513   33.1121   42.0239 H   0  0  0  0  0  0  0  0  0  0  0  0
   41.6974   33.5667   39.6050 H   0  0  0  0  0  0  0  0  0  0  0  0
   43.3888   33.9532   39.2586 H   0  0  0  0  0  0  0  0  0  0  0  0
   42.2444   35.9957   39.8894 H   0  0  0  0  0  0  0  0  0  0  0  0
   41.5890   35.1775   41.3815 H   0  0  0  0  0  0  0  0  0  0  0  0
   43.9335   36.6779   41.0545 H   0  0  0  0  0  0  0  0  0  0  0  0
   43.2600   35.7617   42.5114 H   0  0  0  0  0  0  0  0  0  0  0  0
   47.9503   34.7614   42.7689 H   0  0  0  0  0  0  0  0  0  0  0  0
   47.2378   34.0054   41.3035 H   0  0  0  0  0  0  0  0  0  0  0  0
   47.6460   35.7547   41.3035 H   0  0  0  0  0  0  0  0  0  0  0  0
  1  3  1  0
  2  7  2  0
  3  4  2  0
  3  2  1  0
  4  5  1  0
  5  6  2  0
  7  6  1  0
  8  9  1  0
  8  1  1  0
 10  9  1  0
 11 12  1  0
 11 10  1  0
 12 13  1  0
 13  8  1  0
 14  1  1  0
  1 15  1  1
  2 16  1  0
  4 17  1  0
  6 18  1  0
  8 19  1  0
  9 20  1  0
  9 21  1  0
 10 22  1  0
 10 23  1  0
 11 24  1  0
 11 25  1  0
 12 26  1  0
 12 27  1  0
 13 28  1  0
 13 29  1  0
 14 30  1  0
 14 31  1  0
 14 32  1  0
M  ISO  8  15   8  16  14  17  14  18  14  19  13  20  13  21  13  22  13
M  ISO  8  23  13  24  13  25  13  26  13  27  13  28  13  29  13  30   8
M  ISO  2  31   8  32   8
M  END
>  <minimizedAffinity>  (1) 
-4.3677659

>  <minimizedRMSD>  (1) 
1.55420816

$$$$
