
     RDKit          3D

 42 44  0  0  0  0  0  0  0  0999 V2000
   46.6770   34.8090   42.6880 C   0  0  0  0  0  0  0  0  0  0  0  0
   47.8780   34.4630   42.0560 C   0  0  0  0  0  0  0  0  0  0  0  0
   48.6190   33.4040   42.6110 C   0  0  0  0  0  0  0  0  0  0  0  0
   48.1180   32.7910   43.7190 N   0  0  0  0  0  0  0  0  0  0  0  0
   46.9550   33.1550   44.2970 C   0  0  0  0  0  0  0  0  0  0  0  0
   46.2420   34.1620   43.7780 N   0  0  0  0  0  0  0  0  0  0  0  0
   45.9540   30.3150   43.7880 Cl  0  0  0  0  0  0  0  0  0  0  0  0
   46.0100   31.1480   45.3500 C   0  0  0  0  0  0  0  0  0  0  0  0
   46.4850   32.4490   45.4830 C   0  0  0  0  0  0  0  0  0  0  0  0
   46.5180   33.0750   46.7080 C   0  0  0  0  0  0  0  0  0  0  0  0
   46.0630   32.3770   47.8260 C   0  0  0  0  0  0  0  0  0  0  0  0
   45.6020   31.0980   47.6570 C   0  0  0  0  0  0  0  0  0  0  0  0
   45.0420   30.2670   49.0900 Cl  0  0  0  0  0  0  0  0  0  0  0  0
   45.5570   30.4490   46.4470 C   0  0  0  0  0  0  0  0  0  0  0  0
   48.3080   35.1990   40.8730 C   0  0  0  0  0  0  0  0  0  0  0  0
   48.6460   34.2120   39.8010 C   0  0  0  0  0  0  0  0  0  0  0  0
   47.6800   34.1490   38.6450 C   0  0  0  0  0  0  0  0  0  0  0  0
   46.7700   32.9600   38.7050 C   0  0  0  0  0  0  0  0  0  0  0  0
   47.1330   31.8080   37.8330 C   0  0  0  0  0  0  0  0  0  0  0  0
   47.7070   32.1600   36.5020 C   0  0  0  0  0  0  0  0  0  0  0  0
   48.6910   33.2690   36.4990 C   0  0  0  0  0  0  0  0  0  0  0  0
   48.2760   34.4350   37.3120 C   0  0  0  0  0  0  0  0  0  0  0  0
   46.0749   35.6336   42.2789 H   0  0  0  0  0  0  0  0  0  0  0  0
   49.5714   33.0817   42.1649 H   0  0  0  0  0  0  0  0  0  0  0  0
   46.8952   34.1039   46.8032 H   0  0  0  0  0  0  0  0  0  0  0  0
   46.0740   32.8432   48.8222 H   0  0  0  0  0  0  0  0  0  0  0  0
   45.1774   29.4204   46.3585 H   0  0  0  0  0  0  0  0  0  0  0  0
   47.4965   35.8574   40.5296 H   0  0  0  0  0  0  0  0  0  0  0  0
   49.1873   35.8160   41.1101 H   0  0  0  0  0  0  0  0  0  0  0  0
   49.6365   34.4735   39.4004 H   0  0  0  0  0  0  0  0  0  0  0  0
   48.6069   33.2225   40.2800 H   0  0  0  0  0  0  0  0  0  0  0  0
   47.0111   35.0114   38.7824 H   0  0  0  0  0  0  0  0  0  0  0  0
   46.7544   32.6017   39.7449 H   0  0  0  0  0  0  0  0  0  0  0  0
   45.7976   33.3151   38.3332 H   0  0  0  0  0  0  0  0  0  0  0  0
   47.8742   31.1980   38.3701 H   0  0  0  0  0  0  0  0  0  0  0  0
   46.1900   31.2819   37.6232 H   0  0  0  0  0  0  0  0  0  0  0  0
   48.2054   31.2649   36.1015 H   0  0  0  0  0  0  0  0  0  0  0  0
   46.8600   32.5091   35.8931 H   0  0  0  0  0  0  0  0  0  0  0  0
   49.6435   32.8893   36.8972 H   0  0  0  0  0  0  0  0  0  0  0  0
   48.7799   33.6172   35.4594 H   0  0  0  0  0  0  0  0  0  0  0  0
   49.1659   35.0611   37.4734 H   0  0  0  0  0  0  0  0  0  0  0  0
   47.4713   34.9146   36.7353 H   0  0  0  0  0  0  0  0  0  0  0  0
  1  6  2  0
  2  3  2  0
  2  1  1  0
  3  4  1  0
  4  5  2  0
  5  9  1  0
  6  5  1  0
  7  8  1  0
  8  9  2  0
  8 14  1  0
  9 10  1  0
 10 11  2  0
 12 11  1  0
 12 13  1  0
 14 12  2  0
 15  2  1  0
 16 15  1  0
 17 18  1  0
 17 16  1  0
 19 18  1  0
 20 19  1  0
 21 20  1  0
 21 22  1  0
 22 17  1  0
  1 23  1  0
  3 24  1  0
 10 25  1  0
 11 26  1  0
 14 27  1  0
 15 28  1  0
 15 29  1  0
 16 30  1  0
 16 31  1  0
 17 32  1  0
 18 33  1  0
 18 34  1  0
 19 35  1  0
 19 36  1  0
 20 37  1  0
 20 38  1  0
 21 39  1  0
 21 40  1  0
 22 41  1  0
 22 42  1  0
M  ISO  8  23  14  24  14  25  14  26  14  27  14  28   8  29   8  30   8
M  ISO  8  31   8  32  13  33  13  34  13  35  13  36  13  37  13  38  13
M  ISO  4  39  13  40  13  41  13  42  13
M  END
>  <minimizedAffinity>  (1) 
-5.11128235

>  <minimizedRMSD>  (1) 
1.33047462

$$$$
