
     RDKit          3D

 46 48  0  0  0  0  0  0  0  0999 V2000
   45.6730   31.6530   47.1640 C   0  0  0  0  0  0  0  0  0  0  0  0
   45.6070   32.1140   48.4740 C   0  0  0  0  0  0  0  0  0  0  0  0
   45.3740   31.2860   49.5580 C   0  0  0  0  0  0  0  0  0  0  0  0
   45.2020   29.9490   49.3070 C   0  0  0  0  0  0  0  0  0  0  0  0
   45.2670   29.4800   47.9920 C   0  0  0  0  0  0  0  0  0  0  0  0
   45.4960   30.3320   46.9940 N   0  0  0  0  0  0  0  0  0  0  0  0
   44.7720   36.5950   43.8040 C   0  0  0  0  0  0  0  0  0  0  0  0
   45.6560   36.2830   42.7740 C   0  0  0  0  0  0  0  0  0  0  0  0
   46.3170   35.0540   42.8170 C   0  0  0  0  0  0  0  0  0  0  0  0
   46.0700   34.2150   43.8660 N   0  0  0  0  0  0  0  0  0  0  0  0
   45.1970   34.5610   44.8540 C   0  0  0  0  0  0  0  0  0  0  0  0
   44.5430   35.7600   44.8230 N   0  0  0  0  0  0  0  0  0  0  0  0
   45.9240   32.5860   46.0620 C   0  0  0  0  0  0  0  0  0  0  0  0
   46.9230   32.4100   45.3340 O   0  0  0  0  0  0  0  0  0  0  0  0
   44.9880   33.6440   45.9070 N   0  0  0  0  0  0  0  0  0  0  0  0
   45.0850   28.0660   47.7460 C   0  0  0  0  0  0  0  0  0  0  0  0
   44.3490   27.3380   48.5740 C   0  0  0  0  0  0  0  0  0  0  0  0
   44.0570   25.8780   48.4780 C   0  0  0  0  0  0  0  0  0  0  0  0
   45.4040   25.1750   48.3990 C   0  0  0  0  0  0  0  0  0  0  0  0
   45.2000   23.9390   47.5280 C   0  0  0  0  0  0  0  0  0  0  0  0
   46.3940   23.0300   47.6530 C   0  0  0  0  0  0  0  0  0  0  0  0
   47.5820   23.8220   48.1110 C   0  0  0  0  0  0  0  0  0  0  0  0
   47.3730   24.3350   49.5340 C   0  0  0  0  0  0  0  0  0  0  0  0
   45.9370   24.7620   49.7330 C   0  0  0  0  0  0  0  0  0  0  0  0
   45.7468   33.1895   48.6578 H   0  0  0  0  0  0  0  0  0  0  0  0
   45.3285   31.6852   50.5820 H   0  0  0  0  0  0  0  0  0  0  0  0
   45.0141   29.2500   50.1353 H   0  0  0  0  0  0  0  0  0  0  0  0
   44.2448   37.5601   43.7784 H   0  0  0  0  0  0  0  0  0  0  0  0
   45.8291   36.9874   41.9471 H   0  0  0  0  0  0  0  0  0  0  0  0
   47.0219   34.7674   42.0227 H   0  0  0  0  0  0  0  0  0  0  0  0
   44.1830   33.7388   46.5425 H   0  0  0  0  0  0  0  0  0  0  0  0
   45.5575   27.5948   46.8715 H   0  0  0  0  0  0  0  0  0  0  0  0
   43.9036   27.8700   49.4276 H   0  0  0  0  0  0  0  0  0  0  0  0
   43.5037   25.5414   49.3671 H   0  0  0  0  0  0  0  0  0  0  0  0
   43.4371   25.6523   47.5978 H   0  0  0  0  0  0  0  0  0  0  0  0
   46.1446   25.8730   47.9814 H   0  0  0  0  0  0  0  0  0  0  0  0
   45.0822   24.2463   46.4784 H   0  0  0  0  0  0  0  0  0  0  0  0
   44.2975   23.4041   47.8587 H   0  0  0  0  0  0  0  0  0  0  0  0
   46.1768   22.2387   48.3856 H   0  0  0  0  0  0  0  0  0  0  0  0
   46.6120   22.5760   46.6751 H   0  0  0  0  0  0  0  0  0  0  0  0
   48.4751   23.1803   48.0861 H   0  0  0  0  0  0  0  0  0  0  0  0
   47.7123   24.6839   47.4400 H   0  0  0  0  0  0  0  0  0  0  0  0
   47.6154   23.5338   50.2477 H   0  0  0  0  0  0  0  0  0  0  0  0
   48.0300   25.2012   49.7018 H   0  0  0  0  0  0  0  0  0  0  0  0
   45.8901   25.6078   50.4348 H   0  0  0  0  0  0  0  0  0  0  0  0
   45.3411   23.9371   50.1507 H   0  0  0  0  0  0  0  0  0  0  0  0
  1  2  2  0
  2  3  1  0
  4  3  2  0
  5  4  1  0
  6  1  1  0
  6  5  2  0
  7 12  2  0
  8  9  2  0
  8  7  1  0
  9 10  1  0
 10 11  2  0
 11 15  1  0
 12 11  1  0
 13  1  1  0
 14 13  2  0
 15 13  1  0
 16  5  1  0
 16 17  2  0
 18 17  1  0
 19 18  1  0
 19 24  1  0
 20 21  1  0
 20 19  1  0
 21 22  1  0
 22 23  1  0
 23 24  1  0
  2 25  1  0
  3 26  1  0
  4 27  1  0
  7 28  1  0
  8 29  1  0
  9 30  1  0
 15 31  1  0
 16 32  1  0
 17 33  1  0
 18 34  1  0
 18 35  1  0
 19 36  1  0
 20 37  1  0
 20 38  1  0
 21 39  1  0
 21 40  1  0
 22 41  1  0
 22 42  1  0
 23 43  1  0
 23 44  1  0
 24 45  1  0
 24 46  1  0
M  ISO  8  25  14  26  14  27  14  28  14  29  14  30  14  34   8  35   8
M  ISO  8  36  13  37  13  38  13  39  13  40  13  41  13  42  13  43  13
M  ISO  3  44  13  45  13  46  13
M  END
>  <minimizedAffinity>  (1) 
-5.69186163

>  <minimizedRMSD>  (1) 
1.49544537

$$$$
