
     RDKit          3D

 41 43  0  0  1  0  0  0  0  0999 V2000
   44.4450   34.3280   41.3300 C   0  0  0  0  0  0  0  0  0  0  0  0
   43.4480   35.0950   40.7100 C   0  0  0  0  0  0  0  0  0  0  0  0
   43.0220   34.7440   39.4390 C   0  0  0  0  0  0  0  0  0  0  0  0
   43.6110   33.6550   38.8610 N   0  0  0  0  0  0  0  0  0  0  0  0
   44.5770   32.9390   39.5010 C   0  0  0  0  0  0  0  0  0  0  0  0
   44.9890   33.2750   40.7250 N   0  0  0  0  0  0  0  0  0  0  0  0
   44.9160   34.7110   42.6920 C   0  0  0  0  0  0  0  0  0  0  0  0
   46.3720   35.3080   42.6600 C   0  0  0  0  0  0  0  0  0  0  0  0
   45.1810   36.0380   43.1100 C   0  0  0  0  0  0  0  0  0  0  0  0
   41.9570   35.5320   38.7650 C   0  0  0  0  0  0  0  0  0  0  0  0
   40.8370   35.8750   39.7380 C   0  0  0  0  0  0  0  0  0  0  0  0
   39.4910   33.9120   40.2790 C   0  0  0  0  0  0  0  0  0  0  0  0
   40.2690   33.5140   41.1740 O   0  0  0  0  0  0  0  0  0  0  0  0
   39.6530   35.0540   39.4680 N   0  0  0  0  0  0  0  0  0  0  0  0
   38.2410   33.1050   40.0140 C   0  0  2  0  0  0  0  0  0  0  0  0
   38.1960   31.7990   40.6720 C   0  0  0  0  0  0  0  0  0  0  0  0
   38.1820   30.5730   39.8130 C   0  0  0  0  0  0  0  0  0  0  0  0
   38.8780   30.7160   38.5000 C   0  0  0  0  0  0  0  0  0  0  0  0
   38.8230   32.0650   37.8910 C   0  0  0  0  0  0  0  0  0  0  0  0
   37.9740   33.0790   38.5660 C   0  0  0  0  0  0  0  0  0  0  0  0
   43.0104   35.9628   41.2252 H   0  0  0  0  0  0  0  0  0  0  0  0
   45.0254   32.0684   39.0000 H   0  0  0  0  0  0  0  0  0  0  0  0
   44.3206   33.9189   43.1695 H   0  0  0  0  0  0  0  0  0  0  0  0
   47.1327   34.9741   43.3810 H   0  0  0  0  0  0  0  0  0  0  0  0
   47.1668   35.4491   41.9128 H   0  0  0  0  0  0  0  0  0  0  0  0
   44.8064   36.8731   42.4998 H   0  0  0  0  0  0  0  0  0  0  0  0
   44.9529   36.5806   44.0393 H   0  0  0  0  0  0  0  0  0  0  0  0
   42.3915   36.4635   38.3731 H   0  0  0  0  0  0  0  0  0  0  0  0
   41.5386   34.9289   37.9457 H   0  0  0  0  0  0  0  0  0  0  0  0
   41.1806   35.6877   40.7660 H   0  0  0  0  0  0  0  0  0  0  0  0
   40.5706   36.9351   39.6144 H   0  0  0  0  0  0  0  0  0  0  0  0
   38.9784   35.2973   38.7286 H   0  0  0  0  0  0  0  0  0  0  0  0
   37.4007   33.6191   40.5034 H   0  0  0  0  0  0  0  0  0  0  0  0
   39.0805   31.7311   41.3225 H   0  0  0  0  0  0  0  0  0  0  0  0
   37.2216   31.7849   41.1822 H   0  0  0  0  0  0  0  0  0  0  0  0
   38.6691   29.7596   40.3709 H   0  0  0  0  0  0  0  0  0  0  0  0
   37.1258   30.3714   39.5813 H   0  0  0  0  0  0  0  0  0  0  0  0
   39.3973   29.8752   38.0169 H   0  0  0  0  0  0  0  0  0  0  0  0
   39.3870   32.3054   36.9777 H   0  0  0  0  0  0  0  0  0  0  0  0
   38.1903   34.0705   38.1416 H   0  0  0  0  0  0  0  0  0  0  0  0
   36.9177   32.8164   38.4071 H   0  0  0  0  0  0  0  0  0  0  0  0
  1  7  1  0
  2  1  2  0
  3  2  1  0
  4  3  2  0
  4  5  1  0
  5  6  2  0
  6  1  1  0
  7  9  1  0
  8  7  1  0
  8  9  1  0
 10  3  1  0
 10 11  1  0
 12 13  2  0
 14 11  1  0
 14 12  1  0
 15 12  1  0
 15 16  1  0
 17 16  1  0
 18 17  1  0
 19 18  2  0
 19 20  1  0
 20 15  1  0
  2 21  1  0
  5 22  1  0
  7 23  1  0
  8 24  1  0
  8 25  1  0
  9 26  1  0
  9 27  1  0
 10 28  1  0
 10 29  1  0
 11 30  1  0
 11 31  1  0
 14 32  1  0
 15 33  1  1
 16 34  1  0
 16 35  1  0
 17 36  1  0
 17 37  1  0
 18 38  1  0
 19 39  1  0
 20 40  1  0
 20 41  1  0
M  ISO  8  21  14  22  14  23  13  24  13  25  13  26  13  27  13  28   8
M  ISO  8  29   8  30   8  31   8  33  13  34  13  35  13  36  13  37  13
M  ISO  4  38  13  39  13  40  13  41  13
M  END
>  <minimizedAffinity>  (1) 
-5.06810474

>  <minimizedRMSD>  (1) 
1.16146159

$$$$
