
     RDKit          3D

 50 54  0  0  1  0  0  0  0  0999 V2000
   45.3250   33.1650   42.1840 C   0  0  0  0  0  0  0  0  0  0  0  0
   44.5610   32.0590   42.2650 N   0  0  0  0  0  0  0  0  0  0  0  0
   43.2870   32.3350   41.9670 C   0  0  0  0  0  0  0  0  0  0  0  0
   43.2440   33.6650   41.6860 N   0  0  0  0  0  0  0  0  0  0  0  0
   44.4530   34.1790   41.8100 N   0  0  0  0  0  0  0  0  0  0  0  0
   40.2280   33.0090   41.9410 O   0  0  0  0  0  0  0  0  0  0  0  0
   40.9040   33.5900   41.0370 C   0  0  0  0  0  0  0  0  0  0  0  0
   42.0810   34.4500   41.3000 C   0  0  2  0  0  0  0  0  0  0  0  0
   42.3110   35.1410   39.9690 C   0  0  0  0  0  0  0  0  0  0  0  0
   41.8980   34.0410   38.9860 C   0  0  0  0  0  0  0  0  0  0  0  0
   40.6900   33.5470   39.6090 N   0  0  0  0  0  0  0  0  0  0  0  0
   39.4880   33.0930   38.9550 C   0  0  0  0  0  0  0  0  0  0  0  0
   39.0720   34.0340   37.8540 C   0  0  0  0  0  0  0  0  0  0  0  0
   37.7770   33.4790   37.2490 C   0  0  0  0  0  0  0  0  0  0  0  0
   38.1630   32.2030   36.5260 C   0  0  0  0  0  0  0  0  0  0  0  0
   38.5870   31.2020   37.5840 C   0  0  0  0  0  0  0  0  0  0  0  0
   39.7560   31.7200   38.3860 C   0  0  0  0  0  0  0  0  0  0  0  0
   47.4360   33.4200   43.7290 C   0  0  1  0  0  0  0  0  0  0  0  0
   46.7610   33.3740   42.4020 C   0  0  2  0  0  0  0  0  0  0  0  0
   47.1960   34.6430   42.9400 C   0  0  0  0  0  0  0  0  0  0  0  0
   46.9440   31.9670   45.6850 C   0  0  0  0  0  0  0  0  0  0  0  0
   46.7080   33.1500   44.9870 C   0  0  0  0  0  0  0  0  0  0  0  0
   45.8000   34.0230   45.5360 C   0  0  0  0  0  0  0  0  0  0  0  0
   45.2030   33.6790   46.7050 N   0  0  0  0  0  0  0  0  0  0  0  0
   45.4430   32.5480   47.3510 C   0  0  0  0  0  0  0  0  0  0  0  0
   46.3310   31.6860   46.8220 N   0  0  0  0  0  0  0  0  0  0  0  0
   42.4438   31.6288   41.9521 H   0  0  0  0  0  0  0  0  0  0  0  0
   41.9164   35.1504   42.1321 H   0  0  0  0  0  0  0  0  0  0  0  0
   41.6774   36.0340   39.8638 H   0  0  0  0  0  0  0  0  0  0  0  0
   43.3362   35.5128   39.8251 H   0  0  0  0  0  0  0  0  0  0  0  0
   42.6649   33.2556   38.9144 H   0  0  0  0  0  0  0  0  0  0  0  0
   41.7629   34.3878   37.9509 H   0  0  0  0  0  0  0  0  0  0  0  0
   38.6664   33.0592   39.6857 H   0  0  0  0  0  0  0  0  0  0  0  0
   38.8959   35.0394   38.2640 H   0  0  0  0  0  0  0  0  0  0  0  0
   39.8585   34.1121   37.0889 H   0  0  0  0  0  0  0  0  0  0  0  0
   37.0472   33.2620   38.0429 H   0  0  0  0  0  0  0  0  0  0  0  0
   37.3108   34.2031   36.5646 H   0  0  0  0  0  0  0  0  0  0  0  0
   37.3027   31.8140   35.9617 H   0  0  0  0  0  0  0  0  0  0  0  0
   38.9797   32.3887   35.8129 H   0  0  0  0  0  0  0  0  0  0  0  0
   37.7409   31.0158   38.2618 H   0  0  0  0  0  0  0  0  0  0  0  0
   38.8928   30.2722   37.0821 H   0  0  0  0  0  0  0  0  0  0  0  0
   39.9539   31.0245   39.2149 H   0  0  0  0  0  0  0  0  0  0  0  0
   40.6231   31.7945   37.7132 H   0  0  0  0  0  0  0  0  0  0  0  0
   48.3118   32.9336   44.1832 H   0  0  0  0  0  0  0  0  0  0  0  0
   46.9411   32.7591   41.5079 H   0  0  0  0  0  0  0  0  0  0  0  0
   48.0437   35.1704   42.4783 H   0  0  0  0  0  0  0  0  0  0  0  0
   46.7008   35.6044   43.1413 H   0  0  0  0  0  0  0  0  0  0  0  0
   47.6643   31.2431   45.2762 H   0  0  0  0  0  0  0  0  0  0  0  0
   45.5632   34.9762   45.0406 H   0  0  0  0  0  0  0  0  0  0  0  0
   44.9294   32.3189   48.2963 H   0  0  0  0  0  0  0  0  0  0  0  0
  1  2  1  0
  1 19  1  0
  3  2  2  0
  4  5  1  0
  4  3  1  0
  5  1  2  0
  7  8  1  0
  7  6  2  0
  8  4  1  0
  9  8  1  0
 10 11  1  0
 10  9  1  0
 11  7  1  0
 12 11  1  0
 13 12  1  0
 14 13  1  0
 15 14  1  0
 15 16  1  0
 16 17  1  0
 17 12  1  0
 18 22  1  0
 19 20  1  0
 19 18  1  0
 20 18  1  0
 21 26  2  0
 22 23  2  0
 22 21  1  0
 23 24  1  0
 24 25  2  0
 26 25  1  0
  3 27  1  0
  8 28  1  1
  9 29  1  0
  9 30  1  0
 10 31  1  0
 10 32  1  0
 12 33  1  0
 13 34  1  0
 13 35  1  0
 14 36  1  0
 14 37  1  0
 15 38  1  0
 15 39  1  0
 16 40  1  0
 16 41  1  0
 17 42  1  0
 17 43  1  0
 18 44  1  6
 19 45  1  6
 20 46  1  0
 20 47  1  0
 21 48  1  0
 23 49  1  0
 25 50  1  0
M  ISO  8  27  14  28  13  29  13  30  13  31  13  32  13  33  13  34  13
M  ISO  8  35  13  36  13  37  13  38  13  39  13  40  13  41  13  42  13
M  ISO  8  43  13  44  13  45  13  46  13  47  13  48  14  49  14  50  14
M  END
>  <minimizedAffinity>  (1) 
-5.92865467

>  <minimizedRMSD>  (1) 
1.3672086

$$$$
