
     RDKit          3D

 36 38  0  0  0  0  0  0  0  0999 V2000
   45.8900   34.1660   41.0130 C   0  0  0  0  0  0  0  0  0  0  0  0
   46.4990   34.7780   42.1020 C   0  0  0  0  0  0  0  0  0  0  0  0
   47.8480   35.1270   41.9790 C   0  0  0  0  0  0  0  0  0  0  0  0
   48.4830   34.8500   40.8100 N   0  0  0  0  0  0  0  0  0  0  0  0
   47.8540   34.2540   39.7780 C   0  0  0  0  0  0  0  0  0  0  0  0
   46.5480   33.9110   39.8840 N   0  0  0  0  0  0  0  0  0  0  0  0
   45.7320   35.0380   43.3220 C   0  0  0  0  0  0  0  0  0  0  0  0
   45.0780   36.2220   43.5660 C   0  0  0  0  0  0  0  0  0  0  0  0
   44.5010   36.0360   44.7990 C   0  0  0  0  0  0  0  0  0  0  0  0
   44.7910   34.7970   45.2850 N   0  0  0  0  0  0  0  0  0  0  0  0
   45.5360   34.2230   44.3690 N   0  0  0  0  0  0  0  0  0  0  0  0
   44.5640   33.8210   41.1310 O   0  0  0  0  0  0  0  0  0  0  0  0
   43.4910   34.5240   40.6640 C   0  0  0  0  0  0  0  0  0  0  0  0
   43.3450   35.7900   40.6250 O   0  0  0  0  0  0  0  0  0  0  0  0
   42.1580   34.1490   40.0570 C   0  0  0  0  0  0  0  0  0  0  0  0
   41.8560   35.0360   38.8760 C   0  0  0  0  0  0  0  0  0  0  0  0
   40.6570   34.4100   38.1870 C   0  0  0  0  0  0  0  0  0  0  0  0
   39.4560   34.5910   39.0790 C   0  0  0  0  0  0  0  0  0  0  0  0
   39.7720   34.8180   40.5180 C   0  0  0  0  0  0  0  0  0  0  0  0
   41.0280   34.1750   41.0140 C   0  0  0  0  0  0  0  0  0  0  0  0
   48.3818   35.6139   42.8085 H   0  0  0  0  0  0  0  0  0  0  0  0
   48.4024   34.0456   38.8475 H   0  0  0  0  0  0  0  0  0  0  0  0
   45.0281   37.1128   42.9227 H   0  0  0  0  0  0  0  0  0  0  0  0
   43.8886   36.7852   45.3221 H   0  0  0  0  0  0  0  0  0  0  0  0
   44.4888   34.3944   46.1836 H   0  0  0  0  0  0  0  0  0  0  0  0
   42.2581   33.1025   39.7332 H   0  0  0  0  0  0  0  0  0  0  0  0
   41.6155   36.0550   39.2134 H   0  0  0  0  0  0  0  0  0  0  0  0
   42.7181   35.1154   38.1974 H   0  0  0  0  0  0  0  0  0  0  0  0
   40.4817   34.9056   37.2208 H   0  0  0  0  0  0  0  0  0  0  0  0
   40.8382   33.3404   38.0048 H   0  0  0  0  0  0  0  0  0  0  0  0
   38.8862   35.4580   38.7133 H   0  0  0  0  0  0  0  0  0  0  0  0
   38.8916   33.6480   39.0319 H   0  0  0  0  0  0  0  0  0  0  0  0
   39.8615   35.9027   40.6776 H   0  0  0  0  0  0  0  0  0  0  0  0
   38.9519   34.3509   41.0831 H   0  0  0  0  0  0  0  0  0  0  0  0
   40.7911   33.1357   41.2853 H   0  0  0  0  0  0  0  0  0  0  0  0
   41.3661   34.7913   41.8601 H   0  0  0  0  0  0  0  0  0  0  0  0
  1 12  1  0
  1  2  1  0
  2  7  1  0
  3  2  2  0
  4  3  1  0
  5  6  1  0
  5  4  2  0
  6  1  2  0
  7  8  1  0
  7 11  2  0
  8  9  2  0
  9 10  1  0
 11 10  1  0
 13 12  1  0
 14 13  2  0
 15 13  1  0
 15 20  1  0
 16 15  1  0
 17 16  1  0
 17 18  1  0
 18 19  1  0
 19 20  1  0
  3 21  1  0
  5 22  1  0
  8 23  1  0
  9 24  1  0
 10 25  1  0
 15 26  1  0
 16 27  1  0
 16 28  1  0
 17 29  1  0
 17 30  1  0
 18 31  1  0
 18 32  1  0
 19 33  1  0
 19 34  1  0
 20 35  1  0
 20 36  1  0
M  ISO  8  21  14  22  14  23  14  24  14  25   9  26  13  27  13  28  13
M  ISO  8  29  13  30  13  31  13  32  13  33  13  34  13  35  13  36  13
M  END
>  <minimizedAffinity>  (1) 
-5.97163963

>  <minimizedRMSD>  (1) 
0.790719032

$$$$
