
     RDKit          3D

 30 31  0  0  0  0  0  0  0  0999 V2000
   44.5560   35.4970   45.0740 C   0  0  0  0  0  0  0  0  0  0  0  0
   45.2530   35.1410   43.9200 C   0  0  0  0  0  0  0  0  0  0  0  0
   46.0570   34.0150   43.9880 C   0  0  0  0  0  0  0  0  0  0  0  0
   46.1380   33.3170   45.1430 N   0  0  0  0  0  0  0  0  0  0  0  0
   45.4480   33.6980   46.2320 C   0  0  0  0  0  0  0  0  0  0  0  0
   44.6510   34.7840   46.2210 N   0  0  0  0  0  0  0  0  0  0  0  0
   45.0650   36.0110   42.7110 C   0  0  0  0  0  0  0  0  0  0  0  0
   45.2730   37.3020   43.1390 F   0  0  0  0  0  0  0  0  0  0  0  0
   43.7740   35.8480   42.2810 F   0  0  0  0  0  0  0  0  0  0  0  0
   45.9680   35.5920   41.7540 F   0  0  0  0  0  0  0  0  0  0  0  0
   45.5260   32.9800   47.4300 O   0  0  0  0  0  0  0  0  0  0  0  0
   45.8820   31.6120   47.4620 C   0  0  0  0  0  0  0  0  0  0  0  0
   46.0550   31.1420   48.8780 C   0  0  0  0  0  0  0  0  0  0  0  0
   47.4800   31.0130   49.3090 C   0  0  0  0  0  0  0  0  0  0  0  0
   48.3270   30.2030   48.3680 C   0  0  0  0  0  0  0  0  0  0  0  0
   47.8140   30.1600   46.9560 C   0  0  0  0  0  0  0  0  0  0  0  0
   47.1510   31.4690   46.6480 C   0  0  0  0  0  0  0  0  0  0  0  0
   43.9081   36.3857   45.0518 H   0  0  0  0  0  0  0  0  0  0  0  0
   46.6275   33.6900   43.1054 H   0  0  0  0  0  0  0  0  0  0  0  0
   45.0913   30.9805   47.0306 H   0  0  0  0  0  0  0  0  0  0  0  0
   45.5566   31.8617   49.5440 H   0  0  0  0  0  0  0  0  0  0  0  0
   45.6147   30.1355   48.9338 H   0  0  0  0  0  0  0  0  0  0  0  0
   47.9124   32.0217   49.3840 H   0  0  0  0  0  0  0  0  0  0  0  0
   47.4766   30.4839   50.2734 H   0  0  0  0  0  0  0  0  0  0  0  0
   49.3379   30.6366   48.3543 H   0  0  0  0  0  0  0  0  0  0  0  0
   48.3109   29.1682   48.7408 H   0  0  0  0  0  0  0  0  0  0  0  0
   48.6518   29.9966   46.2621 H   0  0  0  0  0  0  0  0  0  0  0  0
   47.0924   29.3375   46.8432 H   0  0  0  0  0  0  0  0  0  0  0  0
   47.8374   32.2920   46.8960 H   0  0  0  0  0  0  0  0  0  0  0  0
   46.8988   31.5026   45.5778 H   0  0  0  0  0  0  0  0  0  0  0  0
  1  6  2  0
  2  3  2  0
  2  1  1  0
  3  4  1  0
  4  5  2  0
  5 11  1  0
  6  5  1  0
  7  8  1  0
  7  2  1  0
  9  7  1  0
 10  7  1  0
 11 12  1  0
 12 13  1  0
 13 14  1  0
 15 14  1  0
 16 15  1  0
 17 16  1  0
 17 12  1  0
  1 18  1  0
  3 19  1  0
 12 20  1  0
 13 21  1  0
 13 22  1  0
 14 23  1  0
 14 24  1  0
 15 25  1  0
 15 26  1  0
 16 27  1  0
 16 28  1  0
 17 29  1  0
 17 30  1  0
M  ISO  8  18  14  19  14  20  13  21  13  22  13  23  13  24  13  25  13
M  ISO  5  26  13  27  13  28  13  29  13  30  13
M  END
>  <minimizedAffinity>  (1) 
-4.98463631

>  <minimizedRMSD>  (1) 
0.982137382

$$$$
