
     RDKit          3D

 35 37  0  0  1  0  0  0  0  0999 V2000
   46.5120   34.6730   43.2280 C   0  0  0  0  0  0  0  0  0  0  0  0
   45.4700   35.6230   43.4640 C   0  0  0  0  0  0  0  0  0  0  0  0
   44.7110   35.4460   44.6290 C   0  0  0  0  0  0  0  0  0  0  0  0
   45.0160   34.4000   45.4380 N   0  0  0  0  0  0  0  0  0  0  0  0
   46.0300   33.5300   45.1430 C   0  0  0  0  0  0  0  0  0  0  0  0
   46.7760   33.6500   44.0610 N   0  0  0  0  0  0  0  0  0  0  0  0
   46.3060   32.4140   46.1000 C   0  0  1  0  0  0  0  0  0  0  0  0
   47.0080   32.7120   47.4030 C   0  0  0  0  0  0  0  0  0  0  0  0
   45.5250   32.4680   47.3530 C   0  0  1  0  0  0  0  0  0  0  0  0
   44.7640   33.6820   47.6730 N   0  0  0  0  0  0  0  0  0  0  0  0
   47.2650   34.9100   42.0220 C   0  0  0  0  0  0  0  0  0  0  0  0
   48.3380   35.6070   41.9830 O   0  0  0  0  0  0  0  0  0  0  0  0
   46.8470   34.3490   40.6850 C   0  0  1  0  0  0  0  0  0  0  0  0
   48.0500   34.2990   39.8220 C   0  0  0  0  0  0  0  0  0  0  0  0
   48.6210   32.9190   39.6570 C   0  0  0  0  0  0  0  0  0  0  0  0
   47.4810   32.1290   39.0010 C   0  0  0  0  0  0  0  0  0  0  0  0
   46.4850   31.8920   40.1050 C   0  0  0  0  0  0  0  0  0  0  0  0
   46.0610   33.1030   40.8410 C   0  0  0  0  0  0  0  0  0  0  0  0
   45.2739   36.4508   42.7667 H   0  0  0  0  0  0  0  0  0  0  0  0
   43.8915   36.1353   44.8804 H   0  0  0  0  0  0  0  0  0  0  0  0
   46.4913   31.6822   45.3000 H   0  0  0  0  0  0  0  0  0  0  0  0
   47.6770   31.9648   47.8548 H   0  0  0  0  0  0  0  0  0  0  0  0
   47.6595   33.5149   47.7783 H   0  0  0  0  0  0  0  0  0  0  0  0
   44.7954   31.7704   47.7901 H   0  0  0  0  0  0  0  0  0  0  0  0
   44.6985   33.7866   48.6956 H   0  0  0  0  0  0  0  0  0  0  0  0
   45.2424   34.5023   47.2740 H   0  0  0  0  0  0  0  0  0  0  0  0
   46.1290   34.9957   40.1595 H   0  0  0  0  0  0  0  0  0  0  0  0
   47.7797   34.6837   38.8275 H   0  0  0  0  0  0  0  0  0  0  0  0
   48.8225   34.9087   40.3135 H   0  0  0  0  0  0  0  0  0  0  0  0
   49.5093   32.9371   39.0085 H   0  0  0  0  0  0  0  0  0  0  0  0
   48.9520   32.4783   40.6090 H   0  0  0  0  0  0  0  0  0  0  0  0
   47.0248   32.7121   38.1874 H   0  0  0  0  0  0  0  0  0  0  0  0
   47.8343   31.1879   38.5544 H   0  0  0  0  0  0  0  0  0  0  0  0
   46.1003   30.8903   40.3469 H   0  0  0  0  0  0  0  0  0  0  0  0
   45.1760   33.0788   41.4939 H   0  0  0  0  0  0  0  0  0  0  0  0
  1  2  2  0
  1  6  1  0
  2  3  1  0
  3  4  2  0
  5  4  1  0
  5  7  1  0
  6  5  2  0
  7  9  1  0
  7  8  1  0
  9  8  1  0
  9 10  1  0
 11  1  1  0
 12 11  2  0
 13 18  1  0
 13 11  1  0
 14 13  1  0
 15 14  1  0
 16 15  1  0
 16 17  1  0
 17 18  2  0
  2 19  1  0
  3 20  1  0
  7 21  1  6
  8 22  1  0
  8 23  1  0
  9 24  1  1
 10 25  1  0
 10 26  1  0
 13 27  1  6
 14 28  1  0
 14 29  1  0
 15 30  1  0
 15 31  1  0
 16 32  1  0
 16 33  1  0
 17 34  1  0
 18 35  1  0
M  ISO  8  19  14  20  14  21  13  22  13  23  13  24  13  25   5  26   5
M  ISO  8  27  13  28  13  29  13  30  13  31  13  32  13  33  13  34  13
M  ISO  1  35  13
M  END
>  <minimizedAffinity>  (1) 
-5.56791162

>  <minimizedRMSD>  (1) 
0.732608974

$$$$
