
     RDKit          3D

 52 55  0  0  1  0  0  0  0  0999 V2000
   44.5180   35.5070   45.1380 C   0  0  0  0  0  0  0  0  0  0  0  0
   45.1620   35.4890   43.8850 C   0  0  0  0  0  0  0  0  0  0  0  0
   46.0760   34.5210   43.6190 C   0  0  0  0  0  0  0  0  0  0  0  0
   46.3150   33.6130   44.5990 N   0  0  0  0  0  0  0  0  0  0  0  0
   45.7070   33.6350   45.7760 C   0  0  0  0  0  0  0  0  0  0  0  0
   44.8040   34.5760   46.0620 N   0  0  0  0  0  0  0  0  0  0  0  0
   46.0370   32.6250   46.7440 N   0  0  0  0  0  0  0  0  0  0  0  0
   45.3050   32.3880   47.9380 C   0  0  0  0  0  0  0  0  0  0  0  0
   46.3910   32.0260   48.9390 C   0  0  0  0  0  0  0  0  0  0  0  0
   47.6570   31.9150   48.1640 C   0  0  0  0  0  0  0  0  0  0  0  0
   47.1470   31.7040   46.7380 C   0  0  1  0  0  0  0  0  0  0  0  0
   44.8020   36.5190   42.9520 N   0  0  0  0  0  0  0  0  0  0  0  0
   46.6190   30.0180   46.5550 S   0  0  0  0  0  0  0  0  0  0  0  0
   45.5590   30.1910   43.4040 O   0  0  0  0  0  0  0  0  0  0  0  0
   44.9150   29.8020   44.3900 C   0  0  0  0  0  0  0  0  0  0  0  0
   45.0370   29.7500   45.8690 C   0  0  1  0  0  0  0  0  0  0  0  0
   44.4290   28.4060   46.1840 C   0  0  0  0  0  0  0  0  0  0  0  0
   43.1070   28.6060   45.4360 C   0  0  0  0  0  0  0  0  0  0  0  0
   43.6250   29.1870   44.2030 N   0  0  0  0  0  0  0  0  0  0  0  0
   42.7360   29.0220   43.0620 C   0  0  0  0  0  0  0  0  0  0  0  0
   41.9630   30.2770   42.7400 C   0  0  0  0  0  0  0  0  0  0  0  0
   40.6390   29.9960   42.0830 C   0  0  0  0  0  0  0  0  0  0  0  0
   40.6190   28.7680   41.2460 C   0  0  0  0  0  0  0  0  0  0  0  0
   41.2960   27.5720   41.8170 C   0  0  0  0  0  0  0  0  0  0  0  0
   41.7670   27.9230   43.2160 C   0  0  0  0  0  0  0  0  0  0  0  0
   43.7765   36.2885   45.3605 H   0  0  0  0  0  0  0  0  0  0  0  0
   46.5993   34.4747   42.6526 H   0  0  0  0  0  0  0  0  0  0  0  0
   44.7610   33.2904   48.2539 H   0  0  0  0  0  0  0  0  0  0  0  0
   44.5385   31.6067   47.8286 H   0  0  0  0  0  0  0  0  0  0  0  0
   46.4807   32.8116   49.7037 H   0  0  0  0  0  0  0  0  0  0  0  0
   46.1573   31.0846   49.4578 H   0  0  0  0  0  0  0  0  0  0  0  0
   48.2539   32.8357   48.2417 H   0  0  0  0  0  0  0  0  0  0  0  0
   48.3218   31.1132   48.5178 H   0  0  0  0  0  0  0  0  0  0  0  0
   47.8649   31.8730   45.9218 H   0  0  0  0  0  0  0  0  0  0  0  0
   45.2445   36.5494   42.0224 H   0  0  0  0  0  0  0  0  0  0  0  0
   44.1012   37.2275   43.2122 H   0  0  0  0  0  0  0  0  0  0  0  0
   44.5271   30.6001   46.3459 H   0  0  0  0  0  0  0  0  0  0  0  0
   45.0197   27.5728   45.7754 H   0  0  0  0  0  0  0  0  0  0  0  0
   44.3521   28.1427   47.2492 H   0  0  0  0  0  0  0  0  0  0  0  0
   42.5873   27.6534   45.2560 H   0  0  0  0  0  0  0  0  0  0  0  0
   42.3536   29.2103   45.9624 H   0  0  0  0  0  0  0  0  0  0  0  0
   43.4206   28.7782   42.2362 H   0  0  0  0  0  0  0  0  0  0  0  0
   41.7812   30.8270   43.6751 H   0  0  0  0  0  0  0  0  0  0  0  0
   42.5658   30.8635   42.0310 H   0  0  0  0  0  0  0  0  0  0  0  0
   39.8795   29.8878   42.8713 H   0  0  0  0  0  0  0  0  0  0  0  0
   40.4374   30.8405   41.4075 H   0  0  0  0  0  0  0  0  0  0  0  0
   41.1080   29.0057   40.2898 H   0  0  0  0  0  0  0  0  0  0  0  0
   39.5584   28.4906   41.1559 H   0  0  0  0  0  0  0  0  0  0  0  0
   40.5905   26.7292   41.8611 H   0  0  0  0  0  0  0  0  0  0  0  0
   42.1501   27.2799   41.1883 H   0  0  0  0  0  0  0  0  0  0  0  0
   42.2493   27.0528   43.6851 H   0  0  0  0  0  0  0  0  0  0  0  0
   40.9251   28.2192   43.8590 H   0  0  0  0  0  0  0  0  0  0  0  0
  1  6  2  0
  2  1  1  0
  3  2  2  0
  3  4  1  0
  4  5  2  0
  5  6  1  0
  5  7  1  0
  7  8  1  0
  8  9  1  0
 10  9  1  0
 11  7  1  0
 11 10  1  0
 12  2  1  0
 13 11  1  0
 14 15  2  0
 15 16  1  0
 16 17  1  0
 16 13  1  0
 18 17  1  0
 19 15  1  0
 19 18  1  0
 20 25  1  0
 20 19  1  0
 21 20  1  0
 22 21  1  0
 23 24  1  0
 23 22  1  0
 24 25  1  0
  1 26  1  0
  3 27  1  0
  8 28  1  0
  8 29  1  0
  9 30  1  0
  9 31  1  0
 10 32  1  0
 10 33  1  0
 11 34  1  6
 12 35  1  0
 12 36  1  0
 16 37  1  1
 17 38  1  0
 17 39  1  0
 18 40  1  0
 18 41  1  0
 20 42  1  0
 21 43  1  0
 21 44  1  0
 22 45  1  0
 22 46  1  0
 23 47  1  0
 23 48  1  0
 24 49  1  0
 24 50  1  0
 25 51  1  0
 25 52  1  0
M  ISO  8  26  14  27  14  28  13  29  13  30  13  31  13  32  13  33  13
M  ISO  8  34  13  37  13  38  13  39  13  40  13  41  13  42  13  43  13
M  ISO  8  44  13  45  13  46  13  47  13  48  13  49  13  50  13  51  13
M  ISO  1  52  13
M  END
>  <minimizedAffinity>  (1) 
-5.47784424

>  <minimizedRMSD>  (1) 
1.0973047

$$$$
