
     RDKit          3D

 38 40  0  0  0  0  0  0  0  0999 V2000
   44.5680   33.2720   41.0830 Br  0  0  0  0  0  0  0  0  0  0  0  0
   46.2790   34.0900   40.9420 C   0  0  0  0  0  0  0  0  0  0  0  0
   46.8550   34.8000   41.9840 C   0  0  0  0  0  0  0  0  0  0  0  0
   48.1050   35.3560   41.7750 C   0  0  0  0  0  0  0  0  0  0  0  0
   48.7920   35.2370   40.5880 C   0  0  0  0  0  0  0  0  0  0  0  0
   48.2260   34.5330   39.5430 C   0  0  0  0  0  0  0  0  0  0  0  0
   46.9960   33.9920   39.7720 C   0  0  0  0  0  0  0  0  0  0  0  0
   44.4920   35.9680   44.6850 C   0  0  0  0  0  0  0  0  0  0  0  0
   45.2050   35.9100   43.4760 C   0  0  0  0  0  0  0  0  0  0  0  0
   46.0980   34.8960   43.2210 C   0  0  0  0  0  0  0  0  0  0  0  0
   46.2270   33.9690   44.2260 N   0  0  0  0  0  0  0  0  0  0  0  0
   45.5410   34.0360   45.3740 C   0  0  0  0  0  0  0  0  0  0  0  0
   44.6830   35.0140   45.6150 N   0  0  0  0  0  0  0  0  0  0  0  0
   46.4490   33.2130   38.6910 C   0  0  0  0  0  0  0  0  0  0  0  0
   46.6240   33.4950   37.4800 O   0  0  0  0  0  0  0  0  0  0  0  0
   45.6270   32.0120   38.4340 C   0  0  0  0  0  0  0  0  0  0  0  0
   44.6460   32.2580   37.3030 C   0  0  0  0  0  0  0  0  0  0  0  0
   43.6810   31.0920   37.3600 C   0  0  0  0  0  0  0  0  0  0  0  0
   44.3700   29.8010   37.6940 C   0  0  0  0  0  0  0  0  0  0  0  0
   45.8450   29.8290   37.3400 C   0  0  0  0  0  0  0  0  0  0  0  0
   46.6030   30.9230   38.0110 C   0  0  0  0  0  0  0  0  0  0  0  0
   48.5717   35.9197   42.5962 H   0  0  0  0  0  0  0  0  0  0  0  0
   49.7837   35.6988   40.4726 H   0  0  0  0  0  0  0  0  0  0  0  0
   48.7403   34.4153   38.5778 H   0  0  0  0  0  0  0  0  0  0  0  0
   43.7823   36.7877   44.8704 H   0  0  0  0  0  0  0  0  0  0  0  0
   45.0457   36.6913   42.7182 H   0  0  0  0  0  0  0  0  0  0  0  0
   45.6947   33.2580   46.1363 H   0  0  0  0  0  0  0  0  0  0  0  0
   45.0473   31.7389   39.3281 H   0  0  0  0  0  0  0  0  0  0  0  0
   45.1690   32.2800   36.3356 H   0  0  0  0  0  0  0  0  0  0  0  0
   44.1318   33.2250   37.4053 H   0  0  0  0  0  0  0  0  0  0  0  0
   42.9220   31.2977   38.1292 H   0  0  0  0  0  0  0  0  0  0  0  0
   43.2240   30.9832   36.3653 H   0  0  0  0  0  0  0  0  0  0  0  0
   44.2684   29.6144   38.7733 H   0  0  0  0  0  0  0  0  0  0  0  0
   43.8964   29.0033   37.1029 H   0  0  0  0  0  0  0  0  0  0  0  0
   46.2907   28.8672   37.6338 H   0  0  0  0  0  0  0  0  0  0  0  0
   45.9116   30.0099   36.2570 H   0  0  0  0  0  0  0  0  0  0  0  0
   47.1189   30.5250   38.8973 H   0  0  0  0  0  0  0  0  0  0  0  0
   47.3483   31.3396   37.3175 H   0  0  0  0  0  0  0  0  0  0  0  0
  2  1  1  0
  2  3  2  0
  3 10  1  0
  4  3  1  0
  5  4  2  0
  6  7  2  0
  6  5  1  0
  7  2  1  0
  8 13  2  0
  9  8  1  0
 10  9  2  0
 10 11  1  0
 11 12  2  0
 12 13  1  0
 14  7  1  0
 15 14  2  0
 16 14  1  0
 17 18  1  0
 17 16  1  0
 18 19  1  0
 20 19  1  0
 20 21  1  0
 21 16  1  0
  4 22  1  0
  5 23  1  0
  6 24  1  0
  8 25  1  0
  9 26  1  0
 12 27  1  0
 16 28  1  0
 17 29  1  0
 17 30  1  0
 18 31  1  0
 18 32  1  0
 19 33  1  0
 19 34  1  0
 20 35  1  0
 20 36  1  0
 21 37  1  0
 21 38  1  0
M  ISO  8  22  14  23  14  24  14  25  14  26  14  27  14  28  13  29  13
M  ISO  8  30  13  31  13  32  13  33  13  34  13  35  13  36  13  37  13
M  ISO  1  38  13
M  END
>  <minimizedAffinity>  (1) 
-5.44708061

>  <minimizedRMSD>  (1) 
0.375856668

$$$$
