
     RDKit          3D

 50 52  0  0  1  0  0  0  0  0999 V2000
   46.1280   31.2100   46.4780 C   0  0  2  0  0  0  0  0  0  0  0  0
   45.0610   30.7780   47.4320 C   0  0  0  0  0  0  0  0  0  0  0  0
   44.6970   29.3820   47.0710 C   0  0  0  0  0  0  0  0  0  0  0  0
   45.3900   28.8220   45.8710 C   0  0  0  0  0  0  0  0  0  0  0  0
   46.8830   28.9410   46.0200 C   0  0  0  0  0  0  0  0  0  0  0  0
   47.2850   30.2320   46.5590 C   0  0  2  0  0  0  0  0  0  0  0  0
   47.6660   30.0000   47.9750 C   0  0  0  0  0  0  0  0  0  0  0  0
   49.0830   30.2540   48.3620 C   0  0  0  0  0  0  0  0  0  0  0  0
   49.2290   30.9160   49.7070 C   0  0  0  0  0  0  0  0  0  0  0  0
   50.0410   30.0700   50.6700 C   0  0  0  0  0  0  0  0  0  0  0  0
   51.3820   29.7960   50.0240 C   0  0  0  0  0  0  0  0  0  0  0  0
   51.1270   28.8830   48.8630 C   0  0  0  0  0  0  0  0  0  0  0  0
   49.7270   28.8600   48.3760 C   0  0  0  0  0  0  0  0  0  0  0  0
   46.5610   32.6200   46.6610 C   0  0  0  0  0  0  0  0  0  0  0  0
   47.2740   33.0050   47.6170 O   0  0  0  0  0  0  0  0  0  0  0  0
   44.6820   35.2790   45.0010 C   0  0  0  0  0  0  0  0  0  0  0  0
   45.2630   35.3710   43.7120 C   0  0  0  0  0  0  0  0  0  0  0  0
   46.3070   34.5040   43.4490 C   0  0  0  0  0  0  0  0  0  0  0  0
   46.6390   33.6850   44.4490 N   0  0  0  0  0  0  0  0  0  0  0  0
   46.1070   33.5910   45.6470 C   0  0  0  0  0  0  0  0  0  0  0  0
   45.0910   34.4220   45.9270 N   0  0  0  0  0  0  0  0  0  0  0  0
   46.9060   34.5830   42.1270 C   0  0  0  0  0  0  0  0  0  0  0  0
   47.6140   33.4140   41.8610 F   0  0  0  0  0  0  0  0  0  0  0  0
   47.7740   35.6260   42.1440 F   0  0  0  0  0  0  0  0  0  0  0  0
   45.9530   34.6740   41.1180 F   0  0  0  0  0  0  0  0  0  0  0  0
   45.7041   31.1912   45.4631 H   0  0  0  0  0  0  0  0  0  0  0  0
   45.4391   30.8153   48.4643 H   0  0  0  0  0  0  0  0  0  0  0  0
   44.1857   31.4414   47.3699 H   0  0  0  0  0  0  0  0  0  0  0  0
   44.9348   28.7376   47.9302 H   0  0  0  0  0  0  0  0  0  0  0  0
   43.6274   29.4072   46.8154 H   0  0  0  0  0  0  0  0  0  0  0  0
   45.0703   29.3770   44.9767 H   0  0  0  0  0  0  0  0  0  0  0  0
   45.1263   27.7586   45.7724 H   0  0  0  0  0  0  0  0  0  0  0  0
   47.2346   28.1498   46.6985 H   0  0  0  0  0  0  0  0  0  0  0  0
   47.3292   28.8412   45.0195 H   0  0  0  0  0  0  0  0  0  0  0  0
   48.1240   30.6595   45.9904 H   0  0  0  0  0  0  0  0  0  0  0  0
   47.0340   30.6516   48.5962 H   0  0  0  0  0  0  0  0  0  0  0  0
   47.5257   28.9196   48.1271 H   0  0  0  0  0  0  0  0  0  0  0  0
   49.5585   30.9533   47.6585 H   0  0  0  0  0  0  0  0  0  0  0  0
   49.7325   31.8848   49.5735 H   0  0  0  0  0  0  0  0  0  0  0  0
   48.2234   31.0465   50.1332 H   0  0  0  0  0  0  0  0  0  0  0  0
   50.1848   30.6128   51.6159 H   0  0  0  0  0  0  0  0  0  0  0  0
   49.5189   29.1268   50.8886 H   0  0  0  0  0  0  0  0  0  0  0  0
   51.8325   30.7365   49.6739 H   0  0  0  0  0  0  0  0  0  0  0  0
   52.0781   29.3364   50.7411 H   0  0  0  0  0  0  0  0  0  0  0  0
   51.7719   29.2018   48.0309 H   0  0  0  0  0  0  0  0  0  0  0  0
   51.3435   27.8655   49.2205 H   0  0  0  0  0  0  0  0  0  0  0  0
   49.1360   28.2056   49.0337 H   0  0  0  0  0  0  0  0  0  0  0  0
   49.7408   28.4893   47.3404 H   0  0  0  0  0  0  0  0  0  0  0  0
   43.8484   35.9534   45.2465 H   0  0  0  0  0  0  0  0  0  0  0  0
   44.9035   36.0917   42.9628 H   0  0  0  0  0  0  0  0  0  0  0  0
  1  6  1  0
  1 14  1  0
  1  2  1  0
  3  2  1  0
  4  5  1  0
  4  3  1  0
  5  6  1  0
  6  7  1  0
  7  8  1  0
  8 13  1  0
  8  9  1  0
  9 10  1  0
 11 10  1  0
 12 11  1  0
 13 12  1  0
 14 15  2  0
 16 21  2  0
 17 16  1  0
 18 17  2  0
 18 19  1  0
 19 20  2  0
 20 21  1  0
 20 14  1  0
 22 24  1  0
 22 18  1  0
 23 22  1  0
 25 22  1  0
  1 26  1  6
  2 27  1  0
  2 28  1  0
  3 29  1  0
  3 30  1  0
  4 31  1  0
  4 32  1  0
  5 33  1  0
  5 34  1  0
  6 35  1  6
  7 36  1  0
  7 37  1  0
  8 38  1  0
  9 39  1  0
  9 40  1  0
 10 41  1  0
 10 42  1  0
 11 43  1  0
 11 44  1  0
 12 45  1  0
 12 46  1  0
 13 47  1  0
 13 48  1  0
 16 49  1  0
 17 50  1  0
M  ISO  8  26  13  27  13  28  13  29  13  30  13  31  13  32  13  33  13
M  ISO  8  34  13  35  13  36   8  37   8  38  13  39  13  40  13  41  13
M  ISO  8  42  13  43  13  44  13  45  13  46  13  47  13  48  13  49  14
M  ISO  1  50  14
M  END
>  <minimizedAffinity>  (1) 
-5.81973505

>  <minimizedRMSD>  (1) 
2.41279435

$$$$
