
     RDKit          3D

 52 55  0  0  1  0  0  0  0  0999 V2000
   47.2930   34.0240   42.4750 C   0  0  2  0  0  0  0  0  0  0  0  0
   47.5530   35.0650   41.3830 C   0  0  0  0  0  0  0  0  0  0  0  0
   48.3920   34.1680   40.4450 C   0  0  0  0  0  0  0  0  0  0  0  0
   47.7610   32.8140   40.5450 C   0  0  1  0  0  0  0  0  0  0  0  0
   46.7220   32.9260   41.6190 C   0  0  0  0  0  0  0  0  0  0  0  0
   44.6600   36.0350   44.2710 C   0  0  0  0  0  0  0  0  0  0  0  0
   45.5310   35.6530   43.2520 C   0  0  0  0  0  0  0  0  0  0  0  0
   46.3030   34.5220   43.4760 C   0  0  0  0  0  0  0  0  0  0  0  0
   46.1980   33.8150   44.6790 N   0  0  0  0  0  0  0  0  0  0  0  0
   45.3320   34.2360   45.6370 C   0  0  0  0  0  0  0  0  0  0  0  0
   44.5700   35.3430   45.4260 N   0  0  0  0  0  0  0  0  0  0  0  0
   47.0570   32.3620   39.2850 C   0  0  2  0  0  0  0  0  0  0  0  0
   46.8610   33.3840   38.2630 C   0  0  0  0  0  0  0  0  0  0  0  0
   45.6920   32.7870   38.9720 C   0  0  1  0  0  0  0  0  0  0  0  0
   44.8800   31.8780   38.2500 O   0  0  0  0  0  0  0  0  0  0  0  0
   42.7690   30.4100   38.6630 O   0  0  0  0  0  0  0  0  0  0  0  0
   43.4230   31.7090   39.0720 P   0  0  1  0  0  0  0  0  0  0  0  0
   43.7170   31.6170   40.7600 O   0  0  0  0  0  0  0  0  0  0  0  0
   42.3430   32.9350   38.8250 O   0  0  0  0  0  0  0  0  0  0  0  0
   42.1090   33.7760   39.8950 C   0  0  0  0  0  0  0  0  0  0  0  0
   42.2220   35.2010   39.4040 C   0  0  0  0  0  0  0  0  0  0  0  0
   40.8580   35.8290   39.1870 C   0  0  0  0  0  0  0  0  0  0  0  0
   40.2220   36.0720   40.5520 C   0  0  0  0  0  0  0  0  0  0  0  0
   40.4550   34.8220   41.3680 C   0  0  0  0  0  0  0  0  0  0  0  0
   40.7160   33.6190   40.4670 C   0  0  0  0  0  0  0  0  0  0  0  0
   48.1633   33.7409   43.0853 H   0  0  0  0  0  0  0  0  0  0  0  0
   46.6244   35.4146   40.9081 H   0  0  0  0  0  0  0  0  0  0  0  0
   48.0229   36.0052   41.7076 H   0  0  0  0  0  0  0  0  0  0  0  0
   49.4399   34.1327   40.7777 H   0  0  0  0  0  0  0  0  0  0  0  0
   48.4044   34.5449   39.4117 H   0  0  0  0  0  0  0  0  0  0  0  0
   48.5563   32.0802   40.7426 H   0  0  0  0  0  0  0  0  0  0  0  0
   45.7433   33.2081   41.2035 H   0  0  0  0  0  0  0  0  0  0  0  0
   46.5334   31.9872   42.1604 H   0  0  0  0  0  0  0  0  0  0  0  0
   44.0288   36.9248   44.1298 H   0  0  0  0  0  0  0  0  0  0  0  0
   45.6030   36.2220   42.3134 H   0  0  0  0  0  0  0  0  0  0  0  0
   45.2468   33.6818   46.5834 H   0  0  0  0  0  0  0  0  0  0  0  0
   47.5212   31.3667   39.3479 H   0  0  0  0  0  0  0  0  0  0  0  0
   47.0435   33.1474   37.2044 H   0  0  0  0  0  0  0  0  0  0  0  0
   47.2359   34.4048   38.0974 H   0  0  0  0  0  0  0  0  0  0  0  0
   44.8412   33.1829   39.5459 H   0  0  0  0  0  0  0  0  0  0  0  0
   42.8972   31.8735   41.2522 H   0  0  0  0  0  0  0  0  0  0  0  0
   42.8412   33.5267   40.6771 H   0  0  0  0  0  0  0  0  0  0  0  0
   42.7723   35.7927   40.1503 H   0  0  0  0  0  0  0  0  0  0  0  0
   42.7523   35.1909   38.4403 H   0  0  0  0  0  0  0  0  0  0  0  0
   40.9686   36.7840   38.6525 H   0  0  0  0  0  0  0  0  0  0  0  0
   40.2236   35.1609   38.5860 H   0  0  0  0  0  0  0  0  0  0  0  0
   40.6931   36.9374   41.0411 H   0  0  0  0  0  0  0  0  0  0  0  0
   39.1475   36.2870   40.4554 H   0  0  0  0  0  0  0  0  0  0  0  0
   41.3259   34.9769   42.0218 H   0  0  0  0  0  0  0  0  0  0  0  0
   39.5536   34.6218   41.9659 H   0  0  0  0  0  0  0  0  0  0  0  0
   39.9763   33.5911   39.6533 H   0  0  0  0  0  0  0  0  0  0  0  0
   40.6333   32.6817   41.0367 H   0  0  0  0  0  0  0  0  0  0  0  0
  1  8  1  0
  2  1  1  0
  3  4  1  0
  3  2  1  0
  4  5  1  0
  5  1  1  0
  6 11  2  0
  7  8  2  0
  7  6  1  0
  8  9  1  0
  9 10  2  0
 11 10  1  0
 12  4  1  0
 13 14  1  0
 13 12  1  0
 14 12  1  0
 15 14  1  0
 15 17  1  0
 17 16  2  0
 17 18  1  0
 19 17  1  0
 19 20  1  0
 20 25  1  0
 21 20  1  0
 22 21  1  0
 22 23  1  0
 23 24  1  0
 25 24  1  0
  1 26  1  1
  2 27  1  0
  2 28  1  0
  3 29  1  0
  3 30  1  0
  4 31  1  1
  5 32  1  0
  5 33  1  0
  6 34  1  0
  7 35  1  0
 10 36  1  0
 12 37  1  6
 13 38  1  0
 13 39  1  0
 14 40  1  1
 18 41  1  0
 20 42  1  0
 21 43  1  0
 21 44  1  0
 22 45  1  0
 22 46  1  0
 23 47  1  0
 23 48  1  0
 24 49  1  0
 24 50  1  0
 25 51  1  0
 25 52  1  0
M  ISO  8  26  13  27  13  28  13  29  13  30  13  31  13  32  13  33  13
M  ISO  8  34  14  35  14  36  14  37  13  38  13  39  13  40  13  41   3
M  ISO  8  42  13  43  13  44  13  45  13  46  13  47  13  48  13  49  13
M  ISO  3  50  13  51  13  52  13
M  END
>  <minimizedAffinity>  (1) 
-5.52631998

>  <minimizedRMSD>  (1) 
7.78946733

$$$$
