
     RDKit          3D

 39 41  0  0  0  0  0  0  0  0999 V2000
   45.0420   33.2260   42.2840 C   0  0  0  0  0  0  0  0  0  0  0  0
   45.9080   32.7990   41.2770 C   0  0  0  0  0  0  0  0  0  0  0  0
   45.5410   33.0510   39.9640 C   0  0  0  0  0  0  0  0  0  0  0  0
   44.3730   33.6940   39.6870 C   0  0  0  0  0  0  0  0  0  0  0  0
   43.5170   34.1190   40.6540 C   0  0  0  0  0  0  0  0  0  0  0  0
   43.9000   33.8570   41.9670 C   0  0  0  0  0  0  0  0  0  0  0  0
   46.2180   33.4940   45.8730 C   0  0  0  0  0  0  0  0  0  0  0  0
   45.8320   33.8980   44.5770 C   0  0  0  0  0  0  0  0  0  0  0  0
   45.4630   32.9350   43.6580 C   0  0  0  0  0  0  0  0  0  0  0  0
   45.4950   31.6380   44.0600 N   0  0  0  0  0  0  0  0  0  0  0  0
   45.8680   31.2620   45.3060 C   0  0  0  0  0  0  0  0  0  0  0  0
   46.2280   32.1840   46.2100 N   0  0  0  0  0  0  0  0  0  0  0  0
   47.1680   32.1120   41.6290 C   0  0  0  0  0  0  0  0  0  0  0  0
   48.4200   32.7270   41.1460 C   0  0  0  0  0  0  0  0  0  0  0  0
   49.4180   32.7090   42.3180 C   0  0  0  0  0  0  0  0  0  0  0  0
   50.4460   33.7890   42.2080 C   0  0  0  0  0  0  0  0  0  0  0  0
   49.7650   35.0740   42.6710 C   0  0  0  0  0  0  0  0  0  0  0  0
   48.3550   35.0130   42.1820 C   0  0  0  0  0  0  0  0  0  0  0  0
   48.1650   34.2170   40.9130 C   0  0  0  0  0  0  0  0  0  0  0  0
   46.1969   32.7298   39.1415 H   0  0  0  0  0  0  0  0  0  0  0  0
   44.1106   33.8776   38.6347 H   0  0  0  0  0  0  0  0  0  0  0  0
   42.5779   34.6388   40.4136 H   0  0  0  0  0  0  0  0  0  0  0  0
   43.2364   34.1819   42.7819 H   0  0  0  0  0  0  0  0  0  0  0  0
   46.5131   34.2505   46.6150 H   0  0  0  0  0  0  0  0  0  0  0  0
   45.8251   34.9633   44.3029 H   0  0  0  0  0  0  0  0  0  0  0  0
   45.8757   30.1961   45.5775 H   0  0  0  0  0  0  0  0  0  0  0  0
   47.2240   32.0617   42.7264 H   0  0  0  0  0  0  0  0  0  0  0  0
   47.1139   31.1361   41.1243 H   0  0  0  0  0  0  0  0  0  0  0  0
   48.7725   32.2022   40.2458 H   0  0  0  0  0  0  0  0  0  0  0  0
   48.8621   32.8448   43.2574 H   0  0  0  0  0  0  0  0  0  0  0  0
   49.9432   31.7427   42.2964 H   0  0  0  0  0  0  0  0  0  0  0  0
   51.3086   33.5614   42.8516 H   0  0  0  0  0  0  0  0  0  0  0  0
   50.8204   33.8825   41.1779 H   0  0  0  0  0  0  0  0  0  0  0  0
   49.7830   35.1381   43.7690 H   0  0  0  0  0  0  0  0  0  0  0  0
   50.2827   35.9605   42.2759 H   0  0  0  0  0  0  0  0  0  0  0  0
   47.7379   34.5560   42.9696 H   0  0  0  0  0  0  0  0  0  0  0  0
   48.0601   36.0469   41.9493 H   0  0  0  0  0  0  0  0  0  0  0  0
   48.8673   34.5855   40.1508 H   0  0  0  0  0  0  0  0  0  0  0  0
   47.1247   34.3422   40.5780 H   0  0  0  0  0  0  0  0  0  0  0  0
  1  9  1  0
  2 13  1  0
  2  1  1  0
  3  2  2  0
  4  3  1  0
  4  5  2  0
  5  6  1  0
  6  1  2  0
  7 12  2  0
  8  7  1  0
  9 10  1  0
  9  8  2  0
 10 11  2  0
 11 12  1  0
 14 13  1  0
 14 15  1  0
 16 15  1  0
 16 17  1  0
 18 17  1  0
 19 14  1  0
 19 18  1  0
  3 20  1  0
  4 21  1  0
  5 22  1  0
  6 23  1  0
  7 24  1  0
  8 25  1  0
 11 26  1  0
 13 27  1  0
 13 28  1  0
 14 29  1  0
 15 30  1  0
 15 31  1  0
 16 32  1  0
 16 33  1  0
 17 34  1  0
 17 35  1  0
 18 36  1  0
 18 37  1  0
 19 38  1  0
 19 39  1  0
M  ISO  8  20  14  21  14  22  14  23  14  24  14  25  14  26  14  27   8
M  ISO  8  28   8  29  13  30  13  31  13  32  13  33  13  34  13  35  13
M  ISO  4  36  13  37  13  38  13  39  13
M  END
>  <minimizedAffinity>  (1) 
-4.42063904

>  <minimizedRMSD>  (1) 
3.3991127

$$$$
