
     RDKit          3D

 44 47  0  0  0  0  0  0  0  0999 V2000
   45.9220   32.6980   46.5880 C   0  0  0  0  0  0  0  0  0  0  0  0
   45.6030   32.9850   47.9240 C   0  0  0  0  0  0  0  0  0  0  0  0
   46.0290   32.2160   48.9960 C   0  0  0  0  0  0  0  0  0  0  0  0
   46.7960   31.1230   48.7940 C   0  0  0  0  0  0  0  0  0  0  0  0
   47.1330   30.7910   47.4900 C   0  0  0  0  0  0  0  0  0  0  0  0
   47.9140   29.6810   47.3250 C   0  0  0  0  0  0  0  0  0  0  0  0
   48.2640   29.3110   46.0330 C   0  0  0  0  0  0  0  0  0  0  0  0
   47.8070   30.0630   44.9970 C   0  0  0  0  0  0  0  0  0  0  0  0
   47.0310   31.1580   45.2300 C   0  0  0  0  0  0  0  0  0  0  0  0
   46.6830   31.5740   46.4500 C   0  0  0  0  0  0  0  0  0  0  0  0
   44.4630   35.6080   45.0870 C   0  0  0  0  0  0  0  0  0  0  0  0
   45.2150   35.7850   43.8810 C   0  0  0  0  0  0  0  0  0  0  0  0
   46.2390   34.8550   43.5440 C   0  0  0  0  0  0  0  0  0  0  0  0
   46.4180   33.8540   44.4120 N   0  0  0  0  0  0  0  0  0  0  0  0
   45.7350   33.6740   45.5220 C   0  0  0  0  0  0  0  0  0  0  0  0
   44.7470   34.5540   45.8730 N   0  0  0  0  0  0  0  0  0  0  0  0
   44.8760   36.8890   43.0610 N   0  0  0  0  0  0  0  0  0  0  0  0
   46.4760   31.5850   43.8880 C   0  0  0  0  0  0  0  0  0  0  0  0
   47.3060   31.1840   42.7280 C   0  0  0  0  0  0  0  0  0  0  0  0
   46.6400   31.6470   41.4560 C   0  0  0  0  0  0  0  0  0  0  0  0
   45.3960   30.8020   41.2440 C   0  0  0  0  0  0  0  0  0  0  0  0
   44.5080   30.8510   42.4750 C   0  0  0  0  0  0  0  0  0  0  0  0
   45.2970   30.5220   43.7200 C   0  0  0  0  0  0  0  0  0  0  0  0
   44.9811   33.8682   48.1321 H   0  0  0  0  0  0  0  0  0  0  0  0
   45.7400   32.4983   50.0191 H   0  0  0  0  0  0  0  0  0  0  0  0
   47.1440   30.5127   49.6404 H   0  0  0  0  0  0  0  0  0  0  0  0
   48.2559   29.0968   48.1921 H   0  0  0  0  0  0  0  0  0  0  0  0
   48.8966   28.4295   45.8522 H   0  0  0  0  0  0  0  0  0  0  0  0
   48.0653   29.7857   43.9644 H   0  0  0  0  0  0  0  0  0  0  0  0
   43.6704   36.3185   45.3645 H   0  0  0  0  0  0  0  0  0  0  0  0
   46.8429   34.9535   42.6299 H   0  0  0  0  0  0  0  0  0  0  0  0
   45.3897   37.0561   42.1840 H   0  0  0  0  0  0  0  0  0  0  0  0
   44.1158   37.5248   43.3417 H   0  0  0  0  0  0  0  0  0  0  0  0
   46.3081   32.6721   43.8894 H   0  0  0  0  0  0  0  0  0  0  0  0
   48.3011   31.6454   42.8109 H   0  0  0  0  0  0  0  0  0  0  0  0
   47.4125   30.0893   42.7114 H   0  0  0  0  0  0  0  0  0  0  0  0
   46.3605   32.7072   41.5453 H   0  0  0  0  0  0  0  0  0  0  0  0
   47.3263   31.5378   40.6033 H   0  0  0  0  0  0  0  0  0  0  0  0
   44.8379   31.1889   40.3786 H   0  0  0  0  0  0  0  0  0  0  0  0
   45.6984   29.7600   41.0629 H   0  0  0  0  0  0  0  0  0  0  0  0
   44.0838   31.8611   42.5735 H   0  0  0  0  0  0  0  0  0  0  0  0
   43.7053   30.1077   42.3600 H   0  0  0  0  0  0  0  0  0  0  0  0
   44.6350   30.5645   44.5975 H   0  0  0  0  0  0  0  0  0  0  0  0
   45.7200   29.5103   43.6338 H   0  0  0  0  0  0  0  0  0  0  0  0
  1  2  2  0
  2  3  1  0
  4  3  2  0
  5  4  1  0
  6  5  2  0
  7  6  1  0
  8  9  1  0
  8  7  2  0
  9 10  2  0
 10  1  1  0
 10  5  1  0
 11 16  2  0
 12 11  1  0
 13 12  2  0
 13 14  1  0
 14 15  2  0
 15 16  1  0
 15  1  1  0
 17 12  1  0
 18  9  1  0
 19 18  1  0
 20 19  1  0
 21 20  1  0
 21 22  1  0
 22 23  1  0
 23 18  1  0
  2 24  1  0
  3 25  1  0
  4 26  1  0
  6 27  1  0
  7 28  1  0
  8 29  1  0
 11 30  1  0
 13 31  1  0
 17 32  1  0
 17 33  1  0
 18 34  1  0
 19 35  1  0
 19 36  1  0
 20 37  1  0
 20 38  1  0
 21 39  1  0
 21 40  1  0
 22 41  1  0
 22 42  1  0
 23 43  1  0
 23 44  1  0
M  ISO  8  24  14  25  14  26  14  27  14  28  14  29  14  30  14  31  14
M  ISO  8  34  13  35  13  36  13  37  13  38  13  39  13  40  13  41  13
M  ISO  3  42  13  43  13  44  13
M  END
>  <minimizedAffinity>  (1) 
-5.53443336

>  <minimizedRMSD>  (1) 
0.236343563

$$$$
