
     RDKit          3D

 28 29  0  0  0  0  0  0  0  0999 V2000
   47.0020   33.2600   41.1550 C   0  0  0  0  0  0  0  0  0  0  0  0
   47.6850   34.4640   40.9770 C   0  0  0  0  0  0  0  0  0  0  0  0
   48.2430   34.7200   39.7300 C   0  0  0  0  0  0  0  0  0  0  0  0
   48.0950   33.7870   38.7560 N   0  0  0  0  0  0  0  0  0  0  0  0
   47.4300   32.6320   38.9560 C   0  0  0  0  0  0  0  0  0  0  0  0
   46.8800   32.3630   40.1590 N   0  0  0  0  0  0  0  0  0  0  0  0
   46.3530   32.8500   42.4330 C   0  0  0  0  0  0  0  0  0  0  0  0
   47.4540   32.6260   43.4190 C   0  0  0  0  0  0  0  0  0  0  0  0
   47.0000   32.5130   44.8390 C   0  0  0  0  0  0  0  0  0  0  0  0
   46.2840   33.8000   45.1680 C   0  0  0  0  0  0  0  0  0  0  0  0
   45.1140   34.0670   44.2760 C   0  0  0  0  0  0  0  0  0  0  0  0
   45.3100   33.8200   42.8360 C   0  0  0  0  0  0  0  0  0  0  0  0
   47.7470   35.3310   42.1050 N   0  0  0  0  0  0  0  0  0  0  0  0
   48.7903   35.6546   39.5377 H   0  0  0  0  0  0  0  0  0  0  0  0
   47.3350   31.9055   38.1355 H   0  0  0  0  0  0  0  0  0  0  0  0
   45.7899   31.9094   42.3431 H   0  0  0  0  0  0  0  0  0  0  0  0
   47.9730   31.6945   43.1489 H   0  0  0  0  0  0  0  0  0  0  0  0
   48.1051   33.5111   43.3678 H   0  0  0  0  0  0  0  0  0  0  0  0
   46.3160   31.6589   44.9517 H   0  0  0  0  0  0  0  0  0  0  0  0
   47.8519   32.3496   45.5154 H   0  0  0  0  0  0  0  0  0  0  0  0
   45.9265   33.7456   46.2069 H   0  0  0  0  0  0  0  0  0  0  0  0
   47.0017   34.6205   45.0208 H   0  0  0  0  0  0  0  0  0  0  0  0
   44.2845   33.4284   44.6139 H   0  0  0  0  0  0  0  0  0  0  0  0
   44.9259   35.1474   44.3612 H   0  0  0  0  0  0  0  0  0  0  0  0
   45.5623   34.7840   42.3701 H   0  0  0  0  0  0  0  0  0  0  0  0
   44.3663   33.3621   42.5048 H   0  0  0  0  0  0  0  0  0  0  0  0
   48.2377   36.2338   42.0343 H   0  0  0  0  0  0  0  0  0  0  0  0
   47.3012   35.0553   42.9916 H   0  0  0  0  0  0  0  0  0  0  0  0
  1  7  1  0
  2  1  2  0
  2 13  1  0
  3  2  1  0
  4  5  1  0
  4  3  2  0
  5  6  2  0
  6  1  1  0
  7 12  1  0
  7  8  1  0
  8  9  1  0
  9 10  1  0
 11 10  1  0
 12 11  1  0
  3 14  1  0
  5 15  1  0
  7 16  1  0
  8 17  1  0
  8 18  1  0
  9 19  1  0
  9 20  1  0
 10 21  1  0
 10 22  1  0
 11 23  1  0
 11 24  1  0
 12 25  1  0
 12 26  1  0
 13 27  1  0
 13 28  1  0
M  ISO  8  14  14  15  14  16  13  17  13  18  13  19  13  20  13  21  13
M  ISO  5  22  13  23  13  24  13  25  13  26  13
M  END
>  <minimizedAffinity>  (1) 
-3.05744982

>  <minimizedRMSD>  (1) 
5.70805502

$$$$
