
     RDKit          3D

 42 45  0  0  0  0  0  0  0  0999 V2000
   46.5800   30.7370   45.4530 C   0  0  0  0  0  0  0  0  0  0  0  0
   46.6960   32.1000   45.3660 C   0  0  0  0  0  0  0  0  0  0  0  0
   46.3950   32.8340   46.4870 C   0  0  0  0  0  0  0  0  0  0  0  0
   45.9870   32.2750   47.6820 C   0  0  0  0  0  0  0  0  0  0  0  0
   45.6300   32.6820   48.9140 N   0  0  0  0  0  0  0  0  0  0  0  0
   45.3200   31.6250   49.6900 C   0  0  0  0  0  0  0  0  0  0  0  0
   45.4880   30.5340   48.9240 N   0  0  0  0  0  0  0  0  0  0  0  0
   45.8960   30.9060   47.6900 C   0  0  0  0  0  0  0  0  0  0  0  0
   46.1760   30.0840   46.6160 C   0  0  0  0  0  0  0  0  0  0  0  0
   47.1390   34.5660   42.7040 C   0  0  0  0  0  0  0  0  0  0  0  0
   47.9430   33.8850   41.7800 C   0  0  0  0  0  0  0  0  0  0  0  0
   48.3090   32.5890   42.1060 C   0  0  0  0  0  0  0  0  0  0  0  0
   47.8970   32.0210   43.2740 N   0  0  0  0  0  0  0  0  0  0  0  0
   47.1230   32.7270   44.1270 C   0  0  0  0  0  0  0  0  0  0  0  0
   46.7440   33.9820   43.8540 N   0  0  0  0  0  0  0  0  0  0  0  0
   48.3260   34.6100   40.5440 C   0  0  0  0  0  0  0  0  0  0  0  0
   48.7400   35.8620   40.9510 F   0  0  0  0  0  0  0  0  0  0  0  0
   47.2240   34.7100   39.7430 F   0  0  0  0  0  0  0  0  0  0  0  0
   49.3270   33.8810   39.9210 F   0  0  0  0  0  0  0  0  0  0  0  0
   46.0470   28.6150   46.7380 C   0  0  0  0  0  0  0  0  0  0  0  0
   44.7100   28.1840   47.2790 C   0  0  0  0  0  0  0  0  0  0  0  0
   44.8670   26.9410   48.1640 C   0  0  0  0  0  0  0  0  0  0  0  0
   45.7900   26.0090   47.4110 C   0  0  0  0  0  0  0  0  0  0  0  0
   47.1980   26.5580   47.5800 C   0  0  0  0  0  0  0  0  0  0  0  0
   47.2060   28.0710   47.4900 C   0  0  0  0  0  0  0  0  0  0  0  0
   46.8163   30.1317   44.5654 H   0  0  0  0  0  0  0  0  0  0  0  0
   46.4839   33.9289   46.4298 H   0  0  0  0  0  0  0  0  0  0  0  0
   45.5982   33.6647   49.2210 H   0  0  0  0  0  0  0  0  0  0  0  0
   44.9945   31.6502   50.7404 H   0  0  0  0  0  0  0  0  0  0  0  0
   46.8238   35.5973   42.4872 H   0  0  0  0  0  0  0  0  0  0  0  0
   48.9396   32.0119   41.4137 H   0  0  0  0  0  0  0  0  0  0  0  0
   46.0733   28.1771   45.7293 H   0  0  0  0  0  0  0  0  0  0  0  0
   44.2797   29.0018   47.8757 H   0  0  0  0  0  0  0  0  0  0  0  0
   44.0457   27.9408   46.4366 H   0  0  0  0  0  0  0  0  0  0  0  0
   45.3081   27.2151   49.1337 H   0  0  0  0  0  0  0  0  0  0  0  0
   43.8959   26.4674   48.3705 H   0  0  0  0  0  0  0  0  0  0  0  0
   45.5178   25.9850   46.3455 H   0  0  0  0  0  0  0  0  0  0  0  0
   45.7167   24.9818   47.7977 H   0  0  0  0  0  0  0  0  0  0  0  0
   47.5869   26.2541   48.5631 H   0  0  0  0  0  0  0  0  0  0  0  0
   47.8298   26.1559   46.7743 H   0  0  0  0  0  0  0  0  0  0  0  0
   48.1307   28.3869   46.9849 H   0  0  0  0  0  0  0  0  0  0  0  0
   47.1439   28.4614   48.5165 H   0  0  0  0  0  0  0  0  0  0  0  0
  1  9  2  0
  2  1  1  0
  2  3  2  0
  3  4  1  0
  4  8  2  0
  4  5  1  0
  5  6  1  0
  7  6  2  0
  8  7  1  0
  9 20  1  0
  9  8  1  0
 10 15  2  0
 11 12  2  0
 11 10  1  0
 12 13  1  0
 13 14  2  0
 14  2  1  0
 15 14  1  0
 16 17  1  0
 16 11  1  0
 18 16  1  0
 19 16  1  0
 20 21  1  0
 20 25  1  0
 21 22  1  0
 23 24  1  0
 23 22  1  0
 25 24  1  0
  1 26  1  0
  3 27  1  0
  5 28  1  0
  6 29  1  0
 10 30  1  0
 12 31  1  0
 20 32  1  0
 21 33  1  0
 21 34  1  0
 22 35  1  0
 22 36  1  0
 23 37  1  0
 23 38  1  0
 24 39  1  0
 24 40  1  0
 25 41  1  0
 25 42  1  0
M  ISO  8  26  14  27  14  28   9  29  14  30  14  31  14  32  13  33  13
M  ISO  8  34  13  35  13  36  13  37  13  38  13  39  13  40  13  41  13
M  ISO  1  42  13
M  END
>  <minimizedAffinity>  (1) 
-5.87808371

>  <minimizedRMSD>  (1) 
1.60103059

$$$$
