
     RDKit          3D

 53 57  0  0  1  0  0  0  0  0999 V2000
   45.8980   30.5880   44.7390 C   0  0  0  0  0  0  0  0  0  0  0  0
   46.3160   31.4090   45.7870 C   0  0  0  0  0  0  0  0  0  0  0  0
   46.1310   32.7900   45.6370 C   0  0  0  0  0  0  0  0  0  0  0  0
   45.5630   33.2690   44.5010 N   0  0  0  0  0  0  0  0  0  0  0  0
   45.1700   32.4250   43.5040 C   0  0  0  0  0  0  0  0  0  0  0  0
   45.3360   31.1040   43.6240 N   0  0  0  0  0  0  0  0  0  0  0  0
   46.8890   30.7830   46.9040 N   0  0  0  0  0  0  0  0  0  0  0  0
   48.0650   29.9940   46.7090 C   0  0  0  0  0  0  0  0  0  0  0  0
   48.5240   29.2820   47.9280 C   0  0  0  0  0  0  0  0  0  0  0  0
   48.5820   30.1240   49.0820 N   0  0  0  0  0  0  0  0  0  0  0  0
   47.5890   31.1090   49.2180 C   0  0  0  0  0  0  0  0  0  0  0  0
   46.4300   30.8370   48.2580 C   0  0  0  0  0  0  0  0  0  0  0  0
   45.2520   33.1870   41.1580 C   0  0  0  0  0  0  0  0  0  0  0  0
   44.5630   33.0310   42.3090 C   0  0  0  0  0  0  0  0  0  0  0  0
   43.2400   33.4590   42.3570 C   0  0  0  0  0  0  0  0  0  0  0  0
   42.6670   34.0290   41.2390 C   0  0  0  0  0  0  0  0  0  0  0  0
   43.3960   34.1820   40.0540 C   0  0  0  0  0  0  0  0  0  0  0  0
   44.7160   33.7540   40.0100 C   0  0  0  0  0  0  0  0  0  0  0  0
   42.5400   34.7820   39.1270 O   0  0  0  0  0  0  0  0  0  0  0  0
   41.4690   35.3590   39.8530 C   0  0  2  0  0  0  0  0  0  0  0  0
   41.3790   34.5440   40.9910 O   0  0  0  0  0  0  0  0  0  0  0  0
   40.1860   35.4110   39.0630 C   0  0  0  0  0  0  0  0  0  0  0  0
   39.0430   34.7920   39.8080 C   0  0  0  0  0  0  0  0  0  0  0  0
   38.7500   33.3750   39.4260 C   0  0  0  0  0  0  0  0  0  0  0  0
   39.9750   32.5270   39.2240 C   0  0  0  0  0  0  0  0  0  0  0  0
   40.8200   33.1510   38.1640 C   0  0  0  0  0  0  0  0  0  0  0  0
   40.4040   34.5690   37.8180 C   0  0  0  0  0  0  0  0  0  0  0  0
   46.0287   29.4990   44.8223 H   0  0  0  0  0  0  0  0  0  0  0  0
   46.4438   33.4807   46.4339 H   0  0  0  0  0  0  0  0  0  0  0  0
   47.8544   29.2461   45.9304 H   0  0  0  0  0  0  0  0  0  0  0  0
   48.8697   30.6877   46.4239 H   0  0  0  0  0  0  0  0  0  0  0  0
   47.8284   28.4549   48.1329 H   0  0  0  0  0  0  0  0  0  0  0  0
   49.5453   28.9231   47.7327 H   0  0  0  0  0  0  0  0  0  0  0  0
   48.5279   29.5151   49.9110 H   0  0  0  0  0  0  0  0  0  0  0  0
   47.2122   31.1029   50.2514 H   0  0  0  0  0  0  0  0  0  0  0  0
   48.0258   32.0900   48.9795 H   0  0  0  0  0  0  0  0  0  0  0  0
   45.6865   31.6420   48.3542 H   0  0  0  0  0  0  0  0  0  0  0  0
   45.9815   29.8661   48.5155 H   0  0  0  0  0  0  0  0  0  0  0  0
   46.2972   32.8454   41.1286 H   0  0  0  0  0  0  0  0  0  0  0  0
   42.6544   33.3436   43.2810 H   0  0  0  0  0  0  0  0  0  0  0  0
   45.3175   33.8607   39.0952 H   0  0  0  0  0  0  0  0  0  0  0  0
   41.6454   36.4157   40.1024 H   0  0  0  0  0  0  0  0  0  0  0  0
   39.9429   36.4627   38.8515 H   0  0  0  0  0  0  0  0  0  0  0  0
   39.2789   34.8168   40.8821 H   0  0  0  0  0  0  0  0  0  0  0  0
   38.1478   35.3774   39.5515 H   0  0  0  0  0  0  0  0  0  0  0  0
   38.1433   32.9208   40.2233 H   0  0  0  0  0  0  0  0  0  0  0  0
   38.2255   33.4093   38.4597 H   0  0  0  0  0  0  0  0  0  0  0  0
   40.5436   32.4684   40.1638 H   0  0  0  0  0  0  0  0  0  0  0  0
   39.6816   31.5115   38.9196 H   0  0  0  0  0  0  0  0  0  0  0  0
   41.8624   33.1693   38.5149 H   0  0  0  0  0  0  0  0  0  0  0  0
   40.6981   32.5457   37.2536 H   0  0  0  0  0  0  0  0  0  0  0  0
   41.1929   35.0329   37.2077 H   0  0  0  0  0  0  0  0  0  0  0  0
   39.4539   34.5221   37.2655 H   0  0  0  0  0  0  0  0  0  0  0  0
  1  2  2  0
  2  7  1  0
  3  2  1  0
  4  3  2  0
  5  6  2  0
  5  4  1  0
  6  1  1  0
  7 12  1  0
  8  7  1  0
  8  9  1  0
  9 10  1  0
 10 11  1  0
 12 11  1  0
 13 14  2  0
 14 15  1  0
 14  5  1  0
 16 15  2  0
 17 16  1  0
 18 17  2  0
 18 13  1  0
 19 20  1  0
 19 17  1  0
 20 21  1  0
 21 16  1  0
 22 23  1  0
 22 20  1  0
 24 23  1  0
 25 24  1  0
 26 25  1  0
 27 26  1  0
 27 22  1  0
  1 28  1  0
  3 29  1  0
  8 30  1  0
  8 31  1  0
  9 32  1  0
  9 33  1  0
 10 34  1  0
 11 35  1  0
 11 36  1  0
 12 37  1  0
 12 38  1  0
 13 39  1  0
 15 40  1  0
 18 41  1  0
 20 42  1  1
 22 43  1  0
 23 44  1  0
 23 45  1  0
 24 46  1  0
 24 47  1  0
 25 48  1  0
 25 49  1  0
 26 50  1  0
 26 51  1  0
 27 52  1  0
 27 53  1  0
M  ISO  8  28  14  29  14  30  13  31  13  32  13  33  13  34   5  35  13
M  ISO  8  36  13  37  13  38  13  39  14  40  14  41  14  42  13  43  13
M  ISO  8  44  13  45  13  46  13  47  13  48  13  49  13  50  13  51  13
M  ISO  2  52  13  53  13
M  END
>  <minimizedAffinity>  (1) 
-5.97797585

>  <minimizedRMSD>  (1) 
9.93750954

$$$$
