
     RDKit          3D

 42 44  0  0  1  0  0  0  0  0999 V2000
   46.3820   33.7980   43.3340 C   0  0  2  0  0  0  0  0  0  0  0  0
   45.7040   34.8580   42.5570 C   0  0  2  0  0  0  0  0  0  0  0  0
   45.3280   36.0500   43.3640 C   0  0  0  0  0  0  0  0  0  0  0  0
   44.5800   35.7670   44.6450 C   0  0  0  0  0  0  0  0  0  0  0  0
   45.0190   34.4880   45.3130 C   0  0  0  0  0  0  0  0  0  0  0  0
   46.3910   34.0650   44.8320 C   0  0  0  0  0  0  0  0  0  0  0  0
   47.7870   33.6170   42.9240 C   0  0  0  0  0  0  0  0  0  0  0  0
   48.5260   34.8030   42.7520 C   0  0  0  0  0  0  0  0  0  0  0  0
   49.8660   34.7380   42.3480 C   0  0  0  0  0  0  0  0  0  0  0  0
   50.3790   33.4810   42.1430 N   0  0  0  0  0  0  0  0  0  0  0  0
   49.6410   32.3540   42.3170 C   0  0  0  0  0  0  0  0  0  0  0  0
   48.3650   32.4360   42.7020 N   0  0  0  0  0  0  0  0  0  0  0  0
   44.6300   34.3920   41.6050 C   0  0  0  0  0  0  0  0  0  0  0  0
   43.7470   35.5930   41.2090 C   0  0  0  0  0  0  0  0  0  0  0  0
   42.4820   35.1390   40.5630 C   0  0  0  0  0  0  0  0  0  0  0  0
   42.8060   34.2730   39.3680 C   0  0  0  0  0  0  0  0  0  0  0  0
   43.8320   33.2270   39.6640 C   0  0  0  0  0  0  0  0  0  0  0  0
   45.0900   33.8250   40.3150 C   0  0  0  0  0  0  0  0  0  0  0  0
   45.7939   32.8931   43.1211 H   0  0  0  0  0  0  0  0  0  0  0  0
   46.4933   35.2080   41.8755 H   0  0  0  0  0  0  0  0  0  0  0  0
   46.2523   36.5865   43.6244 H   0  0  0  0  0  0  0  0  0  0  0  0
   44.6359   36.6299   42.7358 H   0  0  0  0  0  0  0  0  0  0  0  0
   44.7485   36.6019   45.3411 H   0  0  0  0  0  0  0  0  0  0  0  0
   43.5164   35.6557   44.3875 H   0  0  0  0  0  0  0  0  0  0  0  0
   45.0522   34.6442   46.4014 H   0  0  0  0  0  0  0  0  0  0  0  0
   44.2997   33.6958   45.0579 H   0  0  0  0  0  0  0  0  0  0  0  0
   46.6907   33.1475   45.3597 H   0  0  0  0  0  0  0  0  0  0  0  0
   47.1027   34.8775   45.0402 H   0  0  0  0  0  0  0  0  0  0  0  0
   48.0522   35.7788   42.9345 H   0  0  0  0  0  0  0  0  0  0  0  0
   50.4733   35.6437   42.2031 H   0  0  0  0  0  0  0  0  0  0  0  0
   50.0968   31.3687   42.1398 H   0  0  0  0  0  0  0  0  0  0  0  0
   44.1213   33.5944   42.1663 H   0  0  0  0  0  0  0  0  0  0  0  0
   43.5018   36.1718   42.1117 H   0  0  0  0  0  0  0  0  0  0  0  0
   44.3029   36.2138   40.4909 H   0  0  0  0  0  0  0  0  0  0  0  0
   41.8895   34.5588   41.2857 H   0  0  0  0  0  0  0  0  0  0  0  0
   41.9049   36.0156   40.2334 H   0  0  0  0  0  0  0  0  0  0  0  0
   43.1853   34.9172   38.5611 H   0  0  0  0  0  0  0  0  0  0  0  0
   41.8808   33.7530   39.0787 H   0  0  0  0  0  0  0  0  0  0  0  0
   43.3958   32.4849   40.3489 H   0  0  0  0  0  0  0  0  0  0  0  0
   44.1291   32.7623   38.7123 H   0  0  0  0  0  0  0  0  0  0  0  0
   45.8448   33.0431   40.4849 H   0  0  0  0  0  0  0  0  0  0  0  0
   45.5600   34.5871   39.6760 H   0  0  0  0  0  0  0  0  0  0  0  0
  1  6  1  0
  2  1  1  0
  2  3  1  0
  3  4  1  0
  4  5  1  0
  6  5  1  0
  7  1  1  0
  8  7  2  0
  9  8  1  0
 10 11  1  0
 10  9  2  0
 11 12  2  0
 12  7  1  0
 13  2  1  0
 14 13  1  0
 15 14  1  0
 16 17  1  0
 16 15  1  0
 17 18  1  0
 18 13  1  0
  1 19  1  1
  2 20  1  6
  3 21  1  0
  3 22  1  0
  4 23  1  0
  4 24  1  0
  5 25  1  0
  5 26  1  0
  6 27  1  0
  6 28  1  0
  8 29  1  0
  9 30  1  0
 11 31  1  0
 13 32  1  0
 14 33  1  0
 14 34  1  0
 15 35  1  0
 15 36  1  0
 16 37  1  0
 16 38  1  0
 17 39  1  0
 17 40  1  0
 18 41  1  0
 18 42  1  0
M  ISO  8  19  13  20  13  21  13  22  13  23  13  24  13  25  13  26  13
M  ISO  8  27  13  28  13  29  14  30  14  31  14  32  13  33  13  34  13
M  ISO  8  35  13  36  13  37  13  38  13  39  13  40  13  41  13  42  13
M  END
>  <minimizedAffinity>  (1) 
-5.33565664

>  <minimizedRMSD>  (1) 
2.41263366

$$$$
