
     RDKit          3D

 31 33  0  0  0  0  0  0  0  0999 V2000
   46.2390   32.9550   45.6930 C   0  0  0  0  0  0  0  0  0  0  0  0
   47.1760   31.9730   45.3140 C   0  0  0  0  0  0  0  0  0  0  0  0
   47.3150   31.1140   46.3430 C   0  0  0  0  0  0  0  0  0  0  0  0
   46.4960   31.5390   47.3280 N   0  0  0  0  0  0  0  0  0  0  0  0
   45.8570   32.6370   46.9330 N   0  0  0  0  0  0  0  0  0  0  0  0
   44.4720   35.9610   44.5640 C   0  0  0  0  0  0  0  0  0  0  0  0
   45.0290   36.1740   43.2920 C   0  0  0  0  0  0  0  0  0  0  0  0
   46.0030   35.2810   42.8410 C   0  0  0  0  0  0  0  0  0  0  0  0
   46.3570   34.2530   43.6600 N   0  0  0  0  0  0  0  0  0  0  0  0
   45.8070   34.0740   44.8680 C   0  0  0  0  0  0  0  0  0  0  0  0
   44.8700   34.9210   45.3230 N   0  0  0  0  0  0  0  0  0  0  0  0
   46.3960   30.8490   48.5880 C   0  0  0  0  0  0  0  0  0  0  0  0
   45.0870   30.1430   48.6310 C   0  0  0  0  0  0  0  0  0  0  0  0
   44.9150   29.1300   47.5830 C   0  0  0  0  0  0  0  0  0  0  0  0
   45.6310   27.9660   47.8270 C   0  0  0  0  0  0  0  0  0  0  0  0
   45.5840   26.9020   46.9380 C   0  0  0  0  0  0  0  0  0  0  0  0
   44.8250   27.0050   45.8090 N   0  0  0  0  0  0  0  0  0  0  0  0
   44.1440   28.1460   45.6040 C   0  0  0  0  0  0  0  0  0  0  0  0
   44.1780   29.1760   46.4460 N   0  0  0  0  0  0  0  0  0  0  0  0
   47.7010   31.9175   44.3490 H   0  0  0  0  0  0  0  0  0  0  0  0
   47.9722   30.2325   46.3743 H   0  0  0  0  0  0  0  0  0  0  0  0
   43.7034   36.6500   44.9442 H   0  0  0  0  0  0  0  0  0  0  0  0
   44.7067   37.0210   42.6685 H   0  0  0  0  0  0  0  0  0  0  0  0
   46.4705   35.4046   41.8530 H   0  0  0  0  0  0  0  0  0  0  0  0
   47.2149   30.1202   48.6791 H   0  0  0  0  0  0  0  0  0  0  0  0
   46.4678   31.5656   49.4194 H   0  0  0  0  0  0  0  0  0  0  0  0
   44.9944   29.6472   49.6085 H   0  0  0  0  0  0  0  0  0  0  0  0
   44.3113   30.9050   48.4644 H   0  0  0  0  0  0  0  0  0  0  0  0
   46.2436   27.8863   48.7371 H   0  0  0  0  0  0  0  0  0  0  0  0
   46.1537   25.9833   47.1416 H   0  0  0  0  0  0  0  0  0  0  0  0
   43.5288   28.2323   44.6962 H   0  0  0  0  0  0  0  0  0  0  0  0
  1  5  2  0
  2  1  1  0
  2  3  2  0
  3  4  1  0
  4 12  1  0
  5  4  1  0
  6 11  2  0
  7  6  1  0
  8  7  2  0
  8  9  1  0
  9 10  2  0
 10 11  1  0
 10  1  1  0
 12 13  1  0
 14 15  2  0
 14 13  1  0
 16 15  1  0
 17 16  2  0
 18 17  1  0
 18 19  2  0
 19 14  1  0
  2 20  1  0
  3 21  1  0
  6 22  1  0
  7 23  1  0
  8 24  1  0
 12 25  1  0
 12 26  1  0
 13 27  1  0
 13 28  1  0
 15 29  1  0
 16 30  1  0
 18 31  1  0
M  ISO  8  20  14  21  14  22  14  23  14  24  14  25   8  26   8  27   8
M  ISO  4  28   8  29  14  30  14  31  14
M  END
>  <minimizedAffinity>  (1) 
-4.60031557

>  <minimizedRMSD>  (1) 
1.72385335

$$$$
