
     RDKit          3D

 25 27  0  0  0  0  0  0  0  0999 V2000
   45.4950   34.5340   44.1410 C   0  0  0  0  0  0  0  0  0  0  0  0
   46.5530   34.2310   43.2630 C   0  0  0  0  0  0  0  0  0  0  0  0
   47.4930   33.2690   43.6850 C   0  0  0  0  0  0  0  0  0  0  0  0
   47.3350   32.6880   44.9080 N   0  0  0  0  0  0  0  0  0  0  0  0
   46.2940   33.0170   45.7160 C   0  0  0  0  0  0  0  0  0  0  0  0
   45.3740   33.9440   45.3270 N   0  0  0  0  0  0  0  0  0  0  0  0
   44.4860   35.5340   43.7300 C   0  0  0  0  0  0  0  0  0  0  0  0
   45.0970   36.8990   43.3190 C   0  0  0  0  0  0  0  0  0  0  0  0
   44.3500   36.0090   42.3710 C   0  0  0  0  0  0  0  0  0  0  0  0
   48.6300   32.8670   42.8760 C   0  0  0  0  0  0  0  0  0  0  0  0
   48.6470   31.7520   42.0680 C   0  0  0  0  0  0  0  0  0  0  0  0
   49.7050   31.3540   41.2980 C   0  0  0  0  0  0  0  0  0  0  0  0
   50.8210   32.1140   41.3300 N   0  0  0  0  0  0  0  0  0  0  0  0
   50.8230   33.2240   42.1250 C   0  0  0  0  0  0  0  0  0  0  0  0
   49.7670   33.5850   42.8680 N   0  0  0  0  0  0  0  0  0  0  0  0
   46.6427   34.7261   42.2848 H   0  0  0  0  0  0  0  0  0  0  0  0
   46.1923   32.5291   46.6966 H   0  0  0  0  0  0  0  0  0  0  0  0
   43.7417   35.1306   44.4324 H   0  0  0  0  0  0  0  0  0  0  0  0
   44.6506   37.8405   43.6716 H   0  0  0  0  0  0  0  0  0  0  0  0
   46.0897   37.3715   43.3547 H   0  0  0  0  0  0  0  0  0  0  0  0
   43.3608   36.3202   42.0042 H   0  0  0  0  0  0  0  0  0  0  0  0
   44.5933   35.5750   41.3899 H   0  0  0  0  0  0  0  0  0  0  0  0
   47.7383   31.1328   42.0396 H   0  0  0  0  0  0  0  0  0  0  0  0
   49.6490   30.4486   40.6758 H   0  0  0  0  0  0  0  0  0  0  0  0
   51.7284   33.8479   42.1572 H   0  0  0  0  0  0  0  0  0  0  0  0
  1  6  2  0
  2  3  2  0
  2  1  1  0
  3  4  1  0
  4  5  2  0
  6  5  1  0
  7  1  1  0
  8  7  1  0
  9  8  1  0
  9  7  1  0
 10  3  1  0
 11 10  2  0
 12 13  2  0
 12 11  1  0
 13 14  1  0
 14 15  2  0
 15 10  1  0
  2 16  1  0
  5 17  1  0
  7 18  1  0
  8 19  1  0
  8 20  1  0
  9 21  1  0
  9 22  1  0
 11 23  1  0
 12 24  1  0
 14 25  1  0
M  ISO  8  16  14  17  14  18  13  19  13  20  13  21  13  22  13  23  14
M  ISO  2  24  14  25  14
M  END
>  <minimizedAffinity>  (1) 
-3.9639802

>  <minimizedRMSD>  (1) 
1.90533531

$$$$
