
     RDKit          3D

 32 34  0  0  1  0  0  0  0  0999 V2000
   47.4980   33.6860   43.0360 N   0  0  0  0  0  0  0  0  0  0  0  0
   48.2500   34.0770   41.8600 C   0  0  0  0  0  0  0  0  0  0  0  0
   48.2030   32.7710   41.1200 C   0  0  2  0  0  0  0  0  0  0  0  0
   48.6580   31.8080   42.2050 C   0  0  0  0  0  0  0  0  0  0  0  0
   48.0140   32.3930   43.4410 C   0  0  0  0  0  0  0  0  0  0  0  0
   44.7410   35.9960   44.0270 C   0  0  0  0  0  0  0  0  0  0  0  0
   45.7450   35.4390   43.2370 C   0  0  0  0  0  0  0  0  0  0  0  0
   46.4670   34.3380   43.7270 C   0  0  0  0  0  0  0  0  0  0  0  0
   46.1200   33.8870   44.9680 N   0  0  0  0  0  0  0  0  0  0  0  0
   45.1520   34.4270   45.7230 C   0  0  0  0  0  0  0  0  0  0  0  0
   44.4600   35.4870   45.2470 N   0  0  0  0  0  0  0  0  0  0  0  0
   49.1440   32.6940   40.0440 N   0  0  0  0  0  0  0  0  0  0  0  0
   48.9400   32.8390   38.6470 C   0  0  0  0  0  0  0  0  0  0  0  0
   48.2760   33.8860   38.0460 C   0  0  0  0  0  0  0  0  0  0  0  0
   48.0690   34.0660   36.7020 C   0  0  0  0  0  0  0  0  0  0  0  0
   48.5800   33.1000   35.8830 N   0  0  0  0  0  0  0  0  0  0  0  0
   49.2430   32.0480   36.4370 C   0  0  0  0  0  0  0  0  0  0  0  0
   49.3940   31.9590   37.7490 N   0  0  0  0  0  0  0  0  0  0  0  0
   47.7563   34.8868   41.3029 H   0  0  0  0  0  0  0  0  0  0  0  0
   49.2549   34.4825   42.0491 H   0  0  0  0  0  0  0  0  0  0  0  0
   47.2175   32.5890   40.6664 H   0  0  0  0  0  0  0  0  0  0  0  0
   48.2950   30.7879   42.0108 H   0  0  0  0  0  0  0  0  0  0  0  0
   49.7512   31.7116   42.2800 H   0  0  0  0  0  0  0  0  0  0  0  0
   48.7579   32.5103   44.2428 H   0  0  0  0  0  0  0  0  0  0  0  0
   47.2189   31.7418   43.8331 H   0  0  0  0  0  0  0  0  0  0  0  0
   44.1710   36.8594   43.6534 H   0  0  0  0  0  0  0  0  0  0  0  0
   45.9689   35.8556   42.2439 H   0  0  0  0  0  0  0  0  0  0  0  0
   44.9239   34.0132   46.7163 H   0  0  0  0  0  0  0  0  0  0  0  0
   50.1163   32.5047   40.3264 H   0  0  0  0  0  0  0  0  0  0  0  0
   47.8690   34.6590   38.7144 H   0  0  0  0  0  0  0  0  0  0  0  0
   47.5240   34.9363   36.3075 H   0  0  0  0  0  0  0  0  0  0  0  0
   49.6578   31.2633   35.7872 H   0  0  0  0  0  0  0  0  0  0  0  0
  1  5  1  0
  1  8  1  0
  2  1  1  0
  3  2  1  0
  3  4  1  0
  4  5  1  0
  6 11  2  0
  7  8  2  0
  7  6  1  0
  8  9  1  0
  9 10  2  0
 11 10  1  0
 12  3  1  0
 13 12  1  0
 14 13  2  0
 15 14  1  0
 16 17  1  0
 16 15  2  0
 17 18  2  0
 18 13  1  0
  2 19  1  0
  2 20  1  0
  3 21  1  6
  4 22  1  0
  4 23  1  0
  5 24  1  0
  5 25  1  0
  6 26  1  0
  7 27  1  0
 10 28  1  0
 12 29  1  0
 14 30  1  0
 15 31  1  0
 17 32  1  0
M  ISO  8  19  13  20  13  21  13  22  13  23  13  24  13  25  13  26  14
M  ISO  5  27  14  28  14  30  14  31  14  32  14
M  END
>  <minimizedAffinity>  (1) 
-4.39221859

>  <minimizedRMSD>  (1) 
2.84645915

$$$$
