
     RDKit          3D

 45 47  0  0  0  0  0  0  0  0999 V2000
   46.5010   31.3420   45.3860 O   0  0  0  0  0  0  0  0  0  0  0  0
   45.4620   30.1770   47.2940 C   0  0  0  0  0  0  0  0  0  0  0  0
   46.0540   31.2390   46.7020 C   0  0  0  0  0  0  0  0  0  0  0  0
   46.2630   32.3750   47.4590 C   0  0  0  0  0  0  0  0  0  0  0  0
   45.8950   32.4660   48.7810 C   0  0  0  0  0  0  0  0  0  0  0  0
   45.2940   31.3760   49.3720 C   0  0  0  0  0  0  0  0  0  0  0  0
   45.0820   30.2330   48.6160 C   0  0  0  0  0  0  0  0  0  0  0  0
   45.1310   28.8100   46.2530 S   0  0  0  0  0  0  0  0  0  0  0  0
   44.1960   29.0910   45.1550 O   0  0  0  0  0  0  0  0  0  0  0  0
   44.3990   27.7860   47.1530 O   0  0  0  0  0  0  0  0  0  0  0  0
   46.5800   27.9190   45.8450 C   0  0  0  0  0  0  0  0  0  0  0  0
   47.0110   27.7120   44.5550 C   0  0  0  0  0  0  0  0  0  0  0  0
   48.1690   26.9920   44.3790 C   0  0  0  0  0  0  0  0  0  0  0  0
   48.8830   26.4930   45.4020 N   0  0  0  0  0  0  0  0  0  0  0  0
   48.4340   26.7130   46.6630 C   0  0  0  0  0  0  0  0  0  0  0  0
   47.3000   27.4160   46.8620 N   0  0  0  0  0  0  0  0  0  0  0  0
   45.3020   34.2470   43.7780 C   0  0  0  0  0  0  0  0  0  0  0  0
   46.4590   34.7480   43.1540 C   0  0  0  0  0  0  0  0  0  0  0  0
   47.6440   34.0750   43.2940 C   0  0  0  0  0  0  0  0  0  0  0  0
   47.6080   32.9580   44.0400 N   0  0  0  0  0  0  0  0  0  0  0  0
   46.5200   32.4880   44.6260 C   0  0  0  0  0  0  0  0  0  0  0  0
   45.3650   33.1320   44.4960 N   0  0  0  0  0  0  0  0  0  0  0  0
   48.9080   34.4850   42.6670 C   0  0  0  0  0  0  0  0  0  0  0  0
   48.7360   35.6470   41.7350 C   0  0  0  0  0  0  0  0  0  0  0  0
   48.6110   35.2630   40.3290 C   0  0  0  0  0  0  0  0  0  0  0  0
   48.0460   34.3510   39.5470 C   0  0  0  0  0  0  0  0  0  0  0  0
   48.2250   34.2000   38.0480 C   0  0  0  0  0  0  0  0  0  0  0  0
   46.7439   33.2433   46.9848 H   0  0  0  0  0  0  0  0  0  0  0  0
   46.0763   33.3877   49.3534 H   0  0  0  0  0  0  0  0  0  0  0  0
   44.9870   31.4120   50.4277 H   0  0  0  0  0  0  0  0  0  0  0  0
   44.6030   29.3580   49.0796 H   0  0  0  0  0  0  0  0  0  0  0  0
   46.4497   28.1080   43.6959 H   0  0  0  0  0  0  0  0  0  0  0  0
   48.5273   26.8165   43.3539 H   0  0  0  0  0  0  0  0  0  0  0  0
   48.9945   26.3182   47.5232 H   0  0  0  0  0  0  0  0  0  0  0  0
   44.3452   34.7790   43.6711 H   0  0  0  0  0  0  0  0  0  0  0  0
   46.4126   35.6720   42.5589 H   0  0  0  0  0  0  0  0  0  0  0  0
   49.6182   34.7689   43.4576 H   0  0  0  0  0  0  0  0  0  0  0  0
   49.2794   33.6347   42.0762 H   0  0  0  0  0  0  0  0  0  0  0  0
   47.8276   36.1943   42.0271 H   0  0  0  0  0  0  0  0  0  0  0  0
   49.6439   36.2624   41.8194 H   0  0  0  0  0  0  0  0  0  0  0  0
   49.1787   35.9715   39.7079 H   0  0  0  0  0  0  0  0  0  0  0  0
   47.3774   33.6284   40.0378 H   0  0  0  0  0  0  0  0  0  0  0  0
   49.0515   33.5028   37.8458 H   0  0  0  0  0  0  0  0  0  0  0  0
   47.2975   33.8074   37.6057 H   0  0  0  0  0  0  0  0  0  0  0  0
   48.4558   35.1804   37.6057 H   0  0  0  0  0  0  0  0  0  0  0  0
  1  3  1  0
  2  7  2  0
  3  2  1  0
  3  4  2  0
  4  5  1  0
  5  6  2  0
  7  6  1  0
  8 10  2  0
  8  2  1  0
  9  8  2  0
 11  8  1  0
 11 16  1  0
 12 11  2  0
 13 12  1  0
 13 14  2  0
 14 15  1  0
 15 16  2  0
 17 22  2  0
 18 19  2  0
 18 17  1  0
 19 20  1  0
 20 21  2  0
 21  1  1  0
 22 21  1  0
 23 19  1  0
 24 23  1  0
 25 24  1  0
 26 25  2  0
 27 26  1  0
  4 28  1  0
  5 29  1  0
  6 30  1  0
  7 31  1  0
 12 32  1  0
 13 33  1  0
 15 34  1  0
 17 35  1  0
 18 36  1  0
 23 37  1  0
 23 38  1  0
 24 39  1  0
 24 40  1  0
 25 41  1  0
 26 42  1  0
 27 43  1  0
 27 44  1  0
 27 45  1  0
M  ISO  8  28  14  29  14  30  14  31  14  32  14  33  14  34  14  35  14
M  ISO  8  36  14  37   8  38   8  39   8  40   8  43   8  44   8  45   8
M  END
>  <minimizedAffinity>  (1) 
-5.56194687

>  <minimizedRMSD>  (1) 
1.27822292

$$$$
