
     RDKit          3D

 49 51  0  0  0  0  0  0  0  0999 V2000
   46.1650   34.5720   43.6110 C   0  0  0  0  0  0  0  0  0  0  0  0
   46.1640   33.8080   44.7550 C   0  0  0  0  0  0  0  0  0  0  0  0
   45.3300   34.1930   45.7610 C   0  0  0  0  0  0  0  0  0  0  0  0
   44.5520   35.2830   45.6060 N   0  0  0  0  0  0  0  0  0  0  0  0
   44.5480   36.0230   44.5040 C   0  0  0  0  0  0  0  0  0  0  0  0
   45.3560   35.6510   43.5300 N   0  0  0  0  0  0  0  0  0  0  0  0
   47.0070   34.1140   42.5000 C   0  0  0  0  0  0  0  0  0  0  0  0
   48.3900   34.6960   42.5890 C   0  0  0  0  0  0  0  0  0  0  0  0
   48.7050   35.5790   41.4690 C   0  0  0  0  0  0  0  0  0  0  0  0
   48.5120   34.8910   40.1340 C   0  0  0  0  0  0  0  0  0  0  0  0
   47.2590   34.1090   40.0450 C   0  0  0  0  0  0  0  0  0  0  0  0
   46.3350   34.3940   41.2040 C   0  0  0  0  0  0  0  0  0  0  0  0
   46.8410   32.7220   45.0940 O   0  0  0  0  0  0  0  0  0  0  0  0
   47.2590   32.1660   46.2700 C   0  0  0  0  0  0  0  0  0  0  0  0
   47.1530   30.6390   46.3130 C   0  0  0  0  0  0  0  0  0  0  0  0
   46.0130   30.1540   45.5850 N   0  0  0  0  0  0  0  0  0  0  0  0
   44.8360   29.6070   46.7520 S   0  0  0  0  0  0  0  0  0  0  0  0
   43.6050   29.0880   46.0790 O   0  0  0  0  0  0  0  0  0  0  0  0
   44.5010   30.7810   47.6190 O   0  0  0  0  0  0  0  0  0  0  0  0
   45.4860   28.4240   47.7420 O   0  0  0  0  0  0  0  0  0  0  0  0
   45.1690   27.0850   47.6720 C   0  0  0  0  0  0  0  0  0  0  0  0
   46.2350   26.2100   47.8550 C   0  0  0  0  0  0  0  0  0  0  0  0
   46.0360   24.8310   47.8050 C   0  0  0  0  0  0  0  0  0  0  0  0
   44.7940   24.3120   47.5760 N   0  0  0  0  0  0  0  0  0  0  0  0
   43.8040   25.1910   47.4080 C   0  0  0  0  0  0  0  0  0  0  0  0
   43.9440   26.5490   47.4460 N   0  0  0  0  0  0  0  0  0  0  0  0
   45.2915   33.6163   46.6969 H   0  0  0  0  0  0  0  0  0  0  0  0
   43.9001   36.9066   44.4074 H   0  0  0  0  0  0  0  0  0  0  0  0
   47.1370   33.0238   42.5682 H   0  0  0  0  0  0  0  0  0  0  0  0
   48.4700   35.2710   43.5233 H   0  0  0  0  0  0  0  0  0  0  0  0
   49.1039   33.8596   42.5626 H   0  0  0  0  0  0  0  0  0  0  0  0
   48.0462   36.4587   41.5139 H   0  0  0  0  0  0  0  0  0  0  0  0
   49.7626   35.8699   41.5521 H   0  0  0  0  0  0  0  0  0  0  0  0
   48.4994   35.6585   39.3461 H   0  0  0  0  0  0  0  0  0  0  0  0
   49.3438   34.1812   40.0142 H   0  0  0  0  0  0  0  0  0  0  0  0
   46.7443   34.3673   39.1078 H   0  0  0  0  0  0  0  0  0  0  0  0
   47.5207   33.0409   40.0719 H   0  0  0  0  0  0  0  0  0  0  0  0
   46.0363   35.4523   41.1745 H   0  0  0  0  0  0  0  0  0  0  0  0
   45.4526   33.7429   41.1180 H   0  0  0  0  0  0  0  0  0  0  0  0
   48.3115   32.4437   46.4283 H   0  0  0  0  0  0  0  0  0  0  0  0
   46.5943   32.5520   47.0569 H   0  0  0  0  0  0  0  0  0  0  0  0
   48.0642   30.2080   45.8727 H   0  0  0  0  0  0  0  0  0  0  0  0
   47.0357   30.3378   47.3644 H   0  0  0  0  0  0  0  0  0  0  0  0
   45.6139   30.9112   45.0120 H   0  0  0  0  0  0  0  0  0  0  0  0
   42.9465   28.8104   46.7641 H   0  0  0  0  0  0  0  0  0  0  0  0
   44.5755   30.5200   48.5711 H   0  0  0  0  0  0  0  0  0  0  0  0
   47.2430   26.6094   48.0406 H   0  0  0  0  0  0  0  0  0  0  0  0
   46.8897   24.1530   47.9518 H   0  0  0  0  0  0  0  0  0  0  0  0
   42.7961   24.7903   47.2245 H   0  0  0  0  0  0  0  0  0  0  0  0
  1  2  1  0
  2 13  1  0
  2  3  2  0
  4  3  1  0
  5  4  2  0
  6  1  2  0
  6  5  1  0
  7  8  1  0
  7  1  1  0
  9  8  1  0
 10  9  1  0
 11 10  1  0
 11 12  1  0
 12  7  1  0
 13 14  1  0
 14 15  1  0
 16 15  1  0
 16 17  1  0
 17 19  1  0
 17 20  1  0
 18 17  1  0
 21 20  1  0
 21 22  2  0
 23 22  1  0
 24 23  2  0
 25 26  2  0
 25 24  1  0
 26 21  1  0
  3 27  1  0
  5 28  1  0
  7 29  1  0
  8 30  1  0
  8 31  1  0
  9 32  1  0
  9 33  1  0
 10 34  1  0
 10 35  1  0
 11 36  1  0
 11 37  1  0
 12 38  1  0
 12 39  1  0
 14 40  1  0
 14 41  1  0
 15 42  1  0
 15 43  1  0
 16 44  1  0
 18 45  1  0
 19 46  1  0
 22 47  1  0
 23 48  1  0
 25 49  1  0
M  ISO  8  27  14  28  14  29  13  30  13  31  13  32  13  33  13  34  13
M  ISO  8  35  13  36  13  37  13  38  13  39  13  40   8  41   8  42   8
M  ISO  7  43   8  44   5  45   3  46   3  47  14  48  14  49  14
M  END
>  <minimizedAffinity>  (1) 
-5.7530694

>  <minimizedRMSD>  (1) 
2.05110049

$$$$
