
     RDKit          3D

 26 28  0  0  0  0  0  0  0  0999 V2000
   46.0750   34.4740   41.5890 C   0  0  0  0  0  0  0  0  0  0  0  0
   46.2110   35.0490   42.8190 C   0  0  0  0  0  0  0  0  0  0  0  0
   45.1930   35.7180   43.4590 C   0  0  0  0  0  0  0  0  0  0  0  0
   44.0060   35.7880   42.8030 N   0  0  0  0  0  0  0  0  0  0  0  0
   43.8660   35.2260   41.6010 C   0  0  0  0  0  0  0  0  0  0  0  0
   44.8670   34.5660   40.9660 N   0  0  0  0  0  0  0  0  0  0  0  0
   48.1850   33.0830   38.9510 C   0  0  0  0  0  0  0  0  0  0  0  0
   49.2050   32.4580   39.6810 C   0  0  0  0  0  0  0  0  0  0  0  0
   49.1770   32.5090   41.0840 C   0  0  0  0  0  0  0  0  0  0  0  0
   48.1290   33.1830   41.6690 N   0  0  0  0  0  0  0  0  0  0  0  0
   47.1650   33.7720   40.9320 C   0  0  0  0  0  0  0  0  0  0  0  0
   47.1820   33.7280   39.5830 N   0  0  0  0  0  0  0  0  0  0  0  0
   42.5950   35.2930   40.8820 C   0  0  0  0  0  0  0  0  0  0  0  0
   42.5290   35.0640   39.5210 C   0  0  0  0  0  0  0  0  0  0  0  0
   41.3410   35.1200   38.8170 C   0  0  0  0  0  0  0  0  0  0  0  0
   40.1890   35.4050   39.4490 N   0  0  0  0  0  0  0  0  0  0  0  0
   40.2530   35.6320   40.7940 C   0  0  0  0  0  0  0  0  0  0  0  0
   41.4150   35.5740   41.4690 N   0  0  0  0  0  0  0  0  0  0  0  0
   47.1848   34.9738   43.3251 H   0  0  0  0  0  0  0  0  0  0  0  0
   45.3334   36.1726   44.4508 H   0  0  0  0  0  0  0  0  0  0  0  0
   48.2020   33.0475   37.8517 H   0  0  0  0  0  0  0  0  0  0  0  0
   50.0193   31.9328   39.1603 H   0  0  0  0  0  0  0  0  0  0  0  0
   49.9600   32.0302   41.6904 H   0  0  0  0  0  0  0  0  0  0  0  0
   43.4561   34.8285   38.9778 H   0  0  0  0  0  0  0  0  0  0  0  0
   41.3379   34.9303   37.7335 H   0  0  0  0  0  0  0  0  0  0  0  0
   39.3284   35.8689   41.3408 H   0  0  0  0  0  0  0  0  0  0  0  0
  1  2  2  0
  2  3  1  0
  4  3  2  0
  5  4  1  0
  6  1  1  0
  6  5  2  0
  7 12  2  0
  7  8  1  0
  8  9  2  0
  9 10  1  0
 11  1  1  0
 11 10  2  0
 12 11  1  0
 13 18  1  0
 13  5  1  0
 14 13  2  0
 15 16  2  0
 15 14  1  0
 16 17  1  0
 17 18  2  0
  2 19  1  0
  3 20  1  0
  7 21  1  0
  8 22  1  0
  9 23  1  0
 14 24  1  0
 15 25  1  0
 17 26  1  0
M  ISO  8  19  14  20  14  21  14  22  14  23  14  24  14  25  14  26  14
M  END
>  <minimizedAffinity>  (1) 
-4.86931133

>  <minimizedRMSD>  (1) 
8.3263483

$$$$
