
     RDKit          3D

 30 32  0  0  0  0  0  0  0  0999 V2000
   45.1850   33.4260   41.1330 F   0  0  0  0  0  0  0  0  0  0  0  0
   46.3520   34.0420   41.0030 C   0  0  0  0  0  0  0  0  0  0  0  0
   46.8550   34.7840   42.0530 C   0  0  0  0  0  0  0  0  0  0  0  0
   48.0580   35.4530   42.0000 C   0  0  0  0  0  0  0  0  0  0  0  0
   48.8250   35.3940   40.8350 C   0  0  0  0  0  0  0  0  0  0  0  0
   48.2840   34.6410   39.8080 C   0  0  0  0  0  0  0  0  0  0  0  0
   47.0740   33.9600   39.8450 C   0  0  0  0  0  0  0  0  0  0  0  0
   45.4710   34.0100   45.3830 C   0  0  0  0  0  0  0  0  0  0  0  0
   44.6340   35.1290   45.6080 C   0  0  0  0  0  0  0  0  0  0  0  0
   44.5510   36.1270   44.6270 C   0  0  0  0  0  0  0  0  0  0  0  0
   45.2960   35.9500   43.5020 N   0  0  0  0  0  0  0  0  0  0  0  0
   46.0870   34.8800   43.3060 C   0  0  0  0  0  0  0  0  0  0  0  0
   46.1600   33.9390   44.2410 N   0  0  0  0  0  0  0  0  0  0  0  0
   45.5530   33.0040   46.3770 N   0  0  0  0  0  0  0  0  0  0  0  0
   46.7140   33.2450   38.6610 C   0  0  0  0  0  0  0  0  0  0  0  0
   45.6510   32.3980   38.4620 C   0  0  0  0  0  0  0  0  0  0  0  0
   45.3480   31.7290   37.2970 C   0  0  0  0  0  0  0  0  0  0  0  0
   46.1580   31.9110   36.2380 N   0  0  0  0  0  0  0  0  0  0  0  0
   47.2120   32.7340   36.3880 C   0  0  0  0  0  0  0  0  0  0  0  0
   47.4570   33.3570   37.5480 N   0  0  0  0  0  0  0  0  0  0  0  0
   48.4113   36.0288   42.8682 H   0  0  0  0  0  0  0  0  0  0  0  0
   49.7918   35.9101   40.7402 H   0  0  0  0  0  0  0  0  0  0  0  0
   48.8656   34.5757   38.8766 H   0  0  0  0  0  0  0  0  0  0  0  0
   44.0563   35.2144   46.5402 H   0  0  0  0  0  0  0  0  0  0  0  0
   43.9127   37.0129   44.7605 H   0  0  0  0  0  0  0  0  0  0  0  0
   46.1571   32.1828   46.2300 H   0  0  0  0  0  0  0  0  0  0  0  0
   45.0085   33.0938   47.2467 H   0  0  0  0  0  0  0  0  0  0  0  0
   44.9763   32.2386   39.3161 H   0  0  0  0  0  0  0  0  0  0  0  0
   44.4718   31.0670   37.2342 H   0  0  0  0  0  0  0  0  0  0  0  0
   47.8891   32.8992   35.5369 H   0  0  0  0  0  0  0  0  0  0  0  0
  2  1  1  0
  2  3  2  0
  3 12  1  0
  4  3  1  0
  5  4  2  0
  6  7  2  0
  6  5  1  0
  7  2  1  0
  8  9  2  0
  8 14  1  0
 10  9  1  0
 11 10  2  0
 12 11  1  0
 12 13  2  0
 13  8  1  0
 15  7  1  0
 16 15  2  0
 17 16  1  0
 18 19  1  0
 18 17  2  0
 19 20  2  0
 20 15  1  0
  4 21  1  0
  5 22  1  0
  6 23  1  0
  9 24  1  0
 10 25  1  0
 14 26  1  0
 14 27  1  0
 16 28  1  0
 17 29  1  0
 19 30  1  0
M  ISO  8  21  14  22  14  23  14  24  14  25  14  28  14  29  14  30  14
M  END
>  <minimizedAffinity>  (1) 
-6.06819916

>  <minimizedRMSD>  (1) 
0.172111765

$$$$
