
     RDKit          3D

 28 30  0  0  0  0  0  0  0  0999 V2000
   44.4780   35.7790   44.9130 C   0  0  0  0  0  0  0  0  0  0  0  0
   45.1210   35.7230   43.6580 C   0  0  0  0  0  0  0  0  0  0  0  0
   46.0690   34.7250   43.3970 C   0  0  0  0  0  0  0  0  0  0  0  0
   46.3120   33.8510   44.4010 N   0  0  0  0  0  0  0  0  0  0  0  0
   45.6940   33.9200   45.5800 C   0  0  0  0  0  0  0  0  0  0  0  0
   44.7950   34.8620   45.8370 N   0  0  0  0  0  0  0  0  0  0  0  0
   44.6310   33.0640   41.4490 Cl  0  0  0  0  0  0  0  0  0  0  0  0
   46.1620   33.8830   41.1240 C   0  0  0  0  0  0  0  0  0  0  0  0
   46.7550   34.6390   42.1060 C   0  0  0  0  0  0  0  0  0  0  0  0
   47.9490   35.2600   41.8050 C   0  0  0  0  0  0  0  0  0  0  0  0
   48.5250   35.1240   40.5570 C   0  0  0  0  0  0  0  0  0  0  0  0
   47.8690   34.3380   39.5990 C   0  0  0  0  0  0  0  0  0  0  0  0
   48.6070   34.1710   38.0210 Cl  0  0  0  0  0  0  0  0  0  0  0  0
   46.6760   33.7010   39.8560 C   0  0  0  0  0  0  0  0  0  0  0  0
   46.0140   32.9370   46.6110 C   0  0  0  0  0  0  0  0  0  0  0  0
   45.2380   32.7890   47.7430 C   0  0  0  0  0  0  0  0  0  0  0  0
   45.4990   31.8710   48.7510 C   0  0  0  0  0  0  0  0  0  0  0  0
   46.5910   31.0880   48.5810 N   0  0  0  0  0  0  0  0  0  0  0  0
   47.3590   31.2220   47.4800 C   0  0  0  0  0  0  0  0  0  0  0  0
   47.0980   32.1260   46.4910 N   0  0  0  0  0  0  0  0  0  0  0  0
   43.7325   36.5588   45.1280 H   0  0  0  0  0  0  0  0  0  0  0  0
   44.8773   36.4646   42.8830 H   0  0  0  0  0  0  0  0  0  0  0  0
   48.4497   35.8722   42.5695 H   0  0  0  0  0  0  0  0  0  0  0  0
   49.4771   35.6212   40.3200 H   0  0  0  0  0  0  0  0  0  0  0  0
   46.1654   33.0867   39.0998 H   0  0  0  0  0  0  0  0  0  0  0  0
   44.3576   33.4393   47.8532 H   0  0  0  0  0  0  0  0  0  0  0  0
   44.8548   31.7843   49.6384 H   0  0  0  0  0  0  0  0  0  0  0  0
   48.2390   30.5706   47.3740 H   0  0  0  0  0  0  0  0  0  0  0  0
  1  6  2  0
  2  1  1  0
  3  2  2  0
  3  4  1  0
  4  5  2  0
  5  6  1  0
  5 15  1  0
  8  7  1  0
  8  9  2  0
  9  3  1  0
 10  9  1  0
 11 10  2  0
 12 14  2  0
 12 11  1  0
 13 12  1  0
 14  8  1  0
 15 16  2  0
 16 17  1  0
 18 17  2  0
 19 18  1  0
 20 15  1  0
 20 19  2  0
  1 21  1  0
  2 22  1  0
 10 23  1  0
 11 24  1  0
 14 25  1  0
 16 26  1  0
 17 27  1  0
 19 28  1  0
M  ISO  8  21  14  22  14  23  14  24  14  25  14  26  14  27  14  28  14
M  END
>  <minimizedAffinity>  (1) 
-6.58968306

>  <minimizedRMSD>  (1) 
0.448779136

$$$$
