
     RDKit          3D

 40 43  0  0  0  0  0  0  0  0999 V2000
   47.8050   31.0830   46.0360 C   0  0  0  0  0  0  0  0  0  0  0  0
   47.0320   32.1060   45.5370 C   0  0  0  0  0  0  0  0  0  0  0  0
   45.9970   32.5770   46.3210 C   0  0  0  0  0  0  0  0  0  0  0  0
   45.7130   32.0700   47.5660 C   0  0  0  0  0  0  0  0  0  0  0  0
   44.8140   32.2890   48.5530 N   0  0  0  0  0  0  0  0  0  0  0  0
   45.0320   31.4450   49.5880 C   0  0  0  0  0  0  0  0  0  0  0  0
   46.0800   30.6920   49.2400 N   0  0  0  0  0  0  0  0  0  0  0  0
   46.5120   31.0500   48.0180 C   0  0  0  0  0  0  0  0  0  0  0  0
   47.5540   30.5360   47.2930 C   0  0  0  0  0  0  0  0  0  0  0  0
   47.1570   34.4190   42.7090 C   0  0  0  0  0  0  0  0  0  0  0  0
   47.8350   33.6880   41.7380 C   0  0  0  0  0  0  0  0  0  0  0  0
   48.2370   32.4020   42.0900 C   0  0  0  0  0  0  0  0  0  0  0  0
   47.9640   31.9090   43.3300 N   0  0  0  0  0  0  0  0  0  0  0  0
   47.3030   32.6720   44.2190 C   0  0  0  0  0  0  0  0  0  0  0  0
   46.9000   33.9080   43.9270 N   0  0  0  0  0  0  0  0  0  0  0  0
   48.0800   34.3250   40.4110 C   0  0  0  0  0  0  0  0  0  0  0  0
   48.5900   35.5700   40.7040 F   0  0  0  0  0  0  0  0  0  0  0  0
   46.8810   34.4330   39.7610 F   0  0  0  0  0  0  0  0  0  0  0  0
   48.9700   33.5250   39.7120 F   0  0  0  0  0  0  0  0  0  0  0  0
   48.3250   29.5070   47.8020 O   0  0  0  0  0  0  0  0  0  0  0  0
   49.9230   28.2720   49.4190 O   0  0  0  0  0  0  0  0  0  0  0  0
   49.5060   29.6670   48.9810 P   0  0  2  0  0  0  0  0  0  0  0  0
   48.7750   30.4170   50.3300 O   0  0  0  0  0  0  0  0  0  0  0  0
   50.8540   30.5480   48.4930 O   0  0  0  0  0  0  0  0  0  0  0  0
   51.4600   31.5550   49.2010 C   0  0  0  0  0  0  0  0  0  0  0  0
   52.8560   31.6240   49.1410 C   0  0  0  0  0  0  0  0  0  0  0  0
   53.5630   32.6070   49.8240 C   0  0  0  0  0  0  0  0  0  0  0  0
   52.8690   33.5150   50.5620 N   0  0  0  0  0  0  0  0  0  0  0  0
   51.5270   33.4500   50.6190 C   0  0  0  0  0  0  0  0  0  0  0  0
   50.8610   32.4960   49.9550 N   0  0  0  0  0  0  0  0  0  0  0  0
   48.6360   30.6898   45.4320 H   0  0  0  0  0  0  0  0  0  0  0  0
   45.3724   33.3943   45.9313 H   0  0  0  0  0  0  0  0  0  0  0  0
   44.0682   32.9987   48.5211 H   0  0  0  0  0  0  0  0  0  0  0  0
   44.4615   31.3897   50.5269 H   0  0  0  0  0  0  0  0  0  0  0  0
   46.8227   35.4405   42.4748 H   0  0  0  0  0  0  0  0  0  0  0  0
   48.7786   31.7803   41.3619 H   0  0  0  0  0  0  0  0  0  0  0  0
   49.1484   30.0339   51.1631 H   0  0  0  0  0  0  0  0  0  0  0  0
   53.4061   30.8845   48.5405 H   0  0  0  0  0  0  0  0  0  0  0  0
   54.6608   32.6497   49.7688 H   0  0  0  0  0  0  0  0  0  0  0  0
   50.9708   34.1873   51.2166 H   0  0  0  0  0  0  0  0  0  0  0  0
  1  9  2  0
  2  1  1  0
  2  3  2  0
  3  4  1  0
  4  8  2  0
  4  5  1  0
  5  6  1  0
  7  6  2  0
  8  7  1  0
  9 20  1  0
  9  8  1  0
 10 15  2  0
 11 12  2  0
 11 10  1  0
 12 13  1  0
 13 14  2  0
 14  2  1  0
 15 14  1  0
 16 17  1  0
 16 11  1  0
 18 16  1  0
 19 16  1  0
 20 22  1  0
 22 21  2  0
 22 23  1  0
 24 22  1  0
 24 25  1  0
 25 30  1  0
 26 25  2  0
 26 27  1  0
 27 28  2  0
 28 29  1  0
 30 29  2  0
  1 31  1  0
  3 32  1  0
  5 33  1  0
  6 34  1  0
 10 35  1  0
 12 36  1  0
 23 37  1  0
 26 38  1  0
 27 39  1  0
 29 40  1  0
M  ISO  8  31  14  32  14  33   9  34  14  35  14  36  14  37   3  38  14
M  ISO  2  39  14  40  14
M  END
>  <minimizedAffinity>  (1) 
-6.22800398

>  <minimizedRMSD>  (1) 
0.655320585

$$$$
