
     RDKit          3D

 32 34  0  0  1  0  0  0  0  0999 V2000
   45.2210   34.3130   42.1420 N   0  0  0  0  0  0  0  0  0  0  0  0
   46.2320   33.6010   41.4510 C   0  0  1  0  0  0  0  0  0  0  0  0
   46.1230   33.5790   39.9760 C   0  0  0  0  0  0  0  0  0  0  0  0
   44.8460   33.6390   39.4030 N   0  0  0  0  0  0  0  0  0  0  0  0
   43.8100   34.2250   40.1420 C   0  0  0  0  0  0  0  0  0  0  0  0
   44.3460   35.0520   41.2880 C   0  0  0  0  0  0  0  0  0  0  0  0
   44.6560   35.3720   44.2020 C   0  0  0  0  0  0  0  0  0  0  0  0
   45.1670   34.2580   43.5430 C   0  0  0  0  0  0  0  0  0  0  0  0
   45.6100   33.1800   44.3210 C   0  0  0  0  0  0  0  0  0  0  0  0
   45.5360   33.2360   45.6790 N   0  0  0  0  0  0  0  0  0  0  0  0
   45.0290   34.3460   46.2860 C   0  0  0  0  0  0  0  0  0  0  0  0
   44.5980   35.3940   45.5600 N   0  0  0  0  0  0  0  0  0  0  0  0
   47.6120   34.1390   41.7550 C   0  0  0  0  0  0  0  0  0  0  0  0
   48.1150   35.4210   41.7070 C   0  0  0  0  0  0  0  0  0  0  0  0
   49.4300   35.6170   42.0420 C   0  0  0  0  0  0  0  0  0  0  0  0
   50.2030   34.5780   42.4090 N   0  0  0  0  0  0  0  0  0  0  0  0
   49.7070   33.3490   42.4510 C   0  0  0  0  0  0  0  0  0  0  0  0
   48.4150   33.1030   42.1290 N   0  0  0  0  0  0  0  0  0  0  0  0
   46.0800   32.5777   41.8250 H   0  0  0  0  0  0  0  0  0  0  0  0
   46.6917   34.4399   39.5946 H   0  0  0  0  0  0  0  0  0  0  0  0
   46.5019   32.5865   39.6908 H   0  0  0  0  0  0  0  0  0  0  0  0
   44.9313   34.1700   38.5245 H   0  0  0  0  0  0  0  0  0  0  0  0
   43.2202   34.8741   39.4781 H   0  0  0  0  0  0  0  0  0  0  0  0
   43.1860   33.4208   40.5590 H   0  0  0  0  0  0  0  0  0  0  0  0
   44.8988   35.9086   40.8749 H   0  0  0  0  0  0  0  0  0  0  0  0
   43.4865   35.3749   41.8939 H   0  0  0  0  0  0  0  0  0  0  0  0
   44.2984   36.2363   43.6231 H   0  0  0  0  0  0  0  0  0  0  0  0
   46.0196   32.2840   43.8318 H   0  0  0  0  0  0  0  0  0  0  0  0
   44.9713   34.3858   47.3838 H   0  0  0  0  0  0  0  0  0  0  0  0
   47.4775   36.2659   41.4074 H   0  0  0  0  0  0  0  0  0  0  0  0
   49.8563   36.6305   42.0106 H   0  0  0  0  0  0  0  0  0  0  0  0
   50.3568   32.5143   42.7528 H   0  0  0  0  0  0  0  0  0  0  0  0
  1  8  1  0
  2 13  1  0
  2  1  1  0
  3  2  1  0
  4  3  1  0
  4  5  1  0
  5  6  1  0
  6  1  1  0
  7 12  2  0
  8  7  1  0
  8  9  2  0
  9 10  1  0
 10 11  2  0
 12 11  1  0
 13 18  1  0
 14 13  2  0
 14 15  1  0
 15 16  2  0
 16 17  1  0
 18 17  2  0
  2 19  1  1
  3 20  1  0
  3 21  1  0
  4 22  1  0
  5 23  1  0
  5 24  1  0
  6 25  1  0
  6 26  1  0
  7 27  1  0
  9 28  1  0
 11 29  1  0
 14 30  1  0
 15 31  1  0
 17 32  1  0
M  ISO  8  19  13  20  13  21  13  22   5  23  13  24  13  25  13  26  13
M  ISO  6  27  14  28  14  29  14  30  14  31  14  32  14
M  END
>  <minimizedAffinity>  (1) 
-4.95932198

>  <minimizedRMSD>  (1) 
2.0573616

$$$$
