
     RDKit          3D

 38 42  0  0  0  0  0  0  0  0999 V2000
   47.3080   31.3370   45.2010 C   0  0  0  0  0  0  0  0  0  0  0  0
   46.8980   32.6680   45.1210 C   0  0  0  0  0  0  0  0  0  0  0  0
   46.2540   33.3130   46.1480 C   0  0  0  0  0  0  0  0  0  0  0  0
   45.9870   32.6340   47.3310 C   0  0  0  0  0  0  0  0  0  0  0  0
   45.3900   32.9410   48.5180 N   0  0  0  0  0  0  0  0  0  0  0  0
   45.4280   31.8370   49.3070 C   0  0  0  0  0  0  0  0  0  0  0  0
   46.0470   30.8580   48.6060 N   0  0  0  0  0  0  0  0  0  0  0  0
   46.3990   31.3210   47.3930 C   0  0  0  0  0  0  0  0  0  0  0  0
   47.0390   30.6530   46.3920 C   0  0  0  0  0  0  0  0  0  0  0  0
   46.6140   35.1030   42.3810 C   0  0  0  0  0  0  0  0  0  0  0  0
   47.6950   34.7780   41.5740 C   0  0  0  0  0  0  0  0  0  0  0  0
   48.5250   33.7290   41.9600 C   0  0  0  0  0  0  0  0  0  0  0  0
   48.2260   33.0730   43.1180 N   0  0  0  0  0  0  0  0  0  0  0  0
   47.1630   33.4080   43.8920 C   0  0  0  0  0  0  0  0  0  0  0  0
   46.3630   34.4150   43.5260 N   0  0  0  0  0  0  0  0  0  0  0  0
   47.4400   29.2480   46.5520 C   0  0  0  0  0  0  0  0  0  0  0  0
   48.5570   28.6800   45.9860 C   0  0  0  0  0  0  0  0  0  0  0  0
   48.5270   27.3510   46.4080 C   0  0  0  0  0  0  0  0  0  0  0  0
   47.4080   27.1900   47.1950 C   0  0  0  0  0  0  0  0  0  0  0  0
   46.8010   28.3560   47.2420 O   0  0  0  0  0  0  0  0  0  0  0  0
   46.9430   25.9820   47.8660 C   0  0  0  0  0  0  0  0  0  0  0  0
   45.7190   25.4560   47.5080 C   0  0  0  0  0  0  0  0  0  0  0  0
   45.3530   24.2970   48.2030 C   0  0  0  0  0  0  0  0  0  0  0  0
   46.1310   23.7380   49.1470 N   0  0  0  0  0  0  0  0  0  0  0  0
   47.3100   24.2820   49.4620 C   0  0  0  0  0  0  0  0  0  0  0  0
   47.7070   25.4010   48.8160 N   0  0  0  0  0  0  0  0  0  0  0  0
   47.8219   30.8450   44.3620 H   0  0  0  0  0  0  0  0  0  0  0  0
   45.9503   34.3642   46.0348 H   0  0  0  0  0  0  0  0  0  0  0  0
   44.9814   33.8518   48.7717 H   0  0  0  0  0  0  0  0  0  0  0  0
   45.0290   31.7532   50.3287 H   0  0  0  0  0  0  0  0  0  0  0  0
   45.9500   35.9302   42.0896 H   0  0  0  0  0  0  0  0  0  0  0  0
   47.8922   35.3379   40.6479 H   0  0  0  0  0  0  0  0  0  0  0  0
   49.3937   33.4386   41.3509 H   0  0  0  0  0  0  0  0  0  0  0  0
   49.3067   29.1653   45.3439 H   0  0  0  0  0  0  0  0  0  0  0  0
   49.2631   26.5728   46.1578 H   0  0  0  0  0  0  0  0  0  0  0  0
   45.0805   25.9115   46.7368 H   0  0  0  0  0  0  0  0  0  0  0  0
   44.3885   23.8237   47.9670 H   0  0  0  0  0  0  0  0  0  0  0  0
   47.9472   23.8267   50.2344 H   0  0  0  0  0  0  0  0  0  0  0  0
  1  9  2  0
  2  1  1  0
  2  3  2  0
  3  4  1  0
  4  8  2  0
  4  5  1  0
  5  6  1  0
  7  6  2  0
  8  7  1  0
  9 16  1  0
  9  8  1  0
 10 15  2  0
 11 12  2  0
 11 10  1  0
 12 13  1  0
 13 14  2  0
 14  2  1  0
 15 14  1  0
 16 20  1  0
 17 18  1  0
 17 16  2  0
 18 19  2  0
 19 20  1  0
 19 21  1  0
 21 26  1  0
 22 21  2  0
 22 23  1  0
 23 24  2  0
 24 25  1  0
 26 25  2  0
  1 27  1  0
  3 28  1  0
  5 29  1  0
  6 30  1  0
 10 31  1  0
 11 32  1  0
 12 33  1  0
 17 34  1  0
 18 35  1  0
 22 36  1  0
 23 37  1  0
 25 38  1  0
M  ISO  8  27  14  28  14  29   9  30  14  31  14  32  14  33  14  34  14
M  ISO  4  35  14  36  14  37  14  38  14
M  END
>  <minimizedAffinity>  (1) 
-5.88112545

>  <minimizedRMSD>  (1) 
1.18403471

$$$$
