
     RDKit          3D

 24 25  0  0  0  0  0  0  0  0999 V2000
   47.3510   31.7030   44.5050 C   0  0  0  0  0  0  0  0  0  0  0  0
   47.1180   33.0100   44.1510 C   0  0  0  0  0  0  0  0  0  0  0  0
   46.2970   33.7600   45.0330 C   0  0  0  0  0  0  0  0  0  0  0  0
   45.8010   33.1620   46.1350 N   0  0  0  0  0  0  0  0  0  0  0  0
   46.0500   31.8820   46.4390 C   0  0  0  0  0  0  0  0  0  0  0  0
   46.8190   31.1850   45.6170 N   0  0  0  0  0  0  0  0  0  0  0  0
   47.5880   33.7720   43.0260 C   0  0  0  0  0  0  0  0  0  0  0  0
   48.7090   34.5310   42.8400 C   0  0  0  0  0  0  0  0  0  0  0  0
   49.0860   35.1750   41.6940 C   0  0  0  0  0  0  0  0  0  0  0  0
   48.2990   35.0720   40.6170 N   0  0  0  0  0  0  0  0  0  0  0  0
   47.1810   34.3370   40.7400 C   0  0  0  0  0  0  0  0  0  0  0  0
   46.8650   33.7300   41.8920 N   0  0  0  0  0  0  0  0  0  0  0  0
   48.2380   30.8520   43.7050 C   0  0  0  0  0  0  0  0  0  0  0  0
   48.7620   29.7280   44.5610 C   0  0  0  0  0  0  0  0  0  0  0  0
   46.0685   34.8148   44.8204 H   0  0  0  0  0  0  0  0  0  0  0  0
   45.6280   31.4230   47.3452 H   0  0  0  0  0  0  0  0  0  0  0  0
   49.3803   34.6352   43.7051 H   0  0  0  0  0  0  0  0  0  0  0  0
   50.0145   35.7638   41.6585 H   0  0  0  0  0  0  0  0  0  0  0  0
   46.5097   34.2311   39.8751 H   0  0  0  0  0  0  0  0  0  0  0  0
   47.6778   30.4351   42.8551 H   0  0  0  0  0  0  0  0  0  0  0  0
   49.0809   31.4511   43.3301 H   0  0  0  0  0  0  0  0  0  0  0  0
   48.6406   29.9885   45.6228 H   0  0  0  0  0  0  0  0  0  0  0  0
   48.1999   28.8080   44.3425 H   0  0  0  0  0  0  0  0  0  0  0  0
   49.8280   29.5670   44.3425 H   0  0  0  0  0  0  0  0  0  0  0  0
  1  6  2  0
  2  1  1  0
  2  3  2  0
  3  4  1  0
  4  5  2  0
  6  5  1  0
  7  2  1  0
  8  7  2  0
  9  8  1  0
 10 11  1  0
 10  9  2  0
 11 12  2  0
 12  7  1  0
 13  1  1  0
 13 14  1  0
  3 15  1  0
  5 16  1  0
  8 17  1  0
  9 18  1  0
 11 19  1  0
 13 20  1  0
 13 21  1  0
 14 22  1  0
 14 23  1  0
 14 24  1  0
M  ISO  8  15  14  16  14  17  14  18  14  19  14  20   8  21   8  22   8
M  ISO  2  23   8  24   8
M  END
>  <minimizedAffinity>  (1) 
-3.45517612

>  <minimizedRMSD>  (1) 
3.0573225

$$$$
