
     RDKit          3D

 34 36  0  0  0  0  0  0  0  0999 V2000
   46.4470   33.8690   43.2350 C   0  0  0  0  0  0  0  0  0  0  0  0
   45.7600   34.8900   42.4240 C   0  0  0  0  0  0  0  0  0  0  0  0
   45.3530   36.1010   43.2050 C   0  0  0  0  0  0  0  0  0  0  0  0
   44.5100   35.7630   44.4180 C   0  0  0  0  0  0  0  0  0  0  0  0
   44.9890   34.5330   45.1580 C   0  0  0  0  0  0  0  0  0  0  0  0
   46.3810   34.1220   44.7360 C   0  0  0  0  0  0  0  0  0  0  0  0
   47.8770   33.7290   42.8890 C   0  0  0  0  0  0  0  0  0  0  0  0
   48.5860   34.9380   42.6940 C   0  0  0  0  0  0  0  0  0  0  0  0
   49.9460   34.8940   42.3690 C   0  0  0  0  0  0  0  0  0  0  0  0
   50.5140   33.6500   42.2590 N   0  0  0  0  0  0  0  0  0  0  0  0
   49.8080   32.5050   42.4520 C   0  0  0  0  0  0  0  0  0  0  0  0
   48.5090   32.5550   42.7620 N   0  0  0  0  0  0  0  0  0  0  0  0
   50.4990   31.2250   42.3140 C   0  0  0  0  0  0  0  0  0  0  0  0
   50.0250   30.1210   42.9910 C   0  0  0  0  0  0  0  0  0  0  0  0
   50.7580   28.9570   42.7890 C   0  0  0  0  0  0  0  0  0  0  0  0
   51.8430   28.8900   42.0000 N   0  0  0  0  0  0  0  0  0  0  0  0
   52.2710   29.9910   41.3570 C   0  0  0  0  0  0  0  0  0  0  0  0
   51.5880   31.1320   41.5300 N   0  0  0  0  0  0  0  0  0  0  0  0
   45.8952   32.9487   42.9932 H   0  0  0  0  0  0  0  0  0  0  0  0
   44.8572   34.4379   41.9875 H   0  0  0  0  0  0  0  0  0  0  0  0
   46.4726   35.2255   41.6561 H   0  0  0  0  0  0  0  0  0  0  0  0
   46.2607   36.6227   43.5424 H   0  0  0  0  0  0  0  0  0  0  0  0
   44.7416   36.7315   42.5427 H   0  0  0  0  0  0  0  0  0  0  0  0
   44.5352   36.6180   45.1096 H   0  0  0  0  0  0  0  0  0  0  0  0
   43.4927   35.5500   44.0578 H   0  0  0  0  0  0  0  0  0  0  0  0
   44.9942   34.7477   46.2368 H   0  0  0  0  0  0  0  0  0  0  0  0
   44.3044   33.7058   44.9191 H   0  0  0  0  0  0  0  0  0  0  0  0
   46.6604   33.2008   45.2682 H   0  0  0  0  0  0  0  0  0  0  0  0
   47.0762   34.9377   44.9837 H   0  0  0  0  0  0  0  0  0  0  0  0
   48.0718   35.9049   42.7972 H   0  0  0  0  0  0  0  0  0  0  0  0
   50.5312   35.8117   42.2095 H   0  0  0  0  0  0  0  0  0  0  0  0
   49.1373   30.1584   43.6395 H   0  0  0  0  0  0  0  0  0  0  0  0
   50.4316   28.0411   43.3033 H   0  0  0  0  0  0  0  0  0  0  0  0
   53.1575   29.9565   40.7067 H   0  0  0  0  0  0  0  0  0  0  0  0
  1  6  1  0
  2  3  1  0
  2  1  1  0
  3  4  1  0
  4  5  1  0
  6  5  1  0
  7  1  1  0
  8  7  2  0
  9  8  1  0
 10  9  2  0
 10 11  1  0
 11 12  2  0
 12  7  1  0
 13 11  1  0
 13 14  2  0
 15 14  1  0
 16 15  2  0
 17 18  2  0
 17 16  1  0
 18 13  1  0
  1 19  1  0
  2 20  1  0
  2 21  1  0
  3 22  1  0
  3 23  1  0
  4 24  1  0
  4 25  1  0
  5 26  1  0
  5 27  1  0
  6 28  1  0
  6 29  1  0
  8 30  1  0
  9 31  1  0
 14 32  1  0
 15 33  1  0
 17 34  1  0
M  ISO  8  19  13  20  13  21  13  22  13  23  13  24  13  25  13  26  13
M  ISO  8  27  13  28  13  29  13  30  14  31  14  32  14  33  14  34  14
M  END
>  <minimizedAffinity>  (1) 
-4.37971735

>  <minimizedRMSD>  (1) 
2.52142525

$$$$
