
     RDKit          3D

 24 25  0  0  0  0  0  0  0  0999 V2000
   45.3390   34.6150   43.6030 C   0  0  0  0  0  0  0  0  0  0  0  0
   45.2470   34.4970   44.9770 C   0  0  0  0  0  0  0  0  0  0  0  0
   46.1730   33.6870   45.6070 C   0  0  0  0  0  0  0  0  0  0  0  0
   47.0890   33.0780   44.8390 N   0  0  0  0  0  0  0  0  0  0  0  0
   47.1630   33.2070   43.4950 C   0  0  0  0  0  0  0  0  0  0  0  0
   46.2730   33.9890   42.8660 N   0  0  0  0  0  0  0  0  0  0  0  0
   43.5590   34.5410   42.0900 C   0  0  0  0  0  0  0  0  0  0  0  0
   43.7510   33.3210   42.3890 O   0  0  0  0  0  0  0  0  0  0  0  0
   44.4580   35.4190   42.7720 N   0  0  0  0  0  0  0  0  0  0  0  0
   42.5460   35.0390   41.1610 C   0  0  0  0  0  0  0  0  0  0  0  0
   42.8440   34.8760   39.8160 C   0  0  0  0  0  0  0  0  0  0  0  0
   41.9960   35.2910   38.7960 C   0  0  0  0  0  0  0  0  0  0  0  0
   40.8330   35.8750   39.1940 N   0  0  0  0  0  0  0  0  0  0  0  0
   40.5370   36.0360   40.5020 C   0  0  0  0  0  0  0  0  0  0  0  0
   41.3870   35.6200   41.4630 N   0  0  0  0  0  0  0  0  0  0  0  0
   44.1970   35.2280   45.6160 N   0  0  0  0  0  0  0  0  0  0  0  0
   46.1594   33.5469   46.6980 H   0  0  0  0  0  0  0  0  0  0  0  0
   47.9418   32.6783   42.9257 H   0  0  0  0  0  0  0  0  0  0  0  0
   44.4780   36.4454   42.6888 H   0  0  0  0  0  0  0  0  0  0  0  0
   43.7957   34.3960   39.5441 H   0  0  0  0  0  0  0  0  0  0  0  0
   42.2489   35.1559   37.7340 H   0  0  0  0  0  0  0  0  0  0  0  0
   39.5882   36.5137   40.7878 H   0  0  0  0  0  0  0  0  0  0  0  0
   44.0819   35.1766   46.6383 H   0  0  0  0  0  0  0  0  0  0  0  0
   43.5559   35.8059   45.0540 H   0  0  0  0  0  0  0  0  0  0  0  0
  1  2  2  0
  2  3  1  0
  2 16  1  0
  4  3  2  0
  5  4  1  0
  6  5  2  0
  6  1  1  0
  7  8  2  0
  7  9  1  0
  9  1  1  0
 10 15  1  0
 10  7  1  0
 11 10  2  0
 12 13  2  0
 12 11  1  0
 13 14  1  0
 14 15  2  0
  3 17  1  0
  5 18  1  0
  9 19  1  0
 11 20  1  0
 12 21  1  0
 14 22  1  0
 16 23  1  0
 16 24  1  0
M  ISO  5  17  14  18  14  20  14  21  14  22  14
M  END
>  <minimizedAffinity>  (1) 
-4.83693933

>  <minimizedRMSD>  (1) 
1.8610692

$$$$
