
     RDKit          3D

 34 37  0  0  0  0  0  0  0  0999 V2000
   44.7850   33.1400   41.1150 Cl  0  0  0  0  0  0  0  0  0  0  0  0
   46.3160   33.9530   40.9010 C   0  0  0  0  0  0  0  0  0  0  0  0
   46.8350   34.7060   41.9130 C   0  0  0  0  0  0  0  0  0  0  0  0
   48.0530   35.3600   41.7590 C   0  0  0  0  0  0  0  0  0  0  0  0
   48.6920   35.2120   40.5600 C   0  0  0  0  0  0  0  0  0  0  0  0
   48.1590   34.4450   39.5390 C   0  0  0  0  0  0  0  0  0  0  0  0
   46.9610   33.8100   39.7070 C   0  0  0  0  0  0  0  0  0  0  0  0
   45.5980   34.0390   45.3190 C   0  0  0  0  0  0  0  0  0  0  0  0
   44.7170   35.1010   45.5330 C   0  0  0  0  0  0  0  0  0  0  0  0
   44.5510   36.0360   44.5190 C   0  0  0  0  0  0  0  0  0  0  0  0
   45.2550   35.8680   43.3680 N   0  0  0  0  0  0  0  0  0  0  0  0
   46.1060   34.8300   43.1760 C   0  0  0  0  0  0  0  0  0  0  0  0
   46.2690   33.9250   44.1550 N   0  0  0  0  0  0  0  0  0  0  0  0
   46.3830   33.0010   38.6470 C   0  0  0  0  0  0  0  0  0  0  0  0
   45.4320   33.3700   37.7680 N   0  0  0  0  0  0  0  0  0  0  0  0
   45.1810   32.3230   36.9530 C   0  0  0  0  0  0  0  0  0  0  0  0
   45.9760   31.2910   37.3170 N   0  0  0  0  0  0  0  0  0  0  0  0
   46.6980   31.7270   38.3490 N   0  0  0  0  0  0  0  0  0  0  0  0
   45.9700   30.0300   36.6680 C   0  0  0  0  0  0  0  0  0  0  0  0
   46.7890   29.9210   35.5430 C   0  0  0  0  0  0  0  0  0  0  0  0
   46.8330   28.7060   34.8530 C   0  0  0  0  0  0  0  0  0  0  0  0
   46.0890   27.6580   35.2770 N   0  0  0  0  0  0  0  0  0  0  0  0
   45.2960   27.7890   36.3790 C   0  0  0  0  0  0  0  0  0  0  0  0
   45.2350   28.9580   37.0680 N   0  0  0  0  0  0  0  0  0  0  0  0
   48.4832   35.9698   42.5671 H   0  0  0  0  0  0  0  0  0  0  0  0
   49.6567   35.7165   40.4022 H   0  0  0  0  0  0  0  0  0  0  0  0
   48.7024   34.3461   38.5877 H   0  0  0  0  0  0  0  0  0  0  0  0
   45.7462   33.2874   46.1084 H   0  0  0  0  0  0  0  0  0  0  0  0
   44.1678   35.1950   46.4814 H   0  0  0  0  0  0  0  0  0  0  0  0
   43.8683   36.8894   44.6440 H   0  0  0  0  0  0  0  0  0  0  0  0
   44.4513   32.3113   36.1299 H   0  0  0  0  0  0  0  0  0  0  0  0
   47.3904   30.7777   35.2047 H   0  0  0  0  0  0  0  0  0  0  0  0
   47.4730   28.6016   33.9645 H   0  0  0  0  0  0  0  0  0  0  0  0
   44.6946   26.9319   36.7161 H   0  0  0  0  0  0  0  0  0  0  0  0
  2  1  1  0
  2  3  2  0
  3 12  1  0
  4  3  1  0
  5  4  2  0
  6  7  2  0
  6  5  1  0
  7  2  1  0
  8  9  2  0
 10  9  1  0
 11 10  2  0
 12 11  1  0
 12 13  2  0
 13  8  1  0
 14  7  1  0
 15 14  1  0
 16 17  1  0
 16 15  2  0
 17 18  1  0
 18 14  2  0
 19 24  1  0
 19 17  1  0
 20 19  2  0
 21 22  2  0
 21 20  1  0
 22 23  1  0
 23 24  2  0
  4 25  1  0
  5 26  1  0
  6 27  1  0
  8 28  1  0
  9 29  1  0
 10 30  1  0
 16 31  1  0
 20 32  1  0
 21 33  1  0
 23 34  1  0
M  ISO  8  25  14  26  14  27  14  28  14  29  14  30  14  31  14  32  14
M  ISO  2  33  14  34  14
M  END
>  <minimizedAffinity>  (1) 
-5.44105959

>  <minimizedRMSD>  (1) 
0.222559854

$$$$
