
     RDKit          3D

 40 43  0  0  0  0  0  0  0  0999 V2000
   47.9090   33.8770   42.8830 C   0  0  0  0  0  0  0  0  0  0  0  0
   48.5380   35.1020   42.6400 C   0  0  0  0  0  0  0  0  0  0  0  0
   49.9070   35.1320   42.3080 C   0  0  0  0  0  0  0  0  0  0  0  0
   50.5410   33.9180   42.2460 N   0  0  0  0  0  0  0  0  0  0  0  0
   49.8860   32.7400   42.4910 C   0  0  0  0  0  0  0  0  0  0  0  0
   48.5970   32.7380   42.8010 N   0  0  0  0  0  0  0  0  0  0  0  0
   46.4750   33.9700   43.2270 C   0  0  0  0  0  0  0  0  0  0  0  0
   45.7420   34.9750   42.4590 C   0  0  0  0  0  0  0  0  0  0  0  0
   45.2770   36.1390   43.2560 C   0  0  0  0  0  0  0  0  0  0  0  0
   44.5010   35.7450   44.5070 C   0  0  0  0  0  0  0  0  0  0  0  0
   44.9730   34.4780   45.1530 C   0  0  0  0  0  0  0  0  0  0  0  0
   46.4120   34.1860   44.7490 C   0  0  0  0  0  0  0  0  0  0  0  0
   50.7110   31.5450   42.3900 C   0  0  0  0  0  0  0  0  0  0  0  0
   51.5150   31.4320   41.3100 N   0  0  0  0  0  0  0  0  0  0  0  0
   52.2030   30.2790   41.3780 C   0  0  0  0  0  0  0  0  0  0  0  0
   51.8140   29.6700   42.5230 N   0  0  0  0  0  0  0  0  0  0  0  0
   50.9010   30.4380   43.1470 N   0  0  0  0  0  0  0  0  0  0  0  0
   52.2470   28.4230   43.0560 C   0  0  0  0  0  0  0  0  0  0  0  0
   52.1860   28.1820   44.4140 C   0  0  0  0  0  0  0  0  0  0  0  0
   52.5740   27.0190   45.0380 C   0  0  0  0  0  0  0  0  0  0  0  0
   53.0550   26.0410   44.2510 N   0  0  0  0  0  0  0  0  0  0  0  0
   53.1280   26.2480   42.9150 C   0  0  0  0  0  0  0  0  0  0  0  0
   52.7380   27.4050   42.3230 N   0  0  0  0  0  0  0  0  0  0  0  0
   47.9659   36.0391   42.7078 H   0  0  0  0  0  0  0  0  0  0  0  0
   50.4368   36.0755   42.1099 H   0  0  0  0  0  0  0  0  0  0  0  0
   45.9555   33.0418   42.9466 H   0  0  0  0  0  0  0  0  0  0  0  0
   46.4016   35.3463   41.6608 H   0  0  0  0  0  0  0  0  0  0  0  0
   44.8393   34.4782   42.0738 H   0  0  0  0  0  0  0  0  0  0  0  0
   46.1558   36.7259   43.5613 H   0  0  0  0  0  0  0  0  0  0  0  0
   44.5923   36.7167   42.6178 H   0  0  0  0  0  0  0  0  0  0  0  0
   44.5926   36.5601   45.2400 H   0  0  0  0  0  0  0  0  0  0  0  0
   43.4624   35.5688   44.1905 H   0  0  0  0  0  0  0  0  0  0  0  0
   44.9171   34.5849   46.2464 H   0  0  0  0  0  0  0  0  0  0  0  0
   44.3321   33.6469   44.8237 H   0  0  0  0  0  0  0  0  0  0  0  0
   46.7623   33.2795   45.2643 H   0  0  0  0  0  0  0  0  0  0  0  0
   47.0544   35.0338   45.0293 H   0  0  0  0  0  0  0  0  0  0  0  0
   52.9362   29.9047   40.6484 H   0  0  0  0  0  0  0  0  0  0  0  0
   51.7939   28.9884   45.0512 H   0  0  0  0  0  0  0  0  0  0  0  0
   52.4945   26.8953   46.1281 H   0  0  0  0  0  0  0  0  0  0  0  0
   53.5218   25.4407   42.2800 H   0  0  0  0  0  0  0  0  0  0  0  0
  1  7  1  0
  2  1  2  0
  3  2  1  0
  4  3  2  0
  4  5  1  0
  5  6  2  0
  6  1  1  0
  7 12  1  0
  8  7  1  0
  8  9  1  0
  9 10  1  0
 10 11  1  0
 12 11  1  0
 13  5  1  0
 13 17  2  0
 14 15  2  0
 14 13  1  0
 15 16  1  0
 16 18  1  0
 16 17  1  0
 18 19  2  0
 19 20  1  0
 21 20  2  0
 22 21  1  0
 23 22  2  0
 23 18  1  0
  2 24  1  0
  3 25  1  0
  7 26  1  0
  8 27  1  0
  8 28  1  0
  9 29  1  0
  9 30  1  0
 10 31  1  0
 10 32  1  0
 11 33  1  0
 11 34  1  0
 12 35  1  0
 12 36  1  0
 15 37  1  0
 19 38  1  0
 20 39  1  0
 22 40  1  0
M  ISO  8  24  14  25  14  26  13  27  13  28  13  29  13  30  13  31  13
M  ISO  8  32  13  33  13  34  13  35  13  36  13  37  14  38  14  39  14
M  ISO  1  40  14
M  END
>  <minimizedAffinity>  (1) 
-4.22731304

>  <minimizedRMSD>  (1) 
0.721426249

$$$$
