
     RDKit          3D

 32 34  0  0  0  0  0  0  0  0999 V2000
   48.0870   34.6000   41.7560 C   0  0  0  0  0  0  0  0  0  0  0  0
   48.9330   35.8360   41.4820 C   0  0  0  0  0  0  0  0  0  0  0  0
   49.5070   34.6670   42.1420 C   0  0  0  0  0  0  0  0  0  0  0  0
   47.7280   33.8190   40.5230 C   0  0  0  0  0  0  0  0  0  0  0  0
   48.1870   34.4330   39.2200 C   0  0  0  0  0  0  0  0  0  0  0  0
   47.8400   33.3820   38.1540 C   0  0  0  0  0  0  0  0  0  0  0  0
   46.4700   33.4580   37.9720 O   0  0  0  0  0  0  0  0  0  0  0  0
   45.9420   32.8370   39.1320 C   0  0  0  0  0  0  0  0  0  0  0  0
   46.2140   33.7220   40.3350 C   0  0  0  0  0  0  0  0  0  0  0  0
   46.1030   35.7540   42.7150 C   0  0  0  0  0  0  0  0  0  0  0  0
   47.0280   34.7270   42.8050 C   0  0  0  0  0  0  0  0  0  0  0  0
   46.9500   33.8150   43.8960 C   0  0  0  0  0  0  0  0  0  0  0  0
   45.9480   34.0120   44.8020 N   0  0  0  0  0  0  0  0  0  0  0  0
   45.0820   35.0150   44.6730 C   0  0  0  0  0  0  0  0  0  0  0  0
   45.1360   35.8790   43.6620 N   0  0  0  0  0  0  0  0  0  0  0  0
   44.0390   35.2640   45.5710 O   0  0  0  0  0  0  0  0  0  0  0  0
   49.2255   36.0879   40.4520 H   0  0  0  0  0  0  0  0  0  0  0  0
   48.8529   36.9074   41.7178 H   0  0  0  0  0  0  0  0  0  0  0  0
   49.7780   34.7232   43.2066 H   0  0  0  0  0  0  0  0  0  0  0  0
   50.3824   34.0316   41.9420 H   0  0  0  0  0  0  0  0  0  0  0  0
   48.2279   32.8565   40.7067 H   0  0  0  0  0  0  0  0  0  0  0  0
   47.6533   35.3749   39.0251 H   0  0  0  0  0  0  0  0  0  0  0  0
   49.2589   34.6800   39.2295 H   0  0  0  0  0  0  0  0  0  0  0  0
   48.3632   33.6058   37.2126 H   0  0  0  0  0  0  0  0  0  0  0  0
   48.1485   32.3739   38.4681 H   0  0  0  0  0  0  0  0  0  0  0  0
   44.8572   32.6981   39.0143 H   0  0  0  0  0  0  0  0  0  0  0  0
   46.4184   31.8562   39.2774 H   0  0  0  0  0  0  0  0  0  0  0  0
   45.7951   34.7244   40.1624 H   0  0  0  0  0  0  0  0  0  0  0  0
   45.7456   33.2957   41.2344 H   0  0  0  0  0  0  0  0  0  0  0  0
   46.1509   36.4671   41.8788 H   0  0  0  0  0  0  0  0  0  0  0  0
   47.6664   32.9873   44.0040 H   0  0  0  0  0  0  0  0  0  0  0  0
   43.4272   36.0274   45.4197 H   0  0  0  0  0  0  0  0  0  0  0  0
  1  3  1  0
  1 11  1  0
  2  1  1  0
  2  3  1  0
  4  1  1  0
  5  4  1  0
  6  5  1  0
  7  6  1  0
  7  8  1  0
  8  9  1  0
  9  4  1  0
 10 11  2  0
 10 15  1  0
 11 12  1  0
 12 13  2  0
 14 13  1  0
 14 16  1  0
 15 14  2  0
  2 17  1  0
  2 18  1  0
  3 19  1  0
  3 20  1  0
  4 21  1  0
  5 22  1  0
  5 23  1  0
  6 24  1  0
  6 25  1  0
  8 26  1  0
  8 27  1  0
  9 28  1  0
  9 29  1  0
 10 30  1  0
 12 31  1  0
 16 32  1  0
M  ISO  8  17  13  18  13  19  13  20  13  21  13  22  13  23  13  24  13
M  ISO  8  25  13  26  13  27  13  28  13  29  13  30  14  31  14  32   3
M  END
>  <minimizedAffinity>  (1) 
-5.48681974

>  <minimizedRMSD>  (1) 
0.262461603

$$$$
