
     RDKit          3D

 50 53  0  0  1  0  0  0  0  0999 V2000
   47.3260   32.6040   44.2160 C   0  0  0  0  0  0  0  0  0  0  0  0
   48.1840   33.0390   43.3140 C   0  0  0  0  0  0  0  0  0  0  0  0
   48.9880   32.0570   42.7550 C   0  0  0  0  0  0  0  0  0  0  0  0
   48.8040   30.7290   43.2050 N   0  0  0  0  0  0  0  0  0  0  0  0
   47.9280   30.3750   44.1100 C   0  0  0  0  0  0  0  0  0  0  0  0
   47.1140   31.3450   44.6790 N   0  0  0  0  0  0  0  0  0  0  0  0
   48.4630   34.4040   42.9350 C   0  0  1  0  0  0  0  0  0  0  0  0
   49.4050   34.8350   42.0680 C   0  0  0  0  0  0  0  0  0  0  0  0
   48.0460   34.7700   41.4290 C   0  0  1  0  0  0  0  0  0  0  0  0
   47.7750   33.6550   40.5980 N   0  0  0  0  0  0  0  0  0  0  0  0
   48.5780   34.4790   38.5550 N   0  0  0  0  0  0  0  0  0  0  0  0
   47.3960   34.1290   39.2840 C   0  0  1  0  0  0  0  0  0  0  0  0
   46.5910   33.0450   38.6150 C   0  0  0  0  0  0  0  0  0  0  0  0
   47.5100   32.2650   37.8760 O   0  0  0  0  0  0  0  0  0  0  0  0
   47.8320   33.0110   36.7440 C   0  0  0  0  0  0  0  0  0  0  0  0
   48.3760   34.3740   37.1220 C   0  0  0  0  0  0  0  0  0  0  0  0
   46.3040   33.4390   44.9110 C   0  0  0  0  0  0  0  0  0  0  0  0
   45.7480   33.8960   45.8630 O   0  0  0  0  0  0  0  0  0  0  0  0
   44.4920   31.7160   43.0820 Cl  0  0  0  0  0  0  0  0  0  0  0  0
   44.6020   33.4590   42.9370 C   0  0  0  0  0  0  0  0  0  0  0  0
   45.4640   34.1190   43.8520 C   0  0  0  0  0  0  0  0  0  0  0  0
   45.4510   35.4700   43.6370 C   0  0  0  0  0  0  0  0  0  0  0  0
   44.7960   36.1990   42.7590 C   0  0  0  0  0  0  0  0  0  0  0  0
   43.9700   35.5070   41.8920 C   0  0  0  0  0  0  0  0  0  0  0  0
   43.8720   34.1620   41.9760 C   0  0  0  0  0  0  0  0  0  0  0  0
   43.0240   33.5810   41.0680 O   0  0  0  0  0  0  0  0  0  0  0  0
   40.7980   32.9950   39.8120 O   0  0  0  0  0  0  0  0  0  0  0  0
   41.3700   33.2580   41.1780 P   0  0  0  0  0  0  0  0  0  0  0  0
   41.1430   31.9260   42.2030 O   0  0  0  0  0  0  0  0  0  0  0  0
   40.5340   34.5430   41.9020 O   0  0  0  0  0  0  0  0  0  0  0  0
   49.7402   32.3017   41.9906 H   0  0  0  0  0  0  0  0  0  0  0  0
   47.8376   29.3223   44.4161 H   0  0  0  0  0  0  0  0  0  0  0  0
   48.2708   34.7174   43.9718 H   0  0  0  0  0  0  0  0  0  0  0  0
   49.8611   35.8220   42.2348 H   0  0  0  0  0  0  0  0  0  0  0  0
   50.3700   34.4000   41.7685 H   0  0  0  0  0  0  0  0  0  0  0  0
   47.3685   35.4469   40.8879 H   0  0  0  0  0  0  0  0  0  0  0  0
   48.6172   33.0668   40.5235 H   0  0  0  0  0  0  0  0  0  0  0  0
   48.8372   35.4489   38.7853 H   0  0  0  0  0  0  0  0  0  0  0  0
   46.7725   35.0338   39.3349 H   0  0  0  0  0  0  0  0  0  0  0  0
   46.0862   32.4247   39.3702 H   0  0  0  0  0  0  0  0  0  0  0  0
   45.8133   33.4698   37.9633 H   0  0  0  0  0  0  0  0  0  0  0  0
   46.9275   33.1428   36.1320 H   0  0  0  0  0  0  0  0  0  0  0  0
   48.6068   32.4711   36.1800 H   0  0  0  0  0  0  0  0  0  0  0  0
   49.3377   34.5307   36.6116 H   0  0  0  0  0  0  0  0  0  0  0  0
   47.6458   35.1377   36.8161 H   0  0  0  0  0  0  0  0  0  0  0  0
   46.0992   36.0455   44.3142 H   0  0  0  0  0  0  0  0  0  0  0  0
   44.8992   37.2933   42.7171 H   0  0  0  0  0  0  0  0  0  0  0  0
   43.3914   36.0529   41.1322 H   0  0  0  0  0  0  0  0  0  0  0  0
   41.1936   32.2229   43.1461 H   0  0  0  0  0  0  0  0  0  0  0  0
   40.5886   34.4590   42.8869 H   0  0  0  0  0  0  0  0  0  0  0  0
  1  6  1  0
  1 17  1  0
  2  1  2  0
  3  4  2  0
  3  2  1  0
  4  5  1  0
  5  6  2  0
  7  2  1  0
  8  7  1  0
  9  8  1  0
  9  7  1  0
 10  9  1  0
 11 12  1  0
 12 10  1  0
 13 12  1  0
 14 13  1  0
 15 16  1  0
 15 14  1  0
 16 11  1  0
 17 18  2  0
 20 19  1  0
 20 21  2  0
 21 17  1  0
 22 21  1  0
 23 22  2  0
 24 25  2  0
 24 23  1  0
 25 20  1  0
 26 28  1  0
 26 25  1  0
 27 28  2  0
 28 30  1  0
 28 29  1  0
  3 31  1  0
  5 32  1  0
  7 33  1  1
  8 34  1  0
  8 35  1  0
  9 36  1  1
 10 37  1  0
 11 38  1  0
 12 39  1  1
 13 40  1  0
 13 41  1  0
 15 42  1  0
 15 43  1  0
 16 44  1  0
 16 45  1  0
 22 46  1  0
 23 47  1  0
 24 48  1  0
 29 49  1  0
 30 50  1  0
M  ISO  8  31  14  32  14  33  13  34  13  35  13  36  13  37   5  38   5
M  ISO  8  39  13  40  13  41  13  42  13  43  13  44  13  45  13  46  14
M  ISO  4  47  14  48  14  49   3  50   3
M  END
>  <minimizedAffinity>  (1) 
-6.19597387

>  <minimizedRMSD>  (1) 
0.976797581

$$$$
