
     RDKit          3D

 42 45  0  0  0  0  0  0  0  0999 V2000
   41.0640   34.0490   39.6620 C   0  0  0  0  0  0  0  0  0  0  0  0
   39.9900   34.0750   38.7850 C   0  0  0  0  0  0  0  0  0  0  0  0
   40.0070   34.9380   37.7050 C   0  0  0  0  0  0  0  0  0  0  0  0
   41.0630   35.7730   37.4770 C   0  0  0  0  0  0  0  0  0  0  0  0
   42.1260   35.7430   38.3490 C   0  0  0  0  0  0  0  0  0  0  0  0
   42.1470   34.8840   39.4560 C   0  0  0  0  0  0  0  0  0  0  0  0
   43.2760   34.8650   40.3660 C   0  0  0  0  0  0  0  0  0  0  0  0
   44.3790   34.0890   40.2010 C   0  0  0  0  0  0  0  0  0  0  0  0
   45.4630   34.0860   41.0940 C   0  0  0  0  0  0  0  0  0  0  0  0
   45.4060   34.8910   42.1690 N   0  0  0  0  0  0  0  0  0  0  0  0
   44.3010   35.6670   42.3340 C   0  0  0  0  0  0  0  0  0  0  0  0
   43.2720   35.6530   41.4610 N   0  0  0  0  0  0  0  0  0  0  0  0
   41.1310   32.9780   41.0710 S   0  0  0  0  0  0  0  0  0  0  0  0
   38.5980   31.8670   41.2500 C   0  0  0  0  0  0  0  0  0  0  0  0
   39.9430   31.6610   40.9180 C   0  0  0  0  0  0  0  0  0  0  0  0
   40.3360   30.3990   40.4620 C   0  0  0  0  0  0  0  0  0  0  0  0
   39.3830   29.4350   40.3660 N   0  0  0  0  0  0  0  0  0  0  0  0
   38.1010   29.6830   40.6990 C   0  0  0  0  0  0  0  0  0  0  0  0
   37.6760   30.8540   41.1340 N   0  0  0  0  0  0  0  0  0  0  0  0
   37.2180   28.5770   40.5470 N   0  0  0  0  0  0  0  0  0  0  0  0
   36.0780   28.6470   39.6540 C   0  0  0  0  0  0  0  0  0  0  0  0
   35.5720   27.2430   39.4300 C   0  0  0  0  0  0  0  0  0  0  0  0
   36.5700   26.3150   39.1710 O   0  0  0  0  0  0  0  0  0  0  0  0
   37.5500   26.2710   40.1460 C   0  0  0  0  0  0  0  0  0  0  0  0
   37.3560   27.3080   41.2380 C   0  0  0  0  0  0  0  0  0  0  0  0
   39.1279   33.4115   38.9480 H   0  0  0  0  0  0  0  0  0  0  0  0
   39.1510   34.9522   37.0143 H   0  0  0  0  0  0  0  0  0  0  0  0
   41.0635   36.4552   36.6141 H   0  0  0  0  0  0  0  0  0  0  0  0
   42.9822   36.4108   38.1729 H   0  0  0  0  0  0  0  0  0  0  0  0
   44.4254   33.4288   39.3224 H   0  0  0  0  0  0  0  0  0  0  0  0
   46.3366   33.4411   40.9181 H   0  0  0  0  0  0  0  0  0  0  0  0
   44.2442   36.3295   43.2103 H   0  0  0  0  0  0  0  0  0  0  0  0
   38.2743   32.8550   41.6093 H   0  0  0  0  0  0  0  0  0  0  0  0
   41.3818   30.1933   40.1900 H   0  0  0  0  0  0  0  0  0  0  0  0
   35.2860   29.2610   40.1076 H   0  0  0  0  0  0  0  0  0  0  0  0
   36.3705   29.1042   38.6972 H   0  0  0  0  0  0  0  0  0  0  0  0
   35.0292   26.9236   40.3319 H   0  0  0  0  0  0  0  0  0  0  0  0
   34.9307   27.2761   38.5369 H   0  0  0  0  0  0  0  0  0  0  0  0
   37.5398   25.2722   40.6068 H   0  0  0  0  0  0  0  0  0  0  0  0
   38.5094   26.4902   39.6545 H   0  0  0  0  0  0  0  0  0  0  0  0
   38.2278   27.3281   41.9085 H   0  0  0  0  0  0  0  0  0  0  0  0
   36.4776   27.0850   41.8614 H   0  0  0  0  0  0  0  0  0  0  0  0
  1 13  1  0
  2  1  2  0
  3  2  1  0
  4  3  2  0
  4  5  1  0
  5  6  2  0
  6  1  1  0
  6  7  1  0
  7 12  1  0
  8  7  2  0
  8  9  1  0
  9 10  2  0
 10 11  1  0
 12 11  2  0
 15 13  1  0
 15 14  2  0
 16 15  1  0
 17 16  2  0
 17 18  1  0
 18 19  2  0
 19 14  1  0
 20 18  1  0
 20 25  1  0
 21 20  1  0
 22 21  1  0
 23 22  1  0
 23 24  1  0
 24 25  1  0
  2 26  1  0
  3 27  1  0
  4 28  1  0
  5 29  1  0
  8 30  1  0
  9 31  1  0
 11 32  1  0
 14 33  1  0
 16 34  1  0
 21 35  1  0
 21 36  1  0
 22 37  1  0
 22 38  1  0
 24 39  1  0
 24 40  1  0
 25 41  1  0
 25 42  1  0
M  ISO  8  26  14  27  14  28  14  29  14  30  14  31  14  32  14  33  14
M  ISO  8  34  14  35  13  36  13  37  13  38  13  39  13  40  13  41  13
M  ISO  1  42  13
M  END
>  <minimizedAffinity>  (1) 
-5.77498674

>  <minimizedRMSD>  (1) 
2.40654683

$$$$
