
     RDKit          3D

 33 35  0  0  0  0  0  0  0  0999 V2000
   44.8140   36.3190   42.9190 Cl  0  0  0  0  0  0  0  0  0  0  0  0
   45.4260   35.0950   43.9720 C   0  0  0  0  0  0  0  0  0  0  0  0
   46.4620   34.2820   43.5820 C   0  0  0  0  0  0  0  0  0  0  0  0
   46.8870   33.3300   44.4890 C   0  0  0  0  0  0  0  0  0  0  0  0
   46.3280   33.1580   45.7490 C   0  0  0  0  0  0  0  0  0  0  0  0
   45.2950   33.9820   46.1150 C   0  0  0  0  0  0  0  0  0  0  0  0
   44.6310   33.7250   47.7070 Cl  0  0  0  0  0  0  0  0  0  0  0  0
   44.8480   34.9380   45.2390 C   0  0  0  0  0  0  0  0  0  0  0  0
   48.7710   35.3970   40.9770 C   0  0  0  0  0  0  0  0  0  0  0  0
   48.3240   34.7080   39.8350 C   0  0  0  0  0  0  0  0  0  0  0  0
   47.2160   33.8510   39.9710 C   0  0  0  0  0  0  0  0  0  0  0  0
   46.6460   33.7450   41.2000 N   0  0  0  0  0  0  0  0  0  0  0  0
   47.0930   34.4130   42.2650 C   0  0  0  0  0  0  0  0  0  0  0  0
   48.1640   35.2480   42.1670 N   0  0  0  0  0  0  0  0  0  0  0  0
   46.9210   32.1090   46.5310 N   0  0  0  0  0  0  0  0  0  0  0  0
   47.5420   32.4090   47.8180 C   0  0  0  0  0  0  0  0  0  0  0  0
   47.7240   31.1610   48.6210 C   0  0  0  0  0  0  0  0  0  0  0  0
   48.0130   30.0360   47.8590 O   0  0  0  0  0  0  0  0  0  0  0  0
   46.9300   29.7120   47.0600 C   0  0  0  0  0  0  0  0  0  0  0  0
   46.8620   30.7550   45.9670 C   0  0  0  0  0  0  0  0  0  0  0  0
   47.7166   32.6697   44.1961 H   0  0  0  0  0  0  0  0  0  0  0  0
   44.0181   35.5955   45.5373 H   0  0  0  0  0  0  0  0  0  0  0  0
   49.6356   36.0720   40.8944 H   0  0  0  0  0  0  0  0  0  0  0  0
   48.8256   34.8353   38.8644 H   0  0  0  0  0  0  0  0  0  0  0  0
   46.8248   33.2863   39.1119 H   0  0  0  0  0  0  0  0  0  0  0  0
   48.5240   32.8737   47.6455 H   0  0  0  0  0  0  0  0  0  0  0  0
   46.8873   33.0954   48.3750 H   0  0  0  0  0  0  0  0  0  0  0  0
   48.5514   31.3220   49.3277 H   0  0  0  0  0  0  0  0  0  0  0  0
   46.7669   30.9656   49.1268 H   0  0  0  0  0  0  0  0  0  0  0  0
   47.0692   28.7130   46.6212 H   0  0  0  0  0  0  0  0  0  0  0  0
   45.9995   29.6953   47.6464 H   0  0  0  0  0  0  0  0  0  0  0  0
   45.9187   30.6360   45.4138 H   0  0  0  0  0  0  0  0  0  0  0  0
   47.7216   30.6164   45.2948 H   0  0  0  0  0  0  0  0  0  0  0  0
  1  2  1  0
  2  8  2  0
  3  2  1  0
  3  4  2  0
  4  5  1  0
  5  6  2  0
  5 15  1  0
  6  7  1  0
  8  6  1  0
  9 14  2  0
 10 11  2  0
 10  9  1  0
 11 12  1  0
 12 13  2  0
 13  3  1  0
 14 13  1  0
 15 16  1  0
 16 17  1  0
 18 17  1  0
 19 18  1  0
 20 15  1  0
 20 19  1  0
  4 21  1  0
  8 22  1  0
  9 23  1  0
 10 24  1  0
 11 25  1  0
 16 26  1  0
 16 27  1  0
 17 28  1  0
 17 29  1  0
 19 30  1  0
 19 31  1  0
 20 32  1  0
 20 33  1  0
M  ISO  8  21  14  22  14  23  14  24  14  25  14  26  13  27  13  28  13
M  ISO  5  29  13  30  13  31  13  32  13  33  13
M  END
>  <minimizedAffinity>  (1) 
-5.60027695

>  <minimizedRMSD>  (1) 
0.768609107

$$$$
