
     RDKit          3D

 38 40  0  0  1  0  0  0  0  0999 V2000
   48.1970   34.5620   41.2400 C   0  0  1  0  0  0  0  0  0  0  0  0
   48.8510   35.9180   41.7140 C   0  0  0  0  0  0  0  0  0  0  0  0
   49.1060   34.6340   42.3800 C   0  0  2  0  0  0  0  0  0  0  0  0
   46.7210   34.5550   41.4520 C   0  0  0  0  0  0  0  0  0  0  0  0
   46.0140   34.3230   40.4790 O   0  0  0  0  0  0  0  0  0  0  0  0
   45.3960   35.9250   42.9960 C   0  0  0  0  0  0  0  0  0  0  0  0
   46.0850   34.7960   42.7050 C   0  0  0  0  0  0  0  0  0  0  0  0
   46.1610   33.8030   43.7240 C   0  0  0  0  0  0  0  0  0  0  0  0
   45.5650   33.9990   44.9210 N   0  0  0  0  0  0  0  0  0  0  0  0
   44.8830   35.1580   45.1630 C   0  0  0  0  0  0  0  0  0  0  0  0
   44.8070   36.0830   44.2220 N   0  0  0  0  0  0  0  0  0  0  0  0
   50.4200   34.1930   42.2630 O   0  0  0  0  0  0  0  0  0  0  0  0
   49.1130   32.0620   42.9010 O   0  0  0  0  0  0  0  0  0  0  0  0
   50.3570   32.4950   42.1480 P   0  0  2  0  0  0  0  0  0  0  0  0
   51.7280   31.7460   42.7200 O   0  0  0  0  0  0  0  0  0  0  0  0
   50.0540   32.1160   40.5040 O   0  0  0  0  0  0  0  0  0  0  0  0
   52.3250   31.9480   40.0320 N   0  0  0  0  0  0  0  0  0  0  0  0
   51.0220   31.3160   39.9570 C   0  0  1  0  0  0  0  0  0  0  0  0
   50.9830   30.0120   40.7270 C   0  0  0  0  0  0  0  0  0  0  0  0
   52.1790   29.3300   40.6990 O   0  0  0  0  0  0  0  0  0  0  0  0
   52.9690   29.6320   39.6030 C   0  0  0  0  0  0  0  0  0  0  0  0
   53.3830   31.0800   39.6050 C   0  0  0  0  0  0  0  0  0  0  0  0
   48.1629   33.9087   40.3557 H   0  0  0  0  0  0  0  0  0  0  0  0
   49.6355   36.3995   41.1117 H   0  0  0  0  0  0  0  0  0  0  0  0
   48.4887   36.9116   42.0165 H   0  0  0  0  0  0  0  0  0  0  0  0
   48.9911   34.2408   43.4009 H   0  0  0  0  0  0  0  0  0  0  0  0
   45.3089   36.7210   42.2419 H   0  0  0  0  0  0  0  0  0  0  0  0
   46.7096   32.8686   43.5347 H   0  0  0  0  0  0  0  0  0  0  0  0
   44.3990   35.3206   46.1373 H   0  0  0  0  0  0  0  0  0  0  0  0
   51.7183   31.7513   43.7099 H   0  0  0  0  0  0  0  0  0  0  0  0
   52.3213   32.7843   39.4308 H   0  0  0  0  0  0  0  0  0  0  0  0
   50.8368   31.1386   38.8873 H   0  0  0  0  0  0  0  0  0  0  0  0
   50.7303   30.2320   41.7747 H   0  0  0  0  0  0  0  0  0  0  0  0
   50.2295   29.3707   40.2464 H   0  0  0  0  0  0  0  0  0  0  0  0
   52.4010   29.4236   38.6843 H   0  0  0  0  0  0  0  0  0  0  0  0
   53.8769   29.0128   39.6501 H   0  0  0  0  0  0  0  0  0  0  0  0
   54.2378   31.2025   40.2864 H   0  0  0  0  0  0  0  0  0  0  0  0
   53.6485   31.3554   38.5737 H   0  0  0  0  0  0  0  0  0  0  0  0
  1  4  1  0
  1  2  1  0
  1  3  1  0
  2  3  1  0
  4  7  1  0
  5  4  2  0
  6 11  2  0
  7  6  1  0
  7  8  2  0
  8  9  1  0
  9 10  2  0
 11 10  1  0
 12  3  1  0
 14 12  1  0
 14 15  1  0
 14 13  2  0
 16 14  1  0
 18 17  1  0
 18 16  1  0
 18 19  1  0
 20 19  1  0
 21 22  1  0
 21 20  1  0
 22 17  1  0
  1 23  1  6
  2 24  1  0
  2 25  1  0
  3 26  1  1
  6 27  1  0
  8 28  1  0
 10 29  1  0
 15 30  1  0
 17 31  1  0
 18 32  1  6
 19 33  1  0
 19 34  1  0
 21 35  1  0
 21 36  1  0
 22 37  1  0
 22 38  1  0
M  ISO  8  23  13  24  13  25  13  26  13  27  14  28  14  29  14  30   3
M  ISO  8  31   5  32  13  33  13  34  13  35  13  36  13  37  13  38  13
M  END
>  <minimizedAffinity>  (1) 
-5.32530499

>  <minimizedRMSD>  (1) 
1.32839131

$$$$
