
     RDKit          3D

 29 30  0  0  0  0  0  0  0  0999 V2000
   47.9320   34.5290   42.3920 C   0  0  0  0  0  0  0  0  0  0  0  0
   48.0300   33.5060   43.3620 C   0  0  0  0  0  0  0  0  0  0  0  0
   46.9880   33.3770   44.2980 C   0  0  0  0  0  0  0  0  0  0  0  0
   45.9550   34.2490   44.2030 N   0  0  0  0  0  0  0  0  0  0  0  0
   45.8750   35.2110   43.2810 C   0  0  0  0  0  0  0  0  0  0  0  0
   46.8710   35.3430   42.3760 N   0  0  0  0  0  0  0  0  0  0  0  0
   47.0430   32.3630   45.2940 N   0  0  0  0  0  0  0  0  0  0  0  0
   46.7450   32.7050   46.6500 C   0  0  0  0  0  0  0  0  0  0  0  0
   47.0540   31.6100   47.6200 C   0  0  0  0  0  0  0  0  0  0  0  0
   47.8170   30.5780   47.1200 O   0  0  0  0  0  0  0  0  0  0  0  0
   47.2610   30.0170   45.9750 C   0  0  0  0  0  0  0  0  0  0  0  0
   47.3990   31.0300   44.8710 C   0  0  0  0  0  0  0  0  0  0  0  0
   49.0440   34.6520   41.4080 C   0  0  0  0  0  0  0  0  0  0  0  0
   49.1100   33.5900   40.5620 F   0  0  0  0  0  0  0  0  0  0  0  0
   48.8850   35.8470   40.7150 F   0  0  0  0  0  0  0  0  0  0  0  0
   50.2540   34.7950   42.1260 F   0  0  0  0  0  0  0  0  0  0  0  0
   44.7190   36.1400   43.2220 C   0  0  0  0  0  0  0  0  0  0  0  0
   44.0180   35.9970   42.0580 F   0  0  0  0  0  0  0  0  0  0  0  0
   45.1490   37.4710   43.3870 F   0  0  0  0  0  0  0  0  0  0  0  0
   43.8410   35.9180   44.2670 F   0  0  0  0  0  0  0  0  0  0  0  0
   48.8970   32.8294   43.3844 H   0  0  0  0  0  0  0  0  0  0  0  0
   47.3365   33.5910   46.9242 H   0  0  0  0  0  0  0  0  0  0  0  0
   45.6628   32.8937   46.7071 H   0  0  0  0  0  0  0  0  0  0  0  0
   47.5950   32.0516   48.4699 H   0  0  0  0  0  0  0  0  0  0  0  0
   46.0860   31.1663   47.8959 H   0  0  0  0  0  0  0  0  0  0  0  0
   47.7973   29.0942   45.7089 H   0  0  0  0  0  0  0  0  0  0  0  0
   46.2041   29.7605   46.1396 H   0  0  0  0  0  0  0  0  0  0  0  0
   46.7414   30.7367   44.0394 H   0  0  0  0  0  0  0  0  0  0  0  0
   48.4555   31.0482   44.5654 H   0  0  0  0  0  0  0  0  0  0  0  0
  1  2  2  0
  2  3  1  0
  3  7  1  0
  4  3  2  0
  5  4  1  0
  6  1  1  0
  6  5  2  0
  7  8  1  0
  8  9  1  0
 10  9  1  0
 11 10  1  0
 12  7  1  0
 12 11  1  0
 13 16  1  0
 13  1  1  0
 14 13  1  0
 15 13  1  0
 17  5  1  0
 17 19  1  0
 17 20  1  0
 18 17  1  0
  2 21  1  0
  8 22  1  0
  8 23  1  0
  9 24  1  0
  9 25  1  0
 11 26  1  0
 11 27  1  0
 12 28  1  0
 12 29  1  0
M  ISO  8  21  14  22  13  23  13  24  13  25  13  26  13  27  13  28  13
M  ISO  1  29  13
M  END
>  <minimizedAffinity>  (1) 
-5.7684536

>  <minimizedRMSD>  (1) 
1.15724909

$$$$
