
     RDKit          3D

 36 38  0  0  0  0  0  0  0  0999 V2000
   46.6590   32.9750   43.4030 C   0  0  0  0  0  0  0  0  0  0  0  0
   47.1310   32.2460   44.4870 C   0  0  0  0  0  0  0  0  0  0  0  0
   47.7900   31.0600   44.2740 C   0  0  0  0  0  0  0  0  0  0  0  0
   47.9730   30.6080   42.9920 C   0  0  0  0  0  0  0  0  0  0  0  0
   47.5200   31.3010   41.8950 C   0  0  0  0  0  0  0  0  0  0  0  0
   46.8530   32.5060   42.1510 C   0  0  0  0  0  0  0  0  0  0  0  0
   45.2800   36.4900   43.2920 C   0  0  0  0  0  0  0  0  0  0  0  0
   45.9830   35.3320   42.8960 C   0  0  0  0  0  0  0  0  0  0  0  0
   45.9690   34.2130   43.7040 C   0  0  0  0  0  0  0  0  0  0  0  0
   45.2580   34.3090   44.8570 N   0  0  0  0  0  0  0  0  0  0  0  0
   44.5850   35.4030   45.2470 C   0  0  0  0  0  0  0  0  0  0  0  0
   44.5940   36.5030   44.4590 N   0  0  0  0  0  0  0  0  0  0  0  0
   46.9410   32.7590   45.8760 C   0  0  0  0  0  0  0  0  0  0  0  0
   46.8320   31.7190   46.8590 N   0  0  0  0  0  0  0  0  0  0  0  0
   47.5730   32.2420   48.0300 C   0  0  0  0  0  0  0  0  0  0  0  0
   47.6370   31.1050   49.0210 C   0  0  0  0  0  0  0  0  0  0  0  0
   46.3630   30.8860   49.4990 O   0  0  0  0  0  0  0  0  0  0  0  0
   45.3750   31.6070   48.8590 C   0  0  0  0  0  0  0  0  0  0  0  0
   45.4540   31.6180   47.3650 C   0  0  0  0  0  0  0  0  0  0  0  0
   48.1686   30.4763   45.1261 H   0  0  0  0  0  0  0  0  0  0  0  0
   48.5017   29.6560   42.8362 H   0  0  0  0  0  0  0  0  0  0  0  0
   47.6730   30.9294   40.8710 H   0  0  0  0  0  0  0  0  0  0  0  0
   46.4731   33.0920   41.3011 H   0  0  0  0  0  0  0  0  0  0  0  0
   45.2895   37.3839   42.6510 H   0  0  0  0  0  0  0  0  0  0  0  0
   46.5398   35.3213   41.9474 H   0  0  0  0  0  0  0  0  0  0  0  0
   44.0317   35.4053   46.1977 H   0  0  0  0  0  0  0  0  0  0  0  0
   47.8018   33.3934   46.1339 H   0  0  0  0  0  0  0  0  0  0  0  0
   45.9934   33.3175   45.8885 H   0  0  0  0  0  0  0  0  0  0  0  0
   48.5870   32.5497   47.7348 H   0  0  0  0  0  0  0  0  0  0  0  0
   47.0774   33.1249   48.4600 H   0  0  0  0  0  0  0  0  0  0  0  0
   48.0108   30.1974   48.5245 H   0  0  0  0  0  0  0  0  0  0  0  0
   48.3180   31.3558   49.8476 H   0  0  0  0  0  0  0  0  0  0  0  0
   44.4031   31.1781   49.1443 H   0  0  0  0  0  0  0  0  0  0  0  0
   45.5078   32.6516   49.1772 H   0  0  0  0  0  0  0  0  0  0  0  0
   44.8800   32.4785   46.9907 H   0  0  0  0  0  0  0  0  0  0  0  0
   45.0437   30.6617   47.0085 H   0  0  0  0  0  0  0  0  0  0  0  0
  1  9  1  0
  1  2  1  0
  2 13  1  0
  3  2  2  0
  4  3  1  0
  5  6  1  0
  5  4  2  0
  6  1  2  0
  7 12  2  0
  8  7  1  0
  8  9  2  0
  9 10  1  0
 10 11  2  0
 12 11  1  0
 13 14  1  0
 14 19  1  0
 14 15  1  0
 15 16  1  0
 16 17  1  0
 18 17  1  0
 19 18  1  0
  3 20  1  0
  4 21  1  0
  5 22  1  0
  6 23  1  0
  7 24  1  0
  8 25  1  0
 11 26  1  0
 13 27  1  0
 13 28  1  0
 15 29  1  0
 15 30  1  0
 16 31  1  0
 16 32  1  0
 18 33  1  0
 18 34  1  0
 19 35  1  0
 19 36  1  0
M  ISO  8  20  14  21  14  22  14  23  14  24  14  25  14  26  14  27   8
M  ISO  8  28   8  29  13  30  13  31  13  32  13  33  13  34  13  35  13
M  ISO  1  36  13
M  END
>  <minimizedAffinity>  (1) 
-4.85112333

>  <minimizedRMSD>  (1) 
5.5903039

$$$$
