
     RDKit          3D

 33 34  0  0  1  0  0  0  0  0999 V2000
   44.5430   35.1880   45.4580 O   0  0  0  0  0  0  0  0  0  0  0  0
   45.3620   34.3280   44.4910 P   0  0  1  0  0  0  0  0  0  0  0  0
   44.4200   33.1980   43.7060 O   0  0  0  0  0  0  0  0  0  0  0  0
   46.0960   35.4000   43.4090 O   0  0  0  0  0  0  0  0  0  0  0  0
   46.6300   33.9040   40.2310 C   0  0  0  0  0  0  0  0  0  0  0  0
   47.9430   34.2930   39.8640 C   0  0  0  0  0  0  0  0  0  0  0  0
   48.6340   35.1070   40.7860 C   0  0  0  0  0  0  0  0  0  0  0  0
   48.0120   35.4580   41.9400 N   0  0  0  0  0  0  0  0  0  0  0  0
   46.7590   35.0580   42.2390 C   0  0  0  0  0  0  0  0  0  0  0  0
   46.0670   34.2810   41.3820 N   0  0  0  0  0  0  0  0  0  0  0  0
   46.5030   33.5320   45.4480 O   0  0  0  0  0  0  0  0  0  0  0  0
   45.7450   32.7290   47.5650 C   0  0  2  0  0  0  0  0  0  0  0  0
   45.8170   32.4660   46.0720 C   0  0  2  0  0  0  0  0  0  0  0  0
   46.4910   31.3180   45.7380 O   0  0  0  0  0  0  0  0  0  0  0  0
   45.9870   30.1710   46.3090 C   0  0  0  0  0  0  0  0  0  0  0  0
   45.6780   30.3170   47.7720 C   0  0  2  0  0  0  0  0  0  0  0  0
   46.4290   31.5620   48.2500 C   0  0  1  0  0  0  0  0  0  0  0  0
   44.4280   32.7450   48.0340 O   0  0  0  0  0  0  0  0  0  0  0  0
   45.9890   29.2140   48.5370 O   0  0  0  0  0  0  0  0  0  0  0  0
   47.7370   31.5000   47.7900 O   0  0  0  0  0  0  0  0  0  0  0  0
   43.9522   32.6369   44.3741 H   0  0  0  0  0  0  0  0  0  0  0  0
   46.0538   33.2684   39.5425 H   0  0  0  0  0  0  0  0  0  0  0  0
   48.3976   33.9777   38.9133 H   0  0  0  0  0  0  0  0  0  0  0  0
   49.6572   35.4506   40.5737 H   0  0  0  0  0  0  0  0  0  0  0  0
   46.2094   33.7047   47.7708 H   0  0  0  0  0  0  0  0  0  0  0  0
   44.7743   32.3635   45.7368 H   0  0  0  0  0  0  0  0  0  0  0  0
   45.0604   29.8980   45.7828 H   0  0  0  0  0  0  0  0  0  0  0  0
   46.7621   29.3958   46.2173 H   0  0  0  0  0  0  0  0  0  0  0  0
   44.5897   30.4164   47.8974 H   0  0  0  0  0  0  0  0  0  0  0  0
   46.4284   31.6505   49.3464 H   0  0  0  0  0  0  0  0  0  0  0  0
   44.4302   32.7450   49.0240 H   0  0  0  0  0  0  0  0  0  0  0  0
   45.9229   29.4486   49.4965 H   0  0  0  0  0  0  0  0  0  0  0  0
   48.3570   31.4706   48.5613 H   0  0  0  0  0  0  0  0  0  0  0  0
  2 11  1  0
  2  1  2  0
  3  2  1  0
  4  2  1  0
  5 10  2  0
  6  5  1  0
  6  7  2  0
  7  8  1  0
  8  9  2  0
  9  4  1  0
 10  9  1  0
 12 18  1  0
 12 17  1  0
 13 11  1  0
 13 12  1  0
 14 13  1  0
 14 15  1  0
 15 16  1  0
 16 17  1  0
 16 19  1  0
 17 20  1  0
  3 21  1  0
  5 22  1  0
  6 23  1  0
  7 24  1  0
 12 25  1  6
 13 26  1  6
 15 27  1  0
 15 28  1  0
 16 29  1  6
 17 30  1  1
 18 31  1  0
 19 32  1  0
 20 33  1  0
M  ISO  8  21   3  22  14  23  14  24  14  25  13  26  13  27  13  28  13
M  ISO  5  29  13  30  13  31   3  32   3  33   3
M  END
>  <minimizedAffinity>  (1) 
-5.73376608

>  <minimizedRMSD>  (1) 
3.47199678

$$$$
