
     RDKit          3D

 44 46  0  0  1  0  0  0  0  0999 V2000
   47.7950   32.2720   43.4960 C   0  0  1  0  0  0  0  0  0  0  0  0
   48.3820   33.3470   42.6120 C   0  0  2  0  0  0  0  0  0  0  0  0
   47.3980   34.0800   41.9760 O   0  0  0  0  0  0  0  0  0  0  0  0
   46.7960   34.8520   42.9570 C   0  0  0  0  0  0  0  0  0  0  0  0
   45.9450   33.9450   43.8080 C   0  0  2  0  0  0  0  0  0  0  0  0
   46.6300   32.7230   44.3080 C   0  0  2  0  0  0  0  0  0  0  0  0
   49.7490   32.0640   39.3150 C   0  0  0  0  0  0  0  0  0  0  0  0
   48.8790   32.6520   40.2480 C   0  0  0  0  0  0  0  0  0  0  0  0
   49.2750   32.7480   41.6120 C   0  0  0  0  0  0  0  0  0  0  0  0
   50.4900   32.2580   41.9360 N   0  0  0  0  0  0  0  0  0  0  0  0
   51.3120   31.6950   41.0200 C   0  0  0  0  0  0  0  0  0  0  0  0
   50.9500   31.5950   39.7110 N   0  0  0  0  0  0  0  0  0  0  0  0
   47.5400   31.0900   42.7900 O   0  0  0  0  0  0  0  0  0  0  0  0
   44.8320   33.6190   43.0090 O   0  0  0  0  0  0  0  0  0  0  0  0
   46.9450   32.8020   45.6760 O   0  0  0  0  0  0  0  0  0  0  0  0
   45.2020   32.3590   47.1800 C   0  0  1  0  0  0  0  0  0  0  0  0
   46.3840   31.8030   46.4310 C   0  0  2  0  0  0  0  0  0  0  0  0
   47.3410   31.2510   47.2680 O   0  0  0  0  0  0  0  0  0  0  0  0
   46.9010   30.2130   48.0430 C   0  0  0  0  0  0  0  0  0  0  0  0
   45.4210   30.1760   48.2330 C   0  0  2  0  0  0  0  0  0  0  0  0
   44.9060   31.5780   48.4400 C   0  0  1  0  0  0  0  0  0  0  0  0
   45.3140   33.6880   47.5270 O   0  0  0  0  0  0  0  0  0  0  0  0
   45.1400   29.3950   49.3520 O   0  0  0  0  0  0  0  0  0  0  0  0
   45.4970   32.1540   49.5720 O   0  0  0  0  0  0  0  0  0  0  0  0
   48.5762   32.0409   44.2352 H   0  0  0  0  0  0  0  0  0  0  0  0
   48.9534   34.0307   43.2571 H   0  0  0  0  0  0  0  0  0  0  0  0
   47.5660   35.3325   43.5784 H   0  0  0  0  0  0  0  0  0  0  0  0
   46.1767   35.6370   42.4984 H   0  0  0  0  0  0  0  0  0  0  0  0
   45.6714   34.4704   44.7349 H   0  0  0  0  0  0  0  0  0  0  0  0
   45.8780   31.9302   44.1814 H   0  0  0  0  0  0  0  0  0  0  0  0
   49.4502   31.9859   38.2592 H   0  0  0  0  0  0  0  0  0  0  0  0
   47.8992   33.0354   39.9271 H   0  0  0  0  0  0  0  0  0  0  0  0
   52.2920   31.3106   41.3392 H   0  0  0  0  0  0  0  0  0  0  0  0
   47.3807   30.3514   43.4297 H   0  0  0  0  0  0  0  0  0  0  0  0
   44.0630   33.3938   43.5904 H   0  0  0  0  0  0  0  0  0  0  0  0
   44.3781   32.2626   46.4576 H   0  0  0  0  0  0  0  0  0  0  0  0
   46.0178   30.9884   45.7889 H   0  0  0  0  0  0  0  0  0  0  0  0
   47.2113   29.2712   47.5668 H   0  0  0  0  0  0  0  0  0  0  0  0
   47.3443   30.3527   49.0400 H   0  0  0  0  0  0  0  0  0  0  0  0
   44.9321   29.7463   47.3462 H   0  0  0  0  0  0  0  0  0  0  0  0
   43.8215   31.5802   48.6240 H   0  0  0  0  0  0  0  0  0  0  0  0
   45.3211   33.7720   48.5134 H   0  0  0  0  0  0  0  0  0  0  0  0
   45.3272   29.9154   50.1731 H   0  0  0  0  0  0  0  0  0  0  0  0
   45.0961   31.7633   50.3885 H   0  0  0  0  0  0  0  0  0  0  0  0
  1  6  1  0
  2  1  1  0
  3  2  1  0
  3  4  1  0
  4  5  1  0
  5  6  1  0
  6 15  1  0
  7 12  2  0
  7  8  1  0
  8  9  2  0
  9 10  1  0
  9  2  1  0
 11 10  2  0
 12 11  1  0
 13  1  1  0
 14  5  1  0
 16 22  1  0
 16 21  1  0
 17 15  1  0
 17 16  1  0
 17 18  1  0
 18 19  1  0
 19 20  1  0
 20 21  1  0
 20 23  1  0
 21 24  1  0
  1 25  1  1
  2 26  1  1
  4 27  1  0
  4 28  1  0
  5 29  1  1
  6 30  1  1
  7 31  1  0
  8 32  1  0
 11 33  1  0
 13 34  1  0
 14 35  1  0
 16 36  1  6
 17 37  1  6
 19 38  1  0
 19 39  1  0
 20 40  1  6
 21 41  1  1
 22 42  1  0
 23 43  1  0
 24 44  1  0
M  ISO  8  25  13  26  13  27  13  28  13  29  13  30  13  31  14  32  14
M  ISO  8  33  14  34   3  35   3  36  13  37  13  38  13  39  13  40  13
M  ISO  4  41  13  42   3  43   3  44   3
M  END
>  <minimizedAffinity>  (1) 
-5.66444254

>  <minimizedRMSD>  (1) 
7.54560184

$$$$
