
     RDKit          3D

 46 48  0  0  1  0  0  0  0  0999 V2000
   48.5380   30.1950   48.7580 C   0  0  2  0  0  0  0  0  0  0  0  0
   47.0990   29.8780   48.6330 C   0  0  2  0  0  0  0  0  0  0  0  0
   47.0210   29.0210   47.4260 C   0  0  0  0  0  0  0  0  0  0  0  0
   48.2240   28.3390   47.3170 O   0  0  0  0  0  0  0  0  0  0  0  0
   49.0940   28.8490   48.2170 C   0  0  0  0  0  0  0  0  0  0  0  0
   46.2940   30.9920   48.5640 O   0  0  0  0  0  0  0  0  0  0  0  0
   47.9150   32.9130   48.0470 O   0  0  0  0  0  0  0  0  0  0  0  0
   46.8730   32.0390   47.4070 P   0  0  1  0  0  0  0  0  0  0  0  0
   47.5990   31.1530   46.1580 O   0  0  0  0  0  0  0  0  0  0  0  0
   45.6530   33.0620   46.7910 O   0  0  0  0  0  0  0  0  0  0  0  0
   44.9710   35.4150   44.2060 C   0  0  0  0  0  0  0  0  0  0  0  0
   45.9460   35.1210   43.1970 C   0  0  0  0  0  0  0  0  0  0  0  0
   46.8390   34.0700   43.4740 C   0  0  0  0  0  0  0  0  0  0  0  0
   46.7230   33.4180   44.6480 N   0  0  0  0  0  0  0  0  0  0  0  0
   45.7850   33.7310   45.5700 C   0  0  0  0  0  0  0  0  0  0  0  0
   44.9180   34.7280   45.3380 N   0  0  0  0  0  0  0  0  0  0  0  0
   44.0970   36.4450   43.9370 O   0  0  0  0  0  0  0  0  0  0  0  0
   48.9860   30.4400   50.0220 O   0  0  0  0  0  0  0  0  0  0  0  0
   50.8260   30.6290   51.4420 C   0  0  2  0  0  0  0  0  0  0  0  0
   50.0090   31.2380   50.3130 C   0  0  1  0  0  0  0  0  0  0  0  0
   50.8950   31.4310   49.2250 O   0  0  0  0  0  0  0  0  0  0  0  0
   51.9610   32.2220   49.5730 C   0  0  0  0  0  0  0  0  0  0  0  0
   52.9620   31.3390   50.2830 C   0  0  2  0  0  0  0  0  0  0  0  0
   52.2210   30.2640   51.0010 C   0  0  1  0  0  0  0  0  0  0  0  0
   50.2370   29.4490   51.8900 O   0  0  0  0  0  0  0  0  0  0  0  0
   53.8010   32.0750   51.1150 O   0  0  0  0  0  0  0  0  0  0  0  0
   52.9340   30.0030   52.1960 O   0  0  0  0  0  0  0  0  0  0  0  0
   48.8334   31.1239   48.2483 H   0  0  0  0  0  0  0  0  0  0  0  0
   46.7141   29.3667   49.5276 H   0  0  0  0  0  0  0  0  0  0  0  0
   46.1919   28.3052   47.5272 H   0  0  0  0  0  0  0  0  0  0  0  0
   46.8410   29.6323   46.5294 H   0  0  0  0  0  0  0  0  0  0  0  0
   49.2192   28.1413   49.0497 H   0  0  0  0  0  0  0  0  0  0  0  0
   50.0681   29.0183   47.7348 H   0  0  0  0  0  0  0  0  0  0  0  0
   48.1764   30.4484   46.5457 H   0  0  0  0  0  0  0  0  0  0  0  0
   45.9933   35.6877   42.2554 H   0  0  0  0  0  0  0  0  0  0  0  0
   47.6153   33.7863   42.7481 H   0  0  0  0  0  0  0  0  0  0  0  0
   44.1625   36.9392   43.0817 H   0  0  0  0  0  0  0  0  0  0  0  0
   50.8647   31.3927   52.2327 H   0  0  0  0  0  0  0  0  0  0  0  0
   49.5677   32.2075   50.5875 H   0  0  0  0  0  0  0  0  0  0  0  0
   52.4163   32.6582   48.6717 H   0  0  0  0  0  0  0  0  0  0  0  0
   51.6378   33.0471   50.2247 H   0  0  0  0  0  0  0  0  0  0  0  0
   53.6321   30.8680   49.5488 H   0  0  0  0  0  0  0  0  0  0  0  0
   52.1393   29.4241   50.2954 H   0  0  0  0  0  0  0  0  0  0  0  0
   50.2315   29.4380   52.8799 H   0  0  0  0  0  0  0  0  0  0  0  0
   53.5805   31.8816   52.0606 H   0  0  0  0  0  0  0  0  0  0  0  0
   52.3604   30.2130   52.9751 H   0  0  0  0  0  0  0  0  0  0  0  0
  1 18  1  0
  2  1  1  0
  3  2  1  0
  4  3  1  0
  4  5  1  0
  5  1  1  0
  6  2  1  0
  8  7  2  0
  8  6  1  0
  9  8  1  0
 10  8  1  0
 11 16  2  0
 12 13  2  0
 12 11  1  0
 13 14  1  0
 14 15  2  0
 15 10  1  0
 16 15  1  0
 17 11  1  0
 19 25  1  0
 20 18  1  0
 20 19  1  0
 21 22  1  0
 21 20  1  0
 22 23  1  0
 23 24  1  0
 23 26  1  0
 24 19  1  0
 24 27  1  0
  1 28  1  6
  2 29  1  1
  3 30  1  0
  3 31  1  0
  5 32  1  0
  5 33  1  0
  9 34  1  0
 12 35  1  0
 13 36  1  0
 17 37  1  0
 19 38  1  1
 20 39  1  1
 22 40  1  0
 22 41  1  0
 23 42  1  6
 24 43  1  6
 25 44  1  0
 26 45  1  0
 27 46  1  0
M  ISO  8  28  13  29  13  30  13  31  13  32  13  33  13  34   3  35  14
M  ISO  8  36  14  37   3  38  13  39  13  40  13  41  13  42  13  43  13
M  ISO  3  44   3  45   3  46   3
M  END
>  <minimizedAffinity>  (1) 
-5.49882698

>  <minimizedRMSD>  (1) 
2.46318579

$$$$
