
     RDKit          3D

 51 53  0  0  1  0  0  0  0  0999 V2000
   44.9930   34.7280   44.9910 C   0  0  0  0  0  0  0  0  0  0  0  0
   45.8700   34.6110   43.8800 C   0  0  0  0  0  0  0  0  0  0  0  0
   46.9330   33.7080   43.9600 C   0  0  0  0  0  0  0  0  0  0  0  0
   47.0820   32.9790   45.0970 N   0  0  0  0  0  0  0  0  0  0  0  0
   46.2360   33.1030   46.1470 C   0  0  0  0  0  0  0  0  0  0  0  0
   45.2120   33.9740   46.0690 N   0  0  0  0  0  0  0  0  0  0  0  0
   46.4520   32.3200   47.2840 N   0  0  0  0  0  0  0  0  0  0  0  0
   47.6930   32.3990   47.9930 C   0  0  0  0  0  0  0  0  0  0  0  0
   47.9350   31.2430   48.9170 C   0  0  0  0  0  0  0  0  0  0  0  0
   46.7800   30.6710   49.5270 N   0  0  0  0  0  0  0  0  0  0  0  0
   45.5650   31.3710   49.2280 C   0  0  0  0  0  0  0  0  0  0  0  0
   45.3910   31.4190   47.7390 C   0  0  2  0  0  0  0  0  0  0  0  0
   45.4630   30.0750   47.1010 C   0  0  0  0  0  0  0  0  0  0  0  0
   44.9510   29.0620   48.0820 C   0  0  0  0  0  0  0  0  0  0  0  0
   45.1020   27.7550   47.8840 C   0  0  0  0  0  0  0  0  0  0  0  0
   44.6120   26.7090   48.8280 C   0  0  0  0  0  0  0  0  0  0  0  0
   45.2220   24.4030   49.5840 C   0  0  1  0  0  0  0  0  0  0  0  0
   45.3220   25.4050   48.5000 C   0  0  2  0  0  0  0  0  0  0  0  0
   46.5790   25.6210   47.9670 O   0  0  0  0  0  0  0  0  0  0  0  0
   47.6000   25.4620   48.8900 C   0  0  0  0  0  0  0  0  0  0  0  0
   47.6770   23.9820   49.1620 C   0  0  1  0  0  0  0  0  0  0  0  0
   46.4350   23.5740   49.8660 C   0  0  1  0  0  0  0  0  0  0  0  0
   44.9070   25.0560   50.7800 O   0  0  0  0  0  0  0  0  0  0  0  0
   47.8290   23.3000   47.9600 O   0  0  0  0  0  0  0  0  0  0  0  0
   46.7180   23.4800   51.2380 O   0  0  0  0  0  0  0  0  0  0  0  0
   44.1463   35.4296   44.9628 H   0  0  0  0  0  0  0  0  0  0  0  0
   45.7156   35.2183   42.9760 H   0  0  0  0  0  0  0  0  0  0  0  0
   47.6342   33.5897   43.1207 H   0  0  0  0  0  0  0  0  0  0  0  0
   48.5109   32.4332   47.2583 H   0  0  0  0  0  0  0  0  0  0  0  0
   47.6497   33.3045   48.6161 H   0  0  0  0  0  0  0  0  0  0  0  0
   48.4363   30.4518   48.3402 H   0  0  0  0  0  0  0  0  0  0  0  0
   48.5342   31.6492   49.7453 H   0  0  0  0  0  0  0  0  0  0  0  0
   46.6854   29.6997   49.1976 H   0  0  0  0  0  0  0  0  0  0  0  0
   44.7131   30.8448   49.6834 H   0  0  0  0  0  0  0  0  0  0  0  0
   45.6121   32.3927   49.6327 H   0  0  0  0  0  0  0  0  0  0  0  0
   44.3911   31.7779   47.4536 H   0  0  0  0  0  0  0  0  0  0  0  0
   44.8427   30.0603   46.1927 H   0  0  0  0  0  0  0  0  0  0  0  0
   46.5012   29.8423   46.8217 H   0  0  0  0  0  0  0  0  0  0  0  0
   44.4365   29.4094   48.9901 H   0  0  0  0  0  0  0  0  0  0  0  0
   45.6187   27.4263   46.9702 H   0  0  0  0  0  0  0  0  0  0  0  0
   44.8374   27.0059   49.8629 H   0  0  0  0  0  0  0  0  0  0  0  0
   43.5236   26.5854   48.7276 H   0  0  0  0  0  0  0  0  0  0  0  0
   44.4523   23.7078   49.2175 H   0  0  0  0  0  0  0  0  0  0  0  0
   44.7761   24.9148   47.6804 H   0  0  0  0  0  0  0  0  0  0  0  0
   48.5518   25.8258   48.4755 H   0  0  0  0  0  0  0  0  0  0  0  0
   47.4087   26.0344   49.8097 H   0  0  0  0  0  0  0  0  0  0  0  0
   48.5423   23.7408   49.7968 H   0  0  0  0  0  0  0  0  0  0  0  0
   46.1427   22.5938   49.4614 H   0  0  0  0  0  0  0  0  0  0  0  0
   45.1795   24.4912   51.5460 H   0  0  0  0  0  0  0  0  0  0  0  0
   48.0406   22.3505   48.1438 H   0  0  0  0  0  0  0  0  0  0  0  0
   45.9189   23.7454   51.7587 H   0  0  0  0  0  0  0  0  0  0  0  0
  1  6  2  0
  2  3  2  0
  2  1  1  0
  3  4  1  0
  4  5  2  0
  5  7  1  0
  6  5  1  0
  7 12  1  0
  7  8  1  0
  8  9  1  0
  9 10  1  0
 11 10  1  0
 12 11  1  0
 13 12  1  0
 13 14  1  0
 15 14  2  0
 15 16  1  0
 17 22  1  0
 17 23  1  0
 18 16  1  0
 18 17  1  0
 19 18  1  0
 19 20  1  0
 20 21  1  0
 21 24  1  0
 21 22  1  0
 22 25  1  0
  1 26  1  0
  2 27  1  0
  3 28  1  0
  8 29  1  0
  8 30  1  0
  9 31  1  0
  9 32  1  0
 10 33  1  0
 11 34  1  0
 11 35  1  0
 12 36  1  1
 13 37  1  0
 13 38  1  0
 14 39  1  0
 15 40  1  0
 16 41  1  0
 16 42  1  0
 17 43  1  6
 18 44  1  6
 20 45  1  0
 20 46  1  0
 21 47  1  1
 22 48  1  6
 23 49  1  0
 24 50  1  0
 25 51  1  0
M  ISO  8  26  14  27  14  28  14  29  13  30  13  31  13  32  13  33   5
M  ISO  8  34  13  35  13  36  13  37   8  38   8  41   8  42   8  43  13
M  ISO  8  44  13  45  13  46  13  47  13  48  13  49   3  50   3  51   3
M  END
>  <minimizedAffinity>  (1) 
-6.3504281

>  <minimizedRMSD>  (1) 
2.04406953

$$$$
