
     RDKit          3D

 38 40  0  0  1  0  0  0  0  0999 V2000
   46.6550   34.6410   43.1400 C   0  0  0  0  0  0  0  0  0  0  0  0
   45.5920   35.5840   43.3000 C   0  0  0  0  0  0  0  0  0  0  0  0
   44.7700   35.4150   44.4200 C   0  0  0  0  0  0  0  0  0  0  0  0
   45.0300   34.3900   45.2630 N   0  0  0  0  0  0  0  0  0  0  0  0
   46.0720   33.5180   45.0430 C   0  0  0  0  0  0  0  0  0  0  0  0
   46.8740   33.6360   44.0020 N   0  0  0  0  0  0  0  0  0  0  0  0
   46.3050   32.4220   46.0320 C   0  0  1  0  0  0  0  0  0  0  0  0
   47.0170   32.7430   47.3270 C   0  0  0  0  0  0  0  0  0  0  0  0
   45.5250   32.5570   47.2790 C   0  0  1  0  0  0  0  0  0  0  0  0
   44.8000   33.7740   47.5600 N   0  0  0  0  0  0  0  0  0  0  0  0
   47.4770   34.8690   41.9770 C   0  0  0  0  0  0  0  0  0  0  0  0
   48.4320   35.7240   41.9500 O   0  0  0  0  0  0  0  0  0  0  0  0
   47.7840   32.7170   40.9500 C   0  0  1  0  0  0  0  0  0  0  0  0
   47.2860   34.1260   40.6970 C   0  0  2  0  0  0  0  0  0  0  0  0
   48.0500   34.7830   39.7390 O   0  0  0  0  0  0  0  0  0  0  0  0
   48.1360   34.0790   38.5500 C   0  0  0  0  0  0  0  0  0  0  0  0
   48.7690   32.7260   38.7120 C   0  0  1  0  0  0  0  0  0  0  0  0
   47.9480   31.9310   39.6860 C   0  0  1  0  0  0  0  0  0  0  0  0
   49.0090   32.7690   41.6100 O   0  0  0  0  0  0  0  0  0  0  0  0
   48.6680   32.0640   37.4800 O   0  0  0  0  0  0  0  0  0  0  0  0
   48.6710   30.7690   40.0410 O   0  0  0  0  0  0  0  0  0  0  0  0
   45.4289   36.3997   42.5803 H   0  0  0  0  0  0  0  0  0  0  0  0
   43.9311   36.1006   44.6104 H   0  0  0  0  0  0  0  0  0  0  0  0
   46.4631   31.6529   45.2616 H   0  0  0  0  0  0  0  0  0  0  0  0
   47.6539   31.9878   47.8107 H   0  0  0  0  0  0  0  0  0  0  0  0
   47.6996   33.5329   47.6735 H   0  0  0  0  0  0  0  0  0  0  0  0
   44.7672   31.9056   47.7389 H   0  0  0  0  0  0  0  0  0  0  0  0
   44.7243   33.9010   48.5793 H   0  0  0  0  0  0  0  0  0  0  0  0
   45.3018   34.5749   47.1505 H   0  0  0  0  0  0  0  0  0  0  0  0
   47.0264   32.2101   41.5658 H   0  0  0  0  0  0  0  0  0  0  0  0
   46.2433   34.0837   40.3491 H   0  0  0  0  0  0  0  0  0  0  0  0
   48.7376   34.6643   37.8390 H   0  0  0  0  0  0  0  0  0  0  0  0
   47.1097   33.9203   38.1872 H   0  0  0  0  0  0  0  0  0  0  0  0
   49.8108   32.8272   39.0503 H   0  0  0  0  0  0  0  0  0  0  0  0
   46.9763   31.6929   39.2286 H   0  0  0  0  0  0  0  0  0  0  0  0
   48.8573   32.7626   42.5883 H   0  0  0  0  0  0  0  0  0  0  0  0
   48.5205   31.0975   37.6358 H   0  0  0  0  0  0  0  0  0  0  0  0
   48.7159   30.6968   41.0273 H   0  0  0  0  0  0  0  0  0  0  0  0
  1  2  2  0
  1  6  1  0
  2  3  1  0
  3  4  2  0
  5  4  1  0
  5  7  1  0
  6  5  2  0
  7  9  1  0
  7  8  1  0
  9  8  1  0
  9 10  1  0
 11  1  1  0
 12 11  2  0
 13 19  1  0
 14 13  1  0
 14 11  1  0
 15 14  1  0
 16 17  1  0
 16 15  1  0
 17 20  1  0
 17 18  1  0
 18 21  1  0
 18 13  1  0
  2 22  1  0
  3 23  1  0
  7 24  1  6
  8 25  1  0
  8 26  1  0
  9 27  1  1
 10 28  1  0
 10 29  1  0
 13 30  1  1
 14 31  1  6
 16 32  1  0
 16 33  1  0
 17 34  1  1
 18 35  1  6
 19 36  1  0
 20 37  1  0
 21 38  1  0
M  ISO  8  22  14  23  14  24  13  25  13  26  13  27  13  28   5  29   5
M  ISO  8  30  13  31  13  32  13  33  13  34  13  35  13  36   3  37   3
M  ISO  1  38   3
M  END
>  <minimizedAffinity>  (1) 
-5.84330273

>  <minimizedRMSD>  (1) 
1.35005116

$$$$
