
     RDKit          3D

 31 32  0  0  1  0  0  0  0  0999 V2000
   45.0620   33.1180   47.6000 O   0  0  0  0  0  0  0  0  0  0  0  0
   44.6520   35.5880   45.0360 C   0  0  0  0  0  0  0  0  0  0  0  0
   45.4490   35.0850   43.9960 C   0  0  0  0  0  0  0  0  0  0  0  0
   46.1160   33.8880   44.2110 C   0  0  0  0  0  0  0  0  0  0  0  0
   45.9640   33.2670   45.4100 N   0  0  0  0  0  0  0  0  0  0  0  0
   45.1960   33.7720   46.3880 C   0  0  0  0  0  0  0  0  0  0  0  0
   44.5380   34.9250   46.2170 N   0  0  0  0  0  0  0  0  0  0  0  0
   45.4960   35.8980   42.7510 C   0  0  0  0  0  0  0  0  0  0  0  0
   45.2610   37.2040   43.1220 F   0  0  0  0  0  0  0  0  0  0  0  0
   44.4940   35.4370   41.9090 F   0  0  0  0  0  0  0  0  0  0  0  0
   46.7330   35.7050   42.1660 F   0  0  0  0  0  0  0  0  0  0  0  0
   45.9680   30.9700   46.9820 C   0  0  1  0  0  0  0  0  0  0  0  0
   45.9260   32.0810   48.0130 C   0  0  1  0  0  0  0  0  0  0  0  0
   47.2050   32.6210   48.0550 O   0  0  0  0  0  0  0  0  0  0  0  0
   48.1230   31.7780   48.6580 C   0  0  0  0  0  0  0  0  0  0  0  0
   48.1410   30.3950   48.0790 C   0  0  2  0  0  0  0  0  0  0  0  0
   46.8520   29.8930   47.5430 C   0  0  1  0  0  0  0  0  0  0  0  0
   44.6930   30.4860   46.7410 O   0  0  0  0  0  0  0  0  0  0  0  0
   48.5260   29.5320   49.1150 O   0  0  0  0  0  0  0  0  0  0  0  0
   46.1110   29.2670   48.5640 O   0  0  0  0  0  0  0  0  0  0  0  0
   44.1105   36.5347   44.8929 H   0  0  0  0  0  0  0  0  0  0  0  0
   46.7537   33.4512   43.4284 H   0  0  0  0  0  0  0  0  0  0  0  0
   46.3610   31.3346   46.0215 H   0  0  0  0  0  0  0  0  0  0  0  0
   45.5815   31.6809   48.9780 H   0  0  0  0  0  0  0  0  0  0  0  0
   49.1253   32.2161   48.5424 H   0  0  0  0  0  0  0  0  0  0  0  0
   47.8268   31.6814   49.7130 H   0  0  0  0  0  0  0  0  0  0  0  0
   48.8246   30.4305   47.2180 H   0  0  0  0  0  0  0  0  0  0  0  0
   47.1306   29.2005   46.7350 H   0  0  0  0  0  0  0  0  0  0  0  0
   44.2373   30.3130   47.6027 H   0  0  0  0  0  0  0  0  0  0  0  0
   48.3357   29.9587   49.9878 H   0  0  0  0  0  0  0  0  0  0  0  0
   46.4543   29.5570   49.4461 H   0  0  0  0  0  0  0  0  0  0  0  0
  2  7  2  0
  3  4  2  0
  3  2  1  0
  4  5  1  0
  5  6  2  0
  6  1  1  0
  7  6  1  0
  8  9  1  0
  8  3  1  0
 10  8  1  0
 11  8  1  0
 12 18  1  0
 12 17  1  0
 12 13  1  0
 13  1  1  0
 13 14  1  0
 14 15  1  0
 16 15  1  0
 16 19  1  0
 17 16  1  0
 17 20  1  0
  2 21  1  0
  4 22  1  0
 12 23  1  6
 13 24  1  1
 15 25  1  0
 15 26  1  0
 16 27  1  6
 17 28  1  6
 18 29  1  0
 19 30  1  0
 20 31  1  0
M  ISO  8  21  14  22  14  23  13  24  13  25  13  26  13  27  13  28  13
M  ISO  3  29   3  30   3  31   3
M  END
>  <minimizedAffinity>  (1) 
-6.10003471

>  <minimizedRMSD>  (1) 
0.971744776

$$$$
