
     RDKit          3D

 46 48  0  0  1  0  0  0  0  0999 V2000
   45.5960   29.9440   44.7000 Br  0  0  0  0  0  0  0  0  0  0  0  0
   45.6620   30.5360   46.5390 C   0  0  0  0  0  0  0  0  0  0  0  0
   46.3530   31.6980   46.7620 C   0  0  0  0  0  0  0  0  0  0  0  0
   46.3850   32.1030   48.0960 C   0  0  0  0  0  0  0  0  0  0  0  0
   45.7710   31.3960   49.1230 C   0  0  0  0  0  0  0  0  0  0  0  0
   45.1020   30.2440   48.8050 C   0  0  0  0  0  0  0  0  0  0  0  0
   45.0370   29.7950   47.5070 C   0  0  0  0  0  0  0  0  0  0  0  0
   47.0400   32.5340   45.7760 C   0  0  0  0  0  0  0  0  0  0  0  0
   44.5360   35.2920   45.4560 C   0  0  0  0  0  0  0  0  0  0  0  0
   44.7560   35.6980   44.1340 C   0  0  0  0  0  0  0  0  0  0  0  0
   45.7240   35.0480   43.3900 C   0  0  0  0  0  0  0  0  0  0  0  0
   46.4160   34.0510   43.9670 N   0  0  0  0  0  0  0  0  0  0  0  0
   46.2040   33.6550   45.2540 C   0  0  0  0  0  0  0  0  0  0  0  0
   45.2530   34.3020   45.9630 N   0  0  0  0  0  0  0  0  0  0  0  0
   44.3480   28.6150   47.1980 O   0  0  0  0  0  0  0  0  0  0  0  0
   44.1520   26.0450   46.8100 O   0  0  0  0  0  0  0  0  0  0  0  0
   44.9000   27.0720   47.6520 P   0  0  2  0  0  0  0  0  0  0  0  0
   44.5610   26.8660   49.2840 O   0  0  0  0  0  0  0  0  0  0  0  0
   46.5560   26.8740   47.3580 O   0  0  0  0  0  0  0  0  0  0  0  0
   48.6850   26.2410   48.2710 C   0  0  2  0  0  0  0  0  0  0  0  0
   47.1780   26.1740   48.3890 C   0  0  2  0  0  0  0  0  0  0  0  0
   46.7770   24.8440   48.4060 O   0  0  0  0  0  0  0  0  0  0  0  0
   47.3310   24.0840   47.3870 C   0  0  0  0  0  0  0  0  0  0  0  0
   48.8210   23.9580   47.4610 C   0  0  1  0  0  0  0  0  0  0  0  0
   49.2900   24.8820   48.5810 C   0  0  2  0  0  0  0  0  0  0  0  0
   49.2540   27.1400   49.1900 O   0  0  0  0  0  0  0  0  0  0  0  0
   49.2540   22.6840   47.7530 O   0  0  0  0  0  0  0  0  0  0  0  0
   48.8410   24.4760   49.8300 O   0  0  0  0  0  0  0  0  0  0  0  0
   46.9233   33.0286   48.3481 H   0  0  0  0  0  0  0  0  0  0  0  0
   45.8210   31.7519   50.1626 H   0  0  0  0  0  0  0  0  0  0  0  0
   44.6083   29.6681   49.6016 H   0  0  0  0  0  0  0  0  0  0  0  0
   47.9378   32.9604   46.2473 H   0  0  0  0  0  0  0  0  0  0  0  0
   47.2827   31.8878   44.9195 H   0  0  0  0  0  0  0  0  0  0  0  0
   43.7722   35.7927   46.0690 H   0  0  0  0  0  0  0  0  0  0  0  0
   44.1697   36.5188   43.6953 H   0  0  0  0  0  0  0  0  0  0  0  0
   45.9231   35.3408   42.3486 H   0  0  0  0  0  0  0  0  0  0  0  0
   45.2695   27.2965   49.8251 H   0  0  0  0  0  0  0  0  0  0  0  0
   48.8972   26.5697   47.2429 H   0  0  0  0  0  0  0  0  0  0  0  0
   46.8733   26.6537   49.3308 H   0  0  0  0  0  0  0  0  0  0  0  0
   47.0709   24.5520   46.4261 H   0  0  0  0  0  0  0  0  0  0  0  0
   46.9207   23.0685   47.4889 H   0  0  0  0  0  0  0  0  0  0  0  0
   49.2319   24.2172   46.4741 H   0  0  0  0  0  0  0  0  0  0  0  0
   50.3892   24.8860   48.6218 H   0  0  0  0  0  0  0  0  0  0  0  0
   49.0613   26.8355   50.1121 H   0  0  0  0  0  0  0  0  0  0  0  0
   49.2941   22.5661   48.7351 H   0  0  0  0  0  0  0  0  0  0  0  0
   49.3573   24.9428   50.5340 H   0  0  0  0  0  0  0  0  0  0  0  0
  1  2  1  0
  2  3  2  0
  2  7  1  0
  3  4  1  0
  4  5  2  0
  6  5  1  0
  7  6  2  0
  8  3  1  0
  9 14  2  0
 10  9  1  0
 11 12  1  0
 11 10  2  0
 12 13  2  0
 13  8  1  0
 13 14  1  0
 15  7  1  0
 15 17  1  0
 17 16  2  0
 17 18  1  0
 19 17  1  0
 20 21  1  0
 20 25  1  0
 20 26  1  0
 21 19  1  0
 21 22  1  0
 23 24  1  0
 23 22  1  0
 24 27  1  0
 24 25  1  0
 25 28  1  0
  4 29  1  0
  5 30  1  0
  6 31  1  0
  8 32  1  0
  8 33  1  0
  9 34  1  0
 10 35  1  0
 11 36  1  0
 18 37  1  0
 20 38  1  6
 21 39  1  1
 23 40  1  0
 23 41  1  0
 24 42  1  6
 25 43  1  1
 26 44  1  0
 27 45  1  0
 28 46  1  0
M  ISO  8  29  14  30  14  31  14  32   8  33   8  34  14  35  14  36  14
M  ISO  8  37   3  38  13  39  13  40  13  41  13  42  13  43  13  44   3
M  ISO  2  45   3  46   3
M  END
>  <minimizedAffinity>  (1) 
-5.45759726

>  <minimizedRMSD>  (1) 
0.811412513

$$$$
