
     RDKit          3D

 51 54  0  0  1  0  0  0  0  0999 V2000
   42.9190   33.9500   39.5190 C   0  0  0  0  0  0  0  0  0  0  0  0
   43.1880   32.9100   38.6600 C   0  0  0  0  0  0  0  0  0  0  0  0
   42.2460   32.3640   37.8290 C   0  0  0  0  0  0  0  0  0  0  0  0
   40.9930   32.8840   37.8680 N   0  0  0  0  0  0  0  0  0  0  0  0
   40.7100   33.9160   38.7160 C   0  0  0  0  0  0  0  0  0  0  0  0
   41.6490   34.4450   39.5290 N   0  0  0  0  0  0  0  0  0  0  0  0
   43.8720   34.0710   41.7990 C   0  0  1  0  0  0  0  0  0  0  0  0
   43.5120   35.5560   41.4510 C   0  0  0  0  0  0  0  0  0  0  0  0
   43.9790   34.5130   40.4400 C   0  0  2  0  0  0  0  0  0  0  0  0
   45.0190   33.9410   42.7240 C   0  0  0  0  0  0  0  0  0  0  0  0
   46.2910   34.3130   42.2390 C   0  0  0  0  0  0  0  0  0  0  0  0
   47.3840   34.2020   43.0870 C   0  0  0  0  0  0  0  0  0  0  0  0
   47.1690   33.7390   44.3460 N   0  0  0  0  0  0  0  0  0  0  0  0
   45.9510   33.3960   44.7690 C   0  0  0  0  0  0  0  0  0  0  0  0
   44.9060   33.5060   43.9440 N   0  0  0  0  0  0  0  0  0  0  0  0
   45.9220   32.9110   46.1930 C   0  0  0  0  0  0  0  0  0  0  0  0
   45.0080   33.6270   46.9520 F   0  0  0  0  0  0  0  0  0  0  0  0
   47.1850   33.1610   46.7810 F   0  0  0  0  0  0  0  0  0  0  0  0
   45.7320   31.5570   46.2200 F   0  0  0  0  0  0  0  0  0  0  0  0
   39.3570   34.4990   38.7860 C   0  0  0  0  0  0  0  0  0  0  0  0
   38.6360   34.0940   40.0400 C   0  0  0  0  0  0  0  0  0  0  0  0
   39.4900   32.6400   41.8750 C   0  0  1  0  0  0  0  0  0  0  0  0
   38.9740   32.7010   40.4510 C   0  0  1  0  0  0  0  0  0  0  0  0
   38.0250   31.7480   40.2290 O   0  0  0  0  0  0  0  0  0  0  0  0
   37.9550   30.7780   41.2220 C   0  0  0  0  0  0  0  0  0  0  0  0
   39.2850   30.2290   41.6220 C   0  0  2  0  0  0  0  0  0  0  0  0
   40.2270   31.3240   42.0190 C   0  0  2  0  0  0  0  0  0  0  0  0
   40.3040   33.7390   42.1400 O   0  0  0  0  0  0  0  0  0  0  0  0
   39.8070   29.3360   40.6940 O   0  0  0  0  0  0  0  0  0  0  0  0
   40.7650   31.1730   43.2950 O   0  0  0  0  0  0  0  0  0  0  0  0
   44.2075   32.4974   38.6394 H   0  0  0  0  0  0  0  0  0  0  0  0
   42.4964   31.5328   37.1534 H   0  0  0  0  0  0  0  0  0  0  0  0
   43.3950   33.1728   42.2181 H   0  0  0  0  0  0  0  0  0  0  0  0
   42.4671   35.8996   41.4634 H   0  0  0  0  0  0  0  0  0  0  0  0
   43.8267   36.5583   41.7773 H   0  0  0  0  0  0  0  0  0  0  0  0
   44.7858   34.5108   39.6923 H   0  0  0  0  0  0  0  0  0  0  0  0
   46.4136   34.6832   41.2104 H   0  0  0  0  0  0  0  0  0  0  0  0
   48.3934   34.4804   42.7501 H   0  0  0  0  0  0  0  0  0  0  0  0
   39.4408   35.5956   38.7625 H   0  0  0  0  0  0  0  0  0  0  0  0
   38.7807   34.1264   37.9263 H   0  0  0  0  0  0  0  0  0  0  0  0
   38.9182   34.7822   40.8504 H   0  0  0  0  0  0  0  0  0  0  0  0
   37.5551   34.1377   39.8408 H   0  0  0  0  0  0  0  0  0  0  0  0
   38.6713   32.6842   42.6083 H   0  0  0  0  0  0  0  0  0  0  0  0
   39.7824   32.4307   39.7557 H   0  0  0  0  0  0  0  0  0  0  0  0
   37.4824   31.2237   42.1097 H   0  0  0  0  0  0  0  0  0  0  0  0
   37.3725   29.9401   40.8114 H   0  0  0  0  0  0  0  0  0  0  0  0
   39.1320   29.6165   42.5228 H   0  0  0  0  0  0  0  0  0  0  0  0
   41.1012   31.2890   41.3523 H   0  0  0  0  0  0  0  0  0  0  0  0
   40.3911   33.8567   43.1191 H   0  0  0  0  0  0  0  0  0  0  0  0
   40.2455   28.5858   41.1684 H   0  0  0  0  0  0  0  0  0  0  0  0
   40.0693   31.3683   43.9717 H   0  0  0  0  0  0  0  0  0  0  0  0
  1  6  1  0
  1  9  1  0
  2  1  2  0
  3  4  2  0
  3  2  1  0
  4  5  1  0
  5 20  1  0
  5  6  2  0
  7 10  1  0
  8  7  1  0
  9  8  1  0
  9  7  1  0
 10 15  1  0
 11 10  2  0
 11 12  1  0
 12 13  2  0
 13 14  1  0
 14 16  1  0
 15 14  2  0
 16 19  1  0
 16 18  1  0
 16 17  1  0
 20 21  1  0
 22 27  1  0
 22 28  1  0
 23 21  1  0
 23 22  1  0
 24 23  1  0
 24 25  1  0
 25 26  1  0
 26 29  1  0
 26 27  1  0
 27 30  1  0
  2 31  1  0
  3 32  1  0
  7 33  1  6
  8 34  1  0
  8 35  1  0
  9 36  1  6
 11 37  1  0
 12 38  1  0
 20 39  1  0
 20 40  1  0
 21 41  1  0
 21 42  1  0
 22 43  1  1
 23 44  1  6
 25 45  1  0
 25 46  1  0
 26 47  1  1
 27 48  1  6
 28 49  1  0
 29 50  1  0
 30 51  1  0
M  ISO  8  31  14  32  14  33  13  34  13  35  13  36  13  37  14  38  14
M  ISO  8  39   8  40   8  41   8  42   8  43  13  44  13  45  13  46  13
M  ISO  5  47  13  48  13  49   3  50   3  51   3
M  END
>  <minimizedAffinity>  (1) 
-6.8106451

>  <minimizedRMSD>  (1) 
1.92633569

$$$$
