
     RDKit          3D

 44 45  0  0  1  0  0  0  0  0999 V2000
   45.2540   35.3900   43.1930 C   0  0  0  0  0  0  0  0  0  0  0  0
   43.6790   35.6210   41.2040 C   0  0  0  0  0  0  0  0  0  0  0  0
   43.9580   35.1590   42.4300 C   0  0  0  0  0  0  0  0  0  0  0  0
   42.4360   35.2900   40.6890 O   0  0  0  0  0  0  0  0  0  0  0  0
   41.2040   35.6240   41.1990 C   0  0  0  0  0  0  0  0  0  0  0  0
   40.1930   33.4720   41.6330 C   0  0  0  0  0  0  0  0  0  0  0  0
   40.1350   34.6500   40.8570 C   0  0  0  0  0  0  0  0  0  0  0  0
   39.1420   34.7350   39.9330 C   0  0  0  0  0  0  0  0  0  0  0  0
   38.3040   33.7040   39.8340 N   0  0  0  0  0  0  0  0  0  0  0  0
   38.3540   32.6010   40.5580 C   0  0  0  0  0  0  0  0  0  0  0  0
   39.3430   32.4340   41.5280 N   0  0  0  0  0  0  0  0  0  0  0  0
   45.0300   35.0170   44.4930 O   0  0  0  0  0  0  0  0  0  0  0  0
   45.2910   32.3890   44.2370 O   0  0  0  0  0  0  0  0  0  0  0  0
   45.8700   33.6030   44.9070 P   0  0  1  0  0  0  0  0  0  0  0  0
   47.4980   33.7520   44.4350 O   0  0  0  0  0  0  0  0  0  0  0  0
   45.8290   33.4420   46.5930 O   0  0  0  0  0  0  0  0  0  0  0  0
   45.5530   31.4640   47.7970 C   0  0  1  0  0  0  0  0  0  0  0  0
   46.5220   32.3630   47.0580 C   0  0  2  0  0  0  0  0  0  0  0  0
   47.5600   32.7800   47.8740 O   0  0  0  0  0  0  0  0  0  0  0  0
   48.2810   31.7650   48.4620 C   0  0  0  0  0  0  0  0  0  0  0  0
   47.4760   30.6350   49.0060 C   0  0  1  0  0  0  0  0  0  0  0  0
   46.0550   31.1250   49.1840 C   0  0  2  0  0  0  0  0  0  0  0  0
   44.3130   32.0830   47.9410 O   0  0  0  0  0  0  0  0  0  0  0  0
   47.4710   29.5600   48.1150 O   0  0  0  0  0  0  0  0  0  0  0  0
   45.2280   30.1830   49.7580 O   0  0  0  0  0  0  0  0  0  0  0  0
   45.5334   36.4530   43.1485 H   0  0  0  0  0  0  0  0  0  0  0  0
   46.0755   34.8046   42.7544 H   0  0  0  0  0  0  0  0  0  0  0  0
   44.3979   36.2303   40.6367 H   0  0  0  0  0  0  0  0  0  0  0  0
   43.1820   34.5600   42.9290 H   0  0  0  0  0  0  0  0  0  0  0  0
   41.2849   35.6812   42.2945 H   0  0  0  0  0  0  0  0  0  0  0  0
   40.9190   36.5869   40.7499 H   0  0  0  0  0  0  0  0  0  0  0  0
   40.9954   33.3968   42.3817 H   0  0  0  0  0  0  0  0  0  0  0  0
   39.0342   35.6217   39.2910 H   0  0  0  0  0  0  0  0  0  0  0  0
   37.6100   31.8073   40.3952 H   0  0  0  0  0  0  0  0  0  0  0  0
   48.0716   33.8045   45.2402 H   0  0  0  0  0  0  0  0  0  0  0  0
   45.4610   30.5464   47.1975 H   0  0  0  0  0  0  0  0  0  0  0  0
   46.9716   31.8002   46.2266 H   0  0  0  0  0  0  0  0  0  0  0  0
   48.9694   31.3575   47.7070 H   0  0  0  0  0  0  0  0  0  0  0  0
   48.7874   32.2177   49.3272 H   0  0  0  0  0  0  0  0  0  0  0  0
   47.9091   30.2989   49.9597 H   0  0  0  0  0  0  0  0  0  0  0  0
   46.0470   31.9886   49.8653 H   0  0  0  0  0  0  0  0  0  0  0  0
   44.1056   32.1865   48.9035 H   0  0  0  0  0  0  0  0  0  0  0  0
   47.4670   28.7103   48.6231 H   0  0  0  0  0  0  0  0  0  0  0  0
   45.2864   30.2496   50.7440 H   0  0  0  0  0  0  0  0  0  0  0  0
  1 12  1  0
  2  3  2  0
  3  1  1  0
  4  5  1  0
  4  2  1  0
  7  5  1  0
  7  6  2  0
  8  7  1  0
  9  8  2  0
  9 10  1  0
 10 11  2  0
 11  6  1  0
 12 14  1  0
 14 13  2  0
 14 16  1  0
 15 14  1  0
 17 23  1  0
 17 22  1  0
 18 16  1  0
 18 17  1  0
 18 19  1  0
 19 20  1  0
 20 21  1  0
 21 24  1  0
 21 22  1  0
 22 25  1  0
  1 26  1  0
  1 27  1  0
  2 28  1  0
  3 29  1  0
  5 30  1  0
  5 31  1  0
  6 32  1  0
  8 33  1  0
 10 34  1  0
 15 35  1  0
 17 36  1  6
 18 37  1  6
 20 38  1  0
 20 39  1  0
 21 40  1  1
 22 41  1  1
 23 42  1  0
 24 43  1  0
 25 44  1  0
M  ISO  8  26   8  27   8  30   8  31   8  32  14  33  14  34  14  35   3
M  ISO  8  36  13  37  13  38  13  39  13  40  13  41  13  42   3  43   3
M  ISO  1  44   3
M  END
>  <minimizedAffinity>  (1) 
-6.20963335

>  <minimizedRMSD>  (1) 
0.701317728

$$$$
