
     RDKit          3D

 40 42  0  0  1  0  0  0  0  0999 V2000
   44.8210   35.3650   43.9930 C   0  0  0  0  0  0  0  0  0  0  0  0
   44.4440   34.7460   42.7880 C   0  0  0  0  0  0  0  0  0  0  0  0
   44.6340   33.3880   42.6910 C   0  0  0  0  0  0  0  0  0  0  0  0
   45.1670   32.7220   43.7400 N   0  0  0  0  0  0  0  0  0  0  0  0
   45.5170   33.3530   44.8790 C   0  0  0  0  0  0  0  0  0  0  0  0
   45.3600   34.6760   45.0460 N   0  0  0  0  0  0  0  0  0  0  0  0
   45.2620   32.6250   47.2420 C   0  0  1  0  0  0  0  0  0  0  0  0
   46.1000   32.5480   45.9960 C   0  0  1  0  0  0  0  0  0  0  0  0
   46.2230   31.2010   45.6840 O   0  0  0  0  0  0  0  0  0  0  0  0
   47.1280   30.6410   46.5610 C   0  0  0  0  0  0  0  0  0  0  0  0
   46.8170   30.8180   48.0100 C   0  0  1  0  0  0  0  0  0  0  0  0
   46.1510   32.1100   48.3710 C   0  0  1  0  0  0  0  0  0  0  0  0
   44.8620   33.9200   47.5370 O   0  0  0  0  0  0  0  0  0  0  0  0
   46.1200   29.7040   48.5030 O   0  0  0  0  0  0  0  0  0  0  0  0
   47.1340   33.0850   48.5590 O   0  0  0  0  0  0  0  0  0  0  0  0
   43.8860   35.6370   41.7710 C   0  0  0  0  0  0  0  0  0  0  0  0
   42.6190   35.0890   41.3100 N   0  0  0  0  0  0  0  0  0  0  0  0
   41.5100   35.2840   42.0230 C   0  0  0  0  0  0  0  0  0  0  0  0
   40.3180   34.7450   41.5500 C   0  0  0  0  0  0  0  0  0  0  0  0
   40.2940   34.0360   40.3850 C   0  0  0  0  0  0  0  0  0  0  0  0
   39.2130   33.5450   39.9520 O   0  0  0  0  0  0  0  0  0  0  0  0
   41.4350   33.8580   39.6880 N   0  0  0  0  0  0  0  0  0  0  0  0
   42.6020   34.3820   40.1450 C   0  0  0  0  0  0  0  0  0  0  0  0
   43.6310   34.1810   39.4480 O   0  0  0  0  0  0  0  0  0  0  0  0
   44.6764   36.4508   44.0940 H   0  0  0  0  0  0  0  0  0  0  0  0
   44.3562   32.8505   41.7724 H   0  0  0  0  0  0  0  0  0  0  0  0
   44.3424   32.0363   47.1085 H   0  0  0  0  0  0  0  0  0  0  0  0
   47.0941   32.9888   46.1617 H   0  0  0  0  0  0  0  0  0  0  0  0
   47.1756   29.5616   46.3546 H   0  0  0  0  0  0  0  0  0  0  0  0
   48.0778   31.1690   46.3907 H   0  0  0  0  0  0  0  0  0  0  0  0
   47.7926   30.8841   48.5139 H   0  0  0  0  0  0  0  0  0  0  0  0
   45.5481   31.9262   49.2725 H   0  0  0  0  0  0  0  0  0  0  0  0
   44.8254   34.0384   48.5192 H   0  0  0  0  0  0  0  0  0  0  0  0
   46.1300   29.7200   49.4928 H   0  0  0  0  0  0  0  0  0  0  0  0
   47.2770   33.2268   49.5283 H   0  0  0  0  0  0  0  0  0  0  0  0
   43.7214   36.6347   42.2040 H   0  0  0  0  0  0  0  0  0  0  0  0
   44.5850   35.7231   40.9260 H   0  0  0  0  0  0  0  0  0  0  0  0
   41.5366   35.8567   42.9618 H   0  0  0  0  0  0  0  0  0  0  0  0
   39.3883   34.8916   42.1194 H   0  0  0  0  0  0  0  0  0  0  0  0
   41.4214   33.3237   38.8075 H   0  0  0  0  0  0  0  0  0  0  0  0
  1  6  2  0
  2  1  1  0
  3  2  2  0
  3  4  1  0
  4  5  2  0
  5  6  1  0
  7 13  1  0
  7 12  1  0
  8  5  1  0
  8  7  1  0
  9  8  1  0
  9 10  1  0
 10 11  1  0
 11 12  1  0
 11 14  1  0
 12 15  1  0
 16  2  1  0
 17 16  1  0
 17 18  1  0
 19 18  2  0
 20 19  1  0
 21 20  2  0
 22 23  1  0
 22 20  1  0
 23 17  1  0
 24 23  2  0
  1 25  1  0
  3 26  1  0
  7 27  1  6
  8 28  1  1
 10 29  1  0
 10 30  1  0
 11 31  1  1
 12 32  1  1
 13 33  1  0
 14 34  1  0
 15 35  1  0
 16 36  1  0
 16 37  1  0
 18 38  1  0
 19 39  1  0
 22 40  1  0
M  ISO  8  25  14  26  14  27  13  28  13  29  13  30  13  31  13  32  13
M  ISO  8  33   3  34   3  35   3  36   8  37   8  38  14  39  14  40   9
M  END
>  <minimizedAffinity>  (1) 
-6.2284565

>  <minimizedRMSD>  (1) 
1.62620437

$$$$
