
     RDKit          3D

 30 31  0  0  1  0  0  0  0  0999 V2000
   44.6520   35.2950   45.0810 C   0  0  0  0  0  0  0  0  0  0  0  0
   45.3010   35.2640   43.8570 C   0  0  0  0  0  0  0  0  0  0  0  0
   46.3200   34.3390   43.6710 C   0  0  0  0  0  0  0  0  0  0  0  0
   46.6320   33.5120   44.6890 N   0  0  0  0  0  0  0  0  0  0  0  0
   45.9830   33.5600   45.8810 C   0  0  0  0  0  0  0  0  0  0  0  0
   44.9830   34.4500   46.0950 N   0  0  0  0  0  0  0  0  0  0  0  0
   45.2180   31.7210   47.3910 C   0  0  2  0  0  0  0  0  0  0  0  0
   46.3650   32.6370   46.9500 C   0  0  1  0  0  0  0  0  0  0  0  0
   47.3750   31.7410   46.5790 O   0  0  0  0  0  0  0  0  0  0  0  0
   47.9710   31.3260   47.7530 C   0  0  0  0  0  0  0  0  0  0  0  0
   47.0540   30.6830   48.7450 C   0  0  1  0  0  0  0  0  0  0  0  0
   45.6580   31.2170   48.7660 C   0  0  1  0  0  0  0  0  0  0  0  0
   45.1580   30.6400   46.4940 O   0  0  0  0  0  0  0  0  0  0  0  0
   47.0040   29.3150   48.4890 O   0  0  0  0  0  0  0  0  0  0  0  0
   45.6280   32.3270   49.6140 O   0  0  0  0  0  0  0  0  0  0  0  0
   44.8380   36.2430   42.8390 C   0  0  0  0  0  0  0  0  0  0  0  0
   43.8444   36.0252   45.2378 H   0  0  0  0  0  0  0  0  0  0  0  0
   46.8604   34.2824   42.7146 H   0  0  0  0  0  0  0  0  0  0  0  0
   44.2360   32.2160   47.4172 H   0  0  0  0  0  0  0  0  0  0  0  0
   46.6898   33.3209   47.7480 H   0  0  0  0  0  0  0  0  0  0  0  0
   48.7567   30.6001   47.4967 H   0  0  0  0  0  0  0  0  0  0  0  0
   48.3523   32.2367   48.2381 H   0  0  0  0  0  0  0  0  0  0  0  0
   47.4776   30.9148   49.7334 H   0  0  0  0  0  0  0  0  0  0  0  0
   44.9943   30.4023   49.0914 H   0  0  0  0  0  0  0  0  0  0  0  0
   45.1109   29.7917   47.0022 H   0  0  0  0  0  0  0  0  0  0  0  0
   46.9859   28.8194   49.3458 H   0  0  0  0  0  0  0  0  0  0  0  0
   45.6362   32.0229   50.5561 H   0  0  0  0  0  0  0  0  0  0  0  0
   44.4201   37.1266   43.3435 H   0  0  0  0  0  0  0  0  0  0  0  0
   45.6875   36.5474   42.2100 H   0  0  0  0  0  0  0  0  0  0  0  0
   44.0637   35.7795   42.2100 H   0  0  0  0  0  0  0  0  0  0  0  0
  1  6  2  0
  2  1  1  0
  3  2  2  0
  3  4  1  0
  4  5  2  0
  5  6  1  0
  7 13  1  0
  7 12  1  0
  8  5  1  0
  8  7  1  0
  9  8  1  0
  9 10  1  0
 10 11  1  0
 11 14  1  0
 11 12  1  0
 12 15  1  0
 16  2  1  0
  1 17  1  0
  3 18  1  0
  7 19  1  1
  8 20  1  1
 10 21  1  0
 10 22  1  0
 11 23  1  1
 12 24  1  1
 13 25  1  0
 14 26  1  0
 15 27  1  0
 16 28  1  0
 16 29  1  0
 16 30  1  0
M  ISO  8  17  14  18  14  19  13  20  13  21  13  22  13  23  13  24  13
M  ISO  6  25   3  26   3  27   3  28   8  29   8  30   8
M  END
>  <minimizedAffinity>  (1) 
-5.45578432

>  <minimizedRMSD>  (1) 
1.73903775

$$$$
