
     RDKit          3D

 51 53  0  0  1  0  0  0  0  0999 V2000
   45.7070   33.8310   44.5480 C   0  0  2  0  0  0  0  0  0  0  0  0
   44.9400   35.1040   44.5420 C   0  0  0  0  0  0  0  0  0  0  0  0
   45.3200   35.9280   43.3560 C   0  0  0  0  0  0  0  0  0  0  0  0
   44.9560   35.3620   42.1490 O   0  0  0  0  0  0  0  0  0  0  0  0
   44.8110   33.9930   42.2620 C   0  0  0  0  0  0  0  0  0  0  0  0
   45.9570   33.4340   43.1010 C   0  0  1  0  0  0  0  0  0  0  0  0
   47.9150   32.3180   42.1850 C   0  0  2  0  0  0  0  0  0  0  0  0
   47.2940   33.6790   42.5370 C   0  0  2  0  0  0  0  0  0  0  0  0
   48.1950   34.2570   43.4190 O   0  0  0  0  0  0  0  0  0  0  0  0
   49.3190   34.7290   42.7570 C   0  0  0  0  0  0  0  0  0  0  0  0
   50.0660   33.6200   42.0610 C   0  0  2  0  0  0  0  0  0  0  0  0
   49.3960   32.2860   42.2230 C   0  0  2  0  0  0  0  0  0  0  0  0
   47.4400   32.0040   40.8900 O   0  0  0  0  0  0  0  0  0  0  0  0
   51.3860   33.5710   42.4960 O   0  0  0  0  0  0  0  0  0  0  0  0
   49.8250   31.3990   41.2260 O   0  0  0  0  0  0  0  0  0  0  0  0
   45.1820   32.8290   45.2830 O   0  0  0  0  0  0  0  0  0  0  0  0
   45.1680   32.3140   47.8520 O   0  0  0  0  0  0  0  0  0  0  0  0
   45.9960   32.3130   46.6210 P   0  0  2  0  0  0  0  0  0  0  0  0
   47.2630   33.3910   46.9050 O   0  0  0  0  0  0  0  0  0  0  0  0
   46.6710   30.7520   46.3510 O   0  0  0  0  0  0  0  0  0  0  0  0
   44.9230   29.3220   45.6690 C   0  0  0  0  0  0  0  0  0  0  0  0
   45.9360   29.6020   46.5590 C   0  0  0  0  0  0  0  0  0  0  0  0
   46.1710   28.7070   47.6320 C   0  0  0  0  0  0  0  0  0  0  0  0
   45.3720   27.6150   47.7160 N   0  0  0  0  0  0  0  0  0  0  0  0
   44.4120   27.3810   46.8460 C   0  0  0  0  0  0  0  0  0  0  0  0
   44.1920   28.2450   45.8180 N   0  0  0  0  0  0  0  0  0  0  0  0
   45.0710   29.8760   43.2500 C   0  0  0  0  0  0  0  0  0  0  0  0
   46.2760   29.4440   43.1400 O   0  0  0  0  0  0  0  0  0  0  0  0
   44.3120   29.8550   44.5040 N   0  0  0  0  0  0  0  0  0  0  0  0
   46.6550   34.0194   45.0732 H   0  0  0  0  0  0  0  0  0  0  0  0
   43.8639   34.8799   44.4993 H   0  0  0  0  0  0  0  0  0  0  0  0
   45.1698   35.6664   45.4590 H   0  0  0  0  0  0  0  0  0  0  0  0
   44.8291   36.9086   43.4423 H   0  0  0  0  0  0  0  0  0  0  0  0
   46.4171   36.0076   43.3569 H   0  0  0  0  0  0  0  0  0  0  0  0
   43.8521   33.7637   42.7498 H   0  0  0  0  0  0  0  0  0  0  0  0
   44.8285   33.5359   41.2616 H   0  0  0  0  0  0  0  0  0  0  0  0
   45.9662   32.3343   43.0756 H   0  0  0  0  0  0  0  0  0  0  0  0
   47.6167   31.5802   42.9443 H   0  0  0  0  0  0  0  0  0  0  0  0
   47.1381   34.3614   41.6884 H   0  0  0  0  0  0  0  0  0  0  0  0
   49.0057   35.4716   42.0085 H   0  0  0  0  0  0  0  0  0  0  0  0
   49.9913   35.1784   43.5027 H   0  0  0  0  0  0  0  0  0  0  0  0
   50.0570   33.8491   40.9852 H   0  0  0  0  0  0  0  0  0  0  0  0
   49.6906   31.9556   43.2300 H   0  0  0  0  0  0  0  0  0  0  0  0
   46.6164   31.4596   40.9636 H   0  0  0  0  0  0  0  0  0  0  0  0
   51.4075   33.5702   43.4858 H   0  0  0  0  0  0  0  0  0  0  0  0
   50.2151   30.5925   41.6474 H   0  0  0  0  0  0  0  0  0  0  0  0
   47.3911   33.5000   47.8806 H   0  0  0  0  0  0  0  0  0  0  0  0
   46.9689   28.8906   48.3666 H   0  0  0  0  0  0  0  0  0  0  0  0
   43.7851   26.4832   46.9505 H   0  0  0  0  0  0  0  0  0  0  0  0
   44.5817   30.2843   42.3534 H   0  0  0  0  0  0  0  0  0  0  0  0
   43.3500   30.2214   44.5391 H   0  0  0  0  0  0  0  0  0  0  0  0
  1 16  1  0
  2  1  1  0
  3  2  1  0
  4  5  1  0
  4  3  1  0
  5  6  1  0
  6  1  1  0
  7 13  1  0
  7 12  1  0
  7  8  1  0
  8  6  1  0
  8  9  1  0
 10  9  1  0
 11 12  1  0
 11 14  1  0
 11 10  1  0
 12 15  1  0
 16 18  1  0
 18 19  1  0
 18 17  2  0
 20 22  1  0
 20 18  1  0
 21 26  2  0
 21 22  1  0
 22 23  2  0
 23 24  1  0
 25 24  2  0
 26 25  1  0
 27 29  1  0
 28 27  2  0
 29 21  1  0
  1 30  1  1
  2 31  1  0
  2 32  1  0
  3 33  1  0
  3 34  1  0
  5 35  1  0
  5 36  1  0
  6 37  1  1
  7 38  1  1
  8 39  1  6
 10 40  1  0
 10 41  1  0
 11 42  1  6
 12 43  1  1
 13 44  1  0
 14 45  1  0
 15 46  1  0
 19 47  1  0
 23 48  1  0
 25 49  1  0
 27 50  1  0
 29 51  1  0
M  ISO  8  30  13  31  13  32  13  33  13  34  13  35  13  36  13  37  13
M  ISO  8  38  13  39  13  40  13  41  13  42  13  43  13  44   3  45   3
M  ISO  5  46   3  47   3  48  14  49  14  50   6
M  END
>  <minimizedAffinity>  (1) 
-5.74368811

>  <minimizedRMSD>  (1) 
6.02794456

$$$$
