
     RDKit          3D

 54 58  0  0  1  0  0  0  0  0999 V2000
   47.0370   30.4530   45.0590 C   0  0  0  0  0  0  0  0  0  0  0  0
   46.5250   31.6930   45.2870 C   0  0  0  0  0  0  0  0  0  0  0  0
   46.7910   32.2860   46.5030 C   0  0  0  0  0  0  0  0  0  0  0  0
   47.5490   31.6410   47.4520 C   0  0  0  0  0  0  0  0  0  0  0  0
   48.0650   30.3750   47.2010 C   0  0  0  0  0  0  0  0  0  0  0  0
   47.8060   29.7620   45.9800 C   0  0  0  0  0  0  0  0  0  0  0  0
   48.7830   29.9740   48.3250 O   0  0  0  0  0  0  0  0  0  0  0  0
   48.4470   30.8620   49.3840 C   0  0  2  0  0  0  0  0  0  0  0  0
   47.9620   32.0120   48.7450 O   0  0  0  0  0  0  0  0  0  0  0  0
   44.8730   34.3360   43.3100 C   0  0  0  0  0  0  0  0  0  0  0  0
   44.1970   33.6100   42.3480 C   0  0  0  0  0  0  0  0  0  0  0  0
   44.3150   32.2220   42.3880 C   0  0  0  0  0  0  0  0  0  0  0  0
   45.0700   31.6200   43.3430 N   0  0  0  0  0  0  0  0  0  0  0  0
   45.7200   32.3690   44.2730 C   0  0  0  0  0  0  0  0  0  0  0  0
   45.6160   33.7170   44.2480 N   0  0  0  0  0  0  0  0  0  0  0  0
   43.4400   34.3340   41.4010 N   0  0  0  0  0  0  0  0  0  0  0  0
   43.3270   33.7970   40.0740 C   0  0  0  0  0  0  0  0  0  0  0  0
   42.5940   34.6680   39.1240 C   0  0  0  0  0  0  0  0  0  0  0  0
   41.3810   35.1990   39.6590 N   0  0  0  0  0  0  0  0  0  0  0  0
   41.3360   35.4990   41.0340 C   0  0  0  0  0  0  0  0  0  0  0  0
   42.7530   35.5750   41.6040 C   0  0  0  0  0  0  0  0  0  0  0  0
   50.0710   29.8810   50.9560 C   0  0  2  0  0  0  0  0  0  0  0  0
   49.7170   31.0980   50.1490 C   0  0  1  0  0  0  0  0  0  0  0  0
   50.6980   31.5020   49.2720 O   0  0  0  0  0  0  0  0  0  0  0  0
   51.9340   30.9390   49.4730 C   0  0  0  0  0  0  0  0  0  0  0  0
   52.3420   30.8040   50.9060 C   0  0  2  0  0  0  0  0  0  0  0  0
   51.2710   30.2880   51.8180 C   0  0  2  0  0  0  0  0  0  0  0  0
   50.3290   28.7560   50.2050 O   0  0  0  0  0  0  0  0  0  0  0  0
   52.8770   32.0070   51.3700 O   0  0  0  0  0  0  0  0  0  0  0  0
   51.6580   29.2190   52.6050 O   0  0  0  0  0  0  0  0  0  0  0  0
   46.8287   29.9739   44.0910 H   0  0  0  0  0  0  0  0  0  0  0  0
   46.3916   33.2884   46.7169 H   0  0  0  0  0  0  0  0  0  0  0  0
   48.1995   28.7602   45.7531 H   0  0  0  0  0  0  0  0  0  0  0  0
   47.6897   30.4989   50.0944 H   0  0  0  0  0  0  0  0  0  0  0  0
   44.8036   35.4338   43.3099 H   0  0  0  0  0  0  0  0  0  0  0  0
   43.7920   31.6086   41.6395 H   0  0  0  0  0  0  0  0  0  0  0  0
   44.3413   33.6348   39.6804 H   0  0  0  0  0  0  0  0  0  0  0  0
   42.7476   32.8658   40.1591 H   0  0  0  0  0  0  0  0  0  0  0  0
   42.3508   34.0786   38.2276 H   0  0  0  0  0  0  0  0  0  0  0  0
   43.2488   35.5220   38.8962 H   0  0  0  0  0  0  0  0  0  0  0  0
   41.1781   36.0708   39.1493 H   0  0  0  0  0  0  0  0  0  0  0  0
   40.8337   36.4669   41.1786 H   0  0  0  0  0  0  0  0  0  0  0  0
   40.7807   34.7062   41.5566 H   0  0  0  0  0  0  0  0  0  0  0  0
   42.6992   35.7874   42.6819 H   0  0  0  0  0  0  0  0  0  0  0  0
   43.3028   36.3759   41.0880 H   0  0  0  0  0  0  0  0  0  0  0  0
   49.2080   29.5773   51.5668 H   0  0  0  0  0  0  0  0  0  0  0  0
   49.5939   31.9085   50.8824 H   0  0  0  0  0  0  0  0  0  0  0  0
   51.9287   29.9350   49.0237 H   0  0  0  0  0  0  0  0  0  0  0  0
   52.6616   31.6213   49.0093 H   0  0  0  0  0  0  0  0  0  0  0  0
   53.1175   30.0242   50.9276 H   0  0  0  0  0  0  0  0  0  0  0  0
   51.0241   31.0979   52.5202 H   0  0  0  0  0  0  0  0  0  0  0  0
   50.5046   27.9902   50.8074 H   0  0  0  0  0  0  0  0  0  0  0  0
   52.8774   32.0079   52.3600 H   0  0  0  0  0  0  0  0  0  0  0  0
   51.5695   29.4634   53.5603 H   0  0  0  0  0  0  0  0  0  0  0  0
  1  2  2  0
  1  6  1  0
  2  3  1  0
  3  4  2  0
  4  9  1  0
  5  4  1  0
  5  7  1  0
  6  5  2  0
  7  8  1  0
  8 23  1  0
  9  8  1  0
 10 15  2  0
 11 12  2  0
 11 10  1  0
 12 13  1  0
 13 14  2  0
 14  2  1  0
 15 14  1  0
 16 21  1  0
 16 11  1  0
 17 16  1  0
 18 19  1  0
 18 17  1  0
 19 20  1  0
 20 21  1  0
 22 28  1  0
 22 27  1  0
 23 24  1  0
 23 22  1  0
 24 25  1  0
 25 26  1  0
 26 29  1  0
 26 27  1  0
 27 30  1  0
  1 31  1  0
  3 32  1  0
  6 33  1  0
  8 34  1  1
 10 35  1  0
 12 36  1  0
 17 37  1  0
 17 38  1  0
 18 39  1  0
 18 40  1  0
 19 41  1  0
 20 42  1  0
 20 43  1  0
 21 44  1  0
 21 45  1  0
 22 46  1  1
 23 47  1  1
 25 48  1  0
 25 49  1  0
 26 50  1  6
 27 51  1  1
 28 52  1  0
 29 53  1  0
 30 54  1  0
M  ISO  8  31  14  32  14  33  14  34  13  35  14  36  14  37  13  38  13
M  ISO  8  39  13  40  13  41   5  42  13  43  13  44  13  45  13  46  13
M  ISO  8  47  13  48  13  49  13  50  13  51  13  52   3  53   3  54   3
M  END
>  <minimizedAffinity>  (1) 
-6.37656879

>  <minimizedRMSD>  (1) 
1.4064554

$$$$
