
     RDKit          3D

 56 60  0  0  1  0  0  0  0  0999 V2000
   46.8480   32.1910   44.7720 C   0  0  0  0  0  0  0  0  0  0  0  0
   47.6540   31.0950   44.3760 C   0  0  0  0  0  0  0  0  0  0  0  0
   47.8790   30.3150   45.4520 C   0  0  0  0  0  0  0  0  0  0  0  0
   47.2400   30.8970   46.4810 N   0  0  0  0  0  0  0  0  0  0  0  0
   46.6250   32.0150   46.0820 N   0  0  0  0  0  0  0  0  0  0  0  0
   45.4040   35.3280   43.6010 C   0  0  0  0  0  0  0  0  0  0  0  0
   45.5490   35.2580   42.2080 C   0  0  0  0  0  0  0  0  0  0  0  0
   46.1530   34.1070   41.7040 C   0  0  0  0  0  0  0  0  0  0  0  0
   46.5530   33.1530   42.5580 N   0  0  0  0  0  0  0  0  0  0  0  0
   46.4090   33.2330   43.8780 C   0  0  0  0  0  0  0  0  0  0  0  0
   45.8290   34.3320   44.3950 N   0  0  0  0  0  0  0  0  0  0  0  0
   47.8000   33.8320   39.8670 C   0  0  2  0  0  0  0  0  0  0  0  0
   46.3200   34.0050   40.2290 C   0  0  1  0  0  0  0  0  0  0  0  0
   45.7030   32.8380   39.7410 O   0  0  0  0  0  0  0  0  0  0  0  0
   45.7020   32.8810   38.3690 C   0  0  0  0  0  0  0  0  0  0  0  0
   47.0900   32.8860   37.7510 C   0  0  1  0  0  0  0  0  0  0  0  0
   47.9360   33.9780   38.3840 C   0  0  2  0  0  0  0  0  0  0  0  0
   48.2160   32.5570   40.2690 O   0  0  0  0  0  0  0  0  0  0  0  0
   47.7350   31.6580   37.9180 O   0  0  0  0  0  0  0  0  0  0  0  0
   49.2790   33.7740   38.0700 O   0  0  0  0  0  0  0  0  0  0  0  0
   47.2160   30.3910   47.8400 C   0  0  0  0  0  0  0  0  0  0  0  0
   45.8080   30.1860   48.2870 C   0  0  0  0  0  0  0  0  0  0  0  0
   45.0670   27.7320   48.2010 C   0  0  0  0  0  0  0  0  0  0  0  0
   45.1080   29.0350   47.7400 C   0  0  0  0  0  0  0  0  0  0  0  0
   44.3760   29.2960   46.5800 C   0  0  0  0  0  0  0  0  0  0  0  0
   43.6590   28.3250   45.9340 C   0  0  0  0  0  0  0  0  0  0  0  0
   42.8830   28.2830   44.8330 N   0  0  0  0  0  0  0  0  0  0  0  0
   42.3970   27.0670   44.6190 C   0  0  0  0  0  0  0  0  0  0  0  0
   42.8560   26.2110   45.6230 C   0  0  0  0  0  0  0  0  0  0  0  0
   43.6270   27.0400   46.4020 C   0  0  0  0  0  0  0  0  0  0  0  0
   44.3480   26.7640   47.5520 C   0  0  0  0  0  0  0  0  0  0  0  0
   44.3440   25.4070   48.0890 C   0  0  0  0  0  0  0  0  0  0  0  0
   45.0230   25.1180   49.1190 O   0  0  0  0  0  0  0  0  0  0  0  0
   48.0330   30.9113   43.3598 H   0  0  0  0  0  0  0  0  0  0  0  0
   48.4684   29.3867   45.4819 H   0  0  0  0  0  0  0  0  0  0  0  0
   44.9337   36.2146   44.0513 H   0  0  0  0  0  0  0  0  0  0  0  0
   45.2046   36.0680   41.5482 H   0  0  0  0  0  0  0  0  0  0  0  0
   48.4218   34.5865   40.3711 H   0  0  0  0  0  0  0  0  0  0  0  0
   45.8856   34.9204   39.8009 H   0  0  0  0  0  0  0  0  0  0  0  0
   45.1600   31.9997   37.9955 H   0  0  0  0  0  0  0  0  0  0  0  0
   45.2210   33.8272   38.0801 H   0  0  0  0  0  0  0  0  0  0  0  0
   46.9701   33.0729   36.6736 H   0  0  0  0  0  0  0  0  0  0  0  0
   47.6120   34.9662   38.0254 H   0  0  0  0  0  0  0  0  0  0  0  0
   48.2309   32.5113   41.2578 H   0  0  0  0  0  0  0  0  0  0  0  0
   47.8355   31.4667   38.8841 H   0  0  0  0  0  0  0  0  0  0  0  0
   49.8047   33.6941   38.9051 H   0  0  0  0  0  0  0  0  0  0  0  0
   47.7536   29.4322   47.8805 H   0  0  0  0  0  0  0  0  0  0  0  0
   47.7013   31.1213   48.5042 H   0  0  0  0  0  0  0  0  0  0  0  0
   45.8184   30.0798   49.3818 H   0  0  0  0  0  0  0  0  0  0  0  0
   45.2570   31.0621   47.9143 H   0  0  0  0  0  0  0  0  0  0  0  0
   45.6253   27.4667   49.1109 H   0  0  0  0  0  0  0  0  0  0  0  0
   44.3754   30.3171   46.1710 H   0  0  0  0  0  0  0  0  0  0  0  0
   42.6905   29.0961   44.2307 H   0  0  0  0  0  0  0  0  0  0  0  0
   41.7390   26.7795   43.7857 H   0  0  0  0  0  0  0  0  0  0  0  0
   42.6510   25.1386   45.7569 H   0  0  0  0  0  0  0  0  0  0  0  0
   43.7457   24.6275   47.5947 H   0  0  0  0  0  0  0  0  0  0  0  0
  1  5  2  0
  2  1  1  0
  2  3  2  0
  3  4  1  0
  4 21  1  0
  5  4  1  0
  6 11  2  0
  7  6  1  0
  8  7  2  0
  8  9  1  0
  9 10  2  0
 10 11  1  0
 10  1  1  0
 12 13  1  0
 12 18  1  0
 13  8  1  0
 14 13  1  0
 15 14  1  0
 16 19  1  0
 16 15  1  0
 16 17  1  0
 17 20  1  0
 17 12  1  0
 21 22  1  0
 24 23  2  0
 24 22  1  0
 25 24  1  0
 26 30  1  0
 26 25  2  0
 27 26  1  0
 28 27  1  0
 28 29  2  0
 29 30  1  0
 30 31  2  0
 31 32  1  0
 31 23  1  0
 32 33  2  0
  2 34  1  0
  3 35  1  0
  6 36  1  0
  7 37  1  0
 12 38  1  1
 13 39  1  6
 15 40  1  0
 15 41  1  0
 16 42  1  6
 17 43  1  6
 18 44  1  0
 19 45  1  0
 20 46  1  0
 21 47  1  0
 21 48  1  0
 22 49  1  0
 22 50  1  0
 23 51  1  0
 25 52  1  0
 27 53  1  0
 28 54  1  0
 29 55  1  0
 32 56  1  0
M  ISO  8  34  14  35  14  36  14  37  14  38  13  39  13  40  13  41  13
M  ISO  8  42  13  43  13  44   3  45   3  46   3  47   8  48   8  49   8
M  ISO  7  50   8  51  14  52  14  53   9  54  14  55  14  56   6
M  END
>  <minimizedAffinity>  (1) 
-5.71846962

>  <minimizedRMSD>  (1) 
1.82951117

$$$$
