
     RDKit          3D

 54 57  0  0  1  0  0  0  0  0999 V2000
   42.1950   34.2770   38.7520 C   0  0  1  0  0  0  0  0  0  0  0  0
   42.7900   35.0850   39.8990 C   0  0  1  0  0  0  0  0  0  0  0  0
   41.7310   35.5780   40.6820 O   0  0  0  0  0  0  0  0  0  0  0  0
   40.6180   35.9350   39.9180 C   0  0  0  0  0  0  0  0  0  0  0  0
   39.9260   34.7240   39.3230 C   0  0  2  0  0  0  0  0  0  0  0  0
   40.9980   33.5740   39.3040 C   0  0  1  0  0  0  0  0  0  0  0  0
   41.8300   35.1130   37.6880 O   0  0  0  0  0  0  0  0  0  0  0  0
   39.6320   34.9660   37.9890 O   0  0  0  0  0  0  0  0  0  0  0  0
   43.4070   34.1410   40.7310 O   0  0  0  0  0  0  0  0  0  0  0  0
   44.4780   34.3780   41.4950 C   0  0  0  0  0  0  0  0  0  0  0  0
   45.7760   34.3640   40.9600 C   0  0  0  0  0  0  0  0  0  0  0  0
   46.8390   34.6190   41.8100 C   0  0  0  0  0  0  0  0  0  0  0  0
   46.5950   34.8790   43.1480 N   0  0  0  0  0  0  0  0  0  0  0  0
   45.3340   34.8840   43.6280 C   0  0  0  0  0  0  0  0  0  0  0  0
   44.2780   34.6360   42.8110 N   0  0  0  0  0  0  0  0  0  0  0  0
   48.2520   34.6190   41.3090 C   0  0  0  0  0  0  0  0  0  0  0  0
   48.9990   35.9480   41.3960 C   0  0  0  0  0  0  0  0  0  0  0  0
   49.3500   34.7110   42.2130 C   0  0  0  0  0  0  0  0  0  0  0  0
   40.4930   32.5620   38.5760 O   0  0  0  0  0  0  0  0  0  0  0  0
   39.5530   31.6530   38.9320 C   0  0  0  0  0  0  0  0  0  0  0  0
   38.4240   31.5640   38.2820 O   0  0  0  0  0  0  0  0  0  0  0  0
   38.6820   31.0090   41.1990 C   0  0  1  0  0  0  0  0  0  0  0  0
   39.0620   30.5420   39.7990 C   0  0  1  0  0  0  0  0  0  0  0  0
   37.8590   30.0200   39.3080 O   0  0  0  0  0  0  0  0  0  0  0  0
   37.7600   28.6990   39.6770 C   0  0  0  0  0  0  0  0  0  0  0  0
   37.8570   28.6390   41.1910 C   0  0  1  0  0  0  0  0  0  0  0  0
   37.7140   30.0220   41.8160 C   0  0  2  0  0  0  0  0  0  0  0  0
   39.7680   31.2810   41.9920 O   0  0  0  0  0  0  0  0  0  0  0  0
   36.8650   27.8360   41.7480 O   0  0  0  0  0  0  0  0  0  0  0  0
   36.3960   30.4320   41.6350 O   0  0  0  0  0  0  0  0  0  0  0  0
   42.9287   33.5599   38.3553 H   0  0  0  0  0  0  0  0  0  0  0  0
   43.4483   35.8837   39.5266 H   0  0  0  0  0  0  0  0  0  0  0  0
   39.9042   36.4724   40.5597 H   0  0  0  0  0  0  0  0  0  0  0  0
   40.9640   36.5702   39.0893 H   0  0  0  0  0  0  0  0  0  0  0  0
   39.0162   34.4867   39.8940 H   0  0  0  0  0  0  0  0  0  0  0  0
   41.2696   33.0971   40.2573 H   0  0  0  0  0  0  0  0  0  0  0  0
   41.4605   35.9593   38.0450 H   0  0  0  0  0  0  0  0  0  0  0  0
   38.8691   35.5940   37.9279 H   0  0  0  0  0  0  0  0  0  0  0  0
   45.9442   34.1558   39.8931 H   0  0  0  0  0  0  0  0  0  0  0  0
   45.1592   35.0915   44.6940 H   0  0  0  0  0  0  0  0  0  0  0  0
   48.0070   33.8965   40.5165 H   0  0  0  0  0  0  0  0  0  0  0  0
   49.6496   36.2813   40.5741 H   0  0  0  0  0  0  0  0  0  0  0  0
   48.7455   36.9988   41.6001 H   0  0  0  0  0  0  0  0  0  0  0  0
   49.1636   34.7046   43.2971 H   0  0  0  0  0  0  0  0  0  0  0  0
   50.2709   34.1274   42.3586 H   0  0  0  0  0  0  0  0  0  0  0  0
   38.1698   31.9787   41.1136 H   0  0  0  0  0  0  0  0  0  0  0  0
   39.8918   29.8201   39.8128 H   0  0  0  0  0  0  0  0  0  0  0  0
   36.7948   28.2880   39.3460 H   0  0  0  0  0  0  0  0  0  0  0  0
   38.5627   28.1064   39.2138 H   0  0  0  0  0  0  0  0  0  0  0  0
   38.8500   28.2166   41.4046 H   0  0  0  0  0  0  0  0  0  0  0  0
   37.9556   29.9776   42.8882 H   0  0  0  0  0  0  0  0  0  0  0  0
   39.5059   31.2153   42.9444 H   0  0  0  0  0  0  0  0  0  0  0  0
   36.9201   27.8806   42.7355 H   0  0  0  0  0  0  0  0  0  0  0  0
   35.9677   30.5652   42.5176 H   0  0  0  0  0  0  0  0  0  0  0  0
  1  6  1  0
  1  2  1  0
  2  3  1  0
  2  9  1  0
  4  3  1  0
  5  4  1  0
  6  5  1  0
  7  1  1  0
  8  5  1  0
  9 10  1  0
 10 15  1  0
 11 10  2  0
 11 12  1  0
 12 13  2  0
 13 14  1  0
 15 14  2  0
 16 17  1  0
 16 12  1  0
 16 18  1  0
 17 18  1  0
 19 20  1  0
 19  6  1  0
 21 20  2  0
 22 27  1  0
 22 28  1  0
 23 20  1  0
 23 22  1  0
 24 25  1  0
 24 23  1  0
 25 26  1  0
 26 29  1  0
 26 27  1  0
 27 30  1  0
  1 31  1  6
  2 32  1  6
  4 33  1  0
  4 34  1  0
  5 35  1  1
  6 36  1  1
  7 37  1  0
  8 38  1  0
 11 39  1  0
 14 40  1  0
 16 41  1  0
 17 42  1  0
 17 43  1  0
 18 44  1  0
 18 45  1  0
 22 46  1  6
 23 47  1  1
 25 48  1  0
 25 49  1  0
 26 50  1  6
 27 51  1  1
 28 52  1  0
 29 53  1  0
 30 54  1  0
M  END
>  <minimizedAffinity>  (1) 
-7.24324942

>  <minimizedRMSD>  (1) 
1.87117982

$$$$
