
     RDKit          3D

 39 42  0  0  0  0  0  0  0  0999 V2000
   47.9140   33.7910   42.8900 C   0  0  0  0  0  0  0  0  0  0  0  0
   48.5840   35.0050   42.6590 C   0  0  0  0  0  0  0  0  0  0  0  0
   49.9540   35.0080   42.3400 C   0  0  0  0  0  0  0  0  0  0  0  0
   50.5570   33.7780   42.2760 N   0  0  0  0  0  0  0  0  0  0  0  0
   49.8710   32.6160   42.5080 C   0  0  0  0  0  0  0  0  0  0  0  0
   48.5760   32.6330   42.8080 N   0  0  0  0  0  0  0  0  0  0  0  0
   46.4820   33.9120   43.2200 C   0  0  0  0  0  0  0  0  0  0  0  0
   45.7800   34.9270   42.4340 C   0  0  0  0  0  0  0  0  0  0  0  0
   45.3250   36.1090   43.2040 C   0  0  0  0  0  0  0  0  0  0  0  0
   44.5230   35.7470   44.4500 C   0  0  0  0  0  0  0  0  0  0  0  0
   44.9820   34.4890   45.1310 C   0  0  0  0  0  0  0  0  0  0  0  0
   46.4120   34.1700   44.7360 C   0  0  0  0  0  0  0  0  0  0  0  0
   50.6680   31.3960   42.4050 C   0  0  0  0  0  0  0  0  0  0  0  0
   51.5220   31.2970   41.3510 N   0  0  0  0  0  0  0  0  0  0  0  0
   52.1680   30.1180   41.4200 C   0  0  0  0  0  0  0  0  0  0  0  0
   51.7020   29.4770   42.5410 N   0  0  0  0  0  0  0  0  0  0  0  0
   50.7930   30.2610   43.1310 N   0  0  0  0  0  0  0  0  0  0  0  0
   52.0440   28.2080   43.0860 C   0  0  0  0  0  0  0  0  0  0  0  0
   52.0930   27.0980   42.2690 C   0  0  0  0  0  0  0  0  0  0  0  0
   52.4510   26.0260   43.0900 C   0  0  0  0  0  0  0  0  0  0  0  0
   52.6060   26.5080   44.3580 N   0  0  0  0  0  0  0  0  0  0  0  0
   52.3620   27.8070   44.3500 N   0  0  0  0  0  0  0  0  0  0  0  0
   48.0351   35.9558   42.7279 H   0  0  0  0  0  0  0  0  0  0  0  0
   50.5078   35.9399   42.1533 H   0  0  0  0  0  0  0  0  0  0  0  0
   45.9519   32.9856   42.9539 H   0  0  0  0  0  0  0  0  0  0  0  0
   44.8968   34.4556   41.9782 H   0  0  0  0  0  0  0  0  0  0  0  0
   46.5045   35.3005   41.6954 H   0  0  0  0  0  0  0  0  0  0  0  0
   46.2094   36.6853   43.5136 H   0  0  0  0  0  0  0  0  0  0  0  0
   44.6605   36.6891   42.5468 H   0  0  0  0  0  0  0  0  0  0  0  0
   44.6048   36.5774   45.1668 H   0  0  0  0  0  0  0  0  0  0  0  0
   43.4884   35.5701   44.1209 H   0  0  0  0  0  0  0  0  0  0  0  0
   44.9282   34.6258   46.2211 H   0  0  0  0  0  0  0  0  0  0  0  0
   44.3311   33.6571   44.8239 H   0  0  0  0  0  0  0  0  0  0  0  0
   46.7500   33.2734   45.2762 H   0  0  0  0  0  0  0  0  0  0  0  0
   47.0610   35.0202   44.9929 H   0  0  0  0  0  0  0  0  0  0  0  0
   52.9232   29.7411   40.7146 H   0  0  0  0  0  0  0  0  0  0  0  0
   51.8908   27.0637   41.1883 H   0  0  0  0  0  0  0  0  0  0  0  0
   52.5841   24.9814   42.7721 H   0  0  0  0  0  0  0  0  0  0  0  0
   52.8694   25.9516   45.1838 H   0  0  0  0  0  0  0  0  0  0  0  0
  1  7  1  0
  2  1  2  0
  3  2  1  0
  4  3  2  0
  4  5  1  0
  5  6  2  0
  6  1  1  0
  7 12  1  0
  8  9  1  0
  8  7  1  0
  9 10  1  0
 10 11  1  0
 12 11  1  0
 13  5  1  0
 13 17  2  0
 14 15  2  0
 14 13  1  0
 15 16  1  0
 16 18  1  0
 16 17  1  0
 18 22  2  0
 19 18  1  0
 19 20  2  0
 20 21  1  0
 22 21  1  0
  2 23  1  0
  3 24  1  0
  7 25  1  0
  8 26  1  0
  8 27  1  0
  9 28  1  0
  9 29  1  0
 10 30  1  0
 10 31  1  0
 11 32  1  0
 11 33  1  0
 12 34  1  0
 12 35  1  0
 15 36  1  0
 19 37  1  0
 20 38  1  0
 21 39  1  0
M  ISO  8  23  14  24  14  25  13  26  13  27  13  28  13  29  13  30  13
M  ISO  8  31  13  32  13  33  13  34  13  35  13  36  14  37  14  38  14
M  ISO  1  39   9
M  END
>  <minimizedAffinity>  (1) 
-4.39916849

>  <minimizedRMSD>  (1) 
0.487228572

$$$$
