
     RDKit          3D

 45 49  0  0  1  0  0  0  0  0999 V2000
   45.2330   36.0240   43.4580 C   0  0  0  0  0  0  0  0  0  0  0  0
   46.0310   34.9060   43.2100 C   0  0  0  0  0  0  0  0  0  0  0  0
   46.1180   33.9240   44.1510 C   0  0  0  0  0  0  0  0  0  0  0  0
   45.4030   34.1000   45.3080 N   0  0  0  0  0  0  0  0  0  0  0  0
   44.6370   35.1770   45.5410 C   0  0  0  0  0  0  0  0  0  0  0  0
   44.5600   36.1120   44.6300 N   0  0  0  0  0  0  0  0  0  0  0  0
   46.7310   34.8770   42.0030 N   0  0  0  0  0  0  0  0  0  0  0  0
   48.0130   35.4880   41.8610 C   0  0  0  0  0  0  0  0  0  0  0  0
   48.6990   35.2140   40.5520 C   0  0  0  0  0  0  0  0  0  0  0  0
   48.5530   33.9130   40.0660 N   0  0  0  0  0  0  0  0  0  0  0  0
   47.3010   33.3460   40.1760 C   0  0  0  0  0  0  0  0  0  0  0  0
   46.2910   34.2760   40.8120 C   0  0  0  0  0  0  0  0  0  0  0  0
   46.2780   31.8180   45.1790 C   0  0  0  0  0  0  0  0  0  0  0  0
   46.8000   32.7060   44.2200 C   0  0  0  0  0  0  0  0  0  0  0  0
   47.9110   32.1810   43.6050 C   0  0  0  0  0  0  0  0  0  0  0  0
   48.4660   30.9660   43.8650 C   0  0  0  0  0  0  0  0  0  0  0  0
   47.8880   30.1550   44.8350 C   0  0  0  0  0  0  0  0  0  0  0  0
   46.7820   30.5860   45.4950 C   0  0  0  0  0  0  0  0  0  0  0  0
   48.6850   29.0190   44.8620 O   0  0  0  0  0  0  0  0  0  0  0  0
   49.7110   29.1130   43.8850 C   0  0  2  0  0  0  0  0  0  0  0  0
   49.5790   30.3900   43.2680 O   0  0  0  0  0  0  0  0  0  0  0  0
   49.4220   28.1180   42.9320 O   0  0  0  0  0  0  0  0  0  0  0  0
   49.5030   28.2680   41.5640 C   0  0  0  0  0  0  0  0  0  0  0  0
   50.6950   28.1290   40.8530 C   0  0  0  0  0  0  0  0  0  0  0  0
   50.3430   28.3540   39.5370 C   0  0  0  0  0  0  0  0  0  0  0  0
   49.0350   28.6140   39.4380 N   0  0  0  0  0  0  0  0  0  0  0  0
   48.5190   28.5640   40.6650 N   0  0  0  0  0  0  0  0  0  0  0  0
   45.1515   36.8255   42.7091 H   0  0  0  0  0  0  0  0  0  0  0  0
   44.0814   35.2720   46.4856 H   0  0  0  0  0  0  0  0  0  0  0  0
   47.8866   36.5762   41.9601 H   0  0  0  0  0  0  0  0  0  0  0  0
   48.6523   35.0529   42.6433 H   0  0  0  0  0  0  0  0  0  0  0  0
   48.2891   35.9058   39.8014 H   0  0  0  0  0  0  0  0  0  0  0  0
   49.7746   35.3527   40.7357 H   0  0  0  0  0  0  0  0  0  0  0  0
   49.2135   33.3123   40.5797 H   0  0  0  0  0  0  0  0  0  0  0  0
   46.9469   33.0775   39.1697 H   0  0  0  0  0  0  0  0  0  0  0  0
   47.3929   32.4626   40.8249 H   0  0  0  0  0  0  0  0  0  0  0  0
   46.0536   35.0722   40.0911 H   0  0  0  0  0  0  0  0  0  0  0  0
   45.4164   33.6619   41.0725 H   0  0  0  0  0  0  0  0  0  0  0  0
   45.3811   32.1450   45.7255 H   0  0  0  0  0  0  0  0  0  0  0  0
   48.3950   32.7980   42.8336 H   0  0  0  0  0  0  0  0  0  0  0  0
   46.3040   29.9608   46.2635 H   0  0  0  0  0  0  0  0  0  0  0  0
   50.7212   28.9907   44.3028 H   0  0  0  0  0  0  0  0  0  0  0  0
   51.6926   27.8929   41.2517 H   0  0  0  0  0  0  0  0  0  0  0  0
   51.0416   28.3236   38.6878 H   0  0  0  0  0  0  0  0  0  0  0  0
   48.5195   28.8164   38.5696 H   0  0  0  0  0  0  0  0  0  0  0  0
  1  6  2  0
  2  1  1  0
  2  3  2  0
  3 14  1  0
  3  4  1  0
  4  5  2  0
  6  5  1  0
  7  2  1  0
  8  7  1  0
  9  8  1  0
 10 11  1  0
 10  9  1  0
 11 12  1  0
 12  7  1  0
 13 18  2  0
 14 13  1  0
 15 16  1  0
 15 14  2  0
 16 17  2  0
 17 19  1  0
 17 18  1  0
 20 19  1  0
 21 16  1  0
 21 20  1  0
 22 20  1  0
 23 22  1  0
 24 23  1  0
 25 24  2  0
 26 25  1  0
 26 27  1  0
 27 23  2  0
  1 28  1  0
  5 29  1  0
  8 30  1  0
  8 31  1  0
  9 32  1  0
  9 33  1  0
 10 34  1  0
 11 35  1  0
 11 36  1  0
 12 37  1  0
 12 38  1  0
 13 39  1  0
 15 40  1  0
 18 41  1  0
 20 42  1  1
 24 43  1  0
 25 44  1  0
 26 45  1  0
M  ISO  8  28  14  29  14  30  13  31  13  32  13  33  13  34   5  35  13
M  ISO  8  36  13  37  13  38  13  39  14  40  14  41  14  42  13  43  14
M  ISO  2  44  14  45   9
M  END
>  <minimizedAffinity>  (1) 
-4.7103076

>  <minimizedRMSD>  (1) 
1.62177396

$$$$
