
     RDKit          3D

 44 47  0  0  1  0  0  0  0  0999 V2000
   47.4370   32.8440   44.4090 C   0  0  2  0  0  0  0  0  0  0  0  0
   47.3030   33.2080   42.9760 C   0  0  1  0  0  0  0  0  0  0  0  0
   47.1560   31.9760   42.0840 C   0  0  0  0  0  0  0  0  0  0  0  0
   48.2650   31.1870   42.4040 O   0  0  0  0  0  0  0  0  0  0  0  0
   48.1240   30.5960   43.6400 C   0  0  0  0  0  0  0  0  0  0  0  0
   47.2130   31.3300   44.5730 C   0  0  1  0  0  0  0  0  0  0  0  0
   45.0750   36.1080   42.8680 C   0  0  0  0  0  0  0  0  0  0  0  0
   43.9880   35.6870   42.0430 C   0  0  0  0  0  0  0  0  0  0  0  0
   44.0840   34.3550   41.5380 C   0  0  0  0  0  0  0  0  0  0  0  0
   45.1600   33.6020   41.8620 N   0  0  0  0  0  0  0  0  0  0  0  0
   46.1510   34.0680   42.6480 C   0  0  0  0  0  0  0  0  0  0  0  0
   46.1090   35.3240   43.1550 N   0  0  0  0  0  0  0  0  0  0  0  0
   44.9760   37.3680   43.3420 O   0  0  0  0  0  0  0  0  0  0  0  0
   46.5270   33.5040   45.2470 O   0  0  0  0  0  0  0  0  0  0  0  0
   47.4240   31.0360   45.9010 O   0  0  0  0  0  0  0  0  0  0  0  0
   46.2580   28.6050   45.8710 F   0  0  0  0  0  0  0  0  0  0  0  0
   46.1110   29.5110   46.8580 C   0  0  0  0  0  0  0  0  0  0  0  0
   46.6750   30.7670   46.9550 C   0  0  0  0  0  0  0  0  0  0  0  0
   46.3600   31.4770   48.1010 C   0  0  0  0  0  0  0  0  0  0  0  0
   45.5500   31.0480   49.1260 C   0  0  0  0  0  0  0  0  0  0  0  0
   45.0130   29.7910   48.9790 C   0  0  0  0  0  0  0  0  0  0  0  0
   45.2810   29.0050   47.8510 C   0  0  0  0  0  0  0  0  0  0  0  0
   44.6440   27.6950   47.8310 C   0  0  0  0  0  0  0  0  0  0  0  0
   43.9460   27.0130   46.8600 C   0  0  0  0  0  0  0  0  0  0  0  0
   43.5190   25.7800   47.2980 C   0  0  0  0  0  0  0  0  0  0  0  0
   43.9790   25.7430   48.5600 N   0  0  0  0  0  0  0  0  0  0  0  0
   44.6290   26.8490   48.8700 N   0  0  0  0  0  0  0  0  0  0  0  0
   48.4502   33.1506   44.7079 H   0  0  0  0  0  0  0  0  0  0  0  0
   48.2345   33.7620   42.7877 H   0  0  0  0  0  0  0  0  0  0  0  0
   47.1724   32.2595   41.0213 H   0  0  0  0  0  0  0  0  0  0  0  0
   46.2036   31.4498   42.2456 H   0  0  0  0  0  0  0  0  0  0  0  0
   47.7230   29.5822   43.4934 H   0  0  0  0  0  0  0  0  0  0  0  0
   49.1205   30.5983   44.1059 H   0  0  0  0  0  0  0  0  0  0  0  0
   46.1924   31.0157   44.3090 H   0  0  0  0  0  0  0  0  0  0  0  0
   43.1359   36.3434   41.8126 H   0  0  0  0  0  0  0  0  0  0  0  0
   43.2923   33.9459   40.8931 H   0  0  0  0  0  0  0  0  0  0  0  0
   44.1915   37.9247   43.1081 H   0  0  0  0  0  0  0  0  0  0  0  0
   46.7644   33.3318   46.1926 H   0  0  0  0  0  0  0  0  0  0  0  0
   46.7998   32.4803   48.2012 H   0  0  0  0  0  0  0  0  0  0  0  0
   45.3445   31.6717   50.0085 H   0  0  0  0  0  0  0  0  0  0  0  0
   44.3566   29.3926   49.7667 H   0  0  0  0  0  0  0  0  0  0  0  0
   43.7521   27.4075   45.8516 H   0  0  0  0  0  0  0  0  0  0  0  0
   42.9453   25.0166   46.7521 H   0  0  0  0  0  0  0  0  0  0  0  0
   43.8416   24.9512   49.2043 H   0  0  0  0  0  0  0  0  0  0  0  0
  1  6  1  0
  1 14  1  0
  2  1  1  0
  3  4  1  0
  3  2  1  0
  4  5  1  0
  5  6  1  0
  6 15  1  0
  7 12  2  0
  7 13  1  0
  8  7  1  0
  9 10  1  0
  9  8  2  0
 10 11  2  0
 11  2  1  0
 11 12  1  0
 15 18  1  0
 16 17  1  0
 17 18  2  0
 17 22  1  0
 18 19  1  0
 19 20  2  0
 21 20  1  0
 22 21  2  0
 23 22  1  0
 23 27  2  0
 24 25  2  0
 24 23  1  0
 25 26  1  0
 26 27  1  0
  1 28  1  1
  2 29  1  6
  3 30  1  0
  3 31  1  0
  5 32  1  0
  5 33  1  0
  6 34  1  6
  8 35  1  0
  9 36  1  0
 13 37  1  0
 14 38  1  0
 19 39  1  0
 20 40  1  0
 21 41  1  0
 24 42  1  0
 25 43  1  0
 26 44  1  0
M  ISO  8  28  13  29  13  30  13  31  13  32  13  33  13  34  13  35  14
M  ISO  8  36  14  37   3  38   3  39  14  40  14  41  14  42  14  43  14
M  ISO  1  44   9
M  END
>  <minimizedAffinity>  (1) 
-5.71832752

>  <minimizedRMSD>  (1) 
0.734710038

$$$$
