
     RDKit          3D

 33 35  0  0  0  0  0  0  0  0999 V2000
   45.7030   32.1600   47.3560 C   0  0  0  0  0  0  0  0  0  0  0  0
   45.5720   30.7400   46.9730 C   0  0  0  0  0  0  0  0  0  0  0  0
   46.0630   30.0660   45.8910 C   0  0  0  0  0  0  0  0  0  0  0  0
   45.6500   28.7610   46.0110 C   0  0  0  0  0  0  0  0  0  0  0  0
   44.9310   28.6540   47.1350 N   0  0  0  0  0  0  0  0  0  0  0  0
   44.8960   29.8580   47.6990 N   0  0  0  0  0  0  0  0  0  0  0  0
   44.3730   27.4010   47.5160 C   0  0  0  0  0  0  0  0  0  0  0  0
   43.7170   26.4320   46.7830 C   0  0  0  0  0  0  0  0  0  0  0  0
   43.3870   25.4060   47.6770 C   0  0  0  0  0  0  0  0  0  0  0  0
   43.8440   25.7740   48.9090 N   0  0  0  0  0  0  0  0  0  0  0  0
   44.4270   26.9640   48.7890 N   0  0  0  0  0  0  0  0  0  0  0  0
   46.6930   32.8620   46.4670 C   0  0  0  0  0  0  0  0  0  0  0  0
   44.5610   35.4740   44.8440 C   0  0  0  0  0  0  0  0  0  0  0  0
   45.1480   35.5130   43.5580 C   0  0  0  0  0  0  0  0  0  0  0  0
   46.2220   34.6540   43.3290 C   0  0  0  0  0  0  0  0  0  0  0  0
   46.6180   33.8550   44.3470 N   0  0  0  0  0  0  0  0  0  0  0  0
   46.0280   33.8540   45.5550 C   0  0  0  0  0  0  0  0  0  0  0  0
   45.0000   34.6620   45.8050 N   0  0  0  0  0  0  0  0  0  0  0  0
   46.8200   34.7000   42.0000 C   0  0  0  0  0  0  0  0  0  0  0  0
   47.6210   33.5830   41.8060 F   0  0  0  0  0  0  0  0  0  0  0  0
   47.6910   35.7820   41.9960 F   0  0  0  0  0  0  0  0  0  0  0  0
   45.8880   34.7580   40.9950 F   0  0  0  0  0  0  0  0  0  0  0  0
   44.7230   32.6508   47.2631 H   0  0  0  0  0  0  0  0  0  0  0  0
   46.0604   32.2143   48.3949 H   0  0  0  0  0  0  0  0  0  0  0  0
   46.6728   30.4877   45.0784 H   0  0  0  0  0  0  0  0  0  0  0  0
   45.8716   27.9461   45.3061 H   0  0  0  0  0  0  0  0  0  0  0  0
   43.4964   26.4605   45.7057 H   0  0  0  0  0  0  0  0  0  0  0  0
   42.8566   24.4742   47.4312 H   0  0  0  0  0  0  0  0  0  0  0  0
   43.7537   25.2277   49.7775 H   0  0  0  0  0  0  0  0  0  0  0  0
   47.4220   33.3925   47.0972 H   0  0  0  0  0  0  0  0  0  0  0  0
   47.1850   32.1027   45.8413 H   0  0  0  0  0  0  0  0  0  0  0  0
   43.7109   36.1383   45.0588 H   0  0  0  0  0  0  0  0  0  0  0  0
   44.7747   36.1894   42.7750 H   0  0  0  0  0  0  0  0  0  0  0  0
  2  1  1  0
  2  6  2  0
  3  4  2  0
  3  2  1  0
  4  5  1  0
  5  7  1  0
  5  6  1  0
  7 11  2  0
  8  7  1  0
  8  9  2  0
  9 10  1  0
 11 10  1  0
 12  1  1  0
 13 18  2  0
 14 13  1  0
 15 14  2  0
 15 16  1  0
 16 17  2  0
 17 18  1  0
 17 12  1  0
 19 15  1  0
 20 19  1  0
 21 19  1  0
 22 19  1  0
  1 23  1  0
  1 24  1  0
  3 25  1  0
  4 26  1  0
  8 27  1  0
  9 28  1  0
 10 29  1  0
 12 30  1  0
 12 31  1  0
 13 32  1  0
 14 33  1  0
M  ISO  8  23   8  24   8  25  14  26  14  27  14  28  14  29   9  30   8
M  ISO  3  31   8  32  14  33  14
M  END
>  <minimizedAffinity>  (1) 
-5.67107677

>  <minimizedRMSD>  (1) 
2.07795191

$$$$
