
     RDKit          3D

 33 36  0  0  0  0  0  0  0  0999 V2000
   46.7640   35.0040   42.6980 C   0  0  0  0  0  0  0  0  0  0  0  0
   45.8530   36.0570   42.6900 C   0  0  0  0  0  0  0  0  0  0  0  0
   44.8890   36.0880   43.6820 C   0  0  0  0  0  0  0  0  0  0  0  0
   44.8700   35.1020   44.6130 N   0  0  0  0  0  0  0  0  0  0  0  0
   45.7730   34.0860   44.5950 C   0  0  0  0  0  0  0  0  0  0  0  0
   46.7200   34.0380   43.6360 N   0  0  0  0  0  0  0  0  0  0  0  0
   46.0310   31.7350   45.1860 C   0  0  0  0  0  0  0  0  0  0  0  0
   45.7490   33.0230   45.6020 C   0  0  0  0  0  0  0  0  0  0  0  0
   45.4560   33.2690   46.9350 C   0  0  0  0  0  0  0  0  0  0  0  0
   45.4550   32.2120   47.8230 C   0  0  0  0  0  0  0  0  0  0  0  0
   45.2160   32.1360   49.1480 N   0  0  0  0  0  0  0  0  0  0  0  0
   45.3320   30.8760   49.5830 C   0  0  0  0  0  0  0  0  0  0  0  0
   45.6640   30.0790   48.4960 C   0  0  0  0  0  0  0  0  0  0  0  0
   45.7390   30.9180   47.4060 C   0  0  0  0  0  0  0  0  0  0  0  0
   46.0250   30.6890   46.0830 C   0  0  0  0  0  0  0  0  0  0  0  0
   47.7580   34.9910   41.6560 C   0  0  0  0  0  0  0  0  0  0  0  0
   48.9240   35.4690   41.7730 O   0  0  0  0  0  0  0  0  0  0  0  0
   47.4290   34.3910   40.3620 C   0  0  0  0  0  0  0  0  0  0  0  0
   48.1890   34.3310   39.2120 C   0  0  0  0  0  0  0  0  0  0  0  0
   47.5070   33.6720   38.2030 C   0  0  0  0  0  0  0  0  0  0  0  0
   46.3350   33.3460   38.7770 N   0  0  0  0  0  0  0  0  0  0  0  0
   46.2700   33.7560   40.0320 N   0  0  0  0  0  0  0  0  0  0  0  0
   45.8983   36.8401   41.9188 H   0  0  0  0  0  0  0  0  0  0  0  0
   44.1485   36.9008   43.7151 H   0  0  0  0  0  0  0  0  0  0  0  0
   46.2626   31.5432   44.1279 H   0  0  0  0  0  0  0  0  0  0  0  0
   45.2283   34.2888   47.2788 H   0  0  0  0  0  0  0  0  0  0  0  0
   44.9763   32.9402   49.7452 H   0  0  0  0  0  0  0  0  0  0  0  0
   45.1896   30.5326   50.6183 H   0  0  0  0  0  0  0  0  0  0  0  0
   45.8337   28.9922   48.5035 H   0  0  0  0  0  0  0  0  0  0  0  0
   46.2497   29.6688   45.7384 H   0  0  0  0  0  0  0  0  0  0  0  0
   49.2008   34.7504   39.1103 H   0  0  0  0  0  0  0  0  0  0  0  0
   47.8435   33.4645   37.1765 H   0  0  0  0  0  0  0  0  0  0  0  0
   45.5789   32.8379   38.2963 H   0  0  0  0  0  0  0  0  0  0  0  0
  1  6  1  0
  2  1  2  0
  2  3  1  0
  3  4  2  0
  5  4  1  0
  5  8  1  0
  6  5  2  0
  7  8  2  0
  7 15  1  0
  8  9  1  0
  9 10  2  0
 10 11  1  0
 11 12  1  0
 13 12  2  0
 14 10  1  0
 14 13  1  0
 15 14  2  0
 16 17  2  0
 16  1  1  0
 18 16  1  0
 19 18  1  0
 20 21  1  0
 20 19  2  0
 21 22  1  0
 22 18  2  0
  2 23  1  0
  3 24  1  0
  7 25  1  0
  9 26  1  0
 11 27  1  0
 12 28  1  0
 13 29  1  0
 15 30  1  0
 19 31  1  0
 20 32  1  0
 21 33  1  0
M  ISO  8  23  14  24  14  25  14  26  14  27   9  28  14  29  14  30  14
M  ISO  3  31  14  32  14  33   9
M  END
>  <minimizedAffinity>  (1) 
-6.15560818

>  <minimizedRMSD>  (1) 
0.797395289

$$$$
