
     RDKit          3D

 38 41  0  0  1  0  0  0  0  0999 V2000
   39.7220   33.5290   42.1240 N   0  0  0  0  0  0  0  0  0  0  0  0
   39.9460   34.6480   41.2030 C   0  0  2  0  0  0  0  0  0  0  0  0
   39.0810   34.5810   39.9980 C   0  0  0  0  0  0  0  0  0  0  0  0
   38.0380   33.5760   40.1190 N   0  0  0  0  0  0  0  0  0  0  0  0
   38.4810   32.2940   40.5270 C   0  0  0  0  0  0  0  0  0  0  0  0
   39.7990   32.3290   41.2610 C   0  0  2  0  0  0  0  0  0  0  0  0
   40.0260   31.1050   42.0470 C   0  0  0  0  0  0  0  0  0  0  0  0
   41.0830   30.7790   42.8480 C   0  0  0  0  0  0  0  0  0  0  0  0
   40.8700   29.5250   43.3890 C   0  0  0  0  0  0  0  0  0  0  0  0
   39.6840   29.1070   42.9080 N   0  0  0  0  0  0  0  0  0  0  0  0
   39.1880   30.0500   42.1120 N   0  0  0  0  0  0  0  0  0  0  0  0
   43.5290   34.5610   40.7890 C   0  0  0  0  0  0  0  0  0  0  0  0
   43.0350   34.5530   39.4820 C   0  0  0  0  0  0  0  0  0  0  0  0
   41.6510   34.5920   39.4990 C   0  0  0  0  0  0  0  0  0  0  0  0
   41.3380   34.6180   40.7910 N   0  0  0  0  0  0  0  0  0  0  0  0
   42.4310   34.6000   41.5420 N   0  0  0  0  0  0  0  0  0  0  0  0
   47.2430   34.0030   40.8790 C   0  0  0  0  0  0  0  0  0  0  0  0
   45.9050   33.9260   40.3880 C   0  0  0  0  0  0  0  0  0  0  0  0
   44.9450   34.5420   41.1520 C   0  0  0  0  0  0  0  0  0  0  0  0
   45.2970   35.1810   42.3070 N   0  0  0  0  0  0  0  0  0  0  0  0
   46.5800   35.2300   42.7350 C   0  0  0  0  0  0  0  0  0  0  0  0
   47.5220   34.6410   42.0140 N   0  0  0  0  0  0  0  0  0  0  0  0
   40.4504   33.5032   42.8517 H   0  0  0  0  0  0  0  0  0  0  0  0
   39.6946   35.5809   41.7289 H   0  0  0  0  0  0  0  0  0  0  0  0
   39.7070   34.3371   39.1270 H   0  0  0  0  0  0  0  0  0  0  0  0
   38.5918   35.5593   39.8819 H   0  0  0  0  0  0  0  0  0  0  0  0
   37.3514   33.9108   40.8099 H   0  0  0  0  0  0  0  0  0  0  0  0
   37.7216   31.8564   41.1917 H   0  0  0  0  0  0  0  0  0  0  0  0
   38.6279   31.6930   39.6175 H   0  0  0  0  0  0  0  0  0  0  0  0
   40.6498   32.3773   40.5654 H   0  0  0  0  0  0  0  0  0  0  0  0
   41.9628   31.4128   43.0330 H   0  0  0  0  0  0  0  0  0  0  0  0
   41.5351   28.9789   44.0741 H   0  0  0  0  0  0  0  0  0  0  0  0
   39.2346   28.2051   43.1214 H   0  0  0  0  0  0  0  0  0  0  0  0
   43.6543   34.5205   38.5735 H   0  0  0  0  0  0  0  0  0  0  0  0
   40.9657   34.5997   38.6386 H   0  0  0  0  0  0  0  0  0  0  0  0
   48.0564   33.5279   40.3109 H   0  0  0  0  0  0  0  0  0  0  0  0
   45.6575   33.4036   39.4521 H   0  0  0  0  0  0  0  0  0  0  0  0
   46.8368   35.7518   43.6687 H   0  0  0  0  0  0  0  0  0  0  0  0
  2  1  1  0
  3  4  1  0
  3  2  1  0
  4  5  1  0
  5  6  1  0
  6  7  1  0
  6  1  1  0
  7 11  2  0
  7  8  1  0
  8  9  2  0
 10  9  1  0
 11 10  1  0
 12 19  1  0
 12 16  2  0
 13 14  2  0
 13 12  1  0
 14 15  1  0
 15  2  1  0
 15 16  1  0
 17 22  2  0
 18 17  1  0
 18 19  2  0
 19 20  1  0
 20 21  2  0
 22 21  1  0
  1 23  1  0
  2 24  1  1
  3 25  1  0
  3 26  1  0
  4 27  1  0
  5 28  1  0
  5 29  1  0
  6 30  1  6
  8 31  1  0
  9 32  1  0
 10 33  1  0
 13 34  1  0
 14 35  1  0
 17 36  1  0
 18 37  1  0
 21 38  1  0
M  ISO  8  23   5  24  13  25  13  26  13  27   5  28  13  29  13  30  13
M  ISO  8  31  14  32  14  33   9  34  14  35  14  36  14  37  14  38  14
M  END
>  <minimizedAffinity>  (1) 
-6.04166269

>  <minimizedRMSD>  (1) 
4.95005846

$$$$
