
     RDKit          3D

 46 51  0  0  1  0  0  0  0  0999 V2000
   46.7390   33.3960   43.0700 C   0  0  1  0  0  0  0  0  0  0  0  0
   46.9680   34.7730   42.6380 C   0  0  0  0  0  0  0  0  0  0  0  0
   48.1250   33.8460   42.6320 C   0  0  2  0  0  0  0  0  0  0  0  0
   48.5490   33.3000   41.3150 C   0  0  0  0  0  0  0  0  0  0  0  0
   49.3900   32.2190   41.1530 C   0  0  0  0  0  0  0  0  0  0  0  0
   49.7450   31.7610   39.8900 C   0  0  0  0  0  0  0  0  0  0  0  0
   49.2530   32.3930   38.7710 C   0  0  0  0  0  0  0  0  0  0  0  0
   49.5760   31.9630   37.5260 N   0  0  0  0  0  0  0  0  0  0  0  0
   49.0730   32.5990   36.4350 C   0  0  0  0  0  0  0  0  0  0  0  0
   48.2100   33.7120   36.5060 C   0  0  0  0  0  0  0  0  0  0  0  0
   47.8760   34.1560   37.7560 C   0  0  0  0  0  0  0  0  0  0  0  0
   48.3980   33.4940   38.8760 C   0  0  0  0  0  0  0  0  0  0  0  0
   48.0760   33.9090   40.1530 C   0  0  0  0  0  0  0  0  0  0  0  0
   45.5310   33.7410   45.2570 C   0  0  0  0  0  0  0  0  0  0  0  0
   46.5690   33.0780   44.5180 C   0  0  0  0  0  0  0  0  0  0  0  0
   47.3640   32.1850   45.1880 C   0  0  0  0  0  0  0  0  0  0  0  0
   47.0990   32.0030   46.5130 N   0  0  0  0  0  0  0  0  0  0  0  0
   46.1320   32.6230   47.1980 C   0  0  0  0  0  0  0  0  0  0  0  0
   45.3410   33.5000   46.5630 N   0  0  0  0  0  0  0  0  0  0  0  0
   45.9810   32.3000   48.6330 C   0  0  2  0  0  0  0  0  0  0  0  0
   46.7890   31.2990   49.3020 C   0  0  0  0  0  0  0  0  0  0  0  0
   45.4200   30.8730   48.9110 C   0  0  2  0  0  0  0  0  0  0  0  0
   45.3030   29.9300   47.7990 C   0  0  0  0  0  0  0  0  0  0  0  0
   44.4170   29.6570   46.7800 C   0  0  0  0  0  0  0  0  0  0  0  0
   44.8290   28.5970   46.0010 C   0  0  0  0  0  0  0  0  0  0  0  0
   45.9890   28.2330   46.5750 N   0  0  0  0  0  0  0  0  0  0  0  0
   46.2710   28.9850   47.6000 N   0  0  0  0  0  0  0  0  0  0  0  0
   46.0168   32.6198   42.7770 H   0  0  0  0  0  0  0  0  0  0  0  0
   46.5452   35.1210   41.6840 H   0  0  0  0  0  0  0  0  0  0  0  0
   46.7797   35.7576   43.0910 H   0  0  0  0  0  0  0  0  0  0  0  0
   49.1381   33.8731   43.0596 H   0  0  0  0  0  0  0  0  0  0  0  0
   49.7882   31.7086   42.0424 H   0  0  0  0  0  0  0  0  0  0  0  0
   50.4169   30.8964   39.7851 H   0  0  0  0  0  0  0  0  0  0  0  0
   49.3552   32.2241   35.4401 H   0  0  0  0  0  0  0  0  0  0  0  0
   47.8237   34.2001   35.5991 H   0  0  0  0  0  0  0  0  0  0  0  0
   47.2072   35.0204   37.8806 H   0  0  0  0  0  0  0  0  0  0  0  0
   47.4047   34.7737   40.2604 H   0  0  0  0  0  0  0  0  0  0  0  0
   44.8785   34.4611   44.7415 H   0  0  0  0  0  0  0  0  0  0  0  0
   48.1757   31.6420   44.6818 H   0  0  0  0  0  0  0  0  0  0  0  0
   45.7551   33.3472   48.8826 H   0  0  0  0  0  0  0  0  0  0  0  0
   47.6563   30.8698   48.7790 H   0  0  0  0  0  0  0  0  0  0  0  0
   47.3373   31.2883   50.2555 H   0  0  0  0  0  0  0  0  0  0  0  0
   44.5312   30.4604   49.4108 H   0  0  0  0  0  0  0  0  0  0  0  0
   43.4878   30.2200   46.6078 H   0  0  0  0  0  0  0  0  0  0  0  0
   44.3308   28.1569   45.1246 H   0  0  0  0  0  0  0  0  0  0  0  0
   46.5804   27.4568   46.2454 H   0  0  0  0  0  0  0  0  0  0  0  0
  1 15  1  0
  2  1  1  0
  3  2  1  0
  3  1  1  0
  4  3  1  0
  5  4  2  0
  6  5  1  0
  7 12  1  0
  7  6  2  0
  8  7  1  0
  9 10  1  0
  9  8  2  0
 10 11  2  0
 11 12  1  0
 12 13  2  0
 13  4  1  0
 14 19  2  0
 15 16  2  0
 15 14  1  0
 16 17  1  0
 17 18  2  0
 18 20  1  0
 19 18  1  0
 20 22  1  0
 20 21  1  0
 22 21  1  0
 23 22  1  0
 24 23  1  0
 25 26  1  0
 25 24  2  0
 26 27  1  0
 27 23  2  0
  1 28  1  6
  2 29  1  0
  2 30  1  0
  3 31  1  1
  5 32  1  0
  6 33  1  0
  9 34  1  0
 10 35  1  0
 11 36  1  0
 13 37  1  0
 14 38  1  0
 16 39  1  0
 20 40  1  1
 21 41  1  0
 21 42  1  0
 22 43  1  1
 24 44  1  0
 25 45  1  0
 26 46  1  0
M  ISO  8  28  13  29  13  30  13  31  13  32  14  33  14  34  14  35  14
M  ISO  8  36  14  37  14  38  14  39  14  40  13  41  13  42  13  43  13
M  ISO  3  44  14  45  14  46   9
M  END
>  <minimizedAffinity>  (1) 
-5.86780024

>  <minimizedRMSD>  (1) 
0.727281094

$$$$
