
     RDKit          3D

 30 33  0  0  0  0  0  0  0  0999 V2000
   47.1100   31.0770   44.4900 C   0  0  0  0  0  0  0  0  0  0  0  0
   46.5070   32.2950   44.2030 C   0  0  0  0  0  0  0  0  0  0  0  0
   45.9770   33.1020   45.1910 C   0  0  0  0  0  0  0  0  0  0  0  0
   46.0320   32.7090   46.5240 C   0  0  0  0  0  0  0  0  0  0  0  0
   45.6160   33.2520   47.7100 N   0  0  0  0  0  0  0  0  0  0  0  0
   45.9630   32.3720   48.7040 C   0  0  0  0  0  0  0  0  0  0  0  0
   46.5830   31.3110   48.1060 N   0  0  0  0  0  0  0  0  0  0  0  0
   46.6390   31.4940   46.7740 C   0  0  0  0  0  0  0  0  0  0  0  0
   47.1730   30.6730   45.8210 C   0  0  0  0  0  0  0  0  0  0  0  0
   45.2230   32.9730   40.8340 C   0  0  0  0  0  0  0  0  0  0  0  0
   46.3150   33.6190   40.2200 C   0  0  0  0  0  0  0  0  0  0  0  0
   47.4810   33.8140   40.9710 C   0  0  0  0  0  0  0  0  0  0  0  0
   47.4770   33.3610   42.2620 N   0  0  0  0  0  0  0  0  0  0  0  0
   46.4220   32.7480   42.8240 C   0  0  0  0  0  0  0  0  0  0  0  0
   45.2870   32.5470   42.1210 N   0  0  0  0  0  0  0  0  0  0  0  0
   45.3280   34.3920   44.9650 C   0  0  0  0  0  0  0  0  0  0  0  0
   45.6950   35.0750   43.7980 C   0  0  0  0  0  0  0  0  0  0  0  0
   45.0040   36.2770   43.7170 C   0  0  0  0  0  0  0  0  0  0  0  0
   44.2480   36.2850   44.8300 N   0  0  0  0  0  0  0  0  0  0  0  0
   44.4440   35.1940   45.5380 N   0  0  0  0  0  0  0  0  0  0  0  0
   47.5261   30.4492   43.6883 H   0  0  0  0  0  0  0  0  0  0  0  0
   45.1326   34.1532   47.8332 H   0  0  0  0  0  0  0  0  0  0  0  0
   45.7769   32.4971   49.7809 H   0  0  0  0  0  0  0  0  0  0  0  0
   47.6409   29.7169   46.0984 H   0  0  0  0  0  0  0  0  0  0  0  0
   44.2999   32.8108   40.2582 H   0  0  0  0  0  0  0  0  0  0  0  0
   46.2529   33.9616   39.1766 H   0  0  0  0  0  0  0  0  0  0  0  0
   48.3632   34.3107   40.5408 H   0  0  0  0  0  0  0  0  0  0  0  0
   46.4222   34.7130   43.0563 H   0  0  0  0  0  0  0  0  0  0  0  0
   45.0613   37.0421   42.9288 H   0  0  0  0  0  0  0  0  0  0  0  0
   43.6025   37.0436   45.0923 H   0  0  0  0  0  0  0  0  0  0  0  0
  1  9  2  0
  2  1  1  0
  2  3  2  0
  3  4  1  0
  4  8  2  0
  4  5  1  0
  5  6  1  0
  7  6  2  0
  8  7  1  0
  9  8  1  0
 10 15  2  0
 11 10  1  0
 11 12  2  0
 12 13  1  0
 13 14  2  0
 14  2  1  0
 15 14  1  0
 16  3  1  0
 16 20  2  0
 17 16  1  0
 18 17  2  0
 18 19  1  0
 19 20  1  0
  1 21  1  0
  5 22  1  0
  6 23  1  0
  9 24  1  0
 10 25  1  0
 11 26  1  0
 12 27  1  0
 17 28  1  0
 18 29  1  0
 19 30  1  0
M  ISO  8  21  14  22   9  23  14  24  14  25  14  26  14  27  14  28  14
M  ISO  2  29  14  30   9
M  END
>  <minimizedAffinity>  (1) 
-5.31179762

>  <minimizedRMSD>  (1) 
1.60083854

$$$$
