
     RDKit          3D

 20 21  0  0  0  0  0  0  0  0999 V2000
   45.2920   35.0700   43.1390 C   0  0  0  0  0  0  0  0  0  0  0  0
   46.5890   34.8740   42.6200 C   0  0  0  0  0  0  0  0  0  0  0  0
   47.4560   34.0700   43.3650 C   0  0  0  0  0  0  0  0  0  0  0  0
   47.0170   33.5320   44.5220 N   0  0  0  0  0  0  0  0  0  0  0  0
   45.7650   33.7440   44.9860 C   0  0  0  0  0  0  0  0  0  0  0  0
   44.9070   34.5180   44.2850 N   0  0  0  0  0  0  0  0  0  0  0  0
   48.8160   33.8120   42.9060 C   0  0  0  0  0  0  0  0  0  0  0  0
   49.2950   32.5850   42.4970 C   0  0  0  0  0  0  0  0  0  0  0  0
   50.6290   32.8380   42.1580 C   0  0  0  0  0  0  0  0  0  0  0  0
   50.9020   34.1420   42.3600 N   0  0  0  0  0  0  0  0  0  0  0  0
   49.7980   34.7190   42.8130 N   0  0  0  0  0  0  0  0  0  0  0  0
   44.3630   35.9280   42.3470 C   0  0  0  0  0  0  0  0  0  0  0  0
   46.9038   35.3334   41.6714 H   0  0  0  0  0  0  0  0  0  0  0  0
   45.4447   33.2867   45.9338 H   0  0  0  0  0  0  0  0  0  0  0  0
   48.7536   31.6287   42.4485 H   0  0  0  0  0  0  0  0  0  0  0  0
   51.3432   32.0892   41.7849 H   0  0  0  0  0  0  0  0  0  0  0  0
   51.8058   34.6067   42.1925 H   0  0  0  0  0  0  0  0  0  0  0  0
   43.7303   36.5123   43.0313 H   0  0  0  0  0  0  0  0  0  0  0  0
   44.9463   36.6119   41.7129 H   0  0  0  0  0  0  0  0  0  0  0  0
   43.7275   35.2923   41.7129 H   0  0  0  0  0  0  0  0  0  0  0  0
  1  6  2  0
  2  1  1  0
  2  3  2  0
  3  4  1  0
  4  5  2  0
  6  5  1  0
  7  3  1  0
  8  7  1  0
  9 10  1  0
  9  8  2  0
 10 11  1  0
 11  7  2  0
 12  1  1  0
  2 13  1  0
  5 14  1  0
  8 15  1  0
  9 16  1  0
 10 17  1  0
 12 18  1  0
 12 19  1  0
 12 20  1  0
M  ISO  8  13  14  14  14  15  14  16  14  17   9  18   8  19   8  20   8
M  END
>  <minimizedAffinity>  (1) 
-4.19210911

>  <minimizedRMSD>  (1) 
1.849635

$$$$
