
     RDKit          3D

 33 35  0  0  1  0  0  0  0  0999 V2000
   46.4380   33.0280   46.3830 C   0  0  2  0  0  0  0  0  0  0  0  0
   46.9850   31.8040   45.7280 C   0  0  0  0  0  0  0  0  0  0  0  0
   46.1180   30.6110   45.7580 C   0  0  0  0  0  0  0  0  0  0  0  0
   45.8000   30.3720   47.2290 C   0  0  0  0  0  0  0  0  0  0  0  0
   44.9890   31.4490   47.7950 C   0  0  0  0  0  0  0  0  0  0  0  0
   45.3470   32.8320   47.3280 C   0  0  0  0  0  0  0  0  0  0  0  0
   44.5930   35.5720   44.4210 C   0  0  0  0  0  0  0  0  0  0  0  0
   45.3460   35.6260   43.2200 C   0  0  0  0  0  0  0  0  0  0  0  0
   46.4750   34.7760   43.1180 C   0  0  0  0  0  0  0  0  0  0  0  0
   46.7730   33.9630   44.1640 N   0  0  0  0  0  0  0  0  0  0  0  0
   46.0370   33.9410   45.2820 C   0  0  0  0  0  0  0  0  0  0  0  0
   44.9350   34.7450   45.4290 N   0  0  0  0  0  0  0  0  0  0  0  0
   47.2620   34.8170   41.8910 C   0  0  0  0  0  0  0  0  0  0  0  0
   46.9920   34.1590   40.7350 C   0  0  0  0  0  0  0  0  0  0  0  0
   48.0230   34.5210   39.8800 C   0  0  0  0  0  0  0  0  0  0  0  0
   48.8600   35.3670   40.5400 N   0  0  0  0  0  0  0  0  0  0  0  0
   48.3700   35.5290   41.7630 N   0  0  0  0  0  0  0  0  0  0  0  0
   44.6320   33.9740   47.7970 N   0  0  0  0  0  0  0  0  0  0  0  0
   47.2287   33.4404   47.0271 H   0  0  0  0  0  0  0  0  0  0  0  0
   47.9288   31.5466   46.2310 H   0  0  0  0  0  0  0  0  0  0  0  0
   47.0968   32.0621   44.6646 H   0  0  0  0  0  0  0  0  0  0  0  0
   45.1938   30.7937   45.1902 H   0  0  0  0  0  0  0  0  0  0  0  0
   46.6094   29.7393   45.3011 H   0  0  0  0  0  0  0  0  0  0  0  0
   45.2490   29.4247   47.3241 H   0  0  0  0  0  0  0  0  0  0  0  0
   46.7507   30.3358   47.7811 H   0  0  0  0  0  0  0  0  0  0  0  0
   44.1755   31.2606   48.5110 H   0  0  0  0  0  0  0  0  0  0  0  0
   43.7106   36.2193   44.5322 H   0  0  0  0  0  0  0  0  0  0  0  0
   45.0642   36.3020   42.3992 H   0  0  0  0  0  0  0  0  0  0  0  0
   46.1456   33.4890   40.5234 H   0  0  0  0  0  0  0  0  0  0  0  0
   48.1438   34.1806   38.8410 H   0  0  0  0  0  0  0  0  0  0  0  0
   49.7141   35.8006   40.1613 H   0  0  0  0  0  0  0  0  0  0  0  0
   43.8571   33.8577   48.4655 H   0  0  0  0  0  0  0  0  0  0  0  0
   44.8907   34.9148   47.4671 H   0  0  0  0  0  0  0  0  0  0  0  0
  1  6  1  0
  2  3  1  0
  2  1  1  0
  3  4  1  0
  4  5  1  0
  6  5  2  0
  6 18  1  0
  7 12  2  0
  8  7  1  0
  9  8  2  0
  9 10  1  0
 10 11  2  0
 11 12  1  0
 11  1  1  0
 13  9  1  0
 14 13  1  0
 15 16  1  0
 15 14  2  0
 16 17  1  0
 17 13  2  0
  1 19  1  1
  2 20  1  0
  2 21  1  0
  3 22  1  0
  3 23  1  0
  4 24  1  0
  4 25  1  0
  5 26  1  0
  7 27  1  0
  8 28  1  0
 14 29  1  0
 15 30  1  0
 16 31  1  0
 18 32  1  0
 18 33  1  0
M  ISO  8  19  13  20  13  21  13  22  13  23  13  24  13  25  13  26  13
M  ISO  5  27  14  28  14  29  14  30  14  31   9
M  END
>  <minimizedAffinity>  (1) 
-6.63658285

>  <minimizedRMSD>  (1) 
1.02083337

$$$$
