
     RDKit          3D

 24 25  0  0  0  0  0  0  0  0999 V2000
   44.6670   35.4400   45.0930 C   0  0  0  0  0  0  0  0  0  0  0  0
   45.5190   34.9950   44.0760 C   0  0  0  0  0  0  0  0  0  0  0  0
   46.2570   33.8430   44.3160 C   0  0  0  0  0  0  0  0  0  0  0  0
   46.1340   33.2000   45.4980 N   0  0  0  0  0  0  0  0  0  0  0  0
   45.2960   33.6700   46.4540 C   0  0  0  0  0  0  0  0  0  0  0  0
   44.5680   34.7680   46.2710 N   0  0  0  0  0  0  0  0  0  0  0  0
   45.5540   35.8090   42.8170 C   0  0  0  0  0  0  0  0  0  0  0  0
   45.2070   37.0850   43.1820 F   0  0  0  0  0  0  0  0  0  0  0  0
   44.5910   35.2790   41.9750 F   0  0  0  0  0  0  0  0  0  0  0  0
   46.8130   35.7090   42.2850 F   0  0  0  0  0  0  0  0  0  0  0  0
   45.1480   33.0330   47.6750 O   0  0  0  0  0  0  0  0  0  0  0  0
   46.2000   32.3830   48.3400 C   0  0  0  0  0  0  0  0  0  0  0  0
   46.1380   30.9040   48.1450 C   0  0  0  0  0  0  0  0  0  0  0  0
   44.9750   30.1900   47.9660 C   0  0  0  0  0  0  0  0  0  0  0  0
   45.2140   28.8470   47.8100 C   0  0  0  0  0  0  0  0  0  0  0  0
   46.5650   28.7700   47.9020 N   0  0  0  0  0  0  0  0  0  0  0  0
   47.0940   29.9670   48.0960 N   0  0  0  0  0  0  0  0  0  0  0  0
   44.0672   36.3488   44.9369 H   0  0  0  0  0  0  0  0  0  0  0  0
   46.9398   33.4551   43.5457 H   0  0  0  0  0  0  0  0  0  0  0  0
   47.1569   32.7559   47.9460 H   0  0  0  0  0  0  0  0  0  0  0  0
   46.1115   32.5938   49.4160 H   0  0  0  0  0  0  0  0  0  0  0  0
   43.9723   30.6420   47.9498 H   0  0  0  0  0  0  0  0  0  0  0  0
   44.4895   28.0349   47.6501 H   0  0  0  0  0  0  0  0  0  0  0  0
   47.1065   27.8967   47.8304 H   0  0  0  0  0  0  0  0  0  0  0  0
  1  6  2  0
  2  3  2  0
  2  1  1  0
  3  4  1  0
  4  5  2  0
  5 11  1  0
  6  5  1  0
  7  8  1  0
  7  2  1  0
  9  7  1  0
 10  7  1  0
 11 12  1  0
 13 12  1  0
 14 13  1  0
 15 16  1  0
 15 14  2  0
 16 17  1  0
 17 13  2  0
  1 18  1  0
  3 19  1  0
 12 20  1  0
 12 21  1  0
 14 22  1  0
 15 23  1  0
 16 24  1  0
M  ISO  7  18  14  19  14  20   8  21   8  22  14  23  14  24   9
M  END
>  <minimizedAffinity>  (1) 
-4.91906071

>  <minimizedRMSD>  (1) 
0.919135332

$$$$
