
     RDKit          3D

 33 35  0  0  0  0  0  0  0  0999 V2000
   45.7210   34.2440   40.9660 C   0  0  0  0  0  0  0  0  0  0  0  0
   46.5820   33.9550   39.9100 C   0  0  0  0  0  0  0  0  0  0  0  0
   47.9400   34.2500   39.8640 C   0  0  0  0  0  0  0  0  0  0  0  0
   48.4320   34.8860   40.9900 C   0  0  0  0  0  0  0  0  0  0  0  0
   47.6040   35.1800   42.0430 C   0  0  0  0  0  0  0  0  0  0  0  0
   46.2530   34.8780   42.0740 C   0  0  0  0  0  0  0  0  0  0  0  0
   45.5770   35.2890   43.2930 C   0  0  0  0  0  0  0  0  0  0  0  0
   45.2000   34.6580   44.4480 C   0  0  0  0  0  0  0  0  0  0  0  0
   44.6010   35.4760   45.3440 C   0  0  0  0  0  0  0  0  0  0  0  0
   44.6080   36.6600   44.7190 N   0  0  0  0  0  0  0  0  0  0  0  0
   45.1740   36.5260   43.5450 N   0  0  0  0  0  0  0  0  0  0  0  0
   44.2980   33.9260   40.9520 C   0  0  0  0  0  0  0  0  0  0  0  0
   43.4590   35.1150   40.4390 C   0  0  0  0  0  0  0  0  0  0  0  0
   39.6910   35.0770   40.1350 C   0  0  0  0  0  0  0  0  0  0  0  0
   41.0390   35.5090   39.9860 C   0  0  0  0  0  0  0  0  0  0  0  0
   42.0250   34.7230   40.5600 C   0  0  0  0  0  0  0  0  0  0  0  0
   41.6170   33.5910   41.2260 N   0  0  0  0  0  0  0  0  0  0  0  0
   40.3540   33.2140   41.3480 C   0  0  0  0  0  0  0  0  0  0  0  0
   39.3810   33.9510   40.8050 N   0  0  0  0  0  0  0  0  0  0  0  0
   46.1492   33.4484   39.0347 H   0  0  0  0  0  0  0  0  0  0  0  0
   48.5732   33.9977   39.0006 H   0  0  0  0  0  0  0  0  0  0  0  0
   49.4966   35.1582   41.0410 H   0  0  0  0  0  0  0  0  0  0  0  0
   48.0399   35.6868   42.9166 H   0  0  0  0  0  0  0  0  0  0  0  0
   45.3683   33.5864   44.6305 H   0  0  0  0  0  0  0  0  0  0  0  0
   44.2057   35.2291   46.3404 H   0  0  0  0  0  0  0  0  0  0  0  0
   44.2282   37.5379   45.1010 H   0  0  0  0  0  0  0  0  0  0  0  0
   44.1314   33.0604   40.2939 H   0  0  0  0  0  0  0  0  0  0  0  0
   43.9842   33.7004   41.9819 H   0  0  0  0  0  0  0  0  0  0  0  0
   43.7055   35.3253   39.3878 H   0  0  0  0  0  0  0  0  0  0  0  0
   43.6678   36.0232   41.0235 H   0  0  0  0  0  0  0  0  0  0  0  0
   38.8829   35.6776   39.6920 H   0  0  0  0  0  0  0  0  0  0  0  0
   41.2878   36.4294   39.4375 H   0  0  0  0  0  0  0  0  0  0  0  0
   40.1055   32.2936   41.8967 H   0  0  0  0  0  0  0  0  0  0  0  0
  1  6  1  0
  2  1  2  0
  3  2  1  0
  3  4  2  0
  4  5  1  0
  5  6  2  0
  6  7  1  0
  7 11  2  0
  7  8  1  0
  8  9  2  0
 10  9  1  0
 11 10  1  0
 12  1  1  0
 13 16  1  0
 13 12  1  0
 14 19  2  0
 15 14  1  0
 15 16  2  0
 16 17  1  0
 17 18  2  0
 19 18  1  0
  2 20  1  0
  3 21  1  0
  4 22  1  0
  5 23  1  0
  8 24  1  0
  9 25  1  0
 10 26  1  0
 12 27  1  0
 12 28  1  0
 13 29  1  0
 13 30  1  0
 14 31  1  0
 15 32  1  0
 18 33  1  0
M  ISO  8  20  14  21  14  22  14  23  14  24  14  25  14  26   9  27   8
M  ISO  6  28   8  29   8  30   8  31  14  32  14  33  14
M  END
>  <minimizedAffinity>  (1) 
-6.05630207

>  <minimizedRMSD>  (1) 
1.10510075

$$$$
