
     RDKit          3D

 24 26  0  0  0  0  0  0  0  0999 V2000
   46.1720   32.6390   45.0500 C   0  0  0  0  0  0  0  0  0  0  0  0
   47.3440   31.9480   44.7310 C   0  0  0  0  0  0  0  0  0  0  0  0
   47.3600   30.7790   45.4220 C   0  0  0  0  0  0  0  0  0  0  0  0
   46.2290   30.7500   46.1440 N   0  0  0  0  0  0  0  0  0  0  0  0
   45.5130   31.8710   45.9210 N   0  0  0  0  0  0  0  0  0  0  0  0
   44.5720   35.9310   44.7450 C   0  0  0  0  0  0  0  0  0  0  0  0
   45.0550   36.3820   43.5070 C   0  0  0  0  0  0  0  0  0  0  0  0
   45.9290   35.5520   42.7840 C   0  0  0  0  0  0  0  0  0  0  0  0
   46.2610   34.3450   43.3280 N   0  0  0  0  0  0  0  0  0  0  0  0
   45.7840   33.9370   44.5150 C   0  0  0  0  0  0  0  0  0  0  0  0
   44.9460   34.7280   45.2150 N   0  0  0  0  0  0  0  0  0  0  0  0
   45.8130   29.7110   47.0250 C   0  0  0  0  0  0  0  0  0  0  0  0
   45.2990   29.8730   48.2880 C   0  0  0  0  0  0  0  0  0  0  0  0
   45.0200   28.6560   48.8180 N   0  0  0  0  0  0  0  0  0  0  0  0
   45.3570   27.7410   47.8950 C   0  0  0  0  0  0  0  0  0  0  0  0
   45.8390   28.3950   46.8080 N   0  0  0  0  0  0  0  0  0  0  0  0
   48.1236   32.2934   44.0361 H   0  0  0  0  0  0  0  0  0  0  0  0
   48.1446   30.0085   45.3952 H   0  0  0  0  0  0  0  0  0  0  0  0
   43.8873   36.5617   45.3310 H   0  0  0  0  0  0  0  0  0  0  0  0
   44.7561   37.3638   43.1110 H   0  0  0  0  0  0  0  0  0  0  0  0
   46.3329   35.8654   41.8100 H   0  0  0  0  0  0  0  0  0  0  0  0
   45.1387   30.8381   48.7909 H   0  0  0  0  0  0  0  0  0  0  0  0
   44.6249   28.4694   49.7507 H   0  0  0  0  0  0  0  0  0  0  0  0
   45.2593   26.6505   48.0014 H   0  0  0  0  0  0  0  0  0  0  0  0
  1  5  2  0
  2  1  1  0
  2  3  2  0
  3  4  1  0
  4 12  1  0
  5  4  1  0
  6 11  2  0
  7  6  1  0
  8  9  1  0
  8  7  2  0
  9 10  2  0
 10  1  1  0
 10 11  1  0
 12 13  2  0
 13 14  1  0
 15 14  1  0
 16 12  1  0
 16 15  2  0
  2 17  1  0
  3 18  1  0
  6 19  1  0
  7 20  1  0
  8 21  1  0
 13 22  1  0
 14 23  1  0
 15 24  1  0
M  ISO  8  17  14  18  14  19  14  20  14  21  14  22  14  23   9  24  14
M  END
>  <minimizedAffinity>  (1) 
-4.10915756

>  <minimizedRMSD>  (1) 
2.91523314

$$$$
