
     RDKit          3D

 43 46  0  0  0  0  0  0  0  0999 V2000
   44.9740   35.4650   43.3800 C   0  0  0  0  0  0  0  0  0  0  0  0
   45.4290   34.1560   43.4050 C   0  0  0  0  0  0  0  0  0  0  0  0
   45.4710   33.4660   44.5920 C   0  0  0  0  0  0  0  0  0  0  0  0
   45.0420   34.1370   45.7210 N   0  0  0  0  0  0  0  0  0  0  0  0
   44.6060   35.3930   45.6910 C   0  0  0  0  0  0  0  0  0  0  0  0
   44.5780   36.0490   44.5100 N   0  0  0  0  0  0  0  0  0  0  0  0
   45.9060   32.1340   44.7830 C   0  0  0  0  0  0  0  0  0  0  0  0
   45.6460   31.0910   43.8910 C   0  0  0  0  0  0  0  0  0  0  0  0
   46.0080   29.7860   44.1050 C   0  0  0  0  0  0  0  0  0  0  0  0
   46.6710   29.4440   45.2610 C   0  0  0  0  0  0  0  0  0  0  0  0
   46.9460   30.4900   46.1830 C   0  0  0  0  0  0  0  0  0  0  0  0
   47.6040   30.1640   47.3400 C   0  0  0  0  0  0  0  0  0  0  0  0
   47.9050   31.1320   48.2780 C   0  0  0  0  0  0  0  0  0  0  0  0
   47.5310   32.4630   48.0330 C   0  0  0  0  0  0  0  0  0  0  0  0
   46.8570   32.7520   46.8320 C   0  0  0  0  0  0  0  0  0  0  0  0
   46.5700   31.7690   45.9260 C   0  0  0  0  0  0  0  0  0  0  0  0
   45.8180   33.6090   42.2170 O   0  0  0  0  0  0  0  0  0  0  0  0
   48.2000   32.6600   41.6770 O   0  0  0  0  0  0  0  0  0  0  0  0
   47.3310   33.8500   41.4950 P   0  0  1  0  0  0  0  0  0  0  0  0
   47.1770   34.0990   39.8270 O   0  0  0  0  0  0  0  0  0  0  0  0
   48.0650   33.6110   38.8800 C   0  0  0  0  0  0  0  0  0  0  0  0
   48.5230   34.5250   37.9650 C   0  0  0  0  0  0  0  0  0  0  0  0
   49.3690   33.8870   37.1230 N   0  0  0  0  0  0  0  0  0  0  0  0
   49.4080   32.6120   37.5390 C   0  0  0  0  0  0  0  0  0  0  0  0
   48.6110   32.4090   38.6250 N   0  0  0  0  0  0  0  0  0  0  0  0
   48.0320   35.2110   42.1780 O   0  0  0  0  0  0  0  0  0  0  0  0
   49.3520   35.6180   42.0560 C   0  0  0  0  0  0  0  0  0  0  0  0
   49.3480   36.4300   41.1180 O   0  0  0  0  0  0  0  0  0  0  0  0
   50.1830   34.9580   43.0380 N   0  0  0  0  0  0  0  0  0  0  0  0
   44.9400   36.0196   42.4306 H   0  0  0  0  0  0  0  0  0  0  0  0
   44.2731   35.8905   46.6139 H   0  0  0  0  0  0  0  0  0  0  0  0
   45.1170   31.3320   42.9572 H   0  0  0  0  0  0  0  0  0  0  0  0
   45.7695   29.0163   43.3562 H   0  0  0  0  0  0  0  0  0  0  0  0
   46.9750   28.4063   45.4628 H   0  0  0  0  0  0  0  0  0  0  0  0
   47.8958   29.1194   47.5237 H   0  0  0  0  0  0  0  0  0  0  0  0
   48.4314   30.8635   49.2058 H   0  0  0  0  0  0  0  0  0  0  0  0
   47.7584   33.2573   48.7592 H   0  0  0  0  0  0  0  0  0  0  0  0
   46.5554   33.7880   46.6181 H   0  0  0  0  0  0  0  0  0  0  0  0
   48.2504   35.5899   37.9231 H   0  0  0  0  0  0  0  0  0  0  0  0
   49.8782   34.2961   36.3266 H   0  0  0  0  0  0  0  0  0  0  0  0
   50.0107   31.8257   37.0610 H   0  0  0  0  0  0  0  0  0  0  0  0
   51.1930   35.1566   43.0750 H   0  0  0  0  0  0  0  0  0  0  0  0
   49.7650   34.2892   43.7005 H   0  0  0  0  0  0  0  0  0  0  0  0
  1  2  2  0
  1  6  1  0
  2  3  1  0
  3  7  1  0
  3  4  2  0
  5  4  1  0
  6  5  2  0
  7 16  2  0
  8  9  2  0
  8  7  1  0
  9 10  1  0
 10 11  2  0
 11 12  1  0
 12 13  2  0
 14 13  1  0
 15 14  2  0
 16 11  1  0
 16 15  1  0
 17  2  1  0
 19 18  2  0
 19 26  1  0
 19 17  1  0
 20 19  1  0
 21 20  1  0
 22 21  2  0
 23 24  1  0
 23 22  1  0
 24 25  2  0
 25 21  1  0
 27 26  1  0
 27 29  1  0
 28 27  2  0
  1 30  1  0
  5 31  1  0
  8 32  1  0
  9 33  1  0
 10 34  1  0
 12 35  1  0
 13 36  1  0
 14 37  1  0
 15 38  1  0
 22 39  1  0
 23 40  1  0
 24 41  1  0
 29 42  1  0
 29 43  1  0
M  ISO  8  30  14  31  14  32  14  33  14  34  14  35  14  36  14  37  14
M  ISO  4  38  14  39  14  40   9  41  14
M  END
>  <minimizedAffinity>  (1) 
-6.63191223

>  <minimizedRMSD>  (1) 
0.795655847

$$$$
