
     RDKit          3D

 31 33  0  0  0  0  0  0  0  0999 V2000
   46.5300   34.7090   42.0020 C   0  0  0  0  0  0  0  0  0  0  0  0
   47.8350   35.1710   41.9020 C   0  0  0  0  0  0  0  0  0  0  0  0
   48.5290   34.9570   40.7200 C   0  0  0  0  0  0  0  0  0  0  0  0
   47.9160   34.2990   39.6870 C   0  0  0  0  0  0  0  0  0  0  0  0
   46.6360   33.8320   39.7500 C   0  0  0  0  0  0  0  0  0  0  0  0
   45.9630   34.0640   40.9560 C   0  0  0  0  0  0  0  0  0  0  0  0
   44.5000   36.2370   44.7990 C   0  0  0  0  0  0  0  0  0  0  0  0
   45.1150   36.0990   43.5390 C   0  0  0  0  0  0  0  0  0  0  0  0
   45.8500   34.9640   43.2700 C   0  0  0  0  0  0  0  0  0  0  0  0
   45.9410   34.0290   44.2550 N   0  0  0  0  0  0  0  0  0  0  0  0
   45.3510   34.1630   45.4620 C   0  0  0  0  0  0  0  0  0  0  0  0
   44.6250   35.2800   45.7330 N   0  0  0  0  0  0  0  0  0  0  0  0
   43.3500   34.0990   40.7570 C   0  0  0  0  0  0  0  0  0  0  0  0
   43.1000   35.0940   40.0750 O   0  0  0  0  0  0  0  0  0  0  0  0
   44.6280   33.6320   41.1590 N   0  0  0  0  0  0  0  0  0  0  0  0
   42.2220   33.2890   41.2200 C   0  0  0  0  0  0  0  0  0  0  0  0
   40.9740   33.7990   41.4530 C   0  0  0  0  0  0  0  0  0  0  0  0
   40.0970   32.8730   41.8710 N   0  0  0  0  0  0  0  0  0  0  0  0
   40.8240   31.7270   41.9030 C   0  0  0  0  0  0  0  0  0  0  0  0
   42.0960   31.9820   41.5120 N   0  0  0  0  0  0  0  0  0  0  0  0
   48.3097   35.6966   42.7436 H   0  0  0  0  0  0  0  0  0  0  0  0
   49.5642   35.3132   40.6132 H   0  0  0  0  0  0  0  0  0  0  0  0
   48.4849   34.1390   38.7593 H   0  0  0  0  0  0  0  0  0  0  0  0
   46.1626   33.3067   38.9074 H   0  0  0  0  0  0  0  0  0  0  0  0
   43.9106   37.1390   45.0204 H   0  0  0  0  0  0  0  0  0  0  0  0
   45.0100   36.8873   42.7790 H   0  0  0  0  0  0  0  0  0  0  0  0
   45.4570   33.3738   46.2209 H   0  0  0  0  0  0  0  0  0  0  0  0
   44.5730   32.7787   41.7332 H   0  0  0  0  0  0  0  0  0  0  0  0
   40.7159   34.8590   41.3122 H   0  0  0  0  0  0  0  0  0  0  0  0
   39.1038   33.0018   42.1115 H   0  0  0  0  0  0  0  0  0  0  0  0
   40.4388   30.7408   42.2012 H   0  0  0  0  0  0  0  0  0  0  0  0
  1  9  1  0
  2  1  2  0
  3  2  1  0
  4  5  1  0
  4  3  2  0
  5  6  2  0
  6 15  1  0
  6  1  1  0
  7 12  2  0
  8  7  1  0
  9  8  2  0
  9 10  1  0
 10 11  2  0
 11 12  1  0
 13 15  1  0
 13 16  1  0
 14 13  2  0
 16 17  2  0
 16 20  1  0
 17 18  1  0
 18 19  1  0
 20 19  2  0
  2 21  1  0
  3 22  1  0
  4 23  1  0
  5 24  1  0
  7 25  1  0
  8 26  1  0
 11 27  1  0
 15 28  1  0
 17 29  1  0
 18 30  1  0
 19 31  1  0
M  ISO  8  21  14  22  14  23  14  24  14  25  14  26  14  27  14  29  14
M  ISO  2  30   9  31  14
M  END
>  <minimizedAffinity>  (1) 
-6.05009031

>  <minimizedRMSD>  (1) 
0.462735951

$$$$
