
     RDKit          3D

 19 20  0  0  0  0  0  0  0  0999 V2000
   46.9280   34.8960   42.0500 C   0  0  0  0  0  0  0  0  0  0  0  0
   48.0570   35.4560   41.9080 O   0  0  0  0  0  0  0  0  0  0  0  0
   44.5490   35.9270   44.6740 C   0  0  0  0  0  0  0  0  0  0  0  0
   45.2880   35.9220   43.4690 C   0  0  0  0  0  0  0  0  0  0  0  0
   46.1850   34.8790   43.2890 C   0  0  0  0  0  0  0  0  0  0  0  0
   46.2960   33.9420   44.2620 N   0  0  0  0  0  0  0  0  0  0  0  0
   45.5750   33.9780   45.3990 C   0  0  0  0  0  0  0  0  0  0  0  0
   44.6890   34.9860   45.6060 N   0  0  0  0  0  0  0  0  0  0  0  0
   46.3650   34.2360   40.8710 C   0  0  0  0  0  0  0  0  0  0  0  0
   47.1160   33.9050   39.7370 C   0  0  0  0  0  0  0  0  0  0  0  0
   46.2000   33.3190   38.9110 N   0  0  0  0  0  0  0  0  0  0  0  0
   44.9720   33.2730   39.4530 C   0  0  0  0  0  0  0  0  0  0  0  0
   45.0870   33.8480   40.6790 N   0  0  0  0  0  0  0  0  0  0  0  0
   43.8296   36.7406   44.8489 H   0  0  0  0  0  0  0  0  0  0  0  0
   45.1581   36.7077   42.7101 H   0  0  0  0  0  0  0  0  0  0  0  0
   45.7036   33.1926   46.1583 H   0  0  0  0  0  0  0  0  0  0  0  0
   48.1873   34.0760   39.5549 H   0  0  0  0  0  0  0  0  0  0  0  0
   46.4260   32.9526   37.9753 H   0  0  0  0  0  0  0  0  0  0  0  0
   44.0612   32.8560   38.9984 H   0  0  0  0  0  0  0  0  0  0  0  0
  1  5  1  0
  2  1  2  0
  3  8  2  0
  4  3  1  0
  5  4  2  0
  5  6  1  0
  6  7  2  0
  7  8  1  0
  9  1  1  0
 10  9  2  0
 11 12  1  0
 11 10  1  0
 12 13  2  0
 13  9  1  0
  3 14  1  0
  4 15  1  0
  7 16  1  0
 10 17  1  0
 11 18  1  0
 12 19  1  0
M  ISO  6  14  14  15  14  16  14  17  14  18   9  19  14
M  END
>  <minimizedAffinity>  (1) 
-4.07134724

>  <minimizedRMSD>  (1) 
0.561405599

$$$$
