
     RDKit          3D

 36 38  0  0  0  0  0  0  0  0999 V2000
   47.2030   34.5120   40.9210 C   0  0  0  0  0  0  0  0  0  0  0  0
   48.5230   34.0020   41.3310 C   0  0  0  0  0  0  0  0  0  0  0  0
   48.9000   32.7800   40.7980 C   0  0  0  0  0  0  0  0  0  0  0  0
   50.1150   32.1940   41.1030 C   0  0  0  0  0  0  0  0  0  0  0  0
   50.9240   32.9020   41.9710 N   0  0  0  0  0  0  0  0  0  0  0  0
   50.5290   34.0870   42.4720 C   0  0  0  0  0  0  0  0  0  0  0  0
   49.3610   34.6120   42.1550 N   0  0  0  0  0  0  0  0  0  0  0  0
   47.7890   31.9010   39.6680 S   0  0  0  0  0  0  0  0  0  0  0  0
   48.1100   32.4370   37.9950 C   0  0  0  0  0  0  0  0  0  0  0  0
   47.7100   33.6210   37.4100 C   0  0  0  0  0  0  0  0  0  0  0  0
   48.1360   33.6830   36.1250 N   0  0  0  0  0  0  0  0  0  0  0  0
   48.7900   32.5220   35.9580 C   0  0  0  0  0  0  0  0  0  0  0  0
   48.8030   31.7370   37.0510 N   0  0  0  0  0  0  0  0  0  0  0  0
   46.3550   34.9520   42.0830 C   0  0  0  0  0  0  0  0  0  0  0  0
   44.9020   34.9340   41.8120 C   0  0  0  0  0  0  0  0  0  0  0  0
   43.9980   35.4820   42.7620 C   0  0  0  0  0  0  0  0  0  0  0  0
   42.3580   35.2220   41.9760 S   0  0  0  0  0  0  0  0  0  0  0  0
   43.1900   34.4020   40.4700 C   0  0  0  0  0  0  0  0  0  0  0  0
   44.2940   34.4560   40.7560 N   0  0  0  0  0  0  0  0  0  0  0  0
   42.4680   33.9130   39.3730 O   0  0  0  0  0  0  0  0  0  0  0  0
   40.5040   34.3080   37.6540 O   0  0  0  0  0  0  0  0  0  0  0  0
   41.5650   35.0290   38.4750 P   0  0  0  0  0  0  0  0  0  0  0  0
   40.8090   36.0850   39.5460 O   0  0  0  0  0  0  0  0  0  0  0  0
   42.6090   35.9250   37.4740 O   0  0  0  0  0  0  0  0  0  0  0  0
   47.3522   35.3715   40.2509 H   0  0  0  0  0  0  0  0  0  0  0  0
   46.6731   33.6879   40.4209 H   0  0  0  0  0  0  0  0  0  0  0  0
   50.4184   31.2246   40.6809 H   0  0  0  0  0  0  0  0  0  0  0  0
   51.1940   34.6292   43.1603 H   0  0  0  0  0  0  0  0  0  0  0  0
   47.1270   34.4047   37.9158 H   0  0  0  0  0  0  0  0  0  0  0  0
   47.9926   34.4392   35.4406 H   0  0  0  0  0  0  0  0  0  0  0  0
   49.2725   32.2377   35.0112 H   0  0  0  0  0  0  0  0  0  0  0  0
   46.5564   34.2809   42.9310 H   0  0  0  0  0  0  0  0  0  0  0  0
   46.6249   35.9972   42.2942 H   0  0  0  0  0  0  0  0  0  0  0  0
   44.2251   35.9484   43.7320 H   0  0  0  0  0  0  0  0  0  0  0  0
   41.0065   35.8092   40.4761 H   0  0  0  0  0  0  0  0  0  0  0  0
   43.2282   36.4564   38.0346 H   0  0  0  0  0  0  0  0  0  0  0  0
  1  2  1  0
  1 14  1  0
  2  7  2  0
  3  4  2  0
  3  2  1  0
  4  5  1  0
  5  6  2  0
  7  6  1  0
  8  3  1  0
  9  8  1  0
 10  9  2  0
 11 10  1  0
 12 11  1  0
 12 13  2  0
 13  9  1  0
 15 14  1  0
 15 16  2  0
 17 16  1  0
 18 19  2  0
 18 17  1  0
 19 15  1  0
 20 18  1  0
 21 22  2  0
 22 20  1  0
 22 23  1  0
 24 22  1  0
  1 25  1  0
  1 26  1  0
  4 27  1  0
  6 28  1  0
 10 29  1  0
 11 30  1  0
 12 31  1  0
 14 32  1  0
 14 33  1  0
 16 34  1  0
 23 35  1  0
 24 36  1  0
M  ISO  8  25   8  26   8  27  14  28  14  29  14  30   9  31  14  32   8
M  ISO  4  33   8  34  14  35   3  36   3
M  END
>  <minimizedAffinity>  (1) 
-5.11343193

>  <minimizedRMSD>  (1) 
0.186323196

$$$$
