
     RDKit          3D

 43 46  0  0  1  0  0  0  0  0999 V2000
   49.1530   31.7210   41.8320 C   0  0  0  0  0  0  0  0  0  0  0  0
   50.4330   32.2980   42.0030 C   0  0  0  0  0  0  0  0  0  0  0  0
   51.4130   32.1400   41.0240 C   0  0  0  0  0  0  0  0  0  0  0  0
   51.0430   31.4150   39.9450 N   0  0  0  0  0  0  0  0  0  0  0  0
   49.8270   30.8730   39.7920 C   0  0  0  0  0  0  0  0  0  0  0  0
   48.8990   31.0220   40.7150 N   0  0  0  0  0  0  0  0  0  0  0  0
   49.5000   30.1030   38.5590 C   0  0  2  0  0  0  0  0  0  0  0  0
   50.1280   30.3380   37.2640 C   0  0  0  0  0  0  0  0  0  0  0  0
   48.7390   30.7940   37.4280 C   0  0  2  0  0  0  0  0  0  0  0  0
   48.3670   32.1990   37.5820 C   0  0  0  0  0  0  0  0  0  0  0  0
   47.2750   32.8420   38.0670 C   0  0  0  0  0  0  0  0  0  0  0  0
   47.3430   34.1760   38.0110 N   0  0  0  0  0  0  0  0  0  0  0  0
   48.5490   34.3980   37.4580 C   0  0  0  0  0  0  0  0  0  0  0  0
   49.1590   33.2400   37.2020 N   0  0  0  0  0  0  0  0  0  0  0  0
   48.1620   31.9230   42.8910 C   0  0  0  0  0  0  0  0  0  0  0  0
   47.9840   33.1690   43.3360 C   0  0  0  0  0  0  0  0  0  0  0  0
   47.0090   33.4800   44.4040 C   0  0  0  0  0  0  0  0  0  0  0  0
   44.7670   36.1360   43.4260 C   0  0  1  0  0  0  0  0  0  0  0  0
   45.9440   35.2560   42.9890 C   0  0  0  0  0  0  0  0  0  0  0  0
   45.7210   34.0670   43.8400 C   0  0  2  0  0  0  0  0  0  0  0  0
   44.8550   34.4010   44.8480 O   0  0  0  0  0  0  0  0  0  0  0  0
   44.6520   35.7450   44.8750 C   0  0  0  0  0  0  0  0  0  0  0  0
   45.0960   37.4800   43.2620 O   0  0  0  0  0  0  0  0  0  0  0  0
   50.6564   32.8743   42.9129 H   0  0  0  0  0  0  0  0  0  0  0  0
   52.4183   32.5755   41.1229 H   0  0  0  0  0  0  0  0  0  0  0  0
   49.3799   29.2108   39.1911 H   0  0  0  0  0  0  0  0  0  0  0  0
   50.3439   29.4851   36.6038 H   0  0  0  0  0  0  0  0  0  0  0  0
   51.0585   30.8327   36.9487 H   0  0  0  0  0  0  0  0  0  0  0  0
   47.8126   30.6386   36.8555 H   0  0  0  0  0  0  0  0  0  0  0  0
   46.4034   32.3083   38.4738 H   0  0  0  0  0  0  0  0  0  0  0  0
   46.6422   34.8661   38.3169 H   0  0  0  0  0  0  0  0  0  0  0  0
   48.9713   35.3916   37.2473 H   0  0  0  0  0  0  0  0  0  0  0  0
   47.5868   31.0811   43.3037 H   0  0  0  0  0  0  0  0  0  0  0  0
   48.5773   33.9849   42.8974 H   0  0  0  0  0  0  0  0  0  0  0  0
   46.7701   32.5547   44.9487 H   0  0  0  0  0  0  0  0  0  0  0  0
   47.4611   34.2268   45.0732 H   0  0  0  0  0  0  0  0  0  0  0  0
   43.8321   36.0041   42.8616 H   0  0  0  0  0  0  0  0  0  0  0  0
   45.8890   35.0060   41.9192 H   0  0  0  0  0  0  0  0  0  0  0  0
   46.9333   35.7231   43.1036 H   0  0  0  0  0  0  0  0  0  0  0  0
   45.2873   33.2779   43.2081 H   0  0  0  0  0  0  0  0  0  0  0  0
   45.4190   36.2482   45.4820 H   0  0  0  0  0  0  0  0  0  0  0  0
   43.6888   36.0282   45.3245 H   0  0  0  0  0  0  0  0  0  0  0  0
   45.2000   37.9050   44.1501 H   0  0  0  0  0  0  0  0  0  0  0  0
  1  2  2  0
  1 15  1  0
  3  2  1  0
  4  3  2  0
  5  4  1  0
  5  6  2  0
  6  1  1  0
  7  5  1  0
  8  9  1  0
  8  7  1  0
  9 10  1  0
  9  7  1  0
 10 11  2  0
 12 11  1  0
 13 12  1  0
 14 13  2  0
 14 10  1  0
 15 16  2  0
 16 17  1  0
 18 22  1  0
 19 18  1  0
 19 20  1  0
 20 17  1  0
 20 21  1  0
 21 22  1  0
 23 18  1  0
  2 24  1  0
  3 25  1  0
  7 26  1  1
  8 27  1  0
  8 28  1  0
  9 29  1  6
 11 30  1  0
 12 31  1  0
 13 32  1  0
 15 33  1  0
 16 34  1  0
 17 35  1  0
 17 36  1  0
 18 37  1  6
 19 38  1  0
 19 39  1  0
 20 40  1  6
 22 41  1  0
 22 42  1  0
 23 43  1  0
M  ISO  8  24  14  25  14  26  13  27  13  28  13  29  13  30  14  31   9
M  ISO  8  32  14  35   8  36   8  37  13  38  13  39  13  40  13  41  13
M  ISO  2  42  13  43   3
M  END
>  <minimizedAffinity>  (1) 
-4.92908049

>  <minimizedRMSD>  (1) 
1.5050652

$$$$
