
     RDKit          3D

 27 29  0  0  0  0  0  0  0  0999 V2000
   46.7510   32.5710   44.1130 F   0  0  0  0  0  0  0  0  0  0  0  0
   45.9830   33.6710   44.2920 C   0  0  0  0  0  0  0  0  0  0  0  0
   45.5420   33.9470   45.5700 C   0  0  0  0  0  0  0  0  0  0  0  0
   44.7660   35.0540   45.7700 C   0  0  0  0  0  0  0  0  0  0  0  0
   44.4330   35.8720   44.7160 C   0  0  0  0  0  0  0  0  0  0  0  0
   44.8650   35.6120   43.4250 C   0  0  0  0  0  0  0  0  0  0  0  0
   45.6650   34.4700   43.2310 C   0  0  0  0  0  0  0  0  0  0  0  0
   47.5220   31.8680   47.8270 C   0  0  0  0  0  0  0  0  0  0  0  0
   46.5730   31.4240   48.7780 C   0  0  0  0  0  0  0  0  0  0  0  0
   45.2540   31.8580   48.6180 C   0  0  0  0  0  0  0  0  0  0  0  0
   44.9720   32.6740   47.5620 N   0  0  0  0  0  0  0  0  0  0  0  0
   45.9010   33.0710   46.6840 C   0  0  0  0  0  0  0  0  0  0  0  0
   47.1800   32.6690   46.8110 N   0  0  0  0  0  0  0  0  0  0  0  0
   46.1050   34.2220   41.8630 C   0  0  0  0  0  0  0  0  0  0  0  0
   47.2340   34.6450   41.1970 C   0  0  0  0  0  0  0  0  0  0  0  0
   47.2670   34.1960   39.9360 N   0  0  0  0  0  0  0  0  0  0  0  0
   46.1340   33.4790   39.8150 C   0  0  0  0  0  0  0  0  0  0  0  0
   45.4410   33.4950   40.9660 N   0  0  0  0  0  0  0  0  0  0  0  0
   44.4052   35.2924   46.7814 H   0  0  0  0  0  0  0  0  0  0  0  0
   43.8067   36.7568   44.9026 H   0  0  0  0  0  0  0  0  0  0  0  0
   44.5940   36.2707   42.5867 H   0  0  0  0  0  0  0  0  0  0  0  0
   48.5692   31.5460   47.9255 H   0  0  0  0  0  0  0  0  0  0  0  0
   46.8615   30.7641   49.6094 H   0  0  0  0  0  0  0  0  0  0  0  0
   44.4671   31.5507   49.3225 H   0  0  0  0  0  0  0  0  0  0  0  0
   48.0147   35.2759   41.6470 H   0  0  0  0  0  0  0  0  0  0  0  0
   47.9919   34.3611   39.2231 H   0  0  0  0  0  0  0  0  0  0  0  0
   45.8195   32.9534   38.9013 H   0  0  0  0  0  0  0  0  0  0  0  0
  1  2  1  0
  2  3  2  0
  3  4  1  0
  3 12  1  0
  5  4  2  0
  6  5  1  0
  7  6  2  0
  7  2  1  0
  8  9  2  0
 10  9  1  0
 11 10  2  0
 12 13  2  0
 12 11  1  0
 13  8  1  0
 14  7  1  0
 15 14  2  0
 16 15  1  0
 17 16  1  0
 17 18  2  0
 18 14  1  0
  4 19  1  0
  5 20  1  0
  6 21  1  0
  8 22  1  0
  9 23  1  0
 10 24  1  0
 15 25  1  0
 16 26  1  0
 17 27  1  0
M  ISO  8  19  14  20  14  21  14  22  14  23  14  24  14  25  14  26   9
M  ISO  1  27  14
M  END
>  <minimizedAffinity>  (1) 
-5.39025354

>  <minimizedRMSD>  (1) 
7.01938772

$$$$
