
     RDKit          3D

 24 26  0  0  0  0  0  0  0  0999 V2000
   45.2750   33.8790   45.9120 C   0  0  0  0  0  0  0  0  0  0  0  0
   45.7960   33.9400   44.6120 C   0  0  0  0  0  0  0  0  0  0  0  0
   46.8710   33.1080   44.3780 C   0  0  0  0  0  0  0  0  0  0  0  0
   47.3540   32.3030   45.3930 N   0  0  0  0  0  0  0  0  0  0  0  0
   46.8180   32.2830   46.6220 C   0  0  0  0  0  0  0  0  0  0  0  0
   45.7740   33.0860   46.8540 N   0  0  0  0  0  0  0  0  0  0  0  0
   47.4270   32.9820   42.9760 C   0  0  0  0  0  0  0  0  0  0  0  0
   48.6640   33.8700   42.8250 C   0  0  0  0  0  0  0  0  0  0  0  0
   48.7050   32.3180   42.8090 C   0  0  0  0  0  0  0  0  0  0  0  0
   45.1630   34.8550   43.6910 C   0  0  0  0  0  0  0  0  0  0  0  0
   45.0880   36.1970   43.5150 C   0  0  0  0  0  0  0  0  0  0  0  0
   44.2830   36.5380   42.5050 N   0  0  0  0  0  0  0  0  0  0  0  0
   43.8140   35.3970   42.0000 C   0  0  0  0  0  0  0  0  0  0  0  0
   44.3460   34.4140   42.7170 N   0  0  0  0  0  0  0  0  0  0  0  0
   44.4144   34.5163   46.1635 H   0  0  0  0  0  0  0  0  0  0  0  0
   47.2220   31.6304   47.4100 H   0  0  0  0  0  0  0  0  0  0  0  0
   46.4675   32.8328   42.4591 H   0  0  0  0  0  0  0  0  0  0  0  0
   48.8322   34.4447   41.9022 H   0  0  0  0  0  0  0  0  0  0  0  0
   49.1441   34.6771   43.3978 H   0  0  0  0  0  0  0  0  0  0  0  0
   48.9267   31.7866   41.8718 H   0  0  0  0  0  0  0  0  0  0  0  0
   49.2577   31.5555   43.3775 H   0  0  0  0  0  0  0  0  0  0  0  0
   45.6305   36.9253   44.1358 H   0  0  0  0  0  0  0  0  0  0  0  0
   44.0677   37.4918   42.1812 H   0  0  0  0  0  0  0  0  0  0  0  0
   43.1203   35.2903   41.1530 H   0  0  0  0  0  0  0  0  0  0  0  0
  1  6  2  0
  2  1  1  0
  3  2  2  0
  3  4  1  0
  4  5  2  0
  5  6  1  0
  7  3  1  0
  8  7  1  0
  9  8  1  0
  9  7  1  0
 10  2  1  0
 11 10  2  0
 12 11  1  0
 13 12  1  0
 13 14  2  0
 14 10  1  0
  1 15  1  0
  5 16  1  0
  7 17  1  0
  8 18  1  0
  8 19  1  0
  9 20  1  0
  9 21  1  0
 11 22  1  0
 12 23  1  0
 13 24  1  0
M  ISO  8  15  14  16  14  17  13  18  13  19  13  20  13  21  13  22  14
M  ISO  2  23   9  24  14
M  END
>  <minimizedAffinity>  (1) 
-3.90799022

>  <minimizedRMSD>  (1) 
2.50272489

$$$$
