
     RDKit          3D

 42 45  0  0  0  0  0  0  0  0999 V2000
   47.5260   33.2160   43.9250 N   0  0  0  0  0  0  0  0  0  0  0  0
   45.7340   34.0780   45.3920 C   0  0  0  0  0  0  0  0  0  0  0  0
   44.7410   35.0140   45.4760 C   0  0  0  0  0  0  0  0  0  0  0  0
   44.4330   35.9340   44.4990 C   0  0  0  0  0  0  0  0  0  0  0  0
   45.1720   35.9210   43.3470 C   0  0  0  0  0  0  0  0  0  0  0  0
   46.1740   35.0110   43.2090 C   0  0  0  0  0  0  0  0  0  0  0  0
   46.4530   34.0940   44.2290 C   0  0  0  0  0  0  0  0  0  0  0  0
   47.4390   31.4890   47.3290 C   0  0  0  0  0  0  0  0  0  0  0  0
   46.6180   31.3170   48.4310 C   0  0  0  0  0  0  0  0  0  0  0  0
   45.4610   32.0960   48.5200 C   0  0  0  0  0  0  0  0  0  0  0  0
   45.1620   33.0030   47.5300 N   0  0  0  0  0  0  0  0  0  0  0  0
   46.0080   33.1390   46.4540 C   0  0  0  0  0  0  0  0  0  0  0  0
   47.1140   32.3740   46.3960 N   0  0  0  0  0  0  0  0  0  0  0  0
   48.8510   33.3150   42.8500 S   0  0  0  0  0  0  0  0  0  0  0  0
   48.2860   33.5040   41.4360 O   0  0  0  0  0  0  0  0  0  0  0  0
   49.7890   34.4310   43.1200 O   0  0  0  0  0  0  0  0  0  0  0  0
   49.5670   31.7940   42.8410 O   0  0  0  0  0  0  0  0  0  0  0  0
   51.4260   30.4320   42.6310 C   0  0  0  0  0  0  0  0  0  0  0  0
   50.6460   31.4400   42.0540 C   0  0  0  0  0  0  0  0  0  0  0  0
   50.9930   31.9670   40.8260 C   0  0  0  0  0  0  0  0  0  0  0  0
   52.0980   31.5190   40.1510 C   0  0  0  0  0  0  0  0  0  0  0  0
   52.6470   31.8530   38.9700 N   0  0  0  0  0  0  0  0  0  0  0  0
   53.7510   31.1370   38.7030 C   0  0  0  0  0  0  0  0  0  0  0  0
   53.8770   30.3060   39.8130 C   0  0  0  0  0  0  0  0  0  0  0  0
   52.8650   30.5210   40.7280 C   0  0  0  0  0  0  0  0  0  0  0  0
   52.5550   29.9700   41.9480 C   0  0  0  0  0  0  0  0  0  0  0  0
   47.5010   32.3382   44.4632 H   0  0  0  0  0  0  0  0  0  0  0  0
   44.1404   35.0336   46.3973 H   0  0  0  0  0  0  0  0  0  0  0  0
   43.6171   36.6581   44.6401 H   0  0  0  0  0  0  0  0  0  0  0  0
   44.9581   36.6387   42.5413 H   0  0  0  0  0  0  0  0  0  0  0  0
   46.7715   34.9958   42.2855 H   0  0  0  0  0  0  0  0  0  0  0  0
   48.3582   30.8933   47.2277 H   0  0  0  0  0  0  0  0  0  0  0  0
   46.8696   30.5873   49.2147 H   0  0  0  0  0  0  0  0  0  0  0  0
   44.7884   31.9836   49.3831 H   0  0  0  0  0  0  0  0  0  0  0  0
   47.3488   33.8175   41.4943 H   0  0  0  0  0  0  0  0  0  0  0  0
   49.8884   34.5493   44.0979 H   0  0  0  0  0  0  0  0  0  0  0  0
   51.1545   30.0085   43.6092 H   0  0  0  0  0  0  0  0  0  0  0  0
   50.3723   32.7594   40.3823 H   0  0  0  0  0  0  0  0  0  0  0  0
   52.2648   32.5748   38.3425 H   0  0  0  0  0  0  0  0  0  0  0  0
   54.4014   31.1935   37.8177 H   0  0  0  0  0  0  0  0  0  0  0  0
   54.6830   29.5692   39.9449 H   0  0  0  0  0  0  0  0  0  0  0  0
   53.1848   29.1784   42.3802 H   0  0  0  0  0  0  0  0  0  0  0  0
  1  7  1  0
  2  3  2  0
  2 12  1  0
  4  3  1  0
  5  4  2  0
  6  5  1  0
  6  7  2  0
  7  2  1  0
  8  9  2  0
  9 10  1  0
 11 10  2  0
 12 11  1  0
 13 12  2  0
 13  8  1  0
 14 16  1  0
 14  1  1  0
 15 14  1  0
 17 14  1  0
 19 18  2  0
 19 17  1  0
 20 19  1  0
 21 25  1  0
 21 20  2  0
 22 21  1  0
 23 22  1  0
 23 24  2  0
 24 25  1  0
 25 26  2  0
 26 18  1  0
  1 27  1  0
  3 28  1  0
  4 29  1  0
  5 30  1  0
  6 31  1  0
  8 32  1  0
  9 33  1  0
 10 34  1  0
 15 35  1  0
 16 36  1  0
 18 37  1  0
 20 38  1  0
 22 39  1  0
 23 40  1  0
 24 41  1  0
 26 42  1  0
M  ISO  8  28  14  29  14  30  14  31  14  32  14  33  14  34  14  35   3
M  ISO  7  36   3  37  14  38  14  39   9  40  14  41  14  42  14
M  END
>  <minimizedAffinity>  (1) 
-6.54963779

>  <minimizedRMSD>  (1) 
2.27427959

$$$$
