
     RDKit          3D

 39 42  0  0  0  0  0  0  0  0999 V2000
   48.5400   33.0410   41.2380 C   0  0  0  0  0  0  0  0  0  0  0  0
   48.1920   34.2590   41.7680 C   0  0  0  0  0  0  0  0  0  0  0  0
   49.1290   34.9940   42.4790 C   0  0  0  0  0  0  0  0  0  0  0  0
   50.3990   34.4780   42.6400 C   0  0  0  0  0  0  0  0  0  0  0  0
   50.7250   33.2540   42.1000 C   0  0  0  0  0  0  0  0  0  0  0  0
   49.7900   32.5140   41.3850 C   0  0  0  0  0  0  0  0  0  0  0  0
   46.7910   34.6850   41.5090 C   0  0  0  0  0  0  0  0  0  0  0  0
   46.0690   34.8640   42.8120 C   0  0  0  0  0  0  0  0  0  0  0  0
   46.1630   33.8250   43.7500 C   0  0  0  0  0  0  0  0  0  0  0  0
   45.5010   33.9850   44.9610 C   0  0  0  0  0  0  0  0  0  0  0  0
   44.8070   35.1240   45.1650 N   0  0  0  0  0  0  0  0  0  0  0  0
   44.7320   36.1120   44.2410 C   0  0  0  0  0  0  0  0  0  0  0  0
   45.3620   35.9820   43.0660 N   0  0  0  0  0  0  0  0  0  0  0  0
   47.6800   32.2210   40.5090 O   0  0  0  0  0  0  0  0  0  0  0  0
   50.2220   31.2910   40.8770 O   0  0  0  0  0  0  0  0  0  0  0  0
   51.0710   31.6980   38.7670 C   0  0  0  0  0  0  0  0  0  0  0  0
   51.2820   31.1360   40.0310 C   0  0  0  0  0  0  0  0  0  0  0  0
   52.4740   30.5060   40.3180 C   0  0  0  0  0  0  0  0  0  0  0  0
   53.4610   30.4290   39.3500 C   0  0  0  0  0  0  0  0  0  0  0  0
   54.6860   29.8640   39.4140 N   0  0  0  0  0  0  0  0  0  0  0  0
   55.2450   30.0720   38.1880 C   0  0  0  0  0  0  0  0  0  0  0  0
   54.3780   30.7650   37.3490 C   0  0  0  0  0  0  0  0  0  0  0  0
   53.2320   30.9890   38.1110 C   0  0  0  0  0  0  0  0  0  0  0  0
   52.0500   31.6280   37.7910 C   0  0  0  0  0  0  0  0  0  0  0  0
   48.8644   35.9719   42.9075 H   0  0  0  0  0  0  0  0  0  0  0  0
   51.1541   35.0471   43.2022 H   0  0  0  0  0  0  0  0  0  0  0  0
   51.7411   32.8554   42.2364 H   0  0  0  0  0  0  0  0  0  0  0  0
   46.7940   35.6374   40.9586 H   0  0  0  0  0  0  0  0  0  0  0  0
   46.2802   33.9154   40.9117 H   0  0  0  0  0  0  0  0  0  0  0  0
   46.7412   32.9145   43.5340 H   0  0  0  0  0  0  0  0  0  0  0  0
   45.5416   33.2031   45.7337 H   0  0  0  0  0  0  0  0  0  0  0  0
   44.1530   37.0222   44.4560 H   0  0  0  0  0  0  0  0  0  0  0  0
   46.7469   32.5065   40.3420 H   0  0  0  0  0  0  0  0  0  0  0  0
   50.1176   32.2005   38.5468 H   0  0  0  0  0  0  0  0  0  0  0  0
   52.6405   30.0661   41.3124 H   0  0  0  0  0  0  0  0  0  0  0  0
   55.1084   29.3788   40.2184 H   0  0  0  0  0  0  0  0  0  0  0  0
   56.2517   29.7353   37.8994 H   0  0  0  0  0  0  0  0  0  0  0  0
   54.5580   31.0706   36.3078 H   0  0  0  0  0  0  0  0  0  0  0  0
   51.8921   32.0663   36.7945 H   0  0  0  0  0  0  0  0  0  0  0  0
  1  6  2  0
  1  2  1  0
  2  3  2  0
  3  4  1  0
  5  4  2  0
  6  5  1  0
  7  2  1  0
  7  8  1  0
  8 13  1  0
  8  9  2  0
  9 10  1  0
 10 11  2  0
 12 11  1  0
 13 12  2  0
 14  1  1  0
 15  6  1  0
 16 17  2  0
 17 18  1  0
 17 15  1  0
 19 20  1  0
 19 18  2  0
 21 20  1  0
 22 23  1  0
 22 21  2  0
 23 19  1  0
 24 23  2  0
 24 16  1  0
  3 25  1  0
  4 26  1  0
  5 27  1  0
  7 28  1  0
  7 29  1  0
  9 30  1  0
 10 31  1  0
 12 32  1  0
 14 33  1  0
 16 34  1  0
 18 35  1  0
 20 36  1  0
 21 37  1  0
 22 38  1  0
 24 39  1  0
M  ISO  8  25  14  26  14  27  14  28   8  29   8  30  14  31  14  32  14
M  ISO  7  33   3  34  14  35  14  36   9  37  14  38  14  39  14
M  END
>  <minimizedAffinity>  (1) 
-5.66806889

>  <minimizedRMSD>  (1) 
2.14767742

$$$$
