
     RDKit          3D

 48 51  0  0  0  0  0  0  0  0999 V2000
   41.6280   35.6460   41.1810 C   0  0  0  0  0  0  0  0  0  0  0  0
   41.0750   33.2630   41.2780 C   0  0  0  0  0  0  0  0  0  0  0  0
   40.6560   34.5490   40.8570 C   0  0  0  0  0  0  0  0  0  0  0  0
   39.4600   34.6460   40.2320 C   0  0  0  0  0  0  0  0  0  0  0  0
   38.7710   33.5290   40.0630 N   0  0  0  0  0  0  0  0  0  0  0  0
   39.1480   32.3200   40.4510 C   0  0  0  0  0  0  0  0  0  0  0  0
   40.3680   32.1430   41.1010 N   0  0  0  0  0  0  0  0  0  0  0  0
   37.4910   30.7320   41.2460 C   0  0  0  0  0  0  0  0  0  0  0  0
   38.3350   31.1320   40.2300 C   0  0  0  0  0  0  0  0  0  0  0  0
   38.3950   30.4190   39.0510 C   0  0  0  0  0  0  0  0  0  0  0  0
   37.5850   29.2960   38.9260 C   0  0  0  0  0  0  0  0  0  0  0  0
   37.4950   28.4600   37.8500 N   0  0  0  0  0  0  0  0  0  0  0  0
   36.5740   27.5200   38.2070 C   0  0  0  0  0  0  0  0  0  0  0  0
   36.0950   27.7590   39.4790 C   0  0  0  0  0  0  0  0  0  0  0  0
   36.7350   28.8900   39.9440 C   0  0  0  0  0  0  0  0  0  0  0  0
   36.6840   29.6160   41.1240 C   0  0  0  0  0  0  0  0  0  0  0  0
   42.8580   35.4470   40.6540 O   0  0  0  0  0  0  0  0  0  0  0  0
   44.0710   35.3360   41.3110 C   0  0  0  0  0  0  0  0  0  0  0  0
   44.0520   35.5850   42.6160 C   0  0  0  0  0  0  0  0  0  0  0  0
   45.2590   35.5200   43.5340 C   0  0  0  0  0  0  0  0  0  0  0  0
   44.9840   34.5820   44.5050 O   0  0  0  0  0  0  0  0  0  0  0  0
   45.6270   32.4190   43.0900 O   0  0  0  0  0  0  0  0  0  0  0  0
   45.9690   33.2250   44.3190 P   0  0  1  0  0  0  0  0  0  0  0  0
   47.5970   33.7020   44.1550 O   0  0  0  0  0  0  0  0  0  0  0  0
   45.8760   32.2510   45.6950 O   0  0  0  0  0  0  0  0  0  0  0  0
   46.1920   32.9440   46.8470 C   0  0  0  0  0  0  0  0  0  0  0  0
   47.1150   32.3100   47.8410 C   0  0  0  0  0  0  0  0  0  0  0  0
   45.6350   32.3550   48.1240 C   0  0  0  0  0  0  0  0  0  0  0  0
   41.2291   36.5927   40.7877 H   0  0  0  0  0  0  0  0  0  0  0  0
   41.7427   35.6656   42.2748 H   0  0  0  0  0  0  0  0  0  0  0  0
   42.0479   33.1808   41.7847 H   0  0  0  0  0  0  0  0  0  0  0  0
   39.0759   35.6143   39.8786 H   0  0  0  0  0  0  0  0  0  0  0  0
   37.4595   31.3164   42.1774 H   0  0  0  0  0  0  0  0  0  0  0  0
   39.0634   30.7294   38.2344 H   0  0  0  0  0  0  0  0  0  0  0  0
   38.0112   28.5253   36.9611 H   0  0  0  0  0  0  0  0  0  0  0  0
   36.2557   26.6837   37.5672 H   0  0  0  0  0  0  0  0  0  0  0  0
   35.3458   27.1618   40.0194 H   0  0  0  0  0  0  0  0  0  0  0  0
   36.0171   29.3113   41.9440 H   0  0  0  0  0  0  0  0  0  0  0  0
   44.9958   35.0582   40.7842 H   0  0  0  0  0  0  0  0  0  0  0  0
   43.0866   35.8596   43.0661 H   0  0  0  0  0  0  0  0  0  0  0  0
   46.1506   35.2210   42.9633 H   0  0  0  0  0  0  0  0  0  0  0  0
   45.4581   36.5027   43.9865 H   0  0  0  0  0  0  0  0  0  0  0  0
   47.9984   33.8196   45.0523 H   0  0  0  0  0  0  0  0  0  0  0  0
   46.1776   33.9228   46.3452 H   0  0  0  0  0  0  0  0  0  0  0  0
   47.5998   31.3510   47.6058 H   0  0  0  0  0  0  0  0  0  0  0  0
   48.0173   32.6363   48.3789 H   0  0  0  0  0  0  0  0  0  0  0  0
   45.2439   33.0159   48.9115 H   0  0  0  0  0  0  0  0  0  0  0  0
   44.8636   31.6101   48.3691 H   0  0  0  0  0  0  0  0  0  0  0  0
  3  1  1  0
  3  2  2  0
  4  3  1  0
  5  4  2  0
  5  6  1  0
  6  7  2  0
  7  2  1  0
  9  6  1  0
  9  8  2  0
 10  9  1  0
 11 10  2  0
 11 15  1  0
 12 13  1  0
 12 11  1  0
 13 14  2  0
 14 15  1  0
 15 16  2  0
 16  8  1  0
 17  1  1  0
 17 18  1  0
 18 19  2  0
 19 20  1  0
 20 21  1  0
 23 22  2  0
 23 21  1  0
 23 25  1  0
 24 23  1  0
 25 26  1  0
 26 27  1  0
 26 28  1  0
 27 28  1  0
  1 29  1  0
  1 30  1  0
  2 31  1  0
  4 32  1  0
  8 33  1  0
 10 34  1  0
 12 35  1  0
 13 36  1  0
 14 37  1  0
 16 38  1  0
 18 39  1  0
 19 40  1  0
 20 41  1  0
 20 42  1  0
 24 43  1  0
 26 44  1  0
 27 45  1  0
 27 46  1  0
 28 47  1  0
 28 48  1  0
M  ISO  8  29   8  30   8  31  14  32  14  33  14  34  14  35   9  36  14
M  ISO  8  37  14  38  14  41   8  42   8  43   3  44  13  45  13  46  13
M  ISO  2  47  13  48  13
M  END
>  <minimizedAffinity>  (1) 
-5.5637989

>  <minimizedRMSD>  (1) 
0.969252467

$$$$
