
     RDKit          3D

 30 32  0  0  1  0  0  0  0  0999 V2000
   48.2390   34.9110   42.4730 C   0  0  2  0  0  0  0  0  0  0  0  0
   48.2960   32.4360   43.0810 C   0  0  0  0  0  0  0  0  0  0  0  0
   48.8470   33.5640   42.5090 C   0  0  0  0  0  0  0  0  0  0  0  0
   50.1010   33.3760   41.9180 C   0  0  0  0  0  0  0  0  0  0  0  0
   50.7620   32.1640   41.8930 C   0  0  0  0  0  0  0  0  0  0  0  0
   51.9520   31.7820   41.3850 N   0  0  0  0  0  0  0  0  0  0  0  0
   52.1020   30.4780   41.6430 C   0  0  0  0  0  0  0  0  0  0  0  0
   51.0110   29.9890   42.3260 C   0  0  0  0  0  0  0  0  0  0  0  0
   50.1660   31.0690   42.4790 C   0  0  0  0  0  0  0  0  0  0  0  0
   48.9130   31.2110   43.0820 C   0  0  0  0  0  0  0  0  0  0  0  0
   45.9260   35.4400   42.8410 C   0  0  0  0  0  0  0  0  0  0  0  0
   46.8700   34.8380   42.0160 C   0  0  0  0  0  0  0  0  0  0  0  0
   46.3900   34.2430   40.8480 C   0  0  0  0  0  0  0  0  0  0  0  0
   45.0640   34.2960   40.6100 N   0  0  0  0  0  0  0  0  0  0  0  0
   44.1810   34.8830   41.4230 C   0  0  0  0  0  0  0  0  0  0  0  0
   44.6010   35.4650   42.5530 N   0  0  0  0  0  0  0  0  0  0  0  0
   48.9810   35.8150   41.4860 C   0  0  0  0  0  0  0  0  0  0  0  0
   48.2948   35.3155   43.4944 H   0  0  0  0  0  0  0  0  0  0  0  0
   47.3103   32.5236   43.5614 H   0  0  0  0  0  0  0  0  0  0  0  0
   50.5878   34.2425   41.4467 H   0  0  0  0  0  0  0  0  0  0  0  0
   52.6233   32.3851   40.8885 H   0  0  0  0  0  0  0  0  0  0  0  0
   52.9766   29.8788   41.3498 H   0  0  0  0  0  0  0  0  0  0  0  0
   50.8480   28.9586   42.6748 H   0  0  0  0  0  0  0  0  0  0  0  0
   48.4248   30.3458   43.5544 H   0  0  0  0  0  0  0  0  0  0  0  0
   46.2700   35.9180   43.7701 H   0  0  0  0  0  0  0  0  0  0  0  0
   47.0729   33.7460   40.1432 H   0  0  0  0  0  0  0  0  0  0  0  0
   43.1118   34.8880   41.1645 H   0  0  0  0  0  0  0  0  0  0  0  0
   49.5831   36.5486   42.0421 H   0  0  0  0  0  0  0  0  0  0  0  0
   49.6408   35.2033   40.8532 H   0  0  0  0  0  0  0  0  0  0  0  0
   48.2524   36.3429   40.8532 H   0  0  0  0  0  0  0  0  0  0  0  0
  1  3  1  0
  2 10  2  0
  3  2  1  0
  4  3  2  0
  5  4  1  0
  5  9  2  0
  6  7  1  0
  6  5  1  0
  7  8  2  0
  8  9  1  0
  9 10  1  0
 12  1  1  0
 12 11  2  0
 13 12  1  0
 14 13  2  0
 14 15  1  0
 15 16  2  0
 16 11  1  0
 17  1  1  0
  1 18  1  1
  2 19  1  0
  4 20  1  0
  6 21  1  0
  7 22  1  0
  8 23  1  0
 10 24  1  0
 11 25  1  0
 13 26  1  0
 15 27  1  0
 17 28  1  0
 17 29  1  0
 17 30  1  0
M  ISO  8  18   8  19  14  20  14  21   9  22  14  23  14  24  14  25  14
M  ISO  5  26  14  27  14  28   8  29   8  30   8
M  END
>  <minimizedAffinity>  (1) 
-4.85923243

>  <minimizedRMSD>  (1) 
6.92610645

$$$$
