
     RDKit          3D

 49 53  0  0  1  0  0  0  0  0999 V2000
   47.6830   33.1800   40.4600 C   0  0  1  0  0  0  0  0  0  0  0  0
   48.2160   34.5030   39.9960 C   0  0  0  0  0  0  0  0  0  0  0  0
   48.6970   35.1840   41.2910 C   0  0  0  0  0  0  0  0  0  0  0  0
   47.4240   35.5150   42.0650 C   0  0  0  0  0  0  0  0  0  0  0  0
   46.6320   34.3010   42.3710 C   0  0  0  0  0  0  0  0  0  0  0  0
   46.4890   33.2820   41.2980 C   0  0  1  0  0  0  0  0  0  0  0  0
   44.7930   33.4640   39.3940 C   0  0  0  0  0  0  0  0  0  0  0  0
   45.1740   33.4130   40.6900 C   0  0  0  0  0  0  0  0  0  0  0  0
   44.0620   33.5310   41.5490 C   0  0  0  0  0  0  0  0  0  0  0  0
   42.7540   33.6800   41.1430 C   0  0  0  0  0  0  0  0  0  0  0  0
   41.6180   33.8020   41.8490 N   0  0  0  0  0  0  0  0  0  0  0  0
   40.6180   33.9200   40.9590 C   0  0  0  0  0  0  0  0  0  0  0  0
   41.1120   33.8740   39.6960 C   0  0  0  0  0  0  0  0  0  0  0  0
   42.4670   33.7220   39.8130 C   0  0  0  0  0  0  0  0  0  0  0  0
   43.5020   33.6120   38.9360 C   0  0  0  0  0  0  0  0  0  0  0  0
   48.0670   31.4090   37.2550 C   0  0  0  0  0  0  0  0  0  0  0  0
   47.4580   30.2040   37.5680 C   0  0  0  0  0  0  0  0  0  0  0  0
   46.9110   29.9030   38.7910 C   0  0  0  0  0  0  0  0  0  0  0  0
   47.0040   30.9140   39.7350 C   0  0  0  0  0  0  0  0  0  0  0  0
   47.6140   32.1360   39.4360 C   0  0  0  0  0  0  0  0  0  0  0  0
   48.1310   32.3520   38.2010 N   0  0  0  0  0  0  0  0  0  0  0  0
   50.1900   31.0950   34.2880 C   0  0  0  0  0  0  0  0  0  0  0  0
   49.6580   32.0560   33.4070 C   0  0  0  0  0  0  0  0  0  0  0  0
   48.5550   32.8040   33.8750 C   0  0  0  0  0  0  0  0  0  0  0  0
   48.0670   32.5630   35.1380 N   0  0  0  0  0  0  0  0  0  0  0  0
   48.6210   31.6310   35.9260 C   0  0  0  0  0  0  0  0  0  0  0  0
   49.6660   30.9050   35.5130 N   0  0  0  0  0  0  0  0  0  0  0  0
   48.4696   32.8106   41.1343 H   0  0  0  0  0  0  0  0  0  0  0  0
   49.0511   34.3638   39.2937 H   0  0  0  0  0  0  0  0  0  0  0  0
   47.4634   35.0983   39.4582 H   0  0  0  0  0  0  0  0  0  0  0  0
   49.3352   34.5017   41.8716 H   0  0  0  0  0  0  0  0  0  0  0  0
   49.2982   36.0818   41.0848 H   0  0  0  0  0  0  0  0  0  0  0  0
   47.6998   36.0071   43.0094 H   0  0  0  0  0  0  0  0  0  0  0  0
   46.8066   36.1760   41.4390 H   0  0  0  0  0  0  0  0  0  0  0  0
   47.1063   33.8074   43.2320 H   0  0  0  0  0  0  0  0  0  0  0  0
   45.6102   34.6708   42.5420 H   0  0  0  0  0  0  0  0  0  0  0  0
   46.4763   32.2543   41.6901 H   0  0  0  0  0  0  0  0  0  0  0  0
   45.5858   33.3797   38.6361 H   0  0  0  0  0  0  0  0  0  0  0  0
   44.2546   33.5017   42.6316 H   0  0  0  0  0  0  0  0  0  0  0  0
   41.5301   33.8046   42.8752 H   0  0  0  0  0  0  0  0  0  0  0  0
   39.5550   34.0367   41.2166 H   0  0  0  0  0  0  0  0  0  0  0  0
   40.5362   33.9450   38.7614 H   0  0  0  0  0  0  0  0  0  0  0  0
   43.3064   33.6415   37.8539 H   0  0  0  0  0  0  0  0  0  0  0  0
   47.4095   29.4356   36.7824 H   0  0  0  0  0  0  0  0  0  0  0  0
   46.4357   28.9344   39.0052 H   0  0  0  0  0  0  0  0  0  0  0  0
   46.5890   30.7513   40.7407 H   0  0  0  0  0  0  0  0  0  0  0  0
   51.0502   30.4881   33.9690 H   0  0  0  0  0  0  0  0  0  0  0  0
   50.0804   32.2163   32.4041 H   0  0  0  0  0  0  0  0  0  0  0  0
   48.0916   33.5706   33.2365 H   0  0  0  0  0  0  0  0  0  0  0  0
  1  6  1  0
  2  1  1  0
  2  3  1  0
  3  4  1  0
  4  5  1  0
  6  5  1  0
  7  8  2  0
  8  6  1  0
  8  9  1  0
 10  9  2  0
 10 11  1  0
 12 11  1  0
 13 14  1  0
 13 12  2  0
 14 10  1  0
 15  7  1  0
 15 14  2  0
 16 17  2  0
 16 21  1  0
 17 18  1  0
 18 19  2  0
 20 19  1  0
 20  1  1  0
 21 20  2  0
 22 27  2  0
 23 24  2  0
 23 22  1  0
 24 25  1  0
 25 26  2  0
 26 16  1  0
 27 26  1  0
  1 28  1  1
  2 29  1  0
  2 30  1  0
  3 31  1  0
  3 32  1  0
  4 33  1  0
  4 34  1  0
  5 35  1  0
  5 36  1  0
  6 37  1  1
  7 38  1  0
  9 39  1  0
 11 40  1  0
 12 41  1  0
 13 42  1  0
 15 43  1  0
 17 44  1  0
 18 45  1  0
 19 46  1  0
 22 47  1  0
 23 48  1  0
 24 49  1  0
M  ISO  8  28  13  29  13  30  13  31  13  32  13  33  13  34  13  35  13
M  ISO  8  36  13  37  13  38  14  39  14  40   9  41  14  42  14  43  14
M  ISO  6  44  14  45  14  46  14  47  14  48  14  49  14
M  END
>  <minimizedAffinity>  (1) 
-5.3644495

>  <minimizedRMSD>  (1) 
7.60826588

$$$$
