
     RDKit          3D

 26 28  0  0  0  0  0  0  0  0999 V2000
   46.1940   34.8370   43.3740 C   0  0  0  0  0  0  0  0  0  0  0  0
   46.8530   34.1320   42.3860 C   0  0  0  0  0  0  0  0  0  0  0  0
   46.2090   33.9390   41.1580 C   0  0  0  0  0  0  0  0  0  0  0  0
   44.9330   34.4370   40.9100 C   0  0  0  0  0  0  0  0  0  0  0  0
   44.1010   34.4010   39.8500 N   0  0  0  0  0  0  0  0  0  0  0  0
   42.9650   35.0550   40.1580 C   0  0  0  0  0  0  0  0  0  0  0  0
   43.0330   35.5430   41.4520 C   0  0  0  0  0  0  0  0  0  0  0  0
   44.2900   35.1390   41.9100 C   0  0  0  0  0  0  0  0  0  0  0  0
   44.9280   35.3260   43.1180 C   0  0  0  0  0  0  0  0  0  0  0  0
   50.5650   33.5880   42.2790 C   0  0  0  0  0  0  0  0  0  0  0  0
   49.3410   34.2600   42.2440 C   0  0  0  0  0  0  0  0  0  0  0  0
   48.1770   33.5220   42.4080 C   0  0  0  0  0  0  0  0  0  0  0  0
   48.2920   32.1710   42.5960 N   0  0  0  0  0  0  0  0  0  0  0  0
   49.4920   31.5550   42.6250 C   0  0  0  0  0  0  0  0  0  0  0  0
   50.6230   32.2540   42.4680 N   0  0  0  0  0  0  0  0  0  0  0  0
   49.2790   35.6770   42.0430 C   0  0  0  0  0  0  0  0  0  0  0  0
   49.1220   36.1040   40.8760 O   0  0  0  0  0  0  0  0  0  0  0  0
   46.6706   35.0066   44.3508 H   0  0  0  0  0  0  0  0  0  0  0  0
   46.7263   33.3775   40.3661 H   0  0  0  0  0  0  0  0  0  0  0  0
   44.3022   33.9458   38.9482 H   0  0  0  0  0  0  0  0  0  0  0  0
   42.1079   35.1829   39.4804 H   0  0  0  0  0  0  0  0  0  0  0  0
   42.2700   36.1186   41.9965 H   0  0  0  0  0  0  0  0  0  0  0  0
   44.4082   35.8867   43.9089 H   0  0  0  0  0  0  0  0  0  0  0  0
   51.4977   34.1567   42.1502 H   0  0  0  0  0  0  0  0  0  0  0  0
   49.5416   30.4670   42.7793 H   0  0  0  0  0  0  0  0  0  0  0  0
   49.3670   36.3718   42.8912 H   0  0  0  0  0  0  0  0  0  0  0  0
  2 12  1  0
  2  1  2  0
  3  2  1  0
  4  3  2  0
  4  8  1  0
  5  6  1  0
  5  4  1  0
  6  7  2  0
  7  8  1  0
  8  9  2  0
  9  1  1  0
 10 15  2  0
 11 10  1  0
 11 12  2  0
 12 13  1  0
 13 14  2  0
 15 14  1  0
 16 11  1  0
 17 16  2  0
  1 18  1  0
  3 19  1  0
  5 20  1  0
  6 21  1  0
  7 22  1  0
  9 23  1  0
 10 24  1  0
 14 25  1  0
 16 26  1  0
M  ISO  8  18  14  19  14  20   9  21  14  22  14  23  14  24  14  25  14
M  ISO  1  26   6
M  END
>  <minimizedAffinity>  (1) 
-5.11313105

>  <minimizedRMSD>  (1) 
5.86406755

$$$$
