
     RDKit          3D

 49 53  0  0  1  0  0  0  0  0999 V2000
   43.2440   34.3770   40.5230 C   0  0  0  0  0  0  0  0  0  0  0  0
   43.2690   35.4780   39.8770 O   0  0  0  0  0  0  0  0  0  0  0  0
   41.8310   34.0430   40.4080 N   0  0  0  0  0  0  0  0  0  0  0  0
   41.3620   33.8780   39.0530 C   0  0  0  0  0  0  0  0  0  0  0  0
   40.6700   35.2130   38.7020 C   0  0  0  0  0  0  0  0  0  0  0  0
   40.0030   35.7080   39.9980 C   0  0  0  0  0  0  0  0  0  0  0  0
   39.5830   34.5330   40.8500 C   0  0  0  0  0  0  0  0  0  0  0  0
   40.8330   33.8540   41.4430 C   0  0  1  0  0  0  0  0  0  0  0  0
   41.4940   31.4550   42.0040 C   0  0  0  0  0  0  0  0  0  0  0  0
   40.5730   32.4060   41.6450 C   0  0  0  0  0  0  0  0  0  0  0  0
   39.2800   31.9660   41.4540 C   0  0  0  0  0  0  0  0  0  0  0  0
   38.9140   30.6270   41.6140 C   0  0  0  0  0  0  0  0  0  0  0  0
   37.7860   29.8990   41.5090 N   0  0  0  0  0  0  0  0  0  0  0  0
   38.0350   28.6060   41.7890 C   0  0  0  0  0  0  0  0  0  0  0  0
   39.3700   28.4390   42.0960 C   0  0  0  0  0  0  0  0  0  0  0  0
   39.8980   29.7080   41.9810 C   0  0  0  0  0  0  0  0  0  0  0  0
   41.1970   30.1300   42.1760 C   0  0  0  0  0  0  0  0  0  0  0  0
   44.2930   33.7560   41.1230 O   0  0  0  0  0  0  0  0  0  0  0  0
   45.6300   34.0120   40.9450 C   0  0  0  0  0  0  0  0  0  0  0  0
   46.3190   34.6190   41.9970 C   0  0  0  0  0  0  0  0  0  0  0  0
   47.6830   34.8700   41.7900 C   0  0  0  0  0  0  0  0  0  0  0  0
   48.2460   34.5120   40.5890 N   0  0  0  0  0  0  0  0  0  0  0  0
   47.5390   33.9410   39.6320 C   0  0  0  0  0  0  0  0  0  0  0  0
   46.2320   33.6850   39.7970 N   0  0  0  0  0  0  0  0  0  0  0  0
   45.6290   34.9550   43.2200 C   0  0  0  0  0  0  0  0  0  0  0  0
   45.0380   36.1920   43.4470 C   0  0  0  0  0  0  0  0  0  0  0  0
   44.5070   36.0820   44.7050 C   0  0  0  0  0  0  0  0  0  0  0  0
   44.7530   34.8580   45.2180 N   0  0  0  0  0  0  0  0  0  0  0  0
   45.4290   34.2060   44.3020 N   0  0  0  0  0  0  0  0  0  0  0  0
   42.2055   33.6896   38.3726 H   0  0  0  0  0  0  0  0  0  0  0  0
   40.6792   33.0212   38.9544 H   0  0  0  0  0  0  0  0  0  0  0  0
   41.4117   35.9458   38.3515 H   0  0  0  0  0  0  0  0  0  0  0  0
   39.9314   35.0810   37.8976 H   0  0  0  0  0  0  0  0  0  0  0  0
   40.7169   36.3279   40.5603 H   0  0  0  0  0  0  0  0  0  0  0  0
   39.1130   36.3008   39.7400 H   0  0  0  0  0  0  0  0  0  0  0  0
   38.9353   34.8852   41.6663 H   0  0  0  0  0  0  0  0  0  0  0  0
   39.0326   33.8097   40.2305 H   0  0  0  0  0  0  0  0  0  0  0  0
   41.1349   34.2636   42.4182 H   0  0  0  0  0  0  0  0  0  0  0  0
   42.5338   31.7766   42.1632 H   0  0  0  0  0  0  0  0  0  0  0  0
   38.5090   32.6955   41.1653 H   0  0  0  0  0  0  0  0  0  0  0  0
   36.8636   30.2777   41.2510 H   0  0  0  0  0  0  0  0  0  0  0  0
   37.2851   27.8014   41.7751 H   0  0  0  0  0  0  0  0  0  0  0  0
   39.8917   27.5099   42.3690 H   0  0  0  0  0  0  0  0  0  0  0  0
   41.9805   29.4139   42.4647 H   0  0  0  0  0  0  0  0  0  0  0  0
   48.2908   35.3446   42.5744 H   0  0  0  0  0  0  0  0  0  0  0  0
   48.0285   33.6708   38.6847 H   0  0  0  0  0  0  0  0  0  0  0  0
   45.0043   37.0598   42.7719 H   0  0  0  0  0  0  0  0  0  0  0  0
   43.9567   36.8801   45.2248 H   0  0  0  0  0  0  0  0  0  0  0  0
   44.4673   34.5064   46.1430 H   0  0  0  0  0  0  0  0  0  0  0  0
  1 18  1  0
  2  1  2  0
  3  1  1  0
  3  8  1  0
  4  3  1  0
  5  4  1  0
  5  6  1  0
  6  7  1  0
  7  8  1  0
  8 10  1  0
  9 17  2  0
 10  9  1  0
 11 12  1  0
 11 10  2  0
 12 16  2  0
 13 12  1  0
 13 14  1  0
 14 15  2  0
 16 15  1  0
 16 17  1  0
 19 18  1  0
 19 20  1  0
 20 25  1  0
 21 20  2  0
 22 21  1  0
 23 24  1  0
 23 22  2  0
 24 19  2  0
 25 26  1  0
 25 29  2  0
 26 27  2  0
 27 28  1  0
 29 28  1  0
  4 30  1  0
  4 31  1  0
  5 32  1  0
  5 33  1  0
  6 34  1  0
  6 35  1  0
  7 36  1  0
  7 37  1  0
  8 38  1  1
  9 39  1  0
 11 40  1  0
 13 41  1  0
 14 42  1  0
 15 43  1  0
 17 44  1  0
 21 45  1  0
 23 46  1  0
 26 47  1  0
 27 48  1  0
 28 49  1  0
M  ISO  8  30  13  31  13  32  13  33  13  34  13  35  13  36  13  37  13
M  ISO  8  38  13  39  14  40  14  41   9  42  14  43  14  44  14  45  14
M  ISO  4  46  14  47  14  48  14  49   9
M  END
>  <minimizedAffinity>  (1) 
-7.22926855

>  <minimizedRMSD>  (1) 
1.56240833

$$$$
