
     RDKit          3D

 43 47  0  0  0  0  0  0  0  0999 V2000
   44.0100   32.2720   41.2660 Cl  0  0  0  0  0  0  0  0  0  0  0  0
   44.4050   33.8400   41.9750 C   0  0  0  0  0  0  0  0  0  0  0  0
   45.4960   33.8400   42.8670 C   0  0  0  0  0  0  0  0  0  0  0  0
   45.7210   35.1170   43.3600 C   0  0  0  0  0  0  0  0  0  0  0  0
   45.0720   36.2630   43.1030 C   0  0  0  0  0  0  0  0  0  0  0  0
   44.0300   36.1750   42.2310 C   0  0  0  0  0  0  0  0  0  0  0  0
   43.6840   34.9970   41.6660 C   0  0  0  0  0  0  0  0  0  0  0  0
   42.5020   35.0940   39.3720 C   0  0  0  0  0  0  0  0  0  0  0  0
   42.5720   34.8390   40.7250 C   0  0  0  0  0  0  0  0  0  0  0  0
   41.4370   34.3480   41.3790 C   0  0  0  0  0  0  0  0  0  0  0  0
   40.2630   34.1200   40.6900 C   0  0  0  0  0  0  0  0  0  0  0  0
   39.0370   33.6680   41.0210 N   0  0  0  0  0  0  0  0  0  0  0  0
   38.2270   33.6390   39.9240 C   0  0  0  0  0  0  0  0  0  0  0  0
   38.9430   34.0920   38.8150 C   0  0  0  0  0  0  0  0  0  0  0  0
   40.2030   34.3770   39.3470 C   0  0  0  0  0  0  0  0  0  0  0  0
   41.3170   34.8570   38.7170 C   0  0  0  0  0  0  0  0  0  0  0  0
   46.3380   32.6710   43.2500 C   0  0  0  0  0  0  0  0  0  0  0  0
   45.8200   32.4300   44.3110 O   0  0  0  0  0  0  0  0  0  0  0  0
   47.3170   32.4300   42.1820 C   0  0  0  0  0  0  0  0  0  0  0  0
   48.3140   33.2500   41.8170 C   0  0  0  0  0  0  0  0  0  0  0  0
   49.0310   32.8230   40.7100 C   0  0  0  0  0  0  0  0  0  0  0  0
   48.6700   31.6120   40.0920 N   0  0  0  0  0  0  0  0  0  0  0  0
   47.6730   30.8630   40.5220 C   0  0  0  0  0  0  0  0  0  0  0  0
   46.9350   31.2510   41.6130 N   0  0  0  0  0  0  0  0  0  0  0  0
   48.7510   34.4060   42.5100 C   0  0  0  0  0  0  0  0  0  0  0  0
   49.9650   35.0200   42.4520 C   0  0  0  0  0  0  0  0  0  0  0  0
   48.9090   35.7310   41.6510 C   0  0  0  0  0  0  0  0  0  0  0  0
   46.5579   35.2032   44.0687 H   0  0  0  0  0  0  0  0  0  0  0  0
   45.3641   37.2158   43.5686 H   0  0  0  0  0  0  0  0  0  0  0  0
   43.4582   37.0810   41.9813 H   0  0  0  0  0  0  0  0  0  0  0  0
   43.3767   35.4793   38.8276 H   0  0  0  0  0  0  0  0  0  0  0  0
   41.4808   34.1406   42.4584 H   0  0  0  0  0  0  0  0  0  0  0  0
   38.7519   33.3843   41.9692 H   0  0  0  0  0  0  0  0  0  0  0  0
   37.1771   33.3110   39.9148 H   0  0  0  0  0  0  0  0  0  0  0  0
   38.5991   34.1986   37.7756 H   0  0  0  0  0  0  0  0  0  0  0  0
   41.2628   35.0628   37.6378 H   0  0  0  0  0  0  0  0  0  0  0  0
   49.8683   33.4212   40.3213 H   0  0  0  0  0  0  0  0  0  0  0  0
   47.4316   29.9230   40.0041 H   0  0  0  0  0  0  0  0  0  0  0  0
   48.1971   34.0247   43.3805 H   0  0  0  0  0  0  0  0  0  0  0  0
   50.3574   35.5040   43.3585 H   0  0  0  0  0  0  0  0  0  0  0  0
   50.9640   34.6470   42.1821 H   0  0  0  0  0  0  0  0  0  0  0  0
   48.4814   36.6857   41.9912 H   0  0  0  0  0  0  0  0  0  0  0  0
   48.7487   36.0607   40.6139 H   0  0  0  0  0  0  0  0  0  0  0  0
  1  2  1  0
  2  3  2  0
  3 17  1  0
  3  4  1  0
  5  4  2  0
  6  5  1  0
  7  2  1  0
  7  6  2  0
  8  9  2  0
  9 10  1  0
  9  7  1  0
 11 12  1  0
 11 10  2  0
 13 12  1  0
 14 15  1  0
 14 13  2  0
 15 11  1  0
 16 15  2  0
 16  8  1  0
 17 18  2  0
 19 17  1  0
 20 19  1  0
 20 25  1  0
 21 20  2  0
 22 23  2  0
 22 21  1  0
 23 24  1  0
 24 19  2  0
 26 25  1  0
 27 26  1  0
 27 25  1  0
  4 28  1  0
  5 29  1  0
  6 30  1  0
  8 31  1  0
 10 32  1  0
 12 33  1  0
 13 34  1  0
 14 35  1  0
 16 36  1  0
 21 37  1  0
 23 38  1  0
 25 39  1  0
 26 40  1  0
 26 41  1  0
 27 42  1  0
 27 43  1  0
M  ISO  8  28  14  29  14  30  14  31  14  32  14  33   9  34  14  35  14
M  ISO  8  36  14  37  14  38  14  39  13  40  13  41  13  42  13  43  13
M  END
>  <minimizedAffinity>  (1) 
-6.88429976

>  <minimizedRMSD>  (1) 
2.01452637

$$$$
