
     RDKit          3D

 30 32  0  0  0  0  0  0  0  0999 V2000
   46.8910   34.2290   40.9760 C   0  0  0  0  0  0  0  0  0  0  0  0
   47.1990   34.5810   42.2930 C   0  0  0  0  0  0  0  0  0  0  0  0
   46.1240   35.0040   43.0930 C   0  0  0  0  0  0  0  0  0  0  0  0
   44.8840   35.0360   42.5250 N   0  0  0  0  0  0  0  0  0  0  0  0
   44.6460   34.6880   41.2580 C   0  0  0  0  0  0  0  0  0  0  0  0
   45.6580   34.2830   40.4820 N   0  0  0  0  0  0  0  0  0  0  0  0
   42.3130   35.2350   41.6740 C   0  0  0  0  0  0  0  0  0  0  0  0
   43.2690   34.7710   40.7810 C   0  0  0  0  0  0  0  0  0  0  0  0
   43.0080   34.3850   39.4810 C   0  0  0  0  0  0  0  0  0  0  0  0
   41.6840   34.4740   39.0510 C   0  0  0  0  0  0  0  0  0  0  0  0
   41.0860   34.1870   37.8710 N   0  0  0  0  0  0  0  0  0  0  0  0
   39.7630   34.4490   37.9610 C   0  0  0  0  0  0  0  0  0  0  0  0
   39.5000   34.9120   39.2160 C   0  0  0  0  0  0  0  0  0  0  0  0
   40.6790   34.9350   39.9080 C   0  0  0  0  0  0  0  0  0  0  0  0
   41.0080   35.3110   41.2150 C   0  0  0  0  0  0  0  0  0  0  0  0
   48.5600   34.5020   42.7760 C   0  0  0  0  0  0  0  0  0  0  0  0
   49.4080   35.5060   42.0060 C   0  0  0  0  0  0  0  0  0  0  0  0
   47.7058   33.8920   40.3184 H   0  0  0  0  0  0  0  0  0  0  0  0
   46.2771   35.2993   44.1415 H   0  0  0  0  0  0  0  0  0  0  0  0
   42.5795   35.5291   42.6999 H   0  0  0  0  0  0  0  0  0  0  0  0
   43.8065   34.0244   38.8160 H   0  0  0  0  0  0  0  0  0  0  0  0
   41.5650   33.8250   37.0341 H   0  0  0  0  0  0  0  0  0  0  0  0
   39.0239   34.3119   37.1579 H   0  0  0  0  0  0  0  0  0  0  0  0
   38.5153   35.2132   39.6028 H   0  0  0  0  0  0  0  0  0  0  0  0
   40.2176   35.6728   41.8891 H   0  0  0  0  0  0  0  0  0  0  0  0
   48.5867   34.7406   43.8495 H   0  0  0  0  0  0  0  0  0  0  0  0
   48.9532   33.4855   42.6270 H   0  0  0  0  0  0  0  0  0  0  0  0
   49.9504   36.1482   42.7155 H   0  0  0  0  0  0  0  0  0  0  0  0
   50.1291   34.9679   41.3732 H   0  0  0  0  0  0  0  0  0  0  0  0
   48.7568   36.1270   41.3732 H   0  0  0  0  0  0  0  0  0  0  0  0
  1  2  2  0
  2 16  1  0
  2  3  1  0
  4  3  2  0
  5  4  1  0
  6  1  1  0
  6  5  2  0
  8  5  1  0
  8  7  2  0
  9  8  1  0
 10  9  2  0
 10 14  1  0
 11 12  1  0
 11 10  1  0
 12 13  2  0
 13 14  1  0
 14 15  2  0
 15  7  1  0
 17 16  1  0
  1 18  1  0
  3 19  1  0
  7 20  1  0
  9 21  1  0
 11 22  1  0
 12 23  1  0
 13 24  1  0
 15 25  1  0
 16 26  1  0
 16 27  1  0
 17 28  1  0
 17 29  1  0
 17 30  1  0
M  ISO  8  18  14  19  14  20  14  21  14  22   9  23  14  24  14  25  14
M  ISO  5  26   8  27   8  28   8  29   8  30   8
M  END
>  <minimizedAffinity>  (1) 
-5.6837759

>  <minimizedRMSD>  (1) 
8.30814934

$$$$
