
     RDKit          3D

 27 29  0  0  0  0  0  0  0  0999 V2000
   45.0770   33.3950   41.2560 F   0  0  0  0  0  0  0  0  0  0  0  0
   46.2680   34.0180   41.1160 C   0  0  0  0  0  0  0  0  0  0  0  0
   46.8140   34.7600   42.1400 C   0  0  0  0  0  0  0  0  0  0  0  0
   48.0290   35.3510   41.8900 C   0  0  0  0  0  0  0  0  0  0  0  0
   48.7180   35.2530   40.7160 C   0  0  0  0  0  0  0  0  0  0  0  0
   48.1320   34.5020   39.7280 C   0  0  0  0  0  0  0  0  0  0  0  0
   46.9090   33.8790   39.9100 C   0  0  0  0  0  0  0  0  0  0  0  0
   44.4490   35.9540   44.8500 C   0  0  0  0  0  0  0  0  0  0  0  0
   45.1560   35.8810   43.6450 C   0  0  0  0  0  0  0  0  0  0  0  0
   46.0730   34.8560   43.3800 C   0  0  0  0  0  0  0  0  0  0  0  0
   46.2120   33.9520   44.3830 N   0  0  0  0  0  0  0  0  0  0  0  0
   45.5370   34.0140   45.5410 C   0  0  0  0  0  0  0  0  0  0  0  0
   44.6740   34.9960   45.7670 N   0  0  0  0  0  0  0  0  0  0  0  0
   46.3880   33.0980   38.7630 C   0  0  0  0  0  0  0  0  0  0  0  0
   45.4150   32.0980   38.7570 C   0  0  0  0  0  0  0  0  0  0  0  0
   45.0960   31.5210   37.5860 C   0  0  0  0  0  0  0  0  0  0  0  0
   45.8110   31.9980   36.3780 C   0  0  0  0  0  0  0  0  0  0  0  0
   46.9350   33.3110   37.1200 S   0  0  0  0  0  0  0  0  0  0  0  0
   48.4801   35.9478   42.6965 H   0  0  0  0  0  0  0  0  0  0  0  0
   49.6891   35.7485   40.5698 H   0  0  0  0  0  0  0  0  0  0  0  0
   48.6491   34.3918   38.7634 H   0  0  0  0  0  0  0  0  0  0  0  0
   43.7334   36.7673   45.0411 H   0  0  0  0  0  0  0  0  0  0  0  0
   44.9862   36.6538   42.8808 H   0  0  0  0  0  0  0  0  0  0  0  0
   45.7006   33.2441   46.3095 H   0  0  0  0  0  0  0  0  0  0  0  0
   44.9203   31.7889   39.6896 H   0  0  0  0  0  0  0  0  0  0  0  0
   44.3361   30.7279   37.5263 H   0  0  0  0  0  0  0  0  0  0  0  0
   45.7113   31.6725   35.3320 H   0  0  0  0  0  0  0  0  0  0  0  0
  2  1  1  0
  2  3  2  0
  3 10  1  0
  4  3  1  0
  5  4  2  0
  6  7  2  0
  6  5  1  0
  7  2  1  0
  8 13  2  0
  9  8  1  0
 10  9  2  0
 10 11  1  0
 11 12  2  0
 12 13  1  0
 14  7  1  0
 15 14  2  0
 16 15  1  0
 17 18  1  0
 17 16  2  0
 18 14  1  0
  4 19  1  0
  5 20  1  0
  6 21  1  0
  8 22  1  0
  9 23  1  0
 12 24  1  0
 15 25  1  0
 16 26  1  0
 17 27  1  0
M  ISO  8  19  14  20  14  21  14  22  14  23  14  24  14  25  14  26  14
M  ISO  1  27  14
M  END
>  <minimizedAffinity>  (1) 
-5.52899694

>  <minimizedRMSD>  (1) 
0.110786535

$$$$
