
     RDKit          3D

 39 41  0  0  1  0  0  0  0  0999 V2000
   47.2970   34.0630   42.5070 C   0  0  2  0  0  0  0  0  0  0  0  0
   48.6500   34.6440   42.6490 C   0  0  0  0  0  0  0  0  0  0  0  0
   48.9270   35.7030   41.6340 C   0  0  0  0  0  0  0  0  0  0  0  0
   48.7240   35.2440   40.2200 C   0  0  0  0  0  0  0  0  0  0  0  0
   47.5590   34.3150   40.0340 C   0  0  2  0  0  0  0  0  0  0  0  0
   46.6160   34.3650   41.2180 C   0  0  0  0  0  0  0  0  0  0  0  0
   46.3950   34.3880   43.6230 C   0  0  0  0  0  0  0  0  0  0  0  0
   45.5690   35.4830   43.3840 C   0  0  0  0  0  0  0  0  0  0  0  0
   44.6500   35.8830   44.3570 C   0  0  0  0  0  0  0  0  0  0  0  0
   44.6300   35.1390   45.5240 N   0  0  0  0  0  0  0  0  0  0  0  0
   45.4470   34.0850   45.7190 C   0  0  0  0  0  0  0  0  0  0  0  0
   46.3100   33.7310   44.7700 N   0  0  0  0  0  0  0  0  0  0  0  0
   48.0590   32.9540   39.7480 C   0  0  0  0  0  0  0  0  0  0  0  0
   47.2570   32.0560   38.9120 C   0  0  0  0  0  0  0  0  0  0  0  0
   47.3330   32.1190   37.4920 C   0  0  0  0  0  0  0  0  0  0  0  0
   46.6670   31.9350   36.3360 C   0  0  0  0  0  0  0  0  0  0  0  0
   47.1960   32.1500   35.1100 C   0  0  0  0  0  0  0  0  0  0  0  0
   48.5530   32.6010   35.1270 C   0  0  0  0  0  0  0  0  0  0  0  0
   48.9810   32.6850   36.9080 S   0  0  0  0  0  0  0  0  0  0  0  0
   47.5032   32.9826   42.5219 H   0  0  0  0  0  0  0  0  0  0  0  0
   48.7410   35.0849   43.6526 H   0  0  0  0  0  0  0  0  0  0  0  0
   49.3790   33.8348   42.4951 H   0  0  0  0  0  0  0  0  0  0  0  0
   48.2544   36.5523   41.8244 H   0  0  0  0  0  0  0  0  0  0  0  0
   49.9868   35.9795   41.7356 H   0  0  0  0  0  0  0  0  0  0  0  0
   48.5617   36.1308   39.5897 H   0  0  0  0  0  0  0  0  0  0  0  0
   49.6254   34.6796   39.9391 H   0  0  0  0  0  0  0  0  0  0  0  0
   46.9624   34.6418   39.1696 H   0  0  0  0  0  0  0  0  0  0  0  0
   46.1795   35.3729   41.2781 H   0  0  0  0  0  0  0  0  0  0  0  0
   45.8445   33.5967   41.0614 H   0  0  0  0  0  0  0  0  0  0  0  0
   45.6398   36.0309   42.4328 H   0  0  0  0  0  0  0  0  0  0  0  0
   43.9795   36.7415   44.2043 H   0  0  0  0  0  0  0  0  0  0  0  0
   45.4005   33.5185   46.6608 H   0  0  0  0  0  0  0  0  0  0  0  0
   49.0344   33.0680   39.2524 H   0  0  0  0  0  0  0  0  0  0  0  0
   48.0575   32.4637   40.7327 H   0  0  0  0  0  0  0  0  0  0  0  0
   47.5364   31.0306   39.1957 H   0  0  0  0  0  0  0  0  0  0  0  0
   46.2281   32.3874   39.1159 H   0  0  0  0  0  0  0  0  0  0  0  0
   45.6250   31.5872   36.3926 H   0  0  0  0  0  0  0  0  0  0  0  0
   46.6310   31.9916   34.1796 H   0  0  0  0  0  0  0  0  0  0  0  0
   49.1945   32.8427   34.2668 H   0  0  0  0  0  0  0  0  0  0  0  0
  1  2  1  0
  1  7  1  0
  3  2  1  0
  4  3  1  0
  5  4  1  0
  5  6  1  0
  6  1  1  0
  7 12  1  0
  8  7  2  0
  8  9  1  0
  9 10  2  0
 10 11  1  0
 12 11  2  0
 13  5  1  0
 14 13  1  0
 15 14  1  0
 16 15  2  0
 17 18  2  0
 17 16  1  0
 18 19  1  0
 19 15  1  0
  1 20  1  6
  2 21  1  0
  2 22  1  0
  3 23  1  0
  3 24  1  0
  4 25  1  0
  4 26  1  0
  5 27  1  6
  6 28  1  0
  6 29  1  0
  8 30  1  0
  9 31  1  0
 11 32  1  0
 13 33  1  0
 13 34  1  0
 14 35  1  0
 14 36  1  0
 16 37  1  0
 17 38  1  0
 18 39  1  0
M  ISO  8  20  13  21  13  22  13  23  13  24  13  25  13  26  13  27  13
M  ISO  8  28  13  29  13  30  14  31  14  32  14  33   8  34   8  35   8
M  ISO  4  36   8  37  14  38  14  39  14
M  END
>  <minimizedAffinity>  (1) 
-5.36906195

>  <minimizedRMSD>  (1) 
1.33631945

$$$$
