
     RDKit          3D

 43 46  0  0  1  0  0  0  0  0999 V2000
   44.5280   35.4490   45.1530 C   0  0  0  0  0  0  0  0  0  0  0  0
   45.1890   35.4630   43.9130 C   0  0  0  0  0  0  0  0  0  0  0  0
   46.1260   34.5230   43.6580 C   0  0  0  0  0  0  0  0  0  0  0  0
   46.3740   33.6090   44.6300 N   0  0  0  0  0  0  0  0  0  0  0  0
   45.7450   33.6030   45.7980 C   0  0  0  0  0  0  0  0  0  0  0  0
   44.8170   34.5180   46.0750 N   0  0  0  0  0  0  0  0  0  0  0  0
   46.0870   32.5920   46.7600 N   0  0  0  0  0  0  0  0  0  0  0  0
   45.3410   32.3220   47.9420 C   0  0  0  0  0  0  0  0  0  0  0  0
   46.4220   31.9830   48.9560 C   0  0  0  0  0  0  0  0  0  0  0  0
   47.7070   31.9170   48.1960 C   0  0  0  0  0  0  0  0  0  0  0  0
   47.2270   31.7030   46.7600 C   0  0  1  0  0  0  0  0  0  0  0  0
   44.8230   36.4900   42.9850 N   0  0  0  0  0  0  0  0  0  0  0  0
   46.7520   30.0050   46.5570 S   0  0  0  0  0  0  0  0  0  0  0  0
   45.4700   30.4130   43.5050 O   0  0  0  0  0  0  0  0  0  0  0  0
   44.9210   29.8920   44.4890 C   0  0  0  0  0  0  0  0  0  0  0  0
   45.1450   29.6950   45.9450 C   0  0  1  0  0  0  0  0  0  0  0  0
   44.6390   28.2890   46.1350 C   0  0  0  0  0  0  0  0  0  0  0  0
   43.2620   28.4760   45.4920 C   0  0  0  0  0  0  0  0  0  0  0  0
   43.6530   29.2310   44.3100 N   0  0  0  0  0  0  0  0  0  0  0  0
   42.7860   29.2540   43.1240 C   0  0  0  0  0  0  0  0  0  0  0  0
   42.9210   28.4430   42.0660 C   0  0  0  0  0  0  0  0  0  0  0  0
   42.0460   28.5610   41.0150 C   0  0  0  0  0  0  0  0  0  0  0  0
   41.0480   29.5020   41.0610 C   0  0  0  0  0  0  0  0  0  0  0  0
   41.3600   30.3180   42.7550 S   0  0  0  0  0  0  0  0  0  0  0  0
   43.7645   36.2104   45.3704 H   0  0  0  0  0  0  0  0  0  0  0  0
   46.6664   34.4997   42.7002 H   0  0  0  0  0  0  0  0  0  0  0  0
   44.7657   33.2050   48.2572 H   0  0  0  0  0  0  0  0  0  0  0  0
   44.5990   31.5202   47.8137 H   0  0  0  0  0  0  0  0  0  0  0  0
   46.4768   32.7636   49.7291 H   0  0  0  0  0  0  0  0  0  0  0  0
   46.2089   31.0303   49.4629 H   0  0  0  0  0  0  0  0  0  0  0  0
   48.2742   32.8547   48.2907 H   0  0  0  0  0  0  0  0  0  0  0  0
   48.3897   31.1320   48.5533 H   0  0  0  0  0  0  0  0  0  0  0  0
   47.9510   31.8998   45.9556 H   0  0  0  0  0  0  0  0  0  0  0  0
   45.2813   36.5390   42.0639 H   0  0  0  0  0  0  0  0  0  0  0  0
   44.1014   37.1798   43.2385 H   0  0  0  0  0  0  0  0  0  0  0  0
   44.6220   30.4480   46.5528 H   0  0  0  0  0  0  0  0  0  0  0  0
   45.2524   27.5486   45.6006 H   0  0  0  0  0  0  0  0  0  0  0  0
   44.6448   27.9067   47.1664 H   0  0  0  0  0  0  0  0  0  0  0  0
   42.7968   27.5143   45.2300 H   0  0  0  0  0  0  0  0  0  0  0  0
   42.5077   28.9599   46.1299 H   0  0  0  0  0  0  0  0  0  0  0  0
   43.7237   27.6914   42.0400 H   0  0  0  0  0  0  0  0  0  0  0  0
   42.1444   27.9034   40.1387 H   0  0  0  0  0  0  0  0  0  0  0  0
   40.2712   29.7265   40.3152 H   0  0  0  0  0  0  0  0  0  0  0  0
  1  6  2  0
  2  1  1  0
  3  2  2  0
  3  4  1  0
  4  5  2  0
  5  6  1  0
  5  7  1  0
  7 11  1  0
  7  8  1  0
  8  9  1  0
 10  9  1  0
 11 10  1  0
 12  2  1  0
 13 11  1  0
 14 15  2  0
 15 16  1  0
 16 17  1  0
 16 13  1  0
 18 17  1  0
 19 15  1  0
 19 18  1  0
 20 19  1  0
 21 20  2  0
 22 23  2  0
 22 21  1  0
 23 24  1  0
 24 20  1  0
  1 25  1  0
  3 26  1  0
  8 27  1  0
  8 28  1  0
  9 29  1  0
  9 30  1  0
 10 31  1  0
 10 32  1  0
 11 33  1  6
 12 34  1  0
 12 35  1  0
 16 36  1  1
 17 37  1  0
 17 38  1  0
 18 39  1  0
 18 40  1  0
 21 41  1  0
 22 42  1  0
 23 43  1  0
M  ISO  8  25  14  26  14  27  13  28  13  29  13  30  13  31  13  32  13
M  ISO  8  33  13  36  13  37  13  38  13  39  13  40  13  41  14  42  14
M  ISO  1  43  14
M  END
>  <minimizedAffinity>  (1) 
-5.2649951

>  <minimizedRMSD>  (1) 
0.539730489

$$$$
