
     RDKit          3D

 45 49  0  0  1  0  0  0  0  0999 V2000
   48.7060   29.8800   46.2760 N   0  0  0  0  0  0  0  0  0  0  0  0
   48.5410   29.6680   44.8720 C   0  0  1  0  0  0  0  0  0  0  0  0
   47.6070   28.5140   44.6610 C   0  0  0  0  0  0  0  0  0  0  0  0
   46.3210   28.9880   45.1450 N   0  0  0  0  0  0  0  0  0  0  0  0
   46.3330   29.1670   46.5670 C   0  0  0  0  0  0  0  0  0  0  0  0
   47.5790   29.7990   47.1220 C   0  0  2  0  0  0  0  0  0  0  0  0
   46.9420   32.6630   43.8860 C   0  0  0  0  0  0  0  0  0  0  0  0
   47.5140   32.2910   42.6790 C   0  0  0  0  0  0  0  0  0  0  0  0
   48.1900   31.1210   42.8780 C   0  0  0  0  0  0  0  0  0  0  0  0
   48.0230   30.8020   44.1840 N   0  0  0  0  0  0  0  0  0  0  0  0
   47.2820   31.7280   44.7590 N   0  0  0  0  0  0  0  0  0  0  0  0
   44.7460   35.1430   45.4690 C   0  0  0  0  0  0  0  0  0  0  0  0
   44.6250   36.1320   44.4840 C   0  0  0  0  0  0  0  0  0  0  0  0
   45.2980   35.9300   43.2910 C   0  0  0  0  0  0  0  0  0  0  0  0
   46.0330   34.7910   43.1480 N   0  0  0  0  0  0  0  0  0  0  0  0
   46.1280   33.8630   44.1170 C   0  0  0  0  0  0  0  0  0  0  0  0
   45.4890   34.0240   45.2860 N   0  0  0  0  0  0  0  0  0  0  0  0
   47.1750   31.1380   47.7120 C   0  0  1  0  0  0  0  0  0  0  0  0
   46.6510   31.0710   49.1380 C   0  0  0  0  0  0  0  0  0  0  0  0
   47.8920   31.8070   48.7940 C   0  0  1  0  0  0  0  0  0  0  0  0
   49.1260   31.2210   49.4270 C   0  0  0  0  0  0  0  0  0  0  0  0
   49.4810   29.8730   49.8350 C   0  0  0  0  0  0  0  0  0  0  0  0
   50.7400   29.7770   50.3450 C   0  0  0  0  0  0  0  0  0  0  0  0
   51.6000   30.8000   50.4760 C   0  0  0  0  0  0  0  0  0  0  0  0
   50.6810   32.2130   49.8360 S   0  0  0  0  0  0  0  0  0  0  0  0
   49.1031   30.8231   46.3933 H   0  0  0  0  0  0  0  0  0  0  0  0
   49.5412   29.4670   44.4606 H   0  0  0  0  0  0  0  0  0  0  0  0
   47.5478   28.2527   43.5941 H   0  0  0  0  0  0  0  0  0  0  0  0
   47.9408   27.6066   45.1856 H   0  0  0  0  0  0  0  0  0  0  0  0
   46.1048   29.8891   44.6953 H   0  0  0  0  0  0  0  0  0  0  0  0
   45.4786   29.8050   46.8369 H   0  0  0  0  0  0  0  0  0  0  0  0
   46.2826   28.1580   47.0021 H   0  0  0  0  0  0  0  0  0  0  0  0
   47.9707   29.1134   47.8879 H   0  0  0  0  0  0  0  0  0  0  0  0
   47.4370   32.8408   41.7294 H   0  0  0  0  0  0  0  0  0  0  0  0
   48.7571   30.5512   42.1273 H   0  0  0  0  0  0  0  0  0  0  0  0
   44.2193   35.2794   46.4250 H   0  0  0  0  0  0  0  0  0  0  0  0
   44.0186   37.0343   44.6520 H   0  0  0  0  0  0  0  0  0  0  0  0
   45.2410   36.6700   42.4791 H   0  0  0  0  0  0  0  0  0  0  0  0
   46.8583   31.4973   46.7217 H   0  0  0  0  0  0  0  0  0  0  0  0
   45.7407   31.6197   49.4212 H   0  0  0  0  0  0  0  0  0  0  0  0
   46.3784   30.2701   49.8411 H   0  0  0  0  0  0  0  0  0  0  0  0
   48.2803   32.8339   48.8617 H   0  0  0  0  0  0  0  0  0  0  0  0
   48.8000   29.0143   49.7413 H   0  0  0  0  0  0  0  0  0  0  0  0
   51.0790   28.7841   50.6754 H   0  0  0  0  0  0  0  0  0  0  0  0
   52.6235   30.7805   50.8787 H   0  0  0  0  0  0  0  0  0  0  0  0
  1  6  1  0
  2  1  1  0
  3  2  1  0
  3  4  1  0
  4  5  1  0
  5  6  1  0
  6 18  1  0
  7 16  1  0
  7 11  2  0
  8  9  2  0
  8  7  1  0
  9 10  1  0
 10 11  1  0
 10  2  1  0
 13 12  2  0
 14 13  1  0
 15 14  2  0
 15 16  1  0
 16 17  2  0
 17 12  1  0
 18 20  1  0
 18 19  1  0
 20 19  1  0
 20 21  1  0
 21 22  2  0
 21 25  1  0
 22 23  1  0
 23 24  2  0
 25 24  1  0
  1 26  1  0
  2 27  1  6
  3 28  1  0
  3 29  1  0
  4 30  1  0
  5 31  1  0
  5 32  1  0
  6 33  1  1
  8 34  1  0
  9 35  1  0
 12 36  1  0
 13 37  1  0
 14 38  1  0
 18 39  1  6
 19 40  1  0
 19 41  1  0
 20 42  1  6
 22 43  1  0
 23 44  1  0
 24 45  1  0
M  ISO  8  26   5  27  13  28  13  29  13  30   5  31  13  32  13  33  13
M  ISO  8  34  14  35  14  36  14  37  14  38  14  39  13  40  13  41  13
M  ISO  4  42  13  43  14  44  14  45  14
M  END
>  <minimizedAffinity>  (1) 
-5.22091532

>  <minimizedRMSD>  (1) 
1.58758569

$$$$
