
     RDKit          3D

 34 36  0  0  0  0  0  0  0  0999 V2000
   46.7780   34.1140   42.9880 C   0  0  0  0  0  0  0  0  0  0  0  0
   45.6370   33.6770   42.3230 C   0  0  0  0  0  0  0  0  0  0  0  0
   44.8940   32.6460   42.9170 C   0  0  0  0  0  0  0  0  0  0  0  0
   45.3150   32.1300   44.1000 N   0  0  0  0  0  0  0  0  0  0  0  0
   46.4270   32.5820   44.7130 C   0  0  0  0  0  0  0  0  0  0  0  0
   47.1560   33.5770   44.1510 N   0  0  0  0  0  0  0  0  0  0  0  0
   47.3290   29.9220   44.9920 F   0  0  0  0  0  0  0  0  0  0  0  0
   47.3250   30.7360   46.1010 C   0  0  0  0  0  0  0  0  0  0  0  0
   46.8900   32.0320   45.9840 C   0  0  0  0  0  0  0  0  0  0  0  0
   46.9150   32.7910   47.1480 C   0  0  0  0  0  0  0  0  0  0  0  0
   47.3500   32.2630   48.3330 C   0  0  0  0  0  0  0  0  0  0  0  0
   47.7760   30.9480   48.3840 C   0  0  0  0  0  0  0  0  0  0  0  0
   47.7710   30.1500   47.2540 C   0  0  0  0  0  0  0  0  0  0  0  0
   48.2370   28.8040   47.4350 C   0  0  0  0  0  0  0  0  0  0  0  0
   47.4430   27.5730   47.3740 C   0  0  0  0  0  0  0  0  0  0  0  0
   48.1380   26.4200   47.5860 C   0  0  0  0  0  0  0  0  0  0  0  0
   49.5530   26.4380   47.8480 C   0  0  0  0  0  0  0  0  0  0  0  0
   49.8500   28.3120   47.7710 S   0  0  0  0  0  0  0  0  0  0  0  0
   45.2440   34.2890   41.0410 C   0  0  0  0  0  0  0  0  0  0  0  0
   44.9480   35.6270   41.2320 F   0  0  0  0  0  0  0  0  0  0  0  0
   46.3620   34.2630   40.1960 F   0  0  0  0  0  0  0  0  0  0  0  0
   44.2080   33.6960   40.3980 F   0  0  0  0  0  0  0  0  0  0  0  0
   47.4900   35.1130   42.4040 O   0  0  0  0  0  0  0  0  0  0  0  0
   48.8060   35.0420   41.9160 C   0  0  0  0  0  0  0  0  0  0  0  0
   49.6530   35.3250   42.9900 F   0  0  0  0  0  0  0  0  0  0  0  0
   49.0300   33.8110   41.3610 F   0  0  0  0  0  0  0  0  0  0  0  0
   49.0190   36.0800   41.0320 F   0  0  0  0  0  0  0  0  0  0  0  0
   43.9846   32.2617   42.4319 H   0  0  0  0  0  0  0  0  0  0  0  0
   46.5782   33.8377   47.1160 H   0  0  0  0  0  0  0  0  0  0  0  0
   47.3609   32.8822   49.2421 H   0  0  0  0  0  0  0  0  0  0  0  0
   48.1248   30.5295   49.3396 H   0  0  0  0  0  0  0  0  0  0  0  0
   46.3619   27.5796   47.1713 H   0  0  0  0  0  0  0  0  0  0  0  0
   47.6072   25.4570   47.5563 H   0  0  0  0  0  0  0  0  0  0  0  0
   50.2542   25.6117   48.0368 H   0  0  0  0  0  0  0  0  0  0  0  0
  1  6  2  0
  2  3  2  0
  2  1  1  0
  3  4  1  0
  4  5  2  0
  5  9  1  0
  6  5  1  0
  7  8  1  0
  8 13  2  0
  9  8  1  0
  9 10  2  0
 10 11  1  0
 11 12  2  0
 13 14  1  0
 13 12  1  0
 14 18  1  0
 15 14  2  0
 15 16  1  0
 16 17  2  0
 18 17  1  0
 19 20  1  0
 19  2  1  0
 21 19  1  0
 22 19  1  0
 23  1  1  0
 24 23  1  0
 24 25  1  0
 26 24  1  0
 27 24  1  0
  3 28  1  0
 10 29  1  0
 11 30  1  0
 12 31  1  0
 15 32  1  0
 16 33  1  0
 17 34  1  0
M  ISO  7  28  14  29  14  30  14  31  14  32  14  33  14  34  14
M  END
>  <minimizedAffinity>  (1) 
-5.56535625

>  <minimizedRMSD>  (1) 
0.451554447

$$$$
