
     RDKit          3D

 37 39  0  0  0  0  0  0  0  0999 V2000
   47.5780   29.9960   44.9200 F   0  0  0  0  0  0  0  0  0  0  0  0
   47.4880   30.7540   46.0570 C   0  0  0  0  0  0  0  0  0  0  0  0
   46.9500   32.0250   45.9920 C   0  0  0  0  0  0  0  0  0  0  0  0
   46.8950   32.7270   47.1900 C   0  0  0  0  0  0  0  0  0  0  0  0
   47.3540   32.1760   48.3560 C   0  0  0  0  0  0  0  0  0  0  0  0
   47.8860   30.8930   48.3620 C   0  0  0  0  0  0  0  0  0  0  0  0
   47.9630   30.1500   47.1900 C   0  0  0  0  0  0  0  0  0  0  0  0
   46.7980   34.1430   43.0260 C   0  0  0  0  0  0  0  0  0  0  0  0
   45.6390   33.7120   42.3740 C   0  0  0  0  0  0  0  0  0  0  0  0
   44.9010   32.6700   42.9760 C   0  0  0  0  0  0  0  0  0  0  0  0
   45.3350   32.1370   44.1410 N   0  0  0  0  0  0  0  0  0  0  0  0
   46.4670   32.5880   44.7390 C   0  0  0  0  0  0  0  0  0  0  0  0
   47.1770   33.5740   44.1810 N   0  0  0  0  0  0  0  0  0  0  0  0
   45.2310   34.3420   41.1090 C   0  0  0  0  0  0  0  0  0  0  0  0
   44.9510   35.6840   41.3190 F   0  0  0  0  0  0  0  0  0  0  0  0
   46.3140   34.2890   40.2380 F   0  0  0  0  0  0  0  0  0  0  0  0
   44.1570   33.7790   40.5050 F   0  0  0  0  0  0  0  0  0  0  0  0
   47.4930   35.1340   42.4480 O   0  0  0  0  0  0  0  0  0  0  0  0
   48.8190   35.0500   41.9360 C   0  0  0  0  0  0  0  0  0  0  0  0
   49.6780   35.2970   42.9910 F   0  0  0  0  0  0  0  0  0  0  0  0
   49.0190   33.8340   41.3540 F   0  0  0  0  0  0  0  0  0  0  0  0
   49.0250   36.1050   41.0690 F   0  0  0  0  0  0  0  0  0  0  0  0
   48.5350   28.7710   47.1830 C   0  0  0  0  0  0  0  0  0  0  0  0
   49.8840   28.7990   47.7190 C   0  0  0  0  0  0  0  0  0  0  0  0
   51.1290   29.3160   47.2960 C   0  0  0  0  0  0  0  0  0  0  0  0
   52.1990   29.1270   48.1260 C   0  0  0  0  0  0  0  0  0  0  0  0
   52.0180   28.4460   49.3300 C   0  0  0  0  0  0  0  0  0  0  0  0
   50.2640   28.0050   49.3850 S   0  0  0  0  0  0  0  0  0  0  0  0
   46.4751   33.7436   47.2016 H   0  0  0  0  0  0  0  0  0  0  0  0
   47.3013   32.7516   49.2919 H   0  0  0  0  0  0  0  0  0  0  0  0
   48.2506   30.4600   49.3052 H   0  0  0  0  0  0  0  0  0  0  0  0
   43.9818   32.2951   42.5022 H   0  0  0  0  0  0  0  0  0  0  0  0
   47.9088   28.1121   47.8025 H   0  0  0  0  0  0  0  0  0  0  0  0
   48.5606   28.3921   46.1506 H   0  0  0  0  0  0  0  0  0  0  0  0
   51.2331   29.8483   46.3390 H   0  0  0  0  0  0  0  0  0  0  0  0
   53.1925   29.5081   47.8472 H   0  0  0  0  0  0  0  0  0  0  0  0
   52.7829   28.2233   50.0885 H   0  0  0  0  0  0  0  0  0  0  0  0
  1  2  1  0
  2  7  2  0
  3  2  1  0
  3  4  2  0
  4  5  1  0
  5  6  2  0
  7  6  1  0
  8 13  2  0
  9 10  2  0
  9  8  1  0
 10 11  1  0
 11 12  2  0
 12  3  1  0
 13 12  1  0
 14 15  1  0
 14  9  1  0
 16 14  1  0
 17 14  1  0
 18  8  1  0
 19 18  1  0
 19 20  1  0
 21 19  1  0
 22 19  1  0
 23  7  1  0
 23 24  1  0
 24 28  1  0
 25 24  2  0
 25 26  1  0
 26 27  2  0
 27 28  1  0
  4 29  1  0
  5 30  1  0
  6 31  1  0
 10 32  1  0
 23 33  1  0
 23 34  1  0
 25 35  1  0
 26 36  1  0
 27 37  1  0
M  ISO  8  29  14  30  14  31  14  32  14  33   8  34   8  35  14  36  14
M  ISO  1  37  14
M  END
>  <minimizedAffinity>  (1) 
-5.57321548

>  <minimizedRMSD>  (1) 
1.10087311

$$$$
