
     RDKit          3D

 32 34  0  0  0  0  0  0  0  0999 V2000
   48.5670   33.0910   41.3150 C   0  0  0  0  0  0  0  0  0  0  0  0
   48.0650   34.2850   41.8200 C   0  0  0  0  0  0  0  0  0  0  0  0
   48.9170   35.1140   42.5060 C   0  0  0  0  0  0  0  0  0  0  0  0
   50.2430   34.7480   42.6770 C   0  0  0  0  0  0  0  0  0  0  0  0
   50.6970   33.5530   42.1580 C   0  0  0  0  0  0  0  0  0  0  0  0
   49.8620   32.6770   41.4520 C   0  0  0  0  0  0  0  0  0  0  0  0
   46.6330   34.5410   41.5610 C   0  0  0  0  0  0  0  0  0  0  0  0
   45.9320   34.8370   42.8750 C   0  0  0  0  0  0  0  0  0  0  0  0
   45.9730   33.8640   43.8550 C   0  0  0  0  0  0  0  0  0  0  0  0
   45.3400   34.1380   45.0630 C   0  0  0  0  0  0  0  0  0  0  0  0
   44.7270   35.3340   45.2030 N   0  0  0  0  0  0  0  0  0  0  0  0
   44.7040   36.2660   44.2220 C   0  0  0  0  0  0  0  0  0  0  0  0
   45.3100   36.0160   43.0550 N   0  0  0  0  0  0  0  0  0  0  0  0
   47.7720   32.1690   40.5950 O   0  0  0  0  0  0  0  0  0  0  0  0
   50.4030   31.5090   40.9700 O   0  0  0  0  0  0  0  0  0  0  0  0
   51.3210   31.4290   39.9730 C   0  0  0  0  0  0  0  0  0  0  0  0
   52.7300   31.2770   40.1040 C   0  0  0  0  0  0  0  0  0  0  0  0
   53.4360   31.2230   38.9640 C   0  0  0  0  0  0  0  0  0  0  0  0
   52.7410   31.3190   37.7170 C   0  0  0  0  0  0  0  0  0  0  0  0
   50.9190   31.5030   38.2200 S   0  0  0  0  0  0  0  0  0  0  0  0
   48.5491   36.0651   42.9185 H   0  0  0  0  0  0  0  0  0  0  0  0
   50.9313   35.4084   43.2249 H   0  0  0  0  0  0  0  0  0  0  0  0
   51.7521   33.2782   42.3037 H   0  0  0  0  0  0  0  0  0  0  0  0
   46.5298   35.4039   40.8866 H   0  0  0  0  0  0  0  0  0  0  0  0
   46.1788   33.6559   41.0915 H   0  0  0  0  0  0  0  0  0  0  0  0
   46.4879   32.9067   43.6860 H   0  0  0  0  0  0  0  0  0  0  0  0
   45.3385   33.4022   45.8807 H   0  0  0  0  0  0  0  0  0  0  0  0
   44.1895   37.2248   44.3830 H   0  0  0  0  0  0  0  0  0  0  0  0
   46.8147   32.3620   40.4326 H   0  0  0  0  0  0  0  0  0  0  0  0
   53.2152   31.2074   41.0887 H   0  0  0  0  0  0  0  0  0  0  0  0
   54.5296   31.1070   38.9878 H   0  0  0  0  0  0  0  0  0  0  0  0
   53.1641   31.2924   36.7020 H   0  0  0  0  0  0  0  0  0  0  0  0
  1  6  2  0
  1  2  1  0
  2  3  2  0
  3  4  1  0
  5  4  2  0
  6  5  1  0
  7  2  1  0
  7  8  1  0
  8 13  1  0
  8  9  2  0
  9 10  1  0
 10 11  2  0
 12 11  1  0
 13 12  2  0
 14  1  1  0
 15  6  1  0
 16 17  2  0
 16 15  1  0
 18 17  1  0
 19 20  1  0
 19 18  2  0
 20 16  1  0
  3 21  1  0
  4 22  1  0
  5 23  1  0
  7 24  1  0
  7 25  1  0
  9 26  1  0
 10 27  1  0
 12 28  1  0
 14 29  1  0
 17 30  1  0
 18 31  1  0
 19 32  1  0
M  ISO  8  21  14  22  14  23  14  24   8  25   8  26  14  27  14  28  14
M  ISO  4  29   3  30  14  31  14  32  14
M  END
>  <minimizedAffinity>  (1) 
-5.27428818

>  <minimizedRMSD>  (1) 
1.4934504

$$$$
