
     RDKit          3D

 44 47  0  0  0  0  0  0  0  0999 V2000
   42.9610   32.2230   39.4230 Cl  0  0  0  0  0  0  0  0  0  0  0  0
   41.9080   33.5400   39.9350 C   0  0  0  0  0  0  0  0  0  0  0  0
   42.3930   34.7050   40.5240 C   0  0  0  0  0  0  0  0  0  0  0  0
   41.5360   35.6920   40.9020 C   0  0  0  0  0  0  0  0  0  0  0  0
   40.1740   35.6010   40.7290 C   0  0  0  0  0  0  0  0  0  0  0  0
   39.6520   34.4440   40.1380 C   0  0  0  0  0  0  0  0  0  0  0  0
   37.9290   34.2370   39.8750 Cl  0  0  0  0  0  0  0  0  0  0  0  0
   40.5440   33.4610   39.7650 C   0  0  0  0  0  0  0  0  0  0  0  0
   39.8580   31.3310   41.3080 F   0  0  0  0  0  0  0  0  0  0  0  0
   39.6900   31.1830   39.9500 C   0  0  0  0  0  0  0  0  0  0  0  0
   40.0280   32.2410   39.1450 C   0  0  0  0  0  0  0  0  0  0  0  0
   39.8460   32.0640   37.7640 C   0  0  0  0  0  0  0  0  0  0  0  0
   39.3450   30.8510   37.3070 C   0  0  0  0  0  0  0  0  0  0  0  0
   39.0200   29.8080   38.1920 C   0  0  0  0  0  0  0  0  0  0  0  0
   39.1920   29.9620   39.5560 C   0  0  0  0  0  0  0  0  0  0  0  0
   43.7860   34.7810   40.6950 O   0  0  0  0  0  0  0  0  0  0  0  0
   44.3320   34.2610   41.8670 C   0  0  0  0  0  0  0  0  0  0  0  0
   44.0630   33.1230   42.4050 O   0  0  0  0  0  0  0  0  0  0  0  0
   45.2950   35.0040   42.6140 N   0  0  0  0  0  0  0  0  0  0  0  0
   45.6610   34.2430   43.7920 C   0  0  0  0  0  0  0  0  0  0  0  0
   45.2110   34.4620   45.0560 C   0  0  0  0  0  0  0  0  0  0  0  0
   45.6600   33.6440   46.0590 C   0  0  0  0  0  0  0  0  0  0  0  0
   46.5260   32.6680   45.7200 N   0  0  0  0  0  0  0  0  0  0  0  0
   46.9590   32.4700   44.4560 C   0  0  0  0  0  0  0  0  0  0  0  0
   46.5240   33.2730   43.4470 N   0  0  0  0  0  0  0  0  0  0  0  0
   47.9200   31.3740   44.1480 C   0  0  0  0  0  0  0  0  0  0  0  0
   48.1530   30.2460   44.7900 C   0  0  0  0  0  0  0  0  0  0  0  0
   49.0840   29.3480   44.3550 C   0  0  0  0  0  0  0  0  0  0  0  0
   49.7710   29.7620   43.1400 C   0  0  0  0  0  0  0  0  0  0  0  0
   48.9740   31.4130   42.7750 S   0  0  0  0  0  0  0  0  0  0  0  0
   44.2960   35.5390   45.2420 N   0  0  0  0  0  0  0  0  0  0  0  0
   41.9491   36.6002   41.3650 H   0  0  0  0  0  0  0  0  0  0  0  0
   39.5105   36.4184   41.0477 H   0  0  0  0  0  0  0  0  0  0  0  0
   40.0951   32.8697   37.0577 H   0  0  0  0  0  0  0  0  0  0  0  0
   39.1992   30.7033   36.2268 H   0  0  0  0  0  0  0  0  0  0  0  0
   38.6253   28.8606   37.7961 H   0  0  0  0  0  0  0  0  0  0  0  0
   38.9481   29.1654   40.2744 H   0  0  0  0  0  0  0  0  0  0  0  0
   45.6685   35.9291   42.3579 H   0  0  0  0  0  0  0  0  0  0  0  0
   45.3274   33.7781   47.0989 H   0  0  0  0  0  0  0  0  0  0  0  0
   47.5805   30.0225   45.7023 H   0  0  0  0  0  0  0  0  0  0  0  0
   49.2953   28.4011   44.8733 H   0  0  0  0  0  0  0  0  0  0  0  0
   50.5585   29.2370   42.5795 H   0  0  0  0  0  0  0  0  0  0  0  0
   43.9267   35.7447   46.1813 H   0  0  0  0  0  0  0  0  0  0  0  0
   44.0041   36.1116   44.4371 H   0  0  0  0  0  0  0  0  0  0  0  0
  1  2  1  0
  2  3  2  0
  3 16  1  0
  3  4  1  0
  5  4  2  0
  6  5  1  0
  7  6  1  0
  8  2  1  0
  8  6  2  0
 10  9  1  0
 11  8  1  0
 11 10  2  0
 12 11  1  0
 13 12  2  0
 13 14  1  0
 14 15  2  0
 15 10  1  0
 16 17  1  0
 17 18  2  0
 17 19  1  0
 19 20  1  0
 20 21  2  0
 21 31  1  0
 21 22  1  0
 23 22  2  0
 24 23  1  0
 25 20  1  0
 25 24  2  0
 26 24  1  0
 26 27  2  0
 28 27  1  0
 29 28  2  0
 30 29  1  0
 30 26  1  0
  4 32  1  0
  5 33  1  0
 12 34  1  0
 13 35  1  0
 14 36  1  0
 15 37  1  0
 19 38  1  0
 22 39  1  0
 27 40  1  0
 28 41  1  0
 29 42  1  0
 31 43  1  0
 31 44  1  0
M  ISO  8  32  14  33  14  34  14  35  14  36  14  37  14  39  14  40  14
M  ISO  2  41  14  42  14
M  END
>  <minimizedAffinity>  (1) 
-6.28621101

>  <minimizedRMSD>  (1) 
0.447759718

$$$$
