
     RDKit          3D

 31 33  0  0  1  0  0  0  0  0999 V2000
   47.0800   34.2500   42.4290 N   0  0  0  0  0  0  0  0  0  0  0  0
   47.6340   35.0620   41.3710 C   0  0  0  0  0  0  0  0  0  0  0  0
   47.3810   34.1250   40.2210 C   0  0  2  0  0  0  0  0  0  0  0  0
   47.9890   32.8510   40.7420 C   0  0  0  0  0  0  0  0  0  0  0  0
   47.5750   32.8910   42.2110 C   0  0  0  0  0  0  0  0  0  0  0  0
   44.5500   35.8520   44.6390 C   0  0  0  0  0  0  0  0  0  0  0  0
   45.3350   35.6370   43.5060 C   0  0  0  0  0  0  0  0  0  0  0  0
   46.2320   34.5780   43.4990 C   0  0  0  0  0  0  0  0  0  0  0  0
   46.2790   33.8070   44.6260 N   0  0  0  0  0  0  0  0  0  0  0  0
   45.5250   34.0090   45.7190 C   0  0  0  0  0  0  0  0  0  0  0  0
   44.6440   35.0590   45.7140 N   0  0  0  0  0  0  0  0  0  0  0  0
   48.1330   34.5230   39.0630 N   0  0  0  0  0  0  0  0  0  0  0  0
   48.0240   33.8440   37.8620 C   0  0  0  0  0  0  0  0  0  0  0  0
   48.9450   33.5760   36.9150 C   0  0  0  0  0  0  0  0  0  0  0  0
   48.5930   32.8750   35.7950 C   0  0  0  0  0  0  0  0  0  0  0  0
   47.2370   32.4660   35.7040 C   0  0  0  0  0  0  0  0  0  0  0  0
   46.4780   33.1190   37.2840 S   0  0  0  0  0  0  0  0  0  0  0  0
   47.0978   36.0155   41.2553 H   0  0  0  0  0  0  0  0  0  0  0  0
   48.6776   35.3815   41.5083 H   0  0  0  0  0  0  0  0  0  0  0  0
   46.3223   34.0738   39.9267 H   0  0  0  0  0  0  0  0  0  0  0  0
   47.5730   31.9698   40.2317 H   0  0  0  0  0  0  0  0  0  0  0  0
   49.0753   32.7770   40.5853 H   0  0  0  0  0  0  0  0  0  0  0  0
   46.7823   32.1546   42.4093 H   0  0  0  0  0  0  0  0  0  0  0  0
   48.4106   32.6434   42.8822 H   0  0  0  0  0  0  0  0  0  0  0  0
   43.8386   36.6909   44.6496 H   0  0  0  0  0  0  0  0  0  0  0  0
   45.2443   36.2972   42.6309 H   0  0  0  0  0  0  0  0  0  0  0  0
   45.6122   33.3493   46.5949 H   0  0  0  0  0  0  0  0  0  0  0  0
   48.7674   35.3318   39.1283 H   0  0  0  0  0  0  0  0  0  0  0  0
   49.9813   33.9217   37.0434 H   0  0  0  0  0  0  0  0  0  0  0  0
   49.3226   32.6404   35.0059 H   0  0  0  0  0  0  0  0  0  0  0  0
   46.7489   31.9000   34.8969 H   0  0  0  0  0  0  0  0  0  0  0  0
  1  8  1  0
  2  1  1  0
  3  4  1  0
  3  2  1  0
  4  5  1  0
  5  1  1  0
  6 11  2  0
  7  6  1  0
  8  7  2  0
  8  9  1  0
  9 10  2  0
 11 10  1  0
 12  3  1  0
 13 12  1  0
 14 13  2  0
 15 14  1  0
 16 15  2  0
 16 17  1  0
 17 13  1  0
  2 18  1  0
  2 19  1  0
  3 20  1  6
  4 21  1  0
  4 22  1  0
  5 23  1  0
  5 24  1  0
  6 25  1  0
  7 26  1  0
 10 27  1  0
 12 28  1  0
 14 29  1  0
 15 30  1  0
 16 31  1  0
M  ISO  8  18  13  19  13  20  13  21  13  22  13  23  13  24  13  25  14
M  ISO  5  26  14  27  14  29  14  30  14  31  14
M  END
>  <minimizedAffinity>  (1) 
-4.77531147

>  <minimizedRMSD>  (1) 
0.603191018

$$$$
