
     RDKit          3D

 35 37  0  0  1  0  0  0  0  0999 V2000
   46.8360   32.7330   45.1690 N   0  0  0  0  0  0  0  0  0  0  0  0
   46.4950   33.0140   46.5600 C   0  0  0  0  0  0  0  0  0  0  0  0
   47.2640   32.0020   47.4000 C   0  0  0  0  0  0  0  0  0  0  0  0
   46.6220   30.6560   47.1760 C   0  0  0  0  0  0  0  0  0  0  0  0
   46.7260   30.3610   45.7060 C   0  0  0  0  0  0  0  0  0  0  0  0
   47.2680   31.4240   44.8610 C   0  0  1  0  0  0  0  0  0  0  0  0
   47.6000   34.9960   42.3470 C   0  0  0  0  0  0  0  0  0  0  0  0
   47.7880   34.0380   43.3500 C   0  0  0  0  0  0  0  0  0  0  0  0
   46.7270   33.7060   44.1750 C   0  0  0  0  0  0  0  0  0  0  0  0
   45.5370   34.3340   43.9760 N   0  0  0  0  0  0  0  0  0  0  0  0
   45.3570   35.2660   43.0010 C   0  0  0  0  0  0  0  0  0  0  0  0
   46.3890   35.5920   42.1910 N   0  0  0  0  0  0  0  0  0  0  0  0
   48.7640   35.3050   41.4630 C   0  0  0  0  0  0  0  0  0  0  0  0
   48.4210   35.2170   40.1180 F   0  0  0  0  0  0  0  0  0  0  0  0
   49.2100   36.5700   41.7860 F   0  0  0  0  0  0  0  0  0  0  0  0
   49.7970   34.4120   41.7280 F   0  0  0  0  0  0  0  0  0  0  0  0
   46.5790   31.1230   43.4540 C   0  0  0  0  0  0  0  0  0  0  0  0
   47.3670   30.9500   42.2110 C   0  0  0  0  0  0  0  0  0  0  0  0
   46.5360   30.7410   41.1460 C   0  0  0  0  0  0  0  0  0  0  0  0
   45.1780   30.6980   41.2170 C   0  0  0  0  0  0  0  0  0  0  0  0
   44.9020   30.9940   43.0740 S   0  0  0  0  0  0  0  0  0  0  0  0
   46.7958   34.0379   46.8268 H   0  0  0  0  0  0  0  0  0  0  0  0
   45.4112   32.9347   46.7305 H   0  0  0  0  0  0  0  0  0  0  0  0
   48.3176   31.9740   47.0851 H   0  0  0  0  0  0  0  0  0  0  0  0
   47.2345   32.2760   48.4649 H   0  0  0  0  0  0  0  0  0  0  0  0
   47.1502   29.8841   47.7549 H   0  0  0  0  0  0  0  0  0  0  0  0
   45.5717   30.6619   47.5027 H   0  0  0  0  0  0  0  0  0  0  0  0
   47.3722   29.4787   45.5877 H   0  0  0  0  0  0  0  0  0  0  0  0
   45.6898   30.2197   45.3649 H   0  0  0  0  0  0  0  0  0  0  0  0
   48.3647   31.4131   44.9461 H   0  0  0  0  0  0  0  0  0  0  0  0
   48.7673   33.5546   43.4812 H   0  0  0  0  0  0  0  0  0  0  0  0
   44.3781   35.7510   42.8728 H   0  0  0  0  0  0  0  0  0  0  0  0
   48.4649   30.9848   42.1535 H   0  0  0  0  0  0  0  0  0  0  0  0
   46.9994   30.5970   40.1588 H   0  0  0  0  0  0  0  0  0  0  0  0
   44.4404   30.5360   40.4172 H   0  0  0  0  0  0  0  0  0  0  0  0
  1  2  1  0
  2  3  1  0
  4  3  1  0
  5  4  1  0
  6  1  1  0
  6  5  1  0
  7  8  2  0
  8  9  1  0
  9  1  1  0
 10  9  2  0
 11 10  1  0
 12  7  1  0
 12 11  2  0
 13 16  1  0
 13 15  1  0
 13  7  1  0
 14 13  1  0
 17  6  1  0
 18 17  2  0
 19 20  2  0
 19 18  1  0
 20 21  1  0
 21 17  1  0
  2 22  1  0
  2 23  1  0
  3 24  1  0
  3 25  1  0
  4 26  1  0
  4 27  1  0
  5 28  1  0
  5 29  1  0
  6 30  1  6
  8 31  1  0
 11 32  1  0
 18 33  1  0
 19 34  1  0
 20 35  1  0
M  ISO  8  22  13  23  13  24  13  25  13  26  13  27  13  28  13  29  13
M  ISO  6  30  13  31  14  32  14  33  14  34  14  35  14
M  END
>  <minimizedAffinity>  (1) 
-5.13862991

>  <minimizedRMSD>  (1) 
1.80234551

$$$$
