
     RDKit          3D

 34 36  0  0  1  0  0  0  0  0999 V2000
   46.2730   34.1500   42.8410 N   0  0  0  0  0  0  0  0  0  0  0  0
   46.9140   35.3890   42.5630 C   0  0  0  0  0  0  0  0  0  0  0  0
   47.9410   35.2140   41.5110 C   0  0  0  0  0  0  0  0  0  0  0  0
   47.8140   34.0480   40.6150 C   0  0  0  0  0  0  0  0  0  0  0  0
   46.4950   33.3720   40.5440 C   0  0  0  0  0  0  0  0  0  0  0  0
   45.6540   33.4040   41.7900 C   0  0  2  0  0  0  0  0  0  0  0  0
   45.3540   34.2000   45.1100 C   0  0  0  0  0  0  0  0  0  0  0  0
   46.2510   33.6560   44.1780 C   0  0  0  0  0  0  0  0  0  0  0  0
   47.1130   32.6170   44.6190 C   0  0  0  0  0  0  0  0  0  0  0  0
   47.0070   32.2260   45.9080 N   0  0  0  0  0  0  0  0  0  0  0  0
   46.1300   32.7780   46.7720 C   0  0  0  0  0  0  0  0  0  0  0  0
   45.3070   33.7620   46.3730 N   0  0  0  0  0  0  0  0  0  0  0  0
   44.4920   35.2340   44.6730 N   0  0  0  0  0  0  0  0  0  0  0  0
   44.2890   33.8850   41.4570 C   0  0  0  0  0  0  0  0  0  0  0  0
   43.8800   35.1470   41.1230 C   0  0  0  0  0  0  0  0  0  0  0  0
   42.5710   35.3570   40.8640 C   0  0  0  0  0  0  0  0  0  0  0  0
   41.7000   34.2580   40.9560 C   0  0  0  0  0  0  0  0  0  0  0  0
   42.8670   32.8390   41.4470 S   0  0  0  0  0  0  0  0  0  0  0  0
   46.1636   36.1163   42.2196 H   0  0  0  0  0  0  0  0  0  0  0  0
   47.4008   35.7526   43.4800 H   0  0  0  0  0  0  0  0  0  0  0  0
   47.9230   36.1157   40.8812 H   0  0  0  0  0  0  0  0  0  0  0  0
   48.8768   35.0401   42.0624 H   0  0  0  0  0  0  0  0  0  0  0  0
   48.0648   34.3860   39.5987 H   0  0  0  0  0  0  0  0  0  0  0  0
   48.4899   33.2935   41.0438 H   0  0  0  0  0  0  0  0  0  0  0  0
   45.9176   33.8506   39.7393 H   0  0  0  0  0  0  0  0  0  0  0  0
   46.7226   32.3092   40.3750 H   0  0  0  0  0  0  0  0  0  0  0  0
   45.5633   32.3811   42.1844 H   0  0  0  0  0  0  0  0  0  0  0  0
   47.8387   32.1488   43.9377 H   0  0  0  0  0  0  0  0  0  0  0  0
   46.0885   32.4196   47.8111 H   0  0  0  0  0  0  0  0  0  0  0  0
   44.5363   35.5639   43.6983 H   0  0  0  0  0  0  0  0  0  0  0  0
   43.8204   35.6566   45.3297 H   0  0  0  0  0  0  0  0  0  0  0  0
   44.6027   35.9743   41.0665 H   0  0  0  0  0  0  0  0  0  0  0  0
   42.1991   36.3553   40.5901 H   0  0  0  0  0  0  0  0  0  0  0  0
   40.6136   34.2264   40.7863 H   0  0  0  0  0  0  0  0  0  0  0  0
  1  8  1  0
  2  1  1  0
  3  2  1  0
  4  3  1  0
  5  4  1  0
  5  6  1  0
  6  1  1  0
  7 12  2  0
  8  9  2  0
  8  7  1  0
  9 10  1  0
 10 11  2  0
 12 11  1  0
 13  7  1  0
 14  6  1  0
 15 14  2  0
 16 17  2  0
 16 15  1  0
 17 18  1  0
 18 14  1  0
  2 19  1  0
  2 20  1  0
  3 21  1  0
  3 22  1  0
  4 23  1  0
  4 24  1  0
  5 25  1  0
  5 26  1  0
  6 27  1  1
  9 28  1  0
 11 29  1  0
 13 30  1  0
 13 31  1  0
 15 32  1  0
 16 33  1  0
 17 34  1  0
M  ISO  8  19  13  20  13  21  13  22  13  23  13  24  13  25  13  26  13
M  ISO  6  27  13  28  14  29  14  32  14  33  14  34  14
M  END
>  <minimizedAffinity>  (1) 
-5.08838272

>  <minimizedRMSD>  (1) 
2.090137

$$$$
