
     RDKit          3D

 44 46  0  0  0  0  0  0  0  0999 V2000
   42.9820   32.4670   41.6660 C   0  0  0  0  0  0  0  0  0  0  0  0
   43.6160   34.8810   41.8740 C   0  0  0  0  0  0  0  0  0  0  0  0
   43.8550   33.5580   42.1920 C   0  0  0  0  0  0  0  0  0  0  0  0
   44.9250   33.2580   43.0100 C   0  0  0  0  0  0  0  0  0  0  0  0
   45.7220   34.2650   43.4880 C   0  0  0  0  0  0  0  0  0  0  0  0
   45.5040   35.5900   43.1850 C   0  0  0  0  0  0  0  0  0  0  0  0
   44.4190   35.8400   42.3610 C   0  0  0  0  0  0  0  0  0  0  0  0
   40.1620   35.6770   40.5410 C   0  0  0  0  0  0  0  0  0  0  0  0
   41.1980   35.4550   41.4650 C   0  0  0  0  0  0  0  0  0  0  0  0
   42.4670   35.1320   41.0030 C   0  0  0  0  0  0  0  0  0  0  0  0
   42.6390   35.0460   39.6550 N   0  0  0  0  0  0  0  0  0  0  0  0
   41.6330   35.2620   38.7790 C   0  0  0  0  0  0  0  0  0  0  0  0
   40.3970   35.5770   39.2320 N   0  0  0  0  0  0  0  0  0  0  0  0
   42.7040   31.4160   42.5880 N   0  0  0  0  0  0  0  0  0  0  0  0
   41.0480   31.0180   42.6480 S   0  0  0  0  0  0  0  0  0  0  0  0
   40.1800   32.2430   42.4710 O   0  0  0  0  0  0  0  0  0  0  0  0
   40.6970   30.3410   43.9310 O   0  0  0  0  0  0  0  0  0  0  0  0
   40.7210   29.9700   41.3750 O   0  0  0  0  0  0  0  0  0  0  0  0
   39.3520   29.9480   41.1710 C   0  0  0  0  0  0  0  0  0  0  0  0
   38.7630   28.6650   41.7370 C   0  0  0  0  0  0  0  0  0  0  0  0
   37.5800   28.2360   40.9230 C   0  0  0  0  0  0  0  0  0  0  0  0
   36.7040   29.0680   40.1660 C   0  0  0  0  0  0  0  0  0  0  0  0
   35.6990   28.4390   39.5060 C   0  0  0  0  0  0  0  0  0  0  0  0
   35.5400   27.0290   39.5700 C   0  0  0  0  0  0  0  0  0  0  0  0
   36.9490   26.5270   40.6780 S   0  0  0  0  0  0  0  0  0  0  0  0
   42.0246   32.9143   41.3607 H   0  0  0  0  0  0  0  0  0  0  0  0
   43.5358   32.0061   40.8348 H   0  0  0  0  0  0  0  0  0  0  0  0
   45.1378   32.2125   43.2779 H   0  0  0  0  0  0  0  0  0  0  0  0
   46.5692   34.0043   44.1394 H   0  0  0  0  0  0  0  0  0  0  0  0
   46.1471   36.3948   43.5707 H   0  0  0  0  0  0  0  0  0  0  0  0
   44.2031   36.8841   42.0903 H   0  0  0  0  0  0  0  0  0  0  0  0
   39.1541   35.9341   40.8989 H   0  0  0  0  0  0  0  0  0  0  0  0
   41.0050   35.5365   42.5449 H   0  0  0  0  0  0  0  0  0  0  0  0
   41.8186   35.1818   37.6977 H   0  0  0  0  0  0  0  0  0  0  0  0
   43.2342   30.5797   42.3046 H   0  0  0  0  0  0  0  0  0  0  0  0
   39.9273   32.5996   43.3593 H   0  0  0  0  0  0  0  0  0  0  0  0
   40.9887   30.9036   44.6916 H   0  0  0  0  0  0  0  0  0  0  0  0
   38.8946   30.8123   41.6748 H   0  0  0  0  0  0  0  0  0  0  0  0
   39.1467   29.9943   40.0913 H   0  0  0  0  0  0  0  0  0  0  0  0
   39.5265   27.8734   41.7138 H   0  0  0  0  0  0  0  0  0  0  0  0
   38.4400   28.8446   42.7730 H   0  0  0  0  0  0  0  0  0  0  0  0
   36.8355   30.1591   40.1196 H   0  0  0  0  0  0  0  0  0  0  0  0
   34.9923   29.0338   38.9086 H   0  0  0  0  0  0  0  0  0  0  0  0
   34.7797   26.3964   39.0886 H   0  0  0  0  0  0  0  0  0  0  0  0
  1  3  1  0
  1 14  1  0
  2  3  1  0
  2  7  2  0
  3  4  2  0
  4  5  1  0
  6  5  2  0
  7  6  1  0
  8  9  2  0
 10  9  1  0
 10  2  1  0
 11 10  2  0
 12 13  2  0
 12 11  1  0
 13  8  1  0
 14 15  1  0
 15 17  1  0
 16 15  1  0
 18 15  1  0
 19 18  1  0
 19 20  1  0
 21 20  1  0
 22 21  2  0
 23 24  2  0
 23 22  1  0
 24 25  1  0
 25 21  1  0
  1 26  1  0
  1 27  1  0
  4 28  1  0
  5 29  1  0
  6 30  1  0
  7 31  1  0
  8 32  1  0
  9 33  1  0
 12 34  1  0
 14 35  1  0
 16 36  1  0
 17 37  1  0
 19 38  1  0
 19 39  1  0
 20 40  1  0
 20 41  1  0
 22 42  1  0
 23 43  1  0
 24 44  1  0
M  ISO  8  26   8  27   8  28  14  29  14  30  14  31  14  32  14  33  14
M  ISO  8  34  14  35   5  36   3  37   3  38   8  39   8  40   8  41   8
M  ISO  3  42  14  43  14  44  14
M  END
>  <minimizedAffinity>  (1) 
-5.31622744

>  <minimizedRMSD>  (1) 
2.12000728

$$$$
