
     RDKit          3D

 36 38  0  0  1  0  0  0  0  0999 V2000
   45.1750   33.6290   41.8320 C   0  0  0  0  0  0  0  0  0  0  0  0
   46.1960   34.5590   41.5030 C   0  0  0  0  0  0  0  0  0  0  0  0
   47.5050   34.0740   41.5640 C   0  0  0  0  0  0  0  0  0  0  0  0
   47.7000   32.7940   41.9210 N   0  0  0  0  0  0  0  0  0  0  0  0
   46.7000   31.9500   42.2240 C   0  0  0  0  0  0  0  0  0  0  0  0
   45.4250   32.3800   42.1760 N   0  0  0  0  0  0  0  0  0  0  0  0
   43.3160   34.1380   40.4850 C   0  0  0  0  0  0  0  0  0  0  0  0
   44.0980   33.9030   39.5430 O   0  0  0  0  0  0  0  0  0  0  0  0
   43.8020   34.0090   41.8060 N   0  0  0  0  0  0  0  0  0  0  0  0
   41.9860   34.5240   40.1670 N   0  0  0  0  0  0  0  0  0  0  0  0
   41.6510   34.9450   38.8140 C   0  0  0  0  0  0  0  0  0  0  0  0
   40.5370   35.9220   39.0580 C   0  0  0  0  0  0  0  0  0  0  0  0
   40.1990   35.8800   40.5260 C   0  0  0  0  0  0  0  0  0  0  0  0
   40.7900   34.5910   40.9960 C   0  0  1  0  0  0  0  0  0  0  0  0
   39.9990   33.4400   41.0510 C   0  0  0  0  0  0  0  0  0  0  0  0
   38.7010   33.0740   40.6300 C   0  0  0  0  0  0  0  0  0  0  0  0
   38.2500   31.8000   40.8660 C   0  0  0  0  0  0  0  0  0  0  0  0
   39.0570   30.8780   41.5120 C   0  0  0  0  0  0  0  0  0  0  0  0
   40.6220   31.8320   41.8490 S   0  0  0  0  0  0  0  0  0  0  0  0
   48.5360   35.0540   41.2210 C   0  0  0  0  0  0  0  0  0  0  0  0
   49.7780   34.5680   41.6090 F   0  0  0  0  0  0  0  0  0  0  0  0
   48.3260   36.1800   41.9960 F   0  0  0  0  0  0  0  0  0  0  0  0
   48.6120   35.3330   39.8790 F   0  0  0  0  0  0  0  0  0  0  0  0
   45.9705   35.5972   41.2177 H   0  0  0  0  0  0  0  0  0  0  0  0
   46.9219   30.9113   42.5103 H   0  0  0  0  0  0  0  0  0  0  0  0
   43.2321   34.1703   42.6486 H   0  0  0  0  0  0  0  0  0  0  0  0
   41.3110   34.0954   38.2037 H   0  0  0  0  0  0  0  0  0  0  0  0
   42.5001   35.3701   38.2587 H   0  0  0  0  0  0  0  0  0  0  0  0
   40.8602   36.9353   38.7775 H   0  0  0  0  0  0  0  0  0  0  0  0
   39.6564   35.6585   38.4538 H   0  0  0  0  0  0  0  0  0  0  0  0
   40.6492   36.7326   41.0555 H   0  0  0  0  0  0  0  0  0  0  0  0
   39.1169   35.9429   40.7133 H   0  0  0  0  0  0  0  0  0  0  0  0
   40.9706   34.5995   42.0810 H   0  0  0  0  0  0  0  0  0  0  0  0
   38.0575   33.8042   40.1174 H   0  0  0  0  0  0  0  0  0  0  0  0
   37.2406   31.5087   40.5400 H   0  0  0  0  0  0  0  0  0  0  0  0
   38.8286   29.8323   41.7656 H   0  0  0  0  0  0  0  0  0  0  0  0
  1  6  2  0
  2  3  2  0
  2  1  1  0
  3  4  1  0
  4  5  2  0
  6  5  1  0
  7  9  1  0
  8  7  2  0
  9  1  1  0
 10  7  1  0
 10 14  1  0
 11 12  1  0
 11 10  1  0
 12 13  1  0
 13 14  1  0
 14 15  1  0
 15 19  1  0
 16 17  1  0
 16 15  2  0
 17 18  2  0
 18 19  1  0
 20  3  1  0
 20 21  1  0
 20 22  1  0
 23 20  1  0
  2 24  1  0
  5 25  1  0
  9 26  1  0
 11 27  1  0
 11 28  1  0
 12 29  1  0
 12 30  1  0
 13 31  1  0
 13 32  1  0
 14 33  1  1
 16 34  1  0
 17 35  1  0
 18 36  1  0
M  ISO  8  24  14  25  14  27  13  28  13  29  13  30  13  31  13  32  13
M  ISO  4  33  13  34  14  35  14  36  14
M  END
>  <minimizedAffinity>  (1) 
-6.50583458

>  <minimizedRMSD>  (1) 
1.97550011

$$$$
