
     RDKit          3D

 40 43  0  0  0  0  0  0  0  0999 V2000
   48.0570   34.5240   41.7490 C   0  0  0  0  0  0  0  0  0  0  0  0
   48.8840   35.7870   41.4500 C   0  0  0  0  0  0  0  0  0  0  0  0
   49.4560   34.6570   42.1330 C   0  0  0  0  0  0  0  0  0  0  0  0
   47.6770   33.7730   40.5240 C   0  0  0  0  0  0  0  0  0  0  0  0
   48.1600   34.3830   39.2100 C   0  0  0  0  0  0  0  0  0  0  0  0
   47.7990   33.3130   38.1570 C   0  0  0  0  0  0  0  0  0  0  0  0
   46.4280   33.4120   37.9630 O   0  0  0  0  0  0  0  0  0  0  0  0
   45.8790   32.8200   39.1350 C   0  0  0  0  0  0  0  0  0  0  0  0
   46.1520   33.7300   40.3290 C   0  0  0  0  0  0  0  0  0  0  0  0
   46.1840   35.8530   42.8090 C   0  0  0  0  0  0  0  0  0  0  0  0
   46.9880   34.6990   42.7930 C   0  0  0  0  0  0  0  0  0  0  0  0
   46.7570   33.7370   43.7860 C   0  0  0  0  0  0  0  0  0  0  0  0
   45.7750   33.9770   44.7000 N   0  0  0  0  0  0  0  0  0  0  0  0
   45.0450   35.0860   44.6690 C   0  0  0  0  0  0  0  0  0  0  0  0
   45.2390   36.0000   43.7520 N   0  0  0  0  0  0  0  0  0  0  0  0
   44.0280   35.3070   45.6280 N   0  0  0  0  0  0  0  0  0  0  0  0
   47.4310   32.4610   43.9100 C   0  0  0  0  0  0  0  0  0  0  0  0
   48.2980   31.6520   43.1880 C   0  0  0  0  0  0  0  0  0  0  0  0
   48.6880   30.4620   43.6510 C   0  0  0  0  0  0  0  0  0  0  0  0
   48.2180   29.9810   44.9240 C   0  0  0  0  0  0  0  0  0  0  0  0
   47.1570   31.4120   45.3860 S   0  0  0  0  0  0  0  0  0  0  0  0
   49.1846   36.0212   40.4181 H   0  0  0  0  0  0  0  0  0  0  0  0
   48.7810   36.8623   41.6577 H   0  0  0  0  0  0  0  0  0  0  0  0
   49.7153   34.7470   43.1982 H   0  0  0  0  0  0  0  0  0  0  0  0
   50.3482   34.0401   41.9500 H   0  0  0  0  0  0  0  0  0  0  0  0
   48.1453   32.7944   40.7060 H   0  0  0  0  0  0  0  0  0  0  0  0
   47.6397   35.3296   39.0020 H   0  0  0  0  0  0  0  0  0  0  0  0
   49.2327   34.6262   39.2211 H   0  0  0  0  0  0  0  0  0  0  0  0
   48.3330   33.5084   37.2154 H   0  0  0  0  0  0  0  0  0  0  0  0
   48.0860   32.3055   38.4926 H   0  0  0  0  0  0  0  0  0  0  0  0
   44.7936   32.6927   39.0095 H   0  0  0  0  0  0  0  0  0  0  0  0
   46.3418   31.8367   39.3051 H   0  0  0  0  0  0  0  0  0  0  0  0
   45.7684   34.7412   40.1284 H   0  0  0  0  0  0  0  0  0  0  0  0
   45.6518   33.3516   41.2327 H   0  0  0  0  0  0  0  0  0  0  0  0
   46.3292   36.6351   42.0492 H   0  0  0  0  0  0  0  0  0  0  0  0
   43.4677   36.1706   45.5948 H   0  0  0  0  0  0  0  0  0  0  0  0
   43.8481   34.6042   46.3592 H   0  0  0  0  0  0  0  0  0  0  0  0
   48.6717   31.9990   42.2134 H   0  0  0  0  0  0  0  0  0  0  0  0
   49.3747   29.8435   43.0544 H   0  0  0  0  0  0  0  0  0  0  0  0
   48.4290   29.0429   45.4583 H   0  0  0  0  0  0  0  0  0  0  0  0
  1  3  1  0
  1 11  1  0
  2  1  1  0
  2  3  1  0
  4  1  1  0
  5  4  1  0
  6  5  1  0
  7  6  1  0
  7  8  1  0
  8  9  1  0
  9  4  1  0
 10 15  2  0
 11 10  1  0
 11 12  2  0
 12 17  1  0
 12 13  1  0
 14 13  2  0
 14 16  1  0
 15 14  1  0
 17 21  1  0
 18 19  1  0
 18 17  2  0
 19 20  2  0
 20 21  1  0
  2 22  1  0
  2 23  1  0
  3 24  1  0
  3 25  1  0
  4 26  1  0
  5 27  1  0
  5 28  1  0
  6 29  1  0
  6 30  1  0
  8 31  1  0
  8 32  1  0
  9 33  1  0
  9 34  1  0
 10 35  1  0
 16 36  1  0
 16 37  1  0
 18 38  1  0
 19 39  1  0
 20 40  1  0
M  ISO  8  22  13  23  13  24  13  25  13  26  13  27  13  28  13  29  13
M  ISO  8  30  13  31  13  32  13  33  13  34  13  35  14  38  14  39  14
M  ISO  1  40  14
M  END
>  <minimizedAffinity>  (1) 
-5.77677774

>  <minimizedRMSD>  (1) 
0.523692966

$$$$
