
     RDKit          3D

 40 44  0  0  0  0  0  0  0  0999 V2000
   44.5320   35.5230   44.6940 C   0  0  0  0  0  0  0  0  0  0  0  0
   44.6110   35.1130   43.3770 C   0  0  0  0  0  0  0  0  0  0  0  0
   45.2140   33.8540   43.1340 C   0  0  0  0  0  0  0  0  0  0  0  0
   45.6640   33.1480   44.1810 N   0  0  0  0  0  0  0  0  0  0  0  0
   45.5750   33.5700   45.4550 C   0  0  0  0  0  0  0  0  0  0  0  0
   44.9960   34.7820   45.6900 N   0  0  0  0  0  0  0  0  0  0  0  0
   46.0390   32.8590   46.6350 C   0  0  0  0  0  0  0  0  0  0  0  0
   45.2960   32.8090   47.8040 C   0  0  0  0  0  0  0  0  0  0  0  0
   46.0320   32.0540   48.7180 C   0  0  0  0  0  0  0  0  0  0  0  0
   47.1640   31.6830   48.0920 N   0  0  0  0  0  0  0  0  0  0  0  0
   47.1550   32.1690   46.8530 N   0  0  0  0  0  0  0  0  0  0  0  0
   48.2120   30.8920   48.6600 C   0  0  0  0  0  0  0  0  0  0  0  0
   48.9800   31.1610   49.7030 C   0  0  0  0  0  0  0  0  0  0  0  0
   49.9310   30.2380   50.0670 C   0  0  0  0  0  0  0  0  0  0  0  0
   50.0330   29.0940   49.3360 C   0  0  0  0  0  0  0  0  0  0  0  0
   48.7030   29.3440   48.0560 S   0  0  0  0  0  0  0  0  0  0  0  0
   44.1510   35.8360   42.2960 O   0  0  0  0  0  0  0  0  0  0  0  0
   43.4180   35.3000   41.2390 C   0  0  0  0  0  0  0  0  0  0  0  0
   43.9010   34.6370   40.1390 C   0  0  0  0  0  0  0  0  0  0  0  0
   43.0170   34.1740   39.1870 C   0  0  0  0  0  0  0  0  0  0  0  0
   41.6530   34.3460   39.2830 C   0  0  0  0  0  0  0  0  0  0  0  0
   40.8650   33.8670   38.3170 N   0  0  0  0  0  0  0  0  0  0  0  0
   39.5180   34.0200   38.3820 C   0  0  0  0  0  0  0  0  0  0  0  0
   39.0060   34.6810   39.4720 C   0  0  0  0  0  0  0  0  0  0  0  0
   39.8330   35.1910   40.5000 C   0  0  0  0  0  0  0  0  0  0  0  0
   41.2000   35.0180   40.4010 C   0  0  0  0  0  0  0  0  0  0  0  0
   42.0420   35.5040   41.3900 C   0  0  0  0  0  0  0  0  0  0  0  0
   44.0697   36.4945   44.9230 H   0  0  0  0  0  0  0  0  0  0  0  0
   45.3107   33.4648   42.1097 H   0  0  0  0  0  0  0  0  0  0  0  0
   44.3148   33.2749   47.9778 H   0  0  0  0  0  0  0  0  0  0  0  0
   45.7428   31.8093   49.7507 H   0  0  0  0  0  0  0  0  0  0  0  0
   48.8605   32.0993   50.2645 H   0  0  0  0  0  0  0  0  0  0  0  0
   50.5927   30.4189   50.9269 H   0  0  0  0  0  0  0  0  0  0  0  0
   50.7202   28.2451   49.4669 H   0  0  0  0  0  0  0  0  0  0  0  0
   44.9824   34.4764   40.0177 H   0  0  0  0  0  0  0  0  0  0  0  0
   43.4189   33.6433   38.3113 H   0  0  0  0  0  0  0  0  0  0  0  0
   38.8607   33.6292   37.5913 H   0  0  0  0  0  0  0  0  0  0  0  0
   37.9172   34.8182   39.5479 H   0  0  0  0  0  0  0  0  0  0  0  0
   39.3957   35.7156   41.3623 H   0  0  0  0  0  0  0  0  0  0  0  0
   41.6404   36.0337   42.2664 H   0  0  0  0  0  0  0  0  0  0  0  0
  1  6  2  0
  2  1  1  0
  3  2  2  0
  3  4  1  0
  4  5  2  0
  5  6  1  0
  5  7  1  0
  7 11  2  0
  7  8  1  0
  8  9  2  0
 10 12  1  0
 10  9  1  0
 11 10  1  0
 12 13  2  0
 13 14  1  0
 15 14  2  0
 16 12  1  0
 16 15  1  0
 17  2  1  0
 18 27  1  0
 18 17  1  0
 19 18  2  0
 20 21  2  0
 20 19  1  0
 21 26  1  0
 22 23  2  0
 22 21  1  0
 23 24  1  0
 24 25  2  0
 26 25  1  0
 26 27  2  0
  1 28  1  0
  3 29  1  0
  8 30  1  0
  9 31  1  0
 13 32  1  0
 14 33  1  0
 15 34  1  0
 19 35  1  0
 20 36  1  0
 23 37  1  0
 24 38  1  0
 25 39  1  0
 27 40  1  0
M  ISO  8  28  14  29  14  30  14  31  14  32  14  33  14  34  14  35  14
M  ISO  5  36  14  37  14  38  14  39  14  40  14
M  END
>  <minimizedAffinity>  (1) 
-7.30729818

>  <minimizedRMSD>  (1) 
1.56229305

$$$$
