
     RDKit          3D

 32 34  0  0  0  0  0  0  0  0999 V2000
   46.4330   34.5430   42.0090 C   0  0  0  0  0  0  0  0  0  0  0  0
   47.6160   35.1150   41.6070 C   0  0  0  0  0  0  0  0  0  0  0  0
   48.2640   34.8470   40.4110 C   0  0  0  0  0  0  0  0  0  0  0  0
   47.6830   33.9380   39.5520 C   0  0  0  0  0  0  0  0  0  0  0  0
   46.5200   33.3850   39.9590 C   0  0  0  0  0  0  0  0  0  0  0  0
   45.9160   33.6580   41.1160 N   0  0  0  0  0  0  0  0  0  0  0  0
   44.4860   36.0360   44.8620 C   0  0  0  0  0  0  0  0  0  0  0  0
   45.0270   35.9350   43.5690 C   0  0  0  0  0  0  0  0  0  0  0  0
   45.7880   34.8330   43.2820 C   0  0  0  0  0  0  0  0  0  0  0  0
   45.9700   33.9020   44.2780 N   0  0  0  0  0  0  0  0  0  0  0  0
   45.4450   34.0190   45.5050 C   0  0  0  0  0  0  0  0  0  0  0  0
   44.7010   35.0960   45.7840 N   0  0  0  0  0  0  0  0  0  0  0  0
   45.9110   32.4720   39.1150 O   0  0  0  0  0  0  0  0  0  0  0  0
   45.2450   33.4730   36.7620 O   0  0  0  0  0  0  0  0  0  0  0  0
   44.6540   32.9110   38.0310 P   0  0  1  0  0  0  0  0  0  0  0  0
   43.7850   31.5000   37.6470 O   0  0  0  0  0  0  0  0  0  0  0  0
   43.6760   34.0490   38.7730 O   0  0  0  0  0  0  0  0  0  0  0  0
   42.5280   34.0430   39.3530 C   0  0  0  0  0  0  0  0  0  0  0  0
   41.0970   33.4910   39.1770 C   0  0  0  0  0  0  0  0  0  0  0  0
   40.2200   33.8170   40.1640 C   0  0  0  0  0  0  0  0  0  0  0  0
   40.6040   34.6050   41.2690 C   0  0  0  0  0  0  0  0  0  0  0  0
   42.3460   34.9810   40.9950 S   0  0  0  0  0  0  0  0  0  0  0  0
   48.0851   35.8417   42.2866 H   0  0  0  0  0  0  0  0  0  0  0  0
   49.2116   35.3437   40.1554 H   0  0  0  0  0  0  0  0  0  0  0  0
   48.1422   33.6773   38.5870 H   0  0  0  0  0  0  0  0  0  0  0  0
   43.8708   36.9106   45.1200 H   0  0  0  0  0  0  0  0  0  0  0  0
   44.8456   36.7139   42.8137 H   0  0  0  0  0  0  0  0  0  0  0  0
   45.6217   33.2459   46.2673 H   0  0  0  0  0  0  0  0  0  0  0  0
   43.5059   31.0469   38.4818 H   0  0  0  0  0  0  0  0  0  0  0  0
   40.8066   32.8761   38.3124 H   0  0  0  0  0  0  0  0  0  0  0  0
   39.1829   33.4563   40.0988 H   0  0  0  0  0  0  0  0  0  0  0  0
   39.9764   34.9217   42.1151 H   0  0  0  0  0  0  0  0  0  0  0  0
  1  9  1  0
  2  1  2  0
  3  2  1  0
  4  5  1  0
  4  3  2  0
  5  6  2  0
  6  1  1  0
  7 12  2  0
  8  7  1  0
  9  8  2  0
  9 10  1  0
 10 11  2  0
 11 12  1  0
 13  5  1  0
 15 14  2  0
 15 17  1  0
 15 13  1  0
 16 15  1  0
 17 18  1  0
 18 22  1  0
 19 18  2  0
 19 20  1  0
 20 21  2  0
 22 21  1  0
  2 23  1  0
  3 24  1  0
  4 25  1  0
  7 26  1  0
  8 27  1  0
 11 28  1  0
 16 29  1  0
 19 30  1  0
 20 31  1  0
 21 32  1  0
M  ISO  8  23  14  24  14  25  14  26  14  27  14  28  14  29   3  30  14
M  ISO  2  31  14  32  14
M  END
>  <minimizedAffinity>  (1) 
-5.35985279

>  <minimizedRMSD>  (1) 
2.191643

$$$$
