
     RDKit          3D

 40 43  0  0  1  0  0  0  0  0999 V2000
   46.7510   34.4960   40.9740 C   0  0  1  0  0  0  0  0  0  0  0  0
   48.2300   34.2420   40.4030 C   0  0  0  0  0  0  0  0  0  0  0  0
   48.1970   34.3010   38.9100 C   0  0  0  0  0  0  0  0  0  0  0  0
   47.4470   33.1530   38.3060 C   0  0  0  0  0  0  0  0  0  0  0  0
   46.4090   32.6610   39.3000 C   0  0  0  0  0  0  0  0  0  0  0  0
   45.8200   33.8770   40.0430 C   0  0  1  0  0  0  0  0  0  0  0  0
   46.7890   33.9430   42.3610 C   0  0  0  0  0  0  0  0  0  0  0  0
   46.2200   34.4480   43.5270 C   0  0  0  0  0  0  0  0  0  0  0  0
   46.4410   33.7320   44.6790 C   0  0  0  0  0  0  0  0  0  0  0  0
   47.1920   32.5760   44.6360 N   0  0  0  0  0  0  0  0  0  0  0  0
   47.7250   32.1220   43.4730 C   0  0  0  0  0  0  0  0  0  0  0  0
   47.5120   32.8270   42.3280 N   0  0  0  0  0  0  0  0  0  0  0  0
   45.3390   35.6540   43.5630 C   0  0  0  0  0  0  0  0  0  0  0  0
   43.9440   35.5880   43.6620 C   0  0  0  0  0  0  0  0  0  0  0  0
   44.5580   35.8490   44.9660 C   0  0  0  0  0  0  0  0  0  0  0  0
   44.4590   33.6180   40.4450 C   0  0  0  0  0  0  0  0  0  0  0  0
   43.2890   34.2520   40.5700 C   0  0  0  0  0  0  0  0  0  0  0  0
   42.1670   33.6250   41.0370 C   0  0  0  0  0  0  0  0  0  0  0  0
   42.3240   32.2430   41.3840 C   0  0  0  0  0  0  0  0  0  0  0  0
   44.1450   31.9690   40.9890 S   0  0  0  0  0  0  0  0  0  0  0  0
   46.4151   35.5409   41.0473 H   0  0  0  0  0  0  0  0  0  0  0  0
   48.9106   35.0162   40.7869 H   0  0  0  0  0  0  0  0  0  0  0  0
   48.5861   33.2526   40.7261 H   0  0  0  0  0  0  0  0  0  0  0  0
   47.7109   35.2394   38.6049 H   0  0  0  0  0  0  0  0  0  0  0  0
   49.2353   34.2475   38.5507 H   0  0  0  0  0  0  0  0  0  0  0  0
   46.9466   33.4839   37.3840 H   0  0  0  0  0  0  0  0  0  0  0  0
   48.1460   32.3384   38.0656 H   0  0  0  0  0  0  0  0  0  0  0  0
   45.6074   32.1300   38.7657 H   0  0  0  0  0  0  0  0  0  0  0  0
   46.8762   31.9726   40.0196 H   0  0  0  0  0  0  0  0  0  0  0  0
   45.6969   34.7286   39.3577 H   0  0  0  0  0  0  0  0  0  0  0  0
   46.0197   34.0802   45.6336 H   0  0  0  0  0  0  0  0  0  0  0  0
   48.3207   31.1974   43.4560 H   0  0  0  0  0  0  0  0  0  0  0  0
   46.0040   36.2026   42.8797 H   0  0  0  0  0  0  0  0  0  0  0  0
   43.3469   36.3849   43.1947 H   0  0  0  0  0  0  0  0  0  0  0  0
   43.2323   34.8135   43.3401 H   0  0  0  0  0  0  0  0  0  0  0  0
   44.5879   35.0717   45.7438 H   0  0  0  0  0  0  0  0  0  0  0  0
   44.4894   36.6081   45.7592 H   0  0  0  0  0  0  0  0  0  0  0  0
   43.2265   35.3134   40.2879 H   0  0  0  0  0  0  0  0  0  0  0  0
   41.2048   34.1481   41.1399 H   0  0  0  0  0  0  0  0  0  0  0  0
   41.5806   31.5332   41.7758 H   0  0  0  0  0  0  0  0  0  0  0  0
  1  7  1  0
  2  1  1  0
  3  2  1  0
  4  3  1  0
  4  5  1  0
  5  6  1  0
  6 16  1  0
  6  1  1  0
  7  8  1  0
  8 13  1  0
  8  9  2  0
 10  9  1  0
 11 10  2  0
 12  7  2  0
 12 11  1  0
 13 14  1  0
 13 15  1  0
 14 15  1  0
 16 17  2  0
 16 20  1  0
 17 18  1  0
 18 19  2  0
 20 19  1  0
  1 21  1  1
  2 22  1  0
  2 23  1  0
  3 24  1  0
  3 25  1  0
  4 26  1  0
  4 27  1  0
  5 28  1  0
  5 29  1  0
  6 30  1  6
  9 31  1  0
 11 32  1  0
 13 33  1  0
 14 34  1  0
 14 35  1  0
 15 36  1  0
 15 37  1  0
 17 38  1  0
 18 39  1  0
 19 40  1  0
M  ISO  8  21  13  22  13  23  13  24  13  25  13  26  13  27  13  28  13
M  ISO  8  29  13  30  13  31  14  32  14  33  13  34  13  35  13  36  13
M  ISO  4  37  13  38  14  39  14  40  14
M  END
>  <minimizedAffinity>  (1) 
-4.66396284

>  <minimizedRMSD>  (1) 
4.31489897

$$$$
