
     RDKit          3D

 31 33  0  0  0  0  0  0  0  0999 V2000
   45.2910   33.1390   47.4120 C   0  0  0  0  0  0  0  0  0  0  0  0
   46.2250   32.2630   48.1880 C   0  0  0  0  0  0  0  0  0  0  0  0
   45.8760   31.3230   49.1490 C   0  0  0  0  0  0  0  0  0  0  0  0
   47.0440   30.7960   49.5590 N   0  0  0  0  0  0  0  0  0  0  0  0
   48.0780   31.3460   48.9180 C   0  0  0  0  0  0  0  0  0  0  0  0
   47.5570   32.2490   48.0770 N   0  0  0  0  0  0  0  0  0  0  0  0
   49.4580   31.0150   49.1140 C   0  0  0  0  0  0  0  0  0  0  0  0
   50.1940   29.9420   48.7880 C   0  0  0  0  0  0  0  0  0  0  0  0
   51.5260   29.9170   49.1180 C   0  0  0  0  0  0  0  0  0  0  0  0
   52.0390   31.0230   49.7800 C   0  0  0  0  0  0  0  0  0  0  0  0
   50.6050   32.1160   49.9350 S   0  0  0  0  0  0  0  0  0  0  0  0
   45.3250   34.2570   45.2210 C   0  0  0  0  0  0  0  0  0  0  0  0
   45.8120   33.3170   46.0280 C   0  0  0  0  0  0  0  0  0  0  0  0
   45.9290   34.3250   43.8770 C   0  0  0  0  0  0  0  0  0  0  0  0
   45.1250   34.6310   42.7430 C   0  0  0  0  0  0  0  0  0  0  0  0
   45.7540   34.6780   41.5090 C   0  0  0  0  0  0  0  0  0  0  0  0
   47.0840   34.4360   41.4330 N   0  0  0  0  0  0  0  0  0  0  0  0
   47.8340   34.1440   42.5250 C   0  0  0  0  0  0  0  0  0  0  0  0
   47.2420   34.0970   43.7160 N   0  0  0  0  0  0  0  0  0  0  0  0
   44.2967   32.6702   47.3720 H   0  0  0  0  0  0  0  0  0  0  0  0
   45.2144   34.1199   47.9040 H   0  0  0  0  0  0  0  0  0  0  0  0
   44.8653   31.0656   49.4986 H   0  0  0  0  0  0  0  0  0  0  0  0
   47.1296   30.0617   50.2762 H   0  0  0  0  0  0  0  0  0  0  0  0
   49.7352   29.0917   48.2621 H   0  0  0  0  0  0  0  0  0  0  0  0
   52.1613   29.0546   48.8676 H   0  0  0  0  0  0  0  0  0  0  0  0
   53.0687   31.1942   50.1269 H   0  0  0  0  0  0  0  0  0  0  0  0
   44.5226   34.9401   45.5366 H   0  0  0  0  0  0  0  0  0  0  0  0
   46.6152   32.6586   45.6655 H   0  0  0  0  0  0  0  0  0  0  0  0
   44.0464   34.8227   42.8422 H   0  0  0  0  0  0  0  0  0  0  0  0
   45.1786   34.9096   40.6005 H   0  0  0  0  0  0  0  0  0  0  0  0
   48.9123   33.9495   42.4278 H   0  0  0  0  0  0  0  0  0  0  0  0
  1  2  1  0
  2  3  2  0
  3  4  1  0
  5  7  1  0
  5  4  1  0
  6  2  1  0
  6  5  2  0
  7 11  1  0
  8  7  2  0
  8  9  1  0
  9 10  2  0
 10 11  1  0
 12 13  2  0
 13  1  1  0
 14 12  1  0
 15 14  2  0
 16 15  1  0
 17 16  2  0
 17 18  1  0
 18 19  2  0
 19 14  1  0
  1 20  1  0
  1 21  1  0
  3 22  1  0
  4 23  1  0
  8 24  1  0
  9 25  1  0
 10 26  1  0
 12 27  1  0
 13 28  1  0
 15 29  1  0
 16 30  1  0
 18 31  1  0
M  ISO  8  20   8  21   8  22  14  23   9  24  14  25  14  26  14  29  14
M  ISO  2  30  14  31  14
M  END
>  <minimizedAffinity>  (1) 
-5.24169016

>  <minimizedRMSD>  (1) 
8.32579708

$$$$
