
     RDKit          3D

 21 22  0  0  0  0  0  0  0  0999 V2000
   44.5890   36.3330   44.5080 C   0  0  0  0  0  0  0  0  0  0  0  0
   45.2420   36.3950   43.2600 C   0  0  0  0  0  0  0  0  0  0  0  0
   45.9770   35.2670   42.8590 C   0  0  0  0  0  0  0  0  0  0  0  0
   46.0270   34.1780   43.6750 N   0  0  0  0  0  0  0  0  0  0  0  0
   45.3870   34.1580   44.8640 C   0  0  0  0  0  0  0  0  0  0  0  0
   44.6720   35.2440   45.2650 N   0  0  0  0  0  0  0  0  0  0  0  0
   46.5020   32.0780   45.3280 C   0  0  0  0  0  0  0  0  0  0  0  0
   47.3210   32.1840   44.4080 O   0  0  0  0  0  0  0  0  0  0  0  0
   45.4760   32.9850   45.6780 N   0  0  0  0  0  0  0  0  0  0  0  0
   46.6250   30.8400   46.1570 C   0  0  0  0  0  0  0  0  0  0  0  0
   45.5970   30.2830   47.0440 C   0  0  0  0  0  0  0  0  0  0  0  0
   46.0270   29.1380   47.6600 C   0  0  0  0  0  0  0  0  0  0  0  0
   47.2520   28.5950   47.4680 C   0  0  0  0  0  0  0  0  0  0  0  0
   48.0140   29.7680   46.2660 S   0  0  0  0  0  0  0  0  0  0  0  0
   44.0041   37.1959   44.8591 H   0  0  0  0  0  0  0  0  0  0  0  0
   45.1785   37.2912   42.6254 H   0  0  0  0  0  0  0  0  0  0  0  0
   46.5070   35.2635   41.8951 H   0  0  0  0  0  0  0  0  0  0  0  0
   44.8355   32.8130   46.4661 H   0  0  0  0  0  0  0  0  0  0  0  0
   44.6035   30.7302   47.1954 H   0  0  0  0  0  0  0  0  0  0  0  0
   45.3373   28.6304   48.3505 H   0  0  0  0  0  0  0  0  0  0  0  0
   47.6827   27.6867   47.9146 H   0  0  0  0  0  0  0  0  0  0  0  0
  1  6  2  0
  2  1  1  0
  3  2  2  0
  3  4  1  0
  4  5  2  0
  5  6  1  0
  5  9  1  0
  7  9  1  0
  7 10  1  0
  8  7  2  0
 10 14  1  0
 10 11  2  0
 11 12  1  0
 13 12  2  0
 14 13  1  0
  1 15  1  0
  2 16  1  0
  3 17  1  0
  9 18  1  0
 11 19  1  0
 12 20  1  0
 13 21  1  0
M  ISO  6  15  14  16  14  17  14  19  14  20  14  21  14
M  END
>  <minimizedAffinity>  (1) 
-4.23604012

>  <minimizedRMSD>  (1) 
2.14116883

$$$$
