
     RDKit          3D

 28 30  0  0  1  0  0  0  0  0999 V2000
   46.4440   34.6560   43.2370 C   0  0  0  0  0  0  0  0  0  0  0  0
   45.4370   35.6280   43.5010 C   0  0  0  0  0  0  0  0  0  0  0  0
   44.7080   35.4750   44.6990 C   0  0  0  0  0  0  0  0  0  0  0  0
   45.0150   34.4260   45.5050 N   0  0  0  0  0  0  0  0  0  0  0  0
   46.0010   33.5340   45.1750 C   0  0  0  0  0  0  0  0  0  0  0  0
   46.7170   33.6240   44.0680 N   0  0  0  0  0  0  0  0  0  0  0  0
   46.2910   32.4090   46.1210 C   0  0  1  0  0  0  0  0  0  0  0  0
   46.9940   32.7130   47.4240 C   0  0  0  0  0  0  0  0  0  0  0  0
   45.5140   32.4530   47.3780 C   0  0  1  0  0  0  0  0  0  0  0  0
   44.7490   33.6630   47.7080 N   0  0  0  0  0  0  0  0  0  0  0  0
   47.1450   34.8850   42.0170 C   0  0  0  0  0  0  0  0  0  0  0  0
   48.1270   35.6450   41.8640 O   0  0  0  0  0  0  0  0  0  0  0  0
   46.7490   34.1990   40.7360 C   0  0  0  0  0  0  0  0  0  0  0  0
   45.6710   33.5900   40.2200 C   0  0  0  0  0  0  0  0  0  0  0  0
   45.7080   33.0700   38.9640 C   0  0  0  0  0  0  0  0  0  0  0  0
   46.8990   33.1630   38.1680 C   0  0  0  0  0  0  0  0  0  0  0  0
   48.0480   34.0870   39.3660 S   0  0  0  0  0  0  0  0  0  0  0  0
   45.2377   36.4566   42.8055 H   0  0  0  0  0  0  0  0  0  0  0  0
   43.9136   36.1851   44.9725 H   0  0  0  0  0  0  0  0  0  0  0  0
   46.4795   31.6804   45.3188 H   0  0  0  0  0  0  0  0  0  0  0  0
   47.6724   31.9725   47.8728 H   0  0  0  0  0  0  0  0  0  0  0  0
   47.6377   33.5225   47.7986 H   0  0  0  0  0  0  0  0  0  0  0  0
   44.7913   31.7467   47.8127 H   0  0  0  0  0  0  0  0  0  0  0  0
   44.6868   33.7614   48.7314 H   0  0  0  0  0  0  0  0  0  0  0  0
   45.2228   34.4874   47.3120 H   0  0  0  0  0  0  0  0  0  0  0  0
   44.7505   33.5106   40.8170 H   0  0  0  0  0  0  0  0  0  0  0  0
   44.8164   32.5732   38.5539 H   0  0  0  0  0  0  0  0  0  0  0  0
   47.0926   32.8001   37.1478 H   0  0  0  0  0  0  0  0  0  0  0  0
  1  2  2  0
  1  6  1  0
  2  3  1  0
  3  4  2  0
  5  4  1  0
  5  7  1  0
  6  5  2  0
  7  9  1  0
  7  8  1  0
  9  8  1  0
  9 10  1  0
 11  1  1  0
 12 11  2  0
 13 11  1  0
 14 13  2  0
 15 14  1  0
 16 15  2  0
 16 17  1  0
 17 13  1  0
  2 18  1  0
  3 19  1  0
  7 20  1  6
  8 21  1  0
  8 22  1  0
  9 23  1  1
 10 24  1  0
 10 25  1  0
 14 26  1  0
 15 27  1  0
 16 28  1  0
M  ISO  8  18  14  19  14  20  13  21  13  22  13  23  13  24   5  25   5
M  ISO  3  26  14  27  14  28  14
M  END
>  <minimizedAffinity>  (1) 
-5.42000723

>  <minimizedRMSD>  (1) 
0.670689166

$$$$
