
     RDKit          3D

 28 30  0  0  0  0  0  0  0  0999 V2000
   45.6910   32.7650   46.7640 C   0  0  0  0  0  0  0  0  0  0  0  0
   44.9860   33.2980   47.6860 O   0  0  0  0  0  0  0  0  0  0  0  0
   46.2980   31.4180   46.8420 C   0  0  0  0  0  0  0  0  0  0  0  0
   45.7200   30.4210   46.0470 C   0  0  0  0  0  0  0  0  0  0  0  0
   46.1380   29.1310   45.9790 C   0  0  0  0  0  0  0  0  0  0  0  0
   47.2200   28.7620   46.7510 C   0  0  0  0  0  0  0  0  0  0  0  0
   47.8110   29.7220   47.5450 C   0  0  0  0  0  0  0  0  0  0  0  0
   48.9050   29.4250   48.3510 C   0  0  0  0  0  0  0  0  0  0  0  0
   49.5030   30.3860   49.1520 C   0  0  0  0  0  0  0  0  0  0  0  0
   49.0170   31.6950   49.1710 C   0  0  0  0  0  0  0  0  0  0  0  0
   47.9360   31.9990   48.3770 C   0  0  0  0  0  0  0  0  0  0  0  0
   47.3670   31.0220   47.5940 C   0  0  0  0  0  0  0  0  0  0  0  0
   45.2890   35.0730   44.0010 C   0  0  0  0  0  0  0  0  0  0  0  0
   46.4110   34.8100   43.1740 C   0  0  0  0  0  0  0  0  0  0  0  0
   47.3130   33.8210   43.5820 C   0  0  0  0  0  0  0  0  0  0  0  0
   47.0560   33.1750   44.7450 N   0  0  0  0  0  0  0  0  0  0  0  0
   45.9690   33.4560   45.5110 C   0  0  0  0  0  0  0  0  0  0  0  0
   45.0880   34.3960   45.1490 N   0  0  0  0  0  0  0  0  0  0  0  0
   44.8571   30.7059   45.4271 H   0  0  0  0  0  0  0  0  0  0  0  0
   45.6300   28.4033   45.3290 H   0  0  0  0  0  0  0  0  0  0  0  0
   47.6009   27.7302   46.7337 H   0  0  0  0  0  0  0  0  0  0  0  0
   49.3063   28.4008   48.3530 H   0  0  0  0  0  0  0  0  0  0  0  0
   50.3667   30.1152   49.7771 H   0  0  0  0  0  0  0  0  0  0  0  0
   49.4862   32.4625   49.8041 H   0  0  0  0  0  0  0  0  0  0  0  0
   47.5278   33.0204   48.3682 H   0  0  0  0  0  0  0  0  0  0  0  0
   44.5673   35.8462   43.6989 H   0  0  0  0  0  0  0  0  0  0  0  0
   46.5676   35.3675   42.2388 H   0  0  0  0  0  0  0  0  0  0  0  0
   48.2001   33.5764   42.9793 H   0  0  0  0  0  0  0  0  0  0  0  0
  1  3  1  0
  1  2  2  0
  3 12  1  0
  4  3  2  0
  5  4  1  0
  5  6  2  0
  6  7  1  0
  7 12  2  0
  7  8  1  0
  8  9  2  0
  9 10  1  0
 11 10  2  0
 12 11  1  0
 13 18  2  0
 14 15  2  0
 14 13  1  0
 15 16  1  0
 16 17  2  0
 17  1  1  0
 18 17  1  0
  4 19  1  0
  5 20  1  0
  6 21  1  0
  8 22  1  0
  9 23  1  0
 10 24  1  0
 11 25  1  0
 13 26  1  0
 14 27  1  0
 15 28  1  0
M  ISO  8  19  14  20  14  21  14  22  14  23  14  24  14  25  14  26  14
M  ISO  2  27  14  28  14
M  END
>  <minimizedAffinity>  (1) 
-4.90822792

>  <minimizedRMSD>  (1) 
2.18940306

$$$$
