
     RDKit          3D

 53 57  0  0  1  0  0  0  0  0999 V2000
   47.7340   32.6900   41.6030 C   0  0  1  0  0  0  0  0  0  0  0  0
   47.3430   32.1600   40.2930 C   0  0  0  0  0  0  0  0  0  0  0  0
   48.3510   32.7080   39.2850 C   0  0  0  0  0  0  0  0  0  0  0  0
   48.0730   34.1940   39.1620 C   0  0  0  0  0  0  0  0  0  0  0  0
   48.0830   34.9230   40.4770 C   0  0  0  0  0  0  0  0  0  0  0  0
   47.5970   34.2140   41.6660 C   0  0  1  0  0  0  0  0  0  0  0  0
   45.2180   30.7940   43.7000 C   0  0  0  0  0  0  0  0  0  0  0  0
   45.8920   31.3890   42.6300 C   0  0  0  0  0  0  0  0  0  0  0  0
   47.0940   32.0920   42.7560 C   0  0  0  0  0  0  0  0  0  0  0  0
   47.5880   32.1750   43.9990 N   0  0  0  0  0  0  0  0  0  0  0  0
   46.9430   31.6010   45.0530 C   0  0  0  0  0  0  0  0  0  0  0  0
   45.8010   30.9350   44.9210 N   0  0  0  0  0  0  0  0  0  0  0  0
   46.2450   34.6200   42.0510 C   0  0  0  0  0  0  0  0  0  0  0  0
   45.8410   35.0540   43.3140 C   0  0  0  0  0  0  0  0  0  0  0  0
   44.5000   35.4070   43.4450 C   0  0  0  0  0  0  0  0  0  0  0  0
   43.6890   35.3020   42.3340 C   0  0  0  0  0  0  0  0  0  0  0  0
   44.1060   34.8690   41.0850 C   0  0  0  0  0  0  0  0  0  0  0  0
   45.4160   34.5280   40.9750 N   0  0  0  0  0  0  0  0  0  0  0  0
   43.1650   34.7920   39.9750 C   0  0  0  0  0  0  0  0  0  0  0  0
   42.7570   35.8540   39.4620 O   0  0  0  0  0  0  0  0  0  0  0  0
   42.5400   33.6870   39.2710 C   0  0  0  0  0  0  0  0  0  0  0  0
   43.2440   32.6960   38.6230 C   0  0  0  0  0  0  0  0  0  0  0  0
   42.6920   31.6510   37.9100 C   0  0  0  0  0  0  0  0  0  0  0  0
   41.3170   31.5840   37.8320 C   0  0  0  0  0  0  0  0  0  0  0  0
   40.5480   32.5420   38.4570 C   0  0  0  0  0  0  0  0  0  0  0  0
   39.1960   32.4180   38.3500 C   0  0  0  0  0  0  0  0  0  0  0  0
   38.3610   33.3340   38.9570 C   0  0  0  0  0  0  0  0  0  0  0  0
   38.9440   34.3820   39.6760 C   0  0  0  0  0  0  0  0  0  0  0  0
   40.3150   34.4510   39.7430 C   0  0  0  0  0  0  0  0  0  0  0  0
   41.1730   33.5560   39.1500 C   0  0  0  0  0  0  0  0  0  0  0  0
   48.7918   32.3975   41.6772 H   0  0  0  0  0  0  0  0  0  0  0  0
   47.3750   31.0605   40.3030 H   0  0  0  0  0  0  0  0  0  0  0  0
   46.3171   32.4597   40.0327 H   0  0  0  0  0  0  0  0  0  0  0  0
   49.3770   32.5419   39.6451 H   0  0  0  0  0  0  0  0  0  0  0  0
   48.2550   32.2036   38.3122 H   0  0  0  0  0  0  0  0  0  0  0  0
   48.8420   34.6384   38.5130 H   0  0  0  0  0  0  0  0  0  0  0  0
   47.0602   34.2976   38.7454 H   0  0  0  0  0  0  0  0  0  0  0  0
   49.1229   35.2208   40.6770 H   0  0  0  0  0  0  0  0  0  0  0  0
   47.3663   35.7458   40.3382 H   0  0  0  0  0  0  0  0  0  0  0  0
   48.2813   34.5327   42.4661 H   0  0  0  0  0  0  0  0  0  0  0  0
   44.2743   30.2455   43.5633 H   0  0  0  0  0  0  0  0  0  0  0  0
   45.4496   31.2987   41.6269 H   0  0  0  0  0  0  0  0  0  0  0  0
   47.3865   31.6929   46.0554 H   0  0  0  0  0  0  0  0  0  0  0  0
   46.5425   35.1140   44.1592 H   0  0  0  0  0  0  0  0  0  0  0  0
   44.0991   35.7594   44.4068 H   0  0  0  0  0  0  0  0  0  0  0  0
   42.6316   35.5831   42.4479 H   0  0  0  0  0  0  0  0  0  0  0  0
   44.3417   32.7414   38.6786 H   0  0  0  0  0  0  0  0  0  0  0  0
   43.3271   30.8977   37.4209 H   0  0  0  0  0  0  0  0  0  0  0  0
   40.8353   30.7685   37.2727 H   0  0  0  0  0  0  0  0  0  0  0  0
   38.7671   31.5830   37.7765 H   0  0  0  0  0  0  0  0  0  0  0  0
   37.2677   33.2422   38.8774 H   0  0  0  0  0  0  0  0  0  0  0  0
   38.3186   35.1353   40.1774 H   0  0  0  0  0  0  0  0  0  0  0  0
   40.7572   35.2821   40.3120 H   0  0  0  0  0  0  0  0  0  0  0  0
  1  6  1  0
  1  9  1  0
  2  1  1  0
  3  2  1  0
  4  3  1  0
  4  5  1  0
  5  6  1  0
  6 13  1  0
  7 12  2  0
  8  9  2  0
  8  7  1  0
  9 10  1  0
 10 11  2  0
 12 11  1  0
 13 14  2  0
 14 15  1  0
 16 15  2  0
 17 16  1  0
 18 17  2  0
 18 13  1  0
 19 17  1  0
 20 19  2  0
 21 19  1  0
 22 21  2  0
 23 22  1  0
 24 23  2  0
 24 25  1  0
 25 30  2  0
 26 25  1  0
 26 27  2  0
 27 28  1  0
 28 29  2  0
 30 21  1  0
 30 29  1  0
  1 31  1  1
  2 32  1  0
  2 33  1  0
  3 34  1  0
  3 35  1  0
  4 36  1  0
  4 37  1  0
  5 38  1  0
  5 39  1  0
  6 40  1  1
  7 41  1  0
  8 42  1  0
 11 43  1  0
 14 44  1  0
 15 45  1  0
 16 46  1  0
 22 47  1  0
 23 48  1  0
 24 49  1  0
 26 50  1  0
 27 51  1  0
 28 52  1  0
 29 53  1  0
M  ISO  8  31  13  32  13  33  13  34  13  35  13  36  13  37  13  38  13
M  ISO  8  39  13  40  13  41  14  42  14  43  14  44  14  45  14  46  14
M  ISO  7  47  14  48  14  49  14  50  14  51  14  52  14  53  14
M  END
>  <minimizedAffinity>  (1) 
-6.56950092

>  <minimizedRMSD>  (1) 
1.26061428

$$$$
