
     RDKit          3D

 28 30  0  0  0  0  0  0  0  0999 V2000
   45.1840   35.4400   43.8820 C   0  0  0  0  0  0  0  0  0  0  0  0
   45.0000   36.6950   44.0270 O   0  0  0  0  0  0  0  0  0  0  0  0
   45.1570   34.7050   42.6170 C   0  0  0  0  0  0  0  0  0  0  0  0
   44.0580   33.9680   42.1810 C   0  0  0  0  0  0  0  0  0  0  0  0
   44.0070   33.2630   41.0060 C   0  0  0  0  0  0  0  0  0  0  0  0
   45.1080   33.2690   40.1820 C   0  0  0  0  0  0  0  0  0  0  0  0
   46.2300   33.9720   40.5420 C   0  0  0  0  0  0  0  0  0  0  0  0
   47.3220   33.9650   39.6980 C   0  0  0  0  0  0  0  0  0  0  0  0
   48.4650   34.6640   40.0320 C   0  0  0  0  0  0  0  0  0  0  0  0
   48.4930   35.3680   41.2200 C   0  0  0  0  0  0  0  0  0  0  0  0
   47.3770   35.3450   42.0310 C   0  0  0  0  0  0  0  0  0  0  0  0
   46.2190   34.6610   41.7370 C   0  0  0  0  0  0  0  0  0  0  0  0
   45.4560   34.4970   44.9370 C   0  0  0  0  0  0  0  0  0  0  0  0
   44.6890   34.7130   46.0770 C   0  0  0  0  0  0  0  0  0  0  0  0
   44.8800   33.8380   47.1670 C   0  0  0  0  0  0  0  0  0  0  0  0
   45.8120   32.8390   47.0110 N   0  0  0  0  0  0  0  0  0  0  0  0
   46.5170   32.6910   45.8780 C   0  0  0  0  0  0  0  0  0  0  0  0
   46.3490   33.5050   44.8440 N   0  0  0  0  0  0  0  0  0  0  0  0
   43.1670   33.9504   42.8258 H   0  0  0  0  0  0  0  0  0  0  0  0
   43.1021   32.7030   40.7276 H   0  0  0  0  0  0  0  0  0  0  0  0
   45.0892   32.7104   39.2346 H   0  0  0  0  0  0  0  0  0  0  0  0
   47.2816   33.4000   38.7550 H   0  0  0  0  0  0  0  0  0  0  0  0
   49.3384   34.6602   39.3633 H   0  0  0  0  0  0  0  0  0  0  0  0
   49.3879   35.9361   41.5139 H   0  0  0  0  0  0  0  0  0  0  0  0
   47.4150   35.9101   42.9740 H   0  0  0  0  0  0  0  0  0  0  0  0
   43.9604   35.5356   46.1268 H   0  0  0  0  0  0  0  0  0  0  0  0
   44.3087   33.9499   48.1003 H   0  0  0  0  0  0  0  0  0  0  0  0
   47.2514   31.8753   45.8054 H   0  0  0  0  0  0  0  0  0  0  0  0
  1  2  2  0
  1 13  1  0
  3  1  1  0
  4  3  2  0
  5  4  1  0
  6  7  1  0
  6  5  2  0
  7 12  2  0
  8  9  2  0
  8  7  1  0
  9 10  1  0
 10 11  2  0
 12 11  1  0
 12  3  1  0
 13 14  2  0
 14 15  1  0
 16 15  2  0
 17 16  1  0
 18 13  1  0
 18 17  2  0
  4 19  1  0
  5 20  1  0
  6 21  1  0
  8 22  1  0
  9 23  1  0
 10 24  1  0
 11 25  1  0
 14 26  1  0
 15 27  1  0
 17 28  1  0
M  ISO  8  19  14  20  14  21  14  22  14  23  14  24  14  25  14  26  14
M  ISO  2  27  14  28  14
M  END
>  <minimizedAffinity>  (1) 
-5.26882601

>  <minimizedRMSD>  (1) 
3.09140348

$$$$
