
     RDKit          3D

 53 57  0  0  1  0  0  0  0  0999 V2000
   46.4480   35.2610   42.3660 C   0  0  0  0  0  0  0  0  0  0  0  0
   46.9090   34.0620   42.9050 C   0  0  0  0  0  0  0  0  0  0  0  0
   46.2140   33.5370   43.9900 C   0  0  0  0  0  0  0  0  0  0  0  0
   45.1230   34.1950   44.4850 N   0  0  0  0  0  0  0  0  0  0  0  0
   44.7280   35.3450   43.9220 C   0  0  0  0  0  0  0  0  0  0  0  0
   45.3640   35.8770   42.8880 N   0  0  0  0  0  0  0  0  0  0  0  0
   43.6010   36.0770   44.3790 N   0  0  0  0  0  0  0  0  0  0  0  0
   48.1150   33.3700   42.3490 C   0  0  0  0  0  0  0  0  0  0  0  0
   49.0900   34.2690   41.5830 C   0  0  0  0  0  0  0  0  0  0  0  0
   49.4230   33.6500   42.8660 C   0  0  0  0  0  0  0  0  0  0  0  0
   47.8670   32.0740   41.6530 C   0  0  0  0  0  0  0  0  0  0  0  0
   49.0950   31.2040   41.4540 C   0  0  0  0  0  0  0  0  0  0  0  0
   48.5650   29.8930   40.8570 C   0  0  0  0  0  0  0  0  0  0  0  0
   48.2950   30.1760   39.5110 O   0  0  0  0  0  0  0  0  0  0  0  0
   47.1040   30.9400   39.5860 C   0  0  0  0  0  0  0  0  0  0  0  0
   47.3760   32.2860   40.2150 C   0  0  0  0  0  0  0  0  0  0  0  0
   46.6230   32.3430   44.6890 C   0  0  0  0  0  0  0  0  0  0  0  0
   47.8230   31.8850   44.8210 O   0  0  0  0  0  0  0  0  0  0  0  0
   46.0780   31.2300   45.4510 C   0  0  0  0  0  0  0  0  0  0  0  0
   45.8670   30.0410   44.7690 C   0  0  0  0  0  0  0  0  0  0  0  0
   45.4240   28.8400   45.2850 C   0  0  0  0  0  0  0  0  0  0  0  0
   45.1750   28.8660   46.6230 C   0  0  0  0  0  0  0  0  0  0  0  0
   45.3510   29.9920   47.3960 C   0  0  0  0  0  0  0  0  0  0  0  0
   45.1100   30.0630   48.7570 C   0  0  0  0  0  0  0  0  0  0  0  0
   45.3100   31.2340   49.4680 C   0  0  0  0  0  0  0  0  0  0  0  0
   45.7590   32.3870   48.8540 C   0  0  0  0  0  0  0  0  0  0  0  0
   46.0020   32.3350   47.5050 C   0  0  0  0  0  0  0  0  0  0  0  0
   45.8060   31.1740   46.7920 C   0  0  0  0  0  0  0  0  0  0  0  0
   46.9705   35.7102   41.5085 H   0  0  0  0  0  0  0  0  0  0  0  0
   43.3354   36.9569   43.9141 H   0  0  0  0  0  0  0  0  0  0  0  0
   43.0488   35.7283   45.1755 H   0  0  0  0  0  0  0  0  0  0  0  0
   49.5619   33.9159   40.6543 H   0  0  0  0  0  0  0  0  0  0  0  0
   49.0746   35.2901   41.1743 H   0  0  0  0  0  0  0  0  0  0  0  0
   49.5253   34.2832   43.7596 H   0  0  0  0  0  0  0  0  0  0  0  0
   50.2535   33.0125   43.2033 H   0  0  0  0  0  0  0  0  0  0  0  0
   47.1389   31.5919   42.3219 H   0  0  0  0  0  0  0  0  0  0  0  0
   49.8012   31.6857   40.7617 H   0  0  0  0  0  0  0  0  0  0  0  0
   49.6386   31.0375   42.3957 H   0  0  0  0  0  0  0  0  0  0  0  0
   49.3226   29.0997   40.9385 H   0  0  0  0  0  0  0  0  0  0  0  0
   47.6691   29.5365   41.3865 H   0  0  0  0  0  0  0  0  0  0  0  0
   46.7051   31.0887   38.5717 H   0  0  0  0  0  0  0  0  0  0  0  0
   46.3737   30.3993   40.2060 H   0  0  0  0  0  0  0  0  0  0  0  0
   48.1473   32.8148   39.6359 H   0  0  0  0  0  0  0  0  0  0  0  0
   46.4546   32.8869   40.2212 H   0  0  0  0  0  0  0  0  0  0  0  0
   46.5023   31.7601   43.7640 H   0  0  0  0  0  0  0  0  0  0  0  0
   48.0405   31.8020   45.7832 H   0  0  0  0  0  0  0  0  0  0  0  0
   46.0776   30.0570   43.6895 H   0  0  0  0  0  0  0  0  0  0  0  0
   45.2843   27.9398   44.6684 H   0  0  0  0  0  0  0  0  0  0  0  0
   44.8171   27.9462   47.1086 H   0  0  0  0  0  0  0  0  0  0  0  0
   44.7511   29.1680   49.2863 H   0  0  0  0  0  0  0  0  0  0  0  0
   45.1063   31.2465   50.5489 H   0  0  0  0  0  0  0  0  0  0  0  0
   45.9160   33.3133   49.4261 H   0  0  0  0  0  0  0  0  0  0  0  0
   46.3593   33.2358   46.9845 H   0  0  0  0  0  0  0  0  0  0  0  0
  1  6  2  0
  1  2  1  0
  2  3  2  0
  3  4  1  0
  3 17  1  0
  5  7  1  0
  5  4  2  0
  6  5  1  0
  8 10  1  0
  8  2  1  0
  9  8  1  0
  9 10  1  0
 11  8  1  0
 12 11  1  0
 13 12  1  0
 14 15  1  0
 14 13  1  0
 15 16  1  0
 16 11  1  0
 17 18  1  0
 17 19  1  0
 19 28  2  0
 20 21  2  0
 20 19  1  0
 21 22  1  0
 22 23  2  0
 23 24  1  0
 24 25  2  0
 26 25  1  0
 27 26  2  0
 28 23  1  0
 28 27  1  0
  1 29  1  0
  7 30  1  0
  7 31  1  0
  9 32  1  0
  9 33  1  0
 10 34  1  0
 10 35  1  0
 11 36  1  0
 12 37  1  0
 12 38  1  0
 13 39  1  0
 13 40  1  0
 15 41  1  0
 15 42  1  0
 16 43  1  0
 16 44  1  0
 17 45  1  0
 18 46  1  0
 20 47  1  0
 21 48  1  0
 22 49  1  0
 24 50  1  0
 25 51  1  0
 26 52  1  0
 27 53  1  0
M  ISO  8  29  14  32  13  33  13  34  13  35  13  36  13  37  13  38  13
M  ISO  8  39  13  40  13  41  13  42  13  43  13  44  13  45   8  46   3
M  ISO  7  47  14  48  14  49  14  50  14  51  14  52  14  53  14
M  END
>  <minimizedAffinity>  (1) 
-6.31474257

>  <minimizedRMSD>  (1) 
4.53983068

$$$$
