
     RDKit          3D

 53 56  0  0  0  0  0  0  0  0999 V2000
   46.8000   34.9820   42.0400 C   0  0  0  0  0  0  0  0  0  0  0  0
   45.3630   34.6460   42.0260 C   0  0  0  0  0  0  0  0  0  0  0  0
   44.3840   35.6690   41.8780 C   0  0  0  0  0  0  0  0  0  0  0  0
   42.7990   34.7640   41.9230 S   0  0  0  0  0  0  0  0  0  0  0  0
   43.7200   33.1080   42.1390 C   0  0  0  0  0  0  0  0  0  0  0  0
   44.8010   33.4850   42.1360 N   0  0  0  0  0  0  0  0  0  0  0  0
   43.0700   31.8890   42.2520 O   0  0  0  0  0  0  0  0  0  0  0  0
   41.0340   30.3050   41.6560 O   0  0  0  0  0  0  0  0  0  0  0  0
   41.5780   31.7270   41.4510 P   0  0  1  0  0  0  0  0  0  0  0  0
   40.4990   32.8250   42.1560 O   0  0  0  0  0  0  0  0  0  0  0  0
   41.7560   32.0940   39.8170 O   0  0  0  0  0  0  0  0  0  0  0  0
   40.6690   32.6240   39.1340 C   0  0  0  0  0  0  0  0  0  0  0  0
   39.4430   31.9980   39.0420 C   0  0  0  0  0  0  0  0  0  0  0  0
   38.4540   32.6500   38.3280 C   0  0  0  0  0  0  0  0  0  0  0  0
   38.6490   33.8790   37.7170 C   0  0  0  0  0  0  0  0  0  0  0  0
   39.8990   34.4660   37.8410 C   0  0  0  0  0  0  0  0  0  0  0  0
   40.1070   35.6970   37.2340 C   0  0  0  0  0  0  0  0  0  0  0  0
   41.3620   36.2950   37.3530 C   0  0  0  0  0  0  0  0  0  0  0  0
   42.4080   35.7150   38.0480 C   0  0  0  0  0  0  0  0  0  0  0  0
   42.1420   34.4920   38.6300 C   0  0  0  0  0  0  0  0  0  0  0  0
   40.9140   33.8590   38.5390 C   0  0  0  0  0  0  0  0  0  0  0  0
   47.5580   34.4890   40.8510 C   0  0  0  0  0  0  0  0  0  0  0  0
   48.8080   33.7890   41.1830 C   0  0  0  0  0  0  0  0  0  0  0  0
   49.1130   32.6590   40.4490 C   0  0  0  0  0  0  0  0  0  0  0  0
   50.2620   31.9390   40.6870 C   0  0  0  0  0  0  0  0  0  0  0  0
   51.0860   32.4080   41.6960 N   0  0  0  0  0  0  0  0  0  0  0  0
   50.7460   33.5290   42.3980 C   0  0  0  0  0  0  0  0  0  0  0  0
   49.6240   34.2010   42.1380 N   0  0  0  0  0  0  0  0  0  0  0  0
   47.9980   32.1100   39.1560 S   0  0  0  0  0  0  0  0  0  0  0  0
   48.8070   32.2540   37.5460 C   0  0  0  0  0  0  0  0  0  0  0  0
   48.4690   33.5990   36.9510 C   0  0  0  0  0  0  0  0  0  0  0  0
   48.0520   33.4090   35.5990 N   0  0  0  0  0  0  0  0  0  0  0  0
   46.8974   36.0769   42.0810 H   0  0  0  0  0  0  0  0  0  0  0  0
   47.2321   34.4813   42.9189 H   0  0  0  0  0  0  0  0  0  0  0  0
   44.5449   36.7511   41.7634 H   0  0  0  0  0  0  0  0  0  0  0  0
   40.5611   32.7618   43.1420 H   0  0  0  0  0  0  0  0  0  0  0  0
   39.2599   31.0224   39.5161 H   0  0  0  0  0  0  0  0  0  0  0  0
   37.4674   32.1714   38.2410 H   0  0  0  0  0  0  0  0  0  0  0  0
   37.8416   34.3705   37.1544 H   0  0  0  0  0  0  0  0  0  0  0  0
   39.3003   36.1900   36.6717 H   0  0  0  0  0  0  0  0  0  0  0  0
   41.5269   37.2709   36.8729 H   0  0  0  0  0  0  0  0  0  0  0  0
   43.3922   36.1991   38.1318 H   0  0  0  0  0  0  0  0  0  0  0  0
   42.9454   33.9957   39.1940 H   0  0  0  0  0  0  0  0  0  0  0  0
   47.8041   35.3528   40.2159 H   0  0  0  0  0  0  0  0  0  0  0  0
   46.9110   33.7586   40.3432 H   0  0  0  0  0  0  0  0  0  0  0  0
   50.5122   31.0389   40.1064 H   0  0  0  0  0  0  0  0  0  0  0  0
   51.4132   33.8859   43.1964 H   0  0  0  0  0  0  0  0  0  0  0  0
   49.8965   32.1680   37.6706 H   0  0  0  0  0  0  0  0  0  0  0  0
   48.4582   31.4518   36.8791 H   0  0  0  0  0  0  0  0  0  0  0  0
   47.6561   34.0650   37.5272 H   0  0  0  0  0  0  0  0  0  0  0  0
   49.3511   34.2555   36.9827 H   0  0  0  0  0  0  0  0  0  0  0  0
   47.1148   32.9820   35.5856 H   0  0  0  0  0  0  0  0  0  0  0  0
   48.0215   34.3193   35.1180 H   0  0  0  0  0  0  0  0  0  0  0  0
  2  1  1  0
  2  6  1  0
  3  4  1  0
  3  2  2  0
  4  5  1  0
  5  7  1  0
  6  5  2  0
  9  8  2  0
  9 10  1  0
  9  7  1  0
 11  9  1  0
 12 11  1  0
 13 12  2  0
 14 13  1  0
 15 16  1  0
 15 14  2  0
 16 21  2  0
 17 18  2  0
 17 16  1  0
 18 19  1  0
 19 20  2  0
 21 20  1  0
 21 12  1  0
 22 23  1  0
 22  1  1  0
 23 28  2  0
 24 25  2  0
 24 23  1  0
 25 26  1  0
 26 27  2  0
 28 27  1  0
 29 24  1  0
 30 29  1  0
 31 30  1  0
 32 31  1  0
  1 33  1  0
  1 34  1  0
  3 35  1  0
 10 36  1  0
 13 37  1  0
 14 38  1  0
 15 39  1  0
 17 40  1  0
 18 41  1  0
 19 42  1  0
 20 43  1  0
 22 44  1  0
 22 45  1  0
 25 46  1  0
 27 47  1  0
 30 48  1  0
 30 49  1  0
 31 50  1  0
 31 51  1  0
 32 52  1  0
 32 53  1  0
M  ISO  8  33   8  34   8  35  14  36   3  37  14  38  14  39  14  40  14
M  ISO  8  41  14  42  14  43  14  44   8  45   8  46  14  47  14  48   8
M  ISO  5  49   8  50   8  51   8  52   5  53   5
M  END
>  <minimizedAffinity>  (1) 
-6.05896139

>  <minimizedRMSD>  (1) 
3.46628141

$$$$
