
     RDKit          3D

 46 50  0  0  1  0  0  0  0  0999 V2000
   48.0720   33.1100   43.2410 N   0  0  0  0  0  0  0  0  0  0  0  0
   49.2080   33.1120   42.4470 C   0  0  0  0  0  0  0  0  0  0  0  0
   50.3300   32.5590   42.6110 O   0  0  0  0  0  0  0  0  0  0  0  0
   46.1840   31.9950   44.3710 C   0  0  1  0  0  0  0  0  0  0  0  0
   46.3690   31.3110   43.1650 C   0  0  0  0  0  0  0  0  0  0  0  0
   47.5840   31.9550   43.9040 C   0  0  1  0  0  0  0  0  0  0  0  0
   45.0060   33.9390   43.0970 C   0  0  0  0  0  0  0  0  0  0  0  0
   45.4970   33.3720   44.3110 C   0  0  0  0  0  0  0  0  0  0  0  0
   45.3630   34.1260   45.4600 C   0  0  0  0  0  0  0  0  0  0  0  0
   44.7890   35.3370   45.3980 N   0  0  0  0  0  0  0  0  0  0  0  0
   44.3260   35.8660   44.2290 C   0  0  0  0  0  0  0  0  0  0  0  0
   44.4440   35.1340   43.0500 N   0  0  0  0  0  0  0  0  0  0  0  0
   49.1970   33.8800   41.1350 C   0  0  2  0  0  0  0  0  0  0  0  0
   48.6000   35.3380   41.1910 C   0  0  0  0  0  0  0  0  0  0  0  0
   47.9370   34.2110   40.4570 C   0  0  1  0  0  0  0  0  0  0  0  0
   47.9420   34.2600   38.9470 C   0  0  0  0  0  0  0  0  0  0  0  0
   48.7620   34.9900   38.3760 O   0  0  0  0  0  0  0  0  0  0  0  0
   46.9610   33.4280   38.2360 C   0  0  0  0  0  0  0  0  0  0  0  0
   45.7560   33.0830   38.7590 C   0  0  0  0  0  0  0  0  0  0  0  0
   44.7870   32.3030   38.1640 C   0  0  0  0  0  0  0  0  0  0  0  0
   45.0350   31.7970   36.8870 C   0  0  0  0  0  0  0  0  0  0  0  0
   46.2290   32.1100   36.3100 C   0  0  0  0  0  0  0  0  0  0  0  0
   46.4600   31.6030   35.0490 C   0  0  0  0  0  0  0  0  0  0  0  0
   47.6550   31.8750   34.3880 C   0  0  0  0  0  0  0  0  0  0  0  0
   48.6020   32.6670   35.0300 C   0  0  0  0  0  0  0  0  0  0  0  0
   48.2950   33.1350   36.2890 C   0  0  0  0  0  0  0  0  0  0  0  0
   47.1380   32.8960   36.9800 C   0  0  0  0  0  0  0  0  0  0  0  0
   47.5551   33.9935   43.3556 H   0  0  0  0  0  0  0  0  0  0  0  0
   45.6939   31.7030   45.3115 H   0  0  0  0  0  0  0  0  0  0  0  0
   46.0033   31.7456   42.2230 H   0  0  0  0  0  0  0  0  0  0  0  0
   46.1257   30.3048   42.7931 H   0  0  0  0  0  0  0  0  0  0  0  0
   48.5487   31.6557   44.3398 H   0  0  0  0  0  0  0  0  0  0  0  0
   45.0988   33.3601   42.1663 H   0  0  0  0  0  0  0  0  0  0  0  0
   45.7254   33.7353   46.4223 H   0  0  0  0  0  0  0  0  0  0  0  0
   43.8627   36.8636   44.2176 H   0  0  0  0  0  0  0  0  0  0  0  0
   50.1261   33.3925   40.8048 H   0  0  0  0  0  0  0  0  0  0  0  0
   48.1666   35.7283   42.1236 H   0  0  0  0  0  0  0  0  0  0  0  0
   48.9506   36.3509   40.9436 H   0  0  0  0  0  0  0  0  0  0  0  0
   46.9265   33.7779   40.4945 H   0  0  0  0  0  0  0  0  0  0  0  0
   45.5288   33.4668   39.7645 H   0  0  0  0  0  0  0  0  0  0  0  0
   43.8419   32.0849   38.6829 H   0  0  0  0  0  0  0  0  0  0  0  0
   44.2956   31.1702   36.3669 H   0  0  0  0  0  0  0  0  0  0  0  0
   45.6956   30.9797   34.5620 H   0  0  0  0  0  0  0  0  0  0  0  0
   47.8459   31.4732   33.3820 H   0  0  0  0  0  0  0  0  0  0  0  0
   49.5611   32.9107   34.5497 H   0  0  0  0  0  0  0  0  0  0  0  0
   49.0516   33.7600   36.7859 H   0  0  0  0  0  0  0  0  0  0  0  0
  1  6  1  0
  2  3  2  0
  2  1  1  0
  5  6  1  0
  5  4  1  0
  6  4  1  0
  7  8  2  0
  8  4  1  0
  8  9  1  0
 10  9  2  0
 11 10  1  0
 12  7  1  0
 12 11  2  0
 13 14  1  0
 13  2  1  0
 15 13  1  0
 15 14  1  0
 16 15  1  0
 17 16  2  0
 18 19  2  0
 18 16  1  0
 20 19  1  0
 21 20  2  0
 22 21  1  0
 22 27  2  0
 23 22  1  0
 24 25  1  0
 24 23  2  0
 25 26  2  0
 26 27  1  0
 27 18  1  0
  1 28  1  0
  4 29  1  1
  5 30  1  0
  5 31  1  0
  6 32  1  1
  7 33  1  0
  9 34  1  0
 11 35  1  0
 13 36  1  6
 14 37  1  0
 14 38  1  0
 15 39  1  1
 19 40  1  0
 20 41  1  0
 21 42  1  0
 23 43  1  0
 24 44  1  0
 25 45  1  0
 26 46  1  0
M  ISO  8  29  13  30  13  31  13  32  13  33  14  34  14  35  14  36  13
M  ISO  8  37  13  38  13  39  13  40  14  41  14  42  14  43  14  44  14
M  ISO  2  45  14  46  14
M  END
>  <minimizedAffinity>  (1) 
-5.55966949

>  <minimizedRMSD>  (1) 
0.506282985

$$$$
