
     RDKit          3D

 48 52  0  0  1  0  0  0  0  0999 V2000
   46.8770   34.2450   42.3460 N   0  0  0  0  0  0  0  0  0  0  0  0
   48.1900   33.6750   42.2370 C   0  0  0  0  0  0  0  0  0  0  0  0
   48.7350   34.5700   41.1390 C   0  0  0  0  0  0  0  0  0  0  0  0
   47.6150   34.3600   40.1060 C   0  0  0  0  0  0  0  0  0  0  0  0
   46.4030   34.4390   40.9710 C   0  0  1  0  0  0  0  0  0  0  0  0
   43.7200   35.3170   40.6860 F   0  0  0  0  0  0  0  0  0  0  0  0
   43.9860   33.9810   40.4510 C   0  0  0  0  0  0  0  0  0  0  0  0
   45.2840   33.5750   40.6120 C   0  0  0  0  0  0  0  0  0  0  0  0
   45.5020   32.2260   40.3740 C   0  0  0  0  0  0  0  0  0  0  0  0
   44.4700   31.3870   40.0070 C   0  0  0  0  0  0  0  0  0  0  0  0
   43.1570   31.8690   39.8610 C   0  0  0  0  0  0  0  0  0  0  0  0
   42.9170   33.2300   40.0960 C   0  0  0  0  0  0  0  0  0  0  0  0
   41.5770   33.7940   39.9610 C   0  0  0  0  0  0  0  0  0  0  0  0
   41.3890   34.9460   40.7290 C   0  0  0  0  0  0  0  0  0  0  0  0
   40.1400   35.5720   40.6770 C   0  0  0  0  0  0  0  0  0  0  0  0
   39.1170   35.0720   39.8920 C   0  0  0  0  0  0  0  0  0  0  0  0
   39.3420   33.9320   39.1480 C   0  0  0  0  0  0  0  0  0  0  0  0
   38.3680   33.3640   38.3320 C   0  0  0  0  0  0  0  0  0  0  0  0
   38.5680   32.2260   37.5790 C   0  0  0  0  0  0  0  0  0  0  0  0
   39.8200   31.6510   37.6700 C   0  0  0  0  0  0  0  0  0  0  0  0
   40.8560   32.1440   38.4550 C   0  0  0  0  0  0  0  0  0  0  0  0
   40.5630   33.2880   39.1740 C   0  0  0  0  0  0  0  0  0  0  0  0
   44.5650   36.0300   44.6560 C   0  0  0  0  0  0  0  0  0  0  0  0
   45.2960   35.7500   43.5100 C   0  0  0  0  0  0  0  0  0  0  0  0
   46.0990   34.5990   43.4750 C   0  0  0  0  0  0  0  0  0  0  0  0
   46.1130   33.8210   44.5700 N   0  0  0  0  0  0  0  0  0  0  0  0
   45.3990   34.1030   45.6800 C   0  0  0  0  0  0  0  0  0  0  0  0
   44.6200   35.2160   45.7190 N   0  0  0  0  0  0  0  0  0  0  0  0
   48.7621   33.7708   43.1716 H   0  0  0  0  0  0  0  0  0  0  0  0
   48.2257   32.5946   42.0336 H   0  0  0  0  0  0  0  0  0  0  0  0
   48.8136   35.6195   41.4591 H   0  0  0  0  0  0  0  0  0  0  0  0
   49.7545   34.3413   40.7950 H   0  0  0  0  0  0  0  0  0  0  0  0
   47.6973   33.3784   39.6164 H   0  0  0  0  0  0  0  0  0  0  0  0
   47.6251   35.0826   39.2767 H   0  0  0  0  0  0  0  0  0  0  0  0
   45.9356   35.4248   40.8304 H   0  0  0  0  0  0  0  0  0  0  0  0
   46.5176   31.8170   40.4799 H   0  0  0  0  0  0  0  0  0  0  0  0
   44.6779   30.3222   39.8254 H   0  0  0  0  0  0  0  0  0  0  0  0
   42.3383   31.1946   39.5695 H   0  0  0  0  0  0  0  0  0  0  0  0
   42.1989   35.3481   41.3554 H   0  0  0  0  0  0  0  0  0  0  0  0
   39.9674   36.4806   41.2725 H   0  0  0  0  0  0  0  0  0  0  0  0
   38.1394   35.5753   39.8613 H   0  0  0  0  0  0  0  0  0  0  0  0
   37.3825   33.8505   38.2850 H   0  0  0  0  0  0  0  0  0  0  0  0
   37.7768   31.8015   36.9435 H   0  0  0  0  0  0  0  0  0  0  0  0
   40.0106   30.7413   37.0816 H   0  0  0  0  0  0  0  0  0  0  0  0
   41.8414   31.6573   38.5010 H   0  0  0  0  0  0  0  0  0  0  0  0
   43.9336   36.9300   44.6921 H   0  0  0  0  0  0  0  0  0  0  0  0
   45.2468   36.4215   42.6401 H   0  0  0  0  0  0  0  0  0  0  0  0
   45.4474   33.4334   46.5514 H   0  0  0  0  0  0  0  0  0  0  0  0
  1 25  1  0
  2  1  1  0
  3  2  1  0
  4  5  1  0
  4  3  1  0
  5  1  1  0
  7  8  2  0
  7  6  1  0
  8  5  1  0
  9  8  1  0
 10  9  2  0
 11 10  1  0
 11 12  2  0
 12  7  1  0
 13 12  1  0
 13 14  2  0
 15 14  1  0
 16 15  2  0
 17 22  2  0
 17 16  1  0
 18 17  1  0
 19 20  1  0
 19 18  2  0
 20 21  2  0
 21 22  1  0
 22 13  1  0
 23 28  2  0
 24 23  1  0
 25 24  2  0
 25 26  1  0
 26 27  2  0
 27 28  1  0
  2 29  1  0
  2 30  1  0
  3 31  1  0
  3 32  1  0
  4 33  1  0
  4 34  1  0
  5 35  1  1
  9 36  1  0
 10 37  1  0
 11 38  1  0
 14 39  1  0
 15 40  1  0
 16 41  1  0
 18 42  1  0
 19 43  1  0
 20 44  1  0
 21 45  1  0
 23 46  1  0
 24 47  1  0
 27 48  1  0
M  ISO  8  29  13  30  13  31  13  32  13  33  13  34  13  35  13  36  14
M  ISO  8  37  14  38  14  39  14  40  14  41  14  42  14  43  14  44  14
M  ISO  4  45  14  46  14  47  14  48  14
M  END
>  <minimizedAffinity>  (1) 
-7.77404881

>  <minimizedRMSD>  (1) 
1.0438087

$$$$
