
     RDKit          3D

 42 46  0  0  0  0  0  0  0  0999 V2000
   46.8030   34.7430   42.8190 C   0  0  0  0  0  0  0  0  0  0  0  0
   45.7630   35.6120   43.0570 C   0  0  0  0  0  0  0  0  0  0  0  0
   44.9510   35.2640   44.1710 C   0  0  0  0  0  0  0  0  0  0  0  0
   45.2240   34.1550   44.9050 N   0  0  0  0  0  0  0  0  0  0  0  0
   46.2470   33.3560   44.6190 C   0  0  0  0  0  0  0  0  0  0  0  0
   46.9930   33.6910   43.5830 N   0  0  0  0  0  0  0  0  0  0  0  0
   46.7090   32.1260   45.2740 C   0  0  0  0  0  0  0  0  0  0  0  0
   47.4930   31.1610   44.6290 C   0  0  0  0  0  0  0  0  0  0  0  0
   47.9320   30.0100   45.2210 C   0  0  0  0  0  0  0  0  0  0  0  0
   47.6100   29.7400   46.5290 C   0  0  0  0  0  0  0  0  0  0  0  0
   46.8440   30.6470   47.2180 C   0  0  0  0  0  0  0  0  0  0  0  0
   46.5420   30.3410   48.5260 C   0  0  0  0  0  0  0  0  0  0  0  0
   45.7770   31.1990   49.2860 C   0  0  0  0  0  0  0  0  0  0  0  0
   45.3380   32.3700   48.6640 C   0  0  0  0  0  0  0  0  0  0  0  0
   45.6740   32.6180   47.3520 C   0  0  0  0  0  0  0  0  0  0  0  0
   46.4310   31.7850   46.5730 C   0  0  0  0  0  0  0  0  0  0  0  0
   47.6530   35.0580   41.7090 C   0  0  0  0  0  0  0  0  0  0  0  0
   48.6240   35.8720   41.7250 O   0  0  0  0  0  0  0  0  0  0  0  0
   46.2870   33.6750   40.0950 C   0  0  0  0  0  0  0  0  0  0  0  0
   47.4190   34.4030   40.4080 C   0  0  0  0  0  0  0  0  0  0  0  0
   48.4170   34.5360   39.4560 C   0  0  0  0  0  0  0  0  0  0  0  0
   48.3590   33.9800   38.1910 C   0  0  0  0  0  0  0  0  0  0  0  0
   49.1830   33.9700   37.1300 N   0  0  0  0  0  0  0  0  0  0  0  0
   48.6140   33.2610   36.1570 C   0  0  0  0  0  0  0  0  0  0  0  0
   47.3750   32.7960   36.6040 C   0  0  0  0  0  0  0  0  0  0  0  0
   47.2170   33.2540   37.8920 C   0  0  0  0  0  0  0  0  0  0  0  0
   46.2050   33.1050   38.8260 C   0  0  0  0  0  0  0  0  0  0  0  0
   45.5756   36.5013   42.4374 H   0  0  0  0  0  0  0  0  0  0  0  0
   44.0941   35.8989   44.4405 H   0  0  0  0  0  0  0  0  0  0  0  0
   47.7729   31.3407   43.5805 H   0  0  0  0  0  0  0  0  0  0  0  0
   48.5447   29.2980   44.6487 H   0  0  0  0  0  0  0  0  0  0  0  0
   47.9587   28.8163   47.0140 H   0  0  0  0  0  0  0  0  0  0  0  0
   46.9141   29.4048   48.9676 H   0  0  0  0  0  0  0  0  0  0  0  0
   45.5242   30.9725   50.3323 H   0  0  0  0  0  0  0  0  0  0  0  0
   44.7246   33.0931   49.2216 H   0  0  0  0  0  0  0  0  0  0  0  0
   45.3085   33.5509   46.8980 H   0  0  0  0  0  0  0  0  0  0  0  0
   45.4746   33.5491   40.8259 H   0  0  0  0  0  0  0  0  0  0  0  0
   49.3104   35.1197   39.7228 H   0  0  0  0  0  0  0  0  0  0  0  0
   50.1014   34.4333   37.0779 H   0  0  0  0  0  0  0  0  0  0  0  0
   49.0484   33.0724   35.1641 H   0  0  0  0  0  0  0  0  0  0  0  0
   46.6619   32.1812   36.0352 H   0  0  0  0  0  0  0  0  0  0  0  0
   45.3121   32.5207   38.5587 H   0  0  0  0  0  0  0  0  0  0  0  0
  1  2  2  0
  1  6  1  0
  2  3  1  0
  3  4  2  0
  5  4  1  0
  5  7  1  0
  6  5  2  0
  7 16  2  0
  8  9  2  0
  8  7  1  0
  9 10  1  0
 10 11  2  0
 11 12  1  0
 12 13  2  0
 14 13  1  0
 15 14  2  0
 16 11  1  0
 16 15  1  0
 17 18  2  0
 17  1  1  0
 19 20  2  0
 20 17  1  0
 21 20  1  0
 22 21  2  0
 23 22  1  0
 24 25  2  0
 24 23  1  0
 25 26  1  0
 26 22  1  0
 26 27  2  0
 27 19  1  0
  2 28  1  0
  3 29  1  0
  8 30  1  0
  9 31  1  0
 10 32  1  0
 12 33  1  0
 13 34  1  0
 14 35  1  0
 15 36  1  0
 19 37  1  0
 21 38  1  0
 23 39  1  0
 24 40  1  0
 25 41  1  0
 27 42  1  0
M  ISO  8  28  14  29  14  30  14  31  14  32  14  33  14  34  14  35  14
M  ISO  7  36  14  37  14  38  14  39   9  40  14  41  14  42  14
M  END
>  <minimizedAffinity>  (1) 
-7.42903757

>  <minimizedRMSD>  (1) 
0.491097957

$$$$
