
     RDKit          3D

 53 57  0  0  1  0  0  0  0  0999 V2000
   47.5190   32.9950   44.2260 C   0  0  2  0  0  0  0  0  0  0  0  0
   47.3990   33.4280   42.8090 C   0  0  1  0  0  0  0  0  0  0  0  0
   47.3260   32.2430   41.8450 C   0  0  0  0  0  0  0  0  0  0  0  0
   48.4610   31.4850   42.1520 O   0  0  0  0  0  0  0  0  0  0  0  0
   48.3160   30.8180   43.3490 C   0  0  0  0  0  0  0  0  0  0  0  0
   47.3600   31.4640   44.3010 C   0  0  1  0  0  0  0  0  0  0  0  0
   45.0340   36.2230   42.8060 C   0  0  0  0  0  0  0  0  0  0  0  0
   43.9940   35.7970   41.9280 C   0  0  0  0  0  0  0  0  0  0  0  0
   44.1650   34.5140   41.3540 C   0  0  0  0  0  0  0  0  0  0  0  0
   45.2650   33.7900   41.6590 N   0  0  0  0  0  0  0  0  0  0  0  0
   46.2160   34.2510   42.4990 C   0  0  0  0  0  0  0  0  0  0  0  0
   46.1000   35.4710   43.0740 N   0  0  0  0  0  0  0  0  0  0  0  0
   44.8840   37.4560   43.3680 O   0  0  0  0  0  0  0  0  0  0  0  0
   46.5670   33.5700   45.0730 O   0  0  0  0  0  0  0  0  0  0  0  0
   47.5630   31.1090   45.6160 O   0  0  0  0  0  0  0  0  0  0  0  0
   46.2610   28.7510   45.3980 F   0  0  0  0  0  0  0  0  0  0  0  0
   46.1770   29.5860   46.4530 C   0  0  0  0  0  0  0  0  0  0  0  0
   46.8030   30.8010   46.6490 C   0  0  0  0  0  0  0  0  0  0  0  0
   46.5130   31.4220   47.8540 C   0  0  0  0  0  0  0  0  0  0  0  0
   45.6810   30.9410   48.8370 C   0  0  0  0  0  0  0  0  0  0  0  0
   45.0910   29.7400   48.5890 C   0  0  0  0  0  0  0  0  0  0  0  0
   45.3120   29.0380   47.4180 C   0  0  0  0  0  0  0  0  0  0  0  0
   44.6020   27.7680   47.3120 C   0  0  0  0  0  0  0  0  0  0  0  0
   45.1400   26.7590   48.1000 C   0  0  0  0  0  0  0  0  0  0  0  0
   44.6310   25.4780   48.1560 C   0  0  0  0  0  0  0  0  0  0  0  0
   43.5100   25.2040   47.3670 C   0  0  0  0  0  0  0  0  0  0  0  0
   42.9550   26.2090   46.5680 C   0  0  0  0  0  0  0  0  0  0  0  0
   41.8480   25.9540   45.7820 C   0  0  0  0  0  0  0  0  0  0  0  0
   41.3480   27.0050   45.0090 C   0  0  0  0  0  0  0  0  0  0  0  0
   41.9070   28.2730   44.9960 C   0  0  0  0  0  0  0  0  0  0  0  0
   43.0240   28.5200   45.7920 C   0  0  0  0  0  0  0  0  0  0  0  0
   43.4990   27.4760   46.5430 C   0  0  0  0  0  0  0  0  0  0  0  0
   48.5099   33.3283   44.5682 H   0  0  0  0  0  0  0  0  0  0  0  0
   48.3103   34.0294   42.6757 H   0  0  0  0  0  0  0  0  0  0  0  0
   47.3563   32.5865   40.8005 H   0  0  0  0  0  0  0  0  0  0  0  0
   46.3933   31.6693   41.9500 H   0  0  0  0  0  0  0  0  0  0  0  0
   47.9553   29.8010   43.1353 H   0  0  0  0  0  0  0  0  0  0  0  0
   49.3018   30.8278   43.8369 H   0  0  0  0  0  0  0  0  0  0  0  0
   46.3594   31.1223   43.9976 H   0  0  0  0  0  0  0  0  0  0  0  0
   43.1166   36.4240   41.7110 H   0  0  0  0  0  0  0  0  0  0  0  0
   43.4086   34.1096   40.6653 H   0  0  0  0  0  0  0  0  0  0  0  0
   44.0853   38.0019   43.1579 H   0  0  0  0  0  0  0  0  0  0  0  0
   46.8263   33.4134   46.0155 H   0  0  0  0  0  0  0  0  0  0  0  0
   46.9949   32.3929   48.0416 H   0  0  0  0  0  0  0  0  0  0  0  0
   45.5024   31.4950   49.7704 H   0  0  0  0  0  0  0  0  0  0  0  0
   44.4157   29.3133   49.3452 H   0  0  0  0  0  0  0  0  0  0  0  0
   46.0217   26.9944   48.7141 H   0  0  0  0  0  0  0  0  0  0  0  0
   45.0871   24.7062   48.7934 H   0  0  0  0  0  0  0  0  0  0  0  0
   43.0645   24.1983   47.3745 H   0  0  0  0  0  0  0  0  0  0  0  0
   41.3774   24.9599   45.7653 H   0  0  0  0  0  0  0  0  0  0  0  0
   40.4662   26.8165   44.3790 H   0  0  0  0  0  0  0  0  0  0  0  0
   41.4775   29.0689   44.3698 H   0  0  0  0  0  0  0  0  0  0  0  0
   43.5037   29.5096   45.8166 H   0  0  0  0  0  0  0  0  0  0  0  0
  1  6  1  0
  1 14  1  0
  2  1  1  0
  3  4  1  0
  3  2  1  0
  4  5  1  0
  5  6  1  0
  6 15  1  0
  7 12  2  0
  7 13  1  0
  8  7  1  0
  9 10  1  0
  9  8  2  0
 10 11  2  0
 11  2  1  0
 11 12  1  0
 15 18  1  0
 16 17  1  0
 17 18  2  0
 17 22  1  0
 18 19  1  0
 19 20  2  0
 21 20  1  0
 22 21  2  0
 23 22  1  0
 23 24  2  0
 24 25  1  0
 26 25  2  0
 27 26  1  0
 28 27  2  0
 29 28  1  0
 30 29  2  0
 30 31  1  0
 31 32  2  0
 32 27  1  0
 32 23  1  0
  1 33  1  1
  2 34  1  6
  3 35  1  0
  3 36  1  0
  5 37  1  0
  5 38  1  0
  6 39  1  6
  8 40  1  0
  9 41  1  0
 13 42  1  0
 14 43  1  0
 19 44  1  0
 20 45  1  0
 21 46  1  0
 24 47  1  0
 25 48  1  0
 26 49  1  0
 28 50  1  0
 29 51  1  0
 30 52  1  0
 31 53  1  0
M  ISO  8  33  13  34  13  35  13  36  13  37  13  38  13  39  13  40  14
M  ISO  8  41  14  42   3  43   3  44  14  45  14  46  14  47  14  48  14
M  ISO  5  49  14  50  14  51  14  52  14  53  14
M  END
>  <minimizedAffinity>  (1) 
-6.76969481

>  <minimizedRMSD>  (1) 
1.0954963

$$$$
