
     RDKit          3D

 53 58  0  0  1  0  0  0  0  0999 V2000
   46.5220   32.1210   45.6090 C   0  0  0  0  0  0  0  0  0  0  0  0
   46.7180   32.7860   44.3790 C   0  0  0  0  0  0  0  0  0  0  0  0
   47.6190   32.0810   43.6010 C   0  0  0  0  0  0  0  0  0  0  0  0
   48.2500   30.9250   43.9230 C   0  0  0  0  0  0  0  0  0  0  0  0
   48.0020   30.3510   45.1540 C   0  0  0  0  0  0  0  0  0  0  0  0
   47.1300   30.9440   46.0090 C   0  0  0  0  0  0  0  0  0  0  0  0
   48.7880   29.2210   45.1850 O   0  0  0  0  0  0  0  0  0  0  0  0
   49.4210   29.0200   43.9190 C   0  0  2  0  0  0  0  0  0  0  0  0
   49.1430   30.1900   43.1810 O   0  0  0  0  0  0  0  0  0  0  0  0
   48.8890   27.7650   43.3920 C   0  0  0  0  0  0  0  0  0  0  0  0
   49.5640   26.6190   43.8560 C   0  0  0  0  0  0  0  0  0  0  0  0
   49.2370   25.3360   43.5200 C   0  0  0  0  0  0  0  0  0  0  0  0
   48.1830   25.0860   42.6710 C   0  0  0  0  0  0  0  0  0  0  0  0
   47.4870   26.1710   42.1870 C   0  0  0  0  0  0  0  0  0  0  0  0
   46.4240   26.0420   41.3260 C   0  0  0  0  0  0  0  0  0  0  0  0
   45.6970   27.1100   40.8040 C   0  0  0  0  0  0  0  0  0  0  0  0
   46.1180   28.3820   41.2110 C   0  0  0  0  0  0  0  0  0  0  0  0
   47.1820   28.5140   42.0730 C   0  0  0  0  0  0  0  0  0  0  0  0
   47.8650   27.4340   42.5620 C   0  0  0  0  0  0  0  0  0  0  0  0
   45.1150   36.0400   43.5050 C   0  0  0  0  0  0  0  0  0  0  0  0
   45.9070   34.9210   43.2740 C   0  0  0  0  0  0  0  0  0  0  0  0
   46.0170   34.0020   44.2800 C   0  0  0  0  0  0  0  0  0  0  0  0
   45.3540   34.2150   45.4580 N   0  0  0  0  0  0  0  0  0  0  0  0
   44.5940   35.3080   45.6530 C   0  0  0  0  0  0  0  0  0  0  0  0
   44.4800   36.2070   44.6820 N   0  0  0  0  0  0  0  0  0  0  0  0
   46.5550   34.8100   42.0430 N   0  0  0  0  0  0  0  0  0  0  0  0
   47.8760   35.2600   41.8270 C   0  0  0  0  0  0  0  0  0  0  0  0
   48.4580   34.9140   40.4820 C   0  0  0  0  0  0  0  0  0  0  0  0
   48.1340   33.6350   39.9910 N   0  0  0  0  0  0  0  0  0  0  0  0
   46.8280   33.1900   40.2070 C   0  0  0  0  0  0  0  0  0  0  0  0
   45.9660   34.2450   40.8720 C   0  0  0  0  0  0  0  0  0  0  0  0
   45.8185   32.5829   46.3173 H   0  0  0  0  0  0  0  0  0  0  0  0
   47.8487   32.5050   42.6124 H   0  0  0  0  0  0  0  0  0  0  0  0
   46.9128   30.5013   46.9923 H   0  0  0  0  0  0  0  0  0  0  0  0
   50.5143   28.8990   43.9169 H   0  0  0  0  0  0  0  0  0  0  0  0
   50.4148   26.7678   44.5372 H   0  0  0  0  0  0  0  0  0  0  0  0
   49.8194   24.4979   43.9303 H   0  0  0  0  0  0  0  0  0  0  0  0
   47.9072   24.0589   42.3899 H   0  0  0  0  0  0  0  0  0  0  0  0
   46.1264   25.0257   41.0283 H   0  0  0  0  0  0  0  0  0  0  0  0
   44.8494   26.9637   40.1183 H   0  0  0  0  0  0  0  0  0  0  0  0
   45.5970   29.2773   40.8408 H   0  0  0  0  0  0  0  0  0  0  0  0
   47.4946   29.5230   42.3798 H   0  0  0  0  0  0  0  0  0  0  0  0
   45.0052   36.7992   42.7166 H   0  0  0  0  0  0  0  0  0  0  0  0
   44.0710   35.4559   46.6094 H   0  0  0  0  0  0  0  0  0  0  0  0
   47.8838   36.3551   41.9299 H   0  0  0  0  0  0  0  0  0  0  0  0
   48.5002   34.7449   42.5720 H   0  0  0  0  0  0  0  0  0  0  0  0
   48.0972   35.6570   39.7556 H   0  0  0  0  0  0  0  0  0  0  0  0
   49.5498   34.9178   40.6160 H   0  0  0  0  0  0  0  0  0  0  0  0
   48.7711   32.9595   40.4367 H   0  0  0  0  0  0  0  0  0  0  0  0
   46.3793   32.9250   39.2383 H   0  0  0  0  0  0  0  0  0  0  0  0
   46.8745   32.3197   40.8782 H   0  0  0  0  0  0  0  0  0  0  0  0
   45.7862   35.0538   40.1484 H   0  0  0  0  0  0  0  0  0  0  0  0
   45.0354   33.7498   41.1861 H   0  0  0  0  0  0  0  0  0  0  0  0
  1  6  2  0
  2  1  1  0
  3  4  1  0
  3  2  2  0
  4  5  2  0
  5  7  1  0
  5  6  1  0
  8  7  1  0
  9  8  1  0
  9  4  1  0
 10 11  2  0
 10  8  1  0
 12 11  1  0
 13 12  2  0
 14 19  2  0
 14 13  1  0
 15 14  1  0
 16 17  1  0
 16 15  2  0
 17 18  2  0
 18 19  1  0
 19 10  1  0
 20 25  2  0
 21 20  1  0
 21 22  2  0
 22  2  1  0
 22 23  1  0
 23 24  2  0
 25 24  1  0
 26 21  1  0
 27 26  1  0
 28 27  1  0
 29 30  1  0
 29 28  1  0
 30 31  1  0
 31 26  1  0
  1 32  1  0
  3 33  1  0
  6 34  1  0
  8 35  1  1
 11 36  1  0
 12 37  1  0
 13 38  1  0
 15 39  1  0
 16 40  1  0
 17 41  1  0
 18 42  1  0
 20 43  1  0
 24 44  1  0
 27 45  1  0
 27 46  1  0
 28 47  1  0
 28 48  1  0
 29 49  1  0
 30 50  1  0
 30 51  1  0
 31 52  1  0
 31 53  1  0
M  ISO  8  32  14  33  14  34  14  35  13  36  14  37  14  38  14  39  14
M  ISO  8  40  14  41  14  42  14  43  14  44  14  45  13  46  13  47  13
M  ISO  6  48  13  49   5  50  13  51  13  52  13  53  13
M  END
>  <minimizedAffinity>  (1) 
-4.91619873

>  <minimizedRMSD>  (1) 
0.741462886

$$$$
