
     RDKit          3D

 45 49  0  0  0  0  0  0  0  0999 V2000
   45.5360   33.1720   46.4650 C   0  0  0  0  0  0  0  0  0  0  0  0
   44.3940   36.3160   44.8250 C   0  0  0  0  0  0  0  0  0  0  0  0
   44.9950   36.1830   43.5810 C   0  0  0  0  0  0  0  0  0  0  0  0
   45.7700   35.0590   43.2900 C   0  0  0  0  0  0  0  0  0  0  0  0
   45.9030   34.1160   44.2840 N   0  0  0  0  0  0  0  0  0  0  0  0
   45.3070   34.2700   45.4910 C   0  0  0  0  0  0  0  0  0  0  0  0
   44.5760   35.3580   45.7210 N   0  0  0  0  0  0  0  0  0  0  0  0
   46.5260   34.7800   42.0940 C   0  0  0  0  0  0  0  0  0  0  0  0
   47.8640   35.2000   42.0980 C   0  0  0  0  0  0  0  0  0  0  0  0
   48.7500   35.0190   41.0580 C   0  0  0  0  0  0  0  0  0  0  0  0
   48.3240   34.3830   39.9210 C   0  0  0  0  0  0  0  0  0  0  0  0
   47.0230   33.9400   39.8480 C   0  0  0  0  0  0  0  0  0  0  0  0
   46.5740   33.2700   38.7440 C   0  0  0  0  0  0  0  0  0  0  0  0
   45.2710   32.7710   38.6530 C   0  0  0  0  0  0  0  0  0  0  0  0
   44.4330   32.9880   39.7530 C   0  0  0  0  0  0  0  0  0  0  0  0
   44.9370   33.6650   40.8290 C   0  0  0  0  0  0  0  0  0  0  0  0
   46.2130   34.1630   40.9280 C   0  0  0  0  0  0  0  0  0  0  0  0
   46.7590   32.0460   45.7640 S   0  0  0  0  0  0  0  0  0  0  0  0
   47.6940   31.2520   47.0520 C   0  0  0  0  0  0  0  0  0  0  0  0
   47.9170   31.9630   48.2070 C   0  0  0  0  0  0  0  0  0  0  0  0
   48.6390   31.3590   49.2100 C   0  0  0  0  0  0  0  0  0  0  0  0
   49.1420   30.0660   49.0910 C   0  0  0  0  0  0  0  0  0  0  0  0
   49.8430   29.5150   50.0990 N   0  0  0  0  0  0  0  0  0  0  0  0
   50.3350   28.2520   49.9820 C   0  0  0  0  0  0  0  0  0  0  0  0
   50.1110   27.5440   48.8260 C   0  0  0  0  0  0  0  0  0  0  0  0
   49.3960   28.1120   47.8050 C   0  0  0  0  0  0  0  0  0  0  0  0
   48.8720   29.4120   47.8890 C   0  0  0  0  0  0  0  0  0  0  0  0
   48.1590   29.9750   46.8620 C   0  0  0  0  0  0  0  0  0  0  0  0
   45.9108   33.5864   47.4125 H   0  0  0  0  0  0  0  0  0  0  0  0
   44.5956   32.6370   46.6639 H   0  0  0  0  0  0  0  0  0  0  0  0
   43.7801   37.1976   45.0614 H   0  0  0  0  0  0  0  0  0  0  0  0
   44.8600   36.9667   42.8211 H   0  0  0  0  0  0  0  0  0  0  0  0
   48.2340   35.7122   42.9985 H   0  0  0  0  0  0  0  0  0  0  0  0
   49.7858   35.3803   41.1393 H   0  0  0  0  0  0  0  0  0  0  0  0
   49.0131   34.2286   39.0776 H   0  0  0  0  0  0  0  0  0  0  0  0
   47.2612   33.1184   37.8986 H   0  0  0  0  0  0  0  0  0  0  0  0
   44.9211   32.2334   37.7594 H   0  0  0  0  0  0  0  0  0  0  0  0
   43.3953   32.6232   39.7520 H   0  0  0  0  0  0  0  0  0  0  0  0
   44.2652   33.8237   41.6855 H   0  0  0  0  0  0  0  0  0  0  0  0
   47.5293   32.9855   48.3258 H   0  0  0  0  0  0  0  0  0  0  0  0
   48.8257   31.9173   50.1392 H   0  0  0  0  0  0  0  0  0  0  0  0
   50.9074   27.8013   50.8061 H   0  0  0  0  0  0  0  0  0  0  0  0
   50.5053   26.5225   48.7206 H   0  0  0  0  0  0  0  0  0  0  0  0
   49.2264   27.5295   46.8874 H   0  0  0  0  0  0  0  0  0  0  0  0
   47.9682   29.4273   45.9273 H   0  0  0  0  0  0  0  0  0  0  0  0
  2  7  2  0
  3  2  1  0
  4  3  2  0
  4  5  1  0
  5  6  2  0
  6  7  1  0
  6  1  1  0
  8  9  2  0
  8  4  1  0
 10  9  1  0
 11 10  2  0
 12 11  1  0
 12 17  2  0
 13 12  1  0
 14 13  2  0
 14 15  1  0
 15 16  2  0
 16 17  1  0
 17  8  1  0
 18  1  1  0
 18 19  1  0
 19 20  2  0
 20 21  1  0
 22 21  2  0
 22 23  1  0
 24 23  2  0
 25 24  1  0
 26 27  1  0
 26 25  2  0
 27 22  1  0
 28 19  1  0
 28 27  2  0
  1 29  1  0
  1 30  1  0
  2 31  1  0
  3 32  1  0
  9 33  1  0
 10 34  1  0
 11 35  1  0
 13 36  1  0
 14 37  1  0
 15 38  1  0
 16 39  1  0
 20 40  1  0
 21 41  1  0
 24 42  1  0
 25 43  1  0
 26 44  1  0
 28 45  1  0
M  END
>  <minimizedAffinity>  (1) 
-7.00034237

>  <minimizedRMSD>  (1) 
1.79286885

$$$$
