
     RDKit          3D

 42 46  0  0  1  0  0  0  0  0999 V2000
   46.7590   34.7480   42.0900 C   0  0  0  0  0  0  0  0  0  0  0  0
   47.9190   35.4430   41.8260 C   0  0  0  0  0  0  0  0  0  0  0  0
   48.6690   35.3290   40.6830 C   0  0  0  0  0  0  0  0  0  0  0  0
   48.2420   34.4540   39.7120 C   0  0  0  0  0  0  0  0  0  0  0  0
   47.0940   33.7690   39.9770 C   0  0  0  0  0  0  0  0  0  0  0  0
   46.3920   33.9140   41.1160 N   0  0  0  0  0  0  0  0  0  0  0  0
   44.4650   35.9320   44.8390 C   0  0  0  0  0  0  0  0  0  0  0  0
   45.1140   35.9300   43.5840 C   0  0  0  0  0  0  0  0  0  0  0  0
   46.0020   34.9090   43.3250 C   0  0  0  0  0  0  0  0  0  0  0  0
   46.2050   33.9620   44.2830 N   0  0  0  0  0  0  0  0  0  0  0  0
   45.5600   33.9960   45.4810 C   0  0  0  0  0  0  0  0  0  0  0  0
   44.7000   34.9860   45.7310 N   0  0  0  0  0  0  0  0  0  0  0  0
   46.6060   32.8090   38.9370 C   0  0  2  0  0  0  0  0  0  0  0  0
   47.4540   31.6020   38.7400 C   0  0  0  0  0  0  0  0  0  0  0  0
   47.3300   32.6970   37.6890 C   0  0  1  0  0  0  0  0  0  0  0  0
   46.8190   32.1910   36.4170 C   0  0  0  0  0  0  0  0  0  0  0  0
   45.4210   32.0850   36.4630 C   0  0  0  0  0  0  0  0  0  0  0  0
   44.6920   31.6650   35.3500 C   0  0  0  0  0  0  0  0  0  0  0  0
   45.3570   31.3410   34.1630 C   0  0  0  0  0  0  0  0  0  0  0  0
   46.7180   31.4450   34.1240 C   0  0  0  0  0  0  0  0  0  0  0  0
   47.4920   31.1390   33.0050 C   0  0  0  0  0  0  0  0  0  0  0  0
   48.8820   31.2530   33.0330 C   0  0  0  0  0  0  0  0  0  0  0  0
   49.5560   31.6760   34.1780 C   0  0  0  0  0  0  0  0  0  0  0  0
   48.7830   31.9770   35.2790 C   0  0  0  0  0  0  0  0  0  0  0  0
   47.4100   31.8620   35.2400 C   0  0  0  0  0  0  0  0  0  0  0  0
   48.2725   36.1465   42.5942 H   0  0  0  0  0  0  0  0  0  0  0  0
   49.5862   35.9209   40.5471 H   0  0  0  0  0  0  0  0  0  0  0  0
   48.7968   34.3145   38.7725 H   0  0  0  0  0  0  0  0  0  0  0  0
   43.7519   36.7348   45.0776 H   0  0  0  0  0  0  0  0  0  0  0  0
   44.9172   36.7159   42.8400 H   0  0  0  0  0  0  0  0  0  0  0  0
   45.7452   33.2165   46.2347 H   0  0  0  0  0  0  0  0  0  0  0  0
   45.5463   32.9966   39.1648 H   0  0  0  0  0  0  0  0  0  0  0  0
   48.3877   31.4786   39.3082 H   0  0  0  0  0  0  0  0  0  0  0  0
   47.3022   30.5130   38.7717 H   0  0  0  0  0  0  0  0  0  0  0  0
   47.9231   33.4594   37.1627 H   0  0  0  0  0  0  0  0  0  0  0  0
   44.8902   32.3374   37.3928 H   0  0  0  0  0  0  0  0  0  0  0  0
   43.5961   31.5888   35.4060 H   0  0  0  0  0  0  0  0  0  0  0  0
   44.7945   31.0088   33.2780 H   0  0  0  0  0  0  0  0  0  0  0  0
   46.9969   30.8013   32.0826 H   0  0  0  0  0  0  0  0  0  0  0  0
   49.4598   31.0034   32.1309 H   0  0  0  0  0  0  0  0  0  0  0  0
   50.6521   31.7653   34.2016 H   0  0  0  0  0  0  0  0  0  0  0  0
   49.2706   32.3150   36.2053 H   0  0  0  0  0  0  0  0  0  0  0  0
  1  9  1  0
  2  1  2  0
  3  2  1  0
  4  5  1  0
  4  3  2  0
  5  6  2  0
  6  1  1  0
  7 12  2  0
  8  7  1  0
  9  8  2  0
  9 10  1  0
 10 11  2  0
 11 12  1  0
 13  5  1  0
 14 13  1  0
 15 14  1  0
 15 13  1  0
 16 17  2  0
 16 15  1  0
 18 17  1  0
 19 18  2  0
 20 19  1  0
 20 25  2  0
 21 22  2  0
 21 20  1  0
 22 23  1  0
 23 24  2  0
 25 24  1  0
 25 16  1  0
  2 26  1  0
  3 27  1  0
  4 28  1  0
  7 29  1  0
  8 30  1  0
 11 31  1  0
 13 32  1  6
 14 33  1  0
 14 34  1  0
 15 35  1  6
 17 36  1  0
 18 37  1  0
 19 38  1  0
 21 39  1  0
 22 40  1  0
 23 41  1  0
 24 42  1  0
M  ISO  8  26  14  27  14  28  14  29  14  30  14  31  14  32  13  33  13
M  ISO  8  34  13  35  13  36  14  37  14  38  14  39  14  40  14  41  14
M  ISO  1  42  14
M  END
>  <minimizedAffinity>  (1) 
-6.27489662

>  <minimizedRMSD>  (1) 
1.49728835

$$$$
