
     RDKit          3D

 32 34  0  0  0  0  0  0  0  0999 V2000
   47.6890   35.0250   41.7810 C   0  0  0  0  0  0  0  0  0  0  0  0
   48.3790   33.7760   41.2950 C   0  0  0  0  0  0  0  0  0  0  0  0
   48.8150   32.7950   42.1820 C   0  0  0  0  0  0  0  0  0  0  0  0
   49.4230   31.6500   41.7190 C   0  0  0  0  0  0  0  0  0  0  0  0
   49.6200   31.4370   40.3730 C   0  0  0  0  0  0  0  0  0  0  0  0
   49.1870   32.4120   39.5070 C   0  0  0  0  0  0  0  0  0  0  0  0
   49.3990   32.1830   38.1540 C   0  0  0  0  0  0  0  0  0  0  0  0
   48.9910   33.1320   37.2220 C   0  0  0  0  0  0  0  0  0  0  0  0
   48.3760   34.2960   37.6490 C   0  0  0  0  0  0  0  0  0  0  0  0
   48.1850   34.4830   39.0150 C   0  0  0  0  0  0  0  0  0  0  0  0
   48.5760   33.5650   39.9550 C   0  0  0  0  0  0  0  0  0  0  0  0
   46.1790   34.8230   41.7510 C   0  0  0  0  0  0  0  0  0  0  0  0
   45.0000   36.0720   43.5140 C   0  0  0  0  0  0  0  0  0  0  0  0
   45.6770   34.9200   43.1120 C   0  0  0  0  0  0  0  0  0  0  0  0
   45.8220   33.9210   44.0740 C   0  0  0  0  0  0  0  0  0  0  0  0
   45.3100   34.1240   45.3100 N   0  0  0  0  0  0  0  0  0  0  0  0
   44.6690   35.2450   45.6540 C   0  0  0  0  0  0  0  0  0  0  0  0
   44.5150   36.2220   44.7470 N   0  0  0  0  0  0  0  0  0  0  0  0
   48.0084   35.2418   42.8110 H   0  0  0  0  0  0  0  0  0  0  0  0
   47.9567   35.8671   41.1259 H   0  0  0  0  0  0  0  0  0  0  0  0
   48.6721   32.9364   43.2635 H   0  0  0  0  0  0  0  0  0  0  0  0
   49.7584   30.8894   42.4394 H   0  0  0  0  0  0  0  0  0  0  0  0
   50.1055   30.5211   40.0050 H   0  0  0  0  0  0  0  0  0  0  0  0
   49.8873   31.2555   37.8205 H   0  0  0  0  0  0  0  0  0  0  0  0
   49.1568   32.9576   36.1486 H   0  0  0  0  0  0  0  0  0  0  0  0
   48.0457   35.0559   36.9255 H   0  0  0  0  0  0  0  0  0  0  0  0
   47.6985   35.4089   39.3555 H   0  0  0  0  0  0  0  0  0  0  0  0
   45.7125   35.5992   41.1265 H   0  0  0  0  0  0  0  0  0  0  0  0
   45.9375   33.8367   41.3280 H   0  0  0  0  0  0  0  0  0  0  0  0
   44.8614   36.8860   42.7873 H   0  0  0  0  0  0  0  0  0  0  0  0
   46.3440   32.9834   43.8321 H   0  0  0  0  0  0  0  0  0  0  0  0
   44.2709   35.3659   46.6723 H   0  0  0  0  0  0  0  0  0  0  0  0
  2  1  1  0
  2  3  2  0
  4  3  1  0
  5  4  2  0
  6 11  2  0
  6  5  1  0
  7  6  1  0
  8  9  1  0
  8  7  2  0
  9 10  2  0
 10 11  1  0
 11  2  1  0
 12  1  1  0
 12 14  1  0
 13 18  2  0
 14 13  1  0
 14 15  2  0
 15 16  1  0
 16 17  2  0
 18 17  1  0
  1 19  1  0
  1 20  1  0
  3 21  1  0
  4 22  1  0
  5 23  1  0
  7 24  1  0
  8 25  1  0
  9 26  1  0
 10 27  1  0
 12 28  1  0
 12 29  1  0
 13 30  1  0
 15 31  1  0
 17 32  1  0
M  ISO  8  19   8  20   8  21  14  22  14  23  14  24  14  25  14  26  14
M  ISO  6  27  14  28   8  29   8  30  14  31  14  32  14
M  END
>  <minimizedAffinity>  (1) 
-5.00923872

>  <minimizedRMSD>  (1) 
3.78332329

$$$$
