
     RDKit          3D

 44 48  0  0  0  0  0  0  0  0999 V2000
   44.1530   34.8360   41.1180 C   0  0  0  0  0  0  0  0  0  0  0  0
   44.1530   33.9690   40.0450 C   0  0  0  0  0  0  0  0  0  0  0  0
   45.3720   33.4220   39.6330 C   0  0  0  0  0  0  0  0  0  0  0  0
   46.4820   33.7940   40.3390 N   0  0  0  0  0  0  0  0  0  0  0  0
   46.4530   34.6320   41.3710 C   0  0  0  0  0  0  0  0  0  0  0  0
   45.2870   35.1270   41.7250 N   0  0  0  0  0  0  0  0  0  0  0  0
   45.6160   32.4620   38.6110 C   0  0  0  0  0  0  0  0  0  0  0  0
   44.8240   31.3010   38.6110 C   0  0  0  0  0  0  0  0  0  0  0  0
   44.9170   30.2600   37.7200 C   0  0  0  0  0  0  0  0  0  0  0  0
   45.8580   30.3200   36.7230 C   0  0  0  0  0  0  0  0  0  0  0  0
   46.6720   31.4220   36.6570 C   0  0  0  0  0  0  0  0  0  0  0  0
   47.6390   31.4720   35.6840 C   0  0  0  0  0  0  0  0  0  0  0  0
   48.5290   32.5470   35.5830 C   0  0  0  0  0  0  0  0  0  0  0  0
   48.3660   33.5500   36.5290 C   0  0  0  0  0  0  0  0  0  0  0  0
   47.3840   33.4590   37.4860 C   0  0  0  0  0  0  0  0  0  0  0  0
   46.5180   32.4190   37.5830 C   0  0  0  0  0  0  0  0  0  0  0  0
   42.5480   35.5150   41.6020 S   0  0  0  0  0  0  0  0  0  0  0  0
   40.5450   34.8930   39.9060 C   0  0  0  0  0  0  0  0  0  0  0  0
   41.2280   34.4610   41.0290 C   0  0  0  0  0  0  0  0  0  0  0  0
   40.8760   33.2760   41.6360 C   0  0  0  0  0  0  0  0  0  0  0  0
   39.8430   32.4870   41.1570 C   0  0  0  0  0  0  0  0  0  0  0  0
   39.1560   32.9450   40.0100 C   0  0  0  0  0  0  0  0  0  0  0  0
   39.5000   34.1300   39.3920 C   0  0  0  0  0  0  0  0  0  0  0  0
   38.1630   31.9860   39.7210 O   0  0  0  0  0  0  0  0  0  0  0  0
   38.0420   31.1800   40.8770 C   0  0  0  0  0  0  0  0  0  0  0  0
   39.2810   31.2740   41.5560 O   0  0  0  0  0  0  0  0  0  0  0  0
   47.5540   35.0200   42.0960 O   0  0  0  0  0  0  0  0  0  0  0  0
   48.7590   35.2850   41.4410 C   0  0  0  0  0  0  0  0  0  0  0  0
   49.7250   34.3610   41.6680 F   0  0  0  0  0  0  0  0  0  0  0  0
   48.4140   35.4080   40.0820 F   0  0  0  0  0  0  0  0  0  0  0  0
   49.2150   36.5150   41.9190 F   0  0  0  0  0  0  0  0  0  0  0  0
   43.2170   33.7143   39.5263 H   0  0  0  0  0  0  0  0  0  0  0  0
   44.0591   31.2185   39.3972 H   0  0  0  0  0  0  0  0  0  0  0  0
   44.2474   29.3914   37.8043 H   0  0  0  0  0  0  0  0  0  0  0  0
   45.9572   29.5029   35.9933 H   0  0  0  0  0  0  0  0  0  0  0  0
   47.7164   30.6441   34.9638 H   0  0  0  0  0  0  0  0  0  0  0  0
   49.3060   32.5943   34.8058 H   0  0  0  0  0  0  0  0  0  0  0  0
   49.0300   34.4269   36.5123 H   0  0  0  0  0  0  0  0  0  0  0  0
   47.2948   34.2770   38.2160 H   0  0  0  0  0  0  0  0  0  0  0  0
   40.8274   35.8384   39.4197 H   0  0  0  0  0  0  0  0  0  0  0  0
   41.4310   32.9465   42.5267 H   0  0  0  0  0  0  0  0  0  0  0  0
   38.9527   34.4691   38.5001 H   0  0  0  0  0  0  0  0  0  0  0  0
   37.2276   31.5507   41.5167 H   0  0  0  0  0  0  0  0  0  0  0  0
   37.8062   30.1378   40.6159 H   0  0  0  0  0  0  0  0  0  0  0  0
  1 17  1  0
  1  6  1  0
  2  1  2  0
  3  2  1  0
  3  4  2  0
  4  5  1  0
  5  6  2  0
  5 27  1  0
  7  3  1  0
  8  7  2  0
  9  8  1  0
 10  9  2  0
 11 10  1  0
 11 16  2  0
 12 11  1  0
 13 12  2  0
 13 14  1  0
 14 15  2  0
 15 16  1  0
 16  7  1  0
 18 19  2  0
 19 17  1  0
 19 20  1  0
 21 26  1  0
 21 20  2  0
 22 21  1  0
 23 18  1  0
 23 22  2  0
 24 22  1  0
 24 25  1  0
 25 26  1  0
 28 29  1  0
 28 31  1  0
 28 27  1  0
 30 28  1  0
  2 32  1  0
  8 33  1  0
  9 34  1  0
 10 35  1  0
 12 36  1  0
 13 37  1  0
 14 38  1  0
 15 39  1  0
 18 40  1  0
 20 41  1  0
 23 42  1  0
 25 43  1  0
 25 44  1  0
M  ISO  8  32  14  33  14  34  14  35  14  36  14  37  14  38  14  39  14
M  ISO  5  40  14  41  14  42  14  43  13  44  13
M  END
>  <minimizedAffinity>  (1) 
-6.61213112

>  <minimizedRMSD>  (1) 
0.645942271

$$$$
