
     RDKit          3D

 42 46  0  0  0  0  0  0  0  0999 V2000
   46.5100   34.7810   41.8960 C   0  0  0  0  0  0  0  0  0  0  0  0
   47.7220   35.1380   41.8460 O   0  0  0  0  0  0  0  0  0  0  0  0
   45.2350   36.1430   43.4910 C   0  0  0  0  0  0  0  0  0  0  0  0
   45.8710   34.9290   43.1600 C   0  0  0  0  0  0  0  0  0  0  0  0
   45.8120   33.9530   44.1350 C   0  0  0  0  0  0  0  0  0  0  0  0
   45.1890   34.1460   45.3170 N   0  0  0  0  0  0  0  0  0  0  0  0
   44.5890   35.3300   45.5940 C   0  0  0  0  0  0  0  0  0  0  0  0
   44.6140   36.3230   44.6810 N   0  0  0  0  0  0  0  0  0  0  0  0
   46.4250   32.7150   43.8880 C   0  0  0  0  0  0  0  0  0  0  0  0
   47.6870   32.2200   44.0400 C   0  0  0  0  0  0  0  0  0  0  0  0
   48.0380   30.9840   43.7360 C   0  0  0  0  0  0  0  0  0  0  0  0
   47.0420   30.1910   43.2410 C   0  0  0  0  0  0  0  0  0  0  0  0
   45.5650   31.3030   43.2320 S   0  0  0  0  0  0  0  0  0  0  0  0
   45.7490   34.2330   40.7360 C   0  0  0  0  0  0  0  0  0  0  0  0
   44.3990   34.3100   40.5190 C   0  0  0  0  0  0  0  0  0  0  0  0
   44.1780   33.6780   39.3560 N   0  0  0  0  0  0  0  0  0  0  0  0
   45.3510   33.2170   38.8610 C   0  0  0  0  0  0  0  0  0  0  0  0
   46.2900   33.5700   39.7220 N   0  0  0  0  0  0  0  0  0  0  0  0
   45.3040   32.5000   37.5950 C   0  0  0  0  0  0  0  0  0  0  0  0
   44.2080   31.7610   37.2070 C   0  0  0  0  0  0  0  0  0  0  0  0
   44.1130   31.0660   36.0210 C   0  0  0  0  0  0  0  0  0  0  0  0
   45.1620   31.0850   35.1380 C   0  0  0  0  0  0  0  0  0  0  0  0
   46.2790   31.8010   35.4640 C   0  0  0  0  0  0  0  0  0  0  0  0
   47.3310   31.8170   34.5730 C   0  0  0  0  0  0  0  0  0  0  0  0
   48.4800   32.5160   34.8420 C   0  0  0  0  0  0  0  0  0  0  0  0
   48.5590   33.2150   36.0490 C   0  0  0  0  0  0  0  0  0  0  0  0
   47.4740   33.1590   36.8950 C   0  0  0  0  0  0  0  0  0  0  0  0
   46.3110   32.4710   36.6590 C   0  0  0  0  0  0  0  0  0  0  0  0
   45.2434   36.9670   42.7623 H   0  0  0  0  0  0  0  0  0  0  0  0
   44.0838   35.4803   46.5595 H   0  0  0  0  0  0  0  0  0  0  0  0
   48.4601   32.8922   44.4406 H   0  0  0  0  0  0  0  0  0  0  0  0
   49.0658   30.6167   43.8725 H   0  0  0  0  0  0  0  0  0  0  0  0
   47.1040   29.1398   42.9230 H   0  0  0  0  0  0  0  0  0  0  0  0
   43.6499   34.7910   41.1651 H   0  0  0  0  0  0  0  0  0  0  0  0
   43.2576   33.5615   38.9086 H   0  0  0  0  0  0  0  0  0  0  0  0
   43.3483   31.7231   37.8922 H   0  0  0  0  0  0  0  0  0  0  0  0
   43.2007   30.4990   35.7838 H   0  0  0  0  0  0  0  0  0  0  0  0
   45.1053   30.5352   34.1870 H   0  0  0  0  0  0  0  0  0  0  0  0
   47.2473   31.2588   33.6289 H   0  0  0  0  0  0  0  0  0  0  0  0
   49.3161   32.5259   34.1272 H   0  0  0  0  0  0  0  0  0  0  0  0
   49.4578   33.7908   36.3146 H   0  0  0  0  0  0  0  0  0  0  0  0
   47.5461   33.7140   37.8420 H   0  0  0  0  0  0  0  0  0  0  0  0
  1  4  1  0
  2  1  2  0
  3  8  2  0
  4  3  1  0
  4  5  2  0
  5  6  1  0
  6  7  2  0
  8  7  1  0
  9 10  2  0
  9  5  1  0
 11 10  1  0
 12 11  2  0
 13 12  1  0
 13  9  1  0
 14  1  1  0
 15 14  2  0
 16 15  1  0
 17 16  1  0
 17 18  2  0
 18 14  1  0
 19 17  1  0
 20 19  2  0
 21 20  1  0
 22 23  1  0
 22 21  2  0
 23 28  2  0
 24 25  2  0
 24 23  1  0
 25 26  1  0
 26 27  2  0
 28 27  1  0
 28 19  1  0
  3 29  1  0
  7 30  1  0
 10 31  1  0
 11 32  1  0
 12 33  1  0
 15 34  1  0
 16 35  1  0
 20 36  1  0
 21 37  1  0
 22 38  1  0
 24 39  1  0
 25 40  1  0
 26 41  1  0
 27 42  1  0
M  ISO  8  29  14  30  14  31  14  32  14  33  14  34  14  35   9  36  14
M  ISO  6  37  14  38  14  39  14  40  14  41  14  42  14
M  END
>  <minimizedAffinity>  (1) 
-5.72089529

>  <minimizedRMSD>  (1) 
0.86232084

$$$$
