
     RDKit          3D

 47 51  0  0  1  0  0  0  0  0999 V2000
   45.8910   33.5170   45.8340 C   0  0  0  0  0  0  0  0  0  0  0  0
   46.6680   33.6410   44.6520 C   0  0  0  0  0  0  0  0  0  0  0  0
   47.2960   32.4660   44.1380 C   0  0  0  0  0  0  0  0  0  0  0  0
   47.1240   31.2800   44.7990 N   0  0  0  0  0  0  0  0  0  0  0  0
   46.3620   31.2320   45.9290 C   0  0  0  0  0  0  0  0  0  0  0  0
   45.7580   32.3370   46.4340 N   0  0  0  0  0  0  0  0  0  0  0  0
   46.2460   29.9760   46.5370 N   0  0  0  0  0  0  0  0  0  0  0  0
   47.3970   29.2700   46.9960 C   0  0  2  0  0  0  0  0  0  0  0  0
   47.1680   27.8490   47.3780 C   0  0  0  0  0  0  0  0  0  0  0  0
   45.8810   27.5310   47.8820 N   0  0  0  0  0  0  0  0  0  0  0  0
   45.0060   28.6360   48.0240 C   0  0  0  0  0  0  0  0  0  0  0  0
   44.9340   29.3790   46.7110 C   0  0  0  0  0  0  0  0  0  0  0  0
   48.1320   30.0440   48.0460 C   0  0  0  0  0  0  0  0  0  0  0  0
   47.7170   30.7990   49.1110 C   0  0  0  0  0  0  0  0  0  0  0  0
   48.7760   31.2870   49.7610 N   0  0  0  0  0  0  0  0  0  0  0  0
   49.8560   30.8730   49.1490 C   0  0  0  0  0  0  0  0  0  0  0  0
   49.4640   30.1250   48.1210 N   0  0  0  0  0  0  0  0  0  0  0  0
   51.2740   31.0880   49.2900 C   0  0  0  0  0  0  0  0  0  0  0  0
   52.2040   30.1320   48.8530 C   0  0  0  0  0  0  0  0  0  0  0  0
   53.5660   30.2440   48.9290 C   0  0  0  0  0  0  0  0  0  0  0  0
   54.1230   31.3770   49.4730 C   0  0  0  0  0  0  0  0  0  0  0  0
   53.2840   32.3480   49.9140 C   0  0  0  0  0  0  0  0  0  0  0  0
   53.8770   33.4740   50.4210 C   0  0  0  0  0  0  0  0  0  0  0  0
   53.1160   34.5320   50.8660 C   0  0  0  0  0  0  0  0  0  0  0  0
   51.7360   34.3840   50.7670 C   0  0  0  0  0  0  0  0  0  0  0  0
   51.1960   33.2320   50.2510 C   0  0  0  0  0  0  0  0  0  0  0  0
   51.9330   32.1680   49.8060 C   0  0  0  0  0  0  0  0  0  0  0  0
   45.3953   34.4033   46.2568 H   0  0  0  0  0  0  0  0  0  0  0  0
   46.7826   34.6120   44.1479 H   0  0  0  0  0  0  0  0  0  0  0  0
   47.9082   32.5134   43.2253 H   0  0  0  0  0  0  0  0  0  0  0  0
   48.0490   29.1899   46.1137 H   0  0  0  0  0  0  0  0  0  0  0  0
   47.3398   27.2305   46.4847 H   0  0  0  0  0  0  0  0  0  0  0  0
   47.8632   27.6539   48.2078 H   0  0  0  0  0  0  0  0  0  0  0  0
   45.4430   26.8567   47.2383 H   0  0  0  0  0  0  0  0  0  0  0  0
   44.0031   28.2789   48.3010 H   0  0  0  0  0  0  0  0  0  0  0  0
   45.3805   29.3075   48.8106 H   0  0  0  0  0  0  0  0  0  0  0  0
   44.1583   30.1579   46.7510 H   0  0  0  0  0  0  0  0  0  0  0  0
   44.6724   28.7124   45.8760 H   0  0  0  0  0  0  0  0  0  0  0  0
   46.6677   30.9767   49.3891 H   0  0  0  0  0  0  0  0  0  0  0  0
   48.7479   31.8855   50.5988 H   0  0  0  0  0  0  0  0  0  0  0  0
   51.8019   29.2093   48.4093 H   0  0  0  0  0  0  0  0  0  0  0  0
   54.2102   29.4334   48.5575 H   0  0  0  0  0  0  0  0  0  0  0  0
   55.2143   31.4928   49.5484 H   0  0  0  0  0  0  0  0  0  0  0  0
   54.9741   33.5338   50.4733 H   0  0  0  0  0  0  0  0  0  0  0  0
   53.5739   35.4438   51.2770 H   0  0  0  0  0  0  0  0  0  0  0  0
   51.0737   35.1949   51.1042 H   0  0  0  0  0  0  0  0  0  0  0  0
   50.1000   33.1594   50.1914 H   0  0  0  0  0  0  0  0  0  0  0  0
  1  6  2  0
  2  1  1  0
  3  2  2  0
  3  4  1  0
  4  5  2  0
  5  6  1  0
  5  7  1  0
  7 12  1  0
  7  8  1  0
  8  9  1  0
  8 13  1  0
  9 10  1  0
 10 11  1  0
 12 11  1  0
 13 17  1  0
 13 14  2  0
 14 15  1  0
 16 18  1  0
 16 15  1  0
 17 16  2  0
 18 27  2  0
 19 20  2  0
 19 18  1  0
 20 21  1  0
 21 22  2  0
 22 23  1  0
 23 24  2  0
 25 24  1  0
 26 25  2  0
 27 22  1  0
 27 26  1  0
  1 28  1  0
  2 29  1  0
  3 30  1  0
  8 31  1  6
  9 32  1  0
  9 33  1  0
 10 34  1  0
 11 35  1  0
 11 36  1  0
 12 37  1  0
 12 38  1  0
 14 39  1  0
 15 40  1  0
 19 41  1  0
 20 42  1  0
 21 43  1  0
 23 44  1  0
 24 45  1  0
 25 46  1  0
 26 47  1  0
M  ISO  8  28  14  29  14  30  14  31  13  32  13  33  13  34   5  35  13
M  ISO  8  36  13  37  13  38  13  39  14  40   9  41  14  42  14  43  14
M  ISO  4  44  14  45  14  46  14  47  14
M  END
>  <minimizedAffinity>  (1) 
-6.02512932

>  <minimizedRMSD>  (1) 
0.286799461

$$$$
