
     RDKit          3D

 29 31  0  0  0  0  0  0  0  0999 V2000
   45.8890   34.0170   45.0280 C   0  0  0  0  0  0  0  0  0  0  0  0
   46.0020   33.8460   43.6330 C   0  0  0  0  0  0  0  0  0  0  0  0
   45.1970   34.6430   42.8230 C   0  0  0  0  0  0  0  0  0  0  0  0
   44.3600   35.5300   43.4150 N   0  0  0  0  0  0  0  0  0  0  0  0
   44.2750   35.6710   44.7560 C   0  0  0  0  0  0  0  0  0  0  0  0
   45.0350   34.9190   45.5520 N   0  0  0  0  0  0  0  0  0  0  0  0
   46.9590   32.8340   43.2600 C   0  0  0  0  0  0  0  0  0  0  0  0
   46.4050   31.5640   43.2790 C   0  0  0  0  0  0  0  0  0  0  0  0
   47.1750   30.4410   42.9540 C   0  0  0  0  0  0  0  0  0  0  0  0
   48.5050   30.6040   42.6100 C   0  0  0  0  0  0  0  0  0  0  0  0
   49.0550   31.8700   42.5920 C   0  0  0  0  0  0  0  0  0  0  0  0
   50.3800   32.1350   42.2570 C   0  0  0  0  0  0  0  0  0  0  0  0
   50.8760   33.4290   42.2530 C   0  0  0  0  0  0  0  0  0  0  0  0
   50.0660   34.4970   42.5820 C   0  0  0  0  0  0  0  0  0  0  0  0
   48.7500   34.2720   42.9200 C   0  0  0  0  0  0  0  0  0  0  0  0
   48.2880   32.9700   42.9130 C   0  0  0  0  0  0  0  0  0  0  0  0
   45.3580   34.4180   41.3900 C   0  0  0  0  0  0  0  0  0  0  0  0
   44.3950   35.1740   40.7120 F   0  0  0  0  0  0  0  0  0  0  0  0
   45.0040   33.1120   41.1420 F   0  0  0  0  0  0  0  0  0  0  0  0
   46.5670   34.7610   40.8910 F   0  0  0  0  0  0  0  0  0  0  0  0
   46.5079   33.4043   45.6999 H   0  0  0  0  0  0  0  0  0  0  0  0
   43.5800   36.4049   45.1900 H   0  0  0  0  0  0  0  0  0  0  0  0
   45.3473   31.4367   43.5528 H   0  0  0  0  0  0  0  0  0  0  0  0
   46.7261   29.4369   42.9720 H   0  0  0  0  0  0  0  0  0  0  0  0
   49.1208   29.7297   42.3523 H   0  0  0  0  0  0  0  0  0  0  0  0
   51.0461   31.3012   41.9903 H   0  0  0  0  0  0  0  0  0  0  0  0
   51.9277   33.6071   41.9844 H   0  0  0  0  0  0  0  0  0  0  0  0
   50.4687   35.5206   42.5743 H   0  0  0  0  0  0  0  0  0  0  0  0
   48.0849   35.1061   43.1882 H   0  0  0  0  0  0  0  0  0  0  0  0
  1  6  2  0
  2  1  1  0
  3  4  1  0
  3  2  2  0
  4  5  2  0
  5  6  1  0
  7  8  2  0
  7  2  1  0
  9  8  1  0
 10  9  2  0
 11 10  1  0
 11 16  2  0
 12 11  1  0
 13 12  2  0
 13 14  1  0
 14 15  2  0
 16 15  1  0
 16  7  1  0
 17  3  1  0
 18 17  1  0
 19 17  1  0
 20 17  1  0
  1 21  1  0
  5 22  1  0
  8 23  1  0
  9 24  1  0
 10 25  1  0
 12 26  1  0
 13 27  1  0
 14 28  1  0
 15 29  1  0
M  ISO  8  21  14  22  14  23  14  24  14  25  14  26  14  27  14  28  14
M  ISO  1  29  14
M  END
>  <minimizedAffinity>  (1) 
-5.32390738

>  <minimizedRMSD>  (1) 
5.76773977

$$$$
