
     RDKit          3D

 33 36  0  0  0  0  0  0  0  0999 V2000
   46.8870   34.7370   42.4450 C   0  0  0  0  0  0  0  0  0  0  0  0
   46.9620   33.5040   43.1070 C   0  0  0  0  0  0  0  0  0  0  0  0
   46.1280   33.1660   44.1410 C   0  0  0  0  0  0  0  0  0  0  0  0
   45.2110   34.1470   44.4660 N   0  0  0  0  0  0  0  0  0  0  0  0
   45.1350   35.3220   43.8390 C   0  0  0  0  0  0  0  0  0  0  0  0
   45.9660   35.6010   42.8450 N   0  0  0  0  0  0  0  0  0  0  0  0
   46.0030   31.9480   44.8870 C   0  0  0  0  0  0  0  0  0  0  0  0
   45.3660   30.8790   44.2410 C   0  0  0  0  0  0  0  0  0  0  0  0
   45.1460   29.6450   44.7970 C   0  0  0  0  0  0  0  0  0  0  0  0
   45.5640   29.4030   46.0700 C   0  0  0  0  0  0  0  0  0  0  0  0
   46.1950   30.3990   46.7750 C   0  0  0  0  0  0  0  0  0  0  0  0
   46.5940   30.1860   48.0750 C   0  0  0  0  0  0  0  0  0  0  0  0
   47.2030   31.1810   48.8380 C   0  0  0  0  0  0  0  0  0  0  0  0
   47.3820   32.4050   48.2000 C   0  0  0  0  0  0  0  0  0  0  0  0
   46.9740   32.5860   46.9020 C   0  0  0  0  0  0  0  0  0  0  0  0
   46.3790   31.6060   46.1550 C   0  0  0  0  0  0  0  0  0  0  0  0
   47.8450   35.0260   41.3490 C   0  0  0  0  0  0  0  0  0  0  0  0
   49.0590   35.8610   41.8190 C   0  0  0  0  0  0  0  0  0  0  0  0
   49.1770   34.4560   41.3110 C   0  0  0  0  0  0  0  0  0  0  0  0
   47.7217   32.7773   42.7834 H   0  0  0  0  0  0  0  0  0  0  0  0
   44.3809   36.0610   44.1477 H   0  0  0  0  0  0  0  0  0  0  0  0
   45.0165   31.0425   43.2109 H   0  0  0  0  0  0  0  0  0  0  0  0
   44.6370   28.8586   44.2204 H   0  0  0  0  0  0  0  0  0  0  0  0
   45.3978   28.4178   46.5303 H   0  0  0  0  0  0  0  0  0  0  0  0
   46.4266   29.1972   48.5271 H   0  0  0  0  0  0  0  0  0  0  0  0
   47.5214   31.0099   49.8769 H   0  0  0  0  0  0  0  0  0  0  0  0
   47.8558   33.2367   48.7421 H   0  0  0  0  0  0  0  0  0  0  0  0
   47.1337   33.5705   46.4380 H   0  0  0  0  0  0  0  0  0  0  0  0
   47.0519   35.0621   40.5876 H   0  0  0  0  0  0  0  0  0  0  0  0
   49.4233   36.7056   41.2157 H   0  0  0  0  0  0  0  0  0  0  0  0
   49.3462   36.4044   42.7313 H   0  0  0  0  0  0  0  0  0  0  0  0
   49.4398   33.6485   42.0102 H   0  0  0  0  0  0  0  0  0  0  0  0
   49.7773   33.9840   40.5193 H   0  0  0  0  0  0  0  0  0  0  0  0
  1  6  1  0
  1  2  2  0
  2  3  1  0
  3  4  2  0
  3  7  1  0
  5  4  1  0
  6  5  2  0
  7 16  2  0
  8  9  2  0
  8  7  1  0
  9 10  1  0
 10 11  2  0
 11 12  1  0
 12 13  2  0
 14 13  1  0
 15 14  2  0
 16 11  1  0
 16 15  1  0
 17 18  1  0
 17  1  1  0
 19 17  1  0
 19 18  1  0
  2 20  1  0
  5 21  1  0
  8 22  1  0
  9 23  1  0
 10 24  1  0
 12 25  1  0
 13 26  1  0
 14 27  1  0
 15 28  1  0
 17 29  1  0
 18 30  1  0
 18 31  1  0
 19 32  1  0
 19 33  1  0
M  ISO  8  20  14  21  14  22  14  23  14  24  14  25  14  26  14  27  14
M  ISO  6  28  14  29  13  30  13  31  13  32  13  33  13
M  END
>  <minimizedAffinity>  (1) 
-5.35354948

>  <minimizedRMSD>  (1) 
3.97311926

$$$$
