
     RDKit          3D

 45 48  0  0  0  0  0  0  0  0999 V2000
   45.4540   30.5690   47.2510 C   0  0  0  0  0  0  0  0  0  0  0  0
   45.2900   29.9480   46.0500 C   0  0  0  0  0  0  0  0  0  0  0  0
   44.9890   28.6290   46.2970 C   0  0  0  0  0  0  0  0  0  0  0  0
   44.9740   28.4690   47.6230 N   0  0  0  0  0  0  0  0  0  0  0  0
   45.2570   29.6490   48.1910 N   0  0  0  0  0  0  0  0  0  0  0  0
   44.7200   27.7070   45.2100 C   0  0  0  0  0  0  0  0  0  0  0  0
   45.6080   26.8510   44.6030 C   0  0  0  0  0  0  0  0  0  0  0  0
   45.3200   25.9730   43.5940 C   0  0  0  0  0  0  0  0  0  0  0  0
   44.0470   25.9020   43.1090 C   0  0  0  0  0  0  0  0  0  0  0  0
   43.0930   26.7200   43.6560 C   0  0  0  0  0  0  0  0  0  0  0  0
   41.8230   26.6050   43.1380 C   0  0  0  0  0  0  0  0  0  0  0  0
   40.8080   27.3870   43.6420 C   0  0  0  0  0  0  0  0  0  0  0  0
   41.0870   28.2730   44.6600 C   0  0  0  0  0  0  0  0  0  0  0  0
   42.3790   28.3430   45.1360 C   0  0  0  0  0  0  0  0  0  0  0  0
   43.4330   27.5880   44.6720 C   0  0  0  0  0  0  0  0  0  0  0  0
   44.6860   27.2330   48.3610 C   0  0  0  0  0  0  0  0  0  0  0  0
   44.3090   27.5550   49.6850 F   0  0  0  0  0  0  0  0  0  0  0  0
   45.7430   26.3990   48.3280 F   0  0  0  0  0  0  0  0  0  0  0  0
   43.5720   26.6370   47.8060 F   0  0  0  0  0  0  0  0  0  0  0  0
   45.7740   31.9780   47.5580 C   0  0  0  0  0  0  0  0  0  0  0  0
   46.6830   32.5720   46.5280 C   0  0  0  0  0  0  0  0  0  0  0  0
   44.5910   35.3390   45.1820 C   0  0  0  0  0  0  0  0  0  0  0  0
   45.0980   35.4260   43.8610 C   0  0  0  0  0  0  0  0  0  0  0  0
   46.1080   34.5520   43.5110 C   0  0  0  0  0  0  0  0  0  0  0  0
   46.5070   33.7020   44.4660 N   0  0  0  0  0  0  0  0  0  0  0  0
   46.0270   33.6250   45.7040 C   0  0  0  0  0  0  0  0  0  0  0  0
   45.0630   34.4580   46.0450 N   0  0  0  0  0  0  0  0  0  0  0  0
   46.6230   34.6540   42.1500 C   0  0  0  0  0  0  0  0  0  0  0  0
   47.4020   33.5280   41.8720 F   0  0  0  0  0  0  0  0  0  0  0  0
   47.5430   35.7060   42.1660 F   0  0  0  0  0  0  0  0  0  0  0  0
   45.6470   34.7990   41.2120 F   0  0  0  0  0  0  0  0  0  0  0  0
   45.3819   30.4175   45.0595 H   0  0  0  0  0  0  0  0  0  0  0  0
   46.6475   26.8741   44.9621 H   0  0  0  0  0  0  0  0  0  0  0  0
   46.1087   25.3294   43.1772 H   0  0  0  0  0  0  0  0  0  0  0  0
   43.7920   25.2044   42.2976 H   0  0  0  0  0  0  0  0  0  0  0  0
   41.6199   25.8919   42.3254 H   0  0  0  0  0  0  0  0  0  0  0  0
   39.7883   27.3057   43.2376 H   0  0  0  0  0  0  0  0  0  0  0  0
   40.2965   28.9101   45.0833 H   0  0  0  0  0  0  0  0  0  0  0  0
   42.5834   29.0562   45.9482 H   0  0  0  0  0  0  0  0  0  0  0  0
   44.8400   32.5583   47.5874 H   0  0  0  0  0  0  0  0  0  0  0  0
   46.2869   32.0110   48.5306 H   0  0  0  0  0  0  0  0  0  0  0  0
   47.5483   33.0176   47.0406 H   0  0  0  0  0  0  0  0  0  0  0  0
   46.9792   31.7609   45.8466 H   0  0  0  0  0  0  0  0  0  0  0  0
   43.7864   36.0206   45.4951 H   0  0  0  0  0  0  0  0  0  0  0  0
   44.7027   36.1603   43.1437 H   0  0  0  0  0  0  0  0  0  0  0  0
  1 20  1  0
  1  5  2  0
  2  3  2  0
  2  1  1  0
  3  4  1  0
  4  5  1  0
  4 16  1  0
  6  3  1  0
  7  6  2  0
  8  7  1  0
  9  8  2  0
  9 10  1  0
 10 15  2  0
 11 12  2  0
 11 10  1  0
 12 13  1  0
 13 14  2  0
 15 14  1  0
 15  6  1  0
 16 17  1  0
 18 16  1  0
 19 16  1  0
 21 20  1  0
 22 27  2  0
 23 22  1  0
 24 23  2  0
 24 25  1  0
 25 26  2  0
 26 27  1  0
 26 21  1  0
 28 30  1  0
 28 24  1  0
 29 28  1  0
 31 28  1  0
  2 32  1  0
  7 33  1  0
  8 34  1  0
  9 35  1  0
 11 36  1  0
 12 37  1  0
 13 38  1  0
 14 39  1  0
 20 40  1  0
 20 41  1  0
 21 42  1  0
 21 43  1  0
 22 44  1  0
 23 45  1  0
M  ISO  8  32  14  33  14  34  14  35  14  36  14  37  14  38  14  39  14
M  ISO  6  40   8  41   8  42   8  43   8  44  14  45  14
M  END
>  <minimizedAffinity>  (1) 
-5.83921051

>  <minimizedRMSD>  (1) 
1.82526791

$$$$
