
     RDKit          3D

 39 42  0  0  0  0  0  0  0  0999 V2000
   44.9190   33.8970   46.9410 C   0  0  0  0  0  0  0  0  0  0  0  0
   45.2240   34.2910   45.6370 C   0  0  0  0  0  0  0  0  0  0  0  0
   46.0520   33.5410   44.8510 C   0  0  0  0  0  0  0  0  0  0  0  0
   46.5220   32.4270   45.4430 N   0  0  0  0  0  0  0  0  0  0  0  0
   46.2550   32.0170   46.6790 C   0  0  0  0  0  0  0  0  0  0  0  0
   45.4430   32.7760   47.4190 N   0  0  0  0  0  0  0  0  0  0  0  0
   46.9380   30.7660   46.9880 C   0  0  0  0  0  0  0  0  0  0  0  0
   46.6030   29.5710   46.3950 C   0  0  0  0  0  0  0  0  0  0  0  0
   47.2220   28.3740   46.6620 C   0  0  0  0  0  0  0  0  0  0  0  0
   48.2410   28.3020   47.5610 C   0  0  0  0  0  0  0  0  0  0  0  0
   48.6270   29.4640   48.1900 C   0  0  0  0  0  0  0  0  0  0  0  0
   49.6540   29.3890   49.0960 C   0  0  0  0  0  0  0  0  0  0  0  0
   50.0930   30.5080   49.7650 C   0  0  0  0  0  0  0  0  0  0  0  0
   49.4440   31.6890   49.4670 C   0  0  0  0  0  0  0  0  0  0  0  0
   48.4290   31.7290   48.5640 C   0  0  0  0  0  0  0  0  0  0  0  0
   47.9690   30.6300   47.8830 C   0  0  0  0  0  0  0  0  0  0  0  0
   44.1620   32.5310   42.7560 Cl  0  0  0  0  0  0  0  0  0  0  0  0
   45.6050   33.4600   42.4580 C   0  0  0  0  0  0  0  0  0  0  0  0
   46.4190   33.8840   43.4700 C   0  0  0  0  0  0  0  0  0  0  0  0
   47.5190   34.6030   43.0990 C   0  0  0  0  0  0  0  0  0  0  0  0
   47.8180   34.8960   41.8140 C   0  0  0  0  0  0  0  0  0  0  0  0
   47.0050   34.4720   40.8040 C   0  0  0  0  0  0  0  0  0  0  0  0
   45.8860   33.7450   41.1370 C   0  0  0  0  0  0  0  0  0  0  0  0
   49.0250   35.6830   41.4300 C   0  0  0  0  0  0  0  0  0  0  0  0
   50.1330   34.9780   41.8000 F   0  0  0  0  0  0  0  0  0  0  0  0
   48.9960   36.9550   42.0100 F   0  0  0  0  0  0  0  0  0  0  0  0
   49.0010   35.8490   40.0470 F   0  0  0  0  0  0  0  0  0  0  0  0
   44.2516   34.5093   47.5652 H   0  0  0  0  0  0  0  0  0  0  0  0
   44.7910   35.2195   45.2364 H   0  0  0  0  0  0  0  0  0  0  0  0
   45.7858   29.5740   45.6586 H   0  0  0  0  0  0  0  0  0  0  0  0
   46.8899   27.4628   46.1429 H   0  0  0  0  0  0  0  0  0  0  0  0
   48.7401   27.3461   47.7781 H   0  0  0  0  0  0  0  0  0  0  0  0
   50.1342   28.4187   49.2908 H   0  0  0  0  0  0  0  0  0  0  0  0
   50.9142   30.4640   50.4956 H   0  0  0  0  0  0  0  0  0  0  0  0
   49.7544   32.6165   49.9704 H   0  0  0  0  0  0  0  0  0  0  0  0
   47.9483   32.6987   48.3676 H   0  0  0  0  0  0  0  0  0  0  0  0
   48.1971   34.9624   43.8871 H   0  0  0  0  0  0  0  0  0  0  0  0
   47.2375   34.7047   39.7543 H   0  0  0  0  0  0  0  0  0  0  0  0
   45.2106   33.3883   40.3454 H   0  0  0  0  0  0  0  0  0  0  0  0
  1  6  2  0
  2  1  1  0
  3  4  1  0
  3  2  2  0
  4  5  2  0
  5  7  1  0
  5  6  1  0
  7 16  2  0
  8  9  2  0
  8  7  1  0
  9 10  1  0
 10 11  2  0
 11 12  1  0
 12 13  2  0
 14 13  1  0
 15 14  2  0
 16 11  1  0
 16 15  1  0
 18 17  1  0
 18 19  2  0
 19  3  1  0
 20 19  1  0
 21 20  2  0
 22 23  2  0
 22 21  1  0
 23 18  1  0
 24 25  1  0
 24 21  1  0
 24 26  1  0
 27 24  1  0
  1 28  1  0
  2 29  1  0
  8 30  1  0
  9 31  1  0
 10 32  1  0
 12 33  1  0
 13 34  1  0
 14 35  1  0
 15 36  1  0
 20 37  1  0
 22 38  1  0
 23 39  1  0
M  ISO  8  28  14  29  14  30  14  31  14  32  14  33  14  34  14  35  14
M  ISO  4  36  14  37  14  38  14  39  14
M  END
>  <minimizedAffinity>  (1) 
-6.99147511

>  <minimizedRMSD>  (1) 
0.73196125

$$$$
