
     RDKit          3D

 57 61  0  0  1  0  0  0  0  0999 V2000
   45.4460   30.0990   47.1630 C   0  0  0  0  0  0  0  0  0  0  0  0
   45.0200   34.7290   44.9540 C   0  0  0  0  0  0  0  0  0  0  0  0
   45.8840   34.5680   43.8360 C   0  0  0  0  0  0  0  0  0  0  0  0
   46.9230   33.6420   43.9310 C   0  0  0  0  0  0  0  0  0  0  0  0
   47.0540   32.9450   45.0890 N   0  0  0  0  0  0  0  0  0  0  0  0
   46.2470   33.0960   46.1320 C   0  0  0  0  0  0  0  0  0  0  0  0
   45.2510   33.9890   46.0290 N   0  0  0  0  0  0  0  0  0  0  0  0
   46.4500   32.3430   47.2760 N   0  0  0  0  0  0  0  0  0  0  0  0
   47.7150   32.4010   47.9800 C   0  0  0  0  0  0  0  0  0  0  0  0
   47.9150   31.2720   48.9450 C   0  0  0  0  0  0  0  0  0  0  0  0
   46.7610   30.7410   49.5690 N   0  0  0  0  0  0  0  0  0  0  0  0
   45.5640   31.4580   49.2650 C   0  0  0  0  0  0  0  0  0  0  0  0
   45.3640   31.4750   47.7800 C   0  0  2  0  0  0  0  0  0  0  0  0
   44.8300   29.1610   48.1710 C   0  0  0  0  0  0  0  0  0  0  0  0
   45.0320   27.8500   48.0710 C   0  0  0  0  0  0  0  0  0  0  0  0
   44.4790   26.8300   49.0040 C   0  0  0  0  0  0  0  0  0  0  0  0
   44.4130   25.4970   48.2930 C   0  0  2  0  0  0  0  0  0  0  0  0
   45.6460   25.0210   47.5940 C   0  0  0  0  0  0  0  0  0  0  0  0
   44.4000   25.4460   46.8240 C   0  0  1  0  0  0  0  0  0  0  0  0
   43.7740   24.3030   46.1030 C   0  0  0  0  0  0  0  0  0  0  0  0
   44.5690   23.2640   45.6550 C   0  0  0  0  0  0  0  0  0  0  0  0
   43.9890   22.2050   44.9880 C   0  0  0  0  0  0  0  0  0  0  0  0
   42.6140   22.1360   44.7420 C   0  0  0  0  0  0  0  0  0  0  0  0
   41.8100   23.1880   45.1960 C   0  0  0  0  0  0  0  0  0  0  0  0
   40.4310   23.1640   44.9730 C   0  0  0  0  0  0  0  0  0  0  0  0
   39.6750   24.2330   45.4440 C   0  0  0  0  0  0  0  0  0  0  0  0
   40.2310   25.3040   46.1140 C   0  0  0  0  0  0  0  0  0  0  0  0
   41.6060   25.2430   46.2890 C   0  0  0  0  0  0  0  0  0  0  0  0
   42.4200   24.2220   45.8540 C   0  0  0  0  0  0  0  0  0  0  0  0
   44.8842   30.0686   46.2178 H   0  0  0  0  0  0  0  0  0  0  0  0
   46.4844   29.8199   46.9310 H   0  0  0  0  0  0  0  0  0  0  0  0
   44.1858   35.4455   44.9274 H   0  0  0  0  0  0  0  0  0  0  0  0
   45.7368   35.1586   42.9197 H   0  0  0  0  0  0  0  0  0  0  0  0
   47.6161   33.4811   43.0921 H   0  0  0  0  0  0  0  0  0  0  0  0
   48.5274   32.3735   47.2389 H   0  0  0  0  0  0  0  0  0  0  0  0
   47.7163   33.3316   48.5664 H   0  0  0  0  0  0  0  0  0  0  0  0
   48.4022   30.4515   48.3977 H   0  0  0  0  0  0  0  0  0  0  0  0
   48.5076   31.7027   49.7656 H   0  0  0  0  0  0  0  0  0  0  0  0
   46.6435   29.7656   49.2597 H   0  0  0  0  0  0  0  0  0  0  0  0
   44.7069   30.9641   49.7461 H   0  0  0  0  0  0  0  0  0  0  0  0
   45.6457   32.4893   49.6389 H   0  0  0  0  0  0  0  0  0  0  0  0
   44.3603   31.8402   47.5170 H   0  0  0  0  0  0  0  0  0  0  0  0
   44.2134   29.5613   48.9893 H   0  0  0  0  0  0  0  0  0  0  0  0
   45.6539   27.4929   47.2369 H   0  0  0  0  0  0  0  0  0  0  0  0
   45.1304   26.7455   49.8863 H   0  0  0  0  0  0  0  0  0  0  0  0
   43.4710   27.1293   49.3269 H   0  0  0  0  0  0  0  0  0  0  0  0
   43.7464   25.0871   49.0661 H   0  0  0  0  0  0  0  0  0  0  0  0
   46.5501   25.6473   47.5756 H   0  0  0  0  0  0  0  0  0  0  0  0
   46.2780   24.1217   47.6357 H   0  0  0  0  0  0  0  0  0  0  0  0
   44.1012   26.1913   46.0722 H   0  0  0  0  0  0  0  0  0  0  0  0
   45.6550   23.2819   45.8291 H   0  0  0  0  0  0  0  0  0  0  0  0
   44.6318   21.3844   44.6366 H   0  0  0  0  0  0  0  0  0  0  0  0
   42.1770   21.2798   44.2072 H   0  0  0  0  0  0  0  0  0  0  0  0
   39.9574   22.3256   44.4413 H   0  0  0  0  0  0  0  0  0  0  0  0
   38.5881   24.2242   45.2752 H   0  0  0  0  0  0  0  0  0  0  0  0
   39.6269   26.1460   46.4830 H   0  0  0  0  0  0  0  0  0  0  0  0
   42.0850   26.0795   46.8190 H   0  0  0  0  0  0  0  0  0  0  0  0
  1 13  1  0
  1 14  1  0
  2  7  2  0
  3  4  2  0
  3  2  1  0
  4  5  1  0
  5  6  2  0
  6  8  1  0
  7  6  1  0
  8 13  1  0
  8  9  1  0
  9 10  1  0
 10 11  1  0
 12 11  1  0
 13 12  1  0
 15 14  2  0
 15 16  1  0
 17 16  1  0
 18 17  1  0
 19 18  1  0
 19 17  1  0
 20 19  1  0
 21 20  2  0
 22 21  1  0
 23 22  2  0
 23 24  1  0
 24 29  2  0
 25 24  1  0
 25 26  2  0
 26 27  1  0
 27 28  2  0
 29 20  1  0
 29 28  1  0
  1 30  1  0
  1 31  1  0
  2 32  1  0
  3 33  1  0
  4 34  1  0
  9 35  1  0
  9 36  1  0
 10 37  1  0
 10 38  1  0
 11 39  1  0
 12 40  1  0
 12 41  1  0
 13 42  1  1
 14 43  1  0
 15 44  1  0
 16 45  1  0
 16 46  1  0
 17 47  1  1
 18 48  1  0
 18 49  1  0
 19 50  1  6
 21 51  1  0
 22 52  1  0
 23 53  1  0
 25 54  1  0
 26 55  1  0
 27 56  1  0
 28 57  1  0
M  ISO  8  30   8  31   8  32  14  33  14  34  14  35  13  36  13  37  13
M  ISO  8  38  13  39   5  40  13  41  13  42  13  45   8  46   8  47  13
M  ISO  8  48  13  49  13  50  13  51  14  52  14  53  14  54  14  55  14
M  ISO  2  56  14  57  14
M  END
>  <minimizedAffinity>  (1) 
-6.46383619

>  <minimizedRMSD>  (1) 
2.05310416

$$$$
