
     RDKit          3D

 41 43  0  0  0  0  0  0  0  0999 V2000
   45.3370   33.3540   41.2290 F   0  0  0  0  0  0  0  0  0  0  0  0
   46.4830   34.0210   41.1020 C   0  0  0  0  0  0  0  0  0  0  0  0
   46.9090   34.8460   42.1400 C   0  0  0  0  0  0  0  0  0  0  0  0
   48.0920   35.5750   42.0910 C   0  0  0  0  0  0  0  0  0  0  0  0
   48.9010   35.4880   40.9580 C   0  0  0  0  0  0  0  0  0  0  0  0
   48.4430   34.6580   39.9470 C   0  0  0  0  0  0  0  0  0  0  0  0
   47.2900   33.9390   39.9790 C   0  0  0  0  0  0  0  0  0  0  0  0
   45.4870   34.1550   45.4520 C   0  0  0  0  0  0  0  0  0  0  0  0
   44.5720   35.2100   45.6020 C   0  0  0  0  0  0  0  0  0  0  0  0
   44.4450   36.1590   44.5620 C   0  0  0  0  0  0  0  0  0  0  0  0
   45.2370   35.9820   43.4600 N   0  0  0  0  0  0  0  0  0  0  0  0
   46.0960   34.9680   43.3510 C   0  0  0  0  0  0  0  0  0  0  0  0
   46.2160   34.0650   44.3400 N   0  0  0  0  0  0  0  0  0  0  0  0
   45.6050   33.2080   46.5000 N   0  0  0  0  0  0  0  0  0  0  0  0
   46.9400   33.1510   38.9180 O   0  0  0  0  0  0  0  0  0  0  0  0
   48.1320   34.6530   37.0910 O   0  0  0  0  0  0  0  0  0  0  0  0
   47.1990   33.4780   37.2910 P   0  0  2  0  0  0  0  0  0  0  0  0
   45.6850   33.8070   36.5640 O   0  0  0  0  0  0  0  0  0  0  0  0
   47.8160   32.1630   36.4280 O   0  0  0  0  0  0  0  0  0  0  0  0
   47.5630   31.5150   34.2200 C   0  0  0  0  0  0  0  0  0  0  0  0
   47.1430   31.3640   35.5460 C   0  0  0  0  0  0  0  0  0  0  0  0
   46.1350   30.4560   35.7750 C   0  0  0  0  0  0  0  0  0  0  0  0
   45.5600   29.7260   34.7630 C   0  0  0  0  0  0  0  0  0  0  0  0
   45.9630   29.8620   33.4450 C   0  0  0  0  0  0  0  0  0  0  0  0
   46.9740   30.7750   33.2170 C   0  0  0  0  0  0  0  0  0  0  0  0
   48.8450   32.6410   33.7540 S   0  0  0  0  0  0  0  0  0  0  0  0
   50.1060   31.8360   33.4670 O   0  0  0  0  0  0  0  0  0  0  0  0
   48.4730   33.2990   32.4670 O   0  0  0  0  0  0  0  0  0  0  0  0
   48.3868   36.2136   42.9368 H   0  0  0  0  0  0  0  0  0  0  0  0
   49.8458   36.0448   40.8721 H   0  0  0  0  0  0  0  0  0  0  0  0
   49.0645   34.5741   39.0433 H   0  0  0  0  0  0  0  0  0  0  0  0
   43.9638   35.2964   46.5144 H   0  0  0  0  0  0  0  0  0  0  0  0
   43.7415   37.0015   44.6352 H   0  0  0  0  0  0  0  0  0  0  0  0
   46.2688   32.4251   46.4143 H   0  0  0  0  0  0  0  0  0  0  0  0
   45.0270   33.3028   47.3472 H   0  0  0  0  0  0  0  0  0  0  0  0
   45.0056   33.9546   37.2688 H   0  0  0  0  0  0  0  0  0  0  0  0
   45.7768   30.3093   36.8047 H   0  0  0  0  0  0  0  0  0  0  0  0
   44.7576   29.0140   35.0063 H   0  0  0  0  0  0  0  0  0  0  0  0
   45.5067   29.2796   32.6310 H   0  0  0  0  0  0  0  0  0  0  0  0
   47.3263   30.9187   32.1849 H   0  0  0  0  0  0  0  0  0  0  0  0
   49.0306   33.5600   34.7530 H   0  0  0  0  0  0  0  0  0  0  0  0
  2  1  1  0
  2  3  2  0
  3 12  1  0
  4  3  1  0
  5  4  2  0
  6  7  2  0
  6  5  1  0
  7  2  1  0
  8  9  2  0
  8 14  1  0
 10  9  1  0
 11 10  2  0
 12 11  1  0
 12 13  2  0
 13  8  1  0
 15  7  1  0
 17 16  2  0
 17 15  1  0
 18 17  1  0
 19 17  1  0
 20 21  2  0
 21 22  1  0
 21 19  1  0
 23 22  2  0
 24 23  1  0
 25 24  2  0
 25 20  1  0
 26 20  1  0
 27 26  2  0
 28 26  2  0
  4 29  1  0
  5 30  1  0
  6 31  1  0
  9 32  1  0
 10 33  1  0
 14 34  1  0
 14 35  1  0
 18 36  1  0
 22 37  1  0
 23 38  1  0
 24 39  1  0
 25 40  1  0
 26 41  1  0
M  ISO  8  29  14  30  14  31  14  32  14  33  14  36   3  37  14  38  14
M  ISO  3  39  14  40  14  41  11
M  END
>  <minimizedAffinity>  (1) 
-6.84292555

>  <minimizedRMSD>  (1) 
1.27937138

$$$$
