
     RDKit          3D

 46 50  0  0  0  0  0  0  0  0999 V2000
   45.9500   33.3580   41.5640 C   0  0  0  0  0  0  0  0  0  0  0  0
   47.1510   34.0100   41.2970 C   0  0  0  0  0  0  0  0  0  0  0  0
   48.0940   34.0050   42.3020 C   0  0  0  0  0  0  0  0  0  0  0  0
   47.7840   33.3690   43.4690 N   0  0  0  0  0  0  0  0  0  0  0  0
   46.6350   32.7520   43.7060 C   0  0  0  0  0  0  0  0  0  0  0  0
   45.6940   32.7420   42.7400 N   0  0  0  0  0  0  0  0  0  0  0  0
   46.4650   30.7330   45.0990 C   0  0  0  0  0  0  0  0  0  0  0  0
   46.3980   32.1040   44.9800 C   0  0  0  0  0  0  0  0  0  0  0  0
   46.1020   32.9490   46.0660 C   0  0  0  0  0  0  0  0  0  0  0  0
   45.8640   32.3870   47.3160 C   0  0  0  0  0  0  0  0  0  0  0  0
   45.5590   32.8670   48.5510 N   0  0  0  0  0  0  0  0  0  0  0  0
   45.4460   31.7910   49.3960 C   0  0  0  0  0  0  0  0  0  0  0  0
   45.6820   30.6840   48.6700 N   0  0  0  0  0  0  0  0  0  0  0  0
   45.9400   31.0190   47.3970 C   0  0  0  0  0  0  0  0  0  0  0  0
   46.2300   30.1580   46.3470 C   0  0  0  0  0  0  0  0  0  0  0  0
   49.3970   34.6800   42.0880 C   0  0  0  0  0  0  0  0  0  0  0  0
   49.2340   35.8140   41.2790 F   0  0  0  0  0  0  0  0  0  0  0  0
   49.9070   35.1340   43.2820 F   0  0  0  0  0  0  0  0  0  0  0  0
   50.2470   33.7940   41.4730 F   0  0  0  0  0  0  0  0  0  0  0  0
   47.3310   34.6030   40.0930 O   0  0  0  0  0  0  0  0  0  0  0  0
   47.3140   33.9010   38.9110 C   0  0  0  0  0  0  0  0  0  0  0  0
   48.5620   34.1820   38.3530 C   0  0  0  0  0  0  0  0  0  0  0  0
   48.5300   33.2330   36.7660 S   0  0  0  0  0  0  0  0  0  0  0  0
   46.8040   32.6170   37.1500 C   0  0  0  0  0  0  0  0  0  0  0  0
   46.6520   33.1140   38.1220 N   0  0  0  0  0  0  0  0  0  0  0  0
   45.9580   30.3840   36.5780 C   0  0  0  0  0  0  0  0  0  0  0  0
   46.0450   31.7080   36.2340 C   0  0  0  0  0  0  0  0  0  0  0  0
   45.4900   32.2770   35.1100 C   0  0  0  0  0  0  0  0  0  0  0  0
   44.7850   31.4660   34.2480 C   0  0  0  0  0  0  0  0  0  0  0  0
   44.6710   30.1220   34.5540 C   0  0  0  0  0  0  0  0  0  0  0  0
   45.2480   29.5880   35.7030 C   0  0  0  0  0  0  0  0  0  0  0  0
   46.7250   29.8360   38.0430 S   0  0  0  0  0  0  0  0  0  0  0  0
   48.1960   30.1440   38.0880 O   0  0  0  0  0  0  0  0  0  0  0  0
   46.0140   30.3790   39.2550 O   0  0  0  0  0  0  0  0  0  0  0  0
   45.1751   33.3434   40.7835 H   0  0  0  0  0  0  0  0  0  0  0  0
   46.6992   30.1048   44.2269 H   0  0  0  0  0  0  0  0  0  0  0  0
   46.0594   34.0395   45.9281 H   0  0  0  0  0  0  0  0  0  0  0  0
   45.4353   33.8572   48.8060 H   0  0  0  0  0  0  0  0  0  0  0  0
   45.2066   31.8276   50.4690 H   0  0  0  0  0  0  0  0  0  0  0  0
   46.2725   29.0687   46.4937 H   0  0  0  0  0  0  0  0  0  0  0  0
   49.3670   34.8130   38.7578 H   0  0  0  0  0  0  0  0  0  0  0  0
   45.6065   33.3515   34.9054 H   0  0  0  0  0  0  0  0  0  0  0  0
   44.3238   31.8775   33.3381 H   0  0  0  0  0  0  0  0  0  0  0  0
   44.1125   29.4609   33.8750 H   0  0  0  0  0  0  0  0  0  0  0  0
   45.1361   28.5147   35.9165 H   0  0  0  0  0  0  0  0  0  0  0  0
   46.6224   28.4699   38.0530 H   0  0  0  0  0  0  0  0  0  0  0  0
  1  6  2  0
  2  1  1  0
  2  3  2  0
  3  4  1  0
  4  5  2  0
  5  8  1  0
  6  5  1  0
  7 15  2  0
  8  7  1  0
  8  9  2  0
  9 10  1  0
 10 14  2  0
 10 11  1  0
 11 12  1  0
 13 12  2  0
 14 13  1  0
 15 14  1  0
 16  3  1  0
 16 18  1  0
 17 16  1  0
 19 16  1  0
 20  2  1  0
 21 20  1  0
 22 21  2  0
 23 24  1  0
 23 22  1  0
 24 25  2  0
 25 21  1  0
 26 32  1  0
 27 26  2  0
 27 24  1  0
 28 27  1  0
 29 30  1  0
 29 28  2  0
 30 31  2  0
 31 26  1  0
 32 33  2  0
 32 34  2  0
  1 35  1  0
  7 36  1  0
  9 37  1  0
 11 38  1  0
 12 39  1  0
 15 40  1  0
 22 41  1  0
 28 42  1  0
 29 43  1  0
 30 44  1  0
 31 45  1  0
 32 46  1  0
M  ISO  8  35  14  36  14  37  14  38   9  39  14  40  14  41  14  42  14
M  ISO  4  43  14  44  14  45  14  46  11
M  END
>  <minimizedAffinity>  (1) 
-6.18724203

>  <minimizedRMSD>  (1) 
0.95319134

$$$$
