
     RDKit          3D

 45 48  0  0  1  0  0  0  0  0999 V2000
   48.6300   33.2460   42.7080 N   0  0  0  0  0  0  0  0  0  0  0  0
   49.7800   34.0660   42.4840 C   0  0  0  0  0  0  0  0  0  0  0  0
   49.5100   35.5010   42.2190 C   0  0  0  0  0  0  0  0  0  0  0  0
   48.7160   35.6510   40.9580 C   0  0  0  0  0  0  0  0  0  0  0  0
   47.7880   34.5010   40.7870 C   0  0  0  0  0  0  0  0  0  0  0  0
   47.4680   33.8210   42.0540 C   0  0  2  0  0  0  0  0  0  0  0  0
   46.1980   33.7330   44.1570 C   0  0  0  0  0  0  0  0  0  0  0  0
   46.5030   34.4240   42.9700 C   0  0  0  0  0  0  0  0  0  0  0  0
   45.8590   35.6570   42.7820 C   0  0  0  0  0  0  0  0  0  0  0  0
   44.9780   36.2320   43.6390 C   0  0  0  0  0  0  0  0  0  0  0  0
   44.6670   35.5770   44.7990 C   0  0  0  0  0  0  0  0  0  0  0  0
   45.2820   34.3600   45.0180 C   0  0  0  0  0  0  0  0  0  0  0  0
   46.8400   32.2130   44.6270 S   0  0  0  0  0  0  0  0  0  0  0  0
   47.1260   32.0060   46.0600 O   0  0  0  0  0  0  0  0  0  0  0  0
   45.7880   31.1330   44.3410 O   0  0  0  0  0  0  0  0  0  0  0  0
   49.9400   31.0570   43.0370 C   0  0  1  0  0  0  0  0  0  0  0  0
   50.4080   31.7590   41.8610 C   0  0  0  0  0  0  0  0  0  0  0  0
   48.9750   31.9290   42.2440 C   0  0  2  0  0  0  0  0  0  0  0  0
   50.3140   28.7670   42.0410 C   0  0  0  0  0  0  0  0  0  0  0  0
   49.7040   29.5910   43.0270 C   0  0  0  0  0  0  0  0  0  0  0  0
   48.8910   28.9690   43.9560 C   0  0  0  0  0  0  0  0  0  0  0  0
   48.7370   27.6230   43.8600 N   0  0  0  0  0  0  0  0  0  0  0  0
   49.3280   26.8660   42.9170 C   0  0  0  0  0  0  0  0  0  0  0  0
   50.1340   27.4380   41.9840 N   0  0  0  0  0  0  0  0  0  0  0  0
   50.4187   34.0024   43.3773 H   0  0  0  0  0  0  0  0  0  0  0  0
   50.2497   33.6770   41.5686 H   0  0  0  0  0  0  0  0  0  0  0  0
   48.9415   35.9255   43.0596 H   0  0  0  0  0  0  0  0  0  0  0  0
   50.4665   36.0327   42.1076 H   0  0  0  0  0  0  0  0  0  0  0  0
   48.1331   36.5826   41.0059 H   0  0  0  0  0  0  0  0  0  0  0  0
   49.4078   35.6802   40.1032 H   0  0  0  0  0  0  0  0  0  0  0  0
   46.8521   34.8700   40.3420 H   0  0  0  0  0  0  0  0  0  0  0  0
   48.2916   33.7676   40.1402 H   0  0  0  0  0  0  0  0  0  0  0  0
   46.8500   32.9925   41.6776 H   0  0  0  0  0  0  0  0  0  0  0  0
   46.0891   36.2063   41.8572 H   0  0  0  0  0  0  0  0  0  0  0  0
   44.5228   37.2058   43.4055 H   0  0  0  0  0  0  0  0  0  0  0  0
   43.9582   36.0010   45.5255 H   0  0  0  0  0  0  0  0  0  0  0  0
   45.0319   33.8340   45.9511 H   0  0  0  0  0  0  0  0  0  0  0  0
   48.0191   32.1559   43.9317 H   0  0  0  0  0  0  0  0  0  0  0  0
   50.3030   31.0027   44.0739 H   0  0  0  0  0  0  0  0  0  0  0  0
   50.6644   31.1904   40.9550 H   0  0  0  0  0  0  0  0  0  0  0  0
   51.2348   32.4583   41.6678 H   0  0  0  0  0  0  0  0  0  0  0  0
   47.9777   31.7600   41.8117 H   0  0  0  0  0  0  0  0  0  0  0  0
   50.9635   29.2409   41.2903 H   0  0  0  0  0  0  0  0  0  0  0  0
   48.3861   29.5444   44.7459 H   0  0  0  0  0  0  0  0  0  0  0  0
   49.1579   25.7793   42.9013 H   0  0  0  0  0  0  0  0  0  0  0  0
  1  2  1  0
  3  2  1  0
  4  3  1  0
  5  4  1  0
  5  6  1  0
  6  1  1  0
  6  8  1  0
  7 13  1  0
  7 12  2  0
  8  7  1  0
  9  8  2  0
  9 10  1  0
 10 11  2  0
 11 12  1  0
 13 14  2  0
 15 13  2  0
 17 18  1  0
 17 16  1  0
 18  1  1  0
 18 16  1  0
 19 20  2  0
 20 16  1  0
 20 21  1  0
 22 21  2  0
 23 22  1  0
 24 19  1  0
 24 23  2  0
  2 25  1  0
  2 26  1  0
  3 27  1  0
  3 28  1  0
  4 29  1  0
  4 30  1  0
  5 31  1  0
  5 32  1  0
  6 33  1  6
  9 34  1  0
 10 35  1  0
 11 36  1  0
 12 37  1  0
 13 38  1  0
 16 39  1  1
 17 40  1  0
 17 41  1  0
 18 42  1  6
 19 43  1  0
 21 44  1  0
 23 45  1  0
M  ISO  8  25  13  26  13  27  13  28  13  29  13  30  13  31  13  32  13
M  ISO  8  33  13  34  14  35  14  36  14  37  14  38  11  39  13  40  13
M  ISO  5  41  13  42  13  43  14  44  14  45  14
M  END
>  <minimizedAffinity>  (1) 
-5.33719444

>  <minimizedRMSD>  (1) 
6.648736

$$$$
