
     RDKit          3D

 39 42  0  0  0  0  0  0  0  0999 V2000
   47.6210   32.4470   48.3850 C   0  0  0  0  0  0  0  0  0  0  0  0
   47.3370   31.0770   48.4480 C   0  0  0  0  0  0  0  0  0  0  0  0
   46.5520   30.5540   47.4600 C   0  0  0  0  0  0  0  0  0  0  0  0
   46.1070   31.3810   46.5020 N   0  0  0  0  0  0  0  0  0  0  0  0
   46.3670   32.6730   46.4310 C   0  0  0  0  0  0  0  0  0  0  0  0
   47.1290   33.1740   47.3900 N   0  0  0  0  0  0  0  0  0  0  0  0
   45.9580   33.6910   45.4590 C   0  0  0  0  0  0  0  0  0  0  0  0
   44.9590   34.5910   45.6780 N   0  0  0  0  0  0  0  0  0  0  0  0
   44.5540   35.5290   44.8350 C   0  0  0  0  0  0  0  0  0  0  0  0
   45.1630   35.6410   43.6330 N   0  0  0  0  0  0  0  0  0  0  0  0
   46.1670   34.8120   43.2960 C   0  0  0  0  0  0  0  0  0  0  0  0
   46.7830   34.9390   42.0580 C   0  0  0  0  0  0  0  0  0  0  0  0
   47.8070   34.1010   41.6990 C   0  0  0  0  0  0  0  0  0  0  0  0
   48.1950   33.1420   42.6050 C   0  0  0  0  0  0  0  0  0  0  0  0
   47.5500   33.0550   43.8230 C   0  0  0  0  0  0  0  0  0  0  0  0
   46.5260   33.8650   44.2260 C   0  0  0  0  0  0  0  0  0  0  0  0
   46.9660   28.2910   46.6260 C   0  0  0  0  0  0  0  0  0  0  0  0
   46.1560   29.1650   47.3610 C   0  0  0  0  0  0  0  0  0  0  0  0
   45.0450   28.5820   47.9140 C   0  0  0  0  0  0  0  0  0  0  0  0
   44.6490   27.2690   47.8270 C   0  0  0  0  0  0  0  0  0  0  0  0
   45.4460   26.4080   47.1050 C   0  0  0  0  0  0  0  0  0  0  0  0
   46.5740   26.9470   46.5300 C   0  0  0  0  0  0  0  0  0  0  0  0
   48.4320   28.7690   45.8250 S   0  0  0  0  0  0  0  0  0  0  0  0
   48.2080   29.4730   44.5250 O   0  0  0  0  0  0  0  0  0  0  0  0
   49.1930   27.5000   45.4600 O   0  0  0  0  0  0  0  0  0  0  0  0
   47.8780   30.3400   49.5170 N   0  0  0  0  0  0  0  0  0  0  0  0
   48.2485   32.9177   49.1562 H   0  0  0  0  0  0  0  0  0  0  0  0
   43.7331   36.2079   45.1092 H   0  0  0  0  0  0  0  0  0  0  0  0
   46.4464   35.7189   41.3591 H   0  0  0  0  0  0  0  0  0  0  0  0
   48.3010   34.1926   40.7204 H   0  0  0  0  0  0  0  0  0  0  0  0
   49.0136   32.4489   42.3612 H   0  0  0  0  0  0  0  0  0  0  0  0
   47.8860   32.2746   44.5216 H   0  0  0  0  0  0  0  0  0  0  0  0
   44.3912   29.2461   48.4984 H   0  0  0  0  0  0  0  0  0  0  0  0
   43.7285   26.9180   48.3164 H   0  0  0  0  0  0  0  0  0  0  0  0
   45.1934   25.3432   46.9937 H   0  0  0  0  0  0  0  0  0  0  0  0
   47.2192   26.2712   45.9494 H   0  0  0  0  0  0  0  0  0  0  0  0
   49.0866   29.6127   46.6833 H   0  0  0  0  0  0  0  0  0  0  0  0
   47.6893   29.3304   49.5941 H   0  0  0  0  0  0  0  0  0  0  0  0
   48.4629   30.8100   50.2227 H   0  0  0  0  0  0  0  0  0  0  0  0
  1  2  2  0
  2 26  1  0
  3  2  1  0
  4  3  2  0
  5  4  1  0
  5  6  2  0
  6  1  1  0
  7  8  2  0
  7  5  1  0
  9  8  1  0
 10  9  2  0
 11 10  1  0
 11 16  2  0
 12 11  1  0
 13 12  2  0
 13 14  1  0
 14 15  2  0
 15 16  1  0
 16  7  1  0
 17 18  2  0
 18  3  1  0
 18 19  1  0
 20 19  2  0
 21 20  1  0
 22 17  1  0
 22 21  2  0
 23 17  1  0
 24 23  2  0
 25 23  2  0
  1 27  1  0
  9 28  1  0
 12 29  1  0
 13 30  1  0
 14 31  1  0
 15 32  1  0
 19 33  1  0
 20 34  1  0
 21 35  1  0
 22 36  1  0
 23 37  1  0
 26 38  1  0
 26 39  1  0
M  ISO  8  27  14  28  14  29  14  30  14  31  14  32  14  33  14  34  14
M  ISO  3  35  14  36  14  37  11
M  END
>  <minimizedAffinity>  (1) 
-6.16919899

>  <minimizedRMSD>  (1) 
1.68950832

$$$$
