
     RDKit          3D

 43 46  0  0  0  0  0  0  0  0999 V2000
   48.5910   34.0320   37.2360 Cl  0  0  0  0  0  0  0  0  0  0  0  0
   48.0890   32.4530   37.7630 C   0  0  0  0  0  0  0  0  0  0  0  0
   47.9260   32.2240   39.0820 C   0  0  0  0  0  0  0  0  0  0  0  0
   47.7430   30.8910   39.4010 C   0  0  0  0  0  0  0  0  0  0  0  0
   47.7210   29.8590   38.4830 C   0  0  0  0  0  0  0  0  0  0  0  0
   47.8890   30.1790   37.1460 C   0  0  0  0  0  0  0  0  0  0  0  0
   48.0720   31.4870   36.8000 C   0  0  0  0  0  0  0  0  0  0  0  0
   48.5830   35.4970   40.7530 C   0  0  0  0  0  0  0  0  0  0  0  0
   48.5450   34.5070   39.7540 C   0  0  0  0  0  0  0  0  0  0  0  0
   47.9580   33.2860   40.0480 C   0  0  0  0  0  0  0  0  0  0  0  0
   47.4490   33.1280   41.2890 N   0  0  0  0  0  0  0  0  0  0  0  0
   47.4800   34.0670   42.2370 C   0  0  0  0  0  0  0  0  0  0  0  0
   48.0510   35.2600   41.9760 N   0  0  0  0  0  0  0  0  0  0  0  0
   45.0750   35.8300   42.8920 Cl  0  0  0  0  0  0  0  0  0  0  0  0
   45.7710   34.6160   43.9400 C   0  0  0  0  0  0  0  0  0  0  0  0
   46.8670   33.8590   43.5320 C   0  0  0  0  0  0  0  0  0  0  0  0
   47.3070   32.9350   44.4220 C   0  0  0  0  0  0  0  0  0  0  0  0
   46.7620   32.7000   45.6650 C   0  0  0  0  0  0  0  0  0  0  0  0
   45.6720   33.4690   46.0480 C   0  0  0  0  0  0  0  0  0  0  0  0
   45.0440   33.1230   47.6440 Cl  0  0  0  0  0  0  0  0  0  0  0  0
   45.1800   34.4230   45.1870 C   0  0  0  0  0  0  0  0  0  0  0  0
   47.1570   32.0840   34.5570 C   0  0  0  0  0  0  0  0  0  0  0  0
   48.2380   31.7580   35.3870 C   0  0  0  0  0  0  0  0  0  0  0  0
   49.4870   31.7080   34.7890 C   0  0  0  0  0  0  0  0  0  0  0  0
   49.7590   31.9470   33.4560 C   0  0  0  0  0  0  0  0  0  0  0  0
   48.6740   32.2710   32.6390 C   0  0  0  0  0  0  0  0  0  0  0  0
   47.4230   32.3250   33.2220 C   0  0  0  0  0  0  0  0  0  0  0  0
   45.5590   32.1690   35.2240 S   0  0  0  0  0  0  0  0  0  0  0  0
   45.0060   30.8220   35.5920 O   0  0  0  0  0  0  0  0  0  0  0  0
   45.3620   33.1990   36.2690 O   0  0  0  0  0  0  0  0  0  0  0  0
   47.6051   30.6340   40.4616 H   0  0  0  0  0  0  0  0  0  0  0  0
   47.5748   28.8169   38.8035 H   0  0  0  0  0  0  0  0  0  0  0  0
   47.8752   29.3932   36.3764 H   0  0  0  0  0  0  0  0  0  0  0  0
   49.0482   36.4706   40.5393 H   0  0  0  0  0  0  0  0  0  0  0  0
   48.9728   34.6982   38.7588 H   0  0  0  0  0  0  0  0  0  0  0  0
   48.1713   32.3221   44.1265 H   0  0  0  0  0  0  0  0  0  0  0  0
   47.1765   31.9292   46.3313 H   0  0  0  0  0  0  0  0  0  0  0  0
   44.3164   35.0359   45.4845 H   0  0  0  0  0  0  0  0  0  0  0  0
   50.3404   31.4547   35.4352 H   0  0  0  0  0  0  0  0  0  0  0  0
   50.7822   31.8850   33.0569 H   0  0  0  0  0  0  0  0  0  0  0  0
   48.8109   32.4763   31.5670 H   0  0  0  0  0  0  0  0  0  0  0  0
   46.5719   32.5797   32.5733 H   0  0  0  0  0  0  0  0  0  0  0  0
   44.7892   32.6270   34.1874 H   0  0  0  0  0  0  0  0  0  0  0  0
  1  2  1  0
  2  3  2  0
  3  4  1  0
  3 10  1  0
  5  4  2  0
  6  5  1  0
  7  6  2  0
  7  2  1  0
  8 13  2  0
  9 10  2  0
  9  8  1  0
 10 11  1  0
 11 12  2  0
 12 16  1  0
 13 12  1  0
 14 15  1  0
 15 21  2  0
 16 15  1  0
 16 17  2  0
 17 18  1  0
 18 19  2  0
 19 20  1  0
 21 19  1  0
 22 28  1  0
 22 23  2  0
 23  7  1  0
 24 23  1  0
 25 24  2  0
 26 27  2  0
 26 25  1  0
 27 22  1  0
 28 29  2  0
 28 30  2  0
  4 31  1  0
  5 32  1  0
  6 33  1  0
  8 34  1  0
  9 35  1  0
 17 36  1  0
 18 37  1  0
 21 38  1  0
 24 39  1  0
 25 40  1  0
 26 41  1  0
 27 42  1  0
 28 43  1  0
M  ISO  8  31  14  32  14  33  14  34  14  35  14  36  14  37  14  38  14
M  ISO  5  39  14  40  14  41  14  42  14  43  11
M  END
>  <minimizedAffinity>  (1) 
-6.13694477

>  <minimizedRMSD>  (1) 
1.45233941

$$$$
