
     RDKit          3D

 48 52  0  0  0  0  0  0  0  0999 V2000
   44.7460   35.9180   43.4060 Cl  0  0  0  0  0  0  0  0  0  0  0  0
   45.5110   34.6710   44.3370 C   0  0  0  0  0  0  0  0  0  0  0  0
   46.5910   33.9840   43.8270 C   0  0  0  0  0  0  0  0  0  0  0  0
   47.1290   33.0100   44.6430 C   0  0  0  0  0  0  0  0  0  0  0  0
   46.6590   32.6960   45.9090 C   0  0  0  0  0  0  0  0  0  0  0  0
   45.5840   33.4020   46.3790 C   0  0  0  0  0  0  0  0  0  0  0  0
   45.0230   32.9700   47.9850 Cl  0  0  0  0  0  0  0  0  0  0  0  0
   45.0170   34.3750   45.6070 C   0  0  0  0  0  0  0  0  0  0  0  0
   47.3710   31.6250   46.6200 C   0  0  0  0  0  0  0  0  0  0  0  0
   47.4980   30.3520   46.1370 C   0  0  0  0  0  0  0  0  0  0  0  0
   48.1680   29.3430   46.8010 C   0  0  0  0  0  0  0  0  0  0  0  0
   48.7470   29.6020   48.0170 C   0  0  0  0  0  0  0  0  0  0  0  0
   49.3910   28.6130   48.6470 N   0  0  0  0  0  0  0  0  0  0  0  0
   49.9900   28.7840   49.8480 C   0  0  0  0  0  0  0  0  0  0  0  0
   49.9030   30.0540   50.4020 C   0  0  0  0  0  0  0  0  0  0  0  0
   49.2470   31.0720   49.7660 C   0  0  0  0  0  0  0  0  0  0  0  0
   48.6450   30.8640   48.5390 C   0  0  0  0  0  0  0  0  0  0  0  0
   47.9750   31.8620   47.8640 C   0  0  0  0  0  0  0  0  0  0  0  0
   48.7170   35.3200   41.1890 C   0  0  0  0  0  0  0  0  0  0  0  0
   48.1560   34.7740   40.0260 C   0  0  0  0  0  0  0  0  0  0  0  0
   47.0310   33.9340   40.1400 C   0  0  0  0  0  0  0  0  0  0  0  0
   46.6040   33.7410   41.3990 N   0  0  0  0  0  0  0  0  0  0  0  0
   47.1380   34.2610   42.5090 C   0  0  0  0  0  0  0  0  0  0  0  0
   48.2040   35.0580   42.4110 N   0  0  0  0  0  0  0  0  0  0  0  0
   45.0120   33.1730   39.0350 C   0  0  0  0  0  0  0  0  0  0  0  0
   46.3720   33.3170   38.9990 C   0  0  0  0  0  0  0  0  0  0  0  0
   47.0780   32.8820   37.8990 C   0  0  0  0  0  0  0  0  0  0  0  0
   46.4680   32.2930   36.8050 C   0  0  0  0  0  0  0  0  0  0  0  0
   45.1050   32.1370   36.8160 C   0  0  0  0  0  0  0  0  0  0  0  0
   44.4190   32.5740   37.9170 C   0  0  0  0  0  0  0  0  0  0  0  0
   44.0130   33.6780   40.3600 S   0  0  0  0  0  0  0  0  0  0  0  0
   42.8450   32.7120   40.5020 O   0  0  0  0  0  0  0  0  0  0  0  0
   43.3940   35.0100   40.0990 O   0  0  0  0  0  0  0  0  0  0  0  0
   47.9913   32.4429   44.2624 H   0  0  0  0  0  0  0  0  0  0  0  0
   44.1539   34.9362   45.9943 H   0  0  0  0  0  0  0  0  0  0  0  0
   47.0406   30.1182   45.1643 H   0  0  0  0  0  0  0  0  0  0  0  0
   48.2367   28.3387   46.3576 H   0  0  0  0  0  0  0  0  0  0  0  0
   50.5163   27.9630   50.3569 H   0  0  0  0  0  0  0  0  0  0  0  0
   50.3737   30.2466   51.3774 H   0  0  0  0  0  0  0  0  0  0  0  0
   49.1980   32.0656   50.2354 H   0  0  0  0  0  0  0  0  0  0  0  0
   47.9126   32.8655   48.3102 H   0  0  0  0  0  0  0  0  0  0  0  0
   49.5952   35.9770   41.1046 H   0  0  0  0  0  0  0  0  0  0  0  0
   48.5878   34.9981   39.0394 H   0  0  0  0  0  0  0  0  0  0  0  0
   48.1707   33.0078   37.8897 H   0  0  0  0  0  0  0  0  0  0  0  0
   47.0642   31.9567   35.9439 H   0  0  0  0  0  0  0  0  0  0  0  0
   44.5800   31.6753   35.9668 H   0  0  0  0  0  0  0  0  0  0  0  0
   43.3265   32.4457   37.9239 H   0  0  0  0  0  0  0  0  0  0  0  0
   44.8109   33.7212   41.4729 H   0  0  0  0  0  0  0  0  0  0  0  0
  1  2  1  0
  2  8  2  0
  3  2  1  0
  3  4  2  0
  4  5  1  0
  5  6  2  0
  5  9  1  0
  6  7  1  0
  8  6  1  0
  9 18  1  0
 10  9  2  0
 10 11  1  0
 11 12  2  0
 12 17  1  0
 12 13  1  0
 13 14  2  0
 14 15  1  0
 16 15  2  0
 17 16  1  0
 18 17  2  0
 19 24  2  0
 20 21  2  0
 20 19  1  0
 21 22  1  0
 22 23  2  0
 23  3  1  0
 24 23  1  0
 25 31  1  0
 26 25  2  0
 26 21  1  0
 27 26  1  0
 28 29  1  0
 28 27  2  0
 29 30  2  0
 30 25  1  0
 31 32  2  0
 33 31  2  0
  4 34  1  0
  8 35  1  0
 10 36  1  0
 11 37  1  0
 14 38  1  0
 15 39  1  0
 16 40  1  0
 18 41  1  0
 19 42  1  0
 20 43  1  0
 27 44  1  0
 28 45  1  0
 29 46  1  0
 30 47  1  0
 31 48  1  0
M  END
>  <minimizedAffinity>  (1) 
-7.34380007

>  <minimizedRMSD>  (1) 
0.399554878

$$$$
