
     RDKit          3D

 36 38  0  0  0  0  0  0  0  0999 V2000
   42.3320   33.4420   40.0780 C   0  0  0  0  0  0  0  0  0  0  0  0
   42.9720   34.6590   40.1490 C   0  0  0  0  0  0  0  0  0  0  0  0
   42.5960   35.6170   39.2340 C   0  0  0  0  0  0  0  0  0  0  0  0
   41.6200   35.4030   38.2700 C   0  0  0  0  0  0  0  0  0  0  0  0
   41.0100   34.1740   38.2380 C   0  0  0  0  0  0  0  0  0  0  0  0
   41.3590   33.1840   39.1410 C   0  0  0  0  0  0  0  0  0  0  0  0
   46.2610   34.6530   41.9750 C   0  0  0  0  0  0  0  0  0  0  0  0
   45.3140   34.4690   40.9650 C   0  0  0  0  0  0  0  0  0  0  0  0
   43.9840   34.8350   41.1720 C   0  0  0  0  0  0  0  0  0  0  0  0
   43.6940   35.3660   42.3850 N   0  0  0  0  0  0  0  0  0  0  0  0
   44.6140   35.5370   43.3390 C   0  0  0  0  0  0  0  0  0  0  0  0
   45.8950   35.1820   43.1370 N   0  0  0  0  0  0  0  0  0  0  0  0
   47.6010   34.2610   41.7100 N   0  0  0  0  0  0  0  0  0  0  0  0
   39.6050   31.5260   39.8530 C   0  0  0  0  0  0  0  0  0  0  0  0
   40.7140   31.8770   39.1100 C   0  0  0  0  0  0  0  0  0  0  0  0
   41.3130   30.9670   38.2510 C   0  0  0  0  0  0  0  0  0  0  0  0
   40.7740   29.7000   38.1530 C   0  0  0  0  0  0  0  0  0  0  0  0
   39.6510   29.3280   38.8960 C   0  0  0  0  0  0  0  0  0  0  0  0
   39.0650   30.2600   39.7550 C   0  0  0  0  0  0  0  0  0  0  0  0
   38.9140   32.7450   40.9150 S   0  0  0  0  0  0  0  0  0  0  0  0
   38.8190   34.0700   40.2300 O   0  0  0  0  0  0  0  0  0  0  0  0
   39.7090   32.8380   42.2060 O   0  0  0  0  0  0  0  0  0  0  0  0
   42.9400   31.5220   41.7540 N   0  0  0  0  0  0  0  0  0  0  0  0
   42.6690   32.3860   41.0010 C   0  0  0  0  0  0  0  0  0  0  0  0
   43.0923   36.5981   39.2685 H   0  0  0  0  0  0  0  0  0  0  0  0
   41.3447   36.1926   37.5553 H   0  0  0  0  0  0  0  0  0  0  0  0
   40.2337   33.9728   37.4851 H   0  0  0  0  0  0  0  0  0  0  0  0
   45.6184   34.0334   40.0019 H   0  0  0  0  0  0  0  0  0  0  0  0
   44.3189   35.9748   44.3040 H   0  0  0  0  0  0  0  0  0  0  0  0
   47.8474   33.8540   40.7965 H   0  0  0  0  0  0  0  0  0  0  0  0
   48.3258   34.3838   42.4315 H   0  0  0  0  0  0  0  0  0  0  0  0
   42.1977   31.2489   37.6612 H   0  0  0  0  0  0  0  0  0  0  0  0
   41.2384   28.9681   37.4758 H   0  0  0  0  0  0  0  0  0  0  0  0
   39.2338   28.3142   38.8056 H   0  0  0  0  0  0  0  0  0  0  0  0
   38.1801   29.9872   40.3487 H   0  0  0  0  0  0  0  0  0  0  0  0
   37.6370   32.3641   41.2331 H   0  0  0  0  0  0  0  0  0  0  0  0
  1  2  2  0
  1 24  1  0
  2  9  1  0
  3  2  1  0
  4  3  2  0
  5  4  1  0
  5  6  2  0
  6  1  1  0
  7 12  2  0
  8  9  2  0
  8  7  1  0
  9 10  1  0
 10 11  2  0
 12 11  1  0
 13  7  1  0
 14 20  1  0
 15  6  1  0
 15 14  2  0
 16 15  1  0
 17 16  2  0
 17 18  1  0
 18 19  2  0
 19 14  1  0
 20 22  2  0
 21 20  2  0
 24 23  3  0
  3 25  1  0
  4 26  1  0
  5 27  1  0
  8 28  1  0
 11 29  1  0
 13 30  1  0
 13 31  1  0
 16 32  1  0
 17 33  1  0
 18 34  1  0
 19 35  1  0
 20 36  1  0
M  ISO  8  25  14  26  14  27  14  28  14  29  14  32  14  33  14  34  14
M  ISO  2  35  14  36  11
M  END
>  <minimizedAffinity>  (1) 
-5.04298353

>  <minimizedRMSD>  (1) 
8.36741257

$$$$
