
     RDKit          3D

 41 43  0  0  1  0  0  0  0  0999 V2000
   46.7780   32.7390   45.1740 N   0  0  0  0  0  0  0  0  0  0  0  0
   46.5910   33.0840   46.5870 C   0  0  0  0  0  0  0  0  0  0  0  0
   47.3110   32.0120   47.3840 C   0  0  0  0  0  0  0  0  0  0  0  0
   46.5690   30.7140   47.2330 C   0  0  0  0  0  0  0  0  0  0  0  0
   46.3730   30.4310   45.7790 C   0  0  0  0  0  0  0  0  0  0  0  0
   47.0590   31.3870   44.8620 C   0  0  1  0  0  0  0  0  0  0  0  0
   47.5570   35.0040   42.3610 C   0  0  0  0  0  0  0  0  0  0  0  0
   47.7270   34.0560   43.3720 C   0  0  0  0  0  0  0  0  0  0  0  0
   46.6590   33.7270   44.1860 C   0  0  0  0  0  0  0  0  0  0  0  0
   45.4760   34.3520   43.9680 N   0  0  0  0  0  0  0  0  0  0  0  0
   45.3090   35.2790   42.9860 C   0  0  0  0  0  0  0  0  0  0  0  0
   46.3530   35.6010   42.1820 N   0  0  0  0  0  0  0  0  0  0  0  0
   48.7290   35.2950   41.4780 C   0  0  0  0  0  0  0  0  0  0  0  0
   48.3950   35.2080   40.1310 F   0  0  0  0  0  0  0  0  0  0  0  0
   49.1800   36.5590   41.7960 F   0  0  0  0  0  0  0  0  0  0  0  0
   49.7500   34.3960   41.7540 F   0  0  0  0  0  0  0  0  0  0  0  0
   47.4890   30.5650   42.5090 C   0  0  0  0  0  0  0  0  0  0  0  0
   46.5670   30.9320   43.5030 C   0  0  0  0  0  0  0  0  0  0  0  0
   45.2120   30.8170   43.1720 C   0  0  0  0  0  0  0  0  0  0  0  0
   44.8470   30.3630   41.9240 C   0  0  0  0  0  0  0  0  0  0  0  0
   45.7830   30.0120   40.9720 C   0  0  0  0  0  0  0  0  0  0  0  0
   47.1180   30.1160   41.2760 C   0  0  0  0  0  0  0  0  0  0  0  0
   49.2140   30.6620   42.7870 S   0  0  0  0  0  0  0  0  0  0  0  0
   49.7940   29.3090   43.0880 O   0  0  0  0  0  0  0  0  0  0  0  0
   49.8920   31.2250   41.5480 O   0  0  0  0  0  0  0  0  0  0  0  0
   47.0248   34.0724   46.7987 H   0  0  0  0  0  0  0  0  0  0  0  0
   45.5240   33.1302   46.8503 H   0  0  0  0  0  0  0  0  0  0  0  0
   48.3374   31.8970   47.0055 H   0  0  0  0  0  0  0  0  0  0  0  0
   47.3494   32.2986   48.4453 H   0  0  0  0  0  0  0  0  0  0  0  0
   47.1511   29.9011   47.6916 H   0  0  0  0  0  0  0  0  0  0  0  0
   45.5915   30.7848   47.7325 H   0  0  0  0  0  0  0  0  0  0  0  0
   46.7566   29.4212   45.5713 H   0  0  0  0  0  0  0  0  0  0  0  0
   45.2950   30.5317   45.5845 H   0  0  0  0  0  0  0  0  0  0  0  0
   48.1567   31.3715   44.9310 H   0  0  0  0  0  0  0  0  0  0  0  0
   48.7046   33.5739   43.5199 H   0  0  0  0  0  0  0  0  0  0  0  0
   44.3323   35.7648   42.8448 H   0  0  0  0  0  0  0  0  0  0  0  0
   44.4401   31.0887   43.9071 H   0  0  0  0  0  0  0  0  0  0  0  0
   43.7781   30.2776   41.6786 H   0  0  0  0  0  0  0  0  0  0  0  0
   45.4634   29.6535   39.9824 H   0  0  0  0  0  0  0  0  0  0  0  0
   47.8803   29.8400   40.5326 H   0  0  0  0  0  0  0  0  0  0  0  0
   49.4285   31.4788   43.8657 H   0  0  0  0  0  0  0  0  0  0  0  0
  1  2  1  0
  2  3  1  0
  4  3  1  0
  5  4  1  0
  6  1  1  0
  6  5  1  0
  7  8  2  0
  8  9  1  0
  9  1  1  0
 10  9  2  0
 11 10  1  0
 12  7  1  0
 12 11  2  0
 13 16  1  0
 13 15  1  0
 13  7  1  0
 14 13  1  0
 17 23  1  0
 17 18  2  0
 18  6  1  0
 19 18  1  0
 20 19  2  0
 21 22  2  0
 21 20  1  0
 22 17  1  0
 23 24  2  0
 25 23  2  0
  2 26  1  0
  2 27  1  0
  3 28  1  0
  3 29  1  0
  4 30  1  0
  4 31  1  0
  5 32  1  0
  5 33  1  0
  6 34  1  6
  8 35  1  0
 11 36  1  0
 19 37  1  0
 20 38  1  0
 21 39  1  0
 22 40  1  0
 23 41  1  0
M  ISO  8  26  13  27  13  28  13  29  13  30  13  31  13  32  13  33  13
M  ISO  8  34  13  35  14  36  14  37  14  38  14  39  14  40  14  41  11
M  END
>  <minimizedAffinity>  (1) 
-5.07691383

>  <minimizedRMSD>  (1) 
1.72166741

$$$$
