
     RDKit          3D

 25 26  0  0  0  0  0  0  0  0999 V2000
   48.5150   33.5020   42.2970 C   0  0  0  0  0  0  0  0  0  0  0  0
   47.7000   32.9720   43.2880 C   0  0  0  0  0  0  0  0  0  0  0  0
   47.8880   31.6740   43.7160 C   0  0  0  0  0  0  0  0  0  0  0  0
   48.8600   30.8450   43.2100 C   0  0  0  0  0  0  0  0  0  0  0  0
   49.7000   31.3200   42.2210 C   0  0  0  0  0  0  0  0  0  0  0  0
   49.4920   32.6210   41.8120 C   0  0  0  0  0  0  0  0  0  0  0  0
   45.1060   35.6740   43.7200 C   0  0  0  0  0  0  0  0  0  0  0  0
   46.1070   34.8860   43.1290 C   0  0  0  0  0  0  0  0  0  0  0  0
   46.6680   33.8180   43.8400 C   0  0  0  0  0  0  0  0  0  0  0  0
   46.1710   33.6370   45.0830 N   0  0  0  0  0  0  0  0  0  0  0  0
   45.2230   34.3820   45.6430 C   0  0  0  0  0  0  0  0  0  0  0  0
   44.6860   35.4030   44.9670 N   0  0  0  0  0  0  0  0  0  0  0  0
   44.5390   36.7520   43.0070 N   0  0  0  0  0  0  0  0  0  0  0  0
   48.3930   35.1040   41.6670 S   0  0  0  0  0  0  0  0  0  0  0  0
   49.6470   35.8650   42.0720 O   0  0  0  0  0  0  0  0  0  0  0  0
   48.3770   35.0650   40.1560 O   0  0  0  0  0  0  0  0  0  0  0  0
   47.2259   31.2827   44.5025 H   0  0  0  0  0  0  0  0  0  0  0  0
   48.9680   29.8173   43.5871 H   0  0  0  0  0  0  0  0  0  0  0  0
   50.4919   30.6944   41.7834 H   0  0  0  0  0  0  0  0  0  0  0  0
   50.1594   33.0057   41.0268 H   0  0  0  0  0  0  0  0  0  0  0  0
   46.4503   35.1077   42.1077 H   0  0  0  0  0  0  0  0  0  0  0  0
   44.8799   34.1582   46.6639 H   0  0  0  0  0  0  0  0  0  0  0  0
   44.8590   36.9621   42.0508 H   0  0  0  0  0  0  0  0  0  0  0  0
   43.8052   37.3286   43.4429 H   0  0  0  0  0  0  0  0  0  0  0  0
   47.2503   35.6908   42.1431 H   0  0  0  0  0  0  0  0  0  0  0  0
  1  2  2  0
  2  3  1  0
  2  9  1  0
  4  3  2  0
  5  4  1  0
  6  5  2  0
  6  1  1  0
  7 12  2  0
  8  7  1  0
  8  9  2  0
  9 10  1  0
 10 11  2  0
 12 11  1  0
 13  7  1  0
 14 15  2  0
 14  1  1  0
 16 14  2  0
  3 17  1  0
  4 18  1  0
  5 19  1  0
  6 20  1  0
  8 21  1  0
 11 22  1  0
 13 23  1  0
 13 24  1  0
 14 25  1  0
M  ISO  7  17  14  18  14  19  14  20  14  21  14  22  14  25  11
M  END
>  <minimizedAffinity>  (1) 
-4.9007988

>  <minimizedRMSD>  (1) 
1.14281642

$$$$
