
     RDKit          3D

 42 45  0  0  0  0  0  0  0  0999 V2000
   45.9800   32.7450   46.4380 C   0  0  0  0  0  0  0  0  0  0  0  0
   45.4310   32.8540   47.7430 C   0  0  0  0  0  0  0  0  0  0  0  0
   45.6270   31.9250   48.7340 C   0  0  0  0  0  0  0  0  0  0  0  0
   46.3750   30.8290   48.5010 C   0  0  0  0  0  0  0  0  0  0  0  0
   46.9410   30.6640   47.2390 C   0  0  0  0  0  0  0  0  0  0  0  0
   47.6880   29.5430   47.0410 C   0  0  0  0  0  0  0  0  0  0  0  0
   48.2750   29.3140   45.8210 C   0  0  0  0  0  0  0  0  0  0  0  0
   48.0580   30.2730   44.8360 C   0  0  0  0  0  0  0  0  0  0  0  0
   47.3030   31.3540   45.1150 C   0  0  0  0  0  0  0  0  0  0  0  0
   46.7190   31.6180   46.2770 C   0  0  0  0  0  0  0  0  0  0  0  0
   44.4760   35.7160   45.0910 C   0  0  0  0  0  0  0  0  0  0  0  0
   45.1090   35.8410   43.8160 C   0  0  0  0  0  0  0  0  0  0  0  0
   46.0720   34.8740   43.4130 C   0  0  0  0  0  0  0  0  0  0  0  0
   46.3200   33.8930   44.2850 N   0  0  0  0  0  0  0  0  0  0  0  0
   45.7640   33.7570   45.4410 C   0  0  0  0  0  0  0  0  0  0  0  0
   44.8390   34.6840   45.8290 N   0  0  0  0  0  0  0  0  0  0  0  0
   44.7060   36.9580   43.0400 N   0  0  0  0  0  0  0  0  0  0  0  0
   47.2670   32.0960   43.9680 O   0  0  0  0  0  0  0  0  0  0  0  0
   47.4530   31.2840   41.6960 C   0  0  0  0  0  0  0  0  0  0  0  0
   48.0360   31.8850   42.8180 C   0  0  0  0  0  0  0  0  0  0  0  0
   49.3690   32.2440   42.7080 C   0  0  0  0  0  0  0  0  0  0  0  0
   50.1030   32.0290   41.5660 C   0  0  0  0  0  0  0  0  0  0  0  0
   49.5050   31.4350   40.4790 C   0  0  0  0  0  0  0  0  0  0  0  0
   48.1850   31.0570   40.5270 C   0  0  0  0  0  0  0  0  0  0  0  0
   45.7740   30.7900   41.6460 S   0  0  0  0  0  0  0  0  0  0  0  0
   44.8270   31.9540   41.7460 O   0  0  0  0  0  0  0  0  0  0  0  0
   45.5130   30.1650   40.2930 O   0  0  0  0  0  0  0  0  0  0  0  0
   44.8127   33.7342   47.9730 H   0  0  0  0  0  0  0  0  0  0  0  0
   45.1710   32.0761   49.7236 H   0  0  0  0  0  0  0  0  0  0  0  0
   46.5354   30.0802   49.2907 H   0  0  0  0  0  0  0  0  0  0  0  0
   47.8214   28.8200   47.8593 H   0  0  0  0  0  0  0  0  0  0  0  0
   48.8854   28.4186   45.6319 H   0  0  0  0  0  0  0  0  0  0  0  0
   48.4998   30.1495   43.8362 H   0  0  0  0  0  0  0  0  0  0  0  0
   43.7259   36.4415   45.4389 H   0  0  0  0  0  0  0  0  0  0  0  0
   46.5824   34.9310   42.4402 H   0  0  0  0  0  0  0  0  0  0  0  0
   45.1187   37.1144   42.1093 H   0  0  0  0  0  0  0  0  0  0  0  0
   44.0007   37.6127   43.4072 H   0  0  0  0  0  0  0  0  0  0  0  0
   49.8602   32.7204   43.5693 H   0  0  0  0  0  0  0  0  0  0  0  0
   51.1602   32.3296   41.5217 H   0  0  0  0  0  0  0  0  0  0  0  0
   50.0888   31.2611   39.5631 H   0  0  0  0  0  0  0  0  0  0  0  0
   47.7100   30.5816   39.6562 H   0  0  0  0  0  0  0  0  0  0  0  0
   45.5670   29.9410   42.7011 H   0  0  0  0  0  0  0  0  0  0  0  0
  1  2  2  0
  2  3  1  0
  4  3  2  0
  5  4  1  0
  6  5  2  0
  7  6  1  0
  8  9  1  0
  8  7  2  0
  9 10  2  0
 10  1  1  0
 10  5  1  0
 11 16  2  0
 12 11  1  0
 13 12  2  0
 13 14  1  0
 14 15  2  0
 15 16  1  0
 15  1  1  0
 17 12  1  0
 18  9  1  0
 19 20  2  0
 20 18  1  0
 21 20  1  0
 22 21  2  0
 23 24  2  0
 23 22  1  0
 24 19  1  0
 25 19  1  0
 25 26  2  0
 27 25  2  0
  2 28  1  0
  3 29  1  0
  4 30  1  0
  6 31  1  0
  7 32  1  0
  8 33  1  0
 11 34  1  0
 13 35  1  0
 17 36  1  0
 17 37  1  0
 21 38  1  0
 22 39  1  0
 23 40  1  0
 24 41  1  0
 25 42  1  0
M  ISO  8  28  14  29  14  30  14  31  14  32  14  33  14  34  14  35  14
M  ISO  5  38  14  39  14  40  14  41  14  42  11
M  END
>  <minimizedAffinity>  (1) 
-5.76443291

>  <minimizedRMSD>  (1) 
0.845713496

$$$$
