
     RDKit          3D

 25 26  0  0  0  0  0  0  0  0999 V2000
   45.7600   34.5380   44.1590 C   0  0  0  0  0  0  0  0  0  0  0  0
   46.7530   33.7370   43.6140 C   0  0  0  0  0  0  0  0  0  0  0  0
   47.2820   32.7020   44.3850 C   0  0  0  0  0  0  0  0  0  0  0  0
   46.8660   32.4310   45.6650 C   0  0  0  0  0  0  0  0  0  0  0  0
   45.8780   33.2140   46.2290 C   0  0  0  0  0  0  0  0  0  0  0  0
   45.3750   34.2180   45.4640 C   0  0  0  0  0  0  0  0  0  0  0  0
   48.6480   35.1800   40.8490 C   0  0  0  0  0  0  0  0  0  0  0  0
   48.1720   34.4930   39.7330 C   0  0  0  0  0  0  0  0  0  0  0  0
   47.1920   33.5270   39.9300 C   0  0  0  0  0  0  0  0  0  0  0  0
   46.7600   33.3110   41.1910 N   0  0  0  0  0  0  0  0  0  0  0  0
   47.2320   33.9830   42.2530 C   0  0  0  0  0  0  0  0  0  0  0  0
   48.1800   34.9200   42.0680 N   0  0  0  0  0  0  0  0  0  0  0  0
   48.7460   34.8570   38.4820 N   0  0  0  0  0  0  0  0  0  0  0  0
   45.0440   35.8490   43.2730 S   0  0  0  0  0  0  0  0  0  0  0  0
   44.8030   36.9780   44.2680 O   0  0  0  0  0  0  0  0  0  0  0  0
   43.6910   35.4690   42.7360 O   0  0  0  0  0  0  0  0  0  0  0  0
   48.0704   32.0726   43.9464 H   0  0  0  0  0  0  0  0  0  0  0  0
   47.3132   31.6021   46.2332 H   0  0  0  0  0  0  0  0  0  0  0  0
   45.5147   33.0330   47.2514 H   0  0  0  0  0  0  0  0  0  0  0  0
   44.5880   34.8396   45.9158 H   0  0  0  0  0  0  0  0  0  0  0  0
   49.4232   35.9497   40.7202 H   0  0  0  0  0  0  0  0  0  0  0  0
   46.7810   32.9560   39.0844 H   0  0  0  0  0  0  0  0  0  0  0  0
   49.4696   35.5888   38.4409 H   0  0  0  0  0  0  0  0  0  0  0  0
   48.4376   34.3885   37.6181 H   0  0  0  0  0  0  0  0  0  0  0  0
   45.8729   36.1916   42.2374 H   0  0  0  0  0  0  0  0  0  0  0  0
  1  6  2  0
  2  1  1  0
  2  3  2  0
  3  4  1  0
  4  5  2  0
  6  5  1  0
  7 12  2  0
  8  9  2  0
  8  7  1  0
  9 10  1  0
 10 11  2  0
 11  2  1  0
 12 11  1  0
 13  8  1  0
 14  1  1  0
 14 15  2  0
 16 14  2  0
  3 17  1  0
  4 18  1  0
  5 19  1  0
  6 20  1  0
  7 21  1  0
  9 22  1  0
 13 23  1  0
 13 24  1  0
 14 25  1  0
M  ISO  7  17  14  18  14  19  14  20  14  21  14  22  14  25  11
M  END
>  <minimizedAffinity>  (1) 
-4.90915012

>  <minimizedRMSD>  (1) 
4.36259651

$$$$
