
     RDKit          3D

 35 37  0  0  0  0  0  0  0  0999 V2000
   44.7200   30.2420   47.7360 Cl  0  0  0  0  0  0  0  0  0  0  0  0
   46.1920   29.5870   46.9990 C   0  0  0  0  0  0  0  0  0  0  0  0
   47.2260   30.4110   46.7280 C   0  0  0  0  0  0  0  0  0  0  0  0
   48.3430   29.8410   46.1800 C   0  0  0  0  0  0  0  0  0  0  0  0
   48.4240   28.5030   45.9110 C   0  0  0  0  0  0  0  0  0  0  0  0
   47.3560   27.6630   46.1930 C   0  0  0  0  0  0  0  0  0  0  0  0
   46.2280   28.2320   46.7460 C   0  0  0  0  0  0  0  0  0  0  0  0
   44.0820   27.0730   46.1840 C   0  0  0  0  0  0  0  0  0  0  0  0
   45.0740   27.3900   47.0610 C   0  0  0  0  0  0  0  0  0  0  0  0
   45.0090   26.8880   48.3530 C   0  0  0  0  0  0  0  0  0  0  0  0
   43.9730   26.0830   48.7730 C   0  0  0  0  0  0  0  0  0  0  0  0
   42.9720   25.7760   47.8550 C   0  0  0  0  0  0  0  0  0  0  0  0
   43.0270   26.2740   46.5540 C   0  0  0  0  0  0  0  0  0  0  0  0
   44.1590   27.7000   44.5640 S   0  0  0  0  0  0  0  0  0  0  0  0
   44.0620   29.2050   44.6500 O   0  0  0  0  0  0  0  0  0  0  0  0
   45.3710   27.2240   43.8590 O   0  0  0  0  0  0  0  0  0  0  0  0
   47.1220   31.8320   46.9920 C   0  0  0  0  0  0  0  0  0  0  0  0
   47.5040   32.2130   48.1370 O   0  0  0  0  0  0  0  0  0  0  0  0
   45.1000   34.4270   45.4730 C   0  0  0  0  0  0  0  0  0  0  0  0
   45.5920   34.5780   44.1830 C   0  0  0  0  0  0  0  0  0  0  0  0
   46.6600   33.7410   43.8530 C   0  0  0  0  0  0  0  0  0  0  0  0
   47.1340   32.8590   44.7880 N   0  0  0  0  0  0  0  0  0  0  0  0
   46.6160   32.7620   46.0150 C   0  0  0  0  0  0  0  0  0  0  0  0
   45.5990   33.5520   46.3460 N   0  0  0  0  0  0  0  0  0  0  0  0
   49.2062   30.4821   45.9477 H   0  0  0  0  0  0  0  0  0  0  0  0
   49.3420   28.0895   45.4680 H   0  0  0  0  0  0  0  0  0  0  0  0
   47.4072   26.5844   45.9834 H   0  0  0  0  0  0  0  0  0  0  0  0
   45.8095   27.1407   49.0639 H   0  0  0  0  0  0  0  0  0  0  0  0
   43.9376   25.6948   49.8016 H   0  0  0  0  0  0  0  0  0  0  0  0
   42.1310   25.1353   48.1588 H   0  0  0  0  0  0  0  0  0  0  0  0
   42.2344   26.0300   45.8314 H   0  0  0  0  0  0  0  0  0  0  0  0
   43.1134   27.2372   43.8093 H   0  0  0  0  0  0  0  0  0  0  0  0
   44.2579   35.0600   45.7895 H   0  0  0  0  0  0  0  0  0  0  0  0
   45.1708   35.3045   43.4725 H   0  0  0  0  0  0  0  0  0  0  0  0
   47.1158   33.7894   42.8530 H   0  0  0  0  0  0  0  0  0  0  0  0
  2  1  1  0
  3 17  1  0
  3  2  2  0
  4  3  1  0
  5  4  2  0
  5  6  1  0
  6  7  2  0
  7  2  1  0
  7  9  1  0
  8 13  2  0
  8  9  1  0
  9 10  2  0
 10 11  1  0
 12 11  2  0
 13 12  1  0
 14 15  2  0
 14  8  1  0
 16 14  2  0
 17 18  2  0
 19 24  2  0
 20 19  1  0
 21 20  2  0
 21 22  1  0
 22 23  2  0
 23 24  1  0
 23 17  1  0
  4 25  1  0
  5 26  1  0
  6 27  1  0
 10 28  1  0
 11 29  1  0
 12 30  1  0
 13 31  1  0
 14 32  1  0
 19 33  1  0
 20 34  1  0
 21 35  1  0
M  ISO  8  25  14  26  14  27  14  28  14  29  14  30  14  31  14  32  11
M  ISO  3  33  14  34  14  35  14
M  END
>  <minimizedAffinity>  (1) 
-4.8472333

>  <minimizedRMSD>  (1) 
2.44000816

$$$$
