
     RDKit          3D

 42 45  0  0  0  0  0  0  0  0999 V2000
   47.0110   32.0640   46.9250 C   0  0  0  0  0  0  0  0  0  0  0  0
   47.3860   32.4480   48.0790 O   0  0  0  0  0  0  0  0  0  0  0  0
   44.7450   30.4780   48.0040 Cl  0  0  0  0  0  0  0  0  0  0  0  0
   46.0990   29.8190   47.0760 C   0  0  0  0  0  0  0  0  0  0  0  0
   47.1030   30.6500   46.6560 C   0  0  0  0  0  0  0  0  0  0  0  0
   48.1330   30.0880   45.9730 C   0  0  0  0  0  0  0  0  0  0  0  0
   48.1740   28.7410   45.7070 C   0  0  0  0  0  0  0  0  0  0  0  0
   47.1550   27.9040   46.1330 C   0  0  0  0  0  0  0  0  0  0  0  0
   46.1000   28.4800   46.8350 C   0  0  0  0  0  0  0  0  0  0  0  0
   45.0690   27.5180   47.2360 C   0  0  0  0  0  0  0  0  0  0  0  0
   43.9720   27.0350   46.5370 C   0  0  0  0  0  0  0  0  0  0  0  0
   43.2410   26.1350   47.2730 C   0  0  0  0  0  0  0  0  0  0  0  0
   43.9570   26.0990   48.4600 C   0  0  0  0  0  0  0  0  0  0  0  0
   44.9790   26.8980   48.3850 O   0  0  0  0  0  0  0  0  0  0  0  0
   44.9790   34.6440   45.4130 C   0  0  0  0  0  0  0  0  0  0  0  0
   45.5040   34.8180   44.1290 C   0  0  0  0  0  0  0  0  0  0  0  0
   46.5910   34.0060   43.7920 C   0  0  0  0  0  0  0  0  0  0  0  0
   47.0400   33.1250   44.7260 N   0  0  0  0  0  0  0  0  0  0  0  0
   46.5140   32.9940   45.9300 C   0  0  0  0  0  0  0  0  0  0  0  0
   45.4680   33.7710   46.2670 N   0  0  0  0  0  0  0  0  0  0  0  0
   46.6720   33.6070   41.3160 C   0  0  0  0  0  0  0  0  0  0  0  0
   47.1080   34.2330   42.4580 C   0  0  0  0  0  0  0  0  0  0  0  0
   48.1260   35.1250   42.2070 C   0  0  0  0  0  0  0  0  0  0  0  0
   48.6580   35.3810   40.9890 C   0  0  0  0  0  0  0  0  0  0  0  0
   48.2080   34.7470   39.8710 C   0  0  0  0  0  0  0  0  0  0  0  0
   47.1930   33.8440   40.0490 C   0  0  0  0  0  0  0  0  0  0  0  0
   45.3800   32.4580   41.4140 S   0  0  0  0  0  0  0  0  0  0  0  0
   45.7340   31.3370   42.3410 O   0  0  0  0  0  0  0  0  0  0  0  0
   44.0780   33.1370   41.7530 O   0  0  0  0  0  0  0  0  0  0  0  0
   48.9564   30.7282   45.6234 H   0  0  0  0  0  0  0  0  0  0  0  0
   49.0249   28.3222   45.1498 H   0  0  0  0  0  0  0  0  0  0  0  0
   47.1790   26.8243   45.9241 H   0  0  0  0  0  0  0  0  0  0  0  0
   43.7170   27.3382   45.5108 H   0  0  0  0  0  0  0  0  0  0  0  0
   42.3286   25.5874   46.9945 H   0  0  0  0  0  0  0  0  0  0  0  0
   43.6982   25.4851   49.3353 H   0  0  0  0  0  0  0  0  0  0  0  0
   44.1228   35.2618   45.7215 H   0  0  0  0  0  0  0  0  0  0  0  0
   45.0858   35.5518   43.4243 H   0  0  0  0  0  0  0  0  0  0  0  0
   48.5405   35.6739   43.0654 H   0  0  0  0  0  0  0  0  0  0  0  0
   49.4710   36.1167   40.9004 H   0  0  0  0  0  0  0  0  0  0  0  0
   48.6364   34.9490   38.8782 H   0  0  0  0  0  0  0  0  0  0  0  0
   46.7869   33.3020   39.1822 H   0  0  0  0  0  0  0  0  0  0  0  0
   45.1946   31.8869   40.1826 H   0  0  0  0  0  0  0  0  0  0  0  0
  1  2  2  0
  4  3  1  0
  5  1  1  0
  5  4  2  0
  6  5  1  0
  7  6  2  0
  7  8  1  0
  8  9  2  0
  9  4  1  0
  9 10  1  0
 10 14  1  0
 11 10  2  0
 11 12  1  0
 12 13  2  0
 14 13  1  0
 15 20  2  0
 16 15  1  0
 17 16  2  0
 17 18  1  0
 18 19  2  0
 19 20  1  0
 19  1  1  0
 21 27  1  0
 21 22  2  0
 22 17  1  0
 23 22  1  0
 24 23  2  0
 25 26  2  0
 25 24  1  0
 26 21  1  0
 27 29  2  0
 27 28  2  0
  6 30  1  0
  7 31  1  0
  8 32  1  0
 11 33  1  0
 12 34  1  0
 13 35  1  0
 15 36  1  0
 16 37  1  0
 23 38  1  0
 24 39  1  0
 25 40  1  0
 26 41  1  0
 27 42  1  0
M  ISO  8  30  14  31  14  32  14  33  14  34  14  35  14  36  14  37  14
M  ISO  5  38  14  39  14  40  14  41  14  42  11
M  END
>  <minimizedAffinity>  (1) 
-6.46004963

>  <minimizedRMSD>  (1) 
0.931994259

$$$$
