
     RDKit          3D

 25 26  0  0  0  0  0  0  0  0999 V2000
   46.3050   30.9890   46.1470 C   0  0  0  0  0  0  0  0  0  0  0  0
   46.6140   32.3270   46.2820 C   0  0  0  0  0  0  0  0  0  0  0  0
   47.1670   32.7130   47.5090 C   0  0  0  0  0  0  0  0  0  0  0  0
   47.4110   31.8660   48.5440 C   0  0  0  0  0  0  0  0  0  0  0  0
   47.0970   30.5310   48.3940 C   0  0  0  0  0  0  0  0  0  0  0  0
   46.5490   30.1030   47.2030 C   0  0  0  0  0  0  0  0  0  0  0  0
   45.0000   34.9590   44.3460 C   0  0  0  0  0  0  0  0  0  0  0  0
   45.8640   35.1480   43.2530 C   0  0  0  0  0  0  0  0  0  0  0  0
   47.0350   34.3440   43.1880 C   0  0  0  0  0  0  0  0  0  0  0  0
   47.2260   33.4520   44.1880 N   0  0  0  0  0  0  0  0  0  0  0  0
   46.3810   33.3010   45.2120 C   0  0  0  0  0  0  0  0  0  0  0  0
   45.2810   34.0550   45.2790 N   0  0  0  0  0  0  0  0  0  0  0  0
   43.8320   35.7570   44.4200 N   0  0  0  0  0  0  0  0  0  0  0  0
   45.6080   30.4190   44.6430 S   0  0  0  0  0  0  0  0  0  0  0  0
   46.6500   29.8760   43.7080 O   0  0  0  0  0  0  0  0  0  0  0  0
   44.6980   29.2460   44.9670 O   0  0  0  0  0  0  0  0  0  0  0  0
   47.4215   33.7745   47.6449 H   0  0  0  0  0  0  0  0  0  0  0  0
   47.8498   32.2375   49.4818 H   0  0  0  0  0  0  0  0  0  0  0  0
   47.2809   29.8188   49.2119 H   0  0  0  0  0  0  0  0  0  0  0  0
   46.2975   29.0393   47.0798 H   0  0  0  0  0  0  0  0  0  0  0  0
   45.6416   35.8926   42.4745 H   0  0  0  0  0  0  0  0  0  0  0  0
   47.7540   34.4426   42.3614 H   0  0  0  0  0  0  0  0  0  0  0  0
   43.6352   36.4512   43.6850 H   0  0  0  0  0  0  0  0  0  0  0  0
   43.1795   35.6430   45.2088 H   0  0  0  0  0  0  0  0  0  0  0  0
   44.9637   31.4762   44.0564 H   0  0  0  0  0  0  0  0  0  0  0  0
  1  2  2  0
  1  6  1  0
  2  3  1  0
  3  4  2  0
  5  4  1  0
  6  5  2  0
  7 13  1  0
  7 12  2  0
  8  7  1  0
  9  8  2  0
  9 10  1  0
 10 11  2  0
 11 12  1  0
 11  2  1  0
 14 16  2  0
 14  1  1  0
 15 14  2  0
  3 17  1  0
  4 18  1  0
  5 19  1  0
  6 20  1  0
  8 21  1  0
  9 22  1  0
 13 23  1  0
 13 24  1  0
 14 25  1  0
M  ISO  7  17  14  18  14  19  14  20  14  21  14  22  14  25  11
M  END
>  <minimizedAffinity>  (1) 
-4.74012852

>  <minimizedRMSD>  (1) 
2.04278445

$$$$
