
     RDKit          3D

 31 32  0  0  0  0  0  0  0  0999 V2000
   47.2830   31.5660   47.9430 O   0  0  0  0  0  0  0  0  0  0  0  0
   44.8490   30.6570   47.7580 O   0  0  0  0  0  0  0  0  0  0  0  0
   45.6920   31.8430   48.2990 P   0  0  1  0  0  0  0  0  0  0  0  0
   45.3920   31.8630   49.9530 O   0  0  0  0  0  0  0  0  0  0  0  0
   45.1150   33.2560   47.5770 O   0  0  0  0  0  0  0  0  0  0  0  0
   46.9680   33.2110   44.4500 C   0  0  0  0  0  0  0  0  0  0  0  0
   46.5370   32.8830   45.7440 C   0  0  0  0  0  0  0  0  0  0  0  0
   45.5110   33.6050   46.3040 C   0  0  0  0  0  0  0  0  0  0  0  0
   44.9570   34.6110   45.5720 N   0  0  0  0  0  0  0  0  0  0  0  0
   45.3780   34.9120   44.3380 C   0  0  0  0  0  0  0  0  0  0  0  0
   46.3770   34.2250   43.7710 N   0  0  0  0  0  0  0  0  0  0  0  0
   48.3670   31.2720   48.6880 C   0  0  0  0  0  0  0  0  0  0  0  0
   49.0160   32.3500   49.0660 O   0  0  0  0  0  0  0  0  0  0  0  0
   49.3180   28.9870   48.6050 C   0  0  0  0  0  0  0  0  0  0  0  0
   49.1800   30.1590   49.2850 C   0  0  0  0  0  0  0  0  0  0  0  0
   49.7750   30.2960   50.5510 C   0  0  0  0  0  0  0  0  0  0  0  0
   50.5090   29.3530   51.2150 C   0  0  0  0  0  0  0  0  0  0  0  0
   50.6500   28.1770   50.5360 C   0  0  0  0  0  0  0  0  0  0  0  0
   50.0790   28.0230   49.3020 C   0  0  0  0  0  0  0  0  0  0  0  0
   48.7030   28.5650   47.0470 S   0  0  0  0  0  0  0  0  0  0  0  0
   47.2110   28.3790   47.0330 O   0  0  0  0  0  0  0  0  0  0  0  0
   49.1980   29.4470   45.9250 O   0  0  0  0  0  0  0  0  0  0  0  0
   46.2494   31.8058   50.4446 H   0  0  0  0  0  0  0  0  0  0  0  0
   47.7878   32.6440   43.9848 H   0  0  0  0  0  0  0  0  0  0  0  0
   47.0123   32.0619   46.3007 H   0  0  0  0  0  0  0  0  0  0  0  0
   44.8982   35.7323   43.7840 H   0  0  0  0  0  0  0  0  0  0  0  0
   49.6357   31.2612   51.0598 H   0  0  0  0  0  0  0  0  0  0  0  0
   50.9474   29.5265   52.2088 H   0  0  0  0  0  0  0  0  0  0  0  0
   51.2240   27.3513   50.9819 H   0  0  0  0  0  0  0  0  0  0  0  0
   50.2273   27.0534   48.8042 H   0  0  0  0  0  0  0  0  0  0  0  0
   49.2425   27.3333   46.7849 H   0  0  0  0  0  0  0  0  0  0  0  0
  1  3  1  0
  1 12  1  0
  3  2  2  0
  3  4  1  0
  5  3  1  0
  6  7  2  0
  7  8  1  0
  8  5  1  0
  9  8  2  0
 10  9  1  0
 11 10  2  0
 11  6  1  0
 12 13  2  0
 12 15  1  0
 14 15  2  0
 14 19  1  0
 15 16  1  0
 16 17  2  0
 18 17  1  0
 19 18  2  0
 20 14  1  0
 21 20  2  0
 22 20  2  0
  4 23  1  0
  6 24  1  0
  7 25  1  0
 10 26  1  0
 16 27  1  0
 17 28  1  0
 18 29  1  0
 19 30  1  0
 20 31  1  0
M  ISO  8  23   3  24  14  25  14  26  14  27  14  28  14  29  14  30  14
M  ISO  1  31  11
M  END
>  <minimizedAffinity>  (1) 
-5.05181026

>  <minimizedRMSD>  (1) 
1.24272895

$$$$
