
     RDKit          3D

 43 45  0  0  0  0  0  0  0  0999 V2000
   46.5720   32.6990   46.5190 C   0  0  0  0  0  0  0  0  0  0  0  0
   44.5880   35.4720   44.9570 C   0  0  0  0  0  0  0  0  0  0  0  0
   45.1630   35.4880   43.6700 C   0  0  0  0  0  0  0  0  0  0  0  0
   46.1790   34.5650   43.4170 C   0  0  0  0  0  0  0  0  0  0  0  0
   46.5510   33.7110   44.4200 N   0  0  0  0  0  0  0  0  0  0  0  0
   45.9780   33.7320   45.6230 C   0  0  0  0  0  0  0  0  0  0  0  0
   44.9820   34.6140   45.9190 N   0  0  0  0  0  0  0  0  0  0  0  0
   46.7720   34.5660   42.1230 N   0  0  0  0  0  0  0  0  0  0  0  0
   47.9610   35.2010   41.9740 C   0  0  0  0  0  0  0  0  0  0  0  0
   48.5510   35.2070   40.7090 C   0  0  0  0  0  0  0  0  0  0  0  0
   47.9020   34.5760   39.6990 C   0  0  0  0  0  0  0  0  0  0  0  0
   48.4450   34.5820   38.5350 O   0  0  0  0  0  0  0  0  0  0  0  0
   46.7170   33.9380   39.8270 N   0  0  0  0  0  0  0  0  0  0  0  0
   46.1970   33.9680   41.0780 C   0  0  0  0  0  0  0  0  0  0  0  0
   45.1050   33.4100   41.3130 O   0  0  0  0  0  0  0  0  0  0  0  0
   45.6030   32.2980   47.6120 C   0  0  0  0  0  0  0  0  0  0  0  0
   45.5010   29.8860   47.4170 C   0  0  0  0  0  0  0  0  0  0  0  0
   46.7000   29.8630   47.8120 O   0  0  0  0  0  0  0  0  0  0  0  0
   44.8780   31.1210   47.2240 N   0  0  0  0  0  0  0  0  0  0  0  0
   44.3680   28.0580   46.0340 C   0  0  0  0  0  0  0  0  0  0  0  0
   44.8770   28.5870   47.2000 C   0  0  0  0  0  0  0  0  0  0  0  0
   44.8260   27.8420   48.3850 C   0  0  0  0  0  0  0  0  0  0  0  0
   44.2650   26.5710   48.3870 C   0  0  0  0  0  0  0  0  0  0  0  0
   43.7620   26.0580   47.2100 C   0  0  0  0  0  0  0  0  0  0  0  0
   43.8100   26.7970   46.0230 C   0  0  0  0  0  0  0  0  0  0  0  0
   44.5030   29.1050   44.6360 S   0  0  0  0  0  0  0  0  0  0  0  0
   43.1470   29.0400   43.9520 O   0  0  0  0  0  0  0  0  0  0  0  0
   45.4970   28.5880   43.6460 O   0  0  0  0  0  0  0  0  0  0  0  0
   47.4842   33.1057   46.9799 H   0  0  0  0  0  0  0  0  0  0  0  0
   46.8051   31.8085   45.9168 H   0  0  0  0  0  0  0  0  0  0  0  0
   43.7854   36.1887   45.1854 H   0  0  0  0  0  0  0  0  0  0  0  0
   44.8259   36.1966   42.8992 H   0  0  0  0  0  0  0  0  0  0  0  0
   48.4471   35.6977   42.8266 H   0  0  0  0  0  0  0  0  0  0  0  0
   49.5144   35.7090   40.5363 H   0  0  0  0  0  0  0  0  0  0  0  0
   46.2484   33.4682   39.0392 H   0  0  0  0  0  0  0  0  0  0  0  0
   46.1627   32.0919   48.5363 H   0  0  0  0  0  0  0  0  0  0  0  0
   44.8909   33.1194   47.7797 H   0  0  0  0  0  0  0  0  0  0  0  0
   43.9334   31.1851   46.8183 H   0  0  0  0  0  0  0  0  0  0  0  0
   45.2311   28.2643   49.3164 H   0  0  0  0  0  0  0  0  0  0  0  0
   44.2226   25.9818   49.3150 H   0  0  0  0  0  0  0  0  0  0  0  0
   43.3162   25.0524   47.2043 H   0  0  0  0  0  0  0  0  0  0  0  0
   43.4066   26.3763   45.0901 H   0  0  0  0  0  0  0  0  0  0  0  0
   44.8894   30.3574   45.0348 H   0  0  0  0  0  0  0  0  0  0  0  0
  1 16  1  0
  2  7  2  0
  3  2  1  0
  4  3  2  0
  4  5  1  0
  5  6  2  0
  6  7  1  0
  6  1  1  0
  8  4  1  0
  9  8  1  0
 10  9  2  0
 11 13  1  0
 11 10  1  0
 12 11  2  0
 13 14  1  0
 14 15  2  0
 14  8  1  0
 17 18  2  0
 19 17  1  0
 19 16  1  0
 20 21  2  0
 21 17  1  0
 21 22  1  0
 22 23  2  0
 24 23  1  0
 25 20  1  0
 25 24  2  0
 26 20  1  0
 27 26  2  0
 28 26  2  0
  1 29  1  0
  1 30  1  0
  2 31  1  0
  3 32  1  0
  9 33  1  0
 10 34  1  0
 13 35  1  0
 16 36  1  0
 16 37  1  0
 19 38  1  0
 22 39  1  0
 23 40  1  0
 24 41  1  0
 25 42  1  0
 26 43  1  0
M  ISO  8  29   8  30   8  31  14  32  14  33  14  34  14  35   9  36   8
M  ISO  6  37   8  39  14  40  14  41  14  42  14  43  11
M  END
>  <minimizedAffinity>  (1) 
-6.31846046

>  <minimizedRMSD>  (1) 
2.20703411

$$$$
