
     RDKit          3D

 34 35  0  0  0  0  0  0  0  0999 V2000
   48.2600   32.9430   41.4630 O   0  0  0  0  0  0  0  0  0  0  0  0
   47.2200   34.0590   41.1700 P   0  0  2  0  0  0  0  0  0  0  0  0
   45.7230   33.6080   41.8810 O   0  0  0  0  0  0  0  0  0  0  0  0
   44.4040   35.8380   44.4360 C   0  0  0  0  0  0  0  0  0  0  0  0
   44.7260   35.3080   43.1670 C   0  0  0  0  0  0  0  0  0  0  0  0
   45.4250   34.0910   43.1370 C   0  0  0  0  0  0  0  0  0  0  0  0
   45.7510   33.4970   44.3020 N   0  0  0  0  0  0  0  0  0  0  0  0
   45.4280   34.0310   45.5020 C   0  0  0  0  0  0  0  0  0  0  0  0
   44.7600   35.1910   45.5820 N   0  0  0  0  0  0  0  0  0  0  0  0
   47.0180   34.1830   39.5320 O   0  0  0  0  0  0  0  0  0  0  0  0
   47.7410   33.6410   38.5160 C   0  0  0  0  0  0  0  0  0  0  0  0
   48.2180   34.4890   37.5770 O   0  0  0  0  0  0  0  0  0  0  0  0
   47.5540   31.6050   37.1360 C   0  0  0  0  0  0  0  0  0  0  0  0
   48.3190   32.4310   37.8940 C   0  0  0  0  0  0  0  0  0  0  0  0
   49.6760   32.1360   37.9960 C   0  0  0  0  0  0  0  0  0  0  0  0
   50.4040   31.1200   37.4450 C   0  0  0  0  0  0  0  0  0  0  0  0
   49.6370   30.2860   36.6790 C   0  0  0  0  0  0  0  0  0  0  0  0
   48.2980   30.5550   36.5630 C   0  0  0  0  0  0  0  0  0  0  0  0
   45.8650   31.6520   36.8360 S   0  0  0  0  0  0  0  0  0  0  0  0
   44.9830   31.5900   38.0560 O   0  0  0  0  0  0  0  0  0  0  0  0
   45.5200   32.8290   35.9710 O   0  0  0  0  0  0  0  0  0  0  0  0
   47.7730   35.4280   41.9160 O   0  0  0  0  0  0  0  0  0  0  0  0
   49.0390   35.7950   41.4880 C   0  0  0  0  0  0  0  0  0  0  0  0
   49.4300   37.0280   41.9820 F   0  0  0  0  0  0  0  0  0  0  0  0
   49.9360   34.8110   41.7530 F   0  0  0  0  0  0  0  0  0  0  0  0
   48.9520   35.9410   40.1060 F   0  0  0  0  0  0  0  0  0  0  0  0
   43.8562   36.7897   44.5008 H   0  0  0  0  0  0  0  0  0  0  0  0
   44.4408   35.8275   42.2403 H   0  0  0  0  0  0  0  0  0  0  0  0
   45.7172   33.5067   46.4247 H   0  0  0  0  0  0  0  0  0  0  0  0
   50.2545   32.8328   38.6204 H   0  0  0  0  0  0  0  0  0  0  0  0
   51.4850   30.9876   37.5999 H   0  0  0  0  0  0  0  0  0  0  0  0
   50.0839   29.4203   36.1684 H   0  0  0  0  0  0  0  0  0  0  0  0
   47.7259   29.8549   35.9365 H   0  0  0  0  0  0  0  0  0  0  0  0
   45.5898   30.4862   36.1711 H   0  0  0  0  0  0  0  0  0  0  0  0
  2  1  2  0
  2  3  1  0
  2 22  1  0
  3  6  1  0
  4  9  2  0
  5  4  1  0
  6  5  2  0
  6  7  1  0
  7  8  2  0
  8  9  1  0
 10  2  1  0
 11 10  1  0
 12 11  2  0
 13 14  2  0
 14 15  1  0
 14 11  1  0
 16 15  2  0
 17 16  1  0
 18 17  2  0
 18 13  1  0
 19 13  1  0
 19 20  2  0
 21 19  2  0
 23 25  1  0
 23 22  1  0
 23 24  1  0
 26 23  1  0
  4 27  1  0
  5 28  1  0
  8 29  1  0
 15 30  1  0
 16 31  1  0
 17 32  1  0
 18 33  1  0
 19 34  1  0
M  ISO  8  27  14  28  14  29  14  30  14  31  14  32  14  33  14  34  11
M  END
>  <minimizedAffinity>  (1) 
-5.28043175

>  <minimizedRMSD>  (1) 
2.01712227

$$$$
