
     RDKit          3D

 37 39  0  0  1  0  0  0  0  0999 V2000
   47.6750   34.0240   42.4540 N   0  0  0  0  0  0  0  0  0  0  0  0
   48.2090   34.4980   41.1930 C   0  0  0  0  0  0  0  0  0  0  0  0
   48.2950   33.1560   40.4850 C   0  0  2  0  0  0  0  0  0  0  0  0
   49.0430   32.3570   41.4990 C   0  0  0  0  0  0  0  0  0  0  0  0
   48.4620   32.8440   42.8140 C   0  0  0  0  0  0  0  0  0  0  0  0
   44.8240   35.9940   43.8040 C   0  0  0  0  0  0  0  0  0  0  0  0
   45.8280   35.6020   42.9390 C   0  0  0  0  0  0  0  0  0  0  0  0
   46.6280   34.5100   43.2550 C   0  0  0  0  0  0  0  0  0  0  0  0
   46.3690   33.8700   44.4380 N   0  0  0  0  0  0  0  0  0  0  0  0
   45.3920   34.2510   45.2810 C   0  0  0  0  0  0  0  0  0  0  0  0
   44.6150   35.3240   44.9570 N   0  0  0  0  0  0  0  0  0  0  0  0
   49.1330   33.2630   39.3160 N   0  0  0  0  0  0  0  0  0  0  0  0
   48.2440   33.5340   37.8770 S   0  0  0  0  0  0  0  0  0  0  0  0
   48.3840   34.9340   37.3700 O   0  0  0  0  0  0  0  0  0  0  0  0
   46.7820   33.3750   38.2250 O   0  0  0  0  0  0  0  0  0  0  0  0
   48.5950   32.3650   36.6220 C   0  0  0  0  0  0  0  0  0  0  0  0
   48.5760   32.6870   35.2820 C   0  0  0  0  0  0  0  0  0  0  0  0
   48.8490   31.7770   34.2710 C   0  0  0  0  0  0  0  0  0  0  0  0
   49.1550   30.4880   34.6630 C   0  0  0  0  0  0  0  0  0  0  0  0
   49.1990   30.0730   35.9840 C   0  0  0  0  0  0  0  0  0  0  0  0
   48.9110   31.0530   36.9120 C   0  0  0  0  0  0  0  0  0  0  0  0
   47.5249   35.1941   40.6857 H   0  0  0  0  0  0  0  0  0  0  0  0
   49.1434   35.0756   41.2499 H   0  0  0  0  0  0  0  0  0  0  0  0
   47.3211   32.7556   40.1669 H   0  0  0  0  0  0  0  0  0  0  0  0
   48.8654   31.2800   41.3631 H   0  0  0  0  0  0  0  0  0  0  0  0
   50.1335   32.4850   41.4331 H   0  0  0  0  0  0  0  0  0  0  0  0
   49.2640   33.1117   43.5177 H   0  0  0  0  0  0  0  0  0  0  0  0
   47.8556   32.0740   43.3133 H   0  0  0  0  0  0  0  0  0  0  0  0
   44.1912   36.8575   43.5513 H   0  0  0  0  0  0  0  0  0  0  0  0
   45.9939   36.1534   42.0017 H   0  0  0  0  0  0  0  0  0  0  0  0
   45.2220   33.7038   46.2200 H   0  0  0  0  0  0  0  0  0  0  0  0
   49.7860   34.0481   39.4511 H   0  0  0  0  0  0  0  0  0  0  0  0
   48.3312   33.7214   34.9989 H   0  0  0  0  0  0  0  0  0  0  0  0
   48.8231   32.0673   33.2103 H   0  0  0  0  0  0  0  0  0  0  0  0
   49.3767   29.7477   33.8802 H   0  0  0  0  0  0  0  0  0  0  0  0
   49.4450   29.0401   36.2716 H   0  0  0  0  0  0  0  0  0  0  0  0
   48.9353   30.7640   37.9731 H   0  0  0  0  0  0  0  0  0  0  0  0
  1  5  1  0
  1  8  1  0
  2  1  1  0
  3  2  1  0
  3  4  1  0
  4  5  1  0
  6 11  2  0
  7  8  2  0
  7  6  1  0
  8  9  1  0
  9 10  2  0
 11 10  1  0
 12  3  1  0
 13 15  2  0
 13 12  1  0
 14 13  2  0
 16 21  1  0
 16 13  1  0
 17 16  2  0
 18 19  2  0
 18 17  1  0
 19 20  1  0
 20 21  2  0
  2 22  1  0
  2 23  1  0
  3 24  1  6
  4 25  1  0
  4 26  1  0
  5 27  1  0
  5 28  1  0
  6 29  1  0
  7 30  1  0
 10 31  1  0
 12 32  1  0
 17 33  1  0
 18 34  1  0
 19 35  1  0
 20 36  1  0
 21 37  1  0
M  ISO  8  22  13  23  13  24  13  25  13  26  13  27  13  28  13  29  14
M  ISO  8  30  14  31  14  32   5  33  14  34  14  35  14  36  14  37  14
M  END
>  <minimizedAffinity>  (1) 
-4.79628325

>  <minimizedRMSD>  (1) 
1.75948727

$$$$
