
     RDKit          3D

 50 53  0  0  0  0  0  0  0  0999 V2000
   41.9520   34.5290   39.6350 C   0  0  0  0  0  0  0  0  0  0  0  0
   41.3430   34.4730   38.4020 C   0  0  0  0  0  0  0  0  0  0  0  0
   40.2230   33.7230   38.0760 C   0  0  0  0  0  0  0  0  0  0  0  0
   39.7020   32.9790   39.1040 C   0  0  0  0  0  0  0  0  0  0  0  0
   40.3060   33.0320   40.3330 C   0  0  0  0  0  0  0  0  0  0  0  0
   41.3880   33.7690   40.6130 N   0  0  0  0  0  0  0  0  0  0  0  0
   39.6580   32.1850   41.3740 C   0  0  0  0  0  0  0  0  0  0  0  0
   38.2650   32.3330   41.2860 F   0  0  0  0  0  0  0  0  0  0  0  0
   40.1250   32.4310   42.6410 F   0  0  0  0  0  0  0  0  0  0  0  0
   39.8960   30.8490   41.1070 F   0  0  0  0  0  0  0  0  0  0  0  0
   43.1080   35.2810   40.0420 C   0  0  0  0  0  0  0  0  0  0  0  0
   43.2650   35.5130   41.5060 C   0  0  0  0  0  0  0  0  0  0  0  0
   46.5360   33.8840   42.1040 C   0  0  0  0  0  0  0  0  0  0  0  0
   46.7590   34.3170   43.3690 C   0  0  0  0  0  0  0  0  0  0  0  0
   45.2620   35.3260   43.6890 S   0  0  0  0  0  0  0  0  0  0  0  0
   44.5670   34.9800   42.0050 C   0  0  0  0  0  0  0  0  0  0  0  0
   45.4110   34.3230   41.6260 N   0  0  0  0  0  0  0  0  0  0  0  0
   49.1640   32.6150   39.7420 C   0  0  0  0  0  0  0  0  0  0  0  0
   48.3220   33.5100   40.4060 C   0  0  0  0  0  0  0  0  0  0  0  0
   47.4610   33.0150   41.3530 C   0  0  0  0  0  0  0  0  0  0  0  0
   47.4910   31.6440   41.5810 N   0  0  0  0  0  0  0  0  0  0  0  0
   48.3240   30.8330   40.9120 C   0  0  0  0  0  0  0  0  0  0  0  0
   49.1630   31.3120   39.9910 N   0  0  0  0  0  0  0  0  0  0  0  0
   48.4100   34.8860   40.0590 N   0  0  0  0  0  0  0  0  0  0  0  0
   38.2520   31.9750   38.7760 S   0  0  0  0  0  0  0  0  0  0  0  0
   38.0790   29.3440   38.4850 C   0  0  0  0  0  0  0  0  0  0  0  0
   38.6220   30.4830   37.9110 C   0  0  0  0  0  0  0  0  0  0  0  0
   39.3660   30.3240   36.7660 C   0  0  0  0  0  0  0  0  0  0  0  0
   39.5650   29.0800   36.2070 C   0  0  0  0  0  0  0  0  0  0  0  0
   39.0350   27.9330   36.7600 C   0  0  0  0  0  0  0  0  0  0  0  0
   38.2890   28.0950   37.9100 C   0  0  0  0  0  0  0  0  0  0  0  0
   37.1000   29.3630   39.9540 S   0  0  0  0  0  0  0  0  0  0  0  0
   37.7780   28.4950   40.9890 O   0  0  0  0  0  0  0  0  0  0  0  0
   35.7580   28.7700   39.7180 O   0  0  0  0  0  0  0  0  0  0  0  0
   41.7865   35.0805   37.5994 H   0  0  0  0  0  0  0  0  0  0  0  0
   39.7846   33.7246   37.0671 H   0  0  0  0  0  0  0  0  0  0  0  0
   43.9995   34.7406   39.6911 H   0  0  0  0  0  0  0  0  0  0  0  0
   42.9779   36.2798   39.5998 H   0  0  0  0  0  0  0  0  0  0  0  0
   43.2214   36.5942   41.7038 H   0  0  0  0  0  0  0  0  0  0  0  0
   42.4524   34.9876   42.0290 H   0  0  0  0  0  0  0  0  0  0  0  0
   47.6144   34.1157   44.0306 H   0  0  0  0  0  0  0  0  0  0  0  0
   49.8560   33.0065   38.9818 H   0  0  0  0  0  0  0  0  0  0  0  0
   48.3155   29.7541   41.1262 H   0  0  0  0  0  0  0  0  0  0  0  0
   47.8047   35.5751   40.5277 H   0  0  0  0  0  0  0  0  0  0  0  0
   49.0791   35.1938   39.3389 H   0  0  0  0  0  0  0  0  0  0  0  0
   39.8117   31.2078   36.2861 H   0  0  0  0  0  0  0  0  0  0  0  0
   40.1664   28.9993   35.2895 H   0  0  0  0  0  0  0  0  0  0  0  0
   39.1979   26.9430   36.3091 H   0  0  0  0  0  0  0  0  0  0  0  0
   37.8465   27.2081   38.3870 H   0  0  0  0  0  0  0  0  0  0  0  0
   36.9676   30.6651   40.3590 H   0  0  0  0  0  0  0  0  0  0  0  0
  1 11  1  0
  1  6  1  0
  2  1  2  0
  3  2  1  0
  3  4  2  0
  4  5  1  0
  5  6  2  0
  5  7  1  0
  7  9  1  0
  8  7  1  0
 10  7  1  0
 11 12  1  0
 12 16  1  0
 13 14  2  0
 14 15  1  0
 16 15  1  0
 17 16  2  0
 17 13  1  0
 18 23  2  0
 18 19  1  0
 19 20  2  0
 20 21  1  0
 20 13  1  0
 22 21  2  0
 23 22  1  0
 24 19  1  0
 25  4  1  0
 26 32  1  0
 27 26  2  0
 27 25  1  0
 28 27  1  0
 29 30  1  0
 29 28  2  0
 30 31  2  0
 31 26  1  0
 32 33  2  0
 34 32  2  0
  2 35  1  0
  3 36  1  0
 11 37  1  0
 11 38  1  0
 12 39  1  0
 12 40  1  0
 14 41  1  0
 18 42  1  0
 22 43  1  0
 24 44  1  0
 24 45  1  0
 28 46  1  0
 29 47  1  0
 30 48  1  0
 31 49  1  0
 32 50  1  0
M  ISO  8  35  14  36  14  37   8  38   8  39   8  40   8  41  14  42  14
M  ISO  6  43  14  46  14  47  14  48  14  49  14  50  11
M  END
>  <minimizedAffinity>  (1) 
-5.65708208

>  <minimizedRMSD>  (1) 
1.3736285

$$$$
