
     RDKit          3D

 38 41  0  0  0  0  0  0  0  0999 V2000
   47.6760   33.5660   38.1840 C   0  0  0  0  0  0  0  0  0  0  0  0
   48.6740   34.1120   37.3260 C   0  0  0  0  0  0  0  0  0  0  0  0
   48.7640   33.5100   36.1050 C   0  0  0  0  0  0  0  0  0  0  0  0
   47.9750   32.4860   35.7420 C   0  0  0  0  0  0  0  0  0  0  0  0
   46.8960   32.2650   37.3140 S   0  0  0  0  0  0  0  0  0  0  0  0
   47.8130   31.6820   34.6220 N   0  0  0  0  0  0  0  0  0  0  0  0
   47.1930   30.4880   34.4770 C   0  0  0  0  0  0  0  0  0  0  0  0
   47.3160   30.1220   33.1730 N   0  0  0  0  0  0  0  0  0  0  0  0
   48.0040   31.0700   32.5120 C   0  0  0  0  0  0  0  0  0  0  0  0
   48.3500   31.0930   31.1770 C   0  0  0  0  0  0  0  0  0  0  0  0
   49.0450   32.1680   30.7610 N   0  0  0  0  0  0  0  0  0  0  0  0
   49.3720   33.1570   31.6280 C   0  0  0  0  0  0  0  0  0  0  0  0
   49.0070   33.0820   32.9230 N   0  0  0  0  0  0  0  0  0  0  0  0
   48.3150   32.0430   33.4050 C   0  0  0  0  0  0  0  0  0  0  0  0
   48.0450   30.1000   30.2130 N   0  0  0  0  0  0  0  0  0  0  0  0
   47.3530   34.0130   39.5540 C   0  0  0  0  0  0  0  0  0  0  0  0
   46.2200   33.4560   39.8420 O   0  0  0  0  0  0  0  0  0  0  0  0
   47.8210   34.7760   40.5650 O   0  0  0  0  0  0  0  0  0  0  0  0
   49.4180   35.4550   42.4630 O   0  0  0  0  0  0  0  0  0  0  0  0
   48.7370   34.2700   41.8570 P   0  0  2  0  0  0  0  0  0  0  0  0
   49.9290   33.2330   41.2970 O   0  0  0  0  0  0  0  0  0  0  0  0
   47.7400   33.5020   43.0280 O   0  0  0  0  0  0  0  0  0  0  0  0
   46.1240   35.2470   42.9370 C   0  0  0  0  0  0  0  0  0  0  0  0
   46.6810   34.1780   43.6220 C   0  0  0  0  0  0  0  0  0  0  0  0
   46.1560   33.8310   44.8760 C   0  0  0  0  0  0  0  0  0  0  0  0
   45.1140   34.5750   45.3510 N   0  0  0  0  0  0  0  0  0  0  0  0
   44.5950   35.6060   44.6630 C   0  0  0  0  0  0  0  0  0  0  0  0
   45.0950   35.9390   43.4650 N   0  0  0  0  0  0  0  0  0  0  0  0
   49.3198   34.9511   37.6240 H   0  0  0  0  0  0  0  0  0  0  0  0
   49.5133   33.8785   35.3889 H   0  0  0  0  0  0  0  0  0  0  0  0
   46.6834   29.9184   35.2681 H   0  0  0  0  0  0  0  0  0  0  0  0
   49.9404   34.0287   31.2714 H   0  0  0  0  0  0  0  0  0  0  0  0
   48.3533   30.2176   29.2373 H   0  0  0  0  0  0  0  0  0  0  0  0
   47.5151   29.2607   30.4881 H   0  0  0  0  0  0  0  0  0  0  0  0
   50.3989   32.8242   42.0665 H   0  0  0  0  0  0  0  0  0  0  0  0
   46.5256   35.5330   41.9536 H   0  0  0  0  0  0  0  0  0  0  0  0
   46.5682   32.9913   45.4547 H   0  0  0  0  0  0  0  0  0  0  0  0
   43.7562   36.1791   45.0849 H   0  0  0  0  0  0  0  0  0  0  0  0
  1 16  1  0
  2  1  2  0
  3  2  1  0
  4  3  2  0
  4  5  1  0
  5  1  1  0
  6  4  1  0
  7  6  1  0
  8  7  2  0
  9  8  1  0
  9 14  2  0
 10  9  1  0
 11 10  2  0
 11 12  1  0
 12 13  2  0
 13 14  1  0
 14  6  1  0
 15 10  1  0
 16 17  2  0
 16 18  1  0
 18 20  1  0
 20 19  2  0
 20 22  1  0
 21 20  1  0
 22 24  1  0
 23 28  2  0
 23 24  1  0
 24 25  2  0
 25 26  1  0
 27 26  2  0
 28 27  1  0
  2 29  1  0
  3 30  1  0
  7 31  1  0
 12 32  1  0
 15 33  1  0
 15 34  1  0
 21 35  1  0
 23 36  1  0
 25 37  1  0
 27 38  1  0
M  ISO  8  29  14  30  14  31  14  32  14  35   3  36  14  37  14  38  14
M  END
>  <minimizedAffinity>  (1) 
-6.30456018

>  <minimizedRMSD>  (1) 
1.23026896

$$$$
