
     RDKit          3D

 48 52  0  0  1  0  0  0  0  0999 V2000
   42.9100   33.9360   39.2990 C   0  0  1  0  0  0  0  0  0  0  0  0
   43.1790   34.9960   40.3710 C   0  0  1  0  0  0  0  0  0  0  0  0
   41.9730   35.6520   40.6760 O   0  0  0  0  0  0  0  0  0  0  0  0
   41.1320   35.7900   39.5770 C   0  0  0  0  0  0  0  0  0  0  0  0
   40.5710   34.4510   39.1340 C   0  0  2  0  0  0  0  0  0  0  0  0
   41.5390   33.3640   39.6460 C   0  0  1  0  0  0  0  0  0  0  0  0
   42.8790   34.5210   38.0340 O   0  0  0  0  0  0  0  0  0  0  0  0
   40.6630   34.3630   37.7410 O   0  0  0  0  0  0  0  0  0  0  0  0
   43.4950   34.2870   41.5380 O   0  0  0  0  0  0  0  0  0  0  0  0
   44.6800   34.2990   42.1530 C   0  0  0  0  0  0  0  0  0  0  0  0
   45.8590   34.5020   41.4400 C   0  0  0  0  0  0  0  0  0  0  0  0
   47.0580   34.5060   42.1340 C   0  0  0  0  0  0  0  0  0  0  0  0
   47.0650   34.3110   43.5030 N   0  0  0  0  0  0  0  0  0  0  0  0
   45.9110   34.1190   44.1510 C   0  0  0  0  0  0  0  0  0  0  0  0
   44.7230   34.1110   43.4930 N   0  0  0  0  0  0  0  0  0  0  0  0
   48.3630   34.7130   41.3970 C   0  0  0  0  0  0  0  0  0  0  0  0
   49.0570   36.0430   41.5730 C   0  0  0  0  0  0  0  0  0  0  0  0
   49.6030   34.7150   42.1290 C   0  0  0  0  0  0  0  0  0  0  0  0
   41.2780   32.1560   39.0410 O   0  0  0  0  0  0  0  0  0  0  0  0
   39.9350   30.4460   38.3210 N   0  0  0  0  0  0  0  0  0  0  0  0
   40.1360   31.4050   39.2700 C   0  0  0  0  0  0  0  0  0  0  0  0
   39.1220   31.3020   40.1480 N   0  0  0  0  0  0  0  0  0  0  0  0
   38.2950   30.3140   39.7830 C   0  0  0  0  0  0  0  0  0  0  0  0
   37.1460   29.8890   40.4080 C   0  0  0  0  0  0  0  0  0  0  0  0
   36.4700   28.8800   39.8690 N   0  0  0  0  0  0  0  0  0  0  0  0
   36.9430   28.3200   38.7330 C   0  0  0  0  0  0  0  0  0  0  0  0
   38.0630   28.7490   38.1400 N   0  0  0  0  0  0  0  0  0  0  0  0
   38.8050   29.7620   38.6190 C   0  0  0  0  0  0  0  0  0  0  0  0
   36.6610   30.4790   41.5930 N   0  0  0  0  0  0  0  0  0  0  0  0
   43.6921   33.1628   39.2779 H   0  0  0  0  0  0  0  0  0  0  0  0
   43.9554   35.6992   40.0351 H   0  0  0  0  0  0  0  0  0  0  0  0
   40.2984   36.4553   39.8462 H   0  0  0  0  0  0  0  0  0  0  0  0
   41.7166   36.2112   38.7459 H   0  0  0  0  0  0  0  0  0  0  0  0
   39.5382   34.3395   39.4957 H   0  0  0  0  0  0  0  0  0  0  0  0
   41.4511   33.1472   40.7208 H   0  0  0  0  0  0  0  0  0  0  0  0
   42.8268   35.5053   38.1268 H   0  0  0  0  0  0  0  0  0  0  0  0
   41.3564   33.6997   37.4973 H   0  0  0  0  0  0  0  0  0  0  0  0
   45.8387   34.6556   40.3510 H   0  0  0  0  0  0  0  0  0  0  0  0
   45.9243   33.9643   45.2400 H   0  0  0  0  0  0  0  0  0  0  0  0
   48.0068   34.1337   40.5324 H   0  0  0  0  0  0  0  0  0  0  0  0
   49.5464   36.5364   40.7203 H   0  0  0  0  0  0  0  0  0  0  0  0
   48.7972   37.0320   41.9784 H   0  0  0  0  0  0  0  0  0  0  0  0
   49.5990   34.5324   43.2137 H   0  0  0  0  0  0  0  0  0  0  0  0
   50.5553   34.1721   42.0379 H   0  0  0  0  0  0  0  0  0  0  0  0
   40.5441   30.2706   37.5092 H   0  0  0  0  0  0  0  0  0  0  0  0
   36.3887   27.4841   38.2813 H   0  0  0  0  0  0  0  0  0  0  0  0
   35.7953   30.1275   42.0264 H   0  0  0  0  0  0  0  0  0  0  0  0
   37.1724   31.2616   42.0254 H   0  0  0  0  0  0  0  0  0  0  0  0
  1  6  1  0
  1  2  1  0
  2  3  1  0
  2  9  1  0
  4  3  1  0
  5  4  1  0
  5  6  1  0
  7  1  1  0
  8  5  1  0
  9 10  1  0
 10 15  2  0
 11 12  2  0
 11 10  1  0
 12 13  1  0
 13 14  2  0
 15 14  1  0
 16 17  1  0
 16 18  1  0
 16 12  1  0
 17 18  1  0
 19 21  1  0
 19  6  1  0
 20 28  1  0
 20 21  1  0
 21 22  2  0
 23 22  1  0
 23 24  2  0
 24 29  1  0
 25 24  1  0
 26 25  2  0
 27 28  2  0
 27 26  1  0
 28 23  1  0
  1 30  1  6
  2 31  1  6
  4 32  1  0
  4 33  1  0
  5 34  1  6
  6 35  1  1
  7 36  1  0
  8 37  1  0
 11 38  1  0
 14 39  1  0
 16 40  1  0
 17 41  1  0
 17 42  1  0
 18 43  1  0
 18 44  1  0
 20 45  1  0
 26 46  1  0
 29 47  1  0
 29 48  1  0
M  ISO  8  30  13  31  13  32  13  33  13  34  13  35  13  36   3  37   3
M  ISO  8  38  14  39  14  40  13  41  13  42  13  43  13  44  13  45   9
M  ISO  1  46  14
M  END
>  <minimizedAffinity>  (1) 
-6.9298954

>  <minimizedRMSD>  (1) 
2.58874989

$$$$
