
     RDKit          3D

 50 55  0  0  0  0  0  0  0  0999 V2000
   45.4940   27.8790   47.9980 C   0  0  0  0  0  0  0  0  0  0  0  0
   45.1810   29.2210   47.9150 C   0  0  0  0  0  0  0  0  0  0  0  0
   44.3050   29.5870   46.8890 C   0  0  0  0  0  0  0  0  0  0  0  0
   43.7840   28.6620   46.0130 C   0  0  0  0  0  0  0  0  0  0  0  0
   42.9410   28.7180   44.9570 N   0  0  0  0  0  0  0  0  0  0  0  0
   42.7520   27.5010   44.4330 C   0  0  0  0  0  0  0  0  0  0  0  0
   43.4870   26.5820   45.1510 C   0  0  0  0  0  0  0  0  0  0  0  0
   44.1060   27.3360   46.1120 C   0  0  0  0  0  0  0  0  0  0  0  0
   44.9730   26.9690   47.1240 C   0  0  0  0  0  0  0  0  0  0  0  0
   45.3460   25.6060   47.2790 N   0  0  0  0  0  0  0  0  0  0  0  0
   44.8410   24.8440   48.2560 C   0  0  0  0  0  0  0  0  0  0  0  0
   45.3570   23.6010   48.1790 N   0  0  0  0  0  0  0  0  0  0  0  0
   46.2060   23.5690   47.1360 C   0  0  0  0  0  0  0  0  0  0  0  0
   47.0320   22.6120   46.5410 C   0  0  0  0  0  0  0  0  0  0  0  0
   47.7790   22.9340   45.4640 N   0  0  0  0  0  0  0  0  0  0  0  0
   47.7450   24.1880   44.9360 C   0  0  0  0  0  0  0  0  0  0  0  0
   46.9480   25.1460   45.4920 N   0  0  0  0  0  0  0  0  0  0  0  0
   46.1970   24.8470   46.5640 C   0  0  0  0  0  0  0  0  0  0  0  0
   46.9820   21.3560   47.1770 N   0  0  0  0  0  0  0  0  0  0  0  0
   45.6160   30.3460   48.7290 C   0  0  0  0  0  0  0  0  0  0  0  0
   46.9320   30.9450   48.4140 C   0  0  0  0  0  0  0  0  0  0  0  0
   46.4240   32.9760   45.5150 C   0  0  0  0  0  0  0  0  0  0  0  0
   47.2260   31.9270   44.9970 C   0  0  0  0  0  0  0  0  0  0  0  0
   47.5080   31.0570   46.0000 C   0  0  0  0  0  0  0  0  0  0  0  0
   46.9040   31.5500   47.0890 N   0  0  0  0  0  0  0  0  0  0  0  0
   46.2620   32.6880   46.8010 N   0  0  0  0  0  0  0  0  0  0  0  0
   44.4980   35.9070   44.5210 C   0  0  0  0  0  0  0  0  0  0  0  0
   44.9880   36.1990   43.2590 C   0  0  0  0  0  0  0  0  0  0  0  0
   46.0000   35.3720   42.7400 C   0  0  0  0  0  0  0  0  0  0  0  0
   46.4250   34.3480   43.5110 N   0  0  0  0  0  0  0  0  0  0  0  0
   45.9320   34.0860   44.7350 C   0  0  0  0  0  0  0  0  0  0  0  0
   44.9630   34.8710   45.2390 N   0  0  0  0  0  0  0  0  0  0  0  0
   46.1792   27.5350   48.7868 H   0  0  0  0  0  0  0  0  0  0  0  0
   44.0239   30.6447   46.7785 H   0  0  0  0  0  0  0  0  0  0  0  0
   42.5034   29.5809   44.6036 H   0  0  0  0  0  0  0  0  0  0  0  0
   42.1126   27.2710   43.5680 H   0  0  0  0  0  0  0  0  0  0  0  0
   43.5594   25.4963   44.9896 H   0  0  0  0  0  0  0  0  0  0  0  0
   44.1137   25.1813   49.0092 H   0  0  0  0  0  0  0  0  0  0  0  0
   48.3621   24.4300   44.0581 H   0  0  0  0  0  0  0  0  0  0  0  0
   47.5521   20.5755   46.8211 H   0  0  0  0  0  0  0  0  0  0  0  0
   46.3753   21.2182   47.9979 H   0  0  0  0  0  0  0  0  0  0  0  0
   44.8599   31.1385   48.6279 H   0  0  0  0  0  0  0  0  0  0  0  0
   45.7297   29.9332   49.7422 H   0  0  0  0  0  0  0  0  0  0  0  0
   47.1683   31.7169   49.1612 H   0  0  0  0  0  0  0  0  0  0  0  0
   47.6994   30.1571   48.4332 H   0  0  0  0  0  0  0  0  0  0  0  0
   47.5638   31.8339   43.9543 H   0  0  0  0  0  0  0  0  0  0  0  0
   48.1082   30.1376   45.9324 H   0  0  0  0  0  0  0  0  0  0  0  0
   43.7063   36.5407   44.9472 H   0  0  0  0  0  0  0  0  0  0  0  0
   44.5982   37.0502   42.6814 H   0  0  0  0  0  0  0  0  0  0  0  0
   46.4293   35.5524   41.7434 H   0  0  0  0  0  0  0  0  0  0  0  0
  2  1  2  0
  2 20  1  0
  3  2  1  0
  4  8  1  0
  4  3  2  0
  5  4  1  0
  6  5  1  0
  6  7  2  0
  7  8  1  0
  8  9  2  0
  9 10  1  0
  9  1  1  0
 10 11  1  0
 12 11  2  0
 13 12  1  0
 14 13  2  0
 14 19  1  0
 15 14  1  0
 16 15  2  0
 16 17  1  0
 17 18  2  0
 18 13  1  0
 18 10  1  0
 21 20  1  0
 22 26  2  0
 23 22  1  0
 23 24  2  0
 24 25  1  0
 25 21  1  0
 26 25  1  0
 27 32  2  0
 28 27  1  0
 29 28  2  0
 29 30  1  0
 30 31  2  0
 31 32  1  0
 31 22  1  0
  1 33  1  0
  3 34  1  0
  5 35  1  0
  6 36  1  0
  7 37  1  0
 11 38  1  0
 16 39  1  0
 19 40  1  0
 19 41  1  0
 20 42  1  0
 20 43  1  0
 21 44  1  0
 21 45  1  0
 23 46  1  0
 24 47  1  0
 27 48  1  0
 28 49  1  0
 29 50  1  0
M  ISO  8  33  14  34  14  35   9  36  14  37  14  38  14  39  14  42   8
M  ISO  8  43   8  44   8  45   8  46  14  47  14  48  14  49  14  50  14
M  END
>  <minimizedAffinity>  (1) 
-5.60511971

>  <minimizedRMSD>  (1) 
1.66155779

$$$$
