
     RDKit          3D

 42 46  0  0  0  0  0  0  0  0999 V2000
   44.4670   31.8740   42.7340 Cl  0  0  0  0  0  0  0  0  0  0  0  0
   44.5420   33.6330   42.6770 C   0  0  0  0  0  0  0  0  0  0  0  0
   45.3540   34.2310   43.6650 C   0  0  0  0  0  0  0  0  0  0  0  0
   45.3440   35.6120   43.5400 C   0  0  0  0  0  0  0  0  0  0  0  0
   44.7050   36.3890   42.6540 C   0  0  0  0  0  0  0  0  0  0  0  0
   43.9410   35.7330   41.7310 C   0  0  0  0  0  0  0  0  0  0  0  0
   43.8510   34.3870   41.7300 C   0  0  0  0  0  0  0  0  0  0  0  0
   43.0790   33.5720   40.8120 N   0  0  0  0  0  0  0  0  0  0  0  0
   43.5950   32.8520   39.7780 C   0  0  0  0  0  0  0  0  0  0  0  0
   42.5820   32.2140   39.1350 N   0  0  0  0  0  0  0  0  0  0  0  0
   41.4220   32.5340   39.7660 C   0  0  0  0  0  0  0  0  0  0  0  0
   40.1330   32.1310   39.4800 C   0  0  0  0  0  0  0  0  0  0  0  0
   39.1530   32.6190   40.2970 N   0  0  0  0  0  0  0  0  0  0  0  0
   39.4940   33.4490   41.3150 C   0  0  0  0  0  0  0  0  0  0  0  0
   40.7560   33.8440   41.5950 N   0  0  0  0  0  0  0  0  0  0  0  0
   41.7530   33.3780   40.8050 C   0  0  0  0  0  0  0  0  0  0  0  0
   39.8610   31.2450   38.3760 N   0  0  0  0  0  0  0  0  0  0  0  0
   46.1510   33.5340   44.7170 C   0  0  0  0  0  0  0  0  0  0  0  0
   45.5460   33.9280   45.6840 O   0  0  0  0  0  0  0  0  0  0  0  0
   47.2140   32.7600   44.0610 C   0  0  0  0  0  0  0  0  0  0  0  0
   48.1130   33.2310   43.1850 C   0  0  0  0  0  0  0  0  0  0  0  0
   48.9420   32.2660   42.6400 C   0  0  0  0  0  0  0  0  0  0  0  0
   48.7800   30.9270   43.0410 N   0  0  0  0  0  0  0  0  0  0  0  0
   47.8700   30.5480   43.9140 C   0  0  0  0  0  0  0  0  0  0  0  0
   47.0240   31.4790   44.4770 N   0  0  0  0  0  0  0  0  0  0  0  0
   48.3530   34.5930   42.8660 C   0  0  0  0  0  0  0  0  0  0  0  0
   49.4010   35.1310   42.1870 C   0  0  0  0  0  0  0  0  0  0  0  0
   48.1630   35.0070   41.3400 C   0  0  0  0  0  0  0  0  0  0  0  0
   45.9528   36.1519   44.2802 H   0  0  0  0  0  0  0  0  0  0  0  0
   44.7905   37.4856   42.6693 H   0  0  0  0  0  0  0  0  0  0  0  0
   43.3897   36.3122   40.9756 H   0  0  0  0  0  0  0  0  0  0  0  0
   44.6596   32.7958   39.5070 H   0  0  0  0  0  0  0  0  0  0  0  0
   38.6858   33.8273   41.9582 H   0  0  0  0  0  0  0  0  0  0  0  0
   38.8936   30.9536   38.1758 H   0  0  0  0  0  0  0  0  0  0  0  0
   40.6341   30.9033   37.7874 H   0  0  0  0  0  0  0  0  0  0  0  0
   49.7140   32.5410   41.9062 H   0  0  0  0  0  0  0  0  0  0  0  0
   47.7850   29.4877   44.1941 H   0  0  0  0  0  0  0  0  0  0  0  0
   47.9624   34.8392   43.8644 H   0  0  0  0  0  0  0  0  0  0  0  0
   49.7521   36.1354   42.4662 H   0  0  0  0  0  0  0  0  0  0  0  0
   50.4317   34.7791   42.0330 H   0  0  0  0  0  0  0  0  0  0  0  0
   47.5735   35.8917   41.0577 H   0  0  0  0  0  0  0  0  0  0  0  0
   47.8589   34.5375   40.3929 H   0  0  0  0  0  0  0  0  0  0  0  0
  2  1  1  0
  2  3  2  0
  3 18  1  0
  4  3  1  0
  5  4  2  0
  6  5  1  0
  7  6  2  0
  7  2  1  0
  8  7  1  0
  9  8  1  0
 10 11  1  0
 10  9  2  0
 11 16  2  0
 12 11  1  0
 12 13  2  0
 13 14  1  0
 14 15  2  0
 16  8  1  0
 16 15  1  0
 17 12  1  0
 18 19  2  0
 20 25  1  0
 20 18  1  0
 21 20  2  0
 22 23  2  0
 22 21  1  0
 23 24  1  0
 24 25  2  0
 26 21  1  0
 27 26  1  0
 28 27  1  0
 28 26  1  0
  4 29  1  0
  5 30  1  0
  6 31  1  0
  9 32  1  0
 14 33  1  0
 17 34  1  0
 17 35  1  0
 22 36  1  0
 24 37  1  0
 26 38  1  0
 27 39  1  0
 27 40  1  0
 28 41  1  0
 28 42  1  0
M  ISO  8  29  14  30  14  31  14  32  14  33  14  36  14  37  14  38  13
M  ISO  4  39  13  40  13  41  13  42  13
M  END
>  <minimizedAffinity>  (1) 
-6.16028404

>  <minimizedRMSD>  (1) 
0.747017264

$$$$
