
     RDKit          3D

 52 57  0  0  0  0  0  0  0  0999 V2000
   46.5030   32.6790   45.9690 C   0  0  0  0  0  0  0  0  0  0  0  0
   47.4900   31.6910   45.7630 C   0  0  0  0  0  0  0  0  0  0  0  0
   47.5510   30.9040   46.8610 C   0  0  0  0  0  0  0  0  0  0  0  0
   46.6360   31.3870   47.7150 N   0  0  0  0  0  0  0  0  0  0  0  0
   46.0070   32.4420   47.1950 N   0  0  0  0  0  0  0  0  0  0  0  0
   44.7740   35.4800   44.3860 C   0  0  0  0  0  0  0  0  0  0  0  0
   45.4790   35.6500   43.1970 C   0  0  0  0  0  0  0  0  0  0  0  0
   46.5490   34.7920   42.9490 C   0  0  0  0  0  0  0  0  0  0  0  0
   46.8370   33.8580   43.8670 N   0  0  0  0  0  0  0  0  0  0  0  0
   46.1620   33.6960   45.0060 C   0  0  0  0  0  0  0  0  0  0  0  0
   45.1240   34.5210   45.2550 N   0  0  0  0  0  0  0  0  0  0  0  0
   47.3200   34.8990   41.7580 N   0  0  0  0  0  0  0  0  0  0  0  0
   48.4390   35.6270   41.6340 C   0  0  0  0  0  0  0  0  0  0  0  0
   48.9250   35.5150   40.3770 N   0  0  0  0  0  0  0  0  0  0  0  0
   48.1110   34.7090   39.6960 C   0  0  0  0  0  0  0  0  0  0  0  0
   48.1410   34.2620   38.3870 C   0  0  0  0  0  0  0  0  0  0  0  0
   47.1430   33.4300   37.9860 N   0  0  0  0  0  0  0  0  0  0  0  0
   46.1560   33.0540   38.8410 C   0  0  0  0  0  0  0  0  0  0  0  0
   46.1520   33.5040   40.1080 N   0  0  0  0  0  0  0  0  0  0  0  0
   47.0910   34.3170   40.5700 C   0  0  0  0  0  0  0  0  0  0  0  0
   49.1980   34.6870   37.5320 N   0  0  0  0  0  0  0  0  0  0  0  0
   46.3500   30.8460   49.0380 C   0  0  0  0  0  0  0  0  0  0  0  0
   44.9960   30.2370   49.0670 C   0  0  0  0  0  0  0  0  0  0  0  0
   44.9240   27.7100   48.6640 C   0  0  0  0  0  0  0  0  0  0  0  0
   44.7920   29.0310   48.2960 C   0  0  0  0  0  0  0  0  0  0  0  0
   44.3980   29.2520   46.9720 C   0  0  0  0  0  0  0  0  0  0  0  0
   44.1640   28.2140   46.1070 C   0  0  0  0  0  0  0  0  0  0  0  0
   43.7850   28.1290   44.8090 N   0  0  0  0  0  0  0  0  0  0  0  0
   43.6910   26.8590   44.4110 C   0  0  0  0  0  0  0  0  0  0  0  0
   44.0220   26.0360   45.4840 C   0  0  0  0  0  0  0  0  0  0  0  0
   44.3010   26.9130   46.4880 C   0  0  0  0  0  0  0  0  0  0  0  0
   44.6880   26.6800   47.7930 C   0  0  0  0  0  0  0  0  0  0  0  0
   44.8550   25.3090   48.2780 C   0  0  0  0  0  0  0  0  0  0  0  0
   45.2820   25.0580   49.4320 O   0  0  0  0  0  0  0  0  0  0  0  0
   48.1071   31.5797   44.8592 H   0  0  0  0  0  0  0  0  0  0  0  0
   48.2160   30.0426   47.0214 H   0  0  0  0  0  0  0  0  0  0  0  0
   43.9227   36.1382   44.6140 H   0  0  0  0  0  0  0  0  0  0  0  0
   45.2008   36.4347   42.4781 H   0  0  0  0  0  0  0  0  0  0  0  0
   48.8943   36.2266   42.4360 H   0  0  0  0  0  0  0  0  0  0  0  0
   45.3583   32.3798   38.4957 H   0  0  0  0  0  0  0  0  0  0  0  0
   49.2326   34.3619   36.5553 H   0  0  0  0  0  0  0  0  0  0  0  0
   49.9277   35.3194   37.8905 H   0  0  0  0  0  0  0  0  0  0  0  0
   47.0980   30.0783   49.2850 H   0  0  0  0  0  0  0  0  0  0  0  0
   46.3895   31.6629   49.7736 H   0  0  0  0  0  0  0  0  0  0  0  0
   44.7626   30.0015   50.1158 H   0  0  0  0  0  0  0  0  0  0  0  0
   44.3409   30.9854   48.5971 H   0  0  0  0  0  0  0  0  0  0  0  0
   45.2298   27.4742   49.6940 H   0  0  0  0  0  0  0  0  0  0  0  0
   44.2727   30.2851   46.6156 H   0  0  0  0  0  0  0  0  0  0  0  0
   43.5937   28.9418   44.2059 H   0  0  0  0  0  0  0  0  0  0  0  0
   43.4011   26.5197   43.4056 H   0  0  0  0  0  0  0  0  0  0  0  0
   44.0513   24.9368   45.5139 H   0  0  0  0  0  0  0  0  0  0  0  0
   44.5985   24.4727   47.6110 H   0  0  0  0  0  0  0  0  0  0  0  0
  1  5  2  0
  2  1  1  0
  2  3  2  0
  3  4  1  0
  4 22  1  0
  5  4  1  0
  6 11  2  0
  7  6  1  0
  8  7  2  0
  8  9  1  0
  9 10  2  0
 10 11  1  0
 10  1  1  0
 12  8  1  0
 13 12  1  0
 14 13  2  0
 15 14  1  0
 15 20  2  0
 16 15  1  0
 17 16  2  0
 17 18  1  0
 18 19  2  0
 19 20  1  0
 20 12  1  0
 21 16  1  0
 22 23  1  0
 25 24  2  0
 25 23  1  0
 26 25  1  0
 27 31  1  0
 27 26  2  0
 28 27  1  0
 29 28  1  0
 29 30  2  0
 30 31  1  0
 31 32  2  0
 32 33  1  0
 32 24  1  0
 33 34  2  0
  2 35  1  0
  3 36  1  0
  6 37  1  0
  7 38  1  0
 13 39  1  0
 18 40  1  0
 21 41  1  0
 21 42  1  0
 22 43  1  0
 22 44  1  0
 23 45  1  0
 23 46  1  0
 24 47  1  0
 26 48  1  0
 28 49  1  0
 29 50  1  0
 30 51  1  0
 33 52  1  0
M  ISO  8  35  14  36  14  37  14  38  14  39  14  40  14  43   8  44   8
M  ISO  8  45   8  46   8  47  14  48  14  49   9  50  14  51  14  52   6
M  END
>  <minimizedAffinity>  (1) 
-6.8013587

>  <minimizedRMSD>  (1) 
1.20917642

$$$$
