
     RDKit          3D

 29 31  0  0  0  0  0  0  0  0999 V2000
   44.5950   35.7670   44.6970 C   0  0  0  0  0  0  0  0  0  0  0  0
   45.1910   35.9990   43.4330 C   0  0  0  0  0  0  0  0  0  0  0  0
   46.1530   35.0880   42.9870 C   0  0  0  0  0  0  0  0  0  0  0  0
   46.4640   34.0270   43.7930 N   0  0  0  0  0  0  0  0  0  0  0  0
   45.8770   33.8430   44.9820 C   0  0  0  0  0  0  0  0  0  0  0  0
   44.9500   34.6970   45.4390 N   0  0  0  0  0  0  0  0  0  0  0  0
   46.3850   32.6690   45.6060 N   0  0  0  0  0  0  0  0  0  0  0  0
   47.2360   31.8190   44.9670 C   0  0  0  0  0  0  0  0  0  0  0  0
   47.5770   30.7720   45.7730 N   0  0  0  0  0  0  0  0  0  0  0  0
   46.9230   30.9910   46.9150 C   0  0  0  0  0  0  0  0  0  0  0  0
   46.8170   30.3440   48.1220 C   0  0  0  0  0  0  0  0  0  0  0  0
   46.0710   30.7760   49.1520 N   0  0  0  0  0  0  0  0  0  0  0  0
   45.3690   31.9280   48.9960 C   0  0  0  0  0  0  0  0  0  0  0  0
   45.4400   32.5970   47.8320 N   0  0  0  0  0  0  0  0  0  0  0  0
   46.1820   32.1550   46.8290 C   0  0  0  0  0  0  0  0  0  0  0  0
   47.5130   29.1430   48.3620 N   0  0  0  0  0  0  0  0  0  0  0  0
   46.7270   35.3300   41.7500 O   0  0  0  0  0  0  0  0  0  0  0  0
   48.3220   33.4140   40.8610 O   0  0  0  0  0  0  0  0  0  0  0  0
   48.3380   34.8060   41.4680 P   0  0  0  0  0  0  0  0  0  0  0  0
   49.0840   35.9210   40.4550 O   0  0  0  0  0  0  0  0  0  0  0  0
   49.1090   34.7070   42.9690 O   0  0  0  0  0  0  0  0  0  0  0  0
   43.8354   36.4658   45.0775 H   0  0  0  0  0  0  0  0  0  0  0  0
   44.9060   36.8682   42.8220 H   0  0  0  0  0  0  0  0  0  0  0  0
   47.5999   31.9580   43.9383 H   0  0  0  0  0  0  0  0  0  0  0  0
   44.7459   32.3116   49.8173 H   0  0  0  0  0  0  0  0  0  0  0  0
   47.4237   28.6691   49.2721 H   0  0  0  0  0  0  0  0  0  0  0  0
   48.1112   28.7388   47.6274 H   0  0  0  0  0  0  0  0  0  0  0  0
   49.5432   36.6074   41.0010 H   0  0  0  0  0  0  0  0  0  0  0  0
   48.4374   34.7932   43.6913 H   0  0  0  0  0  0  0  0  0  0  0  0
  1  6  2  0
  2  1  1  0
  3  2  2  0
  3  4  1  0
  4  5  2  0
  5  6  1  0
  5  7  1  0
  7 15  1  0
  8  7  1  0
  8  9  2  0
  9 10  1  0
 10 11  2  0
 11 16  1  0
 11 12  1  0
 13 12  2  0
 14 13  1  0
 15 10  1  0
 15 14  2  0
 17  3  1  0
 18 19  2  0
 19 17  1  0
 19 21  1  0
 20 19  1  0
  1 22  1  0
  2 23  1  0
  8 24  1  0
 13 25  1  0
 16 26  1  0
 16 27  1  0
 20 28  1  0
 21 29  1  0
M  ISO  6  22  14  23  14  24  14  25  14  28   3  29   3
M  END
>  <minimizedAffinity>  (1) 
-6.7505908

>  <minimizedRMSD>  (1) 
0.620656431

$$$$
