
     RDKit          3D

 47 50  0  0  1  0  0  0  0  0999 V2000
   44.9830   34.5920   44.9280 C   0  0  0  0  0  0  0  0  0  0  0  0
   45.9140   34.5850   43.8480 C   0  0  0  0  0  0  0  0  0  0  0  0
   47.0420   33.7660   43.9720 C   0  0  0  0  0  0  0  0  0  0  0  0
   47.1930   33.0310   45.0950 N   0  0  0  0  0  0  0  0  0  0  0  0
   46.3000   33.0510   46.1090 C   0  0  0  0  0  0  0  0  0  0  0  0
   45.2220   33.8320   45.9940 N   0  0  0  0  0  0  0  0  0  0  0  0
   46.5260   32.2670   47.2330 N   0  0  0  0  0  0  0  0  0  0  0  0
   47.7240   32.4390   48.0100 C   0  0  0  0  0  0  0  0  0  0  0  0
   48.0130   31.2990   48.9310 C   0  0  0  0  0  0  0  0  0  0  0  0
   46.8870   30.6110   49.4640 N   0  0  0  0  0  0  0  0  0  0  0  0
   45.6370   31.1920   49.1150 C   0  0  0  0  0  0  0  0  0  0  0  0
   45.5250   31.2580   47.6200 C   0  0  2  0  0  0  0  0  0  0  0  0
   45.7760   29.9410   46.9570 C   0  0  0  0  0  0  0  0  0  0  0  0
   44.8500   28.9380   47.6100 C   0  0  0  0  0  0  0  0  0  0  0  0
   45.1820   27.6740   47.7530 C   0  0  0  0  0  0  0  0  0  0  0  0
   44.3080   26.6370   48.3910 C   0  0  0  0  0  0  0  0  0  0  0  0
   43.9960   25.5540   47.5050 N   0  0  0  0  0  0  0  0  0  0  0  0
   44.8260   24.5510   47.1620 C   0  0  0  0  0  0  0  0  0  0  0  0
   44.1990   23.6980   46.3020 N   0  0  0  0  0  0  0  0  0  0  0  0
   42.9660   24.1610   46.1000 C   0  0  0  0  0  0  0  0  0  0  0  0
   41.8970   23.7290   45.3450 C   0  0  0  0  0  0  0  0  0  0  0  0
   40.7280   24.4300   45.3360 N   0  0  0  0  0  0  0  0  0  0  0  0
   40.6100   25.5530   46.0660 C   0  0  0  0  0  0  0  0  0  0  0  0
   41.6630   25.9720   46.8040 N   0  0  0  0  0  0  0  0  0  0  0  0
   42.8440   25.3260   46.8570 C   0  0  0  0  0  0  0  0  0  0  0  0
   41.9630   22.5530   44.5560 N   0  0  0  0  0  0  0  0  0  0  0  0
   44.0792   35.2173   44.8807 H   0  0  0  0  0  0  0  0  0  0  0  0
   45.7516   35.2004   42.9508 H   0  0  0  0  0  0  0  0  0  0  0  0
   47.7924   33.7217   43.1690 H   0  0  0  0  0  0  0  0  0  0  0  0
   48.5726   32.5506   47.3191 H   0  0  0  0  0  0  0  0  0  0  0  0
   47.5736   33.3291   48.6386 H   0  0  0  0  0  0  0  0  0  0  0  0
   48.6198   30.5676   48.3770 H   0  0  0  0  0  0  0  0  0  0  0  0
   48.5174   31.7476   49.7995 H   0  0  0  0  0  0  0  0  0  0  0  0
   46.9033   29.6426   49.1136 H   0  0  0  0  0  0  0  0  0  0  0  0
   44.8195   30.5765   49.5186 H   0  0  0  0  0  0  0  0  0  0  0  0
   45.5698   32.2059   49.5362 H   0  0  0  0  0  0  0  0  0  0  0  0
   44.5066   31.5226   47.2994 H   0  0  0  0  0  0  0  0  0  0  0  0
   46.8237   29.6384   47.1009 H   0  0  0  0  0  0  0  0  0  0  0  0
   45.5901   30.0027   45.8746 H   0  0  0  0  0  0  0  0  0  0  0  0
   43.8696   29.2767   47.9761 H   0  0  0  0  0  0  0  0  0  0  0  0
   46.1667   27.3564   47.3796 H   0  0  0  0  0  0  0  0  0  0  0  0
   44.8280   26.2322   49.2718 H   0  0  0  0  0  0  0  0  0  0  0  0
   43.3609   27.1245   48.6656 H   0  0  0  0  0  0  0  0  0  0  0  0
   45.8588   24.4362   47.5226 H   0  0  0  0  0  0  0  0  0  0  0  0
   39.6694   26.1234   46.0630 H   0  0  0  0  0  0  0  0  0  0  0  0
   41.1459   22.2574   44.0029 H   0  0  0  0  0  0  0  0  0  0  0  0
   42.8280   21.9942   44.5358 H   0  0  0  0  0  0  0  0  0  0  0  0
  1  6  2  0
  2  3  2  0
  2  1  1  0
  3  4  1  0
  4  5  2  0
  5  7  1  0
  6  5  1  0
  7 12  1  0
  7  8  1  0
  8  9  1  0
  9 10  1  0
 11 10  1  0
 12 11  1  0
 13 14  1  0
 13 12  1  0
 14 15  2  0
 15 16  1  0
 17 16  1  0
 18 17  1  0
 19 18  2  0
 20 19  1  0
 20 25  2  0
 21 20  1  0
 22 21  2  0
 22 23  1  0
 23 24  2  0
 24 25  1  0
 25 17  1  0
 26 21  1  0
  1 27  1  0
  2 28  1  0
  3 29  1  0
  8 30  1  0
  8 31  1  0
  9 32  1  0
  9 33  1  0
 10 34  1  0
 11 35  1  0
 11 36  1  0
 12 37  1  1
 13 38  1  0
 13 39  1  0
 14 40  1  0
 15 41  1  0
 16 42  1  0
 16 43  1  0
 18 44  1  0
 23 45  1  0
 26 46  1  0
 26 47  1  0
M  ISO  8  27  14  28  14  29  14  30  13  31  13  32  13  33  13  34   5
M  ISO  8  35  13  36  13  37  13  38   8  39   8  42   8  43   8  44  14
M  ISO  1  45  14
M  END
>  <minimizedAffinity>  (1) 
-5.85973215

>  <minimizedRMSD>  (1) 
0.530643106

$$$$
