
     RDKit          3D

 29 31  0  0  0  0  0  0  0  0999 V2000
   46.3990   35.2040   42.6600 C   0  0  0  0  0  0  0  0  0  0  0  0
   46.8460   34.0500   43.2990 C   0  0  0  0  0  0  0  0  0  0  0  0
   46.2300   33.6720   44.5000 C   0  0  0  0  0  0  0  0  0  0  0  0
   45.2350   34.4560   44.9640 N   0  0  0  0  0  0  0  0  0  0  0  0
   44.8170   35.5680   44.3330 C   0  0  0  0  0  0  0  0  0  0  0  0
   45.4060   35.9410   43.1720 N   0  0  0  0  0  0  0  0  0  0  0  0
   46.6980   32.5050   45.1290 N   0  0  0  0  0  0  0  0  0  0  0  0
   47.3980   31.4970   44.5310 C   0  0  0  0  0  0  0  0  0  0  0  0
   47.6450   30.5720   45.5010 N   0  0  0  0  0  0  0  0  0  0  0  0
   47.1170   30.9880   46.6670 C   0  0  0  0  0  0  0  0  0  0  0  0
   47.0490   30.5030   47.9370 C   0  0  0  0  0  0  0  0  0  0  0  0
   46.4420   31.1450   48.9320 N   0  0  0  0  0  0  0  0  0  0  0  0
   45.8600   32.3520   48.6660 C   0  0  0  0  0  0  0  0  0  0  0  0
   45.9030   32.8630   47.4360 N   0  0  0  0  0  0  0  0  0  0  0  0
   46.5090   32.2220   46.4390 C   0  0  0  0  0  0  0  0  0  0  0  0
   47.6590   29.2500   48.1910 N   0  0  0  0  0  0  0  0  0  0  0  0
   47.8820   33.3550   42.6870 O   0  0  0  0  0  0  0  0  0  0  0  0
   50.3840   33.1580   41.8600 O   0  0  0  0  0  0  0  0  0  0  0  0
   49.3100   34.1570   42.1770 P   0  0  0  0  0  0  0  0  0  0  0  0
   49.0100   35.0440   40.7580 O   0  0  0  0  0  0  0  0  0  0  0  0
   49.8700   35.1990   43.3760 O   0  0  0  0  0  0  0  0  0  0  0  0
   46.8711   35.5156   41.7166 H   0  0  0  0  0  0  0  0  0  0  0  0
   44.0011   36.1712   44.7578 H   0  0  0  0  0  0  0  0  0  0  0  0
   47.7024   31.4422   43.4754 H   0  0  0  0  0  0  0  0  0  0  0  0
   45.3535   32.9047   49.4710 H   0  0  0  0  0  0  0  0  0  0  0  0
   47.6310   28.8462   49.1381 H   0  0  0  0  0  0  0  0  0  0  0  0
   48.1305   28.7428   47.4286 H   0  0  0  0  0  0  0  0  0  0  0  0
   48.7022   35.9542   40.9966 H   0  0  0  0  0  0  0  0  0  0  0  0
   49.6652   34.8179   44.2664 H   0  0  0  0  0  0  0  0  0  0  0  0
  1  6  2  0
  1  2  1  0
  2  3  2  0
  3  4  1  0
  3  7  1  0
  5  4  2  0
  6  5  1  0
  7 15  1  0
  8  7  1  0
  8  9  2  0
  9 10  1  0
 10 11  2  0
 11 16  1  0
 11 12  1  0
 13 12  2  0
 14 13  1  0
 15 10  1  0
 15 14  2  0
 17  2  1  0
 18 19  2  0
 19 17  1  0
 19 21  1  0
 20 19  1  0
  1 22  1  0
  5 23  1  0
  8 24  1  0
 13 25  1  0
 16 26  1  0
 16 27  1  0
 20 28  1  0
 21 29  1  0
M  ISO  6  22  14  23  14  24  14  25  14  28   3  29   3
M  END
>  <minimizedAffinity>  (1) 
-6.26433611

>  <minimizedRMSD>  (1) 
0.633469999

$$$$
