
     RDKit          3D

 39 42  0  0  1  0  0  0  0  0999 V2000
   45.2040   34.6640   44.6520 C   0  0  0  0  0  0  0  0  0  0  0  0
   46.1470   34.3840   43.6450 C   0  0  0  0  0  0  0  0  0  0  0  0
   47.0070   33.2980   43.8790 C   0  0  0  0  0  0  0  0  0  0  0  0
   46.8980   32.5920   45.0210 N   0  0  0  0  0  0  0  0  0  0  0  0
   45.9860   32.8900   45.9590 C   0  0  0  0  0  0  0  0  0  0  0  0
   45.1230   33.9320   45.7890 N   0  0  0  0  0  0  0  0  0  0  0  0
   47.3670   31.7380   47.6790 C   0  0  2  0  0  0  0  0  0  0  0  0
   45.9500   32.0460   47.1450 C   0  0  1  0  0  0  0  0  0  0  0  0
   45.3980   32.6190   48.2570 O   0  0  0  0  0  0  0  0  0  0  0  0
   45.7390   31.8460   49.3300 C   0  0  0  0  0  0  0  0  0  0  0  0
   46.9300   30.9970   48.9550 C   0  0  2  0  0  0  0  0  0  0  0  0
   47.9530   32.8940   48.0830 O   0  0  0  0  0  0  0  0  0  0  0  0
   47.9220   30.9470   49.9040 O   0  0  0  0  0  0  0  0  0  0  0  0
   46.1420   35.2400   42.4630 C   0  0  0  0  0  0  0  0  0  0  0  0
   45.3690   34.7010   41.3570 N   0  0  0  0  0  0  0  0  0  0  0  0
   45.9310   33.9120   40.4180 C   0  0  0  0  0  0  0  0  0  0  0  0
   45.0050   33.5420   39.4980 N   0  0  0  0  0  0  0  0  0  0  0  0
   43.8230   34.1140   39.8660 C   0  0  0  0  0  0  0  0  0  0  0  0
   42.5200   34.1340   39.3690 C   0  0  0  0  0  0  0  0  0  0  0  0
   41.5760   34.8300   40.0180 N   0  0  0  0  0  0  0  0  0  0  0  0
   41.8630   35.5130   41.1420 C   0  0  0  0  0  0  0  0  0  0  0  0
   43.1000   35.5300   41.6670 N   0  0  0  0  0  0  0  0  0  0  0  0
   44.0680   34.8400   41.0370 C   0  0  0  0  0  0  0  0  0  0  0  0
   42.3630   33.3710   38.1790 N   0  0  0  0  0  0  0  0  0  0  0  0
   44.5096   35.5054   44.5109 H   0  0  0  0  0  0  0  0  0  0  0  0
   47.7670   33.0251   43.1320 H   0  0  0  0  0  0  0  0  0  0  0  0
   48.0520   31.2311   46.9834 H   0  0  0  0  0  0  0  0  0  0  0  0
   45.3716   31.1866   46.7748 H   0  0  0  0  0  0  0  0  0  0  0  0
   45.9975   32.4903   50.1833 H   0  0  0  0  0  0  0  0  0  0  0  0
   44.8931   31.2019   49.6123 H   0  0  0  0  0  0  0  0  0  0  0  0
   46.6994   29.9278   48.8382 H   0  0  0  0  0  0  0  0  0  0  0  0
   47.9699   32.9272   49.0723 H   0  0  0  0  0  0  0  0  0  0  0  0
   47.5163   30.9674   50.8068 H   0  0  0  0  0  0  0  0  0  0  0  0
   45.7164   36.2153   42.7419 H   0  0  0  0  0  0  0  0  0  0  0  0
   47.1837   35.3207   42.1191 H   0  0  0  0  0  0  0  0  0  0  0  0
   46.9890   33.6115   40.4007 H   0  0  0  0  0  0  0  0  0  0  0  0
   41.0616   36.0736   41.6455 H   0  0  0  0  0  0  0  0  0  0  0  0
   41.4418   33.3135   37.7219 H   0  0  0  0  0  0  0  0  0  0  0  0
   43.1705   32.8759   37.7744 H   0  0  0  0  0  0  0  0  0  0  0  0
  1  6  2  0
  2  3  2  0
  2  1  1  0
  3  4  1  0
  4  5  2  0
  5  8  1  0
  6  5  1  0
  7 12  1  0
  7 11  1  0
  8  7  1  0
  8  9  1  0
  9 10  1  0
 11 10  1  0
 11 13  1  0
 14  2  1  0
 15 14  1  0
 16 15  1  0
 17 18  1  0
 17 16  2  0
 18 23  2  0
 19 18  1  0
 19 20  2  0
 20 21  1  0
 21 22  2  0
 23 15  1  0
 23 22  1  0
 24 19  1  0
  1 25  1  0
  3 26  1  0
  7 27  1  6
  8 28  1  6
 10 29  1  0
 10 30  1  0
 11 31  1  6
 12 32  1  0
 13 33  1  0
 14 34  1  0
 14 35  1  0
 16 36  1  0
 21 37  1  0
 24 38  1  0
 24 39  1  0
M  ISO  8  25  14  26  14  27  13  28  13  29  13  30  13  31  13  32   3
M  ISO  5  33   3  34   8  35   8  36  14  37  14
M  END
>  <minimizedAffinity>  (1) 
-6.73759556

>  <minimizedRMSD>  (1) 
1.70725608

$$$$
