
     RDKit          3D

 36 39  0  0  1  0  0  0  0  0999 V2000
   49.0510   34.8260   41.5410 C   0  0  1  0  0  0  0  0  0  0  0  0
   50.1000   34.5890   42.5820 C   0  0  0  0  0  0  0  0  0  0  0  0
   49.2460   33.4860   42.0990 C   0  0  2  0  0  0  0  0  0  0  0  0
   49.9910   32.6100   41.1680 N   0  0  0  0  0  0  0  0  0  0  0  0
   51.2530   32.1660   41.3570 C   0  0  0  0  0  0  0  0  0  0  0  0
   51.5630   31.4070   40.2990 N   0  0  0  0  0  0  0  0  0  0  0  0
   50.5230   31.3600   39.4430 C   0  0  0  0  0  0  0  0  0  0  0  0
   50.3050   30.7420   38.2280 C   0  0  0  0  0  0  0  0  0  0  0  0
   49.1230   30.8890   37.5960 N   0  0  0  0  0  0  0  0  0  0  0  0
   48.1420   31.6460   38.1490 C   0  0  0  0  0  0  0  0  0  0  0  0
   48.3390   32.2560   39.3310 N   0  0  0  0  0  0  0  0  0  0  0  0
   49.5220   32.1290   40.0000 C   0  0  0  0  0  0  0  0  0  0  0  0
   51.3970   29.9700   37.7340 N   0  0  0  0  0  0  0  0  0  0  0  0
   47.8240   35.5680   41.9590 C   0  0  0  0  0  0  0  0  0  0  0  0
   46.7100   34.5390   42.0090 C   0  0  0  0  0  0  0  0  0  0  0  0
   44.4980   35.9000   44.7220 C   0  0  0  0  0  0  0  0  0  0  0  0
   45.1400   35.7620   43.4580 C   0  0  0  0  0  0  0  0  0  0  0  0
   45.9780   34.6950   43.2970 C   0  0  0  0  0  0  0  0  0  0  0  0
   46.1620   33.8240   44.3280 N   0  0  0  0  0  0  0  0  0  0  0  0
   45.5570   33.9680   45.4940 C   0  0  0  0  0  0  0  0  0  0  0  0
   44.7300   34.9970   45.6970 N   0  0  0  0  0  0  0  0  0  0  0  0
   49.0417   35.2563   40.5287 H   0  0  0  0  0  0  0  0  0  0  0  0
   51.1655   34.6226   42.3106 H   0  0  0  0  0  0  0  0  0  0  0  0
   50.3405   35.0211   43.5645 H   0  0  0  0  0  0  0  0  0  0  0  0
   48.5874   32.7433   42.5731 H   0  0  0  0  0  0  0  0  0  0  0  0
   51.9024   32.3864   42.2171 H   0  0  0  0  0  0  0  0  0  0  0  0
   47.1804   31.7613   37.6275 H   0  0  0  0  0  0  0  0  0  0  0  0
   51.3136   29.4774   36.8333 H   0  0  0  0  0  0  0  0  0  0  0  0
   52.2693   29.9049   38.2778 H   0  0  0  0  0  0  0  0  0  0  0  0
   47.9705   36.0212   42.9505 H   0  0  0  0  0  0  0  0  0  0  0  0
   47.5883   36.3835   41.2594 H   0  0  0  0  0  0  0  0  0  0  0  0
   46.0192   34.6993   41.1681 H   0  0  0  0  0  0  0  0  0  0  0  0
   47.1306   33.5252   41.9356 H   0  0  0  0  0  0  0  0  0  0  0  0
   43.8137   36.7420   44.9029 H   0  0  0  0  0  0  0  0  0  0  0  0
   44.9684   36.4839   42.6459 H   0  0  0  0  0  0  0  0  0  0  0  0
   45.7348   33.2393   46.2986 H   0  0  0  0  0  0  0  0  0  0  0  0
  1 14  1  0
  1  3  1  0
  1  2  1  0
  3  2  1  0
  4  5  1  0
  4  3  1  0
  6  5  2  0
  7 12  2  0
  7  6  1  0
  8  7  1  0
  9 10  1  0
  9  8  2  0
 10 11  2  0
 11 12  1  0
 12  4  1  0
 13  8  1  0
 14 15  1  0
 15 18  1  0
 16 21  2  0
 17 16  1  0
 18 17  2  0
 18 19  1  0
 19 20  2  0
 20 21  1  0
  1 22  1  6
  2 23  1  0
  2 24  1  0
  3 25  1  1
  5 26  1  0
 10 27  1  0
 13 28  1  0
 13 29  1  0
 14 30  1  0
 14 31  1  0
 15 32  1  0
 15 33  1  0
 16 34  1  0
 17 35  1  0
 20 36  1  0
M  ISO  8  22  13  23  13  24  13  25  13  26  14  27  14  30   8  31   8
M  ISO  5  32   8  33   8  34  14  35  14  36  14
M  END
>  <minimizedAffinity>  (1) 
-5.11667871

>  <minimizedRMSD>  (1) 
1.54257905

$$$$
