
     RDKit          3D

 43 47  0  0  0  0  0  0  0  0999 V2000
   44.6890   35.0590   45.0560 C   0  0  0  0  0  0  0  0  0  0  0  0
   45.2500   34.9710   43.7920 C   0  0  0  0  0  0  0  0  0  0  0  0
   46.3020   34.0560   43.6050 C   0  0  0  0  0  0  0  0  0  0  0  0
   46.7030   33.3230   44.6580 N   0  0  0  0  0  0  0  0  0  0  0  0
   46.1480   33.4230   45.8730 C   0  0  0  0  0  0  0  0  0  0  0  0
   45.1300   34.3080   46.0560 N   0  0  0  0  0  0  0  0  0  0  0  0
   46.5380   32.6590   47.0480 C   0  0  0  0  0  0  0  0  0  0  0  0
   45.6570   32.4180   48.0960 C   0  0  0  0  0  0  0  0  0  0  0  0
   46.3210   31.6720   49.0530 C   0  0  0  0  0  0  0  0  0  0  0  0
   47.5660   31.4790   48.5740 N   0  0  0  0  0  0  0  0  0  0  0  0
   47.6890   32.0740   47.3700 N   0  0  0  0  0  0  0  0  0  0  0  0
   47.8320   28.6310   47.5530 Cl  0  0  0  0  0  0  0  0  0  0  0  0
   48.8880   29.4860   48.6560 C   0  0  0  0  0  0  0  0  0  0  0  0
   48.7030   30.7990   49.0850 C   0  0  0  0  0  0  0  0  0  0  0  0
   49.6090   31.3720   49.9640 C   0  0  0  0  0  0  0  0  0  0  0  0
   50.7090   30.6940   50.4490 C   0  0  0  0  0  0  0  0  0  0  0  0
   50.8900   29.3790   50.0180 C   0  0  0  0  0  0  0  0  0  0  0  0
   52.2980   28.5500   50.6550 Cl  0  0  0  0  0  0  0  0  0  0  0  0
   49.9920   28.7940   49.1390 C   0  0  0  0  0  0  0  0  0  0  0  0
   44.8560   35.7130   42.6930 O   0  0  0  0  0  0  0  0  0  0  0  0
   44.0300   35.2560   41.6830 C   0  0  0  0  0  0  0  0  0  0  0  0
   44.3960   34.4680   40.6080 C   0  0  0  0  0  0  0  0  0  0  0  0
   43.4580   34.0900   39.6770 C   0  0  0  0  0  0  0  0  0  0  0  0
   42.1280   34.4670   39.7640 C   0  0  0  0  0  0  0  0  0  0  0  0
   41.2790   34.0640   38.8280 N   0  0  0  0  0  0  0  0  0  0  0  0
   39.9750   34.4160   38.8850 C   0  0  0  0  0  0  0  0  0  0  0  0
   39.5650   35.2000   39.9390 C   0  0  0  0  0  0  0  0  0  0  0  0
   40.4640   35.6260   40.9290 C   0  0  0  0  0  0  0  0  0  0  0  0
   41.7840   35.2550   40.8480 C   0  0  0  0  0  0  0  0  0  0  0  0
   42.7100   35.6530   41.8040 C   0  0  0  0  0  0  0  0  0  0  0  0
   43.8635   35.7641   45.2330 H   0  0  0  0  0  0  0  0  0  0  0  0
   46.7839   33.9433   42.6226 H   0  0  0  0  0  0  0  0  0  0  0  0
   44.6134   32.7609   48.1541 H   0  0  0  0  0  0  0  0  0  0  0  0
   45.9158   31.3102   50.0095 H   0  0  0  0  0  0  0  0  0  0  0  0
   49.4444   32.4101   50.2884 H   0  0  0  0  0  0  0  0  0  0  0  0
   51.4138   31.1704   51.1464 H   0  0  0  0  0  0  0  0  0  0  0  0
   50.1575   27.7557   48.8156 H   0  0  0  0  0  0  0  0  0  0  0  0
   45.4409   34.1425   40.4972 H   0  0  0  0  0  0  0  0  0  0  0  0
   43.7759   33.4640   38.8302 H   0  0  0  0  0  0  0  0  0  0  0  0
   39.2641   34.0861   38.1132 H   0  0  0  0  0  0  0  0  0  0  0  0
   38.5088   35.4996   40.0071 H   0  0  0  0  0  0  0  0  0  0  0  0
   40.1143   36.2520   41.7631 H   0  0  0  0  0  0  0  0  0  0  0  0
   42.3959   36.2797   42.6517 H   0  0  0  0  0  0  0  0  0  0  0  0
  1  6  2  0
  2  1  1  0
  3  2  2  0
  3  4  1  0
  4  5  2  0
  5  6  1  0
  5  7  1  0
  7 11  2  0
  7  8  1  0
  8  9  2  0
 10  9  1  0
 10 14  1  0
 11 10  1  0
 12 13  1  0
 13 14  2  0
 13 19  1  0
 14 15  1  0
 15 16  2  0
 17 16  1  0
 17 18  1  0
 19 17  2  0
 20  2  1  0
 21 30  1  0
 21 20  1  0
 22 21  2  0
 23 24  2  0
 23 22  1  0
 24 29  1  0
 25 26  2  0
 25 24  1  0
 26 27  1  0
 27 28  2  0
 29 28  1  0
 29 30  2  0
  1 31  1  0
  3 32  1  0
  8 33  1  0
  9 34  1  0
 15 35  1  0
 16 36  1  0
 19 37  1  0
 22 38  1  0
 23 39  1  0
 26 40  1  0
 27 41  1  0
 28 42  1  0
 30 43  1  0
M  END
>  <minimizedAffinity>  (1) 
-7.43764257

>  <minimizedRMSD>  (1) 
1.17130494

$$$$
