
     RDKit          3D

 46 49  0  0  1  0  0  0  0  0999 V2000
   44.5250   35.3810   45.1820 C   0  0  0  0  0  0  0  0  0  0  0  0
   45.1950   35.4320   43.9530 C   0  0  0  0  0  0  0  0  0  0  0  0
   46.1490   34.5120   43.6820 C   0  0  0  0  0  0  0  0  0  0  0  0
   46.4000   33.5810   44.6340 N   0  0  0  0  0  0  0  0  0  0  0  0
   45.7640   33.5370   45.7950 C   0  0  0  0  0  0  0  0  0  0  0  0
   44.8210   34.4290   46.0880 N   0  0  0  0  0  0  0  0  0  0  0  0
   46.1130   32.5070   46.7350 N   0  0  0  0  0  0  0  0  0  0  0  0
   45.3640   32.1990   47.9020 C   0  0  0  0  0  0  0  0  0  0  0  0
   46.4360   31.8510   48.9190 C   0  0  0  0  0  0  0  0  0  0  0  0
   47.7310   31.8230   48.1700 C   0  0  0  0  0  0  0  0  0  0  0  0
   47.2650   31.6350   46.7260 C   0  0  1  0  0  0  0  0  0  0  0  0
   44.8230   36.4790   43.0390 N   0  0  0  0  0  0  0  0  0  0  0  0
   46.8130   29.9330   46.4810 S   0  0  0  0  0  0  0  0  0  0  0  0
   45.1720   30.5830   43.6500 O   0  0  0  0  0  0  0  0  0  0  0  0
   44.7650   29.9370   44.6290 C   0  0  0  0  0  0  0  0  0  0  0  0
   45.1600   29.6090   46.0220 C   0  0  1  0  0  0  0  0  0  0  0  0
   44.7240   28.1690   46.1340 C   0  0  0  0  0  0  0  0  0  0  0  0
   43.2780   28.3550   45.6660 C   0  0  0  0  0  0  0  0  0  0  0  0
   43.5170   29.2270   44.5220 N   0  0  0  0  0  0  0  0  0  0  0  0
   40.6200   29.5830   45.3680 Cl  0  0  0  0  0  0  0  0  0  0  0  0
   41.1610   29.3800   43.7160 C   0  0  0  0  0  0  0  0  0  0  0  0
   42.4950   29.2320   43.5030 C   0  0  0  0  0  0  0  0  0  0  0  0
   42.9240   29.0720   42.2020 C   0  0  0  0  0  0  0  0  0  0  0  0
   42.0890   29.0510   41.0900 C   0  0  0  0  0  0  0  0  0  0  0  0
   40.7180   29.2040   41.3260 C   0  0  0  0  0  0  0  0  0  0  0  0
   39.6040   29.1880   39.9770 Cl  0  0  0  0  0  0  0  0  0  0  0  0
   40.3100   29.3630   42.6300 C   0  0  0  0  0  0  0  0  0  0  0  0
   43.7488   36.1263   45.4098 H   0  0  0  0  0  0  0  0  0  0  0  0
   46.6980   34.5194   42.7288 H   0  0  0  0  0  0  0  0  0  0  0  0
   44.7734   33.0663   48.2322 H   0  0  0  0  0  0  0  0  0  0  0  0
   44.6366   31.3886   47.7469 H   0  0  0  0  0  0  0  0  0  0  0  0
   46.4708   32.6128   49.7118 H   0  0  0  0  0  0  0  0  0  0  0  0
   46.2314   30.8836   49.4009 H   0  0  0  0  0  0  0  0  0  0  0  0
   48.2824   32.7670   48.2914 H   0  0  0  0  0  0  0  0  0  0  0  0
   48.4241   31.0418   48.5155 H   0  0  0  0  0  0  0  0  0  0  0  0
   47.9934   31.8601   45.9331 H   0  0  0  0  0  0  0  0  0  0  0  0
   45.2900   36.5539   42.1240 H   0  0  0  0  0  0  0  0  0  0  0  0
   44.0897   37.1537   43.2997 H   0  0  0  0  0  0  0  0  0  0  0  0
   44.6827   30.2766   46.7544 H   0  0  0  0  0  0  0  0  0  0  0  0
   45.2965   27.5061   45.4686 H   0  0  0  0  0  0  0  0  0  0  0  0
   44.8588   27.6961   47.1180 H   0  0  0  0  0  0  0  0  0  0  0  0
   42.8153   27.4024   45.3686 H   0  0  0  0  0  0  0  0  0  0  0  0
   42.5834   28.7484   46.4229 H   0  0  0  0  0  0  0  0  0  0  0  0
   44.0041   28.9524   42.0317 H   0  0  0  0  0  0  0  0  0  0  0  0
   42.4873   28.9203   40.0730 H   0  0  0  0  0  0  0  0  0  0  0  0
   39.2333   29.4847   42.8197 H   0  0  0  0  0  0  0  0  0  0  0  0
  1  6  2  0
  2  1  1  0
  3  2  2  0
  3  4  1  0
  4  5  2  0
  5  6  1  0
  5  7  1  0
  7  8  1  0
  8  9  1  0
 10  9  1  0
 11  7  1  0
 11 10  1  0
 12  2  1  0
 13 11  1  0
 14 15  2  0
 15 16  1  0
 16 17  1  0
 16 13  1  0
 18 17  1  0
 19 15  1  0
 19 18  1  0
 21 20  1  0
 22 21  2  0
 22 19  1  0
 23 22  1  0
 24 25  1  0
 24 23  2  0
 25 27  2  0
 26 25  1  0
 27 21  1  0
  1 28  1  0
  3 29  1  0
  8 30  1  0
  8 31  1  0
  9 32  1  0
  9 33  1  0
 10 34  1  0
 10 35  1  0
 11 36  1  6
 12 37  1  0
 12 38  1  0
 16 39  1  1
 17 40  1  0
 17 41  1  0
 18 42  1  0
 18 43  1  0
 23 44  1  0
 24 45  1  0
 27 46  1  0
M  ISO  8  28  14  29  14  30  13  31  13  32  13  33  13  34  13  35  13
M  ISO  8  36  13  39  13  40  13  41  13  42  13  43  13  44  14  45  14
M  ISO  1  46  14
M  END
>  <minimizedAffinity>  (1) 
-5.68352461

>  <minimizedRMSD>  (1) 
0.726775706

$$$$
