
     RDKit          3D

 48 52  0  0  0  0  0  0  0  0999 V2000
   49.9110   30.4080   49.7110 C   0  0  0  0  0  0  0  0  0  0  0  0
   50.0660   31.6950   50.1780 N   0  0  0  0  0  0  0  0  0  0  0  0
   50.7790   32.0040   51.2540 C   0  0  0  0  0  0  0  0  0  0  0  0
   51.3720   31.0010   51.9050 N   0  0  0  0  0  0  0  0  0  0  0  0
   51.2730   29.7270   51.5200 C   0  0  0  0  0  0  0  0  0  0  0  0
   51.9050   28.6910   52.1940 C   0  0  0  0  0  0  0  0  0  0  0  0
   51.7950   27.4000   51.7680 C   0  0  0  0  0  0  0  0  0  0  0  0
   51.0560   27.1010   50.6660 C   0  0  0  0  0  0  0  0  0  0  0  0
   50.4000   28.1080   49.9530 C   0  0  0  0  0  0  0  0  0  0  0  0
   50.5200   29.3980   50.3870 C   0  0  0  0  0  0  0  0  0  0  0  0
   49.5880   27.6670   48.8060 C   0  0  0  0  0  0  0  0  0  0  0  0
   46.8490   26.9490   47.7730 Cl  0  0  0  0  0  0  0  0  0  0  0  0
   47.9110   25.7800   48.5690 C   0  0  0  0  0  0  0  0  0  0  0  0
   49.1470   26.2230   49.0060 C   0  0  0  0  0  0  0  0  0  0  0  0
   49.8920   25.2320   49.6090 C   0  0  0  0  0  0  0  0  0  0  0  0
   49.5140   23.9240   49.7940 C   0  0  0  0  0  0  0  0  0  0  0  0
   48.2560   23.5880   49.3190 C   0  0  0  0  0  0  0  0  0  0  0  0
   47.7570   21.9200   49.5460 Cl  0  0  0  0  0  0  0  0  0  0  0  0
   47.4510   24.5100   48.7050 C   0  0  0  0  0  0  0  0  0  0  0  0
   49.0120   30.0700   48.2760 S   0  0  0  0  0  0  0  0  0  0  0  0
   46.1530   32.5640   47.0120 C   0  0  0  0  0  0  0  0  0  0  0  0
   47.3070   31.8170   47.1150 C   0  0  0  0  0  0  0  0  0  0  0  0
   47.5170   30.9800   48.1780 C   0  0  0  0  0  0  0  0  0  0  0  0
   46.5690   30.8720   49.1690 C   0  0  0  0  0  0  0  0  0  0  0  0
   45.4120   31.5890   49.1150 C   0  0  0  0  0  0  0  0  0  0  0  0
   45.2280   32.4260   48.0300 C   0  0  0  0  0  0  0  0  0  0  0  0
   44.7450   35.2700   44.9870 C   0  0  0  0  0  0  0  0  0  0  0  0
   45.4900   35.1850   43.7740 C   0  0  0  0  0  0  0  0  0  0  0  0
   46.4660   34.2000   43.6630 C   0  0  0  0  0  0  0  0  0  0  0  0
   46.6970   33.3380   44.7050 N   0  0  0  0  0  0  0  0  0  0  0  0
   45.9580   33.4560   45.8550 C   0  0  0  0  0  0  0  0  0  0  0  0
   44.9920   34.4080   45.9990 N   0  0  0  0  0  0  0  0  0  0  0  0
   50.8773   33.0450   51.5956 H   0  0  0  0  0  0  0  0  0  0  0  0
   52.5055   28.9153   53.0879 H   0  0  0  0  0  0  0  0  0  0  0  0
   52.3065   26.5966   52.3184 H   0  0  0  0  0  0  0  0  0  0  0  0
   50.9739   26.0559   50.3326 H   0  0  0  0  0  0  0  0  0  0  0  0
   50.1862   27.7413   47.8859 H   0  0  0  0  0  0  0  0  0  0  0  0
   48.6984   28.3088   48.7247 H   0  0  0  0  0  0  0  0  0  0  0  0
   50.8881   25.5168   49.9788 H   0  0  0  0  0  0  0  0  0  0  0  0
   50.1681   23.1902   50.2877 H   0  0  0  0  0  0  0  0  0  0  0  0
   46.4556   24.2284   48.3310 H   0  0  0  0  0  0  0  0  0  0  0  0
   48.0728   31.8948   46.3292 H   0  0  0  0  0  0  0  0  0  0  0  0
   46.7480   30.1962   50.0182 H   0  0  0  0  0  0  0  0  0  0  0  0
   44.6519   31.5051   49.9057 H   0  0  0  0  0  0  0  0  0  0  0  0
   44.2986   33.0117   47.9740 H   0  0  0  0  0  0  0  0  0  0  0  0
   43.9669   36.0393   45.0997 H   0  0  0  0  0  0  0  0  0  0  0  0
   45.2973   35.8822   42.9453 H   0  0  0  0  0  0  0  0  0  0  0  0
   47.0540   34.1120   42.7375 H   0  0  0  0  0  0  0  0  0  0  0  0
  1  2  2  0
  1 10  1  0
  2  3  1  0
  3  4  2  0
  5  4  1  0
  5  6  2  0
  7  6  1  0
  8  7  2  0
  9 10  2  0
  9  8  1  0
 10  5  1  0
 11 14  1  0
 11  9  1  0
 12 13  1  0
 13 19  2  0
 13 14  1  0
 14 15  2  0
 15 16  1  0
 17 18  1  0
 17 16  2  0
 19 17  1  0
 20  1  1  0
 21 22  2  0
 21 26  1  0
 22 23  1  0
 23 20  1  0
 23 24  2  0
 25 24  1  0
 26 25  2  0
 27 32  2  0
 28 27  1  0
 29 28  2  0
 29 30  1  0
 30 31  2  0
 31 32  1  0
 31 21  1  0
  3 33  1  0
  6 34  1  0
  7 35  1  0
  8 36  1  0
 11 37  1  0
 11 38  1  0
 15 39  1  0
 16 40  1  0
 19 41  1  0
 22 42  1  0
 24 43  1  0
 25 44  1  0
 26 45  1  0
 27 46  1  0
 28 47  1  0
 29 48  1  0
M  ISO  8  33  14  34  14  35  14  36  14  37   8  38   8  39  14  40  14
M  ISO  8  41  14  42  14  43  14  44  14  45  14  46  14  47  14  48  14
M  END
>  <minimizedAffinity>  (1) 
-7.12138367

>  <minimizedRMSD>  (1) 
0.642061949

$$$$
