
     RDKit          3D

 33 35  0  0  0  0  0  0  0  0999 V2000
   44.9700   33.7510   47.0200 C   0  0  0  0  0  0  0  0  0  0  0  0
   45.2460   34.0770   45.6950 C   0  0  0  0  0  0  0  0  0  0  0  0
   46.2720   33.5080   44.9830 C   0  0  0  0  0  0  0  0  0  0  0  0
   47.0260   32.5830   45.6590 N   0  0  0  0  0  0  0  0  0  0  0  0
   46.7670   32.2640   46.9350 C   0  0  0  0  0  0  0  0  0  0  0  0
   45.7430   32.8430   47.6200 N   0  0  0  0  0  0  0  0  0  0  0  0
   44.3910   32.3440   42.9800 Cl  0  0  0  0  0  0  0  0  0  0  0  0
   45.7730   33.3420   42.6170 C   0  0  0  0  0  0  0  0  0  0  0  0
   46.5800   33.8320   43.5950 C   0  0  0  0  0  0  0  0  0  0  0  0
   47.6320   34.6010   43.1840 C   0  0  0  0  0  0  0  0  0  0  0  0
   47.9000   34.8900   41.8880 C   0  0  0  0  0  0  0  0  0  0  0  0
   47.0810   34.3920   40.9030 C   0  0  0  0  0  0  0  0  0  0  0  0
   46.0110   33.6110   41.2860 C   0  0  0  0  0  0  0  0  0  0  0  0
   49.0460   35.7280   41.4490 C   0  0  0  0  0  0  0  0  0  0  0  0
   50.1970   35.1140   41.8230 F   0  0  0  0  0  0  0  0  0  0  0  0
   48.9500   37.0120   41.9940 F   0  0  0  0  0  0  0  0  0  0  0  0
   48.9860   35.8570   40.0730 F   0  0  0  0  0  0  0  0  0  0  0  0
   46.6410   29.4370   45.8510 Cl  0  0  0  0  0  0  0  0  0  0  0  0
   47.6120   29.9620   47.2050 C   0  0  0  0  0  0  0  0  0  0  0  0
   47.5950   31.2750   47.6160 C   0  0  0  0  0  0  0  0  0  0  0  0
   48.3460   31.7290   48.6790 C   0  0  0  0  0  0  0  0  0  0  0  0
   49.1430   30.8200   49.3480 C   0  0  0  0  0  0  0  0  0  0  0  0
   49.1660   29.4870   48.9380 C   0  0  0  0  0  0  0  0  0  0  0  0
   50.1700   28.3100   49.7730 Cl  0  0  0  0  0  0  0  0  0  0  0  0
   48.4020   29.0410   47.8630 C   0  0  0  0  0  0  0  0  0  0  0  0
   44.1377   34.2286   47.5578 H   0  0  0  0  0  0  0  0  0  0  0  0
   44.6126   34.8251   45.1958 H   0  0  0  0  0  0  0  0  0  0  0  0
   48.3030   35.0109   43.9533 H   0  0  0  0  0  0  0  0  0  0  0  0
   47.2731   34.6097   39.8420 H   0  0  0  0  0  0  0  0  0  0  0  0
   45.3388   33.1974   40.5198 H   0  0  0  0  0  0  0  0  0  0  0  0
   48.3118   32.7848   48.9859 H   0  0  0  0  0  0  0  0  0  0  0  0
   49.7569   31.1462   50.2005 H   0  0  0  0  0  0  0  0  0  0  0  0
   48.4271   27.9874   47.5478 H   0  0  0  0  0  0  0  0  0  0  0  0
  1  6  2  0
  2  1  1  0
  3  4  1  0
  3  2  2  0
  4  5  2  0
  5 20  1  0
  5  6  1  0
  8  7  1  0
  8  9  2  0
  9  3  1  0
 10  9  1  0
 11 10  2  0
 12 13  2  0
 12 11  1  0
 13  8  1  0
 14 15  1  0
 14 11  1  0
 14 16  1  0
 17 14  1  0
 18 19  1  0
 19 20  2  0
 19 25  1  0
 20 21  1  0
 21 22  2  0
 23 22  1  0
 23 24  1  0
 25 23  2  0
  1 26  1  0
  2 27  1  0
 10 28  1  0
 12 29  1  0
 13 30  1  0
 21 31  1  0
 22 32  1  0
 25 33  1  0
M  ISO  8  26  14  27  14  28  14  29  14  30  14  31  14  32  14  33  14
M  END
>  <minimizedAffinity>  (1) 
-6.45217848

>  <minimizedRMSD>  (1) 
1.11230469

$$$$
