
     RDKit          3D

 47 50  0  0  0  0  0  0  0  0999 V2000
   44.1790   34.5710   40.8670 C   0  0  0  0  0  0  0  0  0  0  0  0
   44.3720   33.3750   41.3030 O   0  0  0  0  0  0  0  0  0  0  0  0
   44.8060   35.5510   41.6900 N   0  0  0  0  0  0  0  0  0  0  0  0
   45.4390   34.9000   42.8160 C   0  0  0  0  0  0  0  0  0  0  0  0
   44.9990   34.9080   44.1020 C   0  0  0  0  0  0  0  0  0  0  0  0
   45.7400   34.2280   45.0330 C   0  0  0  0  0  0  0  0  0  0  0  0
   46.8660   33.5950   44.5890 N   0  0  0  0  0  0  0  0  0  0  0  0
   47.2750   33.6040   43.3140 C   0  0  0  0  0  0  0  0  0  0  0  0
   46.5510   34.2720   42.3880 N   0  0  0  0  0  0  0  0  0  0  0  0
   49.6560   35.3000   42.4460 Cl  0  0  0  0  0  0  0  0  0  0  0  0
   49.6420   33.5530   42.5650 C   0  0  0  0  0  0  0  0  0  0  0  0
   48.5090   32.8800   42.9700 C   0  0  0  0  0  0  0  0  0  0  0  0
   48.4640   31.5040   43.0740 C   0  0  0  0  0  0  0  0  0  0  0  0
   49.6070   30.7660   42.7590 C   0  0  0  0  0  0  0  0  0  0  0  0
   50.7650   31.4140   42.3480 C   0  0  0  0  0  0  0  0  0  0  0  0
   52.1880   30.5040   41.9540 Cl  0  0  0  0  0  0  0  0  0  0  0  0
   50.7590   32.8040   42.2590 C   0  0  0  0  0  0  0  0  0  0  0  0
   43.8160   35.6150   44.3770 N   0  0  0  0  0  0  0  0  0  0  0  0
   43.4550   34.9520   39.7330 O   0  0  0  0  0  0  0  0  0  0  0  0
   42.5970   32.3520   38.5720 Cl  0  0  0  0  0  0  0  0  0  0  0  0
   41.5610   33.6020   39.2430 C   0  0  0  0  0  0  0  0  0  0  0  0
   42.0580   34.7920   39.7670 C   0  0  0  0  0  0  0  0  0  0  0  0
   41.2120   35.7300   40.2760 C   0  0  0  0  0  0  0  0  0  0  0  0
   39.8400   35.5690   40.3070 C   0  0  0  0  0  0  0  0  0  0  0  0
   39.3080   34.3750   39.7850 C   0  0  0  0  0  0  0  0  0  0  0  0
   37.5790   34.0780   39.7790 Cl  0  0  0  0  0  0  0  0  0  0  0  0
   40.1960   33.4520   39.2790 C   0  0  0  0  0  0  0  0  0  0  0  0
   39.8980   31.2730   40.8930 F   0  0  0  0  0  0  0  0  0  0  0  0
   39.5210   31.1150   39.5790 C   0  0  0  0  0  0  0  0  0  0  0  0
   39.6600   32.2050   38.7320 C   0  0  0  0  0  0  0  0  0  0  0  0
   39.2660   32.0040   37.4060 C   0  0  0  0  0  0  0  0  0  0  0  0
   38.7730   30.7600   37.0280 C   0  0  0  0  0  0  0  0  0  0  0  0
   38.6600   29.7060   37.9310 C   0  0  0  0  0  0  0  0  0  0  0  0
   39.0430   29.8710   39.2610 C   0  0  0  0  0  0  0  0  0  0  0  0
   44.8081   36.5653   41.5109 H   0  0  0  0  0  0  0  0  0  0  0  0
   45.4412   34.1935   46.0911 H   0  0  0  0  0  0  0  0  0  0  0  0
   47.5434   30.9975   43.3995 H   0  0  0  0  0  0  0  0  0  0  0  0
   49.5903   29.6689   42.8365 H   0  0  0  0  0  0  0  0  0  0  0  0
   51.6742   33.3208   41.9344 H   0  0  0  0  0  0  0  0  0  0  0  0
   43.4468   35.6471   45.3380 H   0  0  0  0  0  0  0  0  0  0  0  0
   43.3181   36.1010   43.6175 H   0  0  0  0  0  0  0  0  0  0  0  0
   41.6406   36.6585   40.6811 H   0  0  0  0  0  0  0  0  0  0  0  0
   39.1855   36.3478   40.7256 H   0  0  0  0  0  0  0  0  0  0  0  0
   39.3449   32.8190   36.6714 H   0  0  0  0  0  0  0  0  0  0  0  0
   38.4629   30.6038   35.9842 H   0  0  0  0  0  0  0  0  0  0  0  0
   38.2658   28.7365   37.5924 H   0  0  0  0  0  0  0  0  0  0  0  0
   38.9670   29.0612   40.0016 H   0  0  0  0  0  0  0  0  0  0  0  0
  1  2  2  0
  1  3  1  0
  3  4  1  0
  4  5  2  0
  5 18  1  0
  5  6  1  0
  7  6  2  0
  8  7  1  0
  9  4  1  0
  9  8  2  0
 10 11  1  0
 11 12  2  0
 12 13  1  0
 12  8  1  0
 14 13  2  0
 15 14  1  0
 16 15  1  0
 17 15  2  0
 17 11  1  0
 19 22  1  0
 19  1  1  0
 20 21  1  0
 21 27  2  0
 21 22  1  0
 22 23  2  0
 23 24  1  0
 25 24  2  0
 26 25  1  0
 27 25  1  0
 29 28  1  0
 30 27  1  0
 30 29  2  0
 31 30  1  0
 32 31  2  0
 32 33  1  0
 33 34  2  0
 34 29  1  0
  3 35  1  0
  6 36  1  0
 13 37  1  0
 14 38  1  0
 17 39  1  0
 18 40  1  0
 18 41  1  0
 23 42  1  0
 24 43  1  0
 31 44  1  0
 32 45  1  0
 33 46  1  0
 34 47  1  0
M  ISO  8  36  14  37  14  38  14  39  14  42  14  43  14  44  14  45  14
M  ISO  2  46  14  47  14
M  END
>  <minimizedAffinity>  (1) 
-7.06659603

>  <minimizedRMSD>  (1) 
1.41932285

$$$$
