
     RDKit          3D

 23 24  0  0  0  0  0  0  0  0999 V2000
   44.6650   35.3600   45.1410 C   0  0  0  0  0  0  0  0  0  0  0  0
   45.3140   35.4350   43.9170 C   0  0  0  0  0  0  0  0  0  0  0  0
   46.3020   34.5010   43.6250 C   0  0  0  0  0  0  0  0  0  0  0  0
   46.5720   33.5640   44.5600 N   0  0  0  0  0  0  0  0  0  0  0  0
   45.9240   33.5150   45.7390 C   0  0  0  0  0  0  0  0  0  0  0  0
   44.9650   34.4050   46.0480 N   0  0  0  0  0  0  0  0  0  0  0  0
   44.7810   32.9260   41.7110 Cl  0  0  0  0  0  0  0  0  0  0  0  0
   46.2610   33.8380   41.3700 C   0  0  0  0  0  0  0  0  0  0  0  0
   46.9140   34.5850   42.3300 C   0  0  0  0  0  0  0  0  0  0  0  0
   48.0490   35.2620   41.9480 C   0  0  0  0  0  0  0  0  0  0  0  0
   48.5150   35.1900   40.6430 C   0  0  0  0  0  0  0  0  0  0  0  0
   47.8480   34.4320   39.6920 C   0  0  0  0  0  0  0  0  0  0  0  0
   48.4540   34.3580   38.0310 Cl  0  0  0  0  0  0  0  0  0  0  0  0
   46.6970   33.7470   40.0760 C   0  0  0  0  0  0  0  0  0  0  0  0
   44.8320   36.5290   43.0130 C   0  0  0  0  0  0  0  0  0  0  0  0
   43.8851   36.0982   45.3793 H   0  0  0  0  0  0  0  0  0  0  0  0
   46.1846   32.7304   46.4646 H   0  0  0  0  0  0  0  0  0  0  0  0
   48.5941   35.8682   42.6865 H   0  0  0  0  0  0  0  0  0  0  0  0
   49.4241   35.7405   40.3593 H   0  0  0  0  0  0  0  0  0  0  0  0
   46.1437   33.1385   39.3455 H   0  0  0  0  0  0  0  0  0  0  0  0
   44.4619   37.3691   43.6191 H   0  0  0  0  0  0  0  0  0  0  0  0
   45.6621   36.8725   42.3782 H   0  0  0  0  0  0  0  0  0  0  0  0
   44.0183   36.1483   42.3782 H   0  0  0  0  0  0  0  0  0  0  0  0
  1  6  2  0
  2  1  1  0
  3  2  2  0
  3  4  1  0
  4  5  2  0
  5  6  1  0
  8  7  1  0
  8  9  2  0
  9  3  1  0
 10  9  1  0
 11 10  2  0
 12 14  2  0
 12 11  1  0
 13 12  1  0
 14  8  1  0
 15  2  1  0
  1 16  1  0
  5 17  1  0
 10 18  1  0
 11 19  1  0
 14 20  1  0
 15 21  1  0
 15 22  1  0
 15 23  1  0
M  ISO  8  16  14  17  14  18  14  19  14  20  14  21   8  22   8  23   8
M  END
>  <minimizedAffinity>  (1) 
-5.24098539

>  <minimizedRMSD>  (1) 
2.4572475

$$$$
