
     RDKit          3D

 33 36  0  0  0  0  0  0  0  0999 V2000
   44.4300   36.0930   44.3860 C   0  0  0  0  0  0  0  0  0  0  0  0
   45.0280   35.9960   43.0930 C   0  0  0  0  0  0  0  0  0  0  0  0
   45.9240   34.9550   42.8900 C   0  0  0  0  0  0  0  0  0  0  0  0
   46.1870   34.0870   43.9110 N   0  0  0  0  0  0  0  0  0  0  0  0
   45.5930   34.2190   45.1230 C   0  0  0  0  0  0  0  0  0  0  0  0
   44.7270   35.2110   45.3500 N   0  0  0  0  0  0  0  0  0  0  0  0
   47.8970   35.1920   41.5030 C   0  0  0  0  0  0  0  0  0  0  0  0
   46.6090   34.7280   41.6320 C   0  0  0  0  0  0  0  0  0  0  0  0
   46.0550   34.0760   40.5580 C   0  0  0  0  0  0  0  0  0  0  0  0
   46.7150   33.8640   39.3670 C   0  0  0  0  0  0  0  0  0  0  0  0
   46.3520   33.2510   38.2030 N   0  0  0  0  0  0  0  0  0  0  0  0
   47.4350   33.3470   37.3570 C   0  0  0  0  0  0  0  0  0  0  0  0
   48.4320   34.0080   38.0090 N   0  0  0  0  0  0  0  0  0  0  0  0
   48.0100   34.3330   39.2430 C   0  0  0  0  0  0  0  0  0  0  0  0
   48.5870   34.9880   40.3000 C   0  0  0  0  0  0  0  0  0  0  0  0
   47.6740   32.1840   44.4210 Cl  0  0  0  0  0  0  0  0  0  0  0  0
   46.8550   32.2790   45.9710 C   0  0  0  0  0  0  0  0  0  0  0  0
   45.9100   33.2650   46.1800 C   0  0  0  0  0  0  0  0  0  0  0  0
   45.2780   33.3280   47.3980 C   0  0  0  0  0  0  0  0  0  0  0  0
   45.5760   32.4200   48.4080 C   0  0  0  0  0  0  0  0  0  0  0  0
   46.5260   31.4220   48.2100 C   0  0  0  0  0  0  0  0  0  0  0  0
   46.9380   30.2550   49.4480 Cl  0  0  0  0  0  0  0  0  0  0  0  0
   47.1690   31.3590   46.9710 C   0  0  0  0  0  0  0  0  0  0  0  0
   43.7155   36.9032   44.5936 H   0  0  0  0  0  0  0  0  0  0  0  0
   44.7896   36.7135   42.2940 H   0  0  0  0  0  0  0  0  0  0  0  0
   48.3822   35.7193   42.3376 H   0  0  0  0  0  0  0  0  0  0  0  0
   45.0252   33.7014   40.6538 H   0  0  0  0  0  0  0  0  0  0  0  0
   45.4468   32.8046   37.9975 H   0  0  0  0  0  0  0  0  0  0  0  0
   47.4861   32.9565   36.3299 H   0  0  0  0  0  0  0  0  0  0  0  0
   49.6166   35.3626   40.2017 H   0  0  0  0  0  0  0  0  0  0  0  0
   44.5244   34.1090   47.5771 H   0  0  0  0  0  0  0  0  0  0  0  0
   45.0552   32.4911   49.3743 H   0  0  0  0  0  0  0  0  0  0  0  0
   47.9247   30.5819   46.7839 H   0  0  0  0  0  0  0  0  0  0  0  0
  1  6  2  0
  2  1  1  0
  3  2  2  0
  3  4  1  0
  4  5  2  0
  5  6  1  0
  5 18  1  0
  7  8  2  0
  8  3  1  0
  9  8  1  0
 10  9  2  0
 11 10  1  0
 12 13  2  0
 12 11  1  0
 13 14  1  0
 14 10  1  0
 14 15  2  0
 15  7  1  0
 16 17  1  0
 17 18  2  0
 17 23  1  0
 18 19  1  0
 19 20  2  0
 21 20  1  0
 21 22  1  0
 23 21  2  0
  1 24  1  0
  2 25  1  0
  7 26  1  0
  9 27  1  0
 11 28  1  0
 12 29  1  0
 15 30  1  0
 19 31  1  0
 20 32  1  0
 23 33  1  0
M  ISO  8  24  14  25  14  26  14  27  14  28   9  29  14  30  14  31  14
M  ISO  2  32  14  33  14
M  END
>  <minimizedAffinity>  (1) 
-6.46537971

>  <minimizedRMSD>  (1) 
0.552629471

$$$$
