
     RDKit          3D

 47 50  0  0  1  0  0  0  0  0999 V2000
   46.7060   35.4730   42.3020 C   0  0  0  0  0  0  0  0  0  0  0  0
   47.9140   35.0450   41.5350 C   0  0  1  0  0  0  0  0  0  0  0  0
   49.1350   35.9150   41.6000 C   0  0  0  0  0  0  0  0  0  0  0  0
   49.0710   34.5960   42.2940 C   0  0  2  0  0  0  0  0  0  0  0  0
   49.8460   33.5620   41.6180 N   0  0  0  0  0  0  0  0  0  0  0  0
   49.0750   32.6830   40.8230 C   0  0  0  0  0  0  0  0  0  0  0  0
   50.0580   31.6960   40.2200 C   0  0  0  0  0  0  0  0  0  0  0  0
   50.7160   30.9270   41.2160 N   0  0  0  0  0  0  0  0  0  0  0  0
   50.8250   31.5810   42.5060 C   0  0  0  0  0  0  0  0  0  0  0  0
   50.9750   33.0860   42.2900 C   0  0  0  0  0  0  0  0  0  0  0  0
   45.8910   34.2420   42.5650 C   0  0  0  0  0  0  0  0  0  0  0  0
   44.6460   34.7630   46.0660 C   0  0  0  0  0  0  0  0  0  0  0  0
   44.7970   34.9180   44.6630 C   0  0  0  0  0  0  0  0  0  0  0  0
   45.7040   34.1040   44.0460 C   0  0  0  0  0  0  0  0  0  0  0  0
   46.4070   33.2030   44.7790 N   0  0  0  0  0  0  0  0  0  0  0  0
   46.2580   33.0720   46.0770 C   0  0  0  0  0  0  0  0  0  0  0  0
   45.3770   33.8490   46.7330 N   0  0  0  0  0  0  0  0  0  0  0  0
   46.3460   30.2220   45.0180 Cl  0  0  0  0  0  0  0  0  0  0  0  0
   47.1290   30.7790   46.4720 C   0  0  0  0  0  0  0  0  0  0  0  0
   47.0190   32.1000   46.8550 C   0  0  0  0  0  0  0  0  0  0  0  0
   47.6750   32.4450   48.0200 C   0  0  0  0  0  0  0  0  0  0  0  0
   48.4110   31.5710   48.8000 C   0  0  0  0  0  0  0  0  0  0  0  0
   48.4770   30.2670   48.3550 C   0  0  0  0  0  0  0  0  0  0  0  0
   49.4190   29.1640   49.3580 Cl  0  0  0  0  0  0  0  0  0  0  0  0
   47.8440   29.8310   47.1880 C   0  0  0  0  0  0  0  0  0  0  0  0
   46.1207   36.1940   41.7124 H   0  0  0  0  0  0  0  0  0  0  0  0
   46.9938   35.9606   43.2451 H   0  0  0  0  0  0  0  0  0  0  0  0
   47.3087   34.6232   40.7191 H   0  0  0  0  0  0  0  0  0  0  0  0
   49.7718   36.0449   40.7125 H   0  0  0  0  0  0  0  0  0  0  0  0
   49.3490   36.9524   41.8967 H   0  0  0  0  0  0  0  0  0  0  0  0
   49.2283   34.2515   43.3268 H   0  0  0  0  0  0  0  0  0  0  0  0
   48.3353   32.1556   41.4432 H   0  0  0  0  0  0  0  0  0  0  0  0
   48.5190   33.2257   40.0443 H   0  0  0  0  0  0  0  0  0  0  0  0
   49.5126   31.0163   39.5488 H   0  0  0  0  0  0  0  0  0  0  0  0
   50.8213   32.2676   39.6717 H   0  0  0  0  0  0  0  0  0  0  0  0
   50.1920   30.0495   41.3434 H   0  0  0  0  0  0  0  0  0  0  0  0
   49.9195   31.3819   43.0980 H   0  0  0  0  0  0  0  0  0  0  0  0
   51.7018   31.1940   43.0458 H   0  0  0  0  0  0  0  0  0  0  0  0
   51.8740   33.2848   41.6881 H   0  0  0  0  0  0  0  0  0  0  0  0
   51.0723   33.5938   43.2609 H   0  0  0  0  0  0  0  0  0  0  0  0
   44.9109   34.3337   42.0740 H   0  0  0  0  0  0  0  0  0  0  0  0
   46.4061   33.3560   42.1655 H   0  0  0  0  0  0  0  0  0  0  0  0
   43.9280   35.3929   46.6116 H   0  0  0  0  0  0  0  0  0  0  0  0
   44.2111   35.6588   44.0992 H   0  0  0  0  0  0  0  0  0  0  0  0
   47.6075   33.4914   48.3523 H   0  0  0  0  0  0  0  0  0  0  0  0
   48.9146   31.8972   49.7220 H   0  0  0  0  0  0  0  0  0  0  0  0
   47.9098   28.7852   46.8532 H   0  0  0  0  0  0  0  0  0  0  0  0
  1 11  1  0
  2  3  1  0
  2  4  1  0
  2  1  1  0
  3  4  1  0
  5 10  1  0
  5  4  1  0
  6  5  1  0
  7  6  1  0
  7  8  1  0
  8  9  1  0
 10  9  1  0
 11 14  1  0
 12 17  2  0
 13 12  1  0
 14 13  2  0
 14 15  1  0
 15 16  2  0
 16 17  1  0
 16 20  1  0
 18 19  1  0
 19 20  2  0
 19 25  1  0
 20 21  1  0
 21 22  2  0
 23 22  1  0
 23 24  1  0
 25 23  2  0
  1 26  1  0
  1 27  1  0
  2 28  1  6
  3 29  1  0
  3 30  1  0
  4 31  1  1
  6 32  1  0
  6 33  1  0
  7 34  1  0
  7 35  1  0
  8 36  1  0
  9 37  1  0
  9 38  1  0
 10 39  1  0
 10 40  1  0
 11 41  1  0
 11 42  1  0
 12 43  1  0
 13 44  1  0
 21 45  1  0
 22 46  1  0
 25 47  1  0
M  ISO  8  26   8  27   8  28  13  29  13  30  13  31  13  32  13  33  13
M  ISO  8  34  13  35  13  36   5  37  13  38  13  39  13  40  13  41   8
M  ISO  6  42   8  43  14  44  14  45  14  46  14  47  14
M  END
>  <minimizedAffinity>  (1) 
-5.71850538

>  <minimizedRMSD>  (1) 
1.75930929

$$$$
