
     RDKit          3D

 38 41  0  0  1  0  0  0  0  0999 V2000
   46.5830   34.9630   42.7380 C   0  0  0  0  0  0  0  0  0  0  0  0
   45.7230   36.0740   42.7990 C   0  0  0  0  0  0  0  0  0  0  0  0
   44.8230   36.1580   43.8710 C   0  0  0  0  0  0  0  0  0  0  0  0
   44.8380   35.1550   44.7900 N   0  0  0  0  0  0  0  0  0  0  0  0
   45.6810   34.0980   44.7010 C   0  0  0  0  0  0  0  0  0  0  0  0
   46.5550   34.0050   43.6710 N   0  0  0  0  0  0  0  0  0  0  0  0
   46.0120   31.7540   45.2820 C   0  0  0  0  0  0  0  0  0  0  0  0
   45.6820   33.0290   45.6990 C   0  0  0  0  0  0  0  0  0  0  0  0
   45.3730   33.2500   47.0250 C   0  0  0  0  0  0  0  0  0  0  0  0
   45.3960   32.2120   47.9280 C   0  0  0  0  0  0  0  0  0  0  0  0
   45.1530   32.1090   49.2420 N   0  0  0  0  0  0  0  0  0  0  0  0
   45.3220   30.8400   49.6450 C   0  0  0  0  0  0  0  0  0  0  0  0
   45.6850   30.0680   48.5770 C   0  0  0  0  0  0  0  0  0  0  0  0
   45.7310   30.9260   47.5040 C   0  0  0  0  0  0  0  0  0  0  0  0
   46.0420   30.6990   46.1680 C   0  0  0  0  0  0  0  0  0  0  0  0
   47.4510   34.9710   41.5980 C   0  0  0  0  0  0  0  0  0  0  0  0
   48.5810   35.6040   41.5600 O   0  0  0  0  0  0  0  0  0  0  0  0
   45.1470   33.0450   40.9260 Cl  0  0  0  0  0  0  0  0  0  0  0  0
   46.3930   33.5100   39.8240 C   0  0  0  0  0  0  0  0  0  0  0  0
   47.3690   34.3550   40.2610 C   0  0  0  0  0  0  0  0  0  0  0  0
   48.3180   34.6290   39.2630 C   0  0  0  0  0  0  0  0  0  0  0  0
   48.3140   34.1310   37.9800 C   0  0  0  0  0  0  0  0  0  0  0  0
   47.2820   33.2850   37.6400 C   0  0  0  0  0  0  0  0  0  0  0  0
   47.2640   32.6470   36.0190 Cl  0  0  0  0  0  0  0  0  0  0  0  0
   46.3250   32.9750   38.5580 C   0  0  0  0  0  0  0  0  0  0  0  0
   45.7555   36.8563   42.0264 H   0  0  0  0  0  0  0  0  0  0  0  0
   44.1286   37.0059   43.9656 H   0  0  0  0  0  0  0  0  0  0  0  0
   46.2552   31.5778   44.2238 H   0  0  0  0  0  0  0  0  0  0  0  0
   45.1065   34.2624   47.3627 H   0  0  0  0  0  0  0  0  0  0  0  0
   44.8767   32.8903   49.8537 H   0  0  0  0  0  0  0  0  0  0  0  0
   45.1890   30.4774   50.6750 H   0  0  0  0  0  0  0  0  0  0  0  0
   45.8958   28.9884   48.5763 H   0  0  0  0  0  0  0  0  0  0  0  0
   46.3088   29.6894   45.8224 H   0  0  0  0  0  0  0  0  0  0  0  0
   47.9645   34.0775   41.9827 H   0  0  0  0  0  0  0  0  0  0  0  0
   48.8927   35.7786   42.4833 H   0  0  0  0  0  0  0  0  0  0  0  0
   49.1425   35.3056   39.5321 H   0  0  0  0  0  0  0  0  0  0  0  0
   49.1003   34.3969   37.2582 H   0  0  0  0  0  0  0  0  0  0  0  0
   45.5002   32.2990   38.2883 H   0  0  0  0  0  0  0  0  0  0  0  0
  1  2  2  0
  1  6  1  0
  2  3  1  0
  3  4  2  0
  5  4  1  0
  5  8  1  0
  6  5  2  0
  7  8  2  0
  7 15  1  0
  8  9  1  0
  9 10  2  0
 10 11  1  0
 11 12  1  0
 13 12  2  0
 14 10  1  0
 14 13  1  0
 15 14  2  0
 16 17  1  0
 16  1  1  0
 19 20  2  0
 19 18  1  0
 20 16  1  0
 21 20  1  0
 22 21  2  0
 23 22  1  0
 23 25  2  0
 24 23  1  0
 25 19  1  0
  2 26  1  0
  3 27  1  0
  7 28  1  0
  9 29  1  0
 11 30  1  0
 12 31  1  0
 13 32  1  0
 15 33  1  0
 16 34  1  0
 17 35  1  0
 21 36  1  0
 22 37  1  0
 25 38  1  0
M  ISO  8  26  14  27  14  28  14  29  14  30   9  31  14  32  14  33  14
M  ISO  5  34   8  35   3  36  14  37  14  38  14
M  END
>  <minimizedAffinity>  (1) 
-6.70341969

>  <minimizedRMSD>  (1) 
0.82195437

$$$$
