
     RDKit          3D

 30 32  0  0  0  0  0  0  0  0999 V2000
   44.2380   33.8030   40.7580 C   0  0  0  0  0  0  0  0  0  0  0  0
   45.3040   34.2650   41.5250 C   0  0  0  0  0  0  0  0  0  0  0  0
   46.5650   34.1780   40.9470 C   0  0  0  0  0  0  0  0  0  0  0  0
   46.6810   33.6540   39.6880 N   0  0  0  0  0  0  0  0  0  0  0  0
   45.6340   33.2240   38.9910 C   0  0  0  0  0  0  0  0  0  0  0  0
   44.3990   33.2960   39.5280 N   0  0  0  0  0  0  0  0  0  0  0  0
   45.0650   34.7990   42.8510 C   0  0  0  0  0  0  0  0  0  0  0  0
   44.9080   36.1390   43.1130 C   0  0  0  0  0  0  0  0  0  0  0  0
   44.7090   36.1800   44.4820 C   0  0  0  0  0  0  0  0  0  0  0  0
   44.7440   34.9310   45.0190 N   0  0  0  0  0  0  0  0  0  0  0  0
   44.9590   34.1260   44.0110 N   0  0  0  0  0  0  0  0  0  0  0  0
   42.9640   33.8700   41.2950 O   0  0  0  0  0  0  0  0  0  0  0  0
   41.9680   34.7430   40.9620 C   0  0  0  0  0  0  0  0  0  0  0  0
   41.7930   35.9310   41.4180 O   0  0  0  0  0  0  0  0  0  0  0  0
   39.7310   32.9220   41.8900 Cl  0  0  0  0  0  0  0  0  0  0  0  0
   39.8270   33.6000   40.2800 C   0  0  0  0  0  0  0  0  0  0  0  0
   40.8950   34.4170   39.9780 C   0  0  0  0  0  0  0  0  0  0  0  0
   40.8670   34.8930   38.6880 C   0  0  0  0  0  0  0  0  0  0  0  0
   39.8860   34.6010   37.7700 C   0  0  0  0  0  0  0  0  0  0  0  0
   38.8550   33.7790   38.1510 C   0  0  0  0  0  0  0  0  0  0  0  0
   37.6150   33.4150   36.9770 Cl  0  0  0  0  0  0  0  0  0  0  0  0
   38.8060   33.2580   39.4250 C   0  0  0  0  0  0  0  0  0  0  0  0
   47.4551   34.5246   41.4925 H   0  0  0  0  0  0  0  0  0  0  0  0
   45.7742   32.8114   37.9810 H   0  0  0  0  0  0  0  0  0  0  0  0
   44.9343   36.9791   42.4034 H   0  0  0  0  0  0  0  0  0  0  0  0
   44.5442   37.1015   45.0597 H   0  0  0  0  0  0  0  0  0  0  0  0
   44.6262   34.6737   46.0094 H   0  0  0  0  0  0  0  0  0  0  0  0
   41.6866   35.5534   38.3684 H   0  0  0  0  0  0  0  0  0  0  0  0
   39.9265   35.0170   36.7525 H   0  0  0  0  0  0  0  0  0  0  0  0
   37.9863   32.5975   39.7443 H   0  0  0  0  0  0  0  0  0  0  0  0
  1 12  1  0
  1  2  1  0
  2  7  1  0
  3  2  2  0
  4  3  1  0
  5  6  1  0
  5  4  2  0
  6  1  2  0
  7  8  1  0
  7 11  2  0
  8  9  2  0
  9 10  1  0
 11 10  1  0
 13 12  1  0
 13 14  2  0
 16 15  1  0
 17 16  2  0
 17 13  1  0
 18 17  1  0
 19 20  1  0
 19 18  2  0
 20 22  2  0
 21 20  1  0
 22 16  1  0
  3 23  1  0
  5 24  1  0
  8 25  1  0
  9 26  1  0
 10 27  1  0
 18 28  1  0
 19 29  1  0
 22 30  1  0
M  ISO  8  23  14  24  14  25  14  26  14  27   9  28  14  29  14  30  14
M  END
>  <minimizedAffinity>  (1) 
-6.13699389

>  <minimizedRMSD>  (1) 
2.47816586

$$$$
