
     RDKit          3D

 49 52  0  0  1  0  0  0  0  0999 V2000
   49.3040   32.0980   37.0110 C   0  0  0  0  0  0  0  0  0  0  0  0
   48.4100   32.9240   37.7330 C   0  0  0  0  0  0  0  0  0  0  0  0
   47.1890   33.0640   37.1220 C   0  0  0  0  0  0  0  0  0  0  0  0
   46.8010   32.4930   35.9340 C   0  0  0  0  0  0  0  0  0  0  0  0
   47.7120   31.6950   35.2680 C   0  0  0  0  0  0  0  0  0  0  0  0
   48.9630   31.5160   35.8360 C   0  0  0  0  0  0  0  0  0  0  0  0
   50.3640   31.1270   33.8690 C   0  0  0  0  0  0  0  0  0  0  0  0
   50.0360   32.2830   33.4130 O   0  0  0  0  0  0  0  0  0  0  0  0
   49.8790   30.6840   35.1200 N   0  0  0  0  0  0  0  0  0  0  0  0
   48.8150   29.4240   32.0490 Cl  0  0  0  0  0  0  0  0  0  0  0  0
   50.5800   29.5150   32.1140 C   0  0  0  0  0  0  0  0  0  0  0  0
   51.2480   30.3500   33.0090 C   0  0  0  0  0  0  0  0  0  0  0  0
   52.6230   30.4060   33.0450 C   0  0  0  0  0  0  0  0  0  0  0  0
   53.3140   29.5940   32.1480 C   0  0  0  0  0  0  0  0  0  0  0  0
   52.6720   28.7650   31.2590 C   0  0  0  0  0  0  0  0  0  0  0  0
   53.5650   27.7630   30.1540 Cl  0  0  0  0  0  0  0  0  0  0  0  0
   51.2880   28.7120   31.2290 C   0  0  0  0  0  0  0  0  0  0  0  0
   48.7200   33.5500   38.9590 N   0  0  0  0  0  0  0  0  0  0  0  0
   47.6640   34.2300   42.2930 N   0  0  0  0  0  0  0  0  0  0  0  0
   47.7620   34.6850   40.9080 C   0  0  0  0  0  0  0  0  0  0  0  0
   48.1700   33.4080   40.2630 C   0  0  2  0  0  0  0  0  0  0  0  0
   49.3110   32.9730   41.1800 C   0  0  0  0  0  0  0  0  0  0  0  0
   48.8160   33.4090   42.5330 C   0  0  0  0  0  0  0  0  0  0  0  0
   44.7690   35.6390   44.1860 C   0  0  0  0  0  0  0  0  0  0  0  0
   45.6950   35.4760   43.1510 C   0  0  0  0  0  0  0  0  0  0  0  0
   46.6850   34.4930   43.2540 C   0  0  0  0  0  0  0  0  0  0  0  0
   46.6700   33.7440   44.3940 N   0  0  0  0  0  0  0  0  0  0  0  0
   45.7930   33.8910   45.3880 C   0  0  0  0  0  0  0  0  0  0  0  0
   44.8390   34.8440   45.2810 N   0  0  0  0  0  0  0  0  0  0  0  0
   51.6660   31.7280   38.0560 N   0  0  0  0  0  0  0  0  0  0  0  0
   50.6210   31.9030   37.5960 C   0  0  0  0  0  0  0  0  0  0  0  0
   46.4480   33.6956   37.6339 H   0  0  0  0  0  0  0  0  0  0  0  0
   45.7947   32.6659   35.5249 H   0  0  0  0  0  0  0  0  0  0  0  0
   47.4510   31.2152   34.3132 H   0  0  0  0  0  0  0  0  0  0  0  0
   50.1797   29.7788   35.5087 H   0  0  0  0  0  0  0  0  0  0  0  0
   53.1528   31.0628   33.7507 H   0  0  0  0  0  0  0  0  0  0  0  0
   54.4138   29.6172   32.1513 H   0  0  0  0  0  0  0  0  0  0  0  0
   50.7636   28.0514   30.5229 H   0  0  0  0  0  0  0  0  0  0  0  0
   49.4857   34.2363   38.8985 H   0  0  0  0  0  0  0  0  0  0  0  0
   46.7969   35.0487   40.5255 H   0  0  0  0  0  0  0  0  0  0  0  0
   48.4404   35.5343   40.7393 H   0  0  0  0  0  0  0  0  0  0  0  0
   47.3090   32.7336   40.1456 H   0  0  0  0  0  0  0  0  0  0  0  0
   49.4601   31.8838   41.1419 H   0  0  0  0  0  0  0  0  0  0  0  0
   50.2856   33.4037   40.9067 H   0  0  0  0  0  0  0  0  0  0  0  0
   49.5932   33.9860   43.0555 H   0  0  0  0  0  0  0  0  0  0  0  0
   48.5670   32.5446   43.1661 H   0  0  0  0  0  0  0  0  0  0  0  0
   43.9872   36.4092   44.1116 H   0  0  0  0  0  0  0  0  0  0  0  0
   45.6452   36.1182   42.2593 H   0  0  0  0  0  0  0  0  0  0  0  0
   45.8446   33.2484   46.2793 H   0  0  0  0  0  0  0  0  0  0  0  0
  1 31  1  0
  1  2  2  0
  2 18  1  0
  3  2  1  0
  4  3  2  0
  5  6  2  0
  5  4  1  0
  6  1  1  0
  7  9  1  0
  8  7  2  0
  9  6  1  0
 10 11  1  0
 11 12  2  0
 12 13  1  0
 12  7  1  0
 14 13  2  0
 15 14  1  0
 16 15  1  0
 17 15  2  0
 17 11  1  0
 18 21  1  0
 19 23  1  0
 19 26  1  0
 20 19  1  0
 21 20  1  0
 21 22  1  0
 22 23  1  0
 24 29  2  0
 25 26  2  0
 25 24  1  0
 26 27  1  0
 27 28  2  0
 29 28  1  0
 31 30  3  0
  3 32  1  0
  4 33  1  0
  5 34  1  0
  9 35  1  0
 13 36  1  0
 14 37  1  0
 17 38  1  0
 18 39  1  0
 20 40  1  0
 20 41  1  0
 21 42  1  6
 22 43  1  0
 22 44  1  0
 23 45  1  0
 23 46  1  0
 24 47  1  0
 25 48  1  0
 28 49  1  0
M  ISO  8  32  14  33  14  34  14  36  14  37  14  38  14  40  13  41  13
M  ISO  8  42  13  43  13  44  13  45  13  46  13  47  14  48  14  49  14
M  END
>  <minimizedAffinity>  (1) 
-5.72527409

>  <minimizedRMSD>  (1) 
0.97115916

$$$$
