
     RDKit          3D

 22 23  0  0  0  0  0  0  0  0999 V2000
   45.7420   32.7980   47.1090 C   0  0  0  0  0  0  0  0  0  0  0  0
   44.7360   33.1130   47.8140 O   0  0  0  0  0  0  0  0  0  0  0  0
   45.3140   29.9240   46.2970 Cl  0  0  0  0  0  0  0  0  0  0  0  0
   46.6400   30.4810   47.2830 C   0  0  0  0  0  0  0  0  0  0  0  0
   46.7290   31.8060   47.5850 C   0  0  0  0  0  0  0  0  0  0  0  0
   47.7460   32.3520   48.3610 C   0  0  0  0  0  0  0  0  0  0  0  0
   48.7340   31.5350   48.8700 C   0  0  0  0  0  0  0  0  0  0  0  0
   48.6600   30.1730   48.5710 C   0  0  0  0  0  0  0  0  0  0  0  0
   49.8990   29.0900   49.1980 Cl  0  0  0  0  0  0  0  0  0  0  0  0
   47.6270   29.6760   47.7930 C   0  0  0  0  0  0  0  0  0  0  0  0
   45.3370   34.9630   44.2160 C   0  0  0  0  0  0  0  0  0  0  0  0
   46.3550   34.5700   43.3440 C   0  0  0  0  0  0  0  0  0  0  0  0
   47.1930   33.5350   43.7720 C   0  0  0  0  0  0  0  0  0  0  0  0
   46.9760   32.9780   44.9890 N   0  0  0  0  0  0  0  0  0  0  0  0
   45.9790   33.3950   45.7960 C   0  0  0  0  0  0  0  0  0  0  0  0
   45.1710   34.3830   45.3990 N   0  0  0  0  0  0  0  0  0  0  0  0
   47.7624   33.4322   48.5682 H   0  0  0  0  0  0  0  0  0  0  0  0
   49.5488   31.9408   49.4876 H   0  0  0  0  0  0  0  0  0  0  0  0
   47.5971   28.5979   47.5765 H   0  0  0  0  0  0  0  0  0  0  0  0
   44.6561   35.7729   43.9153 H   0  0  0  0  0  0  0  0  0  0  0  0
   46.4915   35.0526   42.3650 H   0  0  0  0  0  0  0  0  0  0  0  0
   48.0140   33.1791   43.1322 H   0  0  0  0  0  0  0  0  0  0  0  0
  1  5  1  0
  1  2  2  0
  3  4  1  0
  4  5  2  0
  4 10  1  0
  5  6  1  0
  6  7  2  0
  8  7  1  0
  8  9  1  0
 10  8  2  0
 11 16  2  0
 12 13  2  0
 12 11  1  0
 13 14  1  0
 14 15  2  0
 15  1  1  0
 16 15  1  0
  6 17  1  0
  7 18  1  0
 10 19  1  0
 11 20  1  0
 12 21  1  0
 13 22  1  0
M  ISO  6  17  14  18  14  19  14  20  14  21  14  22  14
M  END
>  <minimizedAffinity>  (1) 
-4.53936529

>  <minimizedRMSD>  (1) 
2.03022885

$$$$
