
     RDKit          3D

 31 33  0  0  0  0  0  0  0  0999 V2000
   45.9480   33.6850   44.6730 C   0  0  0  0  0  0  0  0  0  0  0  0
   45.1830   34.7690   44.9260 C   0  0  0  0  0  0  0  0  0  0  0  0
   44.8990   35.7400   44.0040 C   0  0  0  0  0  0  0  0  0  0  0  0
   45.4370   35.5690   42.7700 N   0  0  0  0  0  0  0  0  0  0  0  0
   46.1980   34.4940   42.5090 C   0  0  0  0  0  0  0  0  0  0  0  0
   46.4780   33.5340   43.4240 N   0  0  0  0  0  0  0  0  0  0  0  0
   46.7790   34.3160   41.1620 C   0  0  0  0  0  0  0  0  0  0  0  0
   46.0970   33.5690   40.2230 C   0  0  0  0  0  0  0  0  0  0  0  0
   46.5730   33.3550   38.9410 C   0  0  0  0  0  0  0  0  0  0  0  0
   47.7920   33.9180   38.5870 C   0  0  0  0  0  0  0  0  0  0  0  0
   48.4570   34.6520   39.5180 C   0  0  0  0  0  0  0  0  0  0  0  0
   47.9830   34.8660   40.8000 C   0  0  0  0  0  0  0  0  0  0  0  0
   48.7320   35.6780   41.8130 C   0  0  0  0  0  0  0  0  0  0  0  0
   46.1820   30.4280   46.3330 C   0  0  0  0  0  0  0  0  0  0  0  0
   46.7360   30.7560   47.5620 C   0  0  0  0  0  0  0  0  0  0  0  0
   47.0340   32.0930   47.8330 C   0  0  0  0  0  0  0  0  0  0  0  0
   46.7630   33.0260   46.8640 N   0  0  0  0  0  0  0  0  0  0  0  0
   46.2270   32.6700   45.6880 C   0  0  0  0  0  0  0  0  0  0  0  0
   45.9360   31.3860   45.4130 N   0  0  0  0  0  0  0  0  0  0  0  0
   44.7618   34.8783   45.9363 H   0  0  0  0  0  0  0  0  0  0  0  0
   44.2708   36.6090   44.2493 H   0  0  0  0  0  0  0  0  0  0  0  0
   45.1318   33.1237   40.5061 H   0  0  0  0  0  0  0  0  0  0  0  0
   45.9996   32.7536   38.2202 H   0  0  0  0  0  0  0  0  0  0  0  0
   48.2087   33.7737   37.5793 H   0  0  0  0  0  0  0  0  0  0  0  0
   49.4221   35.0990   39.2375 H   0  0  0  0  0  0  0  0  0  0  0  0
   48.4400   35.3614   42.8252 H   0  0  0  0  0  0  0  0  0  0  0  0
   49.8130   35.5253   41.6786 H   0  0  0  0  0  0  0  0  0  0  0  0
   48.4927   36.7432   41.6786 H   0  0  0  0  0  0  0  0  0  0  0  0
   45.9411   29.3790   46.1059 H   0  0  0  0  0  0  0  0  0  0  0  0
   46.9372   29.9756   48.3107 H   0  0  0  0  0  0  0  0  0  0  0  0
   47.4738   32.3901   48.7965 H   0  0  0  0  0  0  0  0  0  0  0  0
  1  2  2  0
  1 18  1  0
  3  2  1  0
  4  3  2  0
  5  4  1  0
  5  6  2  0
  6  1  1  0
  7  5  1  0
  8  7  2  0
  9  8  1  0
 10  9  2  0
 10 11  1  0
 11 12  2  0
 12  7  1  0
 12 13  1  0
 14 15  2  0
 15 16  1  0
 17 16  2  0
 18 17  1  0
 19 18  2  0
 19 14  1  0
  2 20  1  0
  3 21  1  0
  8 22  1  0
  9 23  1  0
 10 24  1  0
 11 25  1  0
 13 26  1  0
 13 27  1  0
 13 28  1  0
 14 29  1  0
 15 30  1  0
 16 31  1  0
M  ISO  8  20  14  21  14  22  14  23  14  24  14  25  14  26   8  27   8
M  ISO  4  28   8  29  14  30  14  31  14
M  END
>  <minimizedAffinity>  (1) 
-5.71098566

>  <minimizedRMSD>  (1) 
1.08666098

$$$$
