
     RDKit          3D

 27 28  0  0  1  0  0  0  0  0999 V2000
   44.4840   35.7390   44.9880 C   0  0  0  0  0  0  0  0  0  0  0  0
   45.1060   35.7290   43.7430 C   0  0  0  0  0  0  0  0  0  0  0  0
   46.0160   34.7310   43.4950 C   0  0  0  0  0  0  0  0  0  0  0  0
   46.2520   33.8200   44.4720 N   0  0  0  0  0  0  0  0  0  0  0  0
   45.6410   33.8570   45.6520 C   0  0  0  0  0  0  0  0  0  0  0  0
   44.7400   34.8230   45.9340 N   0  0  0  0  0  0  0  0  0  0  0  0
   45.9440   32.8610   46.6190 N   0  0  0  0  0  0  0  0  0  0  0  0
   45.1510   32.5670   47.8100 C   0  0  0  0  0  0  0  0  0  0  0  0
   46.2360   32.2610   48.8160 C   0  0  0  0  0  0  0  0  0  0  0  0
   47.5220   32.0610   48.0460 C   0  0  0  0  0  0  0  0  0  0  0  0
   47.0720   31.9540   46.6270 C   0  0  1  0  0  0  0  0  0  0  0  0
   44.7150   36.7780   42.8490 N   0  0  0  0  0  0  0  0  0  0  0  0
   46.7390   30.5700   46.1750 C   0  0  0  0  0  0  0  0  0  0  0  0
   43.7521   36.5309   45.2053 H   0  0  0  0  0  0  0  0  0  0  0  0
   46.5398   34.6718   42.5295 H   0  0  0  0  0  0  0  0  0  0  0  0
   44.5488   33.4346   48.1178 H   0  0  0  0  0  0  0  0  0  0  0  0
   44.4179   31.7579   47.6762 H   0  0  0  0  0  0  0  0  0  0  0  0
   46.3450   33.1003   49.5187 H   0  0  0  0  0  0  0  0  0  0  0  0
   45.9859   31.3602   49.3957 H   0  0  0  0  0  0  0  0  0  0  0  0
   48.1968   32.9193   48.1798 H   0  0  0  0  0  0  0  0  0  0  0  0
   48.0869   31.1788   48.3816 H   0  0  0  0  0  0  0  0  0  0  0  0
   47.8603   32.2109   45.9041 H   0  0  0  0  0  0  0  0  0  0  0  0
   45.1325   36.8360   41.9092 H   0  0  0  0  0  0  0  0  0  0  0  0
   44.0164   37.4741   43.1461 H   0  0  0  0  0  0  0  0  0  0  0  0
   46.5838   29.9251   47.0525 H   0  0  0  0  0  0  0  0  0  0  0  0
   45.8207   30.5929   45.5698 H   0  0  0  0  0  0  0  0  0  0  0  0
   47.5672   30.1727   45.5698 H   0  0  0  0  0  0  0  0  0  0  0  0
  1  6  2  0
  2  1  1  0
  3  2  2  0
  3  4  1  0
  4  5  2  0
  5  6  1  0
  5  7  1  0
  7 11  1  0
  7  8  1  0
  8  9  1  0
 10  9  1  0
 11 10  1  0
 12  2  1  0
 13 11  1  0
  1 14  1  0
  3 15  1  0
  8 16  1  0
  8 17  1  0
  9 18  1  0
  9 19  1  0
 10 20  1  0
 10 21  1  0
 11 22  1  6
 12 23  1  0
 12 24  1  0
 13 25  1  0
 13 26  1  0
 13 27  1  0
M  ISO  8  14  14  15  14  16  13  17  13  18  13  19  13  20  13  21  13
M  ISO  4  22  13  25   8  26   8  27   8
M  END
>  <minimizedAffinity>  (1) 
-5.03875637

>  <minimizedRMSD>  (1) 
0.0289270822

$$$$
