
     RDKit          3D

 44 47  0  0  1  0  0  0  0  0999 V2000
   46.1450   33.0930   46.1700 C   0  0  0  0  0  0  0  0  0  0  0  0
   46.9250   32.1510   45.8460 C   0  0  0  0  0  0  0  0  0  0  0  0
   44.5320   35.8780   44.3740 C   0  0  0  0  0  0  0  0  0  0  0  0
   45.1640   35.8590   43.1370 C   0  0  0  0  0  0  0  0  0  0  0  0
   46.1090   34.9000   42.9580 C   0  0  0  0  0  0  0  0  0  0  0  0
   46.4000   34.0210   43.9560 N   0  0  0  0  0  0  0  0  0  0  0  0
   45.7640   34.0700   45.1470 C   0  0  0  0  0  0  0  0  0  0  0  0
   44.8420   35.0020   45.3240 N   0  0  0  0  0  0  0  0  0  0  0  0
   46.8530   34.7570   41.7110 C   0  0  0  0  0  0  0  0  0  0  0  0
   48.0550   35.3440   41.4440 C   0  0  0  0  0  0  0  0  0  0  0  0
   48.7450   35.1980   40.2580 C   0  0  0  0  0  0  0  0  0  0  0  0
   48.2140   34.4130   39.2540 C   0  0  0  0  0  0  0  0  0  0  0  0
   47.0090   33.7990   39.4650 C   0  0  0  0  0  0  0  0  0  0  0  0
   46.3570   33.9780   40.6710 C   0  0  0  0  0  0  0  0  0  0  0  0
   47.2340   31.1470   46.9340 C   0  0  0  0  0  0  0  0  0  0  0  0
   47.0300   31.7500   48.2780 C   0  0  1  0  0  0  0  0  0  0  0  0
   46.3070   30.8790   49.2490 C   0  0  0  0  0  0  0  0  0  0  0  0
   47.7190   31.1880   49.4580 C   0  0  1  0  0  0  0  0  0  0  0  0
   48.7870   30.1670   49.2260 C   0  0  2  0  0  0  0  0  0  0  0  0
   49.7690   30.0270   50.4180 C   0  0  0  0  0  0  0  0  0  0  0  0
   50.2340   30.6650   49.1770 C   0  0  1  0  0  0  0  0  0  0  0  0
   51.1700   30.0120   48.2070 C   0  0  0  0  0  0  0  0  0  0  0  0
   45.7613   33.1766   47.1975 H   0  0  0  0  0  0  0  0  0  0  0  0
   47.3519   32.0674   44.8357 H   0  0  0  0  0  0  0  0  0  0  0  0
   43.7582   36.6345   44.5714 H   0  0  0  0  0  0  0  0  0  0  0  0
   44.9129   36.5810   42.3460 H   0  0  0  0  0  0  0  0  0  0  0  0
   48.5036   35.9751   42.2253 H   0  0  0  0  0  0  0  0  0  0  0  0
   49.7112   35.7034   40.1135 H   0  0  0  0  0  0  0  0  0  0  0  0
   48.7495   34.2834   38.3019 H   0  0  0  0  0  0  0  0  0  0  0  0
   46.5631   33.1685   38.6817 H   0  0  0  0  0  0  0  0  0  0  0  0
   45.3896   33.4750   40.8165 H   0  0  0  0  0  0  0  0  0  0  0  0
   46.5687   30.2780   46.8232 H   0  0  0  0  0  0  0  0  0  0  0  0
   48.2852   30.8367   46.8411 H   0  0  0  0  0  0  0  0  0  0  0  0
   46.9417   32.7685   47.8721 H   0  0  0  0  0  0  0  0  0  0  0  0
   45.5452   31.3115   49.9142 H   0  0  0  0  0  0  0  0  0  0  0  0
   45.7164   29.9540   49.1737 H   0  0  0  0  0  0  0  0  0  0  0  0
   48.2805   31.5893   50.3145 H   0  0  0  0  0  0  0  0  0  0  0  0
   48.1713   29.5133   48.5907 H   0  0  0  0  0  0  0  0  0  0  0  0
   49.6211   30.6336   51.3236 H   0  0  0  0  0  0  0  0  0  0  0  0
   50.1217   29.1869   51.0344 H   0  0  0  0  0  0  0  0  0  0  0  0
   50.7438   31.6224   48.9942 H   0  0  0  0  0  0  0  0  0  0  0  0
   51.9500   29.4679   48.7598 H   0  0  0  0  0  0  0  0  0  0  0  0
   50.6098   29.3077   47.5744 H   0  0  0  0  0  0  0  0  0  0  0  0
   51.6376   30.7809   47.5744 H   0  0  0  0  0  0  0  0  0  0  0  0
  2  1  2  0
  2 15  1  0
  3  8  2  0
  4  3  1  0
  5  4  2  0
  5  6  1  0
  6  7  2  0
  7  8  1  0
  7  1  1  0
  9  5  1  0
 10  9  2  0
 11 10  1  0
 12 13  1  0
 12 11  2  0
 13 14  2  0
 14  9  1  0
 15 16  1  0
 16 17  1  0
 16 18  1  0
 17 18  1  0
 19 18  1  0
 19 20  1  0
 21 19  1  0
 21 20  1  0
 22 21  1  0
  1 23  1  0
  2 24  1  0
  3 25  1  0
  4 26  1  0
 10 27  1  0
 11 28  1  0
 12 29  1  0
 13 30  1  0
 14 31  1  0
 15 32  1  0
 15 33  1  0
 16 34  1  6
 17 35  1  0
 17 36  1  0
 18 37  1  1
 19 38  1  6
 20 39  1  0
 20 40  1  0
 21 41  1  1
 22 42  1  0
 22 43  1  0
 22 44  1  0
M  ISO  8  25  14  26  14  27  14  28  14  29  14  30  14  31  14  32   8
M  ISO  8  33   8  34  13  35  13  36  13  37  13  38  13  39  13  40  13
M  ISO  4  41  13  42   8  43   8  44   8
M  END
>  <minimizedAffinity>  (1) 
-6.14099503

>  <minimizedRMSD>  (1) 
0.716745496

$$$$
