
     RDKit          3D

 47 50  0  0  1  0  0  0  0  0999 V2000
   47.2390   32.7760   44.2040 C   0  0  0  0  0  0  0  0  0  0  0  0
   47.9580   33.0750   43.1270 C   0  0  0  0  0  0  0  0  0  0  0  0
   48.7840   32.0610   42.6900 C   0  0  0  0  0  0  0  0  0  0  0  0
   48.7860   30.8510   43.4010 N   0  0  0  0  0  0  0  0  0  0  0  0
   48.0570   30.6220   44.4540 C   0  0  0  0  0  0  0  0  0  0  0  0
   47.2150   31.6120   44.9230 N   0  0  0  0  0  0  0  0  0  0  0  0
   48.0480   34.3240   42.4690 C   0  0  1  0  0  0  0  0  0  0  0  0
   48.9220   34.7230   41.5060 C   0  0  0  0  0  0  0  0  0  0  0  0
   47.5370   34.4560   41.0050 C   0  0  1  0  0  0  0  0  0  0  0  0
   46.1810   33.3000   39.2010 C   0  0  1  0  0  0  0  0  0  0  0  0
   47.3800   33.3270   40.0960 C   0  0  1  0  0  0  0  0  0  0  0  0
   48.5160   33.3920   39.1030 C   0  0  0  0  0  0  0  0  0  0  0  0
   48.0110   34.1670   38.0820 O   0  0  0  0  0  0  0  0  0  0  0  0
   46.7160   33.6910   37.8630 C   0  0  0  0  0  0  0  0  0  0  0  0
   45.7570   31.9600   39.0960 O   0  0  0  0  0  0  0  0  0  0  0  0
   46.2240   33.6370   44.8480 C   0  0  0  0  0  0  0  0  0  0  0  0
   45.6820   34.1470   45.7860 O   0  0  0  0  0  0  0  0  0  0  0  0
   44.4830   31.7710   43.1100 Cl  0  0  0  0  0  0  0  0  0  0  0  0
   44.5200   33.5130   42.8840 C   0  0  0  0  0  0  0  0  0  0  0  0
   45.3620   34.2280   43.7750 C   0  0  0  0  0  0  0  0  0  0  0  0
   45.3000   35.5750   43.5020 C   0  0  0  0  0  0  0  0  0  0  0  0
   44.6170   36.2490   42.5880 C   0  0  0  0  0  0  0  0  0  0  0  0
   43.8240   35.4870   41.7570 C   0  0  0  0  0  0  0  0  0  0  0  0
   43.7690   34.1320   41.8990 C   0  0  0  0  0  0  0  0  0  0  0  0
   42.9420   33.4900   41.0160 O   0  0  0  0  0  0  0  0  0  0  0  0
   40.7390   32.7200   39.8180 O   0  0  0  0  0  0  0  0  0  0  0  0
   41.3050   33.0700   41.1720 P   0  0  0  0  0  0  0  0  0  0  0  0
   41.1590   31.7730   42.2520 O   0  0  0  0  0  0  0  0  0  0  0  0
   40.4070   34.3330   41.8570 O   0  0  0  0  0  0  0  0  0  0  0  0
   49.4251   32.1970   41.8065 H   0  0  0  0  0  0  0  0  0  0  0  0
   48.1105   29.6498   44.9658 H   0  0  0  0  0  0  0  0  0  0  0  0
   47.8378   34.7476   43.4622 H   0  0  0  0  0  0  0  0  0  0  0  0
   49.2939   35.7581   41.5192 H   0  0  0  0  0  0  0  0  0  0  0  0
   49.9083   34.3466   41.1970 H   0  0  0  0  0  0  0  0  0  0  0  0
   46.6875   34.9607   40.5217 H   0  0  0  0  0  0  0  0  0  0  0  0
   45.3608   33.9408   39.5568 H   0  0  0  0  0  0  0  0  0  0  0  0
   47.3168   32.4656   40.7772 H   0  0  0  0  0  0  0  0  0  0  0  0
   49.4031   33.8631   39.5516 H   0  0  0  0  0  0  0  0  0  0  0  0
   48.8435   32.3984   38.7631 H   0  0  0  0  0  0  0  0  0  0  0  0
   46.0907   34.4792   37.4183 H   0  0  0  0  0  0  0  0  0  0  0  0
   46.7158   32.8385   37.1678 H   0  0  0  0  0  0  0  0  0  0  0  0
   45.6367   31.5800   40.0022 H   0  0  0  0  0  0  0  0  0  0  0  0
   45.9256   36.2008   44.1555 H   0  0  0  0  0  0  0  0  0  0  0  0
   44.6788   37.3436   42.4984 H   0  0  0  0  0  0  0  0  0  0  0  0
   43.2297   35.9768   40.9716 H   0  0  0  0  0  0  0  0  0  0  0  0
   41.1971   32.1117   43.1815 H   0  0  0  0  0  0  0  0  0  0  0  0
   40.4508   34.2714   42.8441 H   0  0  0  0  0  0  0  0  0  0  0  0
  1 16  1  0
  1  6  2  0
  2  1  1  0
  3  2  2  0
  3  4  1  0
  4  5  2  0
  5  6  1  0
  7  2  1  0
  8  7  1  0
  9  8  1  0
  9  7  1  0
 10 15  1  0
 10 11  1  0
 11 12  1  0
 11  9  1  0
 13 12  1  0
 14 13  1  0
 14 10  1  0
 16 17  2  0
 19 18  1  0
 19 20  2  0
 20 16  1  0
 21 20  1  0
 22 21  2  0
 23 24  2  0
 23 22  1  0
 24 19  1  0
 25 27  1  0
 25 24  1  0
 26 27  2  0
 27 29  1  0
 27 28  1  0
  3 30  1  0
  5 31  1  0
  7 32  1  1
  8 33  1  0
  8 34  1  0
  9 35  1  1
 10 36  1  1
 11 37  1  1
 12 38  1  0
 12 39  1  0
 14 40  1  0
 14 41  1  0
 15 42  1  0
 21 43  1  0
 22 44  1  0
 23 45  1  0
 28 46  1  0
 29 47  1  0
M  ISO  8  30  14  31  14  32  13  33  13  34  13  35  13  36  13  37  13
M  ISO  8  38  13  39  13  40  13  41  13  42   3  43  14  44  14  45  14
M  ISO  2  46   3  47   3
M  END
>  <minimizedAffinity>  (1) 
-5.77517128

>  <minimizedRMSD>  (1) 
0.786570668

$$$$
