
     RDKit          3D

 29 31  0  0  1  0  0  0  0  0999 V2000
   44.5690   35.6380   44.7910 C   0  0  0  0  0  0  0  0  0  0  0  0
   45.1310   35.7100   43.5050 C   0  0  0  0  0  0  0  0  0  0  0  0
   46.1440   34.7800   43.2540 C   0  0  0  0  0  0  0  0  0  0  0  0
   46.5190   33.8870   44.2290 N   0  0  0  0  0  0  0  0  0  0  0  0
   45.9340   33.8710   45.4530 C   0  0  0  0  0  0  0  0  0  0  0  0
   44.9580   34.7520   45.7220 N   0  0  0  0  0  0  0  0  0  0  0  0
   46.8140   34.7370   41.9090 C   0  0  0  0  0  0  0  0  0  0  0  0
   48.1810   35.3870   41.9230 C   0  0  0  0  0  0  0  0  0  0  0  0
   47.9610   33.8550   41.7450 C   0  0  0  0  0  0  0  0  0  0  0  0
   45.8960   32.8780   47.7030 C   0  0  2  0  0  0  0  0  0  0  0  0
   46.5150   32.8150   46.3220 C   0  0  1  0  0  0  0  0  0  0  0  0
   46.0670   31.4340   45.8600 C   0  0  0  0  0  0  0  0  0  0  0  0
   45.4220   30.8330   46.9210 O   0  0  0  0  0  0  0  0  0  0  0  0
   45.9000   31.3920   48.0810 C   0  0  0  0  0  0  0  0  0  0  0  0
   44.6270   33.3940   47.6840 O   0  0  0  0  0  0  0  0  0  0  0  0
   43.7672   36.3456   45.0489 H   0  0  0  0  0  0  0  0  0  0  0  0
   44.7993   36.4418   42.7537 H   0  0  0  0  0  0  0  0  0  0  0  0
   45.8903   34.8466   41.3219 H   0  0  0  0  0  0  0  0  0  0  0  0
   48.5146   36.0061   41.0771 H   0  0  0  0  0  0  0  0  0  0  0  0
   48.7478   36.0371   42.6057 H   0  0  0  0  0  0  0  0  0  0  0  0
   48.2413   33.1622   42.5521 H   0  0  0  0  0  0  0  0  0  0  0  0
   48.2659   33.1082   40.9971 H   0  0  0  0  0  0  0  0  0  0  0  0
   46.4293   33.5346   48.4062 H   0  0  0  0  0  0  0  0  0  0  0  0
   47.6040   32.9685   46.2984 H   0  0  0  0  0  0  0  0  0  0  0  0
   45.3795   31.5278   45.0064 H   0  0  0  0  0  0  0  0  0  0  0  0
   46.9305   30.8327   45.5395 H   0  0  0  0  0  0  0  0  0  0  0  0
   46.9142   31.0359   48.3146 H   0  0  0  0  0  0  0  0  0  0  0  0
   45.3153   31.1480   48.9802 H   0  0  0  0  0  0  0  0  0  0  0  0
   44.3093   33.5232   48.6127 H   0  0  0  0  0  0  0  0  0  0  0  0
  1  6  2  0
  2  1  1  0
  3  2  2  0
  3  4  1  0
  4  5  2  0
  5  6  1  0
  7  8  1  0
  7  3  1  0
  9  7  1  0
  9  8  1  0
 10 15  1  0
 10 14  1  0
 11  5  1  0
 11 10  1  0
 12 11  1  0
 12 13  1  0
 13 14  1  0
  1 16  1  0
  2 17  1  0
  7 18  1  0
  8 19  1  0
  8 20  1  0
  9 21  1  0
  9 22  1  0
 10 23  1  1
 11 24  1  1
 12 25  1  0
 12 26  1  0
 14 27  1  0
 14 28  1  0
 15 29  1  0
M  ISO  8  16  14  17  14  18  13  19  13  20  13  21  13  22  13  23  13
M  ISO  6  24  13  25  13  26  13  27  13  28  13  29   3
M  END
>  <minimizedAffinity>  (1) 
-5.32462072

>  <minimizedRMSD>  (1) 
0.557171345

$$$$
