
     RDKit          3D

 29 31  0  0  1  0  0  0  0  0999 V2000
   45.3410   33.9930   45.5430 C   0  0  0  0  0  0  0  0  0  0  0  0
   45.9060   33.7870   44.2630 C   0  0  0  0  0  0  0  0  0  0  0  0
   46.9350   32.8620   44.2480 C   0  0  0  0  0  0  0  0  0  0  0  0
   47.3260   32.2290   45.4180 N   0  0  0  0  0  0  0  0  0  0  0  0
   46.7480   32.4670   46.6020 C   0  0  0  0  0  0  0  0  0  0  0  0
   45.7460   33.3580   46.6640 N   0  0  0  0  0  0  0  0  0  0  0  0
   47.5490   32.4730   42.9240 C   0  0  0  0  0  0  0  0  0  0  0  0
   48.8950   33.1940   42.7300 C   0  0  0  0  0  0  0  0  0  0  0  0
   48.7320   31.6590   42.9370 C   0  0  0  0  0  0  0  0  0  0  0  0
   44.6890   35.8140   43.4130 C   0  0  1  0  0  0  0  0  0  0  0  0
   45.4060   34.5090   43.1250 C   0  0  2  0  0  0  0  0  0  0  0  0
   44.3060   33.8360   42.3360 C   0  0  0  0  0  0  0  0  0  0  0  0
   43.9430   34.8280   41.4130 O   0  0  0  0  0  0  0  0  0  0  0  0
   44.1850   36.0570   41.9880 C   0  0  0  0  0  0  0  0  0  0  0  0
   43.5590   35.6770   44.1860 O   0  0  0  0  0  0  0  0  0  0  0  0
   44.5181   34.7176   45.6313 H   0  0  0  0  0  0  0  0  0  0  0  0
   47.0879   31.9422   47.5070 H   0  0  0  0  0  0  0  0  0  0  0  0
   46.6061   32.3568   42.3695 H   0  0  0  0  0  0  0  0  0  0  0  0
   49.1782   33.6025   41.7487 H   0  0  0  0  0  0  0  0  0  0  0  0
   49.4436   34.0170   43.2113 H   0  0  0  0  0  0  0  0  0  0  0  0
   49.0658   31.1973   43.8780 H   0  0  0  0  0  0  0  0  0  0  0  0
   49.0582   30.7701   42.3771 H   0  0  0  0  0  0  0  0  0  0  0  0
   45.3160   36.5553   43.9301 H   0  0  0  0  0  0  0  0  0  0  0  0
   46.3704   34.6074   42.6051 H   0  0  0  0  0  0  0  0  0  0  0  0
   44.6771   32.9350   41.8257 H   0  0  0  0  0  0  0  0  0  0  0  0
   43.4684   33.4898   42.9594 H   0  0  0  0  0  0  0  0  0  0  0  0
   44.9474   36.5981   41.4083 H   0  0  0  0  0  0  0  0  0  0  0  0
   43.2669   36.6627   42.0025 H   0  0  0  0  0  0  0  0  0  0  0  0
   43.8085   35.7073   45.1436 H   0  0  0  0  0  0  0  0  0  0  0  0
  1  6  2  0
  2  1  1  0
  3  2  2  0
  3  4  1  0
  4  5  2  0
  5  6  1  0
  7  9  1  0
  7  3  1  0
  8  7  1  0
  8  9  1  0
 10 15  1  0
 11 10  1  0
 11  2  1  0
 12 11  1  0
 13 14  1  0
 13 12  1  0
 14 10  1  0
  1 16  1  0
  5 17  1  0
  7 18  1  0
  8 19  1  0
  8 20  1  0
  9 21  1  0
  9 22  1  0
 10 23  1  1
 11 24  1  6
 12 25  1  0
 12 26  1  0
 14 27  1  0
 14 28  1  0
 15 29  1  0
M  ISO  8  16  14  17  14  18  13  19  13  20  13  21  13  22  13  23  13
M  ISO  6  24  13  25  13  26  13  27  13  28  13  29   3
M  END
>  <minimizedAffinity>  (1) 
-4.18558216

>  <minimizedRMSD>  (1) 
2.73373532

$$$$
