
     RDKit          3D

 31 33  0  0  1  0  0  0  0  0999 V2000
   44.3400   34.8770   41.3670 C   0  0  1  0  0  0  0  0  0  0  0  0
   44.4510   33.8700   40.1750 C   0  0  0  0  0  0  0  0  0  0  0  0
   43.4850   33.7170   41.2960 C   0  0  2  0  0  0  0  0  0  0  0  0
   41.2970   34.8550   41.8240 C   0  0  1  0  0  0  0  0  0  0  0  0
   41.9950   33.7810   41.0910 C   0  0  1  0  0  0  0  0  0  0  0  0
   41.6040   34.0010   39.6740 C   0  0  0  0  0  0  0  0  0  0  0  0
   41.1770   35.2980   39.5220 O   0  0  0  0  0  0  0  0  0  0  0  0
   41.0240   35.8840   40.7640 C   0  0  0  0  0  0  0  0  0  0  0  0
   40.0560   34.3390   42.2650 O   0  0  0  0  0  0  0  0  0  0  0  0
   45.5550   34.8660   42.2400 C   0  0  0  0  0  0  0  0  0  0  0  0
   46.6190   35.2090   41.7090 O   0  0  0  0  0  0  0  0  0  0  0  0
   46.2800   33.4560   44.0950 C   0  0  0  0  0  0  0  0  0  0  0  0
   45.5430   34.5000   43.6160 C   0  0  0  0  0  0  0  0  0  0  0  0
   44.7620   35.2370   44.5250 C   0  0  0  0  0  0  0  0  0  0  0  0
   44.7630   34.8940   45.8380 N   0  0  0  0  0  0  0  0  0  0  0  0
   45.5110   33.8450   46.2830 C   0  0  0  0  0  0  0  0  0  0  0  0
   46.2430   33.1570   45.4180 N   0  0  0  0  0  0  0  0  0  0  0  0
   44.1272   35.9432   41.5338 H   0  0  0  0  0  0  0  0  0  0  0  0
   45.3183   33.1991   40.0879 H   0  0  0  0  0  0  0  0  0  0  0  0
   44.3989   33.9228   39.0775 H   0  0  0  0  0  0  0  0  0  0  0  0
   43.2704   32.9092   42.0112 H   0  0  0  0  0  0  0  0  0  0  0  0
   41.8619   35.2478   42.6822 H   0  0  0  0  0  0  0  0  0  0  0  0
   41.6943   32.7934   41.4709 H   0  0  0  0  0  0  0  0  0  0  0  0
   42.4699   33.8192   39.0204 H   0  0  0  0  0  0  0  0  0  0  0  0
   40.7932   33.3094   39.4015 H   0  0  0  0  0  0  0  0  0  0  0  0
   41.7327   36.7188   40.8684 H   0  0  0  0  0  0  0  0  0  0  0  0
   39.9986   36.2673   40.8717 H   0  0  0  0  0  0  0  0  0  0  0  0
   40.0352   34.3303   43.2547 H   0  0  0  0  0  0  0  0  0  0  0  0
   46.9016   32.8593   43.4112 H   0  0  0  0  0  0  0  0  0  0  0  0
   44.1552   36.0848   44.1741 H   0  0  0  0  0  0  0  0  0  0  0  0
   45.5073   33.5722   47.3486 H   0  0  0  0  0  0  0  0  0  0  0  0
  1 10  1  0
  2  3  1  0
  2  1  1  0
  3  1  1  0
  4  9  1  0
  5  6  1  0
  5  3  1  0
  5  4  1  0
  7  6  1  0
  7  8  1  0
  8  4  1  0
 10 13  1  0
 11 10  2  0
 12 17  2  0
 13 12  1  0
 13 14  2  0
 14 15  1  0
 15 16  2  0
 17 16  1  0
  1 18  1  6
  2 19  1  0
  2 20  1  0
  3 21  1  1
  4 22  1  1
  5 23  1  1
  6 24  1  0
  6 25  1  0
  8 26  1  0
  8 27  1  0
  9 28  1  0
 12 29  1  0
 14 30  1  0
 16 31  1  0
M  ISO  8  18  13  19  13  20  13  21  13  22  13  23  13  24  13  25  13
M  ISO  6  26  13  27  13  28   3  29  14  30  14  31  14
M  END
>  <minimizedAffinity>  (1) 
-4.58571815

>  <minimizedRMSD>  (1) 
6.68676424

$$$$
