
     RDKit          3D

 41 43  0  0  1  0  0  0  0  0999 V2000
   47.4240   34.4280   40.7170 C   0  0  0  0  0  0  0  0  0  0  0  0
   48.6890   33.7560   41.0760 C   0  0  0  0  0  0  0  0  0  0  0  0
   49.0180   32.6260   40.3550 C   0  0  0  0  0  0  0  0  0  0  0  0
   50.1960   31.9490   40.6480 C   0  0  0  0  0  0  0  0  0  0  0  0
   50.9920   32.4340   41.6480 N   0  0  0  0  0  0  0  0  0  0  0  0
   50.6360   33.5380   42.3290 C   0  0  0  0  0  0  0  0  0  0  0  0
   49.5140   34.1690   42.0370 N   0  0  0  0  0  0  0  0  0  0  0  0
   47.9410   32.0410   39.0510 S   0  0  0  0  0  0  0  0  0  0  0  0
   47.8140   31.2760   36.4680 C   0  0  2  0  0  0  0  0  0  0  0  0
   48.7310   32.0160   37.4560 C   0  0  1  0  0  0  0  0  0  0  0  0
   48.7260   33.3890   36.8100 C   0  0  0  0  0  0  0  0  0  0  0  0
   48.6220   33.1800   35.4300 O   0  0  0  0  0  0  0  0  0  0  0  0
   47.7830   32.1030   35.2260 C   0  0  0  0  0  0  0  0  0  0  0  0
   46.5230   31.1510   36.9630 O   0  0  0  0  0  0  0  0  0  0  0  0
   46.6340   34.8910   41.9090 C   0  0  0  0  0  0  0  0  0  0  0  0
   45.1700   34.8890   41.7110 C   0  0  0  0  0  0  0  0  0  0  0  0
   44.3240   35.5040   42.6840 C   0  0  0  0  0  0  0  0  0  0  0  0
   42.6430   35.2400   41.9860 S   0  0  0  0  0  0  0  0  0  0  0  0
   43.3780   34.3380   40.4870 C   0  0  0  0  0  0  0  0  0  0  0  0
   44.4980   34.3810   40.7170 N   0  0  0  0  0  0  0  0  0  0  0  0
   42.5980   33.8160   39.4570 O   0  0  0  0  0  0  0  0  0  0  0  0
   40.6330   34.1790   37.7140 O   0  0  0  0  0  0  0  0  0  0  0  0
   41.6970   34.9060   38.5250 P   0  0  0  0  0  0  0  0  0  0  0  0
   40.9320   35.9800   39.5870 O   0  0  0  0  0  0  0  0  0  0  0  0
   42.7360   35.7870   37.5120 O   0  0  0  0  0  0  0  0  0  0  0  0
   47.6590   35.3031   40.0933 H   0  0  0  0  0  0  0  0  0  0  0  0
   46.8051   33.6912   40.1840 H   0  0  0  0  0  0  0  0  0  0  0  0
   50.4807   31.0454   40.0891 H   0  0  0  0  0  0  0  0  0  0  0  0
   51.2834   33.9170   43.1335 H   0  0  0  0  0  0  0  0  0  0  0  0
   48.1949   30.2598   36.2886 H   0  0  0  0  0  0  0  0  0  0  0  0
   49.7338   31.5954   37.6215 H   0  0  0  0  0  0  0  0  0  0  0  0
   47.8682   33.9754   37.1710 H   0  0  0  0  0  0  0  0  0  0  0  0
   49.6397   33.9486   37.0592 H   0  0  0  0  0  0  0  0  0  0  0  0
   46.7587   32.4547   35.0332 H   0  0  0  0  0  0  0  0  0  0  0  0
   48.1098   31.5134   34.3568 H   0  0  0  0  0  0  0  0  0  0  0  0
   46.5474   31.1534   37.9527 H   0  0  0  0  0  0  0  0  0  0  0  0
   46.8674   34.2276   42.7548 H   0  0  0  0  0  0  0  0  0  0  0  0
   46.9241   35.9365   42.0902 H   0  0  0  0  0  0  0  0  0  0  0  0
   44.6076   36.0099   43.6187 H   0  0  0  0  0  0  0  0  0  0  0  0
   41.1226   35.7125   40.5209 H   0  0  0  0  0  0  0  0  0  0  0  0
   43.3628   36.3185   38.0641 H   0  0  0  0  0  0  0  0  0  0  0  0
  1  2  1  0
  1 15  1  0
  2  7  2  0
  3  4  2  0
  3  2  1  0
  4  5  1  0
  5  6  2  0
  7  6  1  0
  8  3  1  0
  9 14  1  0
  9 10  1  0
 10  8  1  0
 11 10  1  0
 12 11  1  0
 13 12  1  0
 13  9  1  0
 16 15  1  0
 16 17  2  0
 18 17  1  0
 19 20  2  0
 19 18  1  0
 20 16  1  0
 21 19  1  0
 22 23  2  0
 23 21  1  0
 23 24  1  0
 25 23  1  0
  1 26  1  0
  1 27  1  0
  4 28  1  0
  6 29  1  0
  9 30  1  6
 10 31  1  1
 11 32  1  0
 11 33  1  0
 13 34  1  0
 13 35  1  0
 14 36  1  0
 15 37  1  0
 15 38  1  0
 17 39  1  0
 24 40  1  0
 25 41  1  0
M  ISO  8  26   8  27   8  28  14  29  14  30  13  31  13  32  13  33  13
M  ISO  8  34  13  35  13  36   3  37   8  38   8  39  14  40   3  41   3
M  END
>  <minimizedAffinity>  (1) 
-5.05020666

>  <minimizedRMSD>  (1) 
1.60338271

$$$$
