
     RDKit          3D

 43 45  0  0  1  0  0  0  0  0999 V2000
   45.7280   33.0920   41.3260 F   0  0  0  0  0  0  0  0  0  0  0  0
   46.7610   33.8860   41.1680 C   0  0  0  0  0  0  0  0  0  0  0  0
   47.0310   34.8190   42.1620 C   0  0  0  0  0  0  0  0  0  0  0  0
   48.1150   35.7210   42.0950 C   0  0  0  0  0  0  0  0  0  0  0  0
   48.9590   35.6750   40.9780 C   0  0  0  0  0  0  0  0  0  0  0  0
   48.6460   34.7300   40.0210 C   0  0  0  0  0  0  0  0  0  0  0  0
   47.6130   33.8640   40.0730 C   0  0  0  0  0  0  0  0  0  0  0  0
   45.5320   33.9620   45.3910 C   0  0  0  0  0  0  0  0  0  0  0  0
   44.6190   35.0230   45.5870 C   0  0  0  0  0  0  0  0  0  0  0  0
   44.5270   36.0450   44.5840 C   0  0  0  0  0  0  0  0  0  0  0  0
   45.3420   35.9180   43.4920 N   0  0  0  0  0  0  0  0  0  0  0  0
   46.1810   34.9040   43.3550 C   0  0  0  0  0  0  0  0  0  0  0  0
   46.2840   33.9290   44.2900 N   0  0  0  0  0  0  0  0  0  0  0  0
   45.5960   32.9840   46.3930 N   0  0  0  0  0  0  0  0  0  0  0  0
   47.4130   32.9780   39.0560 O   0  0  0  0  0  0  0  0  0  0  0  0
   47.6750   34.3570   36.8140 O   0  0  0  0  0  0  0  0  0  0  0  0
   48.0340   33.0470   37.5020 P   0  0  2  0  0  0  0  0  0  0  0  0
   47.4270   31.7630   36.5770 O   0  0  0  0  0  0  0  0  0  0  0  0
   45.4430   32.9740   36.6170 C   0  0  2  0  0  0  0  0  0  0  0  0
   46.0640   31.5930   36.6990 C   0  0  2  0  0  0  0  0  0  0  0  0
   45.6390   31.1410   38.0650 C   0  0  0  0  0  0  0  0  0  0  0  0
   44.4800   31.7880   38.3950 O   0  0  0  0  0  0  0  0  0  0  0  0
   44.2970   32.8570   37.5630 C   0  0  0  0  0  0  0  0  0  0  0  0
   45.0470   33.2700   35.3130 O   0  0  0  0  0  0  0  0  0  0  0  0
   49.7110   32.8660   37.4500 O   0  0  0  0  0  0  0  0  0  0  0  0
   50.0900   31.6300   38.0040 C   0  0  0  0  0  0  0  0  0  0  0  0
   50.3420   30.8160   36.8940 F   0  0  0  0  0  0  0  0  0  0  0  0
   51.2700   31.7480   38.7030 F   0  0  0  0  0  0  0  0  0  0  0  0
   49.1500   31.0920   38.8430 F   0  0  0  0  0  0  0  0  0  0  0  0
   48.2932   36.4452   42.9035 H   0  0  0  0  0  0  0  0  0  0  0  0
   49.8197   36.3513   40.8696 H   0  0  0  0  0  0  0  0  0  0  0  0
   49.2978   34.6788   39.1364 H   0  0  0  0  0  0  0  0  0  0  0  0
   43.9919   35.0644   46.4898 H   0  0  0  0  0  0  0  0  0  0  0  0
   43.8329   36.8920   44.6881 H   0  0  0  0  0  0  0  0  0  0  0  0
   46.2455   32.1903   46.2973 H   0  0  0  0  0  0  0  0  0  0  0  0
   44.9935   33.0590   47.2251 H   0  0  0  0  0  0  0  0  0  0  0  0
   46.1245   33.7971   36.8780 H   0  0  0  0  0  0  0  0  0  0  0  0
   45.7689   30.8615   35.9323 H   0  0  0  0  0  0  0  0  0  0  0  0
   45.4688   30.0543   38.0600 H   0  0  0  0  0  0  0  0  0  0  0  0
   46.4233   31.3741   38.8002 H   0  0  0  0  0  0  0  0  0  0  0  0
   44.2254   33.7763   38.1627 H   0  0  0  0  0  0  0  0  0  0  0  0
   43.3704   32.7107   36.9886 H   0  0  0  0  0  0  0  0  0  0  0  0
   44.2542   33.8626   35.3353 H   0  0  0  0  0  0  0  0  0  0  0  0
  2  1  1  0
  2  3  2  0
  3 12  1  0
  4  3  1  0
  5  4  2  0
  6  7  2  0
  6  5  1  0
  7  2  1  0
  8  9  2  0
  8 14  1  0
 10  9  1  0
 11 10  2  0
 12 11  1  0
 12 13  2  0
 13  8  1  0
 15  7  1  0
 17 16  2  0
 17 15  1  0
 18 17  1  0
 19 24  1  0
 19 20  1  0
 19 23  1  0
 20 18  1  0
 20 21  1  0
 21 22  1  0
 23 22  1  0
 25 17  1  0
 25 26  1  0
 26 28  1  0
 26 29  1  0
 27 26  1  0
  4 30  1  0
  5 31  1  0
  6 32  1  0
  9 33  1  0
 10 34  1  0
 14 35  1  0
 14 36  1  0
 19 37  1  1
 20 38  1  6
 21 39  1  0
 21 40  1  0
 23 41  1  0
 23 42  1  0
 24 43  1  0
M  ISO  8  30  14  31  14  32  14  33  14  34  14  37  13  38  13  39  13
M  ISO  4  40  13  41  13  42  13  43   3
M  END
>  <minimizedAffinity>  (1) 
-5.81794262

>  <minimizedRMSD>  (1) 
1.83936155

$$$$
