
     RDKit          3D

 48 51  0  0  1  0  0  0  0  0999 V2000
   45.3200   36.3300   42.7870 C   0  0  0  0  0  0  0  0  0  0  0  0
   45.4520   34.9530   42.7110 C   0  0  0  0  0  0  0  0  0  0  0  0
   45.1350   34.1700   43.7940 C   0  0  0  0  0  0  0  0  0  0  0  0
   44.6870   34.8250   44.9270 N   0  0  0  0  0  0  0  0  0  0  0  0
   44.5620   36.1460   44.9930 C   0  0  0  0  0  0  0  0  0  0  0  0
   44.8820   36.8890   43.9130 N   0  0  0  0  0  0  0  0  0  0  0  0
   45.2150   32.7620   43.8780 C   0  0  0  0  0  0  0  0  0  0  0  0
   44.6000   31.8870   42.9770 C   0  0  0  0  0  0  0  0  0  0  0  0
   44.6200   30.5220   43.0930 C   0  0  0  0  0  0  0  0  0  0  0  0
   45.2760   29.9390   44.1490 C   0  0  0  0  0  0  0  0  0  0  0  0
   45.9080   30.8080   45.0760 C   0  0  0  0  0  0  0  0  0  0  0  0
   46.5630   30.2390   46.1390 C   0  0  0  0  0  0  0  0  0  0  0  0
   47.2000   31.0240   47.0790 C   0  0  0  0  0  0  0  0  0  0  0  0
   47.1750   32.4230   46.9380 C   0  0  0  0  0  0  0  0  0  0  0  0
   46.4900   32.9600   45.8330 C   0  0  0  0  0  0  0  0  0  0  0  0
   45.8650   32.1550   44.9210 C   0  0  0  0  0  0  0  0  0  0  0  0
   45.9010   34.4320   41.5300 O   0  0  0  0  0  0  0  0  0  0  0  0
   47.5680   32.4350   41.2270 O   0  0  0  0  0  0  0  0  0  0  0  0
   47.4910   33.9200   41.2450 P   0  0  1  0  0  0  0  0  0  0  0  0
   48.0370   34.4610   39.7350 O   0  0  0  0  0  0  0  0  0  0  0  0
   48.0580   34.0350   37.3640 C   0  0  1  0  0  0  0  0  0  0  0  0
   48.0410   33.4670   38.7900 C   0  0  1  0  0  0  0  0  0  0  0  0
   49.3300   32.6730   38.7490 C   0  0  0  0  0  0  0  0  0  0  0  0
   49.5040   32.2280   37.4490 O   0  0  0  0  0  0  0  0  0  0  0  0
   48.5210   32.7730   36.6590 C   0  0  0  0  0  0  0  0  0  0  0  0
   46.7800   34.4090   36.9680 O   0  0  0  0  0  0  0  0  0  0  0  0
   48.4740   34.5690   42.4390 O   0  0  0  0  0  0  0  0  0  0  0  0
   49.6610   35.2590   42.2510 C   0  0  0  0  0  0  0  0  0  0  0  0
   49.3200   36.3410   41.7380 O   0  0  0  0  0  0  0  0  0  0  0  0
   50.7850   34.4810   42.7090 N   0  0  0  0  0  0  0  0  0  0  0  0
   45.5759   36.9584   41.9212 H   0  0  0  0  0  0  0  0  0  0  0  0
   44.2028   36.6271   45.9147 H   0  0  0  0  0  0  0  0  0  0  0  0
   44.0657   32.3228   42.1199 H   0  0  0  0  0  0  0  0  0  0  0  0
   44.1130   29.8962   42.3438 H   0  0  0  0  0  0  0  0  0  0  0  0
   45.3102   28.8463   44.2711 H   0  0  0  0  0  0  0  0  0  0  0  0
   46.5807   29.1441   46.2434 H   0  0  0  0  0  0  0  0  0  0  0  0
   47.7216   30.5602   47.9292 H   0  0  0  0  0  0  0  0  0  0  0  0
   47.6750   33.0763   47.6683 H   0  0  0  0  0  0  0  0  0  0  0  0
   46.4563   34.0513   45.6995 H   0  0  0  0  0  0  0  0  0  0  0  0
   48.6635   34.9368   37.1904 H   0  0  0  0  0  0  0  0  0  0  0  0
   47.1538   32.8780   39.0657 H   0  0  0  0  0  0  0  0  0  0  0  0
   50.1749   33.3131   39.0430 H   0  0  0  0  0  0  0  0  0  0  0  0
   49.2839   31.8235   39.4463 H   0  0  0  0  0  0  0  0  0  0  0  0
   47.6838   32.0676   36.5520 H   0  0  0  0  0  0  0  0  0  0  0  0
   48.8968   32.9944   35.6492 H   0  0  0  0  0  0  0  0  0  0  0  0
   46.2211   34.5726   37.7686 H   0  0  0  0  0  0  0  0  0  0  0  0
   51.7392   34.8618   42.6352 H   0  0  0  0  0  0  0  0  0  0  0  0
   50.6339   33.5444   43.1101 H   0  0  0  0  0  0  0  0  0  0  0  0
  1  6  2  0
  2  1  1  0
  2  3  2  0
  3  7  1  0
  3  4  1  0
  4  5  2  0
  6  5  1  0
  7 16  2  0
  8  9  2  0
  8  7  1  0
  9 10  1  0
 10 11  2  0
 11 12  1  0
 12 13  2  0
 14 13  1  0
 15 14  2  0
 16 11  1  0
 16 15  1  0
 17  2  1  0
 19 18  2  0
 19 17  1  0
 19 27  1  0
 20 19  1  0
 21 26  1  0
 21 22  1  0
 22 20  1  0
 23 22  1  0
 24 23  1  0
 25 21  1  0
 25 24  1  0
 28 27  1  0
 28 30  1  0
 29 28  2  0
  1 31  1  0
  5 32  1  0
  8 33  1  0
  9 34  1  0
 10 35  1  0
 12 36  1  0
 13 37  1  0
 14 38  1  0
 15 39  1  0
 21 40  1  1
 22 41  1  6
 23 42  1  0
 23 43  1  0
 25 44  1  0
 25 45  1  0
 26 46  1  0
 30 47  1  0
 30 48  1  0
M  ISO  8  31  14  32  14  33  14  34  14  35  14  36  14  37  14  38  14
M  ISO  8  39  14  40  13  41  13  42  13  43  13  44  13  45  13  46   3
M  END
>  <minimizedAffinity>  (1) 
-6.33054399

>  <minimizedRMSD>  (1) 
0.451848626

$$$$
