
     RDKit          3D

 35 36  0  0  1  0  0  0  0  0999 V2000
   44.5870   40.6870   45.5880 O   0  0  0  0  0  0  0  0  0  0  0  0
   45.3770   40.4660   44.4780 C   0  0  0  0  0  0  0  0  0  0  0  0
   44.9270   38.0690   44.8110 C   0  0  0  0  0  0  0  0  0  0  0  0
   45.3330   39.0630   44.0430 C   0  0  0  0  0  0  0  0  0  0  0  0
   44.9730   36.7250   44.2630 C   0  0  0  0  0  0  0  0  0  0  0  0
   45.1270   36.5530   42.8800 C   0  0  0  0  0  0  0  0  0  0  0  0
   45.1780   35.2480   42.3630 C   0  0  0  0  0  0  0  0  0  0  0  0
   45.0750   34.2080   43.2230 N   0  0  0  0  0  0  0  0  0  0  0  0
   44.9260   34.4040   44.5600 C   0  0  0  0  0  0  0  0  0  0  0  0
   44.8800   35.6420   45.0370 N   0  0  0  0  0  0  0  0  0  0  0  0
   44.3360   42.8710   46.9270 O   0  0  0  0  0  0  0  0  0  0  0  0
   43.9430   42.2540   45.5960 P   0  0  1  0  0  0  0  0  0  0  0  0
   44.6190   43.1570   44.3350 O   0  0  0  0  0  0  0  0  0  0  0  0
   42.2970   42.2720   45.4220 O   0  0  0  0  0  0  0  0  0  0  0  0
   41.3950   44.2570   44.3830 C   0  0  1  0  0  0  0  0  0  0  0  0
   41.6280   43.4240   45.6150 C   0  0  1  0  0  0  0  0  0  0  0  0
   40.2890   43.3560   46.2570 C   0  0  0  0  0  0  0  0  0  0  0  0
   39.3360   43.7920   45.3510 O   0  0  0  0  0  0  0  0  0  0  0  0
   39.9310   44.0550   44.1440 C   0  0  0  0  0  0  0  0  0  0  0  0
   41.5590   45.6310   44.6580 O   0  0  0  0  0  0  0  0  0  0  0  0
   45.0212   41.1043   43.6558 H   0  0  0  0  0  0  0  0  0  0  0  0
   46.4162   40.7066   44.7466 H   0  0  0  0  0  0  0  0  0  0  0  0
   44.5654   38.2529   45.8334 H   0  0  0  0  0  0  0  0  0  0  0  0
   45.6570   38.8275   43.0185 H   0  0  0  0  0  0  0  0  0  0  0  0
   45.2064   37.4237   42.2125 H   0  0  0  0  0  0  0  0  0  0  0  0
   45.2989   35.0751   41.2834 H   0  0  0  0  0  0  0  0  0  0  0  0
   44.8442   33.5439   45.2409 H   0  0  0  0  0  0  0  0  0  0  0  0
   45.1678   43.8900   44.7113 H   0  0  0  0  0  0  0  0  0  0  0  0
   42.0743   43.9825   43.5625 H   0  0  0  0  0  0  0  0  0  0  0  0
   42.3551   43.8773   46.3048 H   0  0  0  0  0  0  0  0  0  0  0  0
   40.0723   42.3183   46.5507 H   0  0  0  0  0  0  0  0  0  0  0  0
   40.2717   43.9938   47.1531 H   0  0  0  0  0  0  0  0  0  0  0  0
   39.4959   44.9643   43.7038 H   0  0  0  0  0  0  0  0  0  0  0  0
   39.7697   43.2182   43.4485 H   0  0  0  0  0  0  0  0  0  0  0  0
   41.5758   45.7717   45.6378 H   0  0  0  0  0  0  0  0  0  0  0  0
  1 12  1  0
  2  1  1  0
  4  2  1  0
  4  3  2  0
  5  3  1  0
  5 10  1  0
  6  5  2  0
  7  6  1  0
  7  8  2  0
  8  9  1  0
  9 10  2  0
 12 11  2  0
 13 12  1  0
 14 12  1  0
 15 20  1  0
 15 16  1  0
 16 14  1  0
 16 17  1  0
 18 17  1  0
 19 15  1  0
 19 18  1  0
  2 21  1  0
  2 22  1  0
  3 23  1  0
  4 24  1  0
  6 25  1  0
  7 26  1  0
  9 27  1  0
 13 28  1  0
 15 29  1  6
 16 30  1  1
 17 31  1  0
 17 32  1  0
 19 33  1  0
 19 34  1  0
 20 35  1  0
M  ISO  8  21   8  22   8  25  14  26  14  27  14  28   3  29  13  30  13
M  ISO  5  31  13  32  13  33  13  34  13  35   3
M  END
>  <minimizedAffinity>  (1) 
-2.81958842

>  <minimizedRMSD>  (1) 
2.35207582

$$$$
