
     RDKit          3D

 44 47  0  0  1  0  0  0  0  0999 V2000
   46.0840   32.6680   38.7570 C   0  0  2  0  0  0  0  0  0  0  0  0
   46.9630   31.7030   38.0610 C   0  0  0  0  0  0  0  0  0  0  0  0
   46.2910   32.8820   37.3400 C   0  0  1  0  0  0  0  0  0  0  0  0
   46.5700   34.6210   41.8420 C   0  0  0  0  0  0  0  0  0  0  0  0
   47.8050   35.1780   41.5100 C   0  0  0  0  0  0  0  0  0  0  0  0
   48.4880   34.9480   40.3350 C   0  0  0  0  0  0  0  0  0  0  0  0
   47.9060   34.0990   39.4090 C   0  0  0  0  0  0  0  0  0  0  0  0
   46.6960   33.5650   39.7570 C   0  0  0  0  0  0  0  0  0  0  0  0
   46.0810   33.8170   40.9000 N   0  0  0  0  0  0  0  0  0  0  0  0
   44.5460   36.1270   44.6370 C   0  0  0  0  0  0  0  0  0  0  0  0
   45.1280   36.0240   43.3570 C   0  0  0  0  0  0  0  0  0  0  0  0
   45.8920   34.8990   43.1070 C   0  0  0  0  0  0  0  0  0  0  0  0
   46.0420   33.9710   44.0800 N   0  0  0  0  0  0  0  0  0  0  0  0
   45.4640   34.1120   45.2970 C   0  0  0  0  0  0  0  0  0  0  0  0
   44.7250   35.1860   45.5590 N   0  0  0  0  0  0  0  0  0  0  0  0
   45.3100   32.5280   36.4050 O   0  0  0  0  0  0  0  0  0  0  0  0
   45.7350   30.6750   34.7020 O   0  0  0  0  0  0  0  0  0  0  0  0
   45.9350   32.1890   34.8790 P   0  0  1  0  0  0  0  0  0  0  0  0
   45.0390   32.9410   33.6850 O   0  0  0  0  0  0  0  0  0  0  0  0
   47.5910   32.4340   34.7390 O   0  0  0  0  0  0  0  0  0  0  0  0
   49.6910   31.4730   34.1180 C   0  0  1  0  0  0  0  0  0  0  0  0
   48.1800   31.3610   34.0730 C   0  0  2  0  0  0  0  0  0  0  0  0
   48.0030   31.4700   32.5530 C   0  0  0  0  0  0  0  0  0  0  0  0
   48.9130   32.3880   32.1050 O   0  0  0  0  0  0  0  0  0  0  0  0
   49.9340   32.4940   33.0280 C   0  0  0  0  0  0  0  0  0  0  0  0
   50.1330   31.9000   35.3630 O   0  0  0  0  0  0  0  0  0  0  0  0
   45.1727   32.5864   39.3676 H   0  0  0  0  0  0  0  0  0  0  0  0
   48.0479   31.7061   38.2425 H   0  0  0  0  0  0  0  0  0  0  0  0
   46.9977   30.6110   37.9333 H   0  0  0  0  0  0  0  0  0  0  0  0
   46.5965   33.7606   36.7529 H   0  0  0  0  0  0  0  0  0  0  0  0
   48.2702   35.8535   42.2430 H   0  0  0  0  0  0  0  0  0  0  0  0
   49.4611   35.4223   40.1399 H   0  0  0  0  0  0  0  0  0  0  0  0
   48.3892   33.8673   38.4484 H   0  0  0  0  0  0  0  0  0  0  0  0
   43.9299   37.0058   44.8783 H   0  0  0  0  0  0  0  0  0  0  0  0
   44.9812   36.8019   42.5933 H   0  0  0  0  0  0  0  0  0  0  0  0
   45.6057   33.3394   46.0671 H   0  0  0  0  0  0  0  0  0  0  0  0
   44.3514   33.5181   34.1025 H   0  0  0  0  0  0  0  0  0  0  0  0
   50.2305   30.5266   33.9652 H   0  0  0  0  0  0  0  0  0  0  0  0
   47.7341   30.4718   34.5426 H   0  0  0  0  0  0  0  0  0  0  0  0
   48.1886   30.4939   32.0809 H   0  0  0  0  0  0  0  0  0  0  0  0
   46.9784   31.7802   32.3003 H   0  0  0  0  0  0  0  0  0  0  0  0
   50.8997   32.2956   32.5400 H   0  0  0  0  0  0  0  0  0  0  0  0
   49.9583   33.5077   33.4543 H   0  0  0  0  0  0  0  0  0  0  0  0
   49.6361   31.4200   36.0721 H   0  0  0  0  0  0  0  0  0  0  0  0
  1  8  1  0
  2  1  1  0
  3  2  1  0
  3  1  1  0
  4 12  1  0
  5  4  2  0
  6  5  1  0
  7  8  1  0
  7  6  2  0
  8  9  2  0
  9  4  1  0
 10 15  2  0
 11 10  1  0
 12 11  2  0
 12 13  1  0
 13 14  2  0
 14 15  1  0
 16  3  1  0
 18 17  2  0
 18 16  1  0
 19 18  1  0
 20 18  1  0
 21 26  1  0
 22 21  1  0
 22 20  1  0
 23 22  1  0
 24 23  1  0
 24 25  1  0
 25 21  1  0
  1 27  1  6
  2 28  1  0
  2 29  1  0
  3 30  1  1
  5 31  1  0
  6 32  1  0
  7 33  1  0
 10 34  1  0
 11 35  1  0
 14 36  1  0
 19 37  1  0
 21 38  1  6
 22 39  1  1
 23 40  1  0
 23 41  1  0
 25 42  1  0
 25 43  1  0
 26 44  1  0
M  ISO  8  27  13  28  13  29  13  30  13  31  14  32  14  33  14  34  14
M  ISO  8  35  14  36  14  37   3  38  13  39  13  40  13  41  13  42  13
M  ISO  2  43  13  44   3
M  END
>  <minimizedAffinity>  (1) 
-6.78167105

>  <minimizedRMSD>  (1) 
1.25593567

$$$$
