
     RDKit          3D

 32 33  0  0  1  0  0  0  0  0999 V2000
   42.9320   34.1920   41.1590 O   0  0  0  0  0  0  0  0  0  0  0  0
   44.3240   34.0240   41.2600 C   0  0  0  0  0  0  0  0  0  0  0  0
   45.0680   33.9430   40.2680 O   0  0  0  0  0  0  0  0  0  0  0  0
   44.8000   35.0870   44.7790 C   0  0  0  0  0  0  0  0  0  0  0  0
   44.4250   35.1000   43.4150 C   0  0  0  0  0  0  0  0  0  0  0  0
   44.7250   33.9670   42.6440 C   0  0  0  0  0  0  0  0  0  0  0  0
   45.3500   32.9280   43.2290 N   0  0  0  0  0  0  0  0  0  0  0  0
   45.6870   32.9700   44.5430 C   0  0  0  0  0  0  0  0  0  0  0  0
   45.4110   34.0350   45.2880 N   0  0  0  0  0  0  0  0  0  0  0  0
   44.5000   36.2310   45.5640 N   0  0  0  0  0  0  0  0  0  0  0  0
   42.4690   31.5540   41.0330 O   0  0  0  0  0  0  0  0  0  0  0  0
   41.8400   32.8920   40.9580 P   0  0  1  0  0  0  0  0  0  0  0  0
   40.7140   33.0380   42.2500 O   0  0  0  0  0  0  0  0  0  0  0  0
   40.9760   33.1150   39.5230 O   0  0  0  0  0  0  0  0  0  0  0  0
   39.1780   34.5600   39.2290 C   0  0  2  0  0  0  0  0  0  0  0  0
   39.6200   33.1820   39.7390 C   0  0  1  0  0  0  0  0  0  0  0  0
   38.8350   32.2920   38.7980 C   0  0  0  0  0  0  0  0  0  0  0  0
   38.6580   32.9760   37.6090 O   0  0  0  0  0  0  0  0  0  0  0  0
   39.0630   34.2770   37.7650 C   0  0  0  0  0  0  0  0  0  0  0  0
   40.1010   35.5490   39.5510 O   0  0  0  0  0  0  0  0  0  0  0  0
   43.9153   35.9692   42.9738 H   0  0  0  0  0  0  0  0  0  0  0  0
   46.1969   32.1084   44.9986 H   0  0  0  0  0  0  0  0  0  0  0  0
   44.0218   37.0373   45.1374 H   0  0  0  0  0  0  0  0  0  0  0  0
   44.7606   36.2548   46.5602 H   0  0  0  0  0  0  0  0  0  0  0  0
   41.1933   32.9759   43.1140 H   0  0  0  0  0  0  0  0  0  0  0  0
   38.2516   34.9583   39.6684 H   0  0  0  0  0  0  0  0  0  0  0  0
   39.4486   32.9328   40.7966 H   0  0  0  0  0  0  0  0  0  0  0  0
   39.3915   31.3612   38.6137 H   0  0  0  0  0  0  0  0  0  0  0  0
   37.8606   32.0354   39.2393 H   0  0  0  0  0  0  0  0  0  0  0  0
   40.0393   34.4235   37.2799 H   0  0  0  0  0  0  0  0  0  0  0  0
   38.3341   34.9591   37.3030 H   0  0  0  0  0  0  0  0  0  0  0  0
   40.1726   35.6257   40.5354 H   0  0  0  0  0  0  0  0  0  0  0  0
  1  2  1  0
  2  6  1  0
  3  2  2  0
  4  9  2  0
  4 10  1  0
  5  4  1  0
  6  7  1  0
  6  5  2  0
  7  8  2  0
  8  9  1  0
 12 11  2  0
 12  1  1  0
 12 13  1  0
 14 12  1  0
 15 20  1  0
 15 16  1  0
 16 14  1  0
 17 16  1  0
 18 19  1  0
 18 17  1  0
 19 15  1  0
  5 21  1  0
  8 22  1  0
 10 23  1  0
 10 24  1  0
 13 25  1  0
 15 26  1  1
 16 27  1  1
 17 28  1  0
 17 29  1  0
 19 30  1  0
 19 31  1  0
 20 32  1  0
M  ISO  8  21  14  22  14  25   3  26  13  27  13  28  13  29  13  30  13
M  ISO  2  31  13  32   3
M  END
>  <minimizedAffinity>  (1) 
-4.56759834

>  <minimizedRMSD>  (1) 
7.15758038

$$$$
