
     RDKit          3D

 49 52  0  0  1  0  0  0  0  0999 V2000
   47.0850   34.8740   41.9800 C   0  0  2  0  0  0  0  0  0  0  0  0
   46.3550   34.2140   40.8110 C   0  0  0  0  0  0  0  0  0  0  0  0
   47.5730   34.0820   39.8680 C   0  0  0  0  0  0  0  0  0  0  0  0
   48.7160   33.7370   40.7710 C   0  0  1  0  0  0  0  0  0  0  0  0
   48.1940   33.8740   42.1700 C   0  0  0  0  0  0  0  0  0  0  0  0
   44.5220   35.9820   44.5080 C   0  0  0  0  0  0  0  0  0  0  0  0
   45.2680   35.9830   43.3350 C   0  0  0  0  0  0  0  0  0  0  0  0
   46.2080   34.9680   43.1820 C   0  0  0  0  0  0  0  0  0  0  0  0
   46.3760   34.0010   44.1830 N   0  0  0  0  0  0  0  0  0  0  0  0
   45.6160   34.0540   45.3080 C   0  0  0  0  0  0  0  0  0  0  0  0
   44.6950   35.0420   45.4650 N   0  0  0  0  0  0  0  0  0  0  0  0
   49.2340   32.3250   40.6200 C   0  0  2  0  0  0  0  0  0  0  0  0
   50.1700   31.8770   41.6460 C   0  0  0  0  0  0  0  0  0  0  0  0
   50.6180   32.0460   40.2350 C   0  0  1  0  0  0  0  0  0  0  0  0
   50.8560   30.8770   39.4700 O   0  0  0  0  0  0  0  0  0  0  0  0
   50.7750   30.3480   36.9180 O   0  0  0  0  0  0  0  0  0  0  0  0
   51.2940   31.3510   37.9180 P   0  0  1  0  0  0  0  0  0  0  0  0
   50.5880   32.8680   37.5430 O   0  0  0  0  0  0  0  0  0  0  0  0
   52.9320   31.5140   37.6960 O   0  0  0  0  0  0  0  0  0  0  0  0
   53.4700   30.2150   37.6370 C   0  0  0  0  0  0  0  0  0  0  0  0
   54.4620   29.9840   38.7460 C   0  0  0  0  0  0  0  0  0  0  0  0
   55.8180   29.9090   38.0720 C   0  0  0  0  0  0  0  0  0  0  0  0
   55.6130   30.5380   36.7130 C   0  0  0  0  0  0  0  0  0  0  0  0
   54.2420   30.0100   36.3490 C   0  0  0  0  0  0  0  0  0  0  0  0
   47.4151   35.9098   41.8121 H   0  0  0  0  0  0  0  0  0  0  0  0
   45.9261   33.2379   41.0815 H   0  0  0  0  0  0  0  0  0  0  0  0
   45.4830   34.7526   40.4117 H   0  0  0  0  0  0  0  0  0  0  0  0
   47.7639   35.0310   39.3456 H   0  0  0  0  0  0  0  0  0  0  0  0
   47.4151   33.3232   39.0874 H   0  0  0  0  0  0  0  0  0  0  0  0
   49.5539   34.4042   40.5205 H   0  0  0  0  0  0  0  0  0  0  0  0
   48.9677   34.2567   42.8519 H   0  0  0  0  0  0  0  0  0  0  0  0
   47.8697   32.9253   42.6226 H   0  0  0  0  0  0  0  0  0  0  0  0
   43.7689   36.7688   44.6624 H   0  0  0  0  0  0  0  0  0  0  0  0
   45.1219   36.7519   42.5620 H   0  0  0  0  0  0  0  0  0  0  0  0
   45.7461   33.2955   46.0940 H   0  0  0  0  0  0  0  0  0  0  0  0
   48.2734   31.9881   40.2032 H   0  0  0  0  0  0  0  0  0  0  0  0
   50.5146   32.5769   42.4215 H   0  0  0  0  0  0  0  0  0  0  0  0
   50.1913   31.0572   42.3792 H   0  0  0  0  0  0  0  0  0  0  0  0
   51.4231   32.6041   39.7347 H   0  0  0  0  0  0  0  0  0  0  0  0
   50.3660   33.3450   38.3816 H   0  0  0  0  0  0  0  0  0  0  0  0
   52.6162   29.5258   37.7146 H   0  0  0  0  0  0  0  0  0  0  0  0
   54.4358   30.8169   39.4641 H   0  0  0  0  0  0  0  0  0  0  0  0
   54.2363   29.0663   39.3090 H   0  0  0  0  0  0  0  0  0  0  0  0
   56.5682   30.4699   38.6487 H   0  0  0  0  0  0  0  0  0  0  0  0
   56.1868   28.8753   37.9981 H   0  0  0  0  0  0  0  0  0  0  0  0
   55.6194   31.6364   36.7720 H   0  0  0  0  0  0  0  0  0  0  0  0
   56.3984   30.2980   35.9811 H   0  0  0  0  0  0  0  0  0  0  0  0
   53.7993   30.5851   35.5224 H   0  0  0  0  0  0  0  0  0  0  0  0
   54.2483   28.9675   35.9981 H   0  0  0  0  0  0  0  0  0  0  0  0
  1  5  1  0
  1  8  1  0
  2  1  1  0
  3  4  1  0
  3  2  1  0
  4  5  1  0
  6 11  2  0
  7  6  1  0
  8  7  2  0
  8  9  1  0
  9 10  2  0
 10 11  1  0
 12  4  1  0
 12 13  1  0
 14 12  1  0
 14 13  1  0
 15 14  1  0
 17 16  2  0
 17 15  1  0
 18 17  1  0
 19 17  1  0
 20 19  1  0
 20 21  1  0
 22 21  1  0
 23 22  1  0
 24 23  1  0
 24 20  1  0
  1 25  1  6
  2 26  1  0
  2 27  1  0
  3 28  1  0
  3 29  1  0
  4 30  1  1
  5 31  1  0
  5 32  1  0
  6 33  1  0
  7 34  1  0
 10 35  1  0
 12 36  1  6
 13 37  1  0
 13 38  1  0
 14 39  1  1
 18 40  1  0
 20 41  1  0
 21 42  1  0
 21 43  1  0
 22 44  1  0
 22 45  1  0
 23 46  1  0
 23 47  1  0
 24 48  1  0
 24 49  1  0
M  ISO  8  25  13  26  13  27  13  28  13  29  13  30  13  31  13  32  13
M  ISO  8  33  14  34  14  35  14  36  13  37  13  38  13  39  13  40   3
M  ISO  8  41  13  42  13  43  13  44  13  45  13  46  13  47  13  48  13
M  ISO  1  49  13
M  END
>  <minimizedAffinity>  (1) 
-5.38732862

>  <minimizedRMSD>  (1) 
2.10859728

$$$$
