
     RDKit          3D

 36 38  0  0  0  0  0  0  0  0999 V2000
   45.1010   33.8960   41.6200 C   0  0  0  0  0  0  0  0  0  0  0  0
   46.2850   34.2170   40.9600 C   0  0  0  0  0  0  0  0  0  0  0  0
   46.4420   33.7970   39.6490 C   0  0  0  0  0  0  0  0  0  0  0  0
   45.4460   33.0890   39.0430 C   0  0  0  0  0  0  0  0  0  0  0  0
   44.2750   32.7590   39.6630 C   0  0  0  0  0  0  0  0  0  0  0  0
   44.1570   33.1980   40.9740 C   0  0  0  0  0  0  0  0  0  0  0  0
   44.4170   35.9500   44.7230 C   0  0  0  0  0  0  0  0  0  0  0  0
   44.4740   35.6060   43.3520 C   0  0  0  0  0  0  0  0  0  0  0  0
   44.9920   34.3630   42.9930 C   0  0  0  0  0  0  0  0  0  0  0  0
   45.4150   33.5510   43.9910 N   0  0  0  0  0  0  0  0  0  0  0  0
   45.3520   33.9030   45.3000 C   0  0  0  0  0  0  0  0  0  0  0  0
   44.8570   35.0940   45.6680 N   0  0  0  0  0  0  0  0  0  0  0  0
   47.3550   34.9840   41.6550 C   0  0  0  0  0  0  0  0  0  0  0  0
   48.7410   34.6480   41.1970 C   0  0  0  0  0  0  0  0  0  0  0  0
   49.6920   35.1730   42.2730 C   0  0  0  0  0  0  0  0  0  0  0  0
   50.6670   34.0460   42.5470 C   0  0  0  0  0  0  0  0  0  0  0  0
   49.7350   32.8390   42.4900 C   0  0  0  0  0  0  0  0  0  0  0  0
   48.8880   33.1240   41.2670 C   0  0  0  0  0  0  0  0  0  0  0  0
   47.3652   34.0333   39.0997 H   0  0  0  0  0  0  0  0  0  0  0  0
   45.5937   32.7674   38.0015 H   0  0  0  0  0  0  0  0  0  0  0  0
   43.4823   32.1863   39.1594 H   0  0  0  0  0  0  0  0  0  0  0  0
   43.2308   32.9581   41.5168 H   0  0  0  0  0  0  0  0  0  0  0  0
   44.0091   36.9269   45.0219 H   0  0  0  0  0  0  0  0  0  0  0  0
   44.1160   36.3068   42.5834 H   0  0  0  0  0  0  0  0  0  0  0  0
   45.7113   33.2030   46.0687 H   0  0  0  0  0  0  0  0  0  0  0  0
   47.1826   36.0559   41.4783 H   0  0  0  0  0  0  0  0  0  0  0  0
   47.2981   34.7158   42.7203 H   0  0  0  0  0  0  0  0  0  0  0  0
   48.9382   35.0537   40.1937 H   0  0  0  0  0  0  0  0  0  0  0  0
   50.2272   36.0629   41.9102 H   0  0  0  0  0  0  0  0  0  0  0  0
   49.1499   35.4698   43.1829 H   0  0  0  0  0  0  0  0  0  0  0  0
   51.4485   33.9905   41.7749 H   0  0  0  0  0  0  0  0  0  0  0  0
   51.2243   34.1461   43.4901 H   0  0  0  0  0  0  0  0  0  0  0  0
   50.3036   31.9052   42.3689 H   0  0  0  0  0  0  0  0  0  0  0  0
   49.1427   32.7034   43.4070 H   0  0  0  0  0  0  0  0  0  0  0  0
   47.9007   32.6495   41.3675 H   0  0  0  0  0  0  0  0  0  0  0  0
   49.3527   32.7229   40.3542 H   0  0  0  0  0  0  0  0  0  0  0  0
  1  9  1  0
  2  1  1  0
  2 13  1  0
  3  2  2  0
  4  3  1  0
  4  5  2  0
  5  6  1  0
  6  1  2  0
  7 12  2  0
  8  7  1  0
  9  8  2  0
  9 10  1  0
 10 11  2  0
 11 12  1  0
 14 18  1  0
 14 13  1  0
 14 15  1  0
 15 16  1  0
 17 16  1  0
 18 17  1  0
  3 19  1  0
  4 20  1  0
  5 21  1  0
  6 22  1  0
  7 23  1  0
  8 24  1  0
 11 25  1  0
 13 26  1  0
 13 27  1  0
 14 28  1  0
 15 29  1  0
 15 30  1  0
 16 31  1  0
 16 32  1  0
 17 33  1  0
 17 34  1  0
 18 35  1  0
 18 36  1  0
M  ISO  8  19  14  20  14  21  14  22  14  23  14  24  14  25  14  26   8
M  ISO  8  27   8  28  13  29  13  30  13  31  13  32  13  33  13  34  13
M  ISO  2  35  13  36  13
M  END
>  <minimizedAffinity>  (1) 
-5.12474918

>  <minimizedRMSD>  (1) 
1.79017556

$$$$
