
     RDKit          3D

 30 32  0  0  0  0  0  0  0  0999 V2000
   48.3030   34.4900   41.9370 C   0  0  0  0  0  0  0  0  0  0  0  0
   48.9670   35.7790   41.5750 C   0  0  0  0  0  0  0  0  0  0  0  0
   49.6600   34.8060   42.4370 C   0  0  0  0  0  0  0  0  0  0  0  0
   46.1100   35.4850   42.6790 C   0  0  0  0  0  0  0  0  0  0  0  0
   47.1460   34.5730   42.8980 C   0  0  0  0  0  0  0  0  0  0  0  0
   47.0520   33.7370   44.0430 C   0  0  0  0  0  0  0  0  0  0  0  0
   45.9690   33.8730   44.8500 N   0  0  0  0  0  0  0  0  0  0  0  0
   44.9990   34.7630   44.5990 C   0  0  0  0  0  0  0  0  0  0  0  0
   45.0670   35.5620   43.5240 N   0  0  0  0  0  0  0  0  0  0  0  0
   48.0300   33.5800   40.7840 C   0  0  0  0  0  0  0  0  0  0  0  0
   49.1050   32.5910   40.4890 C   0  0  0  0  0  0  0  0  0  0  0  0
   48.6810   32.1610   39.0700 C   0  0  0  0  0  0  0  0  0  0  0  0
   48.4820   33.5080   38.4100 C   0  0  0  0  0  0  0  0  0  0  0  0
   48.0100   34.4400   39.5150 C   0  0  0  0  0  0  0  0  0  0  0  0
   49.3155   35.9486   40.5455 H   0  0  0  0  0  0  0  0  0  0  0  0
   48.7005   36.8429   41.6593 H   0  0  0  0  0  0  0  0  0  0  0  0
   49.8126   35.0299   43.5031 H   0  0  0  0  0  0  0  0  0  0  0  0
   50.6350   34.2979   42.4009 H   0  0  0  0  0  0  0  0  0  0  0  0
   46.1484   36.1492   41.8030 H   0  0  0  0  0  0  0  0  0  0  0  0
   47.8359   32.9993   44.2695 H   0  0  0  0  0  0  0  0  0  0  0  0
   44.1392   34.8389   45.2809 H   0  0  0  0  0  0  0  0  0  0  0  0
   47.1017   33.0524   41.0486 H   0  0  0  0  0  0  0  0  0  0  0  0
   50.1019   33.0559   40.4952 H   0  0  0  0  0  0  0  0  0  0  0  0
   49.1964   31.7711   41.2166 H   0  0  0  0  0  0  0  0  0  0  0  0
   49.4699   31.5789   38.5712 H   0  0  0  0  0  0  0  0  0  0  0  0
   47.7986   31.5049   39.0387 H   0  0  0  0  0  0  0  0  0  0  0  0
   49.4286   33.8691   37.9816 H   0  0  0  0  0  0  0  0  0  0  0  0
   47.7555   33.4537   37.5858 H   0  0  0  0  0  0  0  0  0  0  0  0
   48.6914   35.2975   39.6167 H   0  0  0  0  0  0  0  0  0  0  0  0
   47.0129   34.8570   39.3103 H   0  0  0  0  0  0  0  0  0  0  0  0
  1  3  1  0
  1  5  1  0
  2  1  1  0
  2  3  1  0
  4  5  2  0
  4  9  1  0
  5  6  1  0
  6  7  2  0
  8  7  1  0
  9  8  2  0
 10  1  1  0
 11 10  1  0
 12 11  1  0
 13 12  1  0
 13 14  1  0
 14 10  1  0
  2 15  1  0
  2 16  1  0
  3 17  1  0
  3 18  1  0
  4 19  1  0
  6 20  1  0
  8 21  1  0
 10 22  1  0
 11 23  1  0
 11 24  1  0
 12 25  1  0
 12 26  1  0
 13 27  1  0
 13 28  1  0
 14 29  1  0
 14 30  1  0
M  ISO  8  15  13  16  13  17  13  18  13  19  14  20  14  21  14  22  13
M  ISO  8  23  13  24  13  25  13  26  13  27  13  28  13  29  13  30  13
M  END
>  <minimizedAffinity>  (1) 
-4.678092

>  <minimizedRMSD>  (1) 
0.254065871

$$$$
