
     RDKit          3D

 40 43  0  0  1  0  0  0  0  0999 V2000
   45.8370   33.5610   42.8830 C   0  0  0  0  0  0  0  0  0  0  0  0
   47.1360   33.0950   42.4570 C   0  0  0  0  0  0  0  0  0  0  0  0
   47.9550   32.5610   43.4170 C   0  0  0  0  0  0  0  0  0  0  0  0
   47.5270   32.4920   44.7020 N   0  0  0  0  0  0  0  0  0  0  0  0
   46.3020   32.9370   45.0730 C   0  0  0  0  0  0  0  0  0  0  0  0
   45.4720   33.4680   44.1490 N   0  0  0  0  0  0  0  0  0  0  0  0
   47.5820   33.2030   41.0390 C   0  0  1  0  0  0  0  0  0  0  0  0
   47.0280   34.1820   40.1570 C   0  0  0  0  0  0  0  0  0  0  0  0
   48.3900   34.4550   40.6490 C   0  0  1  0  0  0  0  0  0  0  0  0
   48.7050   35.4960   41.6530 C   0  0  0  0  0  0  0  0  0  0  0  0
   49.3310   36.5910   41.0820 F   0  0  0  0  0  0  0  0  0  0  0  0
   49.5120   34.9940   42.6760 F   0  0  0  0  0  0  0  0  0  0  0  0
   47.5160   35.9410   42.1750 F   0  0  0  0  0  0  0  0  0  0  0  0
   45.9100   32.8190   46.5040 C   0  0  2  0  0  0  0  0  0  0  0  0
   47.0120   32.2430   47.3760 C   0  0  0  0  0  0  0  0  0  0  0  0
   45.7540   31.4740   47.1250 C   0  0  2  0  0  0  0  0  0  0  0  0
   45.6790   30.3070   46.2070 C   0  0  0  0  0  0  0  0  0  0  0  0
   46.9130   29.4570   46.4330 C   0  0  0  0  0  0  0  0  0  0  0  0
   46.5790   28.4900   47.5440 C   0  0  0  0  0  0  0  0  0  0  0  0
   45.1980   28.8440   48.0170 C   0  0  0  0  0  0  0  0  0  0  0  0
   44.5750   29.3940   46.7550 C   0  0  0  0  0  0  0  0  0  0  0  0
   45.1457   33.9971   42.1468 H   0  0  0  0  0  0  0  0  0  0  0  0
   48.9547   32.1901   43.1467 H   0  0  0  0  0  0  0  0  0  0  0  0
   47.7062   32.1118   40.9768 H   0  0  0  0  0  0  0  0  0  0  0  0
   46.1941   34.8095   40.5047 H   0  0  0  0  0  0  0  0  0  0  0  0
   46.5881   34.1258   39.1504 H   0  0  0  0  0  0  0  0  0  0  0  0
   49.3582   34.6859   40.1808 H   0  0  0  0  0  0  0  0  0  0  0  0
   45.2586   33.7051   46.4822 H   0  0  0  0  0  0  0  0  0  0  0  0
   47.9594   31.9147   46.9235 H   0  0  0  0  0  0  0  0  0  0  0  0
   47.5586   32.5787   48.2696 H   0  0  0  0  0  0  0  0  0  0  0  0
   45.0491   30.9764   47.8072 H   0  0  0  0  0  0  0  0  0  0  0  0
   45.5452   30.6494   45.1702 H   0  0  0  0  0  0  0  0  0  0  0  0
   47.1669   28.9064   45.5152 H   0  0  0  0  0  0  0  0  0  0  0  0
   47.7788   30.0810   46.6997 H   0  0  0  0  0  0  0  0  0  0  0  0
   46.5983   27.4568   47.1670 H   0  0  0  0  0  0  0  0  0  0  0  0
   47.3097   28.5580   48.3635 H   0  0  0  0  0  0  0  0  0  0  0  0
   44.6575   27.9563   48.3773 H   0  0  0  0  0  0  0  0  0  0  0  0
   45.1818   29.5440   48.8654 H   0  0  0  0  0  0  0  0  0  0  0  0
   43.6622   29.9654   46.9792 H   0  0  0  0  0  0  0  0  0  0  0  0
   44.2608   28.6136   46.0463 H   0  0  0  0  0  0  0  0  0  0  0  0
  1  6  2  0
  2  1  1  0
  2  3  2  0
  3  4  1  0
  4  5  2  0
  5 14  1  0
  6  5  1  0
  7  2  1  0
  8  9  1  0
  8  7  1  0
  9  7  1  0
  9 10  1  0
 10 13  1  0
 10 12  1  0
 11 10  1  0
 14 16  1  0
 14 15  1  0
 16 15  1  0
 17 18  1  0
 17 21  1  0
 17 16  1  0
 18 19  1  0
 19 20  1  0
 21 20  1  0
  1 22  1  0
  3 23  1  0
  7 24  1  6
  8 25  1  0
  8 26  1  0
  9 27  1  6
 14 28  1  1
 15 29  1  0
 15 30  1  0
 16 31  1  1
 17 32  1  0
 18 33  1  0
 18 34  1  0
 19 35  1  0
 19 36  1  0
 20 37  1  0
 20 38  1  0
 21 39  1  0
 21 40  1  0
M  ISO  8  22  14  23  14  24  13  25  13  26  13  27  13  28  13  29  13
M  ISO  8  30  13  31  13  32  13  33  13  34  13  35  13  36  13  37  13
M  ISO  3  38  13  39  13  40  13
M  END
>  <minimizedAffinity>  (1) 
-5.40307665

>  <minimizedRMSD>  (1) 
0.244826108

$$$$
