
     RDKit          3D

 39 42  0  0  0  0  0  0  0  0999 V2000
   45.5480   36.2130   43.2640 C   0  0  0  0  0  0  0  0  0  0  0  0
   46.1910   34.9760   43.0310 C   0  0  0  0  0  0  0  0  0  0  0  0
   45.9360   34.0070   43.9790 C   0  0  0  0  0  0  0  0  0  0  0  0
   45.1320   34.2200   45.0520 N   0  0  0  0  0  0  0  0  0  0  0  0
   44.5420   35.4340   45.2210 C   0  0  0  0  0  0  0  0  0  0  0  0
   44.7520   36.4200   44.3280 N   0  0  0  0  0  0  0  0  0  0  0  0
   46.5350   32.7460   43.8330 C   0  0  0  0  0  0  0  0  0  0  0  0
   47.7790   32.2470   44.0920 C   0  0  0  0  0  0  0  0  0  0  0  0
   48.1100   30.9820   43.8610 C   0  0  0  0  0  0  0  0  0  0  0  0
   47.1150   30.1780   43.3360 C   0  0  0  0  0  0  0  0  0  0  0  0
   45.6880   31.3220   43.1900 S   0  0  0  0  0  0  0  0  0  0  0  0
   47.0140   34.8090   41.9020 C   0  0  0  0  0  0  0  0  0  0  0  0
   48.2110   35.2100   42.0230 O   0  0  0  0  0  0  0  0  0  0  0  0
   46.4640   34.1900   40.6520 C   0  0  0  0  0  0  0  0  0  0  0  0
   45.1430   33.9130   40.3840 C   0  0  0  0  0  0  0  0  0  0  0  0
   45.1250   33.3660   39.1550 N   0  0  0  0  0  0  0  0  0  0  0  0
   46.4100   33.3130   38.6860 C   0  0  0  0  0  0  0  0  0  0  0  0
   47.2290   33.8230   39.6140 N   0  0  0  0  0  0  0  0  0  0  0  0
   46.7840   32.7610   37.3390 C   0  0  0  0  0  0  0  0  0  0  0  0
   47.1040   31.3020   37.3750 C   0  0  0  0  0  0  0  0  0  0  0  0
   48.6130   31.2330   37.3320 C   0  0  0  0  0  0  0  0  0  0  0  0
   49.0870   32.4790   36.6440 C   0  0  0  0  0  0  0  0  0  0  0  0
   47.9800   33.4880   36.7720 C   0  0  0  0  0  0  0  0  0  0  0  0
   45.7042   37.0351   42.5500 H   0  0  0  0  0  0  0  0  0  0  0  0
   43.8912   35.6109   46.0900 H   0  0  0  0  0  0  0  0  0  0  0  0
   48.5402   32.9221   44.5102 H   0  0  0  0  0  0  0  0  0  0  0  0
   49.1176   30.5959   44.0749 H   0  0  0  0  0  0  0  0  0  0  0  0
   47.1665   29.1118   43.0705 H   0  0  0  0  0  0  0  0  0  0  0  0
   44.2797   34.1002   41.0395 H   0  0  0  0  0  0  0  0  0  0  0  0
   44.2865   33.0420   38.6522 H   0  0  0  0  0  0  0  0  0  0  0  0
   45.8993   32.9103   36.7026 H   0  0  0  0  0  0  0  0  0  0  0  0
   46.7220   30.8448   38.2997 H   0  0  0  0  0  0  0  0  0  0  0  0
   46.6408   30.7560   36.5399 H   0  0  0  0  0  0  0  0  0  0  0  0
   49.0188   31.1872   38.3534 H   0  0  0  0  0  0  0  0  0  0  0  0
   48.9508   30.3342   36.7953 H   0  0  0  0  0  0  0  0  0  0  0  0
   49.2914   32.2724   35.5831 H   0  0  0  0  0  0  0  0  0  0  0  0
   50.0179   32.8520   37.0960 H   0  0  0  0  0  0  0  0  0  0  0  0
   48.2848   34.2995   37.4492 H   0  0  0  0  0  0  0  0  0  0  0  0
   47.7413   33.9351   35.7957 H   0  0  0  0  0  0  0  0  0  0  0  0
  1  6  2  0
  2  1  1  0
  2  3  2  0
  3  4  1  0
  4  5  2  0
  6  5  1  0
  7  3  1  0
  7  8  2  0
  9  8  1  0
 10  9  2  0
 11 10  1  0
 11  7  1  0
 12 13  2  0
 12  2  1  0
 14 12  1  0
 15 14  2  0
 16 15  1  0
 17 16  1  0
 17 18  2  0
 18 14  1  0
 19 20  1  0
 19 17  1  0
 21 20  1  0
 22 23  1  0
 22 21  1  0
 23 19  1  0
  1 24  1  0
  5 25  1  0
  8 26  1  0
  9 27  1  0
 10 28  1  0
 15 29  1  0
 16 30  1  0
 19 31  1  0
 20 32  1  0
 20 33  1  0
 21 34  1  0
 21 35  1  0
 22 36  1  0
 22 37  1  0
 23 38  1  0
 23 39  1  0
M  ISO  8  24  14  25  14  26  14  27  14  28  14  29  14  30   9  31  13
M  ISO  8  32  13  33  13  34  13  35  13  36  13  37  13  38  13  39  13
M  END
>  <minimizedAffinity>  (1) 
-4.75879192

>  <minimizedRMSD>  (1) 
1.12819803

$$$$
