
     RDKit          3D

 30 32  0  0  0  0  0  0  0  0999 V2000
   45.8450   33.2560   46.2860 C   0  0  0  0  0  0  0  0  0  0  0  0
   45.1980   33.1500   47.5490 C   0  0  0  0  0  0  0  0  0  0  0  0
   45.5940   32.1650   48.3940 C   0  0  0  0  0  0  0  0  0  0  0  0
   46.6330   31.2910   47.9760 C   0  0  0  0  0  0  0  0  0  0  0  0
   47.0670   31.9000   46.2970 S   0  0  0  0  0  0  0  0  0  0  0  0
   44.4670   36.1320   44.3880 C   0  0  0  0  0  0  0  0  0  0  0  0
   45.1680   35.9610   43.1650 C   0  0  0  0  0  0  0  0  0  0  0  0
   46.0640   34.8910   43.0450 C   0  0  0  0  0  0  0  0  0  0  0  0
   46.2090   34.0660   44.1310 N   0  0  0  0  0  0  0  0  0  0  0  0
   45.5190   34.2700   45.2750 C   0  0  0  0  0  0  0  0  0  0  0  0
   44.6470   35.2990   45.4120 N   0  0  0  0  0  0  0  0  0  0  0  0
   47.2840   30.1920   48.5740 C   0  0  0  0  0  0  0  0  0  0  0  0
   47.8400   29.1340   47.6640 C   0  0  0  0  0  0  0  0  0  0  0  0
   49.2220   29.5810   47.3530 C   0  0  0  0  0  0  0  0  0  0  0  0
   49.7010   30.2280   48.6300 C   0  0  0  0  0  0  0  0  0  0  0  0
   48.4730   30.6230   49.3900 C   0  0  0  0  0  0  0  0  0  0  0  0
   44.3973   33.8487   47.8330 H   0  0  0  0  0  0  0  0  0  0  0  0
   45.1213   32.0459   49.3801 H   0  0  0  0  0  0  0  0  0  0  0  0
   43.7611   36.9692   44.4920 H   0  0  0  0  0  0  0  0  0  0  0  0
   45.0103   36.6561   42.3272 H   0  0  0  0  0  0  0  0  0  0  0  0
   46.6288   34.7193   42.1168 H   0  0  0  0  0  0  0  0  0  0  0  0
   46.4536   29.7625   49.1537 H   0  0  0  0  0  0  0  0  0  0  0  0
   47.8543   28.1574   48.1701 H   0  0  0  0  0  0  0  0  0  0  0  0
   47.2321   29.0095   46.7557 H   0  0  0  0  0  0  0  0  0  0  0  0
   49.8584   28.7238   47.0879 H   0  0  0  0  0  0  0  0  0  0  0  0
   49.2584   30.2678   46.4946 H   0  0  0  0  0  0  0  0  0  0  0  0
   50.2987   29.5150   49.2168 H   0  0  0  0  0  0  0  0  0  0  0  0
   50.3382   31.0999   48.4207 H   0  0  0  0  0  0  0  0  0  0  0  0
   48.4546   31.7132   49.5354 H   0  0  0  0  0  0  0  0  0  0  0  0
   48.4584   30.1466   50.3814 H   0  0  0  0  0  0  0  0  0  0  0  0
  1  5  1  0
  1  2  2  0
  2  3  1  0
  4  3  2  0
  4 12  1  0
  5  4  1  0
  6 11  2  0
  7  6  1  0
  8  7  2  0
  8  9  1  0
  9 10  2  0
 10 11  1  0
 10  1  1  0
 12 16  1  0
 13 12  1  0
 14 13  1  0
 14 15  1  0
 15 16  1  0
  2 17  1  0
  3 18  1  0
  6 19  1  0
  7 20  1  0
  8 21  1  0
 12 22  1  0
 13 23  1  0
 13 24  1  0
 14 25  1  0
 14 26  1  0
 15 27  1  0
 15 28  1  0
 16 29  1  0
 16 30  1  0
M  ISO  8  17  14  18  14  19  14  20  14  21  14  22  13  23  13  24  13
M  ISO  6  25  13  26  13  27  13  28  13  29  13  30  13
M  END
>  <minimizedAffinity>  (1) 
-4.77243376

>  <minimizedRMSD>  (1) 
0.661383688

$$$$
