
     RDKit          3D

 54 56  0  0  0  0  0  0  0  0999 V2000
   46.1210   34.5460   43.6290 C   0  0  0  0  0  0  0  0  0  0  0  0
   46.1100   33.7840   44.7710 C   0  0  0  0  0  0  0  0  0  0  0  0
   45.2980   34.1860   45.7870 C   0  0  0  0  0  0  0  0  0  0  0  0
   44.5430   35.3140   45.6290 N   0  0  0  0  0  0  0  0  0  0  0  0
   44.5530   36.0460   44.5340 C   0  0  0  0  0  0  0  0  0  0  0  0
   45.3430   35.6450   43.5570 N   0  0  0  0  0  0  0  0  0  0  0  0
   46.9440   34.0670   42.5120 C   0  0  0  0  0  0  0  0  0  0  0  0
   48.3370   34.6250   42.5800 C   0  0  0  0  0  0  0  0  0  0  0  0
   48.6510   35.4910   41.4420 C   0  0  0  0  0  0  0  0  0  0  0  0
   48.4340   34.7880   40.1190 C   0  0  0  0  0  0  0  0  0  0  0  0
   47.1710   34.0210   40.0560 C   0  0  0  0  0  0  0  0  0  0  0  0
   46.2600   34.3380   41.2200 C   0  0  0  0  0  0  0  0  0  0  0  0
   46.7660   32.6800   45.1030 O   0  0  0  0  0  0  0  0  0  0  0  0
   47.2350   32.1540   46.2840 C   0  0  0  0  0  0  0  0  0  0  0  0
   47.1400   30.6450   46.3690 C   0  0  0  0  0  0  0  0  0  0  0  0
   46.0190   30.1140   45.6160 N   0  0  0  0  0  0  0  0  0  0  0  0
   44.8420   29.5620   46.7760 S   0  0  0  0  0  0  0  0  0  0  0  0
   43.6040   29.0650   46.0940 O   0  0  0  0  0  0  0  0  0  0  0  0
   44.5100   30.7410   47.6440 O   0  0  0  0  0  0  0  0  0  0  0  0
   45.4830   28.3750   47.7510 O   0  0  0  0  0  0  0  0  0  0  0  0
   45.0190   27.1000   47.5090 C   0  0  0  0  0  0  0  0  0  0  0  0
   46.0960   26.0960   47.2340 C   0  0  0  0  0  0  0  0  0  0  0  0
   46.4530   25.4610   48.5600 C   0  0  0  0  0  0  0  0  0  0  0  0
   45.1240   25.3820   49.2350 C   0  0  0  0  0  0  0  0  0  0  0  0
   44.3840   26.6010   48.7940 C   0  0  0  0  0  0  0  0  0  0  0  0
   45.2502   33.6103   46.7231 H   0  0  0  0  0  0  0  0  0  0  0  0
   43.9319   36.9489   44.4389 H   0  0  0  0  0  0  0  0  0  0  0  0
   47.0598   32.9759   42.5898 H   0  0  0  0  0  0  0  0  0  0  0  0
   48.4379   35.2096   43.5063 H   0  0  0  0  0  0  0  0  0  0  0  0
   49.0377   33.7773   42.5579 H   0  0  0  0  0  0  0  0  0  0  0  0
   48.0039   36.3796   41.4825 H   0  0  0  0  0  0  0  0  0  0  0  0
   49.7131   35.7694   41.5092 H   0  0  0  0  0  0  0  0  0  0  0  0
   48.4213   35.5450   39.3210 H   0  0  0  0  0  0  0  0  0  0  0  0
   49.2557   34.0667   39.9985 H   0  0  0  0  0  0  0  0  0  0  0  0
   46.6506   34.2693   39.1193 H   0  0  0  0  0  0  0  0  0  0  0  0
   47.4199   32.9504   40.0998 H   0  0  0  0  0  0  0  0  0  0  0  0
   45.9761   35.3999   41.1775 H   0  0  0  0  0  0  0  0  0  0  0  0
   45.3659   33.7008   41.1529 H   0  0  0  0  0  0  0  0  0  0  0  0
   48.2913   32.4405   46.3945 H   0  0  0  0  0  0  0  0  0  0  0  0
   46.5994   32.5578   47.0859 H   0  0  0  0  0  0  0  0  0  0  0  0
   48.0691   30.2104   45.9716 H   0  0  0  0  0  0  0  0  0  0  0  0
   46.9879   30.3794   47.4255 H   0  0  0  0  0  0  0  0  0  0  0  0
   45.6117   30.8500   45.0217 H   0  0  0  0  0  0  0  0  0  0  0  0
   42.9370   28.7972   46.7749 H   0  0  0  0  0  0  0  0  0  0  0  0
   44.5833   30.4807   48.5963 H   0  0  0  0  0  0  0  0  0  0  0  0
   44.3551   27.1771   46.6353 H   0  0  0  0  0  0  0  0  0  0  0  0
   45.7298   25.3304   46.5342 H   0  0  0  0  0  0  0  0  0  0  0  0
   46.9745   26.5756   46.7776 H   0  0  0  0  0  0  0  0  0  0  0  0
   46.8898   24.4613   48.4195 H   0  0  0  0  0  0  0  0  0  0  0  0
   47.2075   26.0219   49.1311 H   0  0  0  0  0  0  0  0  0  0  0  0
   44.5880   24.4729   48.9249 H   0  0  0  0  0  0  0  0  0  0  0  0
   45.2225   25.3362   50.3296 H   0  0  0  0  0  0  0  0  0  0  0  0
   44.4510   27.3785   49.5692 H   0  0  0  0  0  0  0  0  0  0  0  0
   43.3232   26.3628   48.6270 H   0  0  0  0  0  0  0  0  0  0  0  0
  1  2  1  0
  2 13  1  0
  2  3  2  0
  4  3  1  0
  5  4  2  0
  6  1  2  0
  6  5  1  0
  7  8  1  0
  7  1  1  0
  9  8  1  0
 10  9  1  0
 11 10  1  0
 11 12  1  0
 12  7  1  0
 13 14  1  0
 14 15  1  0
 16 15  1  0
 16 17  1  0
 17 19  1  0
 17 20  1  0
 18 17  1  0
 21 20  1  0
 21 25  1  0
 22 21  1  0
 22 23  1  0
 23 24  1  0
 25 24  1  0
  3 26  1  0
  5 27  1  0
  7 28  1  0
  8 29  1  0
  8 30  1  0
  9 31  1  0
  9 32  1  0
 10 33  1  0
 10 34  1  0
 11 35  1  0
 11 36  1  0
 12 37  1  0
 12 38  1  0
 14 39  1  0
 14 40  1  0
 15 41  1  0
 15 42  1  0
 16 43  1  0
 18 44  1  0
 19 45  1  0
 21 46  1  0
 22 47  1  0
 22 48  1  0
 23 49  1  0
 23 50  1  0
 24 51  1  0
 24 52  1  0
 25 53  1  0
 25 54  1  0
M  ISO  8  26  14  27  14  28  13  29  13  30  13  31  13  32  13  33  13
M  ISO  8  34  13  35  13  36  13  37  13  38  13  39   8  40   8  41   8
M  ISO  8  42   8  43   5  44   3  45   3  46  13  47  13  48  13  49  13
M  ISO  5  50  13  51  13  52  13  53  13  54  13
M  END
>  <minimizedAffinity>  (1) 
-5.78943443

>  <minimizedRMSD>  (1) 
0.69828248

$$$$
