
     RDKit          3D

 39 42  0  0  1  0  0  0  0  0999 V2000
   46.7240   34.7590   42.1080 C   0  0  0  0  0  0  0  0  0  0  0  0
   47.9310   35.3910   41.8690 C   0  0  0  0  0  0  0  0  0  0  0  0
   48.6660   35.2710   40.7160 C   0  0  0  0  0  0  0  0  0  0  0  0
   48.1780   34.4590   39.7070 C   0  0  0  0  0  0  0  0  0  0  0  0
   46.9880   33.8480   39.9660 C   0  0  0  0  0  0  0  0  0  0  0  0
   46.3030   33.9900   41.1010 N   0  0  0  0  0  0  0  0  0  0  0  0
   44.4570   35.9480   44.8710 C   0  0  0  0  0  0  0  0  0  0  0  0
   45.0930   35.9440   43.6210 C   0  0  0  0  0  0  0  0  0  0  0  0
   45.9770   34.9180   43.3530 C   0  0  0  0  0  0  0  0  0  0  0  0
   46.1860   33.9700   44.3070 N   0  0  0  0  0  0  0  0  0  0  0  0
   45.5610   33.9910   45.5080 C   0  0  0  0  0  0  0  0  0  0  0  0
   44.6950   34.9970   45.7700 N   0  0  0  0  0  0  0  0  0  0  0  0
   46.4420   32.9690   38.8950 C   0  0  2  0  0  0  0  0  0  0  0  0
   47.4370   32.2180   38.0790 C   0  0  0  0  0  0  0  0  0  0  0  0
   46.6260   33.3310   37.4970 C   0  0  1  0  0  0  0  0  0  0  0  0
   45.4630   33.0600   36.5730 C   0  0  0  0  0  0  0  0  0  0  0  0
   44.4130   32.1940   37.1930 C   0  0  0  0  0  0  0  0  0  0  0  0
   44.2790   30.9690   36.3180 C   0  0  0  0  0  0  0  0  0  0  0  0
   44.9510   31.3160   35.0220 C   0  0  0  0  0  0  0  0  0  0  0  0
   46.0520   32.2420   35.4180 C   0  0  0  0  0  0  0  0  0  0  0  0
   48.3320   36.0385   42.6627 H   0  0  0  0  0  0  0  0  0  0  0  0
   49.6192   35.8069   40.5969 H   0  0  0  0  0  0  0  0  0  0  0  0
   48.7157   34.3163   38.7580 H   0  0  0  0  0  0  0  0  0  0  0  0
   43.7476   36.7532   45.1126 H   0  0  0  0  0  0  0  0  0  0  0  0
   44.8942   36.7316   42.8793 H   0  0  0  0  0  0  0  0  0  0  0  0
   45.7533   33.2067   46.2549 H   0  0  0  0  0  0  0  0  0  0  0  0
   45.5570   32.7137   39.4964 H   0  0  0  0  0  0  0  0  0  0  0  0
   48.5142   32.3514   38.2574 H   0  0  0  0  0  0  0  0  0  0  0  0
   47.6152   31.1611   37.8317 H   0  0  0  0  0  0  0  0  0  0  0  0
   46.8985   34.2331   36.9295 H   0  0  0  0  0  0  0  0  0  0  0  0
   44.9989   34.0172   36.2929 H   0  0  0  0  0  0  0  0  0  0  0  0
   44.7160   31.9014   38.2092 H   0  0  0  0  0  0  0  0  0  0  0  0
   43.4554   32.7300   37.2681 H   0  0  0  0  0  0  0  0  0  0  0  0
   44.7750   30.1068   36.7877 H   0  0  0  0  0  0  0  0  0  0  0  0
   43.2249   30.6936   36.1661 H   0  0  0  0  0  0  0  0  0  0  0  0
   44.2478   31.8152   34.3392 H   0  0  0  0  0  0  0  0  0  0  0  0
   45.3188   30.4282   34.4867 H   0  0  0  0  0  0  0  0  0  0  0  0
   46.9351   31.6772   35.7514 H   0  0  0  0  0  0  0  0  0  0  0  0
   46.3887   32.8752   34.5839 H   0  0  0  0  0  0  0  0  0  0  0  0
  1  9  1  0
  2  1  2  0
  3  2  1  0
  4  5  1  0
  4  3  2  0
  5  6  2  0
  6  1  1  0
  7 12  2  0
  8  7  1  0
  9  8  2  0
  9 10  1  0
 10 11  2  0
 11 12  1  0
 13  5  1  0
 14 13  1  0
 15 14  1  0
 15 13  1  0
 16 17  1  0
 16 15  1  0
 18 17  1  0
 19 20  1  0
 19 18  1  0
 20 16  1  0
  2 21  1  0
  3 22  1  0
  4 23  1  0
  7 24  1  0
  8 25  1  0
 11 26  1  0
 13 27  1  1
 14 28  1  0
 14 29  1  0
 15 30  1  1
 16 31  1  0
 17 32  1  0
 17 33  1  0
 18 34  1  0
 18 35  1  0
 19 36  1  0
 19 37  1  0
 20 38  1  0
 20 39  1  0
M  ISO  8  21  14  22  14  23  14  24  14  25  14  26  14  27  13  28  13
M  ISO  8  29  13  30  13  31  13  32  13  33  13  34  13  35  13  36  13
M  ISO  3  37  13  38  13  39  13
M  END
>  <minimizedAffinity>  (1) 
-5.58480597

>  <minimizedRMSD>  (1) 
0.833451688

$$$$
