
     RDKit          3D

 42 45  0  0  0  0  0  0  0  0999 V2000
   46.6140   34.7540   42.0500 C   0  0  0  0  0  0  0  0  0  0  0  0
   47.8890   35.2920   42.0180 C   0  0  0  0  0  0  0  0  0  0  0  0
   48.7530   35.2040   40.9410 C   0  0  0  0  0  0  0  0  0  0  0  0
   48.3480   34.5420   39.8050 C   0  0  0  0  0  0  0  0  0  0  0  0
   47.0800   33.9930   39.7990 C   0  0  0  0  0  0  0  0  0  0  0  0
   46.6060   33.3880   38.6810 C   0  0  0  0  0  0  0  0  0  0  0  0
   45.3300   32.8850   38.5960 C   0  0  0  0  0  0  0  0  0  0  0  0
   44.5390   33.0220   39.7240 C   0  0  0  0  0  0  0  0  0  0  0  0
   45.0120   33.6280   40.8600 C   0  0  0  0  0  0  0  0  0  0  0  0
   46.2700   34.1140   40.9030 C   0  0  0  0  0  0  0  0  0  0  0  0
   44.4190   36.1380   44.7510 C   0  0  0  0  0  0  0  0  0  0  0  0
   45.0360   36.0530   43.5180 C   0  0  0  0  0  0  0  0  0  0  0  0
   45.9140   34.9620   43.2460 C   0  0  0  0  0  0  0  0  0  0  0  0
   46.0350   34.1260   44.2930 N   0  0  0  0  0  0  0  0  0  0  0  0
   45.4530   34.2030   45.4590 C   0  0  0  0  0  0  0  0  0  0  0  0
   44.6330   35.2280   45.6790 N   0  0  0  0  0  0  0  0  0  0  0  0
   45.7650   33.0780   46.3950 C   0  0  0  0  0  0  0  0  0  0  0  0
   44.9210   33.0600   47.4720 F   0  0  0  0  0  0  0  0  0  0  0  0
   47.0880   33.1620   46.7860 F   0  0  0  0  0  0  0  0  0  0  0  0
   45.6960   31.8650   45.6800 F   0  0  0  0  0  0  0  0  0  0  0  0
   44.0060   33.5820   41.9530 C   0  0  0  0  0  0  0  0  0  0  0  0
   43.9530   32.1500   42.3650 C   0  0  0  0  0  0  0  0  0  0  0  0
   43.1390   31.3640   41.3720 C   0  0  0  0  0  0  0  0  0  0  0  0
   42.0190   32.3550   41.1790 C   0  0  0  0  0  0  0  0  0  0  0  0
   42.5720   33.6850   41.4280 C   0  0  0  0  0  0  0  0  0  0  0  0
   48.2402   35.8275   42.9124 H   0  0  0  0  0  0  0  0  0  0  0  0
   49.7533   35.6586   40.9925 H   0  0  0  0  0  0  0  0  0  0  0  0
   49.0108   34.4528   38.9316 H   0  0  0  0  0  0  0  0  0  0  0  0
   47.2692   33.2965   37.8082 H   0  0  0  0  0  0  0  0  0  0  0  0
   44.9574   32.4000   37.6817 H   0  0  0  0  0  0  0  0  0  0  0  0
   43.5089   32.6365   39.7089 H   0  0  0  0  0  0  0  0  0  0  0  0
   43.7396   36.9772   44.9608 H   0  0  0  0  0  0  0  0  0  0  0  0
   44.8518   36.8205   42.7519 H   0  0  0  0  0  0  0  0  0  0  0  0
   44.2738   34.3631   42.6797 H   0  0  0  0  0  0  0  0  0  0  0  0
   44.9742   31.7430   42.4038 H   0  0  0  0  0  0  0  0  0  0  0  0
   43.4863   32.0746   43.3582 H   0  0  0  0  0  0  0  0  0  0  0  0
   43.6910   31.1737   40.4398 H   0  0  0  0  0  0  0  0  0  0  0  0
   42.8383   30.3545   41.6889 H   0  0  0  0  0  0  0  0  0  0  0  0
   41.6340   32.2933   40.1504 H   0  0  0  0  0  0  0  0  0  0  0  0
   41.1867   32.1429   41.8663 H   0  0  0  0  0  0  0  0  0  0  0  0
   42.5709   34.2586   40.4894 H   0  0  0  0  0  0  0  0  0  0  0  0
   41.9530   34.1909   42.1836 H   0  0  0  0  0  0  0  0  0  0  0  0
  1 13  1  0
  2  1  2  0
  3  2  1  0
  4  3  2  0
  5  4  1  0
  5 10  2  0
  6  5  1  0
  7  6  2  0
  7  8  1  0
  8  9  2  0
  9 10  1  0
  9 21  1  0
 10  1  1  0
 11 16  2  0
 12 11  1  0
 13 12  2  0
 13 14  1  0
 14 15  2  0
 15 16  1  0
 15 17  1  0
 17 19  1  0
 17 18  1  0
 20 17  1  0
 21 22  1  0
 23 22  1  0
 24 23  1  0
 24 25  1  0
 25 21  1  0
  2 26  1  0
  3 27  1  0
  4 28  1  0
  6 29  1  0
  7 30  1  0
  8 31  1  0
 11 32  1  0
 12 33  1  0
 21 34  1  0
 22 35  1  0
 22 36  1  0
 23 37  1  0
 23 38  1  0
 24 39  1  0
 24 40  1  0
 25 41  1  0
 25 42  1  0
M  ISO  8  26  14  27  14  28  14  29  14  30  14  31  14  32  14  33  14
M  ISO  8  34  13  35  13  36  13  37  13  38  13  39  13  40  13  41  13
M  ISO  1  42  13
M  END
>  <minimizedAffinity>  (1) 
-7.09888077

>  <minimizedRMSD>  (1) 
0.841023803

$$$$
