
     RDKit          3D

 32 34  0  0  1  0  0  0  0  0999 V2000
   44.8210   33.9200   41.3790 C   0  0  1  0  0  0  0  0  0  0  0  0
   46.2920   34.3490   41.0450 C   0  0  0  0  0  0  0  0  0  0  0  0
   45.4110   35.0830   41.9840 C   0  0  2  0  0  0  0  0  0  0  0  0
   45.6350   35.2280   43.4400 C   0  0  0  0  0  0  0  0  0  0  0  0
   46.0500   33.9420   44.1320 C   0  0  0  0  0  0  0  0  0  0  0  0
   45.4850   34.0220   45.5310 C   0  0  0  0  0  0  0  0  0  0  0  0
   44.6650   35.2860   45.6210 C   0  0  0  0  0  0  0  0  0  0  0  0
   44.4590   35.7520   44.1830 C   0  0  0  0  0  0  0  0  0  0  0  0
   43.9160   34.0480   40.2050 C   0  0  0  0  0  0  0  0  0  0  0  0
   44.2720   33.5240   39.1490 O   0  0  0  0  0  0  0  0  0  0  0  0
   42.0290   35.1810   39.1250 C   0  0  0  0  0  0  0  0  0  0  0  0
   42.6560   34.7360   40.2500 C   0  0  0  0  0  0  0  0  0  0  0  0
   42.0250   34.9530   41.4900 C   0  0  0  0  0  0  0  0  0  0  0  0
   40.8330   35.5860   41.5310 N   0  0  0  0  0  0  0  0  0  0  0  0
   40.2280   36.0220   40.3850 C   0  0  0  0  0  0  0  0  0  0  0  0
   40.8270   35.8150   39.2230 N   0  0  0  0  0  0  0  0  0  0  0  0
   44.2784   33.0633   41.8051 H   0  0  0  0  0  0  0  0  0  0  0  0
   47.1450   33.7635   41.4186 H   0  0  0  0  0  0  0  0  0  0  0  0
   46.8698   34.5861   40.1395 H   0  0  0  0  0  0  0  0  0  0  0  0
   45.1168   36.1411   42.0461 H   0  0  0  0  0  0  0  0  0  0  0  0
   46.4581   35.9569   43.4744 H   0  0  0  0  0  0  0  0  0  0  0  0
   45.6362   33.0717   43.6017 H   0  0  0  0  0  0  0  0  0  0  0  0
   47.1438   33.8257   44.1448 H   0  0  0  0  0  0  0  0  0  0  0  0
   44.8483   33.1471   45.7289 H   0  0  0  0  0  0  0  0  0  0  0  0
   46.2955   34.0338   46.2746 H   0  0  0  0  0  0  0  0  0  0  0  0
   43.6960   35.0806   46.0995 H   0  0  0  0  0  0  0  0  0  0  0  0
   45.1696   36.0533   46.2266 H   0  0  0  0  0  0  0  0  0  0  0  0
   44.4273   36.8504   44.1327 H   0  0  0  0  0  0  0  0  0  0  0  0
   43.5087   35.3913   43.7625 H   0  0  0  0  0  0  0  0  0  0  0  0
   42.4926   35.0286   38.1392 H   0  0  0  0  0  0  0  0  0  0  0  0
   42.5006   34.6087   42.4202 H   0  0  0  0  0  0  0  0  0  0  0  0
   39.2572   36.5375   40.4281 H   0  0  0  0  0  0  0  0  0  0  0  0
  1  3  1  0
  2  1  1  0
  2  3  1  0
  3  4  1  0
  4  5  1  0
  4  8  1  0
  5  6  1  0
  6  7  1  0
  8  7  1  0
  9 12  1  0
  9  1  1  0
 10  9  2  0
 11 16  2  0
 11 12  1  0
 12 13  2  0
 13 14  1  0
 15 14  2  0
 16 15  1  0
  1 17  1  1
  2 18  1  0
  2 19  1  0
  3 20  1  6
  4 21  1  0
  5 22  1  0
  5 23  1  0
  6 24  1  0
  6 25  1  0
  7 26  1  0
  7 27  1  0
  8 28  1  0
  8 29  1  0
 11 30  1  0
 13 31  1  0
 15 32  1  0
M  ISO  8  17  13  18  13  19  13  20  13  21  13  22  13  23  13  24  13
M  ISO  8  25  13  26  13  27  13  28  13  29  13  30  14  31  14  32  14
M  END
>  <minimizedAffinity>  (1) 
-4.97231388

>  <minimizedRMSD>  (1) 
5.41255999

$$$$
