
     RDKit          3D

 34 36  0  0  0  0  0  0  0  0999 V2000
   46.1770   32.5720   46.9840 C   0  0  0  0  0  0  0  0  0  0  0  0
   45.2320   32.5400   47.9510 C   0  0  0  0  0  0  0  0  0  0  0  0
   45.4400   31.7440   49.0620 C   0  0  0  0  0  0  0  0  0  0  0  0
   46.5990   30.9930   49.1760 C   0  0  0  0  0  0  0  0  0  0  0  0
   47.5540   31.0570   48.1470 C   0  0  0  0  0  0  0  0  0  0  0  0
   47.3150   31.8240   47.1140 N   0  0  0  0  0  0  0  0  0  0  0  0
   44.9500   35.0060   44.5500 C   0  0  0  0  0  0  0  0  0  0  0  0
   45.9070   34.8730   43.5290 C   0  0  0  0  0  0  0  0  0  0  0  0
   46.9660   33.9630   43.6470 C   0  0  0  0  0  0  0  0  0  0  0  0
   46.9500   33.2770   44.7930 N   0  0  0  0  0  0  0  0  0  0  0  0
   46.0650   33.3850   45.7650 C   0  0  0  0  0  0  0  0  0  0  0  0
   45.0590   34.2530   45.6460 N   0  0  0  0  0  0  0  0  0  0  0  0
   43.8900   35.9440   44.3660 N   0  0  0  0  0  0  0  0  0  0  0  0
   48.7770   30.2870   48.2340 C   0  0  0  0  0  0  0  0  0  0  0  0
   49.8400   30.6790   48.9310 C   0  0  0  0  0  0  0  0  0  0  0  0
   49.8550   31.9660   49.6900 C   0  0  0  0  0  0  0  0  0  0  0  0
   51.2730   32.3760   49.8590 C   0  0  0  0  0  0  0  0  0  0  0  0
   52.3300   31.6360   49.2210 C   0  0  0  0  0  0  0  0  0  0  0  0
   53.8650   32.5670   49.7630 S   0  0  0  0  0  0  0  0  0  0  0  0
   52.7570   33.7620   50.7390 C   0  0  0  0  0  0  0  0  0  0  0  0
   51.7080   33.3980   50.5680 N   0  0  0  0  0  0  0  0  0  0  0  0
   44.3133   33.1373   47.8551 H   0  0  0  0  0  0  0  0  0  0  0  0
   44.6825   31.7066   49.8587 H   0  0  0  0  0  0  0  0  0  0  0  0
   46.7687   30.3572   50.0575 H   0  0  0  0  0  0  0  0  0  0  0  0
   45.8233   35.4925   42.6239 H   0  0  0  0  0  0  0  0  0  0  0  0
   47.7348   33.8270   42.8721 H   0  0  0  0  0  0  0  0  0  0  0  0
   43.8433   36.5058   43.5040 H   0  0  0  0  0  0  0  0  0  0  0  0
   43.1718   36.0591   45.0952 H   0  0  0  0  0  0  0  0  0  0  0  0
   48.8298   29.3289   47.6962 H   0  0  0  0  0  0  0  0  0  0  0  0
   50.7334   30.0375   48.9491 H   0  0  0  0  0  0  0  0  0  0  0  0
   49.3065   32.7375   49.1297 H   0  0  0  0  0  0  0  0  0  0  0  0
   49.3716   31.8402   50.6700 H   0  0  0  0  0  0  0  0  0  0  0  0
   52.2559   30.7473   48.5770 H   0  0  0  0  0  0  0  0  0  0  0  0
   53.0744   34.6253   51.3423 H   0  0  0  0  0  0  0  0  0  0  0  0
  1  6  1  0
  1  2  2  0
  2  3  1  0
  3  4  2  0
  5 14  1  0
  5  4  1  0
  6  5  2  0
  7 12  2  0
  8  9  2  0
  8  7  1  0
  9 10  1  0
 10 11  2  0
 11  1  1  0
 12 11  1  0
 13  7  1  0
 14 15  2  0
 15 16  1  0
 16 17  1  0
 17 21  1  0
 18 19  1  0
 18 17  2  0
 19 20  1  0
 21 20  2  0
  2 22  1  0
  3 23  1  0
  4 24  1  0
  8 25  1  0
  9 26  1  0
 13 27  1  0
 13 28  1  0
 14 29  1  0
 15 30  1  0
 16 31  1  0
 16 32  1  0
 18 33  1  0
 20 34  1  0
M  ISO  8  22  14  23  14  24  14  25  14  26  14  31   8  32   8  33  14
M  ISO  1  34  14
M  END
>  <minimizedAffinity>  (1) 
-6.06936884

>  <minimizedRMSD>  (1) 
0.852149963

$$$$
