
     RDKit          3D

 33 35  0  0  0  0  0  0  0  0999 V2000
   44.1580   33.5820   40.7430 C   0  0  0  0  0  0  0  0  0  0  0  0
   44.4500   34.7530   41.4840 C   0  0  0  0  0  0  0  0  0  0  0  0
   43.4610   35.7500   41.5950 C   0  0  0  0  0  0  0  0  0  0  0  0
   42.2660   35.5300   40.9790 N   0  0  0  0  0  0  0  0  0  0  0  0
   42.0370   34.4030   40.2870 C   0  0  0  0  0  0  0  0  0  0  0  0
   42.9630   33.4530   40.1750 N   0  0  0  0  0  0  0  0  0  0  0  0
   39.8060   33.6580   41.7450 F   0  0  0  0  0  0  0  0  0  0  0  0
   39.6340   33.8600   40.4100 C   0  0  0  0  0  0  0  0  0  0  0  0
   40.7340   34.2340   39.6520 C   0  0  0  0  0  0  0  0  0  0  0  0
   40.6240   34.4540   38.2960 C   0  0  0  0  0  0  0  0  0  0  0  0
   39.3690   34.2870   37.7120 C   0  0  0  0  0  0  0  0  0  0  0  0
   38.2550   33.9130   38.4500 C   0  0  0  0  0  0  0  0  0  0  0  0
   38.3930   33.6950   39.8270 C   0  0  0  0  0  0  0  0  0  0  0  0
   45.7610   34.9150   42.1190 C   0  0  0  0  0  0  0  0  0  0  0  0
   46.9140   34.7790   41.4850 C   0  0  0  0  0  0  0  0  0  0  0  0
   48.2290   34.9570   42.1870 C   0  0  0  0  0  0  0  0  0  0  0  0
   49.1700   33.8430   41.8100 C   0  0  0  0  0  0  0  0  0  0  0  0
   48.7500   32.9760   40.7920 C   0  0  0  0  0  0  0  0  0  0  0  0
   50.1250   31.8130   40.6510 S   0  0  0  0  0  0  0  0  0  0  0  0
   51.0860   32.7080   42.0340 C   0  0  0  0  0  0  0  0  0  0  0  0
   50.3360   33.6610   42.3890 N   0  0  0  0  0  0  0  0  0  0  0  0
   44.9118   32.7878   40.6386 H   0  0  0  0  0  0  0  0  0  0  0  0
   43.6474   36.6751   42.1601 H   0  0  0  0  0  0  0  0  0  0  0  0
   41.4962   34.7511   37.6952 H   0  0  0  0  0  0  0  0  0  0  0  0
   39.2583   34.4573   36.6309 H   0  0  0  0  0  0  0  0  0  0  0  0
   37.2775   33.7895   37.9608 H   0  0  0  0  0  0  0  0  0  0  0  0
   37.5259   33.3969   40.4347 H   0  0  0  0  0  0  0  0  0  0  0  0
   45.7878   35.1653   43.1898 H   0  0  0  0  0  0  0  0  0  0  0  0
   46.9091   34.5286   40.4139 H   0  0  0  0  0  0  0  0  0  0  0  0
   48.6704   35.9212   41.8945 H   0  0  0  0  0  0  0  0  0  0  0  0
   48.0632   34.9367   43.2742 H   0  0  0  0  0  0  0  0  0  0  0  0
   47.8116   32.9983   40.2185 H   0  0  0  0  0  0  0  0  0  0  0  0
   52.0773   32.4506   42.4353 H   0  0  0  0  0  0  0  0  0  0  0  0
  1  2  2  0
  2  3  1  0
  2 14  1  0
  4  3  2  0
  5  4  1  0
  6  5  2  0
  6  1  1  0
  8  7  1  0
  9  5  1  0
  9  8  2  0
 10  9  1  0
 11 10  2  0
 11 12  1  0
 12 13  2  0
 13  8  1  0
 15 14  2  0
 15 16  1  0
 17 16  1  0
 17 21  1  0
 18 17  2  0
 19 18  1  0
 19 20  1  0
 20 21  2  0
  1 22  1  0
  3 23  1  0
 10 24  1  0
 11 25  1  0
 12 26  1  0
 13 27  1  0
 14 28  1  0
 15 29  1  0
 16 30  1  0
 16 31  1  0
 18 32  1  0
 20 33  1  0
M  ISO  8  22  14  23  14  24  14  25  14  26  14  27  14  30   8  31   8
M  ISO  2  32  14  33  14
M  END
>  <minimizedAffinity>  (1) 
-5.91218805

>  <minimizedRMSD>  (1) 
2.19991374

$$$$
