
     RDKit          3D

 18 19  0  0  0  0  0  0  0  0999 V2000
   44.5060   36.0040   44.5400 C   0  0  0  0  0  0  0  0  0  0  0  0
   45.2190   35.8890   43.3440 C   0  0  0  0  0  0  0  0  0  0  0  0
   46.1270   34.8410   43.2110 C   0  0  0  0  0  0  0  0  0  0  0  0
   46.2670   33.9860   44.2580 N   0  0  0  0  0  0  0  0  0  0  0  0
   45.5700   34.1170   45.3960 C   0  0  0  0  0  0  0  0  0  0  0  0
   44.6890   35.1300   45.5350 N   0  0  0  0  0  0  0  0  0  0  0  0
   45.8550   33.0930   46.4260 C   0  0  0  0  0  0  0  0  0  0  0  0
   46.9750   32.0980   46.1980 C   0  0  0  0  0  0  0  0  0  0  0  0
   46.9230   31.1170   47.6550 S   0  0  0  0  0  0  0  0  0  0  0  0
   45.4600   32.1070   48.3920 C   0  0  0  0  0  0  0  0  0  0  0  0
   45.2570   32.8880   47.5860 N   0  0  0  0  0  0  0  0  0  0  0  0
   46.8640   34.6930   42.0220 N   0  0  0  0  0  0  0  0  0  0  0  0
   43.7843   36.8247   44.6647 H   0  0  0  0  0  0  0  0  0  0  0  0
   45.0669   36.6092   42.5265 H   0  0  0  0  0  0  0  0  0  0  0  0
   47.6519   32.0114   45.3353 H   0  0  0  0  0  0  0  0  0  0  0  0
   44.9442   31.9596   49.3523 H   0  0  0  0  0  0  0  0  0  0  0  0
   47.5350   33.9176   41.9252 H   0  0  0  0  0  0  0  0  0  0  0  0
   46.7326   35.3600   41.2482 H   0  0  0  0  0  0  0  0  0  0  0  0
  1  6  2  0
  2  1  1  0
  3  2  2  0
  3  4  1  0
  4  5  2  0
  5  6  1  0
  5  7  1  0
  7 11  1  0
  8  7  2  0
  8  9  1  0
  9 10  1  0
 11 10  2  0
 12  3  1  0
  1 13  1  0
  2 14  1  0
  8 15  1  0
 10 16  1  0
 12 17  1  0
 12 18  1  0
M  ISO  4  13  14  14  14  15  14  16  14
M  END
>  <minimizedAffinity>  (1) 
-4.28196049

>  <minimizedRMSD>  (1) 
0.519613862

$$$$
