
     RDKit          3D

 43 46  0  0  1  0  0  0  0  0999 V2000
   47.8730   34.7540   41.1580 C   0  0  1  0  0  0  0  0  0  0  0  0
   48.9930   35.7050   41.4670 C   0  0  0  0  0  0  0  0  0  0  0  0
   48.9250   34.3570   42.0810 C   0  0  2  0  0  0  0  0  0  0  0  0
   49.8760   33.4090   41.4980 N   0  0  0  0  0  0  0  0  0  0  0  0
   49.3060   32.4630   40.6170 C   0  0  0  0  0  0  0  0  0  0  0  0
   50.4710   31.6040   40.1510 C   0  0  0  0  0  0  0  0  0  0  0  0
   51.0510   30.8760   41.2220 N   0  0  0  0  0  0  0  0  0  0  0  0
   50.9470   31.5380   42.5090 C   0  0  0  0  0  0  0  0  0  0  0  0
   50.9630   33.0580   42.3080 C   0  0  0  0  0  0  0  0  0  0  0  0
   46.5300   35.0640   41.7270 C   0  0  0  0  0  0  0  0  0  0  0  0
   46.0290   33.7970   42.3690 C   0  0  0  0  0  0  0  0  0  0  0  0
   44.4810   35.5440   45.3130 C   0  0  0  0  0  0  0  0  0  0  0  0
   44.8730   35.2600   43.9800 C   0  0  0  0  0  0  0  0  0  0  0  0
   45.5870   34.1230   43.7620 C   0  0  0  0  0  0  0  0  0  0  0  0
   45.8940   33.3100   44.8200 N   0  0  0  0  0  0  0  0  0  0  0  0
   45.5260   33.5840   46.0450 C   0  0  0  0  0  0  0  0  0  0  0  0
   44.8160   34.6980   46.3160 N   0  0  0  0  0  0  0  0  0  0  0  0
   45.8760   32.6840   47.1620 C   0  0  0  0  0  0  0  0  0  0  0  0
   47.1950   32.2320   47.3140 C   0  0  0  0  0  0  0  0  0  0  0  0
   47.1080   31.1750   48.8060 S   0  0  0  0  0  0  0  0  0  0  0  0
   45.2460   31.5360   48.9760 C   0  0  0  0  0  0  0  0  0  0  0  0
   45.0590   32.2290   48.0850 N   0  0  0  0  0  0  0  0  0  0  0  0
   47.4455   34.3265   40.2390 H   0  0  0  0  0  0  0  0  0  0  0  0
   49.7551   35.9301   40.7064 H   0  0  0  0  0  0  0  0  0  0  0  0
   49.0694   36.7371   41.8398 H   0  0  0  0  0  0  0  0  0  0  0  0
   48.9447   33.9759   43.1127 H   0  0  0  0  0  0  0  0  0  0  0  0
   48.5585   31.8489   41.1406 H   0  0  0  0  0  0  0  0  0  0  0  0
   48.7861   32.9442   39.7755 H   0  0  0  0  0  0  0  0  0  0  0  0
   50.1089   30.8940   39.3929 H   0  0  0  0  0  0  0  0  0  0  0  0
   51.2410   32.2697   39.7338 H   0  0  0  0  0  0  0  0  0  0  0  0
   50.5774   29.9637   41.2877 H   0  0  0  0  0  0  0  0  0  0  0  0
   50.0065   31.2431   42.9975 H   0  0  0  0  0  0  0  0  0  0  0  0
   51.7980   31.2440   43.1410 H   0  0  0  0  0  0  0  0  0  0  0  0
   51.9020   33.3582   41.8200 H   0  0  0  0  0  0  0  0  0  0  0  0
   50.8900   33.5682   43.2798 H   0  0  0  0  0  0  0  0  0  0  0  0
   46.6119   35.8631   42.4785 H   0  0  0  0  0  0  0  0  0  0  0  0
   45.8392   35.4110   40.9444 H   0  0  0  0  0  0  0  0  0  0  0  0
   45.1813   33.3974   41.7930 H   0  0  0  0  0  0  0  0  0  0  0  0
   46.8268   33.0400   42.3903 H   0  0  0  0  0  0  0  0  0  0  0  0
   43.9033   36.4539   45.5328 H   0  0  0  0  0  0  0  0  0  0  0  0
   44.6092   35.9348   43.1523 H   0  0  0  0  0  0  0  0  0  0  0  0
   48.0706   32.4581   46.6877 H   0  0  0  0  0  0  0  0  0  0  0  0
   44.5355   31.1730   49.7333 H   0  0  0  0  0  0  0  0  0  0  0  0
  1  2  1  0
  1 10  1  0
  1  3  1  0
  2  3  1  0
  4  3  1  0
  4  9  1  0
  5  4  1  0
  6  5  1  0
  6  7  1  0
  7  8  1  0
  9  8  1  0
 10 11  1  0
 11 14  1  0
 12 17  2  0
 13 12  1  0
 14 13  2  0
 14 15  1  0
 15 16  2  0
 16 17  1  0
 16 18  1  0
 18 19  2  0
 18 22  1  0
 19 20  1  0
 20 21  1  0
 22 21  2  0
  1 23  1  6
  2 24  1  0
  2 25  1  0
  3 26  1  1
  5 27  1  0
  5 28  1  0
  6 29  1  0
  6 30  1  0
  7 31  1  0
  8 32  1  0
  8 33  1  0
  9 34  1  0
  9 35  1  0
 10 36  1  0
 10 37  1  0
 11 38  1  0
 11 39  1  0
 12 40  1  0
 13 41  1  0
 19 42  1  0
 21 43  1  0
M  ISO  8  23  13  24  13  25  13  26  13  27  13  28  13  29  13  30  13
M  ISO  8  31   5  32  13  33  13  34  13  35  13  36   8  37   8  38   8
M  ISO  5  39   8  40  14  41  14  42  14  43  14
M  END
>  <minimizedAffinity>  (1) 
-5.67411613

>  <minimizedRMSD>  (1) 
1.07345927

$$$$
