
     RDKit          3D

 43 46  0  0  0  0  0  0  0  0999 V2000
   43.8770   34.6500   40.7760 O   0  0  0  0  0  0  0  0  0  0  0  0
   42.9730   32.1330   39.4740 Cl  0  0  0  0  0  0  0  0  0  0  0  0
   41.9690   33.4740   39.9840 C   0  0  0  0  0  0  0  0  0  0  0  0
   42.4840   34.6230   40.5910 C   0  0  0  0  0  0  0  0  0  0  0  0
   41.6600   35.6320   40.9650 C   0  0  0  0  0  0  0  0  0  0  0  0
   40.2910   35.6040   40.7830 C   0  0  0  0  0  0  0  0  0  0  0  0
   39.7400   34.4560   40.1720 C   0  0  0  0  0  0  0  0  0  0  0  0
   38.0110   34.3280   39.8960 Cl  0  0  0  0  0  0  0  0  0  0  0  0
   40.6050   33.4490   39.8030 C   0  0  0  0  0  0  0  0  0  0  0  0
   39.8240   31.3380   41.3370 F   0  0  0  0  0  0  0  0  0  0  0  0
   39.6600   31.2040   39.9770 C   0  0  0  0  0  0  0  0  0  0  0  0
   40.0470   32.2580   39.1700 C   0  0  0  0  0  0  0  0  0  0  0  0
   39.8650   32.0840   37.7970 C   0  0  0  0  0  0  0  0  0  0  0  0
   39.3200   30.8950   37.3380 C   0  0  0  0  0  0  0  0  0  0  0  0
   38.9500   29.8700   38.2030 C   0  0  0  0  0  0  0  0  0  0  0  0
   39.1170   30.0070   39.5760 C   0  0  0  0  0  0  0  0  0  0  0  0
   44.3800   34.1410   41.9760 C   0  0  0  0  0  0  0  0  0  0  0  0
   44.0590   33.0380   42.5590 O   0  0  0  0  0  0  0  0  0  0  0  0
   45.3720   34.8710   42.7090 N   0  0  0  0  0  0  0  0  0  0  0  0
   45.6760   34.1540   43.9310 C   0  0  0  0  0  0  0  0  0  0  0  0
   45.2000   34.4350   45.1730 C   0  0  0  0  0  0  0  0  0  0  0  0
   45.6090   33.6300   46.2070 C   0  0  0  0  0  0  0  0  0  0  0  0
   46.4600   32.6080   45.9180 N   0  0  0  0  0  0  0  0  0  0  0  0
   46.9090   32.3630   44.6790 C   0  0  0  0  0  0  0  0  0  0  0  0
   46.5170   33.1420   43.6510 N   0  0  0  0  0  0  0  0  0  0  0  0
   47.8310   31.2220   44.4910 C   0  0  0  0  0  0  0  0  0  0  0  0
   48.6110   30.9800   43.3480 C   0  0  0  0  0  0  0  0  0  0  0  0
   49.4900   29.4240   43.8100 S   0  0  0  0  0  0  0  0  0  0  0  0
   48.6240   29.3880   45.4930 C   0  0  0  0  0  0  0  0  0  0  0  0
   47.9790   30.3190   45.4420 N   0  0  0  0  0  0  0  0  0  0  0  0
   44.3220   35.5360   45.2930 N   0  0  0  0  0  0  0  0  0  0  0  0
   42.1048   36.5198   41.4383 H   0  0  0  0  0  0  0  0  0  0  0  0
   39.6548   36.4430   41.1015 H   0  0  0  0  0  0  0  0  0  0  0  0
   40.1495   32.8777   37.0906 H   0  0  0  0  0  0  0  0  0  0  0  0
   39.1755   30.7576   36.2562 H   0  0  0  0  0  0  0  0  0  0  0  0
   38.5212   28.9422   37.7963 H   0  0  0  0  0  0  0  0  0  0  0  0
   38.8358   29.2170   40.2879 H   0  0  0  0  0  0  0  0  0  0  0  0
   45.7994   35.7608   42.4149 H   0  0  0  0  0  0  0  0  0  0  0  0
   45.2603   33.8052   47.2355 H   0  0  0  0  0  0  0  0  0  0  0  0
   48.6800   31.5654   42.4193 H   0  0  0  0  0  0  0  0  0  0  0  0
   48.7212   28.6552   46.3076 H   0  0  0  0  0  0  0  0  0  0  0  0
   43.9351   35.7882   46.2137 H   0  0  0  0  0  0  0  0  0  0  0  0
   44.0690   36.0862   44.4598 H   0  0  0  0  0  0  0  0  0  0  0  0
  1 17  1  0
  2  3  1  0
  3  4  2  0
  4  1  1  0
  4  5  1  0
  6  5  2  0
  7  6  1  0
  8  7  1  0
  9  3  1  0
  9  7  2  0
 11 10  1  0
 12  9  1  0
 12 11  2  0
 13 12  1  0
 14 13  2  0
 14 15  1  0
 15 16  2  0
 16 11  1  0
 17 18  2  0
 17 19  1  0
 19 20  1  0
 20 21  2  0
 21 31  1  0
 21 22  1  0
 23 22  2  0
 24 23  1  0
 25 20  1  0
 25 24  2  0
 26 24  1  0
 26 30  1  0
 27 28  1  0
 27 26  2  0
 28 29  1  0
 30 29  2  0
  5 32  1  0
  6 33  1  0
 13 34  1  0
 14 35  1  0
 15 36  1  0
 16 37  1  0
 19 38  1  0
 22 39  1  0
 27 40  1  0
 29 41  1  0
 31 42  1  0
 31 43  1  0
M  ISO  8  32  14  33  14  34  14  35  14  36  14  37  14  39  14  40  14
M  ISO  1  41  14
M  END
>  <minimizedAffinity>  (1) 
-6.22605658

>  <minimizedRMSD>  (1) 
0.462240219

$$$$
