
     RDKit          3D

 28 30  0  0  0  0  0  0  0  0999 V2000
   44.7940   30.3600   47.7720 Cl  0  0  0  0  0  0  0  0  0  0  0  0
   46.1490   29.8160   46.7620 C   0  0  0  0  0  0  0  0  0  0  0  0
   47.0770   30.7160   46.3570 C   0  0  0  0  0  0  0  0  0  0  0  0
   48.1140   30.2430   45.5960 C   0  0  0  0  0  0  0  0  0  0  0  0
   48.2090   28.9150   45.2570 C   0  0  0  0  0  0  0  0  0  0  0  0
   47.2380   27.9960   45.6840 C   0  0  0  0  0  0  0  0  0  0  0  0
   46.2030   28.4850   46.4480 C   0  0  0  0  0  0  0  0  0  0  0  0
   45.1390   27.5730   46.9370 C   0  0  0  0  0  0  0  0  0  0  0  0
   44.0680   27.2130   46.0740 C   0  0  0  0  0  0  0  0  0  0  0  0
   43.0340   26.0730   47.1630 S   0  0  0  0  0  0  0  0  0  0  0  0
   44.2730   26.3190   48.5760 C   0  0  0  0  0  0  0  0  0  0  0  0
   45.0750   27.0330   48.1410 N   0  0  0  0  0  0  0  0  0  0  0  0
   46.9440   32.1150   46.7120 C   0  0  0  0  0  0  0  0  0  0  0  0
   47.3220   32.4360   47.8770 O   0  0  0  0  0  0  0  0  0  0  0  0
   44.8830   34.7770   45.3750 C   0  0  0  0  0  0  0  0  0  0  0  0
   45.3400   34.9900   44.0820 C   0  0  0  0  0  0  0  0  0  0  0  0
   46.3920   34.1740   43.6890 C   0  0  0  0  0  0  0  0  0  0  0  0
   46.8940   33.2480   44.5600 N   0  0  0  0  0  0  0  0  0  0  0  0
   46.4110   33.0910   45.7950 C   0  0  0  0  0  0  0  0  0  0  0  0
   45.3980   33.8680   46.1910 N   0  0  0  0  0  0  0  0  0  0  0  0
   48.8882   30.9429   45.2485 H   0  0  0  0  0  0  0  0  0  0  0  0
   49.0546   28.5685   44.6447 H   0  0  0  0  0  0  0  0  0  0  0  0
   47.3015   26.9302   45.4193 H   0  0  0  0  0  0  0  0  0  0  0  0
   43.8881   27.5217   45.0336 H   0  0  0  0  0  0  0  0  0  0  0  0
   44.2383   25.8813   49.5846 H   0  0  0  0  0  0  0  0  0  0  0  0
   44.0500   35.3947   45.7419 H   0  0  0  0  0  0  0  0  0  0  0  0
   44.9011   35.7491   43.4178 H   0  0  0  0  0  0  0  0  0  0  0  0
   46.8200   34.2723   42.6804 H   0  0  0  0  0  0  0  0  0  0  0  0
  2  1  1  0
  3 13  1  0
  3  2  2  0
  4  3  1  0
  5  4  2  0
  5  6  1  0
  6  7  2  0
  7  2  1  0
  7  8  1  0
  8 12  1  0
  9  8  2  0
  9 10  1  0
 10 11  1  0
 12 11  2  0
 13 14  2  0
 15 20  2  0
 16 15  1  0
 17 16  2  0
 17 18  1  0
 18 19  2  0
 19 20  1  0
 19 13  1  0
  4 21  1  0
  5 22  1  0
  6 23  1  0
  9 24  1  0
 11 25  1  0
 15 26  1  0
 16 27  1  0
 17 28  1  0
M  ISO  8  21  14  22  14  23  14  24  14  25  14  26  14  27  14  28  14
M  END
>  <minimizedAffinity>  (1) 
-4.38890791

>  <minimizedRMSD>  (1) 
1.94257379

$$$$
