
     RDKit          3D

 46 50  0  0  0  0  0  0  0  0999 V2000
   47.4310   32.0740   47.8600 C   0  0  0  0  0  0  0  0  0  0  0  0
   46.8920   30.7830   47.8860 C   0  0  0  0  0  0  0  0  0  0  0  0
   45.9160   30.5070   46.9760 C   0  0  0  0  0  0  0  0  0  0  0  0
   45.5190   31.4440   46.1120 N   0  0  0  0  0  0  0  0  0  0  0  0
   46.0120   32.6620   46.0660 C   0  0  0  0  0  0  0  0  0  0  0  0
   46.9800   32.9620   46.9630 N   0  0  0  0  0  0  0  0  0  0  0  0
   45.3260   29.2650   46.9600 N   0  0  0  0  0  0  0  0  0  0  0  0
   44.1330   28.9060   46.1490 C   0  0  0  0  0  0  0  0  0  0  0  0
   44.0250   27.4110   46.2060 C   0  0  0  0  0  0  0  0  0  0  0  0
   44.6790   27.0660   47.4910 C   0  0  0  0  0  0  0  0  0  0  0  0
   45.7220   28.1030   47.7060 C   0  0  0  0  0  0  0  0  0  0  0  0
   45.7400   33.8230   45.1740 C   0  0  0  0  0  0  0  0  0  0  0  0
   44.8550   34.7800   45.4570 N   0  0  0  0  0  0  0  0  0  0  0  0
   44.5910   35.8300   44.6890 C   0  0  0  0  0  0  0  0  0  0  0  0
   45.2490   35.9840   43.5160 N   0  0  0  0  0  0  0  0  0  0  0  0
   46.1670   35.0820   43.1190 C   0  0  0  0  0  0  0  0  0  0  0  0
   46.8290   35.2420   41.9270 C   0  0  0  0  0  0  0  0  0  0  0  0
   47.7560   34.3420   41.5100 C   0  0  0  0  0  0  0  0  0  0  0  0
   48.0220   33.2450   42.3250 C   0  0  0  0  0  0  0  0  0  0  0  0
   47.3150   33.1420   43.5230 C   0  0  0  0  0  0  0  0  0  0  0  0
   46.3900   34.0200   43.9620 C   0  0  0  0  0  0  0  0  0  0  0  0
   49.0310   32.2540   41.8820 C   0  0  0  0  0  0  0  0  0  0  0  0
   49.4260   31.2100   42.6980 C   0  0  0  0  0  0  0  0  0  0  0  0
   50.6710   30.3370   41.6230 S   0  0  0  0  0  0  0  0  0  0  0  0
   50.4080   31.5970   40.2290 C   0  0  0  0  0  0  0  0  0  0  0  0
   49.6090   32.3120   40.6840 N   0  0  0  0  0  0  0  0  0  0  0  0
   47.7070   31.9720   44.2420 N   0  0  0  0  0  0  0  0  0  0  0  0
   47.4110   29.8940   48.7900 N   0  0  0  0  0  0  0  0  0  0  0  0
   48.2202   32.3585   48.5715 H   0  0  0  0  0  0  0  0  0  0  0  0
   44.2639   29.2398   45.1091 H   0  0  0  0  0  0  0  0  0  0  0  0
   43.2239   29.3894   46.5362 H   0  0  0  0  0  0  0  0  0  0  0  0
   42.9722   27.0924   46.2026 H   0  0  0  0  0  0  0  0  0  0  0  0
   44.4899   26.9144   45.3415 H   0  0  0  0  0  0  0  0  0  0  0  0
   43.9459   27.0843   48.3109 H   0  0  0  0  0  0  0  0  0  0  0  0
   45.1122   26.0552   47.4662 H   0  0  0  0  0  0  0  0  0  0  0  0
   46.6957   27.7383   47.3468 H   0  0  0  0  0  0  0  0  0  0  0  0
   45.8215   28.3408   48.7754 H   0  0  0  0  0  0  0  0  0  0  0  0
   43.8416   36.5710   45.0040 H   0  0  0  0  0  0  0  0  0  0  0  0
   46.6041   36.1159   41.2979 H   0  0  0  0  0  0  0  0  0  0  0  0
   48.2829   34.4759   40.5537 H   0  0  0  0  0  0  0  0  0  0  0  0
   49.0921   30.9604   43.7160 H   0  0  0  0  0  0  0  0  0  0  0  0
   50.8888   31.6411   39.2406 H   0  0  0  0  0  0  0  0  0  0  0  0
   47.2724   31.7561   45.1505 H   0  0  0  0  0  0  0  0  0  0  0  0
   48.4243   31.3441   43.8521 H   0  0  0  0  0  0  0  0  0  0  0  0
   47.0405   28.9342   48.8394 H   0  0  0  0  0  0  0  0  0  0  0  0
   48.1717   30.1854   49.4203 H   0  0  0  0  0  0  0  0  0  0  0  0
  1  2  2  0
  2 28  1  0
  3  2  1  0
  4  3  2  0
  5  4  1  0
  5  6  2  0
  6  1  1  0
  7  3  1  0
  7 11  1  0
  8  9  1  0
  8  7  1  0
  9 10  1  0
 10 11  1  0
 12 13  2  0
 12  5  1  0
 14 13  1  0
 15 14  2  0
 16 15  1  0
 16 21  2  0
 17 16  1  0
 18 17  2  0
 18 19  1  0
 19 20  2  0
 20 21  1  0
 20 27  1  0
 21 12  1  0
 22 19  1  0
 22 23  2  0
 24 23  1  0
 25 26  2  0
 25 24  1  0
 26 22  1  0
  1 29  1  0
  8 30  1  0
  8 31  1  0
  9 32  1  0
  9 33  1  0
 10 34  1  0
 10 35  1  0
 11 36  1  0
 11 37  1  0
 14 38  1  0
 17 39  1  0
 18 40  1  0
 23 41  1  0
 25 42  1  0
 27 43  1  0
 27 44  1  0
 28 45  1  0
 28 46  1  0
M  ISO  8  29  14  30  13  31  13  32  13  33  13  34  13  35  13  36  13
M  ISO  6  37  13  38  14  39  14  40  14  41  14  42  14
M  END
>  <minimizedAffinity>  (1) 
-6.8813715

>  <minimizedRMSD>  (1) 
0.0931984931

$$$$
