
     RDKit          3D

 36 38  0  0  0  0  0  0  0  0999 V2000
   45.7350   34.4740   41.1160 C   0  0  0  0  0  0  0  0  0  0  0  0
   46.6800   33.8340   40.4340 N   0  0  0  0  0  0  0  0  0  0  0  0
   46.6200   32.5580   39.8190 C   0  0  0  0  0  0  0  0  0  0  0  0
   46.4430   33.0160   38.3480 C   0  0  0  0  0  0  0  0  0  0  0  0
   47.5690   33.8090   37.8530 C   0  0  0  0  0  0  0  0  0  0  0  0
   48.4030   34.5150   38.8220 C   0  0  0  0  0  0  0  0  0  0  0  0
   47.9410   34.5680   40.2530 C   0  0  0  0  0  0  0  0  0  0  0  0
   48.8250   35.4570   41.4930 S   0  0  0  0  0  0  0  0  0  0  0  0
   45.3360   33.7660   42.3770 C   0  0  0  0  0  0  0  0  0  0  0  0
   44.0700   33.0410   42.0840 C   0  0  0  0  0  0  0  0  0  0  0  0
   43.8390   31.7700   42.5690 C   0  0  0  0  0  0  0  0  0  0  0  0
   42.6170   31.1520   42.2340 C   0  0  0  0  0  0  0  0  0  0  0  0
   41.7380   31.8460   41.4530 N   0  0  0  0  0  0  0  0  0  0  0  0
   42.0200   33.0730   41.0140 C   0  0  0  0  0  0  0  0  0  0  0  0
   43.1700   33.6480   41.3330 N   0  0  0  0  0  0  0  0  0  0  0  0
   40.9780   33.6980   40.1830 C   0  0  0  0  0  0  0  0  0  0  0  0
   41.3630   33.7270   38.8440 C   0  0  0  0  0  0  0  0  0  0  0  0
   39.9240   34.5440   37.9860 S   0  0  0  0  0  0  0  0  0  0  0  0
   39.0420   34.6940   39.6830 C   0  0  0  0  0  0  0  0  0  0  0  0
   39.7880   34.2300   40.3840 N   0  0  0  0  0  0  0  0  0  0  0  0
   44.8470   34.5732   40.4745 H   0  0  0  0  0  0  0  0  0  0  0  0
   46.1459   35.4524   41.4057 H   0  0  0  0  0  0  0  0  0  0  0  0
   47.5470   31.9841   39.9651 H   0  0  0  0  0  0  0  0  0  0  0  0
   45.8439   31.8798   40.2035 H   0  0  0  0  0  0  0  0  0  0  0  0
   46.3382   32.1233   37.7138 H   0  0  0  0  0  0  0  0  0  0  0  0
   45.5495   33.6564   38.3097 H   0  0  0  0  0  0  0  0  0  0  0  0
   48.2266   33.1263   37.2949 H   0  0  0  0  0  0  0  0  0  0  0  0
   47.0966   34.6121   37.2684 H   0  0  0  0  0  0  0  0  0  0  0  0
   49.3436   34.9951   38.5140 H   0  0  0  0  0  0  0  0  0  0  0  0
   48.4135   35.0432   42.7325 H   0  0  0  0  0  0  0  0  0  0  0  0
   46.1195   33.0537   42.6749 H   0  0  0  0  0  0  0  0  0  0  0  0
   45.1987   34.4798   43.2026 H   0  0  0  0  0  0  0  0  0  0  0  0
   44.5830   31.2565   43.1957 H   0  0  0  0  0  0  0  0  0  0  0  0
   42.3785   30.1395   42.5916 H   0  0  0  0  0  0  0  0  0  0  0  0
   42.2971   33.3550   38.3980 H   0  0  0  0  0  0  0  0  0  0  0  0
   38.0561   35.1249   39.9119 H   0  0  0  0  0  0  0  0  0  0  0  0
  1  9  1  0
  2  1  1  0
  3  2  1  0
  4  3  1  0
  5  4  1  0
  5  6  1  0
  6  7  2  0
  7  2  1  0
  7  8  1  0
 10  9  1  0
 10 11  2  0
 12 11  1  0
 13 12  2  0
 14 15  2  0
 14 13  1  0
 15 10  1  0
 16 20  1  0
 16 14  1  0
 17 16  2  0
 18 17  1  0
 18 19  1  0
 19 20  2  0
  1 21  1  0
  1 22  1  0
  3 23  1  0
  3 24  1  0
  4 25  1  0
  4 26  1  0
  5 27  1  0
  5 28  1  0
  6 29  1  0
  8 30  1  0
  9 31  1  0
  9 32  1  0
 11 33  1  0
 12 34  1  0
 17 35  1  0
 19 36  1  0
M  ISO  8  21   8  22   8  23  13  24  13  25  13  26  13  27  13  28  13
M  ISO  8  29  13  30  11  31   8  32   8  33  14  34  14  35  14  36  14
M  END
>  <minimizedAffinity>  (1) 
-4.45261812

>  <minimizedRMSD>  (1) 
3.8335886

$$$$
