
     RDKit          3D

 22 23  0  0  0  0  0  0  0  0999 V2000
   45.5420   34.6820   44.3220 C   0  0  0  0  0  0  0  0  0  0  0  0
   46.5240   34.3930   43.3760 C   0  0  0  0  0  0  0  0  0  0  0  0
   47.4040   33.3510   43.6640 C   0  0  0  0  0  0  0  0  0  0  0  0
   47.2570   32.6770   44.8460 N   0  0  0  0  0  0  0  0  0  0  0  0
   46.2940   32.9840   45.7370 C   0  0  0  0  0  0  0  0  0  0  0  0
   45.4280   33.9950   45.4760 N   0  0  0  0  0  0  0  0  0  0  0  0
   46.1550   32.2510   46.9920 C   0  0  0  0  0  0  0  0  0  0  0  0
   45.1560   32.6240   47.9450 C   0  0  0  0  0  0  0  0  0  0  0  0
   45.4500   31.3830   49.2830 S   0  0  0  0  0  0  0  0  0  0  0  0
   46.8750   30.5890   48.2950 C   0  0  0  0  0  0  0  0  0  0  0  0
   46.8990   31.2250   47.3510 N   0  0  0  0  0  0  0  0  0  0  0  0
   46.5740   35.1750   42.1640 C   0  0  0  0  0  0  0  0  0  0  0  0
   48.0170   35.2610   41.7010 C   0  0  0  0  0  0  0  0  0  0  0  0
   44.8348   35.4999   44.1196 H   0  0  0  0  0  0  0  0  0  0  0  0
   48.1999   33.0762   42.9561 H   0  0  0  0  0  0  0  0  0  0  0  0
   44.4120   33.4327   47.8951 H   0  0  0  0  0  0  0  0  0  0  0  0
   47.5115   29.7343   48.5677 H   0  0  0  0  0  0  0  0  0  0  0  0
   45.9637   34.6924   41.3864 H   0  0  0  0  0  0  0  0  0  0  0  0
   46.1794   36.1844   42.3521 H   0  0  0  0  0  0  0  0  0  0  0  0
   48.6814   35.3006   42.5768 H   0  0  0  0  0  0  0  0  0  0  0  0
   48.2611   34.3758   41.0953 H   0  0  0  0  0  0  0  0  0  0  0  0
   48.1543   36.1689   41.0953 H   0  0  0  0  0  0  0  0  0  0  0  0
  1  6  2  0
  2  3  2  0
  2  1  1  0
  3  4  1  0
  4  5  2  0
  5  7  1  0
  6  5  1  0
  7 11  1  0
  7  8  2  0
  8  9  1  0
 10  9  1  0
 11 10  2  0
 12  2  1  0
 13 12  1  0
  1 14  1  0
  3 15  1  0
  8 16  1  0
 10 17  1  0
 12 18  1  0
 12 19  1  0
 13 20  1  0
 13 21  1  0
 13 22  1  0
M  ISO  8  14  14  15  14  16  14  17  14  18   8  19   8  20   8  21   8
M  ISO  1  22   8
M  END
>  <minimizedAffinity>  (1) 
-4.10217237

>  <minimizedRMSD>  (1) 
1.66125298

$$$$
