
     RDKit          3D

 32 35  0  0  0  0  0  0  0  0999 V2000
   46.8990   34.9600   42.6490 C   0  0  0  0  0  0  0  0  0  0  0  0
   45.9610   35.9860   42.5590 C   0  0  0  0  0  0  0  0  0  0  0  0
   44.9430   36.0010   43.5050 C   0  0  0  0  0  0  0  0  0  0  0  0
   44.9060   35.0390   44.4500 N   0  0  0  0  0  0  0  0  0  0  0  0
   45.8370   34.0570   44.5040 C   0  0  0  0  0  0  0  0  0  0  0  0
   46.8280   34.0260   43.6010 N   0  0  0  0  0  0  0  0  0  0  0  0
   46.0520   31.7020   45.1400 C   0  0  0  0  0  0  0  0  0  0  0  0
   45.7940   33.0150   45.5330 C   0  0  0  0  0  0  0  0  0  0  0  0
   45.5080   33.2930   46.8510 C   0  0  0  0  0  0  0  0  0  0  0  0
   45.4860   32.2540   47.7620 C   0  0  0  0  0  0  0  0  0  0  0  0
   45.2480   32.2000   49.0800 N   0  0  0  0  0  0  0  0  0  0  0  0
   45.3390   30.9450   49.5460 C   0  0  0  0  0  0  0  0  0  0  0  0
   45.6540   30.1190   48.4860 C   0  0  0  0  0  0  0  0  0  0  0  0
   45.7440   30.9430   47.3800 C   0  0  0  0  0  0  0  0  0  0  0  0
   46.0290   30.6740   46.0520 C   0  0  0  0  0  0  0  0  0  0  0  0
   47.9400   34.9840   41.6420 C   0  0  0  0  0  0  0  0  0  0  0  0
   49.0950   35.4930   41.8010 O   0  0  0  0  0  0  0  0  0  0  0  0
   47.6550   34.3740   40.3220 C   0  0  0  0  0  0  0  0  0  0  0  0
   46.5300   33.4200   40.2640 C   0  0  0  0  0  0  0  0  0  0  0  0
   46.5200   32.9240   38.5420 S   0  0  0  0  0  0  0  0  0  0  0  0
   48.0030   34.0440   38.1340 C   0  0  0  0  0  0  0  0  0  0  0  0
   48.2200   34.5110   39.1400 N   0  0  0  0  0  0  0  0  0  0  0  0
   46.0235   36.7522   41.7722 H   0  0  0  0  0  0  0  0  0  0  0  0
   44.1757   36.7889   43.4834 H   0  0  0  0  0  0  0  0  0  0  0  0
   46.2771   31.4861   44.0852 H   0  0  0  0  0  0  0  0  0  0  0  0
   45.3007   34.3241   47.1731 H   0  0  0  0  0  0  0  0  0  0  0  0
   45.0234   33.0194   49.6623 H   0  0  0  0  0  0  0  0  0  0  0  0
   45.1890   30.6299   50.5892 H   0  0  0  0  0  0  0  0  0  0  0  0
   45.8028   29.0295   48.5154 H   0  0  0  0  0  0  0  0  0  0  0  0
   46.2359   29.6432   45.7286 H   0  0  0  0  0  0  0  0  0  0  0  0
   45.8634   33.0944   41.0761 H   0  0  0  0  0  0  0  0  0  0  0  0
   48.5145   34.1967   37.1722 H   0  0  0  0  0  0  0  0  0  0  0  0
  1  6  1  0
  2  1  2  0
  2  3  1  0
  3  4  2  0
  4  5  1  0
  5  8  1  0
  6  5  2  0
  7  8  2  0
  7 15  1  0
  8  9  1  0
  9 10  2  0
 10 11  1  0
 11 12  1  0
 13 12  2  0
 14 10  1  0
 14 13  1  0
 15 14  2  0
 16 17  2  0
 16  1  1  0
 18 16  1  0
 19 18  2  0
 20 19  1  0
 21 20  1  0
 21 22  2  0
 22 18  1  0
  2 23  1  0
  3 24  1  0
  7 25  1  0
  9 26  1  0
 11 27  1  0
 12 28  1  0
 13 29  1  0
 15 30  1  0
 19 31  1  0
 21 32  1  0
M  ISO  8  23  14  24  14  25  14  26  14  27   9  28  14  29  14  30  14
M  ISO  2  31  14  32  14
M  END
>  <minimizedAffinity>  (1) 
-6.01460981

>  <minimizedRMSD>  (1) 
0.655392826

$$$$
