
     RDKit          3D

 51 56  0  0  0  0  0  0  0  0999 V2000
   49.8830   30.3580   49.6890 C   0  0  0  0  0  0  0  0  0  0  0  0
   50.0730   31.6320   50.1610 N   0  0  0  0  0  0  0  0  0  0  0  0
   50.7960   31.9170   51.2410 C   0  0  0  0  0  0  0  0  0  0  0  0
   51.3610   30.8940   51.8920 N   0  0  0  0  0  0  0  0  0  0  0  0
   51.2250   29.6170   51.4990 C   0  0  0  0  0  0  0  0  0  0  0  0
   51.8190   28.5620   52.1710 C   0  0  0  0  0  0  0  0  0  0  0  0
   51.6660   27.2850   51.7410 C   0  0  0  0  0  0  0  0  0  0  0  0
   50.9220   26.9990   50.6360 C   0  0  0  0  0  0  0  0  0  0  0  0
   50.3040   28.0380   49.9290 C   0  0  0  0  0  0  0  0  0  0  0  0
   50.4650   29.3230   50.3650 C   0  0  0  0  0  0  0  0  0  0  0  0
   49.4840   27.6250   48.7710 C   0  0  0  0  0  0  0  0  0  0  0  0
   50.4290   25.3450   48.0420 C   0  0  0  0  0  0  0  0  0  0  0  0
   49.4470   26.1040   48.6900 C   0  0  0  0  0  0  0  0  0  0  0  0
   48.4310   25.3560   49.2510 C   0  0  0  0  0  0  0  0  0  0  0  0
   48.3660   23.9830   49.1930 C   0  0  0  0  0  0  0  0  0  0  0  0
   47.4460   23.1280   49.6890 N   0  0  0  0  0  0  0  0  0  0  0  0
   47.8990   21.9150   49.3280 C   0  0  0  0  0  0  0  0  0  0  0  0
   49.0640   21.9970   48.6280 N   0  0  0  0  0  0  0  0  0  0  0  0
   49.3670   23.2990   48.5380 C   0  0  0  0  0  0  0  0  0  0  0  0
   50.4150   23.9730   47.9520 C   0  0  0  0  0  0  0  0  0  0  0  0
   48.9740   30.0490   48.2590 S   0  0  0  0  0  0  0  0  0  0  0  0
   46.1370   32.5920   47.0140 C   0  0  0  0  0  0  0  0  0  0  0  0
   47.2790   31.8190   47.1160 C   0  0  0  0  0  0  0  0  0  0  0  0
   47.4940   30.9850   48.1750 C   0  0  0  0  0  0  0  0  0  0  0  0
   46.5580   30.9000   49.1810 C   0  0  0  0  0  0  0  0  0  0  0  0
   45.4130   31.6380   49.1380 C   0  0  0  0  0  0  0  0  0  0  0  0
   45.2280   32.4700   48.0510 C   0  0  0  0  0  0  0  0  0  0  0  0
   44.7450   35.2740   44.9720 C   0  0  0  0  0  0  0  0  0  0  0  0
   45.4750   35.1950   43.7740 C   0  0  0  0  0  0  0  0  0  0  0  0
   46.4560   34.2130   43.6640 C   0  0  0  0  0  0  0  0  0  0  0  0
   46.6860   33.3540   44.7100 N   0  0  0  0  0  0  0  0  0  0  0  0
   45.9420   33.4750   45.8610 C   0  0  0  0  0  0  0  0  0  0  0  0
   44.9780   34.4250   45.9970 N   0  0  0  0  0  0  0  0  0  0  0  0
   50.9242   32.9538   51.5853 H   0  0  0  0  0  0  0  0  0  0  0  0
   52.4242   28.7628   53.0673 H   0  0  0  0  0  0  0  0  0  0  0  0
   52.1506   26.4665   52.2935 H   0  0  0  0  0  0  0  0  0  0  0  0
   50.8074   25.9576   50.3010 H   0  0  0  0  0  0  0  0  0  0  0  0
   48.4607   28.0106   48.8904 H   0  0  0  0  0  0  0  0  0  0  0  0
   49.9238   28.0303   47.8478 H   0  0  0  0  0  0  0  0  0  0  0  0
   51.2673   25.8818   47.5739 H   0  0  0  0  0  0  0  0  0  0  0  0
   47.6251   25.8900   49.7758 H   0  0  0  0  0  0  0  0  0  0  0  0
   46.5935   23.3534   50.2213 H   0  0  0  0  0  0  0  0  0  0  0  0
   47.3899   20.9701   49.5690 H   0  0  0  0  0  0  0  0  0  0  0  0
   51.2160   23.4308   47.4282 H   0  0  0  0  0  0  0  0  0  0  0  0
   48.0364   31.8779   46.3204 H   0  0  0  0  0  0  0  0  0  0  0  0
   46.7369   30.2265   50.0321 H   0  0  0  0  0  0  0  0  0  0  0  0
   44.6631   31.5734   49.9402 H   0  0  0  0  0  0  0  0  0  0  0  0
   44.3066   33.0693   48.0069 H   0  0  0  0  0  0  0  0  0  0  0  0
   43.9666   36.0440   45.0777 H   0  0  0  0  0  0  0  0  0  0  0  0
   45.2768   35.8904   42.9451 H   0  0  0  0  0  0  0  0  0  0  0  0
   47.0462   34.1255   42.7399 H   0  0  0  0  0  0  0  0  0  0  0  0
  1  2  2  0
  1 10  1  0
  2  3  1  0
  3  4  2  0
  5  4  1  0
  5  6  2  0
  7  6  1  0
  8  7  2  0
  9 10  2  0
  9  8  1  0
 10  5  1  0
 11  9  1  0
 12 13  2  0
 13 11  1  0
 13 14  1  0
 15 14  2  0
 15 16  1  0
 17 16  1  0
 18 17  2  0
 19 18  1  0
 19 15  1  0
 20 12  1  0
 20 19  2  0
 21  1  1  0
 22 23  2  0
 22 27  1  0
 23 24  1  0
 24 21  1  0
 24 25  2  0
 26 25  1  0
 27 26  2  0
 28 33  2  0
 29 28  1  0
 30 29  2  0
 30 31  1  0
 31 32  2  0
 32 33  1  0
 32 22  1  0
  3 34  1  0
  6 35  1  0
  7 36  1  0
  8 37  1  0
 11 38  1  0
 11 39  1  0
 12 40  1  0
 14 41  1  0
 16 42  1  0
 17 43  1  0
 20 44  1  0
 23 45  1  0
 25 46  1  0
 26 47  1  0
 27 48  1  0
 28 49  1  0
 29 50  1  0
 30 51  1  0
M  ISO  8  34  14  35  14  36  14  37  14  38   8  39   8  40  14  41  14
M  ISO  8  42   9  43  14  44  14  45  14  46  14  47  14  48  14  49  14
M  ISO  2  50  14  51  14
M  END
>  <minimizedAffinity>  (1) 
-6.96114016

>  <minimizedRMSD>  (1) 
0.28837958

$$$$
