
     RDKit          3D

 26 28  0  0  0  0  0  0  0  0999 V2000
   44.4460   36.0930   42.4130 C   0  0  0  0  0  0  0  0  0  0  0  0
   42.1800   35.4530   41.8730 C   0  0  0  0  0  0  0  0  0  0  0  0
   43.5250   35.3340   41.5280 C   0  0  0  0  0  0  0  0  0  0  0  0
   43.8440   34.5560   40.4450 C   0  0  0  0  0  0  0  0  0  0  0  0
   42.8400   33.9240   39.7410 C   0  0  0  0  0  0  0  0  0  0  0  0
   42.8900   33.1210   38.6620 N   0  0  0  0  0  0  0  0  0  0  0  0
   41.6410   32.7480   38.3380 C   0  0  0  0  0  0  0  0  0  0  0  0
   40.8220   33.3310   39.2290 N   0  0  0  0  0  0  0  0  0  0  0  0
   41.5130   34.0550   40.1000 C   0  0  0  0  0  0  0  0  0  0  0  0
   41.1620   34.8350   41.1900 C   0  0  0  0  0  0  0  0  0  0  0  0
   45.4180   35.1630   43.0840 C   0  0  0  0  0  0  0  0  0  0  0  0
   44.9660   34.5380   44.2420 C   0  0  0  0  0  0  0  0  0  0  0  0
   45.8490   33.6570   44.9020 C   0  0  0  0  0  0  0  0  0  0  0  0
   47.0790   33.4840   44.3590 N   0  0  0  0  0  0  0  0  0  0  0  0
   47.4770   34.1170   43.2270 C   0  0  0  0  0  0  0  0  0  0  0  0
   46.6380   34.9620   42.5870 N   0  0  0  0  0  0  0  0  0  0  0  0
   43.8591   36.6184   43.1807 H   0  0  0  0  0  0  0  0  0  0  0  0
   45.0084   36.8162   41.8042 H   0  0  0  0  0  0  0  0  0  0  0  0
   41.9196   36.0768   42.7408 H   0  0  0  0  0  0  0  0  0  0  0  0
   44.8939   34.4365   40.1394 H   0  0  0  0  0  0  0  0  0  0  0  0
   43.7470   32.8384   38.1653 H   0  0  0  0  0  0  0  0  0  0  0  0
   41.3462   32.0927   37.5052 H   0  0  0  0  0  0  0  0  0  0  0  0
   40.1119   34.9541   41.4953 H   0  0  0  0  0  0  0  0  0  0  0  0
   43.9538   34.7244   44.6302 H   0  0  0  0  0  0  0  0  0  0  0  0
   45.5509   33.1312   45.8211 H   0  0  0  0  0  0  0  0  0  0  0  0
   48.4870   33.9419   42.8281 H   0  0  0  0  0  0  0  0  0  0  0  0
  1 11  1  0
  3  2  2  0
  3  1  1  0
  4  3  1  0
  5  9  1  0
  5  4  2  0
  6  5  1  0
  7  6  1  0
  7  8  2  0
  8  9  1  0
  9 10  2  0
 10  2  1  0
 11 12  2  0
 12 13  1  0
 14 13  2  0
 15 14  1  0
 16 11  1  0
 16 15  2  0
  1 17  1  0
  1 18  1  0
  2 19  1  0
  4 20  1  0
  6 21  1  0
  7 22  1  0
 10 23  1  0
 12 24  1  0
 13 25  1  0
 15 26  1  0
M  ISO  8  17   8  18   8  19  14  20  14  21   9  22  14  23  14  24  14
M  ISO  2  25  14  26  14
M  END
>  <minimizedAffinity>  (1) 
-4.32218313

>  <minimizedRMSD>  (1) 
6.25502253

$$$$
