
     RDKit          3D

 53 56  0  0  1  0  0  0  0  0999 V2000
   46.7970   34.3320   43.5600 N   0  0  0  0  0  0  0  0  0  0  0  0
   46.4780   34.9740   42.3440 C   0  0  0  0  0  0  0  0  0  0  0  0
   44.9960   34.9830   42.0120 C   0  0  0  0  0  0  0  0  0  0  0  0
   44.1060   35.1330   43.2160 C   0  0  0  0  0  0  0  0  0  0  0  0
   44.9030   35.2790   44.4910 C   0  0  0  0  0  0  0  0  0  0  0  0
   45.8420   34.0100   44.4910 C   0  0  2  0  0  0  0  0  0  0  0  0
   48.0150   33.5580   43.5180 C   0  0  0  0  0  0  0  0  0  0  0  0
   47.7430   32.3230   42.7210 C   0  0  0  0  0  0  0  0  0  0  0  0
   51.2350   32.1040   41.3510 C   0  0  0  0  0  0  0  0  0  0  0  0
   50.1540   32.3280   42.2250 C   0  0  0  0  0  0  0  0  0  0  0  0
   48.8750   32.0830   41.7880 C   0  0  0  0  0  0  0  0  0  0  0  0
   48.7220   31.6390   40.5380 N   0  0  0  0  0  0  0  0  0  0  0  0
   49.7530   31.4270   39.7090 C   0  0  0  0  0  0  0  0  0  0  0  0
   51.0120   31.6520   40.0920 N   0  0  0  0  0  0  0  0  0  0  0  0
   46.3170   34.0320   45.7890 O   0  0  0  0  0  0  0  0  0  0  0  0
   45.5980   31.4710   45.6370 O   0  0  0  0  0  0  0  0  0  0  0  0
   46.0820   32.5640   46.5860 P   0  0  2  0  0  0  0  0  0  0  0  0
   44.7630   32.8280   47.6530 O   0  0  0  0  0  0  0  0  0  0  0  0
   47.3770   32.0870   47.5020 O   0  0  0  0  0  0  0  0  0  0  0  0
   47.6860   30.7700   47.2040 C   0  0  0  0  0  0  0  0  0  0  0  0
   49.1330   29.0170   48.3110 C   0  0  0  0  0  0  0  0  0  0  0  0
   48.6480   30.3100   48.2660 C   0  0  0  0  0  0  0  0  0  0  0  0
   49.0370   31.2550   49.2150 C   0  0  0  0  0  0  0  0  0  0  0  0
   49.9140   30.8950   50.2100 C   0  0  0  0  0  0  0  0  0  0  0  0
   50.4080   31.6530   51.2120 N   0  0  0  0  0  0  0  0  0  0  0  0
   51.2300   30.8620   51.9350 C   0  0  0  0  0  0  0  0  0  0  0  0
   51.2280   29.6220   51.3640 N   0  0  0  0  0  0  0  0  0  0  0  0
   50.4210   29.6120   50.2910 C   0  0  0  0  0  0  0  0  0  0  0  0
   50.0240   28.6860   49.3380 C   0  0  0  0  0  0  0  0  0  0  0  0
   46.8240   36.0165   42.4037 H   0  0  0  0  0  0  0  0  0  0  0  0
   46.9760   34.4033   41.5464 H   0  0  0  0  0  0  0  0  0  0  0  0
   44.7987   35.8216   41.3280 H   0  0  0  0  0  0  0  0  0  0  0  0
   44.7625   34.0078   41.5599 H   0  0  0  0  0  0  0  0  0  0  0  0
   43.4780   36.0265   43.0849 H   0  0  0  0  0  0  0  0  0  0  0  0
   43.4910   34.2249   43.3005 H   0  0  0  0  0  0  0  0  0  0  0  0
   45.4955   36.2057   44.4795 H   0  0  0  0  0  0  0  0  0  0  0  0
   44.2677   35.3399   45.3869 H   0  0  0  0  0  0  0  0  0  0  0  0
   45.4251   33.0218   44.2469 H   0  0  0  0  0  0  0  0  0  0  0  0
   48.8143   34.1435   43.0402 H   0  0  0  0  0  0  0  0  0  0  0  0
   48.3392   33.2954   44.5358 H   0  0  0  0  0  0  0  0  0  0  0  0
   47.6370   31.4635   43.3993 H   0  0  0  0  0  0  0  0  0  0  0  0
   46.8129   32.4510   42.1477 H   0  0  0  0  0  0  0  0  0  0  0  0
   52.2635   32.2962   41.6905 H   0  0  0  0  0  0  0  0  0  0  0  0
   50.3318   32.6952   43.2466 H   0  0  0  0  0  0  0  0  0  0  0  0
   49.5579   31.0596   38.6907 H   0  0  0  0  0  0  0  0  0  0  0  0
   45.0783   32.7649   48.5893 H   0  0  0  0  0  0  0  0  0  0  0  0
   46.7760   30.1522   47.2212 H   0  0  0  0  0  0  0  0  0  0  0  0
   48.1267   30.6805   46.2001 H   0  0  0  0  0  0  0  0  0  0  0  0
   48.8281   28.2708   47.5625 H   0  0  0  0  0  0  0  0  0  0  0  0
   48.6446   32.2815   49.1675 H   0  0  0  0  0  0  0  0  0  0  0  0
   50.1980   32.6454   51.3910 H   0  0  0  0  0  0  0  0  0  0  0  0
   51.8001   31.1635   52.8261 H   0  0  0  0  0  0  0  0  0  0  0  0
   50.4211   27.6615   49.3909 H   0  0  0  0  0  0  0  0  0  0  0  0
  1  6  1  0
  2  1  1  0
  3  2  1  0
  3  4  1  0
  4  5  1  0
  6  5  1  0
  6 15  1  0
  7  1  1  0
  8  7  1  0
  9 10  2  0
 11 10  1  0
 11  8  1  0
 12 11  2  0
 13 14  2  0
 13 12  1  0
 14  9  1  0
 15 17  1  0
 17 16  2  0
 17 19  1  0
 17 18  1  0
 20 19  1  0
 20 22  1  0
 21 29  2  0
 22 21  1  0
 22 23  2  0
 23 24  1  0
 24 28  2  0
 24 25  1  0
 25 26  1  0
 27 26  2  0
 28 27  1  0
 29 28  1  0
  2 30  1  0
  2 31  1  0
  3 32  1  0
  3 33  1  0
  4 34  1  0
  4 35  1  0
  5 36  1  0
  5 37  1  0
  6 38  1  6
  7 39  1  0
  7 40  1  0
  8 41  1  0
  8 42  1  0
  9 43  1  0
 10 44  1  0
 13 45  1  0
 18 46  1  0
 20 47  1  0
 20 48  1  0
 21 49  1  0
 23 50  1  0
 25 51  1  0
 26 52  1  0
 29 53  1  0
M  ISO  8  30  13  31  13  32  13  33  13  34  13  35  13  36  13  37  13
M  ISO  8  38  13  39   8  40   8  41   8  42   8  43  14  44  14  45  14
M  ISO  8  46   3  47   8  48   8  49  14  50  14  51   9  52  14  53  14
M  END
>  <minimizedAffinity>  (1) 
-5.65791082

>  <minimizedRMSD>  (1) 
3.07099795

$$$$
