
     RDKit          3D

 53 58  0  0  0  0  0  0  0  0999 V2000
   45.6830   33.7970   45.4050 C   0  0  0  0  0  0  0  0  0  0  0  0
   44.8280   34.7490   45.7940 N   0  0  0  0  0  0  0  0  0  0  0  0
   44.4930   35.8210   45.0820 C   0  0  0  0  0  0  0  0  0  0  0  0
   45.0360   36.0060   43.8600 N   0  0  0  0  0  0  0  0  0  0  0  0
   45.9040   35.1260   43.3590 C   0  0  0  0  0  0  0  0  0  0  0  0
   46.4590   35.3130   42.1090 C   0  0  0  0  0  0  0  0  0  0  0  0
   47.3490   34.4240   41.5790 C   0  0  0  0  0  0  0  0  0  0  0  0
   47.6840   33.3100   42.3410 C   0  0  0  0  0  0  0  0  0  0  0  0
   47.0920   33.1720   43.5940 C   0  0  0  0  0  0  0  0  0  0  0  0
   46.2120   34.0350   44.1430 C   0  0  0  0  0  0  0  0  0  0  0  0
   47.5740   31.9970   47.9100 C   0  0  0  0  0  0  0  0  0  0  0  0
   47.0580   30.6970   47.9240 C   0  0  0  0  0  0  0  0  0  0  0  0
   46.0250   30.4280   47.0660 C   0  0  0  0  0  0  0  0  0  0  0  0
   45.5640   31.3880   46.2670 N   0  0  0  0  0  0  0  0  0  0  0  0
   46.0330   32.6170   46.2320 C   0  0  0  0  0  0  0  0  0  0  0  0
   47.0520   32.9070   47.0740 N   0  0  0  0  0  0  0  0  0  0  0  0
   45.4620   29.1740   47.0500 N   0  0  0  0  0  0  0  0  0  0  0  0
   44.2310   28.8270   46.2850 C   0  0  0  0  0  0  0  0  0  0  0  0
   44.1350   27.3290   46.3200 C   0  0  0  0  0  0  0  0  0  0  0  0
   44.8750   26.9610   47.5610 C   0  0  0  0  0  0  0  0  0  0  0  0
   45.9160   28.0080   47.7340 C   0  0  0  0  0  0  0  0  0  0  0  0
   47.6470   29.7870   48.7660 N   0  0  0  0  0  0  0  0  0  0  0  0
   48.4010   31.2080   41.1260 C   0  0  0  0  0  0  0  0  0  0  0  0
   48.6310   32.4150   41.7220 C   0  0  0  0  0  0  0  0  0  0  0  0
   49.9510   32.8290   41.7220 C   0  0  0  0  0  0  0  0  0  0  0  0
   50.9910   32.0970   41.1660 C   0  0  0  0  0  0  0  0  0  0  0  0
   52.3140   32.2520   41.0290 N   0  0  0  0  0  0  0  0  0  0  0  0
   52.8420   31.1770   40.3780 C   0  0  0  0  0  0  0  0  0  0  0  0
   51.8150   30.3550   40.1150 N   0  0  0  0  0  0  0  0  0  0  0  0
   50.6730   30.8850   40.5820 C   0  0  0  0  0  0  0  0  0  0  0  0
   49.3820   30.4360   40.5580 C   0  0  0  0  0  0  0  0  0  0  0  0
   47.5430   31.9710   44.2330 N   0  0  0  0  0  0  0  0  0  0  0  0
   43.7778   36.5525   45.4863 H   0  0  0  0  0  0  0  0  0  0  0  0
   46.1768   36.2014   41.5249 H   0  0  0  0  0  0  0  0  0  0  0  0
   47.7866   34.5835   40.5825 H   0  0  0  0  0  0  0  0  0  0  0  0
   48.4022   32.2713   48.5800 H   0  0  0  0  0  0  0  0  0  0  0  0
   44.3128   29.1813   45.2468 H   0  0  0  0  0  0  0  0  0  0  0  0
   43.3380   29.2998   46.7197 H   0  0  0  0  0  0  0  0  0  0  0  0
   43.0858   27.0036   46.3769 H   0  0  0  0  0  0  0  0  0  0  0  0
   44.5473   26.8524   45.4184 H   0  0  0  0  0  0  0  0  0  0  0  0
   44.1940   26.9508   48.4248 H   0  0  0  0  0  0  0  0  0  0  0  0
   45.3176   25.9567   47.4871 H   0  0  0  0  0  0  0  0  0  0  0  0
   46.8689   27.6662   47.3038 H   0  0  0  0  0  0  0  0  0  0  0  0
   46.0806   28.2213   48.8005 H   0  0  0  0  0  0  0  0  0  0  0  0
   47.2960   28.8194   48.8054 H   0  0  0  0  0  0  0  0  0  0  0  0
   48.4400   30.0717   49.3585 H   0  0  0  0  0  0  0  0  0  0  0  0
   47.3674   30.8326   41.0999 H   0  0  0  0  0  0  0  0  0  0  0  0
   50.1905   33.7952   42.1902 H   0  0  0  0  0  0  0  0  0  0  0  0
   52.8526   33.0629   41.3655 H   0  0  0  0  0  0  0  0  0  0  0  0
   53.8991   31.0158   40.1199 H   0  0  0  0  0  0  0  0  0  0  0  0
   49.1341   29.4715   40.0908 H   0  0  0  0  0  0  0  0  0  0  0  0
   47.1952   31.7247   45.1707 H   0  0  0  0  0  0  0  0  0  0  0  0
   48.2149   31.3542   43.7545 H   0  0  0  0  0  0  0  0  0  0  0  0
  1  2  2  0
  1 15  1  0
  3  2  1  0
  4  3  2  0
  5  4  1  0
  5 10  2  0
  6  5  1  0
  7  6  2  0
  7  8  1  0
  8  9  2  0
  9 10  1  0
  9 32  1  0
 10  1  1  0
 11 12  2  0
 12 22  1  0
 13 12  1  0
 14 13  2  0
 15 14  1  0
 15 16  2  0
 16 11  1  0
 17 13  1  0
 17 21  1  0
 18 19  1  0
 18 17  1  0
 19 20  1  0
 20 21  1  0
 23 24  2  0
 24  8  1  0
 25 24  1  0
 26 25  2  0
 27 26  1  0
 28 27  1  0
 29 28  2  0
 29 30  1  0
 30 26  1  0
 31 30  2  0
 31 23  1  0
  3 33  1  0
  6 34  1  0
  7 35  1  0
 11 36  1  0
 18 37  1  0
 18 38  1  0
 19 39  1  0
 19 40  1  0
 20 41  1  0
 20 42  1  0
 21 43  1  0
 21 44  1  0
 22 45  1  0
 22 46  1  0
 23 47  1  0
 25 48  1  0
 27 49  1  0
 28 50  1  0
 31 51  1  0
 32 52  1  0
 32 53  1  0
M  ISO  8  33  14  34  14  35  14  36  14  37  13  38  13  39  13  40  13
M  ISO  8  41  13  42  13  43  13  44  13  47  14  48  14  49   9  50  14
M  ISO  1  51  14
M  END
>  <minimizedAffinity>  (1) 
-8.05216694

>  <minimizedRMSD>  (1) 
0.661487699

$$$$
