
     RDKit          3D

 29 31  0  0  0  0  0  0  0  0999 V2000
   47.0800   34.7150   42.8570 C   0  0  0  0  0  0  0  0  0  0  0  0
   48.0760   34.2580   41.9720 C   0  0  0  0  0  0  0  0  0  0  0  0
   48.6720   33.0250   42.2490 C   0  0  0  0  0  0  0  0  0  0  0  0
   48.2560   32.3470   43.3520 N   0  0  0  0  0  0  0  0  0  0  0  0
   47.3050   32.8200   44.1670 C   0  0  0  0  0  0  0  0  0  0  0  0
   46.7050   34.0160   43.9230 N   0  0  0  0  0  0  0  0  0  0  0  0
   47.3730   30.7950   45.5600 C   0  0  0  0  0  0  0  0  0  0  0  0
   46.8660   32.0700   45.3590 C   0  0  0  0  0  0  0  0  0  0  0  0
   45.9610   32.6270   46.2660 C   0  0  0  0  0  0  0  0  0  0  0  0
   45.5810   31.8800   47.3670 C   0  0  0  0  0  0  0  0  0  0  0  0
   44.7320   32.2110   48.3590 N   0  0  0  0  0  0  0  0  0  0  0  0
   44.7100   31.1530   49.1710 C   0  0  0  0  0  0  0  0  0  0  0  0
   45.5190   30.2080   48.6900 N   0  0  0  0  0  0  0  0  0  0  0  0
   46.1020   30.6130   47.5430 C   0  0  0  0  0  0  0  0  0  0  0  0
   46.9960   30.0370   46.6670 C   0  0  0  0  0  0  0  0  0  0  0  0
   48.4380   35.0790   40.8180 C   0  0  0  0  0  0  0  0  0  0  0  0
   49.2420   36.2800   41.3380 C   0  0  0  0  0  0  0  0  0  0  0  0
   46.5964   35.6830   42.6590 H   0  0  0  0  0  0  0  0  0  0  0  0
   49.4548   32.6147   41.5941 H   0  0  0  0  0  0  0  0  0  0  0  0
   48.0844   30.3750   44.8337 H   0  0  0  0  0  0  0  0  0  0  0  0
   45.5588   33.6386   46.1081 H   0  0  0  0  0  0  0  0  0  0  0  0
   44.2110   33.0929   48.4674 H   0  0  0  0  0  0  0  0  0  0  0  0
   44.1169   31.0724   50.0939 H   0  0  0  0  0  0  0  0  0  0  0  0
   47.3939   29.0252   46.8338 H   0  0  0  0  0  0  0  0  0  0  0  0
   47.5292   35.4289   40.3064 H   0  0  0  0  0  0  0  0  0  0  0  0
   49.0339   34.4961   40.1002 H   0  0  0  0  0  0  0  0  0  0  0  0
   49.2386   36.2749   42.4380 H   0  0  0  0  0  0  0  0  0  0  0  0
   50.2779   36.2130   40.9742 H   0  0  0  0  0  0  0  0  0  0  0  0
   48.7852   37.2122   40.9742 H   0  0  0  0  0  0  0  0  0  0  0  0
  1  6  2  0
  2  3  2  0
  2  1  1  0
  3  4  1  0
  4  5  2  0
  5  8  1  0
  6  5  1  0
  7 15  2  0
  8  7  1  0
  8  9  2  0
  9 10  1  0
 10 14  2  0
 10 11  1  0
 11 12  1  0
 13 12  2  0
 14 13  1  0
 15 14  1  0
 16 17  1  0
 16  2  1  0
  1 18  1  0
  3 19  1  0
  7 20  1  0
  9 21  1  0
 11 22  1  0
 12 23  1  0
 15 24  1  0
 16 25  1  0
 16 26  1  0
 17 27  1  0
 17 28  1  0
 17 29  1  0
M  ISO  8  18  14  19  14  20  14  21  14  22   9  23  14  24  14  25   8
M  ISO  4  26   8  27   8  28   8  29   8
M  END
>  <minimizedAffinity>  (1) 
-5.08873606

>  <minimizedRMSD>  (1) 
3.00109291

$$$$
