
     RDKit          3D

 53 57  0  0  0  0  0  0  0  0999 V2000
   44.4430   25.6790   48.1060 C   0  0  0  0  0  0  0  0  0  0  0  0
   44.9230   23.1170   46.6930 Cl  0  0  0  0  0  0  0  0  0  0  0  0
   43.5020   24.1340   46.4810 C   0  0  0  0  0  0  0  0  0  0  0  0
   43.3430   25.3190   47.1730 C   0  0  0  0  0  0  0  0  0  0  0  0
   42.2300   26.1150   47.0070 C   0  0  0  0  0  0  0  0  0  0  0  0
   41.2280   25.7110   46.1070 C   0  0  0  0  0  0  0  0  0  0  0  0
   41.4000   24.5230   45.4200 C   0  0  0  0  0  0  0  0  0  0  0  0
   42.5260   23.7300   45.5980 C   0  0  0  0  0  0  0  0  0  0  0  0
   43.3230   22.2800   43.6570 C   0  0  0  0  0  0  0  0  0  0  0  0
   42.6300   22.4900   44.8330 C   0  0  0  0  0  0  0  0  0  0  0  0
   41.9290   21.4150   45.3960 C   0  0  0  0  0  0  0  0  0  0  0  0
   41.9190   20.1560   44.8000 C   0  0  0  0  0  0  0  0  0  0  0  0
   41.3560   18.9730   45.0980 N   0  0  0  0  0  0  0  0  0  0  0  0
   41.6910   18.0820   44.1470 C   0  0  0  0  0  0  0  0  0  0  0  0
   42.4640   18.7030   43.2490 N   0  0  0  0  0  0  0  0  0  0  0  0
   42.6240   19.9880   43.6250 C   0  0  0  0  0  0  0  0  0  0  0  0
   43.3200   21.0390   43.0590 C   0  0  0  0  0  0  0  0  0  0  0  0
   45.4450   27.9370   47.6580 C   0  0  0  0  0  0  0  0  0  0  0  0
   44.5710   27.1660   48.2470 C   0  0  0  0  0  0  0  0  0  0  0  0
   45.6580   31.5590   47.0630 C   0  0  0  0  0  0  0  0  0  0  0  0
   45.4240   32.0190   48.3680 C   0  0  0  0  0  0  0  0  0  0  0  0
   45.1980   31.1810   49.4430 C   0  0  0  0  0  0  0  0  0  0  0  0
   45.2070   29.8300   49.1930 C   0  0  0  0  0  0  0  0  0  0  0  0
   45.4380   29.3690   47.9000 C   0  0  0  0  0  0  0  0  0  0  0  0
   45.6510   30.2300   46.9040 N   0  0  0  0  0  0  0  0  0  0  0  0
   44.7580   36.5980   43.8650 C   0  0  0  0  0  0  0  0  0  0  0  0
   45.6530   36.3210   42.8170 C   0  0  0  0  0  0  0  0  0  0  0  0
   46.3080   35.0880   42.8370 C   0  0  0  0  0  0  0  0  0  0  0  0
   46.0730   34.2020   43.8450 N   0  0  0  0  0  0  0  0  0  0  0  0
   45.1920   34.5270   44.8370 C   0  0  0  0  0  0  0  0  0  0  0  0
   44.5410   35.7220   44.8420 N   0  0  0  0  0  0  0  0  0  0  0  0
   45.8870   32.5230   45.9930 C   0  0  0  0  0  0  0  0  0  0  0  0
   46.8860   32.3450   45.2410 O   0  0  0  0  0  0  0  0  0  0  0  0
   44.9500   33.5940   45.8910 N   0  0  0  0  0  0  0  0  0  0  0  0
   45.3890   25.2728   47.7187 H   0  0  0  0  0  0  0  0  0  0  0  0
   44.2136   25.2544   49.0945 H   0  0  0  0  0  0  0  0  0  0  0  0
   42.1270   27.0537   47.5711 H   0  0  0  0  0  0  0  0  0  0  0  0
   40.3286   26.3253   45.9530 H   0  0  0  0  0  0  0  0  0  0  0  0
   40.6231   24.1972   44.7128 H   0  0  0  0  0  0  0  0  0  0  0  0
   43.8805   23.1083   43.1953 H   0  0  0  0  0  0  0  0  0  0  0  0
   41.3726   21.5693   46.3323 H   0  0  0  0  0  0  0  0  0  0  0  0
   40.7652   18.7799   45.9193 H   0  0  0  0  0  0  0  0  0  0  0  0
   41.3829   17.0266   44.1137 H   0  0  0  0  0  0  0  0  0  0  0  0
   43.8764   20.8834   42.1229 H   0  0  0  0  0  0  0  0  0  0  0  0
   46.1893   27.5002   46.9760 H   0  0  0  0  0  0  0  0  0  0  0  0
   43.8526   27.6600   48.9177 H   0  0  0  0  0  0  0  0  0  0  0  0
   45.4203   33.1047   48.5445 H   0  0  0  0  0  0  0  0  0  0  0  0
   45.0190   31.5775   50.4533 H   0  0  0  0  0  0  0  0  0  0  0  0
   45.0324   29.1157   50.0111 H   0  0  0  0  0  0  0  0  0  0  0  0
   44.2254   37.5604   43.8773 H   0  0  0  0  0  0  0  0  0  0  0  0
   45.8307   37.0484   42.0112 H   0  0  0  0  0  0  0  0  0  0  0  0
   47.0165   34.8310   42.0358 H   0  0  0  0  0  0  0  0  0  0  0  0
   44.1517   33.6882   46.5350 H   0  0  0  0  0  0  0  0  0  0  0  0
  1 19  1  0
  3  2  1  0
  3  4  2  0
  4  1  1  0
  5  4  1  0
  6  5  2  0
  7  8  2  0
  7  6  1  0
  8  3  1  0
  9 10  2  0
 10 11  1  0
 10  8  1  0
 12 13  1  0
 12 11  2  0
 14 13  1  0
 15 16  1  0
 15 14  2  0
 16 12  1  0
 17 16  2  0
 17  9  1  0
 18 24  1  0
 18 19  2  0
 20 21  2  0
 21 22  1  0
 23 22  2  0
 24 23  1  0
 25 20  1  0
 25 24  2  0
 26 31  2  0
 27 28  2  0
 27 26  1  0
 28 29  1  0
 29 30  2  0
 30 31  1  0
 30 34  1  0
 32 20  1  0
 33 32  2  0
 34 32  1  0
  1 35  1  0
  1 36  1  0
  5 37  1  0
  6 38  1  0
  7 39  1  0
  9 40  1  0
 11 41  1  0
 13 42  1  0
 14 43  1  0
 17 44  1  0
 18 45  1  0
 19 46  1  0
 21 47  1  0
 22 48  1  0
 23 49  1  0
 26 50  1  0
 27 51  1  0
 28 52  1  0
 34 53  1  0
M  ISO  8  35   8  36   8  37  14  38  14  39  14  40  14  41  14  42   9
M  ISO  8  43  14  44  14  47  14  48  14  49  14  50  14  51  14  52  14
M  END
>  <minimizedAffinity>  (1) 
-6.35615921

>  <minimizedRMSD>  (1) 
1.03337979

$$$$
