
     RDKit          3D

 42 46  0  0  0  0  0  0  0  0999 V2000
   46.4060   33.5700   41.1120 C   0  0  0  0  0  0  0  0  0  0  0  0
   46.8020   34.6030   41.9460 C   0  0  0  0  0  0  0  0  0  0  0  0
   47.8650   35.3510   41.5470 C   0  0  0  0  0  0  0  0  0  0  0  0
   48.5340   35.0970   40.3530 C   0  0  0  0  0  0  0  0  0  0  0  0
   48.1270   34.0720   39.5420 C   0  0  0  0  0  0  0  0  0  0  0  0
   47.0360   33.2730   39.9130 C   0  0  0  0  0  0  0  0  0  0  0  0
   44.5500   36.0540   44.5880 C   0  0  0  0  0  0  0  0  0  0  0  0
   45.2420   35.8850   43.3860 C   0  0  0  0  0  0  0  0  0  0  0  0
   46.0700   34.8150   43.1690 C   0  0  0  0  0  0  0  0  0  0  0  0
   46.1590   33.9350   44.2170 N   0  0  0  0  0  0  0  0  0  0  0  0
   45.4940   34.0900   45.3790 C   0  0  0  0  0  0  0  0  0  0  0  0
   44.6890   35.1550   45.5580 N   0  0  0  0  0  0  0  0  0  0  0  0
   45.3260   32.7770   41.4730 O   0  0  0  0  0  0  0  0  0  0  0  0
   46.5960   32.2390   39.1320 O   0  0  0  0  0  0  0  0  0  0  0  0
   46.5500   32.2330   37.7850 C   0  0  0  0  0  0  0  0  0  0  0  0
   45.6190   32.7380   36.9020 C   0  0  0  0  0  0  0  0  0  0  0  0
   45.8150   32.5950   35.5680 C   0  0  0  0  0  0  0  0  0  0  0  0
   46.9990   31.9160   35.1700 C   0  0  0  0  0  0  0  0  0  0  0  0
   47.8210   31.4880   36.7320 S   0  0  0  0  0  0  0  0  0  0  0  0
   47.1900   30.4070   33.2550 C   0  0  0  0  0  0  0  0  0  0  0  0
   47.4510   31.6280   33.8560 C   0  0  0  0  0  0  0  0  0  0  0  0
   48.1630   32.6170   33.2050 C   0  0  0  0  0  0  0  0  0  0  0  0
   48.6310   32.3890   31.9170 C   0  0  0  0  0  0  0  0  0  0  0  0
   49.3360   33.1910   31.0990 N   0  0  0  0  0  0  0  0  0  0  0  0
   49.5150   32.4580   29.9740 C   0  0  0  0  0  0  0  0  0  0  0  0
   48.9310   31.2300   30.0980 N   0  0  0  0  0  0  0  0  0  0  0  0
   48.3610   31.1680   31.3360 C   0  0  0  0  0  0  0  0  0  0  0  0
   47.6520   30.1770   31.9780 C   0  0  0  0  0  0  0  0  0  0  0  0
   48.2057   36.1796   42.1852 H   0  0  0  0  0  0  0  0  0  0  0  0
   49.3913   35.7211   40.0606 H   0  0  0  0  0  0  0  0  0  0  0  0
   48.6564   33.8749   38.5982 H   0  0  0  0  0  0  0  0  0  0  0  0
   43.8942   36.9254   44.7311 H   0  0  0  0  0  0  0  0  0  0  0  0
   45.1183   36.6337   42.5897 H   0  0  0  0  0  0  0  0  0  0  0  0
   45.6087   33.3465   46.1815 H   0  0  0  0  0  0  0  0  0  0  0  0
   45.0363   32.0367   40.8829 H   0  0  0  0  0  0  0  0  0  0  0  0
   44.7229   33.2537   37.2775 H   0  0  0  0  0  0  0  0  0  0  0  0
   45.0957   32.9839   34.8323 H   0  0  0  0  0  0  0  0  0  0  0  0
   46.6217   29.6321   33.7904 H   0  0  0  0  0  0  0  0  0  0  0  0
   48.3579   33.5782   33.7031 H   0  0  0  0  0  0  0  0  0  0  0  0
   49.6660   34.1486   31.2862 H   0  0  0  0  0  0  0  0  0  0  0  0
   50.0571   32.8049   29.0819 H   0  0  0  0  0  0  0  0  0  0  0  0
   47.4577   29.2164   31.4785 H   0  0  0  0  0  0  0  0  0  0  0  0
  1 13  1  0
  1  2  2  0
  2  9  1  0
  3  2  1  0
  4  3  2  0
  5  6  2  0
  5  4  1  0
  6  1  1  0
  7 12  2  0
  8  7  1  0
  9  8  2  0
  9 10  1  0
 10 11  2  0
 11 12  1  0
 14  6  1  0
 15 14  1  0
 16 15  2  0
 17 16  1  0
 18 17  2  0
 18 19  1  0
 19 15  1  0
 20 21  2  0
 21 18  1  0
 22 21  1  0
 23 22  2  0
 24 23  1  0
 25 26  2  0
 25 24  1  0
 26 27  1  0
 27 23  1  0
 27 28  2  0
 28 20  1  0
  3 29  1  0
  4 30  1  0
  5 31  1  0
  7 32  1  0
  8 33  1  0
 11 34  1  0
 13 35  1  0
 16 36  1  0
 17 37  1  0
 20 38  1  0
 22 39  1  0
 24 40  1  0
 25 41  1  0
 28 42  1  0
M  END
>  <minimizedAffinity>  (1) 
-7.22187233

>  <minimizedRMSD>  (1) 
0.556530952

$$$$
