
     RDKit          3D

 39 43  0  0  0  0  0  0  0  0999 V2000
   46.0750   32.7030   47.1000 C   0  0  0  0  0  0  0  0  0  0  0  0
   44.9600   32.3420   47.8280 C   0  0  0  0  0  0  0  0  0  0  0  0
   45.1020   31.5220   48.9380 C   0  0  0  0  0  0  0  0  0  0  0  0
   46.3880   31.0990   49.2660 C   0  0  0  0  0  0  0  0  0  0  0  0
   47.4690   31.4950   48.4960 C   0  0  0  0  0  0  0  0  0  0  0  0
   47.3230   32.2950   47.4140 N   0  0  0  0  0  0  0  0  0  0  0  0
   49.2410   29.8160   48.4050 C   0  0  0  0  0  0  0  0  0  0  0  0
   48.8210   31.0680   48.8150 C   0  0  0  0  0  0  0  0  0  0  0  0
   49.7430   31.8090   49.5030 C   0  0  0  0  0  0  0  0  0  0  0  0
   51.0130   31.3440   49.7750 C   0  0  0  0  0  0  0  0  0  0  0  0
   52.0680   31.8680   50.4140 N   0  0  0  0  0  0  0  0  0  0  0  0
   53.0900   30.9870   50.4010 C   0  0  0  0  0  0  0  0  0  0  0  0
   52.6730   29.8930   49.7450 N   0  0  0  0  0  0  0  0  0  0  0  0
   51.4000   30.1000   49.3540 C   0  0  0  0  0  0  0  0  0  0  0  0
   50.5100   29.2940   48.6500 C   0  0  0  0  0  0  0  0  0  0  0  0
   44.7820   35.2750   44.7930 C   0  0  0  0  0  0  0  0  0  0  0  0
   45.6080   35.1580   43.6610 C   0  0  0  0  0  0  0  0  0  0  0  0
   46.5870   34.1950   43.7380 C   0  0  0  0  0  0  0  0  0  0  0  0
   46.7200   33.4150   44.8600 N   0  0  0  0  0  0  0  0  0  0  0  0
   45.8920   33.5650   45.9360 C   0  0  0  0  0  0  0  0  0  0  0  0
   44.9330   34.4950   45.8870 N   0  0  0  0  0  0  0  0  0  0  0  0
   47.5120   33.9600   42.5780 C   0  0  0  0  0  0  0  0  0  0  0  0
   47.9720   35.2590   41.9120 C   0  0  0  0  0  0  0  0  0  0  0  0
   48.9070   34.2910   42.7050 C   0  0  0  0  0  0  0  0  0  0  0  0
   43.9643   32.7022   47.5301 H   0  0  0  0  0  0  0  0  0  0  0  0
   44.2312   31.2171   49.5370 H   0  0  0  0  0  0  0  0  0  0  0  0
   46.5454   30.4486   50.1390 H   0  0  0  0  0  0  0  0  0  0  0  0
   48.5268   29.1909   47.8490 H   0  0  0  0  0  0  0  0  0  0  0  0
   49.4609   32.8132   49.8523 H   0  0  0  0  0  0  0  0  0  0  0  0
   52.0947   32.8013   50.8489 H   0  0  0  0  0  0  0  0  0  0  0  0
   54.0841   31.1380   50.8470 H   0  0  0  0  0  0  0  0  0  0  0  0
   50.7953   28.2901   48.3026 H   0  0  0  0  0  0  0  0  0  0  0  0
   43.9822   36.0302   44.7883 H   0  0  0  0  0  0  0  0  0  0  0  0
   45.4797   35.7943   42.7730 H   0  0  0  0  0  0  0  0  0  0  0  0
   47.0196   33.0300   42.2577 H   0  0  0  0  0  0  0  0  0  0  0  0
   48.0409   35.3355   40.8168 H   0  0  0  0  0  0  0  0  0  0  0  0
   47.6976   36.3235   41.9522 H   0  0  0  0  0  0  0  0  0  0  0  0
   49.3095   34.5976   43.6817 H   0  0  0  0  0  0  0  0  0  0  0  0
   49.8474   33.7680   42.4765 H   0  0  0  0  0  0  0  0  0  0  0  0
  1  6  1  0
  1  2  2  0
  2  3  1  0
  3  4  2  0
  5  8  1  0
  5  4  1  0
  6  5  2  0
  7 15  2  0
  7  8  1  0
  8  9  2  0
  9 10  1  0
 10 11  1  0
 12 11  1  0
 13 12  2  0
 14 13  1  0
 14 10  2  0
 15 14  1  0
 16 21  2  0
 17 18  2  0
 17 16  1  0
 18 19  1  0
 19 20  2  0
 20  1  1  0
 21 20  1  0
 22 24  1  0
 22 18  1  0
 23 22  1  0
 23 24  1  0
  2 25  1  0
  3 26  1  0
  4 27  1  0
  7 28  1  0
  9 29  1  0
 11 30  1  0
 12 31  1  0
 15 32  1  0
 16 33  1  0
 17 34  1  0
 22 35  1  0
 23 36  1  0
 23 37  1  0
 24 38  1  0
 24 39  1  0
M  ISO  8  25  14  26  14  27  14  28  14  29  14  30   9  31  14  32  14
M  ISO  7  33  14  34  14  35  13  36  13  37  13  38  13  39  13
M  END
>  <minimizedAffinity>  (1) 
-6.72388124

>  <minimizedRMSD>  (1) 
2.28511739

$$$$
