
     RDKit          3D

 35 37  0  0  1  0  0  0  0  0999 V2000
   47.9820   33.9870   40.0440 O   0  0  0  0  0  0  0  0  0  0  0  0
   47.9470   35.5540   41.8780 C   0  0  1  0  0  0  0  0  0  0  0  0
   49.3120   34.9790   41.9350 C   0  0  0  0  0  0  0  0  0  0  0  0
   48.5360   35.0610   40.6280 C   0  0  1  0  0  0  0  0  0  0  0  0
   46.1600   33.0480   44.0760 C   0  0  0  0  0  0  0  0  0  0  0  0
   47.1960   33.8210   43.5380 C   0  0  0  0  0  0  0  0  0  0  0  0
   46.8850   34.7050   42.4990 C   0  0  0  0  0  0  0  0  0  0  0  0
   45.5990   34.7770   42.0530 N   0  0  0  0  0  0  0  0  0  0  0  0
   44.6140   34.0190   42.5890 C   0  0  0  0  0  0  0  0  0  0  0  0
   44.9040   33.1570   43.6000 N   0  0  0  0  0  0  0  0  0  0  0  0
   49.3210   32.4830   38.3180 O   0  0  0  0  0  0  0  0  0  0  0  0
   48.3560   33.6340   38.4870 P   0  0  2  0  0  0  0  0  0  0  0  0
   49.0230   34.9380   37.6290 O   0  0  0  0  0  0  0  0  0  0  0  0
   46.9560   33.1830   37.6580 O   0  0  0  0  0  0  0  0  0  0  0  0
   44.5000   33.3230   37.8830 C   0  0  0  0  0  0  0  0  0  0  0  0
   45.7440   32.8480   38.1930 C   0  0  0  0  0  0  0  0  0  0  0  0
   45.8330   31.8800   39.1990 C   0  0  0  0  0  0  0  0  0  0  0  0
   44.6840   31.4390   39.8370 C   0  0  0  0  0  0  0  0  0  0  0  0
   43.4490   31.9320   39.5060 C   0  0  0  0  0  0  0  0  0  0  0  0
   43.3470   32.9000   38.5030 C   0  0  0  0  0  0  0  0  0  0  0  0
   44.4780   34.2810   36.8780 O   0  0  0  0  0  0  0  0  0  0  0  0
   42.1650   33.5000   38.0510 O   0  0  0  0  0  0  0  0  0  0  0  0
   47.4934   36.5117   42.1731 H   0  0  0  0  0  0  0  0  0  0  0  0
   50.1814   35.6310   42.1052 H   0  0  0  0  0  0  0  0  0  0  0  0
   49.8062   34.1805   42.5079 H   0  0  0  0  0  0  0  0  0  0  0  0
   48.7735   35.4652   39.6329 H   0  0  0  0  0  0  0  0  0  0  0  0
   46.3733   32.3452   44.8949 H   0  0  0  0  0  0  0  0  0  0  0  0
   48.2238   33.7359   43.9207 H   0  0  0  0  0  0  0  0  0  0  0  0
   43.5849   34.0998   42.2090 H   0  0  0  0  0  0  0  0  0  0  0  0
   49.3675   35.6115   38.2676 H   0  0  0  0  0  0  0  0  0  0  0  0
   46.8131   31.4694   39.4833 H   0  0  0  0  0  0  0  0  0  0  0  0
   44.7654   30.6769   40.6260 H   0  0  0  0  0  0  0  0  0  0  0  0
   42.5484   31.5701   40.0237 H   0  0  0  0  0  0  0  0  0  0  0  0
   43.6176   34.6781   36.5914 H   0  0  0  0  0  0  0  0  0  0  0  0
   41.2961   33.2450   38.4511 H   0  0  0  0  0  0  0  0  0  0  0  0
  1  4  1  0
  2  3  1  0
  2  7  1  0
  4  2  1  0
  4  3  1  0
  6  5  2  0
  7  6  1  0
  8  7  2  0
  8  9  1  0
  9 10  2  0
 10  5  1  0
 12 11  2  0
 12  1  1  0
 13 12  1  0
 14 16  1  0
 14 12  1  0
 15 16  2  0
 15 20  1  0
 16 17  1  0
 17 18  2  0
 19 18  1  0
 20 19  2  0
 21 15  1  0
 22 20  1  0
  2 23  1  6
  3 24  1  0
  3 25  1  0
  4 26  1  6
  5 27  1  0
  6 28  1  0
  9 29  1  0
 13 30  1  0
 17 31  1  0
 18 32  1  0
 19 33  1  0
 21 34  1  0
 22 35  1  0
M  ISO  8  23  13  24  13  25  13  26  13  27  14  28  14  29  14  30   3
M  ISO  5  31  14  32  14  33  14  34   3  35   3
M  END
>  <minimizedAffinity>  (1) 
-4.98079872

>  <minimizedRMSD>  (1) 
0.593755484

$$$$
