
     RDKit          3D

 27 28  0  0  0  0  0  0  0  0999 V2000
   46.7240   33.1490   45.8380 C   0  0  0  0  0  0  0  0  0  0  0  0
   44.3050   35.5310   44.4890 C   0  0  0  0  0  0  0  0  0  0  0  0
   43.9920   35.0280   43.2200 C   0  0  0  0  0  0  0  0  0  0  0  0
   44.6270   33.8550   42.8330 C   0  0  0  0  0  0  0  0  0  0  0  0
   45.4910   33.2750   43.6840 N   0  0  0  0  0  0  0  0  0  0  0  0
   45.7710   33.7840   44.8960 C   0  0  0  0  0  0  0  0  0  0  0  0
   45.1710   34.9320   45.3140 N   0  0  0  0  0  0  0  0  0  0  0  0
   43.0590   35.7630   42.4570 N   0  0  0  0  0  0  0  0  0  0  0  0
   45.5240   32.1920   47.6650 C   0  0  0  0  0  0  0  0  0  0  0  0
   46.1660   31.9250   46.4530 C   0  0  0  0  0  0  0  0  0  0  0  0
   46.2170   30.6390   45.9730 C   0  0  0  0  0  0  0  0  0  0  0  0
   45.6230   29.6420   46.7180 C   0  0  0  0  0  0  0  0  0  0  0  0
   44.9800   29.8680   47.9170 C   0  0  0  0  0  0  0  0  0  0  0  0
   44.9330   31.1680   48.3960 C   0  0  0  0  0  0  0  0  0  0  0  0
   45.4140   33.4600   48.2430 O   0  0  0  0  0  0  0  0  0  0  0  0
   44.2820   31.3720   49.6050 O   0  0  0  0  0  0  0  0  0  0  0  0
   46.9669   33.8673   46.6349 H   0  0  0  0  0  0  0  0  0  0  0  0
   47.6221   32.8638   45.2705 H   0  0  0  0  0  0  0  0  0  0  0  0
   43.8174   36.4592   44.8218 H   0  0  0  0  0  0  0  0  0  0  0  0
   44.4265   33.4086   41.8478 H   0  0  0  0  0  0  0  0  0  0  0  0
   42.7928   35.4380   41.5166 H   0  0  0  0  0  0  0  0  0  0  0  0
   42.6445   36.6243   42.8407 H   0  0  0  0  0  0  0  0  0  0  0  0
   46.7178   30.4107   45.0206 H   0  0  0  0  0  0  0  0  0  0  0  0
   45.6643   28.6115   46.3355 H   0  0  0  0  0  0  0  0  0  0  0  0
   44.5182   29.0412   48.4766 H   0  0  0  0  0  0  0  0  0  0  0  0
   45.8072   34.2469   47.7887 H   0  0  0  0  0  0  0  0  0  0  0  0
   43.8779   30.6062   50.0850 H   0  0  0  0  0  0  0  0  0  0  0  0
  1 10  1  0
  2  7  2  0
  3  2  1  0
  4  3  2  0
  4  5  1  0
  5  6  2  0
  6  7  1  0
  6  1  1  0
  8  3  1  0
  9 15  1  0
  9 14  2  0
 10  9  1  0
 11 10  2  0
 11 12  1  0
 12 13  2  0
 13 14  1  0
 14 16  1  0
  1 17  1  0
  1 18  1  0
  2 19  1  0
  4 20  1  0
  8 21  1  0
  8 22  1  0
 11 23  1  0
 12 24  1  0
 13 25  1  0
 15 26  1  0
 16 27  1  0
M  ISO  8  17   8  18   8  19  14  20  14  23  14  24  14  25  14  26   3
M  ISO  1  27   3
M  END
>  <minimizedAffinity>  (1) 
-5.04782677

>  <minimizedRMSD>  (1) 
1.31866264

$$$$
