
     RDKit          3D

 25 26  0  0  0  0  0  0  0  0999 V2000
   46.6260   34.6770   41.6070 C   0  0  0  0  0  0  0  0  0  0  0  0
   45.9340   34.9170   42.9300 C   0  0  0  0  0  0  0  0  0  0  0  0
   46.0060   33.8990   43.8790 C   0  0  0  0  0  0  0  0  0  0  0  0
   45.3790   34.1030   45.1110 C   0  0  0  0  0  0  0  0  0  0  0  0
   44.7380   35.2760   45.3090 N   0  0  0  0  0  0  0  0  0  0  0  0
   44.6840   36.2530   44.3610 C   0  0  0  0  0  0  0  0  0  0  0  0
   45.2830   36.0710   43.1740 N   0  0  0  0  0  0  0  0  0  0  0  0
   48.3630   33.0070   41.4960 C   0  0  0  0  0  0  0  0  0  0  0  0
   48.0430   34.3020   41.8660 C   0  0  0  0  0  0  0  0  0  0  0  0
   49.0230   35.1200   42.4190 C   0  0  0  0  0  0  0  0  0  0  0  0
   50.2990   34.5970   42.5780 C   0  0  0  0  0  0  0  0  0  0  0  0
   50.5860   33.3120   42.2030 C   0  0  0  0  0  0  0  0  0  0  0  0
   49.6250   32.4750   41.6490 C   0  0  0  0  0  0  0  0  0  0  0  0
   47.4490   32.1000   40.9290 O   0  0  0  0  0  0  0  0  0  0  0  0
   50.0040   31.1870   41.2970 O   0  0  0  0  0  0  0  0  0  0  0  0
   46.5915   35.5940   41.0004 H   0  0  0  0  0  0  0  0  0  0  0  0
   46.1192   33.8666   41.0626 H   0  0  0  0  0  0  0  0  0  0  0  0
   46.5409   32.9621   43.6645 H   0  0  0  0  0  0  0  0  0  0  0  0
   45.4064   33.3324   45.8955 H   0  0  0  0  0  0  0  0  0  0  0  0
   44.1491   37.1915   44.5687 H   0  0  0  0  0  0  0  0  0  0  0  0
   48.7932   36.1522   42.7218 H   0  0  0  0  0  0  0  0  0  0  0  0
   51.0915   35.2245   43.0118 H   0  0  0  0  0  0  0  0  0  0  0  0
   51.6080   32.9306   42.3445 H   0  0  0  0  0  0  0  0  0  0  0  0
   46.5109   32.3751   40.7728 H   0  0  0  0  0  0  0  0  0  0  0  0
   50.9364   30.8880   41.4432 H   0  0  0  0  0  0  0  0  0  0  0  0
  1  9  1  0
  1  2  1  0
  2  7  1  0
  2  3  2  0
  3  4  1  0
  4  5  2  0
  6  5  1  0
  7  6  2  0
  8 13  2  0
  8  9  1  0
  9 10  2  0
 10 11  1  0
 12 11  2  0
 13 12  1  0
 14  8  1  0
 15 13  1  0
  1 16  1  0
  1 17  1  0
  3 18  1  0
  4 19  1  0
  6 20  1  0
 10 21  1  0
 11 22  1  0
 12 23  1  0
 14 24  1  0
 15 25  1  0
M  ISO  8  16   8  17   8  18  14  19  14  20  14  21  14  22  14  23  14
M  ISO  2  24   3  25   3
M  END
>  <minimizedAffinity>  (1) 
-4.80126524

>  <minimizedRMSD>  (1) 
4.7387104

$$$$
