
     RDKit          3D

 39 42  0  0  1  0  0  0  0  0999 V2000
   45.7060   34.9050   42.4570 C   0  0  0  0  0  0  0  0  0  0  0  0
   47.0580   35.0770   42.1660 C   0  0  0  0  0  0  0  0  0  0  0  0
   47.8060   34.3270   43.0620 C   0  0  0  0  0  0  0  0  0  0  0  0
   46.8610   33.7320   43.8570 C   0  0  0  0  0  0  0  0  0  0  0  0
   45.6430   34.0730   43.5000 O   0  0  0  0  0  0  0  0  0  0  0  0
   47.1700   32.8190   44.9710 C   0  0  2  0  0  0  0  0  0  0  0  0
   47.3830   31.3820   44.7000 C   0  0  0  0  0  0  0  0  0  0  0  0
   46.0560   31.7880   45.2590 C   0  0  1  0  0  0  0  0  0  0  0  0
   45.4920   30.2760   47.1220 C   0  0  0  0  0  0  0  0  0  0  0  0
   45.8330   31.5460   46.7050 C   0  0  0  0  0  0  0  0  0  0  0  0
   45.9460   32.5200   47.6760 C   0  0  0  0  0  0  0  0  0  0  0  0
   45.7230   32.2190   49.0030 C   0  0  0  0  0  0  0  0  0  0  0  0
   45.3830   30.9540   49.4310 C   0  0  0  0  0  0  0  0  0  0  0  0
   45.2670   29.9710   48.4680 C   0  0  0  0  0  0  0  0  0  0  0  0
   45.3720   29.2740   46.1620 O   0  0  0  0  0  0  0  0  0  0  0  0
   44.9240   28.6790   48.8610 O   0  0  0  0  0  0  0  0  0  0  0  0
   44.5530   35.4390   41.8510 O   0  0  0  0  0  0  0  0  0  0  0  0
   43.9250   34.7380   40.8030 C   0  0  0  0  0  0  0  0  0  0  0  0
   44.6270   33.8530   40.2420 O   0  0  0  0  0  0  0  0  0  0  0  0
   42.5860   35.1070   40.5020 C   0  0  0  0  0  0  0  0  0  0  0  0
   42.2360   34.9800   39.1860 C   0  0  0  0  0  0  0  0  0  0  0  0
   40.9370   35.3250   38.8190 C   0  0  0  0  0  0  0  0  0  0  0  0
   40.1000   35.7630   39.7750 N   0  0  0  0  0  0  0  0  0  0  0  0
   40.4730   35.8760   41.0520 C   0  0  0  0  0  0  0  0  0  0  0  0
   41.7290   35.5420   41.4040 N   0  0  0  0  0  0  0  0  0  0  0  0
   47.4650   35.7040   41.3590 H   0  0  0  0  0  0  0  0  0  0  0  0
   48.9003   34.2321   43.1207 H   0  0  0  0  0  0  0  0  0  0  0  0
   47.7499   33.5709   45.5263 H   0  0  0  0  0  0  0  0  0  0  0  0
   47.4490   31.0299   43.6600 H   0  0  0  0  0  0  0  0  0  0  0  0
   48.1486   30.6539   45.0062 H   0  0  0  0  0  0  0  0  0  0  0  0
   45.0103   31.6210   44.9613 H   0  0  0  0  0  0  0  0  0  0  0  0
   46.2167   33.5467   47.3885 H   0  0  0  0  0  0  0  0  0  0  0  0
   45.8204   33.0207   49.7499 H   0  0  0  0  0  0  0  0  0  0  0  0
   45.2111   30.7363   50.4955 H   0  0  0  0  0  0  0  0  0  0  0  0
   45.5297   29.4820   45.2070 H   0  0  0  0  0  0  0  0  0  0  0  0
   44.7676   28.4777   49.8176 H   0  0  0  0  0  0  0  0  0  0  0  0
   42.9581   34.6165   38.4400 H   0  0  0  0  0  0  0  0  0  0  0  0
   40.6050   35.2411   37.7737 H   0  0  0  0  0  0  0  0  0  0  0  0
   39.7616   36.2382   41.8087 H   0  0  0  0  0  0  0  0  0  0  0  0
  1  5  1  0
  2  1  2  0
  2  3  1  0
  3  4  2  0
  4  6  1  0
  5  4  1  0
  6  8  1  0
  7  6  1  0
  7  8  1  0
  8 10  1  0
  9 14  2  0
 10  9  1  0
 10 11  2  0
 11 12  1  0
 12 13  2  0
 14 16  1  0
 14 13  1  0
 15  9  1  0
 17  1  1  0
 18 17  1  0
 19 18  2  0
 20 18  1  0
 20 25  1  0
 21 20  2  0
 22 21  1  0
 22 23  2  0
 23 24  1  0
 24 25  2  0
  2 26  1  0
  3 27  1  0
  6 28  1  1
  7 29  1  0
  7 30  1  0
  8 31  1  6
 11 32  1  0
 12 33  1  0
 13 34  1  0
 15 35  1  0
 16 36  1  0
 21 37  1  0
 22 38  1  0
 24 39  1  0
M  ISO  8  26  14  27  14  28  13  29  13  30  13  31  13  32  14  33  14
M  ISO  6  34  14  35   3  36   3  37  14  38  14  39  14
M  END
>  <minimizedAffinity>  (1) 
-6.42314434

>  <minimizedRMSD>  (1) 
9.65868092

$$$$
