
     RDKit          3D

 37 38  0  0  0  0  0  0  0  0999 V2000
   41.0000   32.0310   40.7300 C   0  0  0  0  0  0  0  0  0  0  0  0
   40.1530   32.8360   40.0010 C   0  0  0  0  0  0  0  0  0  0  0  0
   40.4610   34.1690   39.7620 C   0  0  0  0  0  0  0  0  0  0  0  0
   41.6230   34.6320   40.2780 N   0  0  0  0  0  0  0  0  0  0  0  0
   42.4430   33.8270   40.9930 C   0  0  0  0  0  0  0  0  0  0  0  0
   42.1440   32.5470   41.2190 N   0  0  0  0  0  0  0  0  0  0  0  0
   43.6640   35.2960   42.5600 C   0  0  0  0  0  0  0  0  0  0  0  0
   43.6850   34.3800   41.5270 C   0  0  0  0  0  0  0  0  0  0  0  0
   44.9180   33.9850   40.9920 C   0  0  0  0  0  0  0  0  0  0  0  0
   46.1120   34.5090   41.4990 C   0  0  0  0  0  0  0  0  0  0  0  0
   45.9990   35.4180   42.5320 C   0  0  0  0  0  0  0  0  0  0  0  0
   44.8210   35.8530   43.1070 C   0  0  0  0  0  0  0  0  0  0  0  0
   42.4480   35.7050   43.1100 O   0  0  0  0  0  0  0  0  0  0  0  0
   44.8050   36.7720   44.1440 O   0  0  0  0  0  0  0  0  0  0  0  0
   38.6120   32.1730   39.3320 S   0  0  0  0  0  0  0  0  0  0  0  0
   38.7450   32.0190   37.5520 C   0  0  0  0  0  0  0  0  0  0  0  0
   39.3700   30.7330   37.2830 N   0  0  0  0  0  0  0  0  0  0  0  0
   38.6870   29.9390   35.9240 S   0  0  0  0  0  0  0  0  0  0  0  0
   37.8430   30.8530   35.1120 O   0  0  0  0  0  0  0  0  0  0  0  0
   39.8410   29.4320   35.1040 O   0  0  0  0  0  0  0  0  0  0  0  0
   37.8240   28.6060   36.4170 O   0  0  0  0  0  0  0  0  0  0  0  0
   37.8010   28.4600   37.7940 C   0  0  0  0  0  0  0  0  0  0  0  0
   40.7446   30.9765   40.9112 H   0  0  0  0  0  0  0  0  0  0  0  0
   39.7909   34.8187   39.1798 H   0  0  0  0  0  0  0  0  0  0  0  0
   44.9476   33.2576   40.1674 H   0  0  0  0  0  0  0  0  0  0  0  0
   47.0911   34.2119   41.0951 H   0  0  0  0  0  0  0  0  0  0  0  0
   46.9341   35.8345   42.9345 H   0  0  0  0  0  0  0  0  0  0  0  0
   41.5978   35.3399   42.7580 H   0  0  0  0  0  0  0  0  0  0  0  0
   45.6557   37.1366   44.4955 H   0  0  0  0  0  0  0  0  0  0  0  0
   37.7458   32.0569   37.0936 H   0  0  0  0  0  0  0  0  0  0  0  0
   39.3408   32.8416   37.1297 H   0  0  0  0  0  0  0  0  0  0  0  0
   40.3735   30.8843   37.1068 H   0  0  0  0  0  0  0  0  0  0  0  0
   37.3094   31.4308   35.7133 H   0  0  0  0  0  0  0  0  0  0  0  0
   40.5602   29.1160   35.7064 H   0  0  0  0  0  0  0  0  0  0  0  0
   37.9554   29.4400   38.2692 H   0  0  0  0  0  0  0  0  0  0  0  0
   36.8275   28.0518   38.1032 H   0  0  0  0  0  0  0  0  0  0  0  0
   38.6019   27.7723   38.1032 H   0  0  0  0  0  0  0  0  0  0  0  0
  1  6  2  0
  2  1  1  0
  3  2  2  0
  3  4  1  0
  4  5  2  0
  5  6  1  0
  5  8  1  0
  7 12  2  0
  7 13  1  0
  8  7  1  0
  9 10  1  0
  9  8  2  0
 10 11  2  0
 11 12  1  0
 12 14  1  0
 15  2  1  0
 16 15  1  0
 17 16  1  0
 18 21  1  0
 18 17  1  0
 19 18  1  0
 20 18  1  0
 21 22  1  0
  1 23  1  0
  3 24  1  0
  9 25  1  0
 10 26  1  0
 11 27  1  0
 13 28  1  0
 14 29  1  0
 16 30  1  0
 16 31  1  0
 17 32  1  0
 19 33  1  0
 20 34  1  0
 22 35  1  0
 22 36  1  0
 22 37  1  0
M  ISO  8  23  14  24  14  25  14  26  14  27  14  28   3  29   3  30   8
M  ISO  7  31   8  32   5  33   3  34   3  35   8  36   8  37   8
M  END
>  <minimizedAffinity>  (1) 
-4.70313549

>  <minimizedRMSD>  (1) 
9.00068092

$$$$
