
     RDKit          3D

 49 52  0  0  1  0  0  0  0  0999 V2000
   47.4580   32.8940   44.3490 C   0  0  2  0  0  0  0  0  0  0  0  0
   47.3840   33.3430   42.9320 C   0  0  1  0  0  0  0  0  0  0  0  0
   47.3620   32.1650   41.9540 C   0  0  0  0  0  0  0  0  0  0  0  0
   48.4980   31.4220   42.2950 O   0  0  0  0  0  0  0  0  0  0  0  0
   48.3180   30.7390   43.4780 C   0  0  0  0  0  0  0  0  0  0  0  0
   47.3180   31.3600   44.4010 C   0  0  1  0  0  0  0  0  0  0  0  0
   44.9970   36.1150   42.8480 C   0  0  0  0  0  0  0  0  0  0  0  0
   43.9760   35.6750   41.9530 C   0  0  0  0  0  0  0  0  0  0  0  0
   44.1730   34.3840   41.3980 C   0  0  0  0  0  0  0  0  0  0  0  0
   45.2720   33.6740   41.7360 N   0  0  0  0  0  0  0  0  0  0  0  0
   46.2010   34.1520   42.5910 C   0  0  0  0  0  0  0  0  0  0  0  0
   46.0600   35.3760   43.1460 N   0  0  0  0  0  0  0  0  0  0  0  0
   44.8280   37.3560   43.3960 O   0  0  0  0  0  0  0  0  0  0  0  0
   46.4720   33.4470   45.1660 O   0  0  0  0  0  0  0  0  0  0  0  0
   47.4800   30.9950   45.7180 O   0  0  0  0  0  0  0  0  0  0  0  0
   46.1850   28.6520   45.3460 F   0  0  0  0  0  0  0  0  0  0  0  0
   46.0700   29.4360   46.4370 C   0  0  0  0  0  0  0  0  0  0  0  0
   46.6900   30.6380   46.7140 C   0  0  0  0  0  0  0  0  0  0  0  0
   46.3650   31.1990   47.9390 C   0  0  0  0  0  0  0  0  0  0  0  0
   45.5080   30.6790   48.8730 C   0  0  0  0  0  0  0  0  0  0  0  0
   44.9250   29.4920   48.5470 C   0  0  0  0  0  0  0  0  0  0  0  0
   45.1760   28.8420   47.3510 C   0  0  0  0  0  0  0  0  0  0  0  0
   45.0740   26.5270   47.8160 C   0  0  0  0  0  0  0  0  0  0  0  0
   44.4680   27.5780   47.1580 C   0  0  0  0  0  0  0  0  0  0  0  0
   43.3420   27.3690   46.4340 C   0  0  0  0  0  0  0  0  0  0  0  0
   42.8130   26.0840   46.3680 C   0  0  0  0  0  0  0  0  0  0  0  0
   43.4000   25.0170   47.0170 C   0  0  0  0  0  0  0  0  0  0  0  0
   44.5630   25.2480   47.7610 C   0  0  0  0  0  0  0  0  0  0  0  0
   46.2420   26.6310   48.5930 O   0  0  0  0  0  0  0  0  0  0  0  0
   45.0990   24.1320   48.3870 O   0  0  0  0  0  0  0  0  0  0  0  0
   48.4314   33.2353   44.7311 H   0  0  0  0  0  0  0  0  0  0  0  0
   48.2902   33.9590   42.8353 H   0  0  0  0  0  0  0  0  0  0  0  0
   47.4234   32.5186   40.9142 H   0  0  0  0  0  0  0  0  0  0  0  0
   46.4350   31.5765   42.0201 H   0  0  0  0  0  0  0  0  0  0  0  0
   47.9802   29.7197   43.2394 H   0  0  0  0  0  0  0  0  0  0  0  0
   49.2847   30.7570   44.0025 H   0  0  0  0  0  0  0  0  0  0  0  0
   46.3344   31.0068   44.0576 H   0  0  0  0  0  0  0  0  0  0  0  0
   43.0987   36.2928   41.7107 H   0  0  0  0  0  0  0  0  0  0  0  0
   43.4362   33.9640   40.6975 H   0  0  0  0  0  0  0  0  0  0  0  0
   44.0306   37.8950   43.1643 H   0  0  0  0  0  0  0  0  0  0  0  0
   46.7156   33.3104   46.1158 H   0  0  0  0  0  0  0  0  0  0  0  0
   46.8432   32.1583   48.1862 H   0  0  0  0  0  0  0  0  0  0  0  0
   45.3036   31.1882   49.8264 H   0  0  0  0  0  0  0  0  0  0  0  0
   44.2273   29.0319   49.2622 H   0  0  0  0  0  0  0  0  0  0  0  0
   42.8539   28.2020   45.9068 H   0  0  0  0  0  0  0  0  0  0  0  0
   41.8988   25.9133   45.7805 H   0  0  0  0  0  0  0  0  0  0  0  0
   42.9644   24.0091   46.9513 H   0  0  0  0  0  0  0  0  0  0  0  0
   46.6159   25.8277   49.0347 H   0  0  0  0  0  0  0  0  0  0  0  0
   45.9215   24.2170   48.9313 H   0  0  0  0  0  0  0  0  0  0  0  0
  1  6  1  0
  1 14  1  0
  2  1  1  0
  3  4  1  0
  3  2  1  0
  4  5  1  0
  5  6  1  0
  6 15  1  0
  7 12  2  0
  7 13  1  0
  8  7  1  0
  9 10  1  0
  9  8  2  0
 10 11  2  0
 11  2  1  0
 11 12  1  0
 15 18  1  0
 16 17  1  0
 17 18  2  0
 17 22  1  0
 18 19  1  0
 19 20  2  0
 21 20  1  0
 22 21  2  0
 23 29  1  0
 24 22  1  0
 24 23  2  0
 25 24  1  0
 26 25  2  0
 26 27  1  0
 27 28  2  0
 28 23  1  0
 28 30  1  0
  1 31  1  1
  2 32  1  6
  3 33  1  0
  3 34  1  0
  5 35  1  0
  5 36  1  0
  6 37  1  6
  8 38  1  0
  9 39  1  0
 13 40  1  0
 14 41  1  0
 19 42  1  0
 20 43  1  0
 21 44  1  0
 25 45  1  0
 26 46  1  0
 27 47  1  0
 29 48  1  0
 30 49  1  0
M  ISO  8  31  13  32  13  33  13  34  13  35  13  36  13  37  13  38  14
M  ISO  8  39  14  40   3  41   3  42  14  43  14  44  14  45  14  46  14
M  ISO  3  47  14  48   3  49   3
M  END
>  <minimizedAffinity>  (1) 
-6.34506893

>  <minimizedRMSD>  (1) 
1.58735454

$$$$
