
     RDKit          3D

 51 56  0  0  1  0  0  0  0  0999 V2000
   45.6000   33.5290   45.3320 C   0  0  0  0  0  0  0  0  0  0  0  0
   46.6600   32.9110   44.5790 C   0  0  0  0  0  0  0  0  0  0  0  0
   47.5130   32.0660   45.2380 C   0  0  0  0  0  0  0  0  0  0  0  0
   47.3050   31.8610   46.5680 N   0  0  0  0  0  0  0  0  0  0  0  0
   46.3000   32.4530   47.2640 C   0  0  0  0  0  0  0  0  0  0  0  0
   45.4490   33.2860   46.6440 N   0  0  0  0  0  0  0  0  0  0  0  0
   46.7790   33.2290   43.1240 C   0  0  1  0  0  0  0  0  0  0  0  0
   46.9210   34.6100   42.6790 C   0  0  0  0  0  0  0  0  0  0  0  0
   48.1290   33.7500   42.6570 C   0  0  2  0  0  0  0  0  0  0  0  0
   48.5580   33.2190   41.3350 C   0  0  0  0  0  0  0  0  0  0  0  0
   49.4290   32.1640   41.1680 C   0  0  0  0  0  0  0  0  0  0  0  0
   49.7870   31.7270   39.9050 C   0  0  0  0  0  0  0  0  0  0  0  0
   49.2790   32.3430   38.7810 C   0  0  0  0  0  0  0  0  0  0  0  0
   49.6080   31.9350   37.5320 N   0  0  0  0  0  0  0  0  0  0  0  0
   49.0870   32.5590   36.4480 C   0  0  0  0  0  0  0  0  0  0  0  0
   48.1880   33.6490   36.5240 C   0  0  0  0  0  0  0  0  0  0  0  0
   47.8460   34.0720   37.7850 C   0  0  0  0  0  0  0  0  0  0  0  0
   48.3900   33.4190   38.8970 C   0  0  0  0  0  0  0  0  0  0  0  0
   48.0630   33.8180   40.1760 C   0  0  0  0  0  0  0  0  0  0  0  0
   46.1730   32.1410   48.7150 C   0  0  2  0  0  0  0  0  0  0  0  0
   47.1250   31.2800   49.3960 C   0  0  0  0  0  0  0  0  0  0  0  0
   45.8290   30.6460   49.0010 C   0  0  2  0  0  0  0  0  0  0  0  0
   46.7430   28.9150   47.2800 C   0  0  0  0  0  0  0  0  0  0  0  0
   45.8000   29.7430   47.8470 C   0  0  0  0  0  0  0  0  0  0  0  0
   44.5370   29.7770   47.2420 C   0  0  0  0  0  0  0  0  0  0  0  0
   44.2540   29.0010   46.1110 C   0  0  0  0  0  0  0  0  0  0  0  0
   45.2140   28.1820   45.5640 C   0  0  0  0  0  0  0  0  0  0  0  0
   46.4420   28.1610   46.1670 C   0  0  0  0  0  0  0  0  0  0  0  0
   47.9520   28.9580   47.9570 O   0  0  0  0  0  0  0  0  0  0  0  0
   47.4670   27.3730   45.6940 O   0  0  0  0  0  0  0  0  0  0  0  0
   44.9024   34.2114   44.8243 H   0  0  0  0  0  0  0  0  0  0  0  0
   48.3398   31.5688   44.7097 H   0  0  0  0  0  0  0  0  0  0  0  0
   46.0934   32.4135   42.8503 H   0  0  0  0  0  0  0  0  0  0  0  0
   46.4611   34.9257   41.7309 H   0  0  0  0  0  0  0  0  0  0  0  0
   46.6857   35.5859   43.1287 H   0  0  0  0  0  0  0  0  0  0  0  0
   49.1470   33.8361   43.0649 H   0  0  0  0  0  0  0  0  0  0  0  0
   49.8462   31.6614   42.0530 H   0  0  0  0  0  0  0  0  0  0  0  0
   50.4823   30.8815   39.7968 H   0  0  0  0  0  0  0  0  0  0  0  0
   49.3798   32.1973   35.4513 H   0  0  0  0  0  0  0  0  0  0  0  0
   47.7847   34.1316   35.6215 H   0  0  0  0  0  0  0  0  0  0  0  0
   47.1521   34.9148   37.9196 H   0  0  0  0  0  0  0  0  0  0  0  0
   47.3674   34.6625   40.2898 H   0  0  0  0  0  0  0  0  0  0  0  0
   45.7850   33.1418   48.9554 H   0  0  0  0  0  0  0  0  0  0  0  0
   48.0496   30.9838   48.8789 H   0  0  0  0  0  0  0  0  0  0  0  0
   47.6655   31.3599   50.3507 H   0  0  0  0  0  0  0  0  0  0  0  0
   45.0420   30.0812   49.5222 H   0  0  0  0  0  0  0  0  0  0  0  0
   43.7537   30.4246   47.6627 H   0  0  0  0  0  0  0  0  0  0  0  0
   43.2538   29.0470   45.6556 H   0  0  0  0  0  0  0  0  0  0  0  0
   45.0028   27.5677   44.6763 H   0  0  0  0  0  0  0  0  0  0  0  0
   48.7129   28.4058   47.6468 H   0  0  0  0  0  0  0  0  0  0  0  0
   48.3457   27.3774   46.1501 H   0  0  0  0  0  0  0  0  0  0  0  0
  1  6  2  0
  2  3  2  0
  2  1  1  0
  3  4  1  0
  4  5  2  0
  5 20  1  0
  6  5  1  0
  7  2  1  0
  8  7  1  0
  9  8  1  0
  9  7  1  0
 10  9  1  0
 11 10  2  0
 12 11  1  0
 13 18  1  0
 13 12  2  0
 14 13  1  0
 15 16  1  0
 15 14  2  0
 16 17  2  0
 17 18  1  0
 18 19  2  0
 19 10  1  0
 20 22  1  0
 20 21  1  0
 22 21  1  0
 23 24  2  0
 23 29  1  0
 24 22  1  0
 25 24  1  0
 26 25  2  0
 27 26  1  0
 27 28  2  0
 28 23  1  0
 30 28  1  0
  1 31  1  0
  3 32  1  0
  7 33  1  6
  8 34  1  0
  8 35  1  0
  9 36  1  1
 11 37  1  0
 12 38  1  0
 15 39  1  0
 16 40  1  0
 17 41  1  0
 19 42  1  0
 20 43  1  1
 21 44  1  0
 21 45  1  0
 22 46  1  1
 25 47  1  0
 26 48  1  0
 27 49  1  0
 29 50  1  0
 30 51  1  0
M  ISO  8  31  14  32  14  33  13  34  13  35  13  36  13  37  14  38  14
M  ISO  8  39  14  40  14  41  14  42  14  43  13  44  13  45  13  46  13
M  ISO  5  47  14  48  14  49  14  50   3  51   3
M  END
>  <minimizedAffinity>  (1) 
-6.00890732

>  <minimizedRMSD>  (1) 
1.19107318

$$$$
