
     RDKit          3D

 25 26  0  0  0  0  0  0  0  0999 V2000
   45.4990   35.2100   43.7280 C   0  0  0  0  0  0  0  0  0  0  0  0
   46.4910   34.5910   42.9730 C   0  0  0  0  0  0  0  0  0  0  0  0
   47.1780   33.5050   43.5220 C   0  0  0  0  0  0  0  0  0  0  0  0
   46.8300   33.1200   44.7660 N   0  0  0  0  0  0  0  0  0  0  0  0
   45.8630   33.7380   45.4750 C   0  0  0  0  0  0  0  0  0  0  0  0
   45.1960   34.7880   44.9500 N   0  0  0  0  0  0  0  0  0  0  0  0
   49.4550   33.4140   42.6700 C   0  0  0  0  0  0  0  0  0  0  0  0
   48.2130   32.8260   42.7910 C   0  0  0  0  0  0  0  0  0  0  0  0
   48.0960   31.5990   42.1730 C   0  0  0  0  0  0  0  0  0  0  0  0
   49.1360   30.9930   41.4810 C   0  0  0  0  0  0  0  0  0  0  0  0
   50.3660   31.6070   41.3780 C   0  0  0  0  0  0  0  0  0  0  0  0
   50.5080   32.8360   41.9880 C   0  0  0  0  0  0  0  0  0  0  0  0
   49.7470   34.6670   43.2410 O   0  0  0  0  0  0  0  0  0  0  0  0
   51.7600   33.4600   41.8830 O   0  0  0  0  0  0  0  0  0  0  0  0
   44.7840   36.3680   43.1110 C   0  0  0  0  0  0  0  0  0  0  0  0
   46.7302   34.9506   41.9613 H   0  0  0  0  0  0  0  0  0  0  0  0
   45.6164   33.3844   46.4870 H   0  0  0  0  0  0  0  0  0  0  0  0
   47.1310   31.0743   42.2311 H   0  0  0  0  0  0  0  0  0  0  0  0
   48.9767   30.0120   41.0096 H   0  0  0  0  0  0  0  0  0  0  0  0
   51.1981   31.1372   40.8330 H   0  0  0  0  0  0  0  0  0  0  0  0
   50.6491   35.0610   43.1353 H   0  0  0  0  0  0  0  0  0  0  0  0
   51.9098   34.3431   42.3045 H   0  0  0  0  0  0  0  0  0  0  0  0
   44.3836   37.0165   43.9042 H   0  0  0  0  0  0  0  0  0  0  0  0
   45.4852   36.9418   42.4873 H   0  0  0  0  0  0  0  0  0  0  0  0
   43.9568   35.9981   42.4873 H   0  0  0  0  0  0  0  0  0  0  0  0
  1  6  2  0
  2  3  2  0
  2  1  1  0
  3  4  1  0
  4  5  2  0
  6  5  1  0
  7  8  2  0
  7 13  1  0
  8  3  1  0
  9  8  1  0
 10  9  2  0
 11 10  1  0
 11 12  2  0
 12  7  1  0
 14 12  1  0
 15  1  1  0
  2 16  1  0
  5 17  1  0
  9 18  1  0
 10 19  1  0
 11 20  1  0
 13 21  1  0
 14 22  1  0
 15 23  1  0
 15 24  1  0
 15 25  1  0
M  ISO  8  16  14  17  14  18  14  19  14  20  14  21   3  22   3  23   8
M  ISO  2  24   8  25   8
M  END
>  <minimizedAffinity>  (1) 
-4.8609333

>  <minimizedRMSD>  (1) 
1.09134316

$$$$
