
     RDKit          3D

 25 26  0  0  0  0  0  0  0  0999 V2000
   45.4220   35.1040   44.0630 C   0  0  0  0  0  0  0  0  0  0  0  0
   46.4620   34.3210   43.5670 C   0  0  0  0  0  0  0  0  0  0  0  0
   46.9600   33.2850   44.3800 C   0  0  0  0  0  0  0  0  0  0  0  0
   46.3900   33.1130   45.6070 N   0  0  0  0  0  0  0  0  0  0  0  0
   45.3730   33.9100   46.0430 C   0  0  0  0  0  0  0  0  0  0  0  0
   44.8990   34.8990   45.2650 N   0  0  0  0  0  0  0  0  0  0  0  0
   46.4710   33.8870   41.1620 C   0  0  0  0  0  0  0  0  0  0  0  0
   47.0840   34.4920   42.2540 C   0  0  0  0  0  0  0  0  0  0  0  0
   48.2400   35.2380   42.1670 C   0  0  0  0  0  0  0  0  0  0  0  0
   48.8040   35.3820   40.9170 C   0  0  0  0  0  0  0  0  0  0  0  0
   48.2230   34.7960   39.8110 C   0  0  0  0  0  0  0  0  0  0  0  0
   47.0670   34.0530   39.9190 C   0  0  0  0  0  0  0  0  0  0  0  0
   45.3080   33.1450   41.3000 O   0  0  0  0  0  0  0  0  0  0  0  0
   46.4370   33.4370   38.8210 O   0  0  0  0  0  0  0  0  0  0  0  0
   44.9220   36.1930   43.1690 C   0  0  0  0  0  0  0  0  0  0  0  0
   47.7802   32.6369   44.0375 H   0  0  0  0  0  0  0  0  0  0  0  0
   44.9370   33.7425   47.0389 H   0  0  0  0  0  0  0  0  0  0  0  0
   48.6933   35.6989   43.0570 H   0  0  0  0  0  0  0  0  0  0  0  0
   49.7264   35.9699   40.8003 H   0  0  0  0  0  0  0  0  0  0  0  0
   48.6914   34.9243   38.8240 H   0  0  0  0  0  0  0  0  0  0  0  0
   44.8919   32.7247   40.5061 H   0  0  0  0  0  0  0  0  0  0  0  0
   45.6072   32.9141   38.9558 H   0  0  0  0  0  0  0  0  0  0  0  0
   44.5406   37.0237   43.7810 H   0  0  0  0  0  0  0  0  0  0  0  0
   45.7450   36.5530   42.5341 H   0  0  0  0  0  0  0  0  0  0  0  0
   44.1125   35.8035   42.5341 H   0  0  0  0  0  0  0  0  0  0  0  0
  1  6  2  0
  2  1  1  0
  2  3  2  0
  3  4  1  0
  4  5  2  0
  6  5  1  0
  7 13  1  0
  7  8  2  0
  8  2  1  0
  9  8  1  0
 10  9  2  0
 11 12  2  0
 11 10  1  0
 12  7  1  0
 14 12  1  0
 15  1  1  0
  3 16  1  0
  5 17  1  0
  9 18  1  0
 10 19  1  0
 11 20  1  0
 13 21  1  0
 14 22  1  0
 15 23  1  0
 15 24  1  0
 15 25  1  0
M  ISO  8  16  14  17  14  18  14  19  14  20  14  21   3  22   3  23   8
M  ISO  2  24   8  25   8
M  END
>  <minimizedAffinity>  (1) 
-5.18932486

>  <minimizedRMSD>  (1) 
0.162025705

$$$$
