
     RDKit          3D

 35 37  0  0  0  0  0  0  0  0999 V2000
   45.6170   29.8650   44.6220 Br  0  0  0  0  0  0  0  0  0  0  0  0
   45.6220   30.3740   46.4890 C   0  0  0  0  0  0  0  0  0  0  0  0
   46.3220   31.5060   46.8060 C   0  0  0  0  0  0  0  0  0  0  0  0
   46.2930   31.8260   48.1600 C   0  0  0  0  0  0  0  0  0  0  0  0
   45.6330   31.0940   49.1130 C   0  0  0  0  0  0  0  0  0  0  0  0
   44.9570   29.9770   48.7150 C   0  0  0  0  0  0  0  0  0  0  0  0
   44.9320   29.5860   47.3930 C   0  0  0  0  0  0  0  0  0  0  0  0
   44.6170   27.2470   47.6010 C   0  0  0  0  0  0  0  0  0  0  0  0
   44.2120   28.3840   46.9300 C   0  0  0  0  0  0  0  0  0  0  0  0
   43.2390   28.3000   45.9560 C   0  0  0  0  0  0  0  0  0  0  0  0
   42.6960   27.0620   45.6810 C   0  0  0  0  0  0  0  0  0  0  0  0
   43.0970   25.9240   46.3480 C   0  0  0  0  0  0  0  0  0  0  0  0
   44.0840   26.0210   47.3340 C   0  0  0  0  0  0  0  0  0  0  0  0
   45.5970   27.2160   48.6070 O   0  0  0  0  0  0  0  0  0  0  0  0
   44.4070   24.8120   47.9360 O   0  0  0  0  0  0  0  0  0  0  0  0
   47.0660   32.3720   45.8850 C   0  0  0  0  0  0  0  0  0  0  0  0
   44.6240   35.1600   45.5140 C   0  0  0  0  0  0  0  0  0  0  0  0
   44.8580   35.5670   44.1940 C   0  0  0  0  0  0  0  0  0  0  0  0
   45.8310   34.8890   43.4680 C   0  0  0  0  0  0  0  0  0  0  0  0
   46.5160   33.8680   44.0520 N   0  0  0  0  0  0  0  0  0  0  0  0
   46.2620   33.4970   45.3470 C   0  0  0  0  0  0  0  0  0  0  0  0
   45.3190   34.1550   46.0460 N   0  0  0  0  0  0  0  0  0  0  0  0
   46.8353   32.7254   48.4872 H   0  0  0  0  0  0  0  0  0  0  0  0
   45.6478   31.3987   50.1699 H   0  0  0  0  0  0  0  0  0  0  0  0
   44.4210   29.3762   49.4645 H   0  0  0  0  0  0  0  0  0  0  0  0
   42.9049   29.1963   45.4129 H   0  0  0  0  0  0  0  0  0  0  0  0
   41.9196   26.9804   44.9061 H   0  0  0  0  0  0  0  0  0  0  0  0
   42.6455   24.9503   46.1072 H   0  0  0  0  0  0  0  0  0  0  0  0
   45.8328   26.3586   49.0421 H   0  0  0  0  0  0  0  0  0  0  0  0
   45.0959   24.7812   48.6464 H   0  0  0  0  0  0  0  0  0  0  0  0
   47.9312   32.7884   46.4217 H   0  0  0  0  0  0  0  0  0  0  0  0
   47.3647   31.7503   45.0281 H   0  0  0  0  0  0  0  0  0  0  0  0
   43.8604   35.6741   46.1162 H   0  0  0  0  0  0  0  0  0  0  0  0
   44.2904   36.3961   43.7464 H   0  0  0  0  0  0  0  0  0  0  0  0
   46.0458   35.1760   42.4281 H   0  0  0  0  0  0  0  0  0  0  0  0
  1  2  1  0
  2  3  2  0
  2  7  1  0
  3  4  1  0
  4  5  2  0
  6  5  1  0
  7  6  2  0
  8 14  1  0
  9  7  1  0
  9  8  2  0
 10  9  1  0
 11 10  2  0
 11 12  1  0
 12 13  2  0
 13  8  1  0
 13 15  1  0
 16  3  1  0
 17 22  2  0
 18 17  1  0
 19 20  1  0
 19 18  2  0
 20 21  2  0
 21 16  1  0
 21 22  1  0
  4 23  1  0
  5 24  1  0
  6 25  1  0
 10 26  1  0
 11 27  1  0
 12 28  1  0
 14 29  1  0
 15 30  1  0
 16 31  1  0
 16 32  1  0
 17 33  1  0
 18 34  1  0
 19 35  1  0
M  ISO  8  23  14  24  14  25  14  26  14  27  14  28  14  29   3  30   3
M  ISO  5  31   8  32   8  33  14  34  14  35  14
M  END
>  <minimizedAffinity>  (1) 
-5.76778173

>  <minimizedRMSD>  (1) 
0.970677614

$$$$
