
     RDKit          3D

 32 35  0  0  0  0  0  0  0  0999 V2000
   45.9570   33.0860   46.2100 C   0  0  0  0  0  0  0  0  0  0  0  0
   45.5100   32.9430   47.5490 C   0  0  0  0  0  0  0  0  0  0  0  0
   46.1650   32.0710   48.3480 C   0  0  0  0  0  0  0  0  0  0  0  0
   47.2620   31.3360   47.8310 C   0  0  0  0  0  0  0  0  0  0  0  0
   47.3620   31.9270   46.1060 S   0  0  0  0  0  0  0  0  0  0  0  0
   48.1410   30.3750   48.3670 C   0  0  0  0  0  0  0  0  0  0  0  0
   48.2810   29.1760   47.7030 C   0  0  0  0  0  0  0  0  0  0  0  0
   49.1650   28.2480   48.2680 C   0  0  0  0  0  0  0  0  0  0  0  0
   49.8540   28.5500   49.4430 C   0  0  0  0  0  0  0  0  0  0  0  0
   50.6970   27.6010   49.9370 N   0  0  0  0  0  0  0  0  0  0  0  0
   51.3970   27.8170   51.0660 C   0  0  0  0  0  0  0  0  0  0  0  0
   51.2340   29.0400   51.7150 C   0  0  0  0  0  0  0  0  0  0  0  0
   50.3880   30.0140   51.2350 C   0  0  0  0  0  0  0  0  0  0  0  0
   49.6810   29.7730   50.0780 C   0  0  0  0  0  0  0  0  0  0  0  0
   48.8020   30.7120   49.5270 C   0  0  0  0  0  0  0  0  0  0  0  0
   44.2940   35.9080   44.4590 C   0  0  0  0  0  0  0  0  0  0  0  0
   44.2910   35.4030   43.1350 C   0  0  0  0  0  0  0  0  0  0  0  0
   44.8550   34.1310   42.9090 C   0  0  0  0  0  0  0  0  0  0  0  0
   45.3750   33.4560   43.9890 N   0  0  0  0  0  0  0  0  0  0  0  0
   45.3500   33.9880   45.2310 C   0  0  0  0  0  0  0  0  0  0  0  0
   44.8120   35.2090   45.4710 N   0  0  0  0  0  0  0  0  0  0  0  0
   44.6557   33.5245   47.9259 H   0  0  0  0  0  0  0  0  0  0  0  0
   45.8490   31.9325   49.3925 H   0  0  0  0  0  0  0  0  0  0  0  0
   47.7275   28.9588   46.7775 H   0  0  0  0  0  0  0  0  0  0  0  0
   49.3172   27.2733   47.7814 H   0  0  0  0  0  0  0  0  0  0  0  0
   52.0780   27.0508   51.4651 H   0  0  0  0  0  0  0  0  0  0  0  0
   51.7988   29.2326   52.6391 H   0  0  0  0  0  0  0  0  0  0  0  0
   50.2783   30.9703   51.7675 H   0  0  0  0  0  0  0  0  0  0  0  0
   48.6439   31.6896   50.0059 H   0  0  0  0  0  0  0  0  0  0  0  0
   43.8594   36.8989   44.6572 H   0  0  0  0  0  0  0  0  0  0  0  0
   43.8611   35.9866   42.3076 H   0  0  0  0  0  0  0  0  0  0  0  0
   44.8786   33.6919   41.9007 H   0  0  0  0  0  0  0  0  0  0  0  0
  1  2  2  0
  2  3  1  0
  4  3  2  0
  4  6  1  0
  5  1  1  0
  5  4  1  0
  6 15  2  0
  7  8  2  0
  7  6  1  0
  8  9  1  0
  9 10  2  0
  9 14  1  0
 10 11  1  0
 11 12  2  0
 13 12  1  0
 14 13  2  0
 15 14  1  0
 16 21  2  0
 17 16  1  0
 18 17  2  0
 18 19  1  0
 19 20  2  0
 20 21  1  0
 20  1  1  0
  2 22  1  0
  3 23  1  0
  7 24  1  0
  8 25  1  0
 11 26  1  0
 12 27  1  0
 13 28  1  0
 15 29  1  0
 16 30  1  0
 17 31  1  0
 18 32  1  0
M  ISO  8  22  14  23  14  24  14  25  14  26  14  27  14  28  14  29  14
M  ISO  3  30  14  31  14  32  14
M  END
>  <minimizedAffinity>  (1) 
-5.45245504

>  <minimizedRMSD>  (1) 
1.26807237

$$$$
