
     RDKit          3D

 47 51  0  0  1  0  0  0  0  0999 V2000
   45.9360   32.8090   38.8950 C   0  0  2  0  0  0  0  0  0  0  0  0
   46.7890   31.8450   38.1540 C   0  0  0  0  0  0  0  0  0  0  0  0
   46.1560   33.0680   37.4870 C   0  0  1  0  0  0  0  0  0  0  0  0
   46.5150   34.6320   42.0450 C   0  0  0  0  0  0  0  0  0  0  0  0
   47.7530   35.1490   41.7350 C   0  0  0  0  0  0  0  0  0  0  0  0
   48.4250   34.9380   40.5510 C   0  0  0  0  0  0  0  0  0  0  0  0
   47.8160   34.1470   39.5970 C   0  0  0  0  0  0  0  0  0  0  0  0
   46.5860   33.6430   39.9240 C   0  0  0  0  0  0  0  0  0  0  0  0
   45.9830   33.8750   41.0780 N   0  0  0  0  0  0  0  0  0  0  0  0
   44.4810   36.0670   44.8680 C   0  0  0  0  0  0  0  0  0  0  0  0
   45.0500   35.9830   43.5920 C   0  0  0  0  0  0  0  0  0  0  0  0
   45.8440   34.8830   43.3220 C   0  0  0  0  0  0  0  0  0  0  0  0
   46.0340   33.9510   44.2840 N   0  0  0  0  0  0  0  0  0  0  0  0
   45.4590   34.0740   45.5190 C   0  0  0  0  0  0  0  0  0  0  0  0
   44.6940   35.1240   45.7930 N   0  0  0  0  0  0  0  0  0  0  0  0
   45.1580   32.7950   36.5400 O   0  0  0  0  0  0  0  0  0  0  0  0
   45.4320   30.7630   35.0280 O   0  0  0  0  0  0  0  0  0  0  0  0
   45.7710   32.2610   35.0650 P   0  0  1  0  0  0  0  0  0  0  0  0
   44.9650   32.9720   33.7870 O   0  0  0  0  0  0  0  0  0  0  0  0
   47.4440   32.3390   34.9390 O   0  0  0  0  0  0  0  0  0  0  0  0
   48.2230   31.6190   34.0440 C   0  0  0  0  0  0  0  0  0  0  0  0
   49.5740   31.4040   34.2280 C   0  0  0  0  0  0  0  0  0  0  0  0
   50.3770   30.6920   33.3570 C   0  0  0  0  0  0  0  0  0  0  0  0
   49.8100   30.1530   32.2230 C   0  0  0  0  0  0  0  0  0  0  0  0
   50.6030   29.4600   31.3810 N   0  0  0  0  0  0  0  0  0  0  0  0
   50.1270   28.8920   30.2350 C   0  0  0  0  0  0  0  0  0  0  0  0
   48.7900   29.0640   29.9850 C   0  0  0  0  0  0  0  0  0  0  0  0
   47.9640   29.7730   30.8400 C   0  0  0  0  0  0  0  0  0  0  0  0
   48.4620   30.3410   31.9960 C   0  0  0  0  0  0  0  0  0  0  0  0
   47.6930   31.0600   32.8920 C   0  0  0  0  0  0  0  0  0  0  0  0
   45.0213   32.7345   39.5015 H   0  0  0  0  0  0  0  0  0  0  0  0
   47.8735   31.8077   38.3343 H   0  0  0  0  0  0  0  0  0  0  0  0
   46.7906   30.7589   37.9797 H   0  0  0  0  0  0  0  0  0  0  0  0
   46.4962   33.9551   36.9326 H   0  0  0  0  0  0  0  0  0  0  0  0
   48.2435   35.7794   42.4914 H   0  0  0  0  0  0  0  0  0  0  0  0
   49.4140   35.3849   40.3715 H   0  0  0  0  0  0  0  0  0  0  0  0
   48.2924   33.9339   38.6287 H   0  0  0  0  0  0  0  0  0  0  0  0
   43.8437   36.9285   45.1162 H   0  0  0  0  0  0  0  0  0  0  0  0
   44.8729   36.7605   42.8343 H   0  0  0  0  0  0  0  0  0  0  0  0
   45.6303   33.3033   46.2849 H   0  0  0  0  0  0  0  0  0  0  0  0
   44.2700   33.5851   34.1352 H   0  0  0  0  0  0  0  0  0  0  0  0
   50.0430   31.8277   35.1282 H   0  0  0  0  0  0  0  0  0  0  0  0
   51.4488   30.5582   33.5654 H   0  0  0  0  0  0  0  0  0  0  0  0
   50.7787   28.3285   29.5511 H   0  0  0  0  0  0  0  0  0  0  0  0
   48.3590   28.6235   29.0738 H   0  0  0  0  0  0  0  0  0  0  0  0
   46.8974   29.8854   30.5955 H   0  0  0  0  0  0  0  0  0  0  0  0
   46.6213   31.1933   32.6829 H   0  0  0  0  0  0  0  0  0  0  0  0
  1  8  1  0
  2  1  1  0
  3  2  1  0
  3  1  1  0
  4 12  1  0
  5  4  2  0
  6  5  1  0
  7  8  1  0
  7  6  2  0
  8  9  2  0
  9  4  1  0
 10 15  2  0
 11 10  1  0
 12 11  2  0
 12 13  1  0
 13 14  2  0
 14 15  1  0
 16  3  1  0
 18 17  2  0
 18 16  1  0
 19 18  1  0
 20 18  1  0
 21 22  2  0
 21 20  1  0
 23 22  1  0
 24 23  2  0
 25 24  1  0
 26 25  2  0
 27 26  1  0
 27 28  2  0
 28 29  1  0
 29 24  1  0
 29 30  2  0
 30 21  1  0
  1 31  1  6
  2 32  1  0
  2 33  1  0
  3 34  1  1
  5 35  1  0
  6 36  1  0
  7 37  1  0
 10 38  1  0
 11 39  1  0
 14 40  1  0
 19 41  1  0
 22 42  1  0
 23 43  1  0
 26 44  1  0
 27 45  1  0
 28 46  1  0
 30 47  1  0
M  ISO  8  31  13  32  13  33  13  34  13  35  14  36  14  37  14  38  14
M  ISO  8  39  14  40  14  41   3  42  14  43  14  44  14  45  14  46  14
M  ISO  1  47  14
M  END
>  <minimizedAffinity>  (1) 
-7.11753416

>  <minimizedRMSD>  (1) 
1.32326066

$$$$
