
     RDKit          3D

 56 61  0  0  1  0  0  0  0  0999 V2000
   46.7390   31.5980   48.2910 C   0  0  1  0  0  0  0  0  0  0  0  0
   46.2900   30.5520   49.2530 C   0  0  0  0  0  0  0  0  0  0  0  0
   47.5590   31.2400   49.4640 C   0  0  1  0  0  0  0  0  0  0  0  0
   48.8760   30.5690   49.2220 C   0  0  2  0  0  0  0  0  0  0  0  0
   49.6090   30.1830   50.5320 C   0  0  0  0  0  0  0  0  0  0  0  0
   50.1320   31.2840   49.7070 C   0  0  1  0  0  0  0  0  0  0  0  0
   51.3990   31.0370   48.9900 C   0  0  0  0  0  0  0  0  0  0  0  0
   52.4350   31.9630   49.1650 C   0  0  0  0  0  0  0  0  0  0  0  0
   53.6550   31.7870   48.5150 C   0  0  0  0  0  0  0  0  0  0  0  0
   53.8720   30.6970   47.6850 C   0  0  0  0  0  0  0  0  0  0  0  0
   55.0480   30.5420   47.0680 N   0  0  0  0  0  0  0  0  0  0  0  0
   55.3190   29.5100   46.2530 C   0  0  0  0  0  0  0  0  0  0  0  0
   54.3020   28.5840   46.0710 C   0  0  0  0  0  0  0  0  0  0  0  0
   53.0570   28.7080   46.6960 C   0  0  0  0  0  0  0  0  0  0  0  0
   52.8220   29.7970   47.5330 C   0  0  0  0  0  0  0  0  0  0  0  0
   51.5970   29.9470   48.1680 C   0  0  0  0  0  0  0  0  0  0  0  0
   47.1030   31.1030   46.9390 C   0  0  0  0  0  0  0  0  0  0  0  0
   46.0200   33.0580   46.2010 C   0  0  0  0  0  0  0  0  0  0  0  0
   46.8610   32.1630   45.8910 C   0  0  0  0  0  0  0  0  0  0  0  0
   44.5240   35.9470   44.4670 C   0  0  0  0  0  0  0  0  0  0  0  0
   45.1830   35.9520   43.2430 C   0  0  0  0  0  0  0  0  0  0  0  0
   46.1080   34.9750   43.0540 C   0  0  0  0  0  0  0  0  0  0  0  0
   46.3490   34.0600   44.0330 N   0  0  0  0  0  0  0  0  0  0  0  0
   45.6940   34.0830   45.2060 C   0  0  0  0  0  0  0  0  0  0  0  0
   44.7940   35.0320   45.3920 N   0  0  0  0  0  0  0  0  0  0  0  0
   46.8780   34.8540   41.8220 C   0  0  0  0  0  0  0  0  0  0  0  0
   48.0830   35.4490   41.5890 C   0  0  0  0  0  0  0  0  0  0  0  0
   48.7990   35.3230   40.4160 C   0  0  0  0  0  0  0  0  0  0  0  0
   48.2940   34.5510   39.3880 C   0  0  0  0  0  0  0  0  0  0  0  0
   47.0880   33.9280   39.5610 C   0  0  0  0  0  0  0  0  0  0  0  0
   46.4150   34.0900   40.7590 C   0  0  0  0  0  0  0  0  0  0  0  0
   46.3653   32.5536   47.8945 H   0  0  0  0  0  0  0  0  0  0  0  0
   45.4396   30.7491   49.9224 H   0  0  0  0  0  0  0  0  0  0  0  0
   45.9803   29.4998   49.1692 H   0  0  0  0  0  0  0  0  0  0  0  0
   47.9872   31.7706   50.3272 H   0  0  0  0  0  0  0  0  0  0  0  0
   48.5781   30.0923   48.2765 H   0  0  0  0  0  0  0  0  0  0  0  0
   49.1440   30.3997   51.5050 H   0  0  0  0  0  0  0  0  0  0  0  0
   50.0304   29.2517   50.9384 H   0  0  0  0  0  0  0  0  0  0  0  0
   50.3771   32.3402   49.8925 H   0  0  0  0  0  0  0  0  0  0  0  0
   52.2848   32.8343   49.8194 H   0  0  0  0  0  0  0  0  0  0  0  0
   54.4583   32.5238   48.6624 H   0  0  0  0  0  0  0  0  0  0  0  0
   56.2948   29.4044   45.7563 H   0  0  0  0  0  0  0  0  0  0  0  0
   54.4812   27.7218   45.4118 H   0  0  0  0  0  0  0  0  0  0  0  0
   52.2728   27.9550   46.5289 H   0  0  0  0  0  0  0  0  0  0  0  0
   50.7962   29.2079   48.0181 H   0  0  0  0  0  0  0  0  0  0  0  0
   48.1677   30.8265   46.9318 H   0  0  0  0  0  0  0  0  0  0  0  0
   46.4763   30.2297   46.7052 H   0  0  0  0  0  0  0  0  0  0  0  0
   45.5457   33.0656   47.1935 H   0  0  0  0  0  0  0  0  0  0  0  0
   47.3811   32.1582   44.9217 H   0  0  0  0  0  0  0  0  0  0  0  0
   43.7644   36.7153   44.6738 H   0  0  0  0  0  0  0  0  0  0  0  0
   44.9676   36.7050   42.4706 H   0  0  0  0  0  0  0  0  0  0  0  0
   48.5124   36.0702   42.3888 H   0  0  0  0  0  0  0  0  0  0  0  0
   49.7661   35.8343   40.3004 H   0  0  0  0  0  0  0  0  0  0  0  0
   48.8517   34.4389   38.4465 H   0  0  0  0  0  0  0  0  0  0  0  0
   46.6600   33.3077   38.7597 H   0  0  0  0  0  0  0  0  0  0  0  0
   45.4480   33.5791   40.8773 H   0  0  0  0  0  0  0  0  0  0  0  0
  1  2  1  0
  1  3  1  0
  2  3  1  0
  4  3  1  0
  4  6  1  0
  4  5  1  0
  6  5  1  0
  7  8  2  0
  7  6  1  0
  9  8  1  0
 10  9  2  0
 11 10  1  0
 12 11  2  0
 13 12  1  0
 13 14  2  0
 14 15  1  0
 15 10  1  0
 15 16  2  0
 16  7  1  0
 17  1  1  0
 19 18  2  0
 19 17  1  0
 20 25  2  0
 21 20  1  0
 22 21  2  0
 22 23  1  0
 23 24  2  0
 24 25  1  0
 24 18  1  0
 26 22  1  0
 27 26  2  0
 28 27  1  0
 29 30  1  0
 29 28  2  0
 30 31  2  0
 31 26  1  0
  1 32  1  6
  2 33  1  0
  2 34  1  0
  3 35  1  1
  4 36  1  6
  5 37  1  0
  5 38  1  0
  6 39  1  1
  8 40  1  0
  9 41  1  0
 12 42  1  0
 13 43  1  0
 14 44  1  0
 16 45  1  0
 17 46  1  0
 17 47  1  0
 18 48  1  0
 19 49  1  0
 20 50  1  0
 21 51  1  0
 27 52  1  0
 28 53  1  0
 29 54  1  0
 30 55  1  0
 31 56  1  0
M  ISO  8  32  13  33  13  34  13  35  13  36  13  37  13  38  13  39  13
M  ISO  8  40  14  41  14  42  14  43  14  44  14  45  14  46   8  47   8
M  ISO  7  50  14  51  14  52  14  53  14  54  14  55  14  56  14
M  END
>  <minimizedAffinity>  (1) 
-6.84267426

>  <minimizedRMSD>  (1) 
0.909172058

$$$$
