
     RDKit          3D

 40 43  0  0  0  0  0  0  0  0999 V2000
   47.3100   33.0830   37.7290 C   0  0  0  0  0  0  0  0  0  0  0  0
   48.5120   33.6210   37.1870 C   0  0  0  0  0  0  0  0  0  0  0  0
   48.7860   33.2170   35.9090 C   0  0  0  0  0  0  0  0  0  0  0  0
   47.9820   32.3790   35.2270 C   0  0  0  0  0  0  0  0  0  0  0  0
   46.6210   32.0640   36.4870 S   0  0  0  0  0  0  0  0  0  0  0  0
   47.9750   31.7940   33.9570 C   0  0  0  0  0  0  0  0  0  0  0  0
   47.3790   30.5700   33.7390 C   0  0  0  0  0  0  0  0  0  0  0  0
   47.4270   30.0740   32.4320 C   0  0  0  0  0  0  0  0  0  0  0  0
   48.0450   30.7830   31.4110 C   0  0  0  0  0  0  0  0  0  0  0  0
   48.0860   30.2900   30.1410 N   0  0  0  0  0  0  0  0  0  0  0  0
   48.7020   31.0150   29.1660 C   0  0  0  0  0  0  0  0  0  0  0  0
   49.3060   32.2410   29.3590 C   0  0  0  0  0  0  0  0  0  0  0  0
   49.2620   32.7450   30.6640 C   0  0  0  0  0  0  0  0  0  0  0  0
   48.6420   32.0240   31.6630 C   0  0  0  0  0  0  0  0  0  0  0  0
   48.5840   32.5050   32.9780 C   0  0  0  0  0  0  0  0  0  0  0  0
   46.7550   33.3310   39.0710 C   0  0  0  0  0  0  0  0  0  0  0  0
   45.8300   32.4380   39.2370 O   0  0  0  0  0  0  0  0  0  0  0  0
   46.8740   34.1340   40.1410 O   0  0  0  0  0  0  0  0  0  0  0  0
   48.6360   35.6430   41.2580 O   0  0  0  0  0  0  0  0  0  0  0  0
   48.1700   34.2210   41.1980 P   0  0  2  0  0  0  0  0  0  0  0  0
   49.4210   33.2910   40.6020 O   0  0  0  0  0  0  0  0  0  0  0  0
   47.6780   33.6850   42.7640 O   0  0  0  0  0  0  0  0  0  0  0  0
   46.0650   35.4290   42.8610 C   0  0  0  0  0  0  0  0  0  0  0  0
   46.6330   34.3130   43.4340 C   0  0  0  0  0  0  0  0  0  0  0  0
   46.1330   33.8670   44.6600 C   0  0  0  0  0  0  0  0  0  0  0  0
   45.0960   34.5790   45.2200 N   0  0  0  0  0  0  0  0  0  0  0  0
   44.5740   35.6560   44.6300 C   0  0  0  0  0  0  0  0  0  0  0  0
   45.0500   36.0800   43.4640 N   0  0  0  0  0  0  0  0  0  0  0  0
   49.1656   34.3044   37.7490 H   0  0  0  0  0  0  0  0  0  0  0  0
   49.6976   33.5908   35.4199 H   0  0  0  0  0  0  0  0  0  0  0  0
   46.8906   30.0120   34.5515 H   0  0  0  0  0  0  0  0  0  0  0  0
   46.9650   29.1011   32.2084 H   0  0  0  0  0  0  0  0  0  0  0  0
   48.7193   30.5924   28.1505 H   0  0  0  0  0  0  0  0  0  0  0  0
   49.7920   32.7882   28.5378 H   0  0  0  0  0  0  0  0  0  0  0  0
   49.7225   33.7173   30.8932 H   0  0  0  0  0  0  0  0  0  0  0  0
   49.0407   33.4762   33.2192 H   0  0  0  0  0  0  0  0  0  0  0  0
   49.9359   32.9082   41.3560 H   0  0  0  0  0  0  0  0  0  0  0  0
   46.4455   35.7951   41.8960 H   0  0  0  0  0  0  0  0  0  0  0  0
   46.5519   32.9807   45.1590 H   0  0  0  0  0  0  0  0  0  0  0  0
   43.7452   36.1958   45.1114 H   0  0  0  0  0  0  0  0  0  0  0  0
  1 16  1  0
  2  1  2  0
  3  2  1  0
  4  3  2  0
  4  5  1  0
  5  1  1  0
  6  4  1  0
  7  6  2  0
  8  7  1  0
  9 14  1  0
  9  8  2  0
 10  9  1  0
 11 12  1  0
 11 10  2  0
 12 13  2  0
 13 14  1  0
 14 15  2  0
 15  6  1  0
 16 17  2  0
 16 18  1  0
 18 20  1  0
 20 19  2  0
 20 22  1  0
 21 20  1  0
 22 24  1  0
 23 24  2  0
 23 28  1  0
 24 25  1  0
 25 26  2  0
 27 26  1  0
 28 27  2  0
  2 29  1  0
  3 30  1  0
  7 31  1  0
  8 32  1  0
 11 33  1  0
 12 34  1  0
 13 35  1  0
 15 36  1  0
 21 37  1  0
 23 38  1  0
 25 39  1  0
 27 40  1  0
M  ISO  8  29  14  30  14  31  14  32  14  33  14  34  14  35  14  36  14
M  ISO  4  37   3  38  14  39  14  40  14
M  END
>  <minimizedAffinity>  (1) 
-6.6704793

>  <minimizedRMSD>  (1) 
1.29595256

$$$$
