
     RDKit          3D

 49 53  0  0  1  0  0  0  0  0999 V2000
   43.1930   34.9170   40.5520 C   0  0  0  0  0  0  0  0  0  0  0  0
   43.2150   35.1130   39.1930 C   0  0  0  0  0  0  0  0  0  0  0  0
   42.0860   35.0910   38.4170 C   0  0  0  0  0  0  0  0  0  0  0  0
   40.9120   34.8660   39.0300 N   0  0  0  0  0  0  0  0  0  0  0  0
   40.8720   34.6700   40.3720 C   0  0  0  0  0  0  0  0  0  0  0  0
   41.9890   34.6950   41.1220 N   0  0  0  0  0  0  0  0  0  0  0  0
   44.2990   34.4660   42.7230 C   0  0  1  0  0  0  0  0  0  0  0  0
   44.5670   35.9860   42.4630 C   0  0  0  0  0  0  0  0  0  0  0  0
   44.4630   34.9210   41.3750 C   0  0  2  0  0  0  0  0  0  0  0  0
   45.3520   33.8010   43.5180 C   0  0  0  0  0  0  0  0  0  0  0  0
   46.5570   33.4780   42.8550 C   0  0  0  0  0  0  0  0  0  0  0  0
   47.5650   32.8550   43.5810 C   0  0  0  0  0  0  0  0  0  0  0  0
   47.3360   32.5890   44.8940 N   0  0  0  0  0  0  0  0  0  0  0  0
   46.1820   32.9100   45.4840 C   0  0  0  0  0  0  0  0  0  0  0  0
   45.2180   33.5100   44.7780 N   0  0  0  0  0  0  0  0  0  0  0  0
   46.1300   32.5360   46.9390 C   0  0  0  0  0  0  0  0  0  0  0  0
   45.1310   33.2320   47.6050 F   0  0  0  0  0  0  0  0  0  0  0  0
   47.3380   32.9310   47.5570 F   0  0  0  0  0  0  0  0  0  0  0  0
   46.0390   31.1780   47.0700 F   0  0  0  0  0  0  0  0  0  0  0  0
   39.6070   34.3990   41.0870 C   0  0  0  0  0  0  0  0  0  0  0  0
   38.5410   33.8890   40.1840 C   0  0  0  0  0  0  0  0  0  0  0  0
   38.3590   32.4510   40.0980 C   0  0  0  0  0  0  0  0  0  0  0  0
   38.5480   31.9340   38.8190 C   0  0  0  0  0  0  0  0  0  0  0  0
   38.4410   30.6030   38.4930 C   0  0  0  0  0  0  0  0  0  0  0  0
   38.1320   29.6900   39.4600 C   0  0  0  0  0  0  0  0  0  0  0  0
   38.0050   28.3710   39.2400 N   0  0  0  0  0  0  0  0  0  0  0  0
   37.6950   27.4870   40.2310 C   0  0  0  0  0  0  0  0  0  0  0  0
   37.5040   27.9680   41.5010 C   0  0  0  0  0  0  0  0  0  0  0  0
   37.6130   29.3120   41.8150 C   0  0  0  0  0  0  0  0  0  0  0  0
   37.9340   30.1450   40.7430 C   0  0  0  0  0  0  0  0  0  0  0  0
   38.0510   31.4860   41.0260 C   0  0  0  0  0  0  0  0  0  0  0  0
   44.1836   35.2961   38.7049 H   0  0  0  0  0  0  0  0  0  0  0  0
   42.1390   35.2519   37.3301 H   0  0  0  0  0  0  0  0  0  0  0  0
   43.5271   33.8176   43.1631 H   0  0  0  0  0  0  0  0  0  0  0  0
   43.7685   36.7299   42.6006 H   0  0  0  0  0  0  0  0  0  0  0  0
   45.3006   36.7404   42.7835 H   0  0  0  0  0  0  0  0  0  0  0  0
   45.1258   34.6384   40.5439 H   0  0  0  0  0  0  0  0  0  0  0  0
   46.6941   33.7140   41.7894 H   0  0  0  0  0  0  0  0  0  0  0  0
   48.5202   32.5851   43.1069 H   0  0  0  0  0  0  0  0  0  0  0  0
   39.7970   33.6480   41.8680 H   0  0  0  0  0  0  0  0  0  0  0  0
   39.2555   35.3487   41.5165 H   0  0  0  0  0  0  0  0  0  0  0  0
   37.5882   34.3208   40.5242 H   0  0  0  0  0  0  0  0  0  0  0  0
   38.8641   34.1887   39.1761 H   0  0  0  0  0  0  0  0  0  0  0  0
   38.8004   32.6396   38.0138 H   0  0  0  0  0  0  0  0  0  0  0  0
   38.6039   30.2743   37.4560 H   0  0  0  0  0  0  0  0  0  0  0  0
   37.6003   26.4123   40.0165 H   0  0  0  0  0  0  0  0  0  0  0  0
   37.2541   27.2573   42.3025 H   0  0  0  0  0  0  0  0  0  0  0  0
   37.4579   29.6948   42.8345 H   0  0  0  0  0  0  0  0  0  0  0  0
   37.8869   31.8073   42.0652 H   0  0  0  0  0  0  0  0  0  0  0  0
  1  6  1  0
  1  9  1  0
  2  1  2  0
  3  4  2  0
  3  2  1  0
  4  5  1  0
  5 20  1  0
  5  6  2  0
  7 10  1  0
  8  7  1  0
  9  8  1  0
  9  7  1  0
 10 15  1  0
 11 10  2  0
 11 12  1  0
 12 13  2  0
 13 14  1  0
 14 16  1  0
 15 14  2  0
 16 19  1  0
 16 18  1  0
 16 17  1  0
 21 20  1  0
 22 21  1  0
 22 31  1  0
 23 22  2  0
 24 23  1  0
 24 25  2  0
 25 30  1  0
 26 25  1  0
 26 27  2  0
 27 28  1  0
 28 29  2  0
 30 31  2  0
 30 29  1  0
  2 32  1  0
  3 33  1  0
  7 34  1  6
  8 35  1  0
  8 36  1  0
  9 37  1  6
 11 38  1  0
 12 39  1  0
 20 40  1  0
 20 41  1  0
 21 42  1  0
 21 43  1  0
 23 44  1  0
 24 45  1  0
 27 46  1  0
 28 47  1  0
 29 48  1  0
 31 49  1  0
M  ISO  8  32  14  33  14  34  13  35  13  36  13  37  13  38  14  39  14
M  ISO  8  40   8  41   8  42   8  43   8  44  14  45  14  46  14  47  14
M  ISO  2  48  14  49  14
M  END
>  <minimizedAffinity>  (1) 
-6.66864824

>  <minimizedRMSD>  (1) 
1.84181714

$$$$
