
     RDKit          3D

 50 52  0  0  1  0  0  0  0  0999 V2000
   46.7170   34.3440   43.4800 N   0  0  0  0  0  0  0  0  0  0  0  0
   46.4680   34.9530   42.2310 C   0  0  0  0  0  0  0  0  0  0  0  0
   44.9980   34.9960   41.8460 C   0  0  0  0  0  0  0  0  0  0  0  0
   44.0620   35.1920   43.0140 C   0  0  0  0  0  0  0  0  0  0  0  0
   44.8340   35.4070   44.3030 C   0  0  0  0  0  0  0  0  0  0  0  0
   45.7280   34.1030   44.4000 C   0  0  2  0  0  0  0  0  0  0  0  0
   47.9100   33.5400   43.5160 C   0  0  0  0  0  0  0  0  0  0  0  0
   47.6710   32.3270   42.6900 C   0  0  0  0  0  0  0  0  0  0  0  0
   51.2100   32.1790   41.4380 C   0  0  0  0  0  0  0  0  0  0  0  0
   50.0920   32.3860   42.2680 C   0  0  0  0  0  0  0  0  0  0  0  0
   48.8360   32.1010   41.7980 C   0  0  0  0  0  0  0  0  0  0  0  0
   48.7370   31.6290   40.5510 N   0  0  0  0  0  0  0  0  0  0  0  0
   49.7930   31.4290   39.7550 C   0  0  0  0  0  0  0  0  0  0  0  0
   51.0450   31.7000   40.1860 N   0  0  0  0  0  0  0  0  0  0  0  0
   46.1580   34.1830   45.7100 O   0  0  0  0  0  0  0  0  0  0  0  0
   45.6030   31.5780   45.5940 O   0  0  0  0  0  0  0  0  0  0  0  0
   46.0500   32.7190   46.5190 P   0  0  2  0  0  0  0  0  0  0  0  0
   44.7290   32.8940   47.6090 O   0  0  0  0  0  0  0  0  0  0  0  0
   47.4030   32.3380   47.4100 O   0  0  0  0  0  0  0  0  0  0  0  0
   47.6820   30.9890   47.2500 C   0  0  0  0  0  0  0  0  0  0  0  0
   48.5280   30.5840   48.3580 N   0  0  0  0  0  0  0  0  0  0  0  0
   49.0650   31.3850   49.2950 C   0  0  0  0  0  0  0  0  0  0  0  0
   49.8590   30.8580   50.3000 C   0  0  0  0  0  0  0  0  0  0  0  0
   50.1200   29.4940   50.3620 C   0  0  0  0  0  0  0  0  0  0  0  0
   50.8380   29.0060   51.2680 O   0  0  0  0  0  0  0  0  0  0  0  0
   49.5660   28.7350   49.4070 N   0  0  0  0  0  0  0  0  0  0  0  0
   48.7950   29.2550   48.4330 C   0  0  0  0  0  0  0  0  0  0  0  0
   48.3460   28.4250   47.6120 O   0  0  0  0  0  0  0  0  0  0  0  0
   46.8462   35.9853   42.2680 H   0  0  0  0  0  0  0  0  0  0  0  0
   46.9780   34.3419   41.4717 H   0  0  0  0  0  0  0  0  0  0  0  0
   44.8495   35.8270   41.1407 H   0  0  0  0  0  0  0  0  0  0  0  0
   44.7560   34.0175   41.4055 H   0  0  0  0  0  0  0  0  0  0  0  0
   43.4290   36.0712   42.8235 H   0  0  0  0  0  0  0  0  0  0  0  0
   43.4452   34.2877   43.1229 H   0  0  0  0  0  0  0  0  0  0  0  0
   45.4577   36.3113   44.2449 H   0  0  0  0  0  0  0  0  0  0  0  0
   44.1853   35.5558   45.1788 H   0  0  0  0  0  0  0  0  0  0  0  0
   45.2904   33.1144   44.1972 H   0  0  0  0  0  0  0  0  0  0  0  0
   48.7569   34.1099   43.1062 H   0  0  0  0  0  0  0  0  0  0  0  0
   48.1489   33.2564   44.5516 H   0  0  0  0  0  0  0  0  0  0  0  0
   47.5377   31.4554   43.3477 H   0  0  0  0  0  0  0  0  0  0  0  0
   46.7649   32.4685   42.0826 H   0  0  0  0  0  0  0  0  0  0  0  0
   52.2197   32.4078   41.8097 H   0  0  0  0  0  0  0  0  0  0  0  0
   50.2254   32.7744   43.2884 H   0  0  0  0  0  0  0  0  0  0  0  0
   49.6408   31.0394   38.7376 H   0  0  0  0  0  0  0  0  0  0  0  0
   45.0616   32.8499   48.5404 H   0  0  0  0  0  0  0  0  0  0  0  0
   46.7476   30.4086   47.2592 H   0  0  0  0  0  0  0  0  0  0  0  0
   48.1883   30.8093   46.2901 H   0  0  0  0  0  0  0  0  0  0  0  0
   48.8722   32.4675   49.2631 H   0  0  0  0  0  0  0  0  0  0  0  0
   50.2889   31.5278   51.0594 H   0  0  0  0  0  0  0  0  0  0  0  0
   49.7356   27.7191   49.4182 H   0  0  0  0  0  0  0  0  0  0  0  0
  1  7  1  0
  1  6  1  0
  2  1  1  0
  3  2  1  0
  3  4  1  0
  4  5  1  0
  5  6  1  0
  6 15  1  0
  8  7  1  0
  9 10  2  0
 11 10  1  0
 11  8  1  0
 12 11  2  0
 13 14  2  0
 13 12  1  0
 14  9  1  0
 15 17  1  0
 17 16  2  0
 17 19  1  0
 17 18  1  0
 20 19  1  0
 20 21  1  0
 21 27  1  0
 21 22  1  0
 22 23  2  0
 23 24  1  0
 24 25  2  0
 26 24  1  0
 27 26  1  0
 28 27  2  0
  2 29  1  0
  2 30  1  0
  3 31  1  0
  3 32  1  0
  4 33  1  0
  4 34  1  0
  5 35  1  0
  5 36  1  0
  6 37  1  6
  7 38  1  0
  7 39  1  0
  8 40  1  0
  8 41  1  0
  9 42  1  0
 10 43  1  0
 13 44  1  0
 18 45  1  0
 20 46  1  0
 20 47  1  0
 22 48  1  0
 23 49  1  0
 26 50  1  0
M  ISO  8  29  13  30  13  31  13  32  13  33  13  34  13  35  13  36  13
M  ISO  8  37  13  38   8  39   8  40   8  41   8  42  14  43  14  44  14
M  ISO  6  45   3  46   8  47   8  48  14  49  14  50   9
M  END
>  <minimizedAffinity>  (1) 
-5.43372011

>  <minimizedRMSD>  (1) 
3.11347079

$$$$
