
     RDKit          3D

 44 46  0  0  1  0  0  0  0  0999 V2000
   42.3450   30.4200   42.4500 C   0  0  2  0  0  0  0  0  0  0  0  0
   41.5090   29.5240   43.2740 C   0  0  0  0  0  0  0  0  0  0  0  0
   40.0590   29.8140   43.0670 C   0  0  0  0  0  0  0  0  0  0  0  0
   39.6210   29.4820   41.7880 O   0  0  0  0  0  0  0  0  0  0  0  0
   40.6510   29.5560   40.8730 C   0  0  0  0  0  0  0  0  0  0  0  0
   41.5690   30.7180   41.1810 C   0  0  1  0  0  0  0  0  0  0  0  0
   41.0080   31.9920   41.0090 N   0  0  0  0  0  0  0  0  0  0  0  0
   40.4250   32.8220   41.8880 C   0  0  0  0  0  0  0  0  0  0  0  0
   39.8960   34.0600   41.6490 C   0  0  0  0  0  0  0  0  0  0  0  0
   39.9580   34.5360   40.3620 C   0  0  0  0  0  0  0  0  0  0  0  0
   39.4990   35.6530   40.0650 O   0  0  0  0  0  0  0  0  0  0  0  0
   40.5390   33.7110   39.4790 N   0  0  0  0  0  0  0  0  0  0  0  0
   41.0540   32.4940   39.7330 C   0  0  0  0  0  0  0  0  0  0  0  0
   41.5810   31.8220   38.7790 O   0  0  0  0  0  0  0  0  0  0  0  0
   43.6020   30.0170   42.1970 O   0  0  0  0  0  0  0  0  0  0  0  0
   46.1840   30.3460   42.5300 O   0  0  0  0  0  0  0  0  0  0  0  0
   44.8420   30.7370   43.0170 P   0  0  2  0  0  0  0  0  0  0  0  0
   44.7510   30.2680   44.6530 O   0  0  0  0  0  0  0  0  0  0  0  0
   44.6690   32.4520   42.9850 O   0  0  0  0  0  0  0  0  0  0  0  0
   45.7280   34.0550   41.6160 C   0  0  0  0  0  0  0  0  0  0  0  0
   45.7490   33.2810   42.7530 C   0  0  0  0  0  0  0  0  0  0  0  0
   46.8670   33.3740   43.6210 C   0  0  0  0  0  0  0  0  0  0  0  0
   47.8510   34.2280   43.2690 N   0  0  0  0  0  0  0  0  0  0  0  0
   47.7960   34.9560   42.1680 C   0  0  0  0  0  0  0  0  0  0  0  0
   46.7230   34.8610   41.3430 N   0  0  0  0  0  0  0  0  0  0  0  0
   43.6270   35.0190   40.6880 C   0  0  0  0  0  0  0  0  0  0  0  0
   43.1940   35.4010   41.8390 O   0  0  0  0  0  0  0  0  0  0  0  0
   44.9030   34.3200   40.4910 N   0  0  0  0  0  0  0  0  0  0  0  0
   42.5268   31.3266   43.0459 H   0  0  0  0  0  0  0  0  0  0  0  0
   41.7121   28.4804   42.9918 H   0  0  0  0  0  0  0  0  0  0  0  0
   41.7540   29.6883   44.3337 H   0  0  0  0  0  0  0  0  0  0  0  0
   39.4766   29.2357   43.7994 H   0  0  0  0  0  0  0  0  0  0  0  0
   39.9155   30.8969   43.1962 H   0  0  0  0  0  0  0  0  0  0  0  0
   40.2285   29.6888   39.8661 H   0  0  0  0  0  0  0  0  0  0  0  0
   41.2346   28.6252   40.9271 H   0  0  0  0  0  0  0  0  0  0  0  0
   42.3328   30.8049   40.3942 H   0  0  0  0  0  0  0  0  0  0  0  0
   40.3656   32.4629   42.9260 H   0  0  0  0  0  0  0  0  0  0  0  0
   39.4387   34.6516   42.4558 H   0  0  0  0  0  0  0  0  0  0  0  0
   40.5971   34.0431   38.5057 H   0  0  0  0  0  0  0  0  0  0  0  0
   44.9040   31.0567   45.2314 H   0  0  0  0  0  0  0  0  0  0  0  0
   46.9293   32.7755   44.5418 H   0  0  0  0  0  0  0  0  0  0  0  0
   48.6210   35.6399   41.9198 H   0  0  0  0  0  0  0  0  0  0  0  0
   43.0068   35.2279   39.8038 H   0  0  0  0  0  0  0  0  0  0  0  0
   45.1961   34.0255   39.5485 H   0  0  0  0  0  0  0  0  0  0  0  0
  1  2  1  0
  3  2  1  0
  4  3  1  0
  5  6  1  0
  5  4  1  0
  6  1  1  0
  7  6  1  0
  7  8  1  0
  9  8  2  0
 10  9  1  0
 11 10  2  0
 12 13  1  0
 12 10  1  0
 13  7  1  0
 14 13  2  0
 15  1  1  0
 15 17  1  0
 17 16  2  0
 17 18  1  0
 19 17  1  0
 20 21  2  0
 21 19  1  0
 21 22  1  0
 23 22  2  0
 24 23  1  0
 25 20  1  0
 25 24  2  0
 26 27  2  0
 28 26  1  0
 28 20  1  0
  1 29  1  1
  2 30  1  0
  2 31  1  0
  3 32  1  0
  3 33  1  0
  5 34  1  0
  5 35  1  0
  6 36  1  6
  8 37  1  0
  9 38  1  0
 12 39  1  0
 18 40  1  0
 22 41  1  0
 24 42  1  0
 26 43  1  0
 28 44  1  0
M  ISO  8  29  13  30  13  31  13  32  13  33  13  34  13  35  13  36  13
M  ISO  7  37  14  38  14  39   9  40   3  41  14  42  14  43   6
M  END
>  <minimizedAffinity>  (1) 
-5.03380299

>  <minimizedRMSD>  (1) 
6.13705587

$$$$
