
     RDKit          3D

 21 22  0  0  0  0  0  0  0  0999 V2000
   44.8380   35.0350   45.5210 C   0  0  0  0  0  0  0  0  0  0  0  0
   44.4710   36.0860   44.6400 C   0  0  0  0  0  0  0  0  0  0  0  0
   45.0950   36.0680   43.3620 C   0  0  0  0  0  0  0  0  0  0  0  0
   45.9720   35.0890   43.0650 N   0  0  0  0  0  0  0  0  0  0  0  0
   46.2740   34.1170   43.9540 C   0  0  0  0  0  0  0  0  0  0  0  0
   45.7110   34.0970   45.1630 N   0  0  0  0  0  0  0  0  0  0  0  0
   47.1930   33.0510   43.7030 N   0  0  0  0  0  0  0  0  0  0  0  0
   46.9000   31.9510   44.4560 C   0  0  0  0  0  0  0  0  0  0  0  0
   47.7220   30.8350   44.3080 C   0  0  0  0  0  0  0  0  0  0  0  0
   48.7660   30.9250   43.4150 C   0  0  0  0  0  0  0  0  0  0  0  0
   49.4830   29.8790   43.3200 O   0  0  0  0  0  0  0  0  0  0  0  0
   49.0360   32.0230   42.6820 N   0  0  0  0  0  0  0  0  0  0  0  0
   48.2270   33.0870   42.8450 C   0  0  0  0  0  0  0  0  0  0  0  0
   48.3790   34.1610   42.2190 O   0  0  0  0  0  0  0  0  0  0  0  0
   44.2400   35.0440   46.7560 O   0  0  0  0  0  0  0  0  0  0  0  0
   43.7496   36.8650   44.9276 H   0  0  0  0  0  0  0  0  0  0  0  0
   44.8633   36.8476   42.6214 H   0  0  0  0  0  0  0  0  0  0  0  0
   46.0485   31.9454   45.1524 H   0  0  0  0  0  0  0  0  0  0  0  0
   47.5429   29.9152   44.8841 H   0  0  0  0  0  0  0  0  0  0  0  0
   49.8283   32.0474   42.0243 H   0  0  0  0  0  0  0  0  0  0  0  0
   44.4548   34.3373   47.4152 H   0  0  0  0  0  0  0  0  0  0  0  0
  1 15  1  0
  2  1  2  0
  3  2  1  0
  4  3  2  0
  4  5  1  0
  5  6  2  0
  6  1  1  0
  7  5  1  0
  7  8  1  0
  9  8  2  0
 10  9  1  0
 11 10  2  0
 12 13  1  0
 12 10  1  0
 13  7  1  0
 14 13  2  0
  2 16  1  0
  3 17  1  0
  8 18  1  0
  9 19  1  0
 12 20  1  0
 15 21  1  0
M  ISO  6  16  14  17  14  18  14  19  14  20   9  21   3
M  END
>  <minimizedAffinity>  (1) 
-5.00652218

>  <minimizedRMSD>  (1) 
5.16184664

$$$$
