
     RDKit          3D

 23 24  0  0  0  0  0  0  0  0999 V2000
   45.9280   31.0320   46.3460 C   0  0  0  0  0  0  0  0  0  0  0  0
   46.9040   30.8970   47.4090 N   0  0  0  0  0  0  0  0  0  0  0  0
   47.9960   30.1370   47.1830 C   0  0  0  0  0  0  0  0  0  0  0  0
   48.9470   29.9960   48.1970 C   0  0  0  0  0  0  0  0  0  0  0  0
   48.7460   30.6440   49.4210 C   0  0  0  0  0  0  0  0  0  0  0  0
   49.5590   30.5510   50.3510 O   0  0  0  0  0  0  0  0  0  0  0  0
   47.6230   31.3620   49.5030 N   0  0  0  0  0  0  0  0  0  0  0  0
   46.6730   31.5410   48.5780 C   0  0  0  0  0  0  0  0  0  0  0  0
   45.6580   32.2470   48.7880 O   0  0  0  0  0  0  0  0  0  0  0  0
   45.9000   34.3090   44.5740 C   0  0  0  0  0  0  0  0  0  0  0  0
   46.9270   34.1380   43.6250 C   0  0  0  0  0  0  0  0  0  0  0  0
   47.5800   32.9140   43.6340 C   0  0  0  0  0  0  0  0  0  0  0  0
   47.2290   31.9500   44.5210 N   0  0  0  0  0  0  0  0  0  0  0  0
   46.2230   32.1650   45.4250 C   0  0  0  0  0  0  0  0  0  0  0  0
   45.5840   33.3380   45.4280 N   0  0  0  0  0  0  0  0  0  0  0  0
   45.9147   30.0999   45.7620 H   0  0  0  0  0  0  0  0  0  0  0  0
   44.9549   31.2357   46.8168 H   0  0  0  0  0  0  0  0  0  0  0  0
   48.1355   29.6355   46.2140 H   0  0  0  0  0  0  0  0  0  0  0  0
   49.8449   29.3816   48.0347 H   0  0  0  0  0  0  0  0  0  0  0  0
   47.4670   31.8433   50.4001 H   0  0  0  0  0  0  0  0  0  0  0  0
   45.3499   35.2609   44.6099 H   0  0  0  0  0  0  0  0  0  0  0  0
   47.1969   34.9330   42.9143 H   0  0  0  0  0  0  0  0  0  0  0  0
   48.3902   32.7236   42.9148 H   0  0  0  0  0  0  0  0  0  0  0  0
  1  2  1  0
  2  8  1  0
  3  2  1  0
  3  4  2  0
  4  5  1  0
  5  7  1  0
  5  6  2  0
  8  9  2  0
  8  7  1  0
 10 15  2  0
 11 12  2  0
 11 10  1  0
 12 13  1  0
 13 14  2  0
 14 15  1  0
 14  1  1  0
  1 16  1  0
  1 17  1  0
  3 18  1  0
  4 19  1  0
  7 20  1  0
 10 21  1  0
 11 22  1  0
 12 23  1  0
M  ISO  8  16   8  17   8  18  14  19  14  20   9  21  14  22  14  23  14
M  END
>  <minimizedAffinity>  (1) 
-4.10433006

>  <minimizedRMSD>  (1) 
2.98511052

$$$$
