
     RDKit          3D

 27 28  0  0  0  0  0  0  0  0999 V2000
   45.5340   33.4190   42.1700 C   0  0  0  0  0  0  0  0  0  0  0  0
   46.7890   33.8780   41.7180 C   0  0  0  0  0  0  0  0  0  0  0  0
   47.8070   33.9820   42.6530 C   0  0  0  0  0  0  0  0  0  0  0  0
   47.5560   33.6400   43.9530 N   0  0  0  0  0  0  0  0  0  0  0  0
   46.3510   33.2060   44.3470 C   0  0  0  0  0  0  0  0  0  0  0  0
   45.3730   33.1050   43.4540 N   0  0  0  0  0  0  0  0  0  0  0  0
   46.1540   32.8650   45.7160 N   0  0  0  0  0  0  0  0  0  0  0  0
   46.7220   31.7550   46.2330 C   0  0  0  0  0  0  0  0  0  0  0  0
   46.4750   31.5020   47.5770 C   0  0  0  0  0  0  0  0  0  0  0  0
   45.6890   32.3580   48.3080 C   0  0  0  0  0  0  0  0  0  0  0  0
   45.4740   32.1150   49.5230 O   0  0  0  0  0  0  0  0  0  0  0  0
   45.1320   33.4600   47.7680 N   0  0  0  0  0  0  0  0  0  0  0  0
   45.3890   33.6780   46.4700 C   0  0  0  0  0  0  0  0  0  0  0  0
   44.8680   34.7090   45.9660 O   0  0  0  0  0  0  0  0  0  0  0  0
   47.0250   34.2360   40.3270 C   0  0  0  0  0  0  0  0  0  0  0  0
   48.1480   34.0000   39.6570 C   0  0  0  0  0  0  0  0  0  0  0  0
   48.2510   34.4270   38.2160 C   0  0  0  0  0  0  0  0  0  0  0  0
   44.6940   33.3211   41.4665 H   0  0  0  0  0  0  0  0  0  0  0  0
   48.8046   34.3353   42.3529 H   0  0  0  0  0  0  0  0  0  0  0  0
   47.3471   31.0863   45.6230 H   0  0  0  0  0  0  0  0  0  0  0  0
   46.9106   30.6131   48.0566 H   0  0  0  0  0  0  0  0  0  0  0  0
   44.5424   34.0985   48.3208 H   0  0  0  0  0  0  0  0  0  0  0  0
   46.2099   34.7415   39.7883 H   0  0  0  0  0  0  0  0  0  0  0  0
   48.9938   33.4980   40.1495 H   0  0  0  0  0  0  0  0  0  0  0  0
   48.5087   35.4953   38.1677 H   0  0  0  0  0  0  0  0  0  0  0  0
   49.0329   33.8381   37.7141 H   0  0  0  0  0  0  0  0  0  0  0  0
   47.2867   34.2594   37.7141 H   0  0  0  0  0  0  0  0  0  0  0  0
  1  6  2  0
  2  1  1  0
  2  3  2  0
  3  4  1  0
  4  5  2  0
  5  7  1  0
  6  5  1  0
  7  8  1  0
  7 13  1  0
  8  9  2  0
  9 10  1  0
 10 11  2  0
 12 10  1  0
 13 12  1  0
 14 13  2  0
 15  2  1  0
 16 15  2  0
 17 16  1  0
  1 18  1  0
  3 19  1  0
  8 20  1  0
  9 21  1  0
 12 22  1  0
 15 23  1  0
 16 24  1  0
 17 25  1  0
 17 26  1  0
 17 27  1  0
M  ISO  8  18  14  19  14  20  14  21  14  22   9  25   8  26   8  27   8
M  END
>  <minimizedAffinity>  (1) 
-5.41537762

>  <minimizedRMSD>  (1) 
3.04152656

$$$$
