
     RDKit          3D

 43 47  0  0  1  0  0  0  0  0999 V2000
   46.5740   32.4170   45.6920 C   0  0  1  0  0  0  0  0  0  0  0  0
   46.9920   32.7250   47.0670 C   0  0  0  0  0  0  0  0  0  0  0  0
   45.6070   32.0570   46.7080 C   0  0  2  0  0  0  0  0  0  0  0  0
   45.3250   30.6930   47.1650 C   0  0  0  0  0  0  0  0  0  0  0  0
   45.2120   30.2520   48.4470 C   0  0  0  0  0  0  0  0  0  0  0  0
   45.0720   28.9300   48.8420 C   0  0  0  0  0  0  0  0  0  0  0  0
   45.0450   27.9710   47.8180 C   0  0  0  0  0  0  0  0  0  0  0  0
   45.1560   28.3980   46.4950 C   0  0  0  0  0  0  0  0  0  0  0  0
   45.0620   27.4240   45.5210 C   0  0  0  0  0  0  0  0  0  0  0  0
   45.0940   27.8070   44.1810 C   0  0  0  0  0  0  0  0  0  0  0  0
   45.2150   29.1370   43.8260 C   0  0  0  0  0  0  0  0  0  0  0  0
   45.3070   30.0570   44.8450 C   0  0  0  0  0  0  0  0  0  0  0  0
   45.2880   29.7280   46.1900 C   0  0  0  0  0  0  0  0  0  0  0  0
   45.0310   35.4230   44.2030 C   0  0  0  0  0  0  0  0  0  0  0  0
   45.6260   35.4530   42.8930 C   0  0  0  0  0  0  0  0  0  0  0  0
   46.5670   34.4260   42.5650 C   0  0  0  0  0  0  0  0  0  0  0  0
   46.8570   33.4800   43.4840 N   0  0  0  0  0  0  0  0  0  0  0  0
   46.2500   33.5070   44.7230 C   0  0  0  0  0  0  0  0  0  0  0  0
   45.3710   34.4440   45.0660 N   0  0  0  0  0  0  0  0  0  0  0  0
   47.1630   34.4440   41.2750 N   0  0  0  0  0  0  0  0  0  0  0  0
   46.5260   33.7060   40.3450 C   0  0  0  0  0  0  0  0  0  0  0  0
   47.0120   33.6440   39.0530 C   0  0  0  0  0  0  0  0  0  0  0  0
   48.1580   34.3430   38.7080 C   0  0  0  0  0  0  0  0  0  0  0  0
   48.6110   34.2970   37.5330 O   0  0  0  0  0  0  0  0  0  0  0  0
   48.7520   35.0650   39.6790 N   0  0  0  0  0  0  0  0  0  0  0  0
   48.2750   35.1230   40.9410 C   0  0  0  0  0  0  0  0  0  0  0  0
   48.8210   35.7940   41.8570 O   0  0  0  0  0  0  0  0  0  0  0  0
   47.0642   31.8531   44.8847 H   0  0  0  0  0  0  0  0  0  0  0  0
   47.7855   32.1397   47.5547 H   0  0  0  0  0  0  0  0  0  0  0  0
   47.3287   33.6159   47.6174 H   0  0  0  0  0  0  0  0  0  0  0  0
   44.5341   32.2623   46.8369 H   0  0  0  0  0  0  0  0  0  0  0  0
   45.2336   31.0123   49.2417 H   0  0  0  0  0  0  0  0  0  0  0  0
   44.9866   28.6481   49.9018 H   0  0  0  0  0  0  0  0  0  0  0  0
   44.9382   26.9020   48.0544 H   0  0  0  0  0  0  0  0  0  0  0  0
   44.9635   26.3639   45.7976 H   0  0  0  0  0  0  0  0  0  0  0  0
   45.0220   27.0402   43.3956 H   0  0  0  0  0  0  0  0  0  0  0  0
   45.2369   29.4478   42.7710 H   0  0  0  0  0  0  0  0  0  0  0  0
   45.4014   31.1191   44.5746 H   0  0  0  0  0  0  0  0  0  0  0  0
   44.3037   36.1935   44.4985 H   0  0  0  0  0  0  0  0  0  0  0  0
   45.3663   36.2388   42.1684 H   0  0  0  0  0  0  0  0  0  0  0  0
   45.6157   33.1508   40.6153 H   0  0  0  0  0  0  0  0  0  0  0  0
   46.4889   33.0393   38.2976 H   0  0  0  0  0  0  0  0  0  0  0  0
   49.6050   35.5944   39.4488 H   0  0  0  0  0  0  0  0  0  0  0  0
  1  3  1  0
  1  2  1  0
  3  2  1  0
  3  4  1  0
  4  5  2  0
  5  6  1  0
  7  6  2  0
  8  7  1  0
  9  8  2  0
 10  9  1  0
 11 10  2  0
 11 12  1  0
 12 13  2  0
 13  8  1  0
 13  4  1  0
 14 19  2  0
 15 14  1  0
 16 15  2  0
 16 17  1  0
 17 18  2  0
 18 19  1  0
 18  1  1  0
 20 16  1  0
 21 20  1  0
 22 21  2  0
 23 22  1  0
 23 25  1  0
 24 23  2  0
 25 26  1  0
 26 20  1  0
 26 27  2  0
  1 28  1  6
  2 29  1  0
  2 30  1  0
  3 31  1  6
  5 32  1  0
  6 33  1  0
  7 34  1  0
  9 35  1  0
 10 36  1  0
 11 37  1  0
 12 38  1  0
 14 39  1  0
 15 40  1  0
 21 41  1  0
 22 42  1  0
 25 43  1  0
M  ISO  8  28  13  29  13  30  13  31  13  32  14  33  14  34  14  35  14
M  ISO  8  36  14  37  14  38  14  39  14  40  14  41  14  42  14  43   9
M  END
>  <minimizedAffinity>  (1) 
-6.34766006

>  <minimizedRMSD>  (1) 
0.922214031

$$$$
