
     RDKit          3D

 31 32  0  0  0  0  0  0  0  0999 V2000
   48.0880   32.6910   41.7000 O   0  0  0  0  0  0  0  0  0  0  0  0
   47.0780   33.7900   41.3600 P   0  0  2  0  0  0  0  0  0  0  0  0
   45.5970   33.4580   42.1640 O   0  0  0  0  0  0  0  0  0  0  0  0
   44.4040   35.8480   44.5810 C   0  0  0  0  0  0  0  0  0  0  0  0
   44.6860   35.2420   43.3380 C   0  0  0  0  0  0  0  0  0  0  0  0
   45.3310   34.0080   43.3720 C   0  0  0  0  0  0  0  0  0  0  0  0
   45.6470   33.4550   44.5610 N   0  0  0  0  0  0  0  0  0  0  0  0
   45.3620   34.0620   45.7280 C   0  0  0  0  0  0  0  0  0  0  0  0
   44.7430   35.2550   45.7430 N   0  0  0  0  0  0  0  0  0  0  0  0
   46.6610   33.8270   39.7490 O   0  0  0  0  0  0  0  0  0  0  0  0
   45.6010   33.3020   39.1210 C   0  0  0  0  0  0  0  0  0  0  0  0
   45.9490   32.2320   38.3610 O   0  0  0  0  0  0  0  0  0  0  0  0
   42.3160   32.2930   37.6460 N   0  0  0  0  0  0  0  0  0  0  0  0
   43.6250   32.3250   37.8970 C   0  0  0  0  0  0  0  0  0  0  0  0
   44.2080   33.1880   38.7520 C   0  0  0  0  0  0  0  0  0  0  0  0
   43.1850   34.0080   39.2950 C   0  0  0  0  0  0  0  0  0  0  0  0
   43.5510   34.9110   40.1520 O   0  0  0  0  0  0  0  0  0  0  0  0
   41.8680   34.0820   39.1350 N   0  0  0  0  0  0  0  0  0  0  0  0
   41.5180   33.1530   38.2620 C   0  0  0  0  0  0  0  0  0  0  0  0
   40.3000   33.0200   37.9380 O   0  0  0  0  0  0  0  0  0  0  0  0
   47.6190   35.2300   41.9650 O   0  0  0  0  0  0  0  0  0  0  0  0
   48.8520   35.5570   41.4280 C   0  0  0  0  0  0  0  0  0  0  0  0
   49.2440   36.8430   41.7790 F   0  0  0  0  0  0  0  0  0  0  0  0
   49.7810   34.6240   41.7680 F   0  0  0  0  0  0  0  0  0  0  0  0
   48.6950   35.5550   40.0540 F   0  0  0  0  0  0  0  0  0  0  0  0
   43.8973   36.8241   44.6019 H   0  0  0  0  0  0  0  0  0  0  0  0
   44.4095   35.7215   42.3874 H   0  0  0  0  0  0  0  0  0  0  0  0
   45.6377   33.5781   46.6766 H   0  0  0  0  0  0  0  0  0  0  0  0
   41.9296   31.6078   36.9811 H   0  0  0  0  0  0  0  0  0  0  0  0
   44.2687   31.6024   37.3739 H   0  0  0  0  0  0  0  0  0  0  0  0
   41.2344   34.7435   39.6060 H   0  0  0  0  0  0  0  0  0  0  0  0
  2  1  2  0
  2 21  1  0
  2  3  1  0
  3  6  1  0
  4  9  2  0
  5  6  2  0
  5  4  1  0
  6  7  1  0
  7  8  2  0
  8  9  1  0
 10  2  1  0
 11 10  1  0
 12 11  2  0
 13 14  1  0
 13 19  1  0
 14 15  2  0
 15 11  1  0
 15 16  1  0
 16 17  2  0
 18 16  1  0
 19 18  1  0
 20 19  2  0
 22 24  1  0
 22 23  1  0
 22 21  1  0
 25 22  1  0
  4 26  1  0
  5 27  1  0
  8 28  1  0
 13 29  1  0
 14 30  1  0
 18 31  1  0
M  ISO  6  26  14  27  14  28  14  29   9  30  14  31   9
M  END
>  <minimizedAffinity>  (1) 
-5.72180557

>  <minimizedRMSD>  (1) 
2.22467661

$$$$
