
     RDKit          3D

 49 52  0  0  0  0  0  0  0  0999 V2000
   45.0570   33.4490   47.7570 C   0  0  0  0  0  0  0  0  0  0  0  0
   45.9030   32.3850   48.3780 C   0  0  0  0  0  0  0  0  0  0  0  0
   45.4940   31.4280   49.2690 C   0  0  0  0  0  0  0  0  0  0  0  0
   46.5690   30.7000   49.5520 N   0  0  0  0  0  0  0  0  0  0  0  0
   47.6400   31.1360   48.8940 C   0  0  0  0  0  0  0  0  0  0  0  0
   47.2140   32.1960   48.1570 N   0  0  0  0  0  0  0  0  0  0  0  0
   48.9890   30.6950   48.8660 N   0  0  0  0  0  0  0  0  0  0  0  0
   49.9270   31.2400   49.8490 C   0  0  0  0  0  0  0  0  0  0  0  0
   50.1060   30.1230   50.8730 C   0  0  0  0  0  0  0  0  0  0  0  0
   50.3820   28.8140   50.1710 C   0  0  0  0  0  0  0  0  0  0  0  0
   50.8100   29.0930   48.7370 C   0  0  0  0  0  0  0  0  0  0  0  0
   49.6640   29.7520   48.0010 C   0  0  0  0  0  0  0  0  0  0  0  0
   44.9930   34.6430   45.6100 C   0  0  0  0  0  0  0  0  0  0  0  0
   45.3500   33.5860   46.3240 C   0  0  0  0  0  0  0  0  0  0  0  0
   45.3470   34.6560   44.1840 C   0  0  0  0  0  0  0  0  0  0  0  0
   44.5410   35.3110   43.2310 C   0  0  0  0  0  0  0  0  0  0  0  0
   44.9540   35.2700   41.9100 C   0  0  0  0  0  0  0  0  0  0  0  0
   46.0790   34.6230   41.5860 N   0  0  0  0  0  0  0  0  0  0  0  0
   46.8450   33.9960   42.5190 C   0  0  0  0  0  0  0  0  0  0  0  0
   46.4680   34.0230   43.7850 N   0  0  0  0  0  0  0  0  0  0  0  0
   48.0240   33.3390   42.0550 N   0  0  0  0  0  0  0  0  0  0  0  0
   48.6590   32.4020   42.7810 C   0  0  0  0  0  0  0  0  0  0  0  0
   49.8100   31.7510   42.3430 C   0  0  0  0  0  0  0  0  0  0  0  0
   50.2500   32.1490   41.0990 C   0  0  0  0  0  0  0  0  0  0  0  0
   51.3000   31.5990   40.6280 O   0  0  0  0  0  0  0  0  0  0  0  0
   49.6630   33.0770   40.3280 N   0  0  0  0  0  0  0  0  0  0  0  0
   48.5590   33.6330   40.8600 C   0  0  0  0  0  0  0  0  0  0  0  0
   47.9640   34.5190   40.1670 O   0  0  0  0  0  0  0  0  0  0  0  0
   43.9967   33.1849   47.8836 H   0  0  0  0  0  0  0  0  0  0  0  0
   45.2780   34.4058   48.2526 H   0  0  0  0  0  0  0  0  0  0  0  0
   44.4790   31.2899   49.6698 H   0  0  0  0  0  0  0  0  0  0  0  0
   46.5727   29.8989   50.1994 H   0  0  0  0  0  0  0  0  0  0  0  0
   50.8873   31.4878   49.3732 H   0  0  0  0  0  0  0  0  0  0  0  0
   49.5574   32.1694   50.3068 H   0  0  0  0  0  0  0  0  0  0  0  0
   50.9512   30.3669   51.5334 H   0  0  0  0  0  0  0  0  0  0  0  0
   49.1840   30.0264   51.4651 H   0  0  0  0  0  0  0  0  0  0  0  0
   51.1856   28.2774   50.6966 H   0  0  0  0  0  0  0  0  0  0  0  0
   49.4714   28.1968   50.1705 H   0  0  0  0  0  0  0  0  0  0  0  0
   51.6827   29.7626   48.7361 H   0  0  0  0  0  0  0  0  0  0  0  0
   51.0786   28.1498   48.2388 H   0  0  0  0  0  0  0  0  0  0  0  0
   50.0553   30.2827   47.1206 H   0  0  0  0  0  0  0  0  0  0  0  0
   48.9481   28.9783   47.6866 H   0  0  0  0  0  0  0  0  0  0  0  0
   44.4501   35.4824   46.0689 H   0  0  0  0  0  0  0  0  0  0  0  0
   45.8917   32.7720   45.8199 H   0  0  0  0  0  0  0  0  0  0  0  0
   43.6194   35.8345   43.5254 H   0  0  0  0  0  0  0  0  0  0  0  0
   44.3592   35.7676   41.1299 H   0  0  0  0  0  0  0  0  0  0  0  0
   48.2503   32.1371   43.7673 H   0  0  0  0  0  0  0  0  0  0  0  0
   50.3246   30.9836   42.9399 H   0  0  0  0  0  0  0  0  0  0  0  0
   50.0284   33.3428   39.4024 H   0  0  0  0  0  0  0  0  0  0  0  0
  1  2  1  0
  2  3  2  0
  3  4  1  0
  5  4  1  0
  6  2  1  0
  6  5  2  0
  7  5  1  0
  7  8  1  0
  8  9  1  0
 10  9  1  0
 11 10  1  0
 12 11  1  0
 12  7  1  0
 13 14  2  0
 14  1  1  0
 15 13  1  0
 16 15  2  0
 17 16  1  0
 18 17  2  0
 18 19  1  0
 19 20  2  0
 20 15  1  0
 21 19  1  0
 21 22  1  0
 23 22  2  0
 24 23  1  0
 25 24  2  0
 26 27  1  0
 26 24  1  0
 27 21  1  0
 28 27  2  0
  1 29  1  0
  1 30  1  0
  3 31  1  0
  4 32  1  0
  8 33  1  0
  8 34  1  0
  9 35  1  0
  9 36  1  0
 10 37  1  0
 10 38  1  0
 11 39  1  0
 11 40  1  0
 12 41  1  0
 12 42  1  0
 13 43  1  0
 14 44  1  0
 16 45  1  0
 17 46  1  0
 22 47  1  0
 23 48  1  0
 26 49  1  0
M  ISO  8  29   8  30   8  31  14  32   9  33  13  34  13  35  13  36  13
M  ISO  8  37  13  38  13  39  13  40  13  41  13  42  13  45  14  46  14
M  ISO  3  47  14  48  14  49   9
M  END
>  <minimizedAffinity>  (1) 
-7.27805281

>  <minimizedRMSD>  (1) 
1.99277902

$$$$
