
     RDKit          3D

 33 35  0  0  0  0  0  0  0  0999 V2000
   44.6660   35.6690   43.4450 C   0  0  0  0  0  0  0  0  0  0  0  0
   44.3270   34.8830   42.3320 C   0  0  0  0  0  0  0  0  0  0  0  0
   44.5170   33.5250   42.4400 C   0  0  0  0  0  0  0  0  0  0  0  0
   45.0090   33.0190   43.5760 N   0  0  0  0  0  0  0  0  0  0  0  0
   45.3320   33.8030   44.6450 C   0  0  0  0  0  0  0  0  0  0  0  0
   45.1650   35.1510   44.5980 N   0  0  0  0  0  0  0  0  0  0  0  0
   45.8450   33.1240   45.7870 N   0  0  0  0  0  0  0  0  0  0  0  0
   46.7930   32.1700   45.8440 C   0  0  0  0  0  0  0  0  0  0  0  0
   47.1520   31.6340   47.0630 C   0  0  0  0  0  0  0  0  0  0  0  0
   46.5250   32.0910   48.2040 C   0  0  0  0  0  0  0  0  0  0  0  0
   46.8830   31.5710   49.3110 O   0  0  0  0  0  0  0  0  0  0  0  0
   45.5780   33.0440   48.1340 N   0  0  0  0  0  0  0  0  0  0  0  0
   45.2400   33.5600   46.9210 C   0  0  0  0  0  0  0  0  0  0  0  0
   44.3440   34.4390   47.0130 O   0  0  0  0  0  0  0  0  0  0  0  0
   43.8020   35.6090   41.1720 C   0  0  0  0  0  0  0  0  0  0  0  0
   42.4720   35.1190   40.8670 N   0  0  0  0  0  0  0  0  0  0  0  0
   41.4570   35.4280   41.6890 C   0  0  0  0  0  0  0  0  0  0  0  0
   40.1970   34.9390   41.3630 C   0  0  0  0  0  0  0  0  0  0  0  0
   40.0000   34.1720   40.2430 C   0  0  0  0  0  0  0  0  0  0  0  0
   38.8480   33.7480   39.9790 O   0  0  0  0  0  0  0  0  0  0  0  0
   41.0520   33.8930   39.4540 N   0  0  0  0  0  0  0  0  0  0  0  0
   42.2890   34.3600   39.7550 C   0  0  0  0  0  0  0  0  0  0  0  0
   43.2330   34.0600   38.9710 O   0  0  0  0  0  0  0  0  0  0  0  0
   44.5205   36.7574   43.3805 H   0  0  0  0  0  0  0  0  0  0  0  0
   44.2665   32.8611   41.5995 H   0  0  0  0  0  0  0  0  0  0  0  0
   47.2795   31.8193   44.9219 H   0  0  0  0  0  0  0  0  0  0  0  0
   47.9258   30.8546   47.1246 H   0  0  0  0  0  0  0  0  0  0  0  0
   45.1135   33.3797   48.9898 H   0  0  0  0  0  0  0  0  0  0  0  0
   43.7549   36.6839   41.4008 H   0  0  0  0  0  0  0  0  0  0  0  0
   44.4623   35.4512   40.3065 H   0  0  0  0  0  0  0  0  0  0  0  0
   41.6159   36.0444   42.5861 H   0  0  0  0  0  0  0  0  0  0  0  0
   39.3423   35.1715   42.0153 H   0  0  0  0  0  0  0  0  0  0  0  0
   40.9168   33.3175   38.6105 H   0  0  0  0  0  0  0  0  0  0  0  0
  1  6  2  0
  2  3  2  0
  2  1  1  0
  3  4  1  0
  4  5  2  0
  5  7  1  0
  6  5  1  0
  7  8  1  0
  7 13  1  0
  8  9  2  0
  9 10  1  0
 10 11  2  0
 12 10  1  0
 13 14  2  0
 13 12  1  0
 15  2  1  0
 16 15  1  0
 16 17  1  0
 18 17  2  0
 19 18  1  0
 20 19  2  0
 21 22  1  0
 21 19  1  0
 22 16  1  0
 23 22  2  0
  1 24  1  0
  3 25  1  0
  8 26  1  0
  9 27  1  0
 12 28  1  0
 15 29  1  0
 15 30  1  0
 17 31  1  0
 18 32  1  0
 21 33  1  0
M  ISO  8  24  14  25  14  26  14  27  14  28   9  29   8  30   8  31  14
M  ISO  2  32  14  33   9
M  END
>  <minimizedAffinity>  (1) 
-6.39853525

>  <minimizedRMSD>  (1) 
1.19154751

$$$$
