
     RDKit          3D

 39 42  0  0  0  0  0  0  0  0999 V2000
   44.4670   31.8400   42.8530 Cl  0  0  0  0  0  0  0  0  0  0  0  0
   44.5660   33.6010   42.7760 C   0  0  0  0  0  0  0  0  0  0  0  0
   45.4580   34.2000   43.6890 C   0  0  0  0  0  0  0  0  0  0  0  0
   45.4540   35.5760   43.5310 C   0  0  0  0  0  0  0  0  0  0  0  0
   44.7650   36.3470   42.6810 C   0  0  0  0  0  0  0  0  0  0  0  0
   43.9260   35.6880   41.8310 C   0  0  0  0  0  0  0  0  0  0  0  0
   43.8080   34.3400   41.8560 C   0  0  0  0  0  0  0  0  0  0  0  0
   42.9590   33.5270   41.0160 N   0  0  0  0  0  0  0  0  0  0  0  0
   41.7050   33.1090   41.2700 C   0  0  0  0  0  0  0  0  0  0  0  0
   41.0710   32.3350   40.3200 C   0  0  0  0  0  0  0  0  0  0  0  0
   41.6980   31.9920   39.1390 C   0  0  0  0  0  0  0  0  0  0  0  0
   41.1010   31.2840   38.2870 O   0  0  0  0  0  0  0  0  0  0  0  0
   42.9520   32.4260   38.9140 N   0  0  0  0  0  0  0  0  0  0  0  0
   43.5630   33.1900   39.8610 C   0  0  0  0  0  0  0  0  0  0  0  0
   44.7470   33.5310   39.5210 O   0  0  0  0  0  0  0  0  0  0  0  0
   46.3100   33.4980   44.6860 C   0  0  0  0  0  0  0  0  0  0  0  0
   45.7400   33.8670   45.6820 O   0  0  0  0  0  0  0  0  0  0  0  0
   47.3530   32.7550   43.9690 C   0  0  0  0  0  0  0  0  0  0  0  0
   48.2420   33.2650   43.1050 C   0  0  0  0  0  0  0  0  0  0  0  0
   49.0550   32.3270   42.4950 C   0  0  0  0  0  0  0  0  0  0  0  0
   48.8900   30.9670   42.8210 N   0  0  0  0  0  0  0  0  0  0  0  0
   47.9890   30.5490   43.6870 C   0  0  0  0  0  0  0  0  0  0  0  0
   47.1610   31.4530   44.3140 N   0  0  0  0  0  0  0  0  0  0  0  0
   48.4920   34.6400   42.8610 C   0  0  0  0  0  0  0  0  0  0  0  0
   49.5560   35.2140   42.2350 C   0  0  0  0  0  0  0  0  0  0  0  0
   48.3310   35.1410   41.3650 C   0  0  0  0  0  0  0  0  0  0  0  0
   46.1233   36.1219   44.2122 H   0  0  0  0  0  0  0  0  0  0  0  0
   44.8687   37.4420   42.6687 H   0  0  0  0  0  0  0  0  0  0  0  0
   43.3313   36.2658   41.1082 H   0  0  0  0  0  0  0  0  0  0  0  0
   41.1994   33.3772   42.2094 H   0  0  0  0  0  0  0  0  0  0  0  0
   40.0454   31.9842   40.5074 H   0  0  0  0  0  0  0  0  0  0  0  0
   43.4411   32.1843   38.0403 H   0  0  0  0  0  0  0  0  0  0  0  0
   49.8184   32.6384   41.7668 H   0  0  0  0  0  0  0  0  0  0  0  0
   47.8982   29.4756   43.9095 H   0  0  0  0  0  0  0  0  0  0  0  0
   48.0816   34.8287   43.8640 H   0  0  0  0  0  0  0  0  0  0  0  0
   49.9039   36.1995   42.5782 H   0  0  0  0  0  0  0  0  0  0  0  0
   50.5892   34.8702   42.0788 H   0  0  0  0  0  0  0  0  0  0  0  0
   47.7474   36.0420   41.1250 H   0  0  0  0  0  0  0  0  0  0  0  0
   48.0420   34.7273   40.3876 H   0  0  0  0  0  0  0  0  0  0  0  0
  2  1  1  0
  2  3  2  0
  3 16  1  0
  4  3  1  0
  5  4  2  0
  6  7  2  0
  6  5  1  0
  7  2  1  0
  8  9  1  0
  8  7  1  0
 10  9  2  0
 11 10  1  0
 12 11  2  0
 13 11  1  0
 13 14  1  0
 14  8  1  0
 15 14  2  0
 16 17  2  0
 18 23  1  0
 18 16  1  0
 19 18  2  0
 20 21  2  0
 20 19  1  0
 21 22  1  0
 22 23  2  0
 24 19  1  0
 25 24  1  0
 26 25  1  0
 26 24  1  0
  4 27  1  0
  5 28  1  0
  6 29  1  0
  9 30  1  0
 10 31  1  0
 13 32  1  0
 20 33  1  0
 22 34  1  0
 24 35  1  0
 25 36  1  0
 25 37  1  0
 26 38  1  0
 26 39  1  0
M  ISO  8  27  14  28  14  29  14  30  14  31  14  32   9  33  14  34  14
M  ISO  5  35  13  36  13  37  13  38  13  39  13
M  END
>  <minimizedAffinity>  (1) 
-5.66467762

>  <minimizedRMSD>  (1) 
0.332866877

$$$$
