
     RDKit          3D

 37 38  0  0  0  0  0  0  0  0999 V2000
   45.3520   35.4680   43.4660 C   0  0  0  0  0  0  0  0  0  0  0  0
   43.7780   35.6670   41.4770 C   0  0  0  0  0  0  0  0  0  0  0  0
   44.0900   35.1540   42.6750 C   0  0  0  0  0  0  0  0  0  0  0  0
   42.5750   35.2500   40.9200 O   0  0  0  0  0  0  0  0  0  0  0  0
   41.3130   35.7110   41.2090 C   0  0  0  0  0  0  0  0  0  0  0  0
   40.2860   33.5850   41.6360 C   0  0  0  0  0  0  0  0  0  0  0  0
   40.2330   34.7580   40.8590 C   0  0  0  0  0  0  0  0  0  0  0  0
   39.2380   34.8590   39.9330 C   0  0  0  0  0  0  0  0  0  0  0  0
   38.3870   33.8430   39.8290 N   0  0  0  0  0  0  0  0  0  0  0  0
   38.4250   32.7310   40.5540 C   0  0  0  0  0  0  0  0  0  0  0  0
   39.4090   32.5430   41.5250 N   0  0  0  0  0  0  0  0  0  0  0  0
   45.6120   34.3730   44.2580 O   0  0  0  0  0  0  0  0  0  0  0  0
   46.5430   32.7170   42.3990 O   0  0  0  0  0  0  0  0  0  0  0  0
   46.8990   33.4480   43.6560 P   0  0  1  0  0  0  0  0  0  0  0  0
   48.2190   34.4580   43.3310 O   0  0  0  0  0  0  0  0  0  0  0  0
   47.3900   32.3580   44.8630 O   0  0  0  0  0  0  0  0  0  0  0  0
   46.2760   32.6050   48.2470 N   0  0  0  0  0  0  0  0  0  0  0  0
   46.9070   32.7920   47.0530 C   0  0  0  0  0  0  0  0  0  0  0  0
   46.6290   31.9760   45.9520 C   0  0  0  0  0  0  0  0  0  0  0  0
   45.6900   30.9680   46.1010 C   0  0  0  0  0  0  0  0  0  0  0  0
   45.5360   30.3140   45.0400 O   0  0  0  0  0  0  0  0  0  0  0  0
   45.0930   30.8210   47.2940 N   0  0  0  0  0  0  0  0  0  0  0  0
   45.3730   31.6060   48.3270 C   0  0  0  0  0  0  0  0  0  0  0  0
   44.7540   31.3860   49.4120 O   0  0  0  0  0  0  0  0  0  0  0  0
   45.1938   36.3584   44.0922 H   0  0  0  0  0  0  0  0  0  0  0  0
   46.1966   35.6754   42.7925 H   0  0  0  0  0  0  0  0  0  0  0  0
   44.4387   36.3800   40.9621 H   0  0  0  0  0  0  0  0  0  0  0  0
   43.3755   34.4481   43.1236 H   0  0  0  0  0  0  0  0  0  0  0  0
   41.2577   35.9167   42.2882 H   0  0  0  0  0  0  0  0  0  0  0  0
   41.1542   36.6129   40.5997 H   0  0  0  0  0  0  0  0  0  0  0  0
   41.0885   33.5017   42.3837 H   0  0  0  0  0  0  0  0  0  0  0  0
   39.1425   35.7496   39.2944 H   0  0  0  0  0  0  0  0  0  0  0  0
   37.6708   31.9479   40.3868 H   0  0  0  0  0  0  0  0  0  0  0  0
   48.6185   34.7636   44.1837 H   0  0  0  0  0  0  0  0  0  0  0  0
   46.4814   33.2049   49.0587 H   0  0  0  0  0  0  0  0  0  0  0  0
   47.6479   33.5990   46.9540 H   0  0  0  0  0  0  0  0  0  0  0  0
   44.3940   30.0738   47.4119 H   0  0  0  0  0  0  0  0  0  0  0  0
  1 12  1  0
  2  3  2  0
  3  1  1  0
  4  5  1  0
  4  2  1  0
  7  5  1  0
  7  6  2  0
  8  7  1  0
  9  8  2  0
  9 10  1  0
 10 11  2  0
 11  6  1  0
 14 13  2  0
 14 12  1  0
 14 16  1  0
 15 14  1  0
 16 19  1  0
 17 23  1  0
 18 17  1  0
 19 20  1  0
 19 18  2  0
 20 22  1  0
 21 20  2  0
 22 23  1  0
 23 24  2  0
  1 25  1  0
  1 26  1  0
  2 27  1  0
  3 28  1  0
  5 29  1  0
  5 30  1  0
  6 31  1  0
  8 32  1  0
 10 33  1  0
 15 34  1  0
 17 35  1  0
 18 36  1  0
 22 37  1  0
M  ISO  8  25   8  26   8  29   8  30   8  31  14  32  14  33  14  34   3
M  ISO  3  35   9  36  14  37   9
M  END
>  <minimizedAffinity>  (1) 
-5.50540638

>  <minimizedRMSD>  (1) 
1.46998405

$$$$
