
     RDKit          3D

 24 25  0  0  0  0  0  0  0  0999 V2000
   44.0170   35.0190   41.2150 C   0  0  0  0  0  0  0  0  0  0  0  0
   44.2920   35.8030   43.4770 C   0  0  0  0  0  0  0  0  0  0  0  0
   44.4400   34.7570   42.5930 C   0  0  0  0  0  0  0  0  0  0  0  0
   44.9650   33.5790   43.0870 C   0  0  0  0  0  0  0  0  0  0  0  0
   45.2980   33.5290   44.3970 N   0  0  0  0  0  0  0  0  0  0  0  0
   45.1430   34.5620   45.2380 C   0  0  0  0  0  0  0  0  0  0  0  0
   44.6250   35.7620   44.8010 N   0  0  0  0  0  0  0  0  0  0  0  0
   42.7660   35.6070   41.1070 O   0  0  0  0  0  0  0  0  0  0  0  0
   41.2600   34.8920   37.8950 N   0  0  0  0  0  0  0  0  0  0  0  0
   42.2010   35.2340   38.7710 C   0  0  0  0  0  0  0  0  0  0  0  0
   41.8650   35.2630   40.1100 C   0  0  0  0  0  0  0  0  0  0  0  0
   40.5620   34.9320   40.4560 C   0  0  0  0  0  0  0  0  0  0  0  0
   40.2570   34.9590   41.6810 O   0  0  0  0  0  0  0  0  0  0  0  0
   39.6280   34.5880   39.5420 N   0  0  0  0  0  0  0  0  0  0  0  0
   39.9980   34.5710   38.2330 C   0  0  0  0  0  0  0  0  0  0  0  0
   39.0810   34.2420   37.4360 O   0  0  0  0  0  0  0  0  0  0  0  0
   44.7546   35.6890   40.7491 H   0  0  0  0  0  0  0  0  0  0  0  0
   43.9519   34.0424   40.7130 H   0  0  0  0  0  0  0  0  0  0  0  0
   43.8739   36.7427   43.0870 H   0  0  0  0  0  0  0  0  0  0  0  0
   45.1083   32.7059   42.4334 H   0  0  0  0  0  0  0  0  0  0  0  0
   45.4338   34.4498   46.2929 H   0  0  0  0  0  0  0  0  0  0  0  0
   41.5132   34.8717   36.8968 H   0  0  0  0  0  0  0  0  0  0  0  0
   43.2185   35.4867   38.4379 H   0  0  0  0  0  0  0  0  0  0  0  0
   38.6680   34.3467   39.8269 H   0  0  0  0  0  0  0  0  0  0  0  0
  1  3  1  0
  2  7  2  0
  3  4  2  0
  3  2  1  0
  4  5  1  0
  5  6  2  0
  7  6  1  0
  8  1  1  0
  9 15  1  0
  9 10  1  0
 10 11  2  0
 11 12  1  0
 11  8  1  0
 12 13  2  0
 14 12  1  0
 15 14  1  0
 16 15  2  0
  1 17  1  0
  1 18  1  0
  2 19  1  0
  4 20  1  0
  6 21  1  0
  9 22  1  0
 10 23  1  0
 14 24  1  0
M  ISO  8  17   8  18   8  19  14  20  14  21  14  22   9  23  14  24   9
M  END
>  <minimizedAffinity>  (1) 
-4.79917336

>  <minimizedRMSD>  (1) 
1.53966236

$$$$
