
     RDKit          3D

 34 36  0  0  0  0  0  0  0  0999 V2000
   50.0520   33.1260   42.0570 C   0  0  0  0  0  0  0  0  0  0  0  0
   49.8990   34.5270   42.1740 C   0  0  0  0  0  0  0  0  0  0  0  0
   48.7930   35.0710   42.7300 C   0  0  0  0  0  0  0  0  0  0  0  0
   47.7930   34.1570   43.1910 C   0  0  0  0  0  0  0  0  0  0  0  0
   48.4430   32.5190   42.8240 S   0  0  0  0  0  0  0  0  0  0  0  0
   51.0290   32.2250   41.5750 C   0  0  0  0  0  0  0  0  0  0  0  0
   50.8250   31.6140   40.2500 C   0  0  0  0  0  0  0  0  0  0  0  0
   52.1020   31.2280   39.6560 C   0  0  0  0  0  0  0  0  0  0  0  0
   52.9900   30.4290   40.3420 C   0  0  0  0  0  0  0  0  0  0  0  0
   54.2020   30.0920   39.7240 C   0  0  0  0  0  0  0  0  0  0  0  0
   54.4200   30.5810   38.4840 N   0  0  0  0  0  0  0  0  0  0  0  0
   53.5380   31.3560   37.8430 C   0  0  0  0  0  0  0  0  0  0  0  0
   52.4040   31.6670   38.4290 N   0  0  0  0  0  0  0  0  0  0  0  0
   46.6720   34.4580   43.7500 O   0  0  0  0  0  0  0  0  0  0  0  0
   44.1480   34.7910   41.0850 N   0  0  0  0  0  0  0  0  0  0  0  0
   45.3230   34.4380   41.6350 C   0  0  0  0  0  0  0  0  0  0  0  0
   45.5270   34.7350   42.9760 C   0  0  0  0  0  0  0  0  0  0  0  0
   44.5230   35.3800   43.6940 C   0  0  0  0  0  0  0  0  0  0  0  0
   44.5930   35.7000   44.9120 O   0  0  0  0  0  0  0  0  0  0  0  0
   43.3510   35.7150   43.0840 N   0  0  0  0  0  0  0  0  0  0  0  0
   43.1780   35.4160   41.7850 C   0  0  0  0  0  0  0  0  0  0  0  0
   42.1040   35.7060   41.1640 O   0  0  0  0  0  0  0  0  0  0  0  0
   50.6967   35.1883   41.8048 H   0  0  0  0  0  0  0  0  0  0  0  0
   48.6683   36.1599   42.8232 H   0  0  0  0  0  0  0  0  0  0  0  0
   51.9840   32.7696   41.5385 H   0  0  0  0  0  0  0  0  0  0  0  0
   50.9833   31.3769   42.2740 H   0  0  0  0  0  0  0  0  0  0  0  0
   50.1926   30.7205   40.3582 H   0  0  0  0  0  0  0  0  0  0  0  0
   50.3381   32.3498   39.5931 H   0  0  0  0  0  0  0  0  0  0  0  0
   52.7532   30.0636   41.3522 H   0  0  0  0  0  0  0  0  0  0  0  0
   54.9446   29.4558   40.2278 H   0  0  0  0  0  0  0  0  0  0  0  0
   53.7605   31.7301   36.8328 H   0  0  0  0  0  0  0  0  0  0  0  0
   43.9818   34.5762   40.0914 H   0  0  0  0  0  0  0  0  0  0  0  0
   46.0978   33.9303   41.0418 H   0  0  0  0  0  0  0  0  0  0  0  0
   42.6065   36.1918   43.6124 H   0  0  0  0  0  0  0  0  0  0  0  0
  1  2  2  0
  1  5  1  0
  2  3  1  0
  3  4  2  0
  4 14  1  0
  5  4  1  0
  6  1  1  0
  7  6  1  0
  8  7  1  0
  8  9  2  0
 10  9  1  0
 11 10  2  0
 12 13  2  0
 12 11  1  0
 13  8  1  0
 15 16  1  0
 15 21  1  0
 16 17  2  0
 17 18  1  0
 17 14  1  0
 18 19  2  0
 20 18  1  0
 21 20  1  0
 22 21  2  0
  2 23  1  0
  3 24  1  0
  6 25  1  0
  6 26  1  0
  7 27  1  0
  7 28  1  0
  9 29  1  0
 10 30  1  0
 12 31  1  0
 15 32  1  0
 16 33  1  0
 20 34  1  0
M  ISO  8  23  14  24  14  25   8  26   8  27   8  28   8  29  14  30  14
M  ISO  4  31  14  32   9  33  14  34   9
M  END
>  <minimizedAffinity>  (1) 
-5.27698612

>  <minimizedRMSD>  (1) 
9.05041981

$$$$
