
     RDKit          3D

 27 28  0  0  0  0  0  0  0  0999 V2000
   47.4910   34.8390   41.4510 C   0  0  0  0  0  0  0  0  0  0  0  0
   48.7400   34.0700   41.5830 C   0  0  0  0  0  0  0  0  0  0  0  0
   48.8410   32.9340   40.7650 C   0  0  0  0  0  0  0  0  0  0  0  0
   50.0000   32.1620   40.8420 C   0  0  0  0  0  0  0  0  0  0  0  0
   50.9880   32.5460   41.7120 N   0  0  0  0  0  0  0  0  0  0  0  0
   50.8540   33.6370   42.4770 C   0  0  0  0  0  0  0  0  0  0  0  0
   49.7530   34.3970   42.4240 N   0  0  0  0  0  0  0  0  0  0  0  0
   47.5180   32.4860   39.6510 S   0  0  0  0  0  0  0  0  0  0  0  0
   46.6800   34.8430   42.7190 C   0  0  0  0  0  0  0  0  0  0  0  0
   45.2750   35.0320   42.4500 N   0  0  0  0  0  0  0  0  0  0  0  0
   44.8860   34.6780   41.2040 C   0  0  0  0  0  0  0  0  0  0  0  0
   43.5590   34.8240   40.8550 C   0  0  0  0  0  0  0  0  0  0  0  0
   42.6690   35.3270   41.7880 C   0  0  0  0  0  0  0  0  0  0  0  0
   41.4450   35.4790   41.5160 O   0  0  0  0  0  0  0  0  0  0  0  0
   43.1110   35.6650   43.0170 N   0  0  0  0  0  0  0  0  0  0  0  0
   44.3910   35.5190   43.3400 C   0  0  0  0  0  0  0  0  0  0  0  0
   44.8910   35.8070   44.4590 O   0  0  0  0  0  0  0  0  0  0  0  0
   47.7421   35.8776   41.1895 H   0  0  0  0  0  0  0  0  0  0  0  0
   46.8848   34.3601   40.6679 H   0  0  0  0  0  0  0  0  0  0  0  0
   50.1191   31.2640   40.2180 H   0  0  0  0  0  0  0  0  0  0  0  0
   51.6667   33.9149   43.1643 H   0  0  0  0  0  0  0  0  0  0  0  0
   46.4170   32.1132   40.3761 H   0  0  0  0  0  0  0  0  0  0  0  0
   46.8186   33.8812   43.2345 H   0  0  0  0  0  0  0  0  0  0  0  0
   47.0257   35.6780   43.3460 H   0  0  0  0  0  0  0  0  0  0  0  0
   45.6144   34.2808   40.4817 H   0  0  0  0  0  0  0  0  0  0  0  0
   43.2132   34.5444   39.8489 H   0  0  0  0  0  0  0  0  0  0  0  0
   42.4493   36.0400   43.7116 H   0  0  0  0  0  0  0  0  0  0  0  0
  1  2  1  0
  1  9  1  0
  2  7  2  0
  3  4  2  0
  3  2  1  0
  4  5  1  0
  5  6  2  0
  7  6  1  0
  8  3  1  0
 10  9  1  0
 10 16  1  0
 11 10  1  0
 12 11  2  0
 12 13  1  0
 13 15  1  0
 14 13  2  0
 15 16  1  0
 16 17  2  0
  1 18  1  0
  1 19  1  0
  4 20  1  0
  6 21  1  0
  8 22  1  0
  9 23  1  0
  9 24  1  0
 11 25  1  0
 12 26  1  0
 15 27  1  0
M  ISO  8  18   8  19   8  20  14  21  14  22  11  23   8  24   8  25  14
M  ISO  2  26  14  27   9
M  END
>  <minimizedAffinity>  (1) 
-4.95706415

>  <minimizedRMSD>  (1) 
6.1378603

$$$$
