
     RDKit          3D

 42 45  0  0  0  0  0  0  0  0999 V2000
   47.8750   33.8770   42.8870 C   0  0  0  0  0  0  0  0  0  0  0  0
   48.5250   35.1110   42.6300 C   0  0  0  0  0  0  0  0  0  0  0  0
   49.8870   35.1330   42.2960 C   0  0  0  0  0  0  0  0  0  0  0  0
   50.5140   33.9140   42.2420 N   0  0  0  0  0  0  0  0  0  0  0  0
   49.8590   32.7390   42.4960 C   0  0  0  0  0  0  0  0  0  0  0  0
   48.5710   32.7430   42.8100 N   0  0  0  0  0  0  0  0  0  0  0  0
   46.4510   33.9830   43.2320 C   0  0  0  0  0  0  0  0  0  0  0  0
   45.7250   34.9940   42.4660 C   0  0  0  0  0  0  0  0  0  0  0  0
   45.2660   36.1590   43.2650 C   0  0  0  0  0  0  0  0  0  0  0  0
   44.4920   35.7660   44.5190 C   0  0  0  0  0  0  0  0  0  0  0  0
   44.9630   34.5020   45.1660 C   0  0  0  0  0  0  0  0  0  0  0  0
   46.3890   34.1960   44.7550 C   0  0  0  0  0  0  0  0  0  0  0  0
   50.6760   31.5400   42.3990 C   0  0  0  0  0  0  0  0  0  0  0  0
   51.5550   31.4680   41.3600 N   0  0  0  0  0  0  0  0  0  0  0  0
   52.2200   30.2910   41.4380 C   0  0  0  0  0  0  0  0  0  0  0  0
   51.7420   29.6300   42.5440 N   0  0  0  0  0  0  0  0  0  0  0  0
   50.8100   30.3980   43.1110 N   0  0  0  0  0  0  0  0  0  0  0  0
   53.8430   29.6910   44.8660 Br  0  0  0  0  0  0  0  0  0  0  0  0
   52.9980   28.1600   44.1060 C   0  0  0  0  0  0  0  0  0  0  0  0
   52.0940   28.3610   43.0820 C   0  0  0  0  0  0  0  0  0  0  0  0
   51.4900   27.2190   42.5450 C   0  0  0  0  0  0  0  0  0  0  0  0
   51.8280   25.9700   43.0620 C   0  0  0  0  0  0  0  0  0  0  0  0
   52.7210   25.7970   44.0720 C   0  0  0  0  0  0  0  0  0  0  0  0
   53.3140   26.9170   44.5990 C   0  0  0  0  0  0  0  0  0  0  0  0
   47.9599   36.0526   42.6927 H   0  0  0  0  0  0  0  0  0  0  0  0
   50.4210   36.0723   42.0895 H   0  0  0  0  0  0  0  0  0  0  0  0
   45.9241   33.0592   42.9510 H   0  0  0  0  0  0  0  0  0  0  0  0
   46.3877   35.3632   41.6694 H   0  0  0  0  0  0  0  0  0  0  0  0
   44.8197   34.5034   42.0789 H   0  0  0  0  0  0  0  0  0  0  0  0
   46.1475   36.7431   43.5680 H   0  0  0  0  0  0  0  0  0  0  0  0
   44.5812   36.7394   42.6292 H   0  0  0  0  0  0  0  0  0  0  0  0
   44.5851   36.5822   45.2505 H   0  0  0  0  0  0  0  0  0  0  0  0
   43.4532   35.5887   44.2037 H   0  0  0  0  0  0  0  0  0  0  0  0
   44.9177   34.6160   46.2591 H   0  0  0  0  0  0  0  0  0  0  0  0
   44.3142   33.6740   44.8443 H   0  0  0  0  0  0  0  0  0  0  0  0
   46.7301   33.2840   45.2667 H   0  0  0  0  0  0  0  0  0  0  0  0
   47.0391   35.0385   45.0336 H   0  0  0  0  0  0  0  0  0  0  0  0
   52.9964   29.9317   40.7465 H   0  0  0  0  0  0  0  0  0  0  0  0
   50.7595   27.3058   41.7272 H   0  0  0  0  0  0  0  0  0  0  0  0
   51.3479   25.0791   42.6310 H   0  0  0  0  0  0  0  0  0  0  0  0
   52.9603   24.7936   44.4540 H   0  0  0  0  0  0  0  0  0  0  0  0
   54.0430   26.8194   45.4169 H   0  0  0  0  0  0  0  0  0  0  0  0
  1  7  1  0
  2  1  2  0
  3  2  1  0
  4  3  2  0
  4  5  1  0
  5  6  2  0
  6  1  1  0
  7 12  1  0
  8  7  1  0
  8  9  1  0
  9 10  1  0
 10 11  1  0
 12 11  1  0
 13  5  1  0
 13 17  2  0
 14 15  2  0
 14 13  1  0
 15 16  1  0
 16 20  1  0
 16 17  1  0
 19 24  2  0
 19 18  1  0
 20 19  1  0
 21 22  1  0
 21 20  2  0
 22 23  2  0
 23 24  1  0
  2 25  1  0
  3 26  1  0
  7 27  1  0
  8 28  1  0
  8 29  1  0
  9 30  1  0
  9 31  1  0
 10 32  1  0
 10 33  1  0
 11 34  1  0
 11 35  1  0
 12 36  1  0
 12 37  1  0
 15 38  1  0
 21 39  1  0
 22 40  1  0
 23 41  1  0
 24 42  1  0
M  ISO  8  25  14  26  14  27  13  28  13  29  13  30  13  31  13  32  13
M  ISO  8  33  13  34  13  35  13  36  13  37  13  38  14  39  14  40  14
M  ISO  2  41  14  42  14
M  END
>  <minimizedAffinity>  (1) 
-4.35902977

>  <minimizedRMSD>  (1) 
1.11944437

$$$$
