
     RDKit          3D

 36 39  0  0  0  0  0  0  0  0999 V2000
   47.7120   32.3050   48.2950 C   0  0  0  0  0  0  0  0  0  0  0  0
   47.4000   30.9440   48.3390 C   0  0  0  0  0  0  0  0  0  0  0  0
   46.5510   30.4670   47.3850 C   0  0  0  0  0  0  0  0  0  0  0  0
   46.0570   31.3160   46.4560 N   0  0  0  0  0  0  0  0  0  0  0  0
   46.3570   32.6130   46.4170 C   0  0  0  0  0  0  0  0  0  0  0  0
   47.1820   33.0690   47.3460 N   0  0  0  0  0  0  0  0  0  0  0  0
   45.9300   33.6730   45.5010 C   0  0  0  0  0  0  0  0  0  0  0  0
   44.9430   34.5630   45.7670 N   0  0  0  0  0  0  0  0  0  0  0  0
   44.5300   35.5340   44.9700 C   0  0  0  0  0  0  0  0  0  0  0  0
   45.1240   35.6910   43.7580 N   0  0  0  0  0  0  0  0  0  0  0  0
   46.1180   34.8780   43.3640 C   0  0  0  0  0  0  0  0  0  0  0  0
   46.7060   35.0540   42.1330 C   0  0  0  0  0  0  0  0  0  0  0  0
   47.7180   34.2330   41.7200 C   0  0  0  0  0  0  0  0  0  0  0  0
   48.1280   33.2270   42.5780 C   0  0  0  0  0  0  0  0  0  0  0  0
   47.5070   33.0920   43.7980 C   0  0  0  0  0  0  0  0  0  0  0  0
   46.4870   33.8910   44.2570 C   0  0  0  0  0  0  0  0  0  0  0  0
   48.4090   28.7910   45.5290 Br  0  0  0  0  0  0  0  0  0  0  0  0
   46.8300   28.2150   46.4760 C   0  0  0  0  0  0  0  0  0  0  0  0
   46.1100   29.0900   47.2660 C   0  0  0  0  0  0  0  0  0  0  0  0
   45.0420   28.4740   47.8360 C   0  0  0  0  0  0  0  0  0  0  0  0
   44.6580   27.1620   47.6970 C   0  0  0  0  0  0  0  0  0  0  0  0
   45.4210   26.3470   46.8960 C   0  0  0  0  0  0  0  0  0  0  0  0
   46.5200   26.8900   46.2810 C   0  0  0  0  0  0  0  0  0  0  0  0
   47.9630   30.1370   49.3370 N   0  0  0  0  0  0  0  0  0  0  0  0
   48.3922   32.7413   49.0413 H   0  0  0  0  0  0  0  0  0  0  0  0
   43.7170   36.2052   45.2838 H   0  0  0  0  0  0  0  0  0  0  0  0
   46.3584   35.8635   41.4743 H   0  0  0  0  0  0  0  0  0  0  0  0
   48.1918   34.3676   40.7364 H   0  0  0  0  0  0  0  0  0  0  0  0
   48.9401   32.5442   42.2879 H   0  0  0  0  0  0  0  0  0  0  0  0
   47.8534   32.2823   44.4571 H   0  0  0  0  0  0  0  0  0  0  0  0
   44.4105   29.0986   48.4849 H   0  0  0  0  0  0  0  0  0  0  0  0
   43.7660   26.7755   48.2118 H   0  0  0  0  0  0  0  0  0  0  0  0
   45.1577   25.2887   46.7521 H   0  0  0  0  0  0  0  0  0  0  0  0
   47.1526   26.2661   45.6325 H   0  0  0  0  0  0  0  0  0  0  0  0
   47.7374   29.1327   49.3754 H   0  0  0  0  0  0  0  0  0  0  0  0
   48.6024   30.5482   50.0320 H   0  0  0  0  0  0  0  0  0  0  0  0
  1  2  2  0
  2 24  1  0
  3  2  1  0
  4  3  2  0
  5  4  1  0
  5  6  2  0
  6  1  1  0
  7  8  2  0
  7  5  1  0
  9  8  1  0
 10  9  2  0
 11 10  1  0
 11 16  2  0
 12 11  1  0
 13 12  2  0
 13 14  1  0
 14 15  2  0
 15 16  1  0
 16  7  1  0
 17 18  1  0
 18 19  2  0
 19  3  1  0
 19 20  1  0
 21 20  2  0
 22 21  1  0
 23 18  1  0
 23 22  2  0
  1 25  1  0
  9 26  1  0
 12 27  1  0
 13 28  1  0
 14 29  1  0
 15 30  1  0
 20 31  1  0
 21 32  1  0
 22 33  1  0
 23 34  1  0
 24 35  1  0
 24 36  1  0
M  ISO  8  25  14  26  14  27  14  28  14  29  14  30  14  31  14  32  14
M  ISO  2  33  14  34  14
M  END
>  <minimizedAffinity>  (1) 
-6.40928078

>  <minimizedRMSD>  (1) 
0.281271338

$$$$
