
     RDKit          3D

 37 39  0  0  0  0  0  0  0  0999 V2000
   44.8500   35.1010   44.0100 C   0  0  0  0  0  0  0  0  0  0  0  0
   44.4590   34.3480   42.8700 C   0  0  0  0  0  0  0  0  0  0  0  0
   44.6160   32.9680   42.8860 C   0  0  0  0  0  0  0  0  0  0  0  0
   45.1480   32.4340   44.0290 N   0  0  0  0  0  0  0  0  0  0  0  0
   45.5100   33.1470   45.0900 C   0  0  0  0  0  0  0  0  0  0  0  0
   45.3610   34.4710   45.0770 N   0  0  0  0  0  0  0  0  0  0  0  0
   47.7560   31.2120   44.3530 Br  0  0  0  0  0  0  0  0  0  0  0  0
   47.1100   31.5770   46.1250 C   0  0  0  0  0  0  0  0  0  0  0  0
   46.0700   32.4980   46.2690 C   0  0  0  0  0  0  0  0  0  0  0  0
   45.5830   32.7830   47.5310 C   0  0  0  0  0  0  0  0  0  0  0  0
   46.1190   32.1650   48.6260 C   0  0  0  0  0  0  0  0  0  0  0  0
   47.1390   31.2630   48.4860 C   0  0  0  0  0  0  0  0  0  0  0  0
   47.6650   30.9410   47.2310 C   0  0  0  0  0  0  0  0  0  0  0  0
   43.8980   35.0280   41.6950 C   0  0  0  0  0  0  0  0  0  0  0  0
   42.6520   34.9230   41.2930 C   0  0  0  0  0  0  0  0  0  0  0  0
   42.1360   35.6410   40.0860 C   0  0  0  0  0  0  0  0  0  0  0  0
   41.4270   35.6770   37.3850 F   0  0  0  0  0  0  0  0  0  0  0  0
   40.5760   35.0820   38.2530 C   0  0  0  0  0  0  0  0  0  0  0  0
   40.8940   35.0410   39.6150 C   0  0  0  0  0  0  0  0  0  0  0  0
   39.9510   34.4140   40.3820 C   0  0  0  0  0  0  0  0  0  0  0  0
   38.7700   33.8410   39.9590 C   0  0  0  0  0  0  0  0  0  0  0  0
   38.5400   33.9300   38.5830 C   0  0  0  0  0  0  0  0  0  0  0  0
   39.4110   34.5360   37.7110 C   0  0  0  0  0  0  0  0  0  0  0  0
   44.7339   36.1948   44.0167 H   0  0  0  0  0  0  0  0  0  0  0  0
   44.3294   32.3401   42.0295 H   0  0  0  0  0  0  0  0  0  0  0  0
   44.7641   33.5071   47.6540 H   0  0  0  0  0  0  0  0  0  0  0  0
   45.7274   32.3944   49.6280 H   0  0  0  0  0  0  0  0  0  0  0  0
   47.5550   30.7798   49.3824 H   0  0  0  0  0  0  0  0  0  0  0  0
   48.4840   30.2147   47.1226 H   0  0  0  0  0  0  0  0  0  0  0  0
   44.5703   35.6720   41.1091 H   0  0  0  0  0  0  0  0  0  0  0  0
   41.9628   34.2840   41.8645 H   0  0  0  0  0  0  0  0  0  0  0  0
   41.9517   36.6941   40.3449 H   0  0  0  0  0  0  0  0  0  0  0  0
   42.8872   35.5677   39.2858 H   0  0  0  0  0  0  0  0  0  0  0  0
   40.1585   34.3606   41.4609 H   0  0  0  0  0  0  0  0  0  0  0  0
   38.0657   33.3532   40.6489 H   0  0  0  0  0  0  0  0  0  0  0  0
   37.6152   33.4928   38.1785 H   0  0  0  0  0  0  0  0  0  0  0  0
   39.1999   34.5889   36.6327 H   0  0  0  0  0  0  0  0  0  0  0  0
  1  6  2  0
  2  3  2  0
  2  1  1  0
  3  4  1  0
  4  5  2  0
  5  9  1  0
  6  5  1  0
  7  8  1  0
  8  9  2  0
  8 13  1  0
  9 10  1  0
 10 11  2  0
 12 11  1  0
 13 12  2  0
 14  2  1  0
 15 14  2  0
 16 15  1  0
 17 18  1  0
 18 19  2  0
 19 16  1  0
 19 20  1  0
 21 20  2  0
 22 21  1  0
 23 18  1  0
 23 22  2  0
  1 24  1  0
  3 25  1  0
 10 26  1  0
 11 27  1  0
 12 28  1  0
 13 29  1  0
 14 30  1  0
 15 31  1  0
 16 32  1  0
 16 33  1  0
 20 34  1  0
 21 35  1  0
 22 36  1  0
 23 37  1  0
M  ISO  8  24  14  25  14  26  14  27  14  28  14  29  14  32   8  33   8
M  ISO  4  34  14  35  14  36  14  37  14
M  END
>  <minimizedAffinity>  (1) 
-6.32373762

>  <minimizedRMSD>  (1) 
1.22267604

$$$$
