
     RDKit          3D

 39 42  0  0  0  0  0  0  0  0999 V2000
   46.3930   33.6170   41.0980 C   0  0  0  0  0  0  0  0  0  0  0  0
   46.8180   34.6330   41.9500 C   0  0  0  0  0  0  0  0  0  0  0  0
   47.8910   35.3580   41.5700 C   0  0  0  0  0  0  0  0  0  0  0  0
   48.5610   35.1200   40.3870 C   0  0  0  0  0  0  0  0  0  0  0  0
   48.1370   34.1130   39.5490 C   0  0  0  0  0  0  0  0  0  0  0  0
   47.0300   33.3350   39.8970 C   0  0  0  0  0  0  0  0  0  0  0  0
   44.5410   36.0430   44.6070 C   0  0  0  0  0  0  0  0  0  0  0  0
   45.2400   35.8910   43.4050 C   0  0  0  0  0  0  0  0  0  0  0  0
   46.0740   34.8320   43.1750 C   0  0  0  0  0  0  0  0  0  0  0  0
   46.1610   33.9450   44.2140 N   0  0  0  0  0  0  0  0  0  0  0  0
   45.4920   34.0800   45.3790 C   0  0  0  0  0  0  0  0  0  0  0  0
   44.6800   35.1360   45.5700 N   0  0  0  0  0  0  0  0  0  0  0  0
   45.2990   32.8390   41.4300 O   0  0  0  0  0  0  0  0  0  0  0  0
   46.5800   32.3270   39.0910 O   0  0  0  0  0  0  0  0  0  0  0  0
   46.5680   32.3290   37.7350 C   0  0  0  0  0  0  0  0  0  0  0  0
   45.6010   32.7560   36.8520 C   0  0  0  0  0  0  0  0  0  0  0  0
   45.8280   32.6540   35.5190 C   0  0  0  0  0  0  0  0  0  0  0  0
   47.0740   32.0990   35.1260 C   0  0  0  0  0  0  0  0  0  0  0  0
   47.8980   31.7370   36.6920 S   0  0  0  0  0  0  0  0  0  0  0  0
   46.2500   29.3080   34.1010 Br  0  0  0  0  0  0  0  0  0  0  0  0
   47.3230   30.6260   33.2530 C   0  0  0  0  0  0  0  0  0  0  0  0
   47.6310   31.8490   33.8060 C   0  0  0  0  0  0  0  0  0  0  0  0
   48.3830   32.8430   33.2780 C   0  0  0  0  0  0  0  0  0  0  0  0
   48.9200   32.6030   32.0080 C   0  0  0  0  0  0  0  0  0  0  0  0
   48.6550   31.3840   31.3720 C   0  0  0  0  0  0  0  0  0  0  0  0
   47.8670   30.4020   31.9830 C   0  0  0  0  0  0  0  0  0  0  0  0
   48.2441   36.1671   42.2262 H   0  0  0  0  0  0  0  0  0  0  0  0
   49.4322   35.7337   40.1141 H   0  0  0  0  0  0  0  0  0  0  0  0
   48.6697   33.9212   38.6059 H   0  0  0  0  0  0  0  0  0  0  0  0
   43.8791   36.9090   44.7553 H   0  0  0  0  0  0  0  0  0  0  0  0
   45.1146   36.6492   42.6179 H   0  0  0  0  0  0  0  0  0  0  0  0
   45.6107   33.3269   46.1719 H   0  0  0  0  0  0  0  0  0  0  0  0
   45.0011   32.1179   40.8205 H   0  0  0  0  0  0  0  0  0  0  0  0
   44.6546   33.1753   37.2242 H   0  0  0  0  0  0  0  0  0  0  0  0
   45.0840   32.9847   34.7794 H   0  0  0  0  0  0  0  0  0  0  0  0
   48.5618   33.7855   33.8163 H   0  0  0  0  0  0  0  0  0  0  0  0
   49.5433   33.3635   31.5150 H   0  0  0  0  0  0  0  0  0  0  0  0
   49.0743   31.1946   30.3728 H   0  0  0  0  0  0  0  0  0  0  0  0
   47.6747   29.4515   31.4637 H   0  0  0  0  0  0  0  0  0  0  0  0
  1 13  1  0
  1  2  2  0
  2  9  1  0
  3  2  1  0
  4  3  2  0
  5  6  2  0
  5  4  1  0
  6  1  1  0
  7 12  2  0
  8  7  1  0
  9  8  2  0
  9 10  1  0
 10 11  2  0
 11 12  1  0
 14  6  1  0
 15 14  1  0
 16 15  2  0
 17 16  1  0
 18 17  2  0
 18 19  1  0
 19 15  1  0
 21 22  2  0
 21 20  1  0
 22 18  1  0
 23 22  1  0
 24 23  2  0
 25 26  2  0
 25 24  1  0
 26 21  1  0
  3 27  1  0
  4 28  1  0
  5 29  1  0
  7 30  1  0
  8 31  1  0
 11 32  1  0
 13 33  1  0
 16 34  1  0
 17 35  1  0
 23 36  1  0
 24 37  1  0
 25 38  1  0
 26 39  1  0
M  ISO  8  27  14  28  14  29  14  30  14  31  14  32  14  33   3  34  14
M  ISO  5  35  14  36  14  37  14  38  14  39  14
M  END
>  <minimizedAffinity>  (1) 
-6.46499872

>  <minimizedRMSD>  (1) 
0.473670661

$$$$
