
     RDKit          3D

 32 34  0  0  0  0  0  0  0  0999 V2000
   45.3960   36.2110   43.3670 C   0  0  0  0  0  0  0  0  0  0  0  0
   46.0440   35.0040   43.0680 C   0  0  0  0  0  0  0  0  0  0  0  0
   45.8970   34.0020   44.0310 C   0  0  0  0  0  0  0  0  0  0  0  0
   45.1890   34.1870   45.1530 N   0  0  0  0  0  0  0  0  0  0  0  0
   44.5800   35.3830   45.3910 C   0  0  0  0  0  0  0  0  0  0  0  0
   44.6850   36.3810   44.5040 N   0  0  0  0  0  0  0  0  0  0  0  0
   46.5190   32.7640   43.8090 C   0  0  0  0  0  0  0  0  0  0  0  0
   47.7950   32.2960   43.9660 C   0  0  0  0  0  0  0  0  0  0  0  0
   48.1320   31.0440   43.6730 C   0  0  0  0  0  0  0  0  0  0  0  0
   47.1460   30.2300   43.2030 C   0  0  0  0  0  0  0  0  0  0  0  0
   45.6650   31.3390   43.1880 S   0  0  0  0  0  0  0  0  0  0  0  0
   46.7780   34.8680   41.8620 C   0  0  0  0  0  0  0  0  0  0  0  0
   47.9530   35.3390   41.8670 O   0  0  0  0  0  0  0  0  0  0  0  0
   46.1520   34.1960   40.6730 C   0  0  0  0  0  0  0  0  0  0  0  0
   44.8080   34.0660   40.4180 C   0  0  0  0  0  0  0  0  0  0  0  0
   44.7240   33.4000   39.2520 N   0  0  0  0  0  0  0  0  0  0  0  0
   45.9830   33.1320   38.8120 C   0  0  0  0  0  0  0  0  0  0  0  0
   46.8740   33.6260   39.6940 N   0  0  0  0  0  0  0  0  0  0  0  0
   46.4430   32.4230   37.5830 C   0  0  0  0  0  0  0  0  0  0  0  0
   45.5870   32.7780   36.3790 C   0  0  0  0  0  0  0  0  0  0  0  0
   45.4685   37.0456   42.6541 H   0  0  0  0  0  0  0  0  0  0  0  0
   44.0005   35.5290   46.3145 H   0  0  0  0  0  0  0  0  0  0  0  0
   48.5683   32.9790   44.3476 H   0  0  0  0  0  0  0  0  0  0  0  0
   49.1621   30.6811   43.8043 H   0  0  0  0  0  0  0  0  0  0  0  0
   47.2137   29.1732   42.9055 H   0  0  0  0  0  0  0  0  0  0  0  0
   43.9752   34.4302   41.0375 H   0  0  0  0  0  0  0  0  0  0  0  0
   43.8514   33.1368   38.7722 H   0  0  0  0  0  0  0  0  0  0  0  0
   47.4854   32.7070   37.3761 H   0  0  0  0  0  0  0  0  0  0  0  0
   46.3581   31.3404   37.7583 H   0  0  0  0  0  0  0  0  0  0  0  0
   44.6213   33.1785   36.7210 H   0  0  0  0  0  0  0  0  0  0  0  0
   46.1041   33.5359   35.7722 H   0  0  0  0  0  0  0  0  0  0  0  0
   45.4159   31.8766   35.7722 H   0  0  0  0  0  0  0  0  0  0  0  0
  1  6  2  0
  2  1  1  0
  2  3  2  0
  3  4  1  0
  4  5  2  0
  6  5  1  0
  7  8  2  0
  7  3  1  0
  9  8  1  0
 10  9  2  0
 11 10  1  0
 11  7  1  0
 12 13  2  0
 12  2  1  0
 14 12  1  0
 15 14  2  0
 16 15  1  0
 17 16  1  0
 17 18  2  0
 18 14  1  0
 19 17  1  0
 20 19  1  0
  1 21  1  0
  5 22  1  0
  8 23  1  0
  9 24  1  0
 10 25  1  0
 15 26  1  0
 16 27  1  0
 19 28  1  0
 19 29  1  0
 20 30  1  0
 20 31  1  0
 20 32  1  0
M  ISO  8  21  14  22  14  23  14  24  14  25  14  26  14  27   9  28   8
M  ISO  4  29   8  30   8  31   8  32   8
M  END
>  <minimizedAffinity>  (1) 
-4.39989662

>  <minimizedRMSD>  (1) 
0.445279002

$$$$
