
     RDKit          3D

 35 37  0  0  0  0  0  0  0  0999 V2000
   47.5280   31.1600   47.1600 C   0  0  0  0  0  0  0  0  0  0  0  0
   47.8360   31.9840   48.2170 C   0  0  0  0  0  0  0  0  0  0  0  0
   48.6290   31.4780   49.2260 C   0  0  0  0  0  0  0  0  0  0  0  0
   49.1160   30.1830   49.2040 C   0  0  0  0  0  0  0  0  0  0  0  0
   49.8820   29.7300   50.2020 N   0  0  0  0  0  0  0  0  0  0  0  0
   50.3660   28.4560   50.1880 C   0  0  0  0  0  0  0  0  0  0  0  0
   50.0630   27.6290   49.1350 C   0  0  0  0  0  0  0  0  0  0  0  0
   49.2710   28.0990   48.1070 C   0  0  0  0  0  0  0  0  0  0  0  0
   48.7640   29.4090   48.1050 C   0  0  0  0  0  0  0  0  0  0  0  0
   47.9760   29.8660   47.0720 C   0  0  0  0  0  0  0  0  0  0  0  0
   46.5030   31.8360   45.8710 S   0  0  0  0  0  0  0  0  0  0  0  0
   45.5950   33.2770   46.4520 C   0  0  0  0  0  0  0  0  0  0  0  0
   44.5880   36.1130   44.2640 C   0  0  0  0  0  0  0  0  0  0  0  0
   45.3660   35.8790   43.1350 C   0  0  0  0  0  0  0  0  0  0  0  0
   46.2290   34.7570   43.1260 C   0  0  0  0  0  0  0  0  0  0  0  0
   46.2750   33.9430   44.2120 N   0  0  0  0  0  0  0  0  0  0  0  0
   45.4840   34.2190   45.3040 C   0  0  0  0  0  0  0  0  0  0  0  0
   44.6590   35.2860   45.3210 N   0  0  0  0  0  0  0  0  0  0  0  0
   47.1170   34.3720   42.0080 C   0  0  0  0  0  0  0  0  0  0  0  0
   48.2020   35.3600   41.7520 C   0  0  0  0  0  0  0  0  0  0  0  0
   47.4607   33.0172   48.2568 H   0  0  0  0  0  0  0  0  0  0  0  0
   48.8830   32.1264   50.0775 H   0  0  0  0  0  0  0  0  0  0  0  0
   50.9948   28.0931   51.0144 H   0  0  0  0  0  0  0  0  0  0  0  0
   50.4487   26.5991   49.1107 H   0  0  0  0  0  0  0  0  0  0  0  0
   49.0305   27.4303   47.2674 H   0  0  0  0  0  0  0  0  0  0  0  0
   47.7180   29.2240   46.2168 H   0  0  0  0  0  0  0  0  0  0  0  0
   44.5927   32.9787   46.7932 H   0  0  0  0  0  0  0  0  0  0  0  0
   46.1144   33.7512   47.2978 H   0  0  0  0  0  0  0  0  0  0  0  0
   43.9110   36.9796   44.2919 H   0  0  0  0  0  0  0  0  0  0  0  0
   45.3117   36.5522   42.2667 H   0  0  0  0  0  0  0  0  0  0  0  0
   47.5771   33.4015   42.2455 H   0  0  0  0  0  0  0  0  0  0  0  0
   46.4974   34.3251   41.1003 H   0  0  0  0  0  0  0  0  0  0  0  0
   48.6009   35.7232   42.7106 H   0  0  0  0  0  0  0  0  0  0  0  0
   49.0079   34.8791   41.1782 H   0  0  0  0  0  0  0  0  0  0  0  0
   47.7985   36.2073   41.1782 H   0  0  0  0  0  0  0  0  0  0  0  0
  1  2  2  0
  2  3  1  0
  4  3  2  0
  4  5  1  0
  6  5  2  0
  7  6  1  0
  8  7  2  0
  9  8  1  0
  9  4  1  0
 10  1  1  0
 10  9  2  0
 11 12  1  0
 11  1  1  0
 13 18  2  0
 14 13  1  0
 15 14  2  0
 15 16  1  0
 16 17  2  0
 17 18  1  0
 17 12  1  0
 19 15  1  0
 20 19  1  0
  2 21  1  0
  3 22  1  0
  6 23  1  0
  7 24  1  0
  8 25  1  0
 10 26  1  0
 12 27  1  0
 12 28  1  0
 13 29  1  0
 14 30  1  0
 19 31  1  0
 19 32  1  0
 20 33  1  0
 20 34  1  0
 20 35  1  0
M  ISO  8  21  14  22  14  23  14  24  14  25  14  26  14  27   8  28   8
M  ISO  7  29  14  30  14  31   8  32   8  33   8  34   8  35   8
M  END
>  <minimizedAffinity>  (1) 
-5.40625

>  <minimizedRMSD>  (1) 
0.250168592

$$$$
