
     RDKit          3D

 18 18  0  0  0  0  0  0  0  0999 V2000
   45.0320   35.7150   43.8530 C   0  0  0  0  0  0  0  0  0  0  0  0
   46.0040   34.8030   43.3890 C   0  0  0  0  0  0  0  0  0  0  0  0
   46.4300   33.7610   44.2300 C   0  0  0  0  0  0  0  0  0  0  0  0
   45.8620   33.7100   45.4630 N   0  0  0  0  0  0  0  0  0  0  0  0
   44.9370   34.5810   45.8990 C   0  0  0  0  0  0  0  0  0  0  0  0
   44.5310   35.5790   45.0840 N   0  0  0  0  0  0  0  0  0  0  0  0
   44.6230   36.7530   42.9900 N   0  0  0  0  0  0  0  0  0  0  0  0
   46.5300   34.9960   42.0000 C   0  0  0  0  0  0  0  0  0  0  0  0
   48.0040   35.2260   41.9540 C   0  0  0  0  0  0  0  0  0  0  0  0
   47.1826   33.0264   43.9075 H   0  0  0  0  0  0  0  0  0  0  0  0
   44.5142   34.4826   46.9097 H   0  0  0  0  0  0  0  0  0  0  0  0
   45.0297   36.8289   42.0468 H   0  0  0  0  0  0  0  0  0  0  0  0
   43.9176   37.4351   43.3030 H   0  0  0  0  0  0  0  0  0  0  0  0
   46.2984   34.0965   41.4107 H   0  0  0  0  0  0  0  0  0  0  0  0
   46.0468   35.8953   41.5905 H   0  0  0  0  0  0  0  0  0  0  0  0
   48.3977   35.2874   42.9793 H   0  0  0  0  0  0  0  0  0  0  0  0
   48.4888   34.3926   41.4244 H   0  0  0  0  0  0  0  0  0  0  0  0
   48.2119   36.1674   41.4244 H   0  0  0  0  0  0  0  0  0  0  0  0
  1  6  2  0
  2  1  1  0
  2  3  2  0
  3  4  1  0
  4  5  2  0
  6  5  1  0
  7  1  1  0
  8  2  1  0
  9  8  1  0
  3 10  1  0
  5 11  1  0
  7 12  1  0
  7 13  1  0
  8 14  1  0
  8 15  1  0
  9 16  1  0
  9 17  1  0
  9 18  1  0
M  ISO  7  10  14  11  14  14   8  15   8  16   8  17   8  18   8
M  END
>  <minimizedAffinity>  (1) 
-3.68834949

>  <minimizedRMSD>  (1) 
0.937850356

$$$$
