
     RDKit          3D

 18 18  0  0  0  0  0  0  0  0999 V2000
   44.4970   35.8750   44.7260 C   0  0  0  0  0  0  0  0  0  0  0  0
   45.1240   35.8720   43.4730 C   0  0  0  0  0  0  0  0  0  0  0  0
   46.0700   34.8760   43.2160 C   0  0  0  0  0  0  0  0  0  0  0  0
   46.3230   33.9710   44.1960 N   0  0  0  0  0  0  0  0  0  0  0  0
   45.7030   34.0030   45.3850 C   0  0  0  0  0  0  0  0  0  0  0  0
   44.7940   34.9510   45.6480 N   0  0  0  0  0  0  0  0  0  0  0  0
   46.7280   34.8370   41.9610 N   0  0  0  0  0  0  0  0  0  0  0  0
   46.1540   32.9050   46.2840 C   0  0  0  0  0  0  0  0  0  0  0  0
   45.2920   32.8670   47.5310 C   0  0  0  0  0  0  0  0  0  0  0  0
   43.7493   36.6484   44.9556 H   0  0  0  0  0  0  0  0  0  0  0  0
   44.8791   36.6304   42.7148 H   0  0  0  0  0  0  0  0  0  0  0  0
   47.4258   34.1044   41.7679 H   0  0  0  0  0  0  0  0  0  0  0  0
   46.5083   35.5412   41.2422 H   0  0  0  0  0  0  0  0  0  0  0  0
   46.0714   31.9442   45.7549 H   0  0  0  0  0  0  0  0  0  0  0  0
   47.2000   33.0831   46.5740 H   0  0  0  0  0  0  0  0  0  0  0  0
   45.9356   32.8954   48.4226 H   0  0  0  0  0  0  0  0  0  0  0  0
   44.6180   33.7363   47.5375 H   0  0  0  0  0  0  0  0  0  0  0  0
   44.6971   31.9418   47.5375 H   0  0  0  0  0  0  0  0  0  0  0  0
  1  6  2  0
  2  1  1  0
  3  2  2  0
  3  4  1  0
  4  5  2  0
  5  6  1  0
  5  8  1  0
  7  3  1  0
  8  9  1  0
  1 10  1  0
  2 11  1  0
  7 12  1  0
  7 13  1  0
  8 14  1  0
  8 15  1  0
  9 16  1  0
  9 17  1  0
  9 18  1  0
M  ISO  7  10  14  11  14  14   8  15   8  16   8  17   8  18   8
M  END
>  <minimizedAffinity>  (1) 
-3.49274635

>  <minimizedRMSD>  (1) 
0.316143006

$$$$
