
     RDKit          3D

 31 31  0  0  0  0  0  0  0  0999 V2000
   43.5350   35.5490   41.6810 C   0  0  0  0  0  0  0  0  0  0  0  0
   43.3150   35.6800   43.1180 N   0  0  0  0  0  0  0  0  0  0  0  0
   44.7600   35.9330   43.9970 S   0  0  0  0  0  0  0  0  0  0  0  0
   45.9450   35.3810   43.2840 O   0  0  0  0  0  0  0  0  0  0  0  0
   44.9070   37.4300   44.1370 O   0  0  0  0  0  0  0  0  0  0  0  0
   44.6110   35.3030   45.5380 O   0  0  0  0  0  0  0  0  0  0  0  0
   45.3400   34.1460   45.6910 C   0  0  0  0  0  0  0  0  0  0  0  0
   43.0840   33.8780   41.2330 S   0  0  0  0  0  0  0  0  0  0  0  0
   40.4750   34.5190   40.5650 C   0  0  0  0  0  0  0  0  0  0  0  0
   41.6330   33.8990   40.1490 C   0  0  0  0  0  0  0  0  0  0  0  0
   41.7330   33.2780   38.9080 C   0  0  0  0  0  0  0  0  0  0  0  0
   40.6240   33.3130   38.1220 N   0  0  0  0  0  0  0  0  0  0  0  0
   39.5030   33.9240   38.5440 C   0  0  0  0  0  0  0  0  0  0  0  0
   39.4080   34.5110   39.7170 N   0  0  0  0  0  0  0  0  0  0  0  0
   38.3720   33.8810   37.5750 C   0  0  0  0  0  0  0  0  0  0  0  0
   38.0960   32.4680   37.0980 C   0  0  0  0  0  0  0  0  0  0  0  0
   42.9070   36.2688   41.1356 H   0  0  0  0  0  0  0  0  0  0  0  0
   44.5848   35.7543   41.4244 H   0  0  0  0  0  0  0  0  0  0  0  0
   42.6871   36.4799   43.2820 H   0  0  0  0  0  0  0  0  0  0  0  0
   46.6127   35.0700   43.9454 H   0  0  0  0  0  0  0  0  0  0  0  0
   44.9307   37.6709   45.0969 H   0  0  0  0  0  0  0  0  0  0  0  0
   45.4728   33.9353   46.7624 H   0  0  0  0  0  0  0  0  0  0  0  0
   44.8051   33.3101   45.2164 H   0  0  0  0  0  0  0  0  0  0  0  0
   46.3249   34.2677   45.2164 H   0  0  0  0  0  0  0  0  0  0  0  0
   40.4136   35.0049   41.5500 H   0  0  0  0  0  0  0  0  0  0  0  0
   42.6600   32.7849   38.5801 H   0  0  0  0  0  0  0  0  0  0  0  0
   37.4687   34.2752   38.0635 H   0  0  0  0  0  0  0  0  0  0  0  0
   38.6454   34.4908   36.7013 H   0  0  0  0  0  0  0  0  0  0  0  0
   37.9667   31.8063   37.9671 H   0  0  0  0  0  0  0  0  0  0  0  0
   37.1791   32.4586   36.4904 H   0  0  0  0  0  0  0  0  0  0  0  0
   38.9420   32.1143   36.4904 H   0  0  0  0  0  0  0  0  0  0  0  0
  1  2  1  0
  2  3  1  0
  3  5  1  0
  3  6  1  0
  4  3  1  0
  6  7  1  0
  8  1  1  0
 10  9  2  0
 10  8  1  0
 11 10  1  0
 12 13  1  0
 12 11  2  0
 13 14  2  0
 14  9  1  0
 15 13  1  0
 16 15  1  0
  1 17  1  0
  1 18  1  0
  2 19  1  0
  4 20  1  0
  5 21  1  0
  7 22  1  0
  7 23  1  0
  7 24  1  0
  9 25  1  0
 11 26  1  0
 15 27  1  0
 15 28  1  0
 16 29  1  0
 16 30  1  0
 16 31  1  0
M  ISO  8  17   8  18   8  19   5  20   3  21   3  22   8  23   8  24   8
M  ISO  7  25  14  26  14  27   8  28   8  29   8  30   8  31   8
M  END
>  <minimizedAffinity>  (1) 
-4.75517893

>  <minimizedRMSD>  (1) 
1.26596248

$$$$
