
     RDKit          3D

 26 27  0  0  0  0  0  0  0  0999 V2000
   44.6960   33.0320   41.4000 Cl  0  0  0  0  0  0  0  0  0  0  0  0
   46.2100   33.8730   41.0700 C   0  0  0  0  0  0  0  0  0  0  0  0
   46.8100   34.6250   42.0590 C   0  0  0  0  0  0  0  0  0  0  0  0
   47.9860   35.2590   41.7540 C   0  0  0  0  0  0  0  0  0  0  0  0
   48.5570   35.1560   40.5030 C   0  0  0  0  0  0  0  0  0  0  0  0
   47.9020   34.3800   39.5430 C   0  0  0  0  0  0  0  0  0  0  0  0
   48.6360   34.2570   37.9590 Cl  0  0  0  0  0  0  0  0  0  0  0  0
   46.7260   33.7280   39.8010 C   0  0  0  0  0  0  0  0  0  0  0  0
   44.5360   35.7020   44.8960 C   0  0  0  0  0  0  0  0  0  0  0  0
   45.1770   35.6560   43.6480 C   0  0  0  0  0  0  0  0  0  0  0  0
   46.1390   34.6810   43.3520 C   0  0  0  0  0  0  0  0  0  0  0  0
   46.3980   33.8050   44.3430 N   0  0  0  0  0  0  0  0  0  0  0  0
   45.7930   33.8380   45.5380 C   0  0  0  0  0  0  0  0  0  0  0  0
   44.8770   34.7750   45.8030 N   0  0  0  0  0  0  0  0  0  0  0  0
   46.1890   32.7970   46.5310 C   0  0  0  0  0  0  0  0  0  0  0  0
   45.2370   32.7710   47.7120 C   0  0  0  0  0  0  0  0  0  0  0  0
   48.4860   35.8639   42.5248 H   0  0  0  0  0  0  0  0  0  0  0  0
   49.5007   35.6698   40.2676 H   0  0  0  0  0  0  0  0  0  0  0  0
   46.2202   33.1208   39.0358 H   0  0  0  0  0  0  0  0  0  0  0  0
   43.7817   36.4702   45.1217 H   0  0  0  0  0  0  0  0  0  0  0  0
   44.9178   36.4035   42.8838 H   0  0  0  0  0  0  0  0  0  0  0  0
   46.1790   31.8122   46.0410 H   0  0  0  0  0  0  0  0  0  0  0  0
   47.1963   33.0368   46.9023 H   0  0  0  0  0  0  0  0  0  0  0  0
   45.8139   32.7868   48.6484 H   0  0  0  0  0  0  0  0  0  0  0  0
   44.5789   33.6515   47.6719 H   0  0  0  0  0  0  0  0  0  0  0  0
   44.6279   31.8559   47.6719 H   0  0  0  0  0  0  0  0  0  0  0  0
  2  1  1  0
  2  3  2  0
  3 11  1  0
  4  3  1  0
  5  4  2  0
  6  8  2  0
  6  5  1  0
  7  6  1  0
  8  2  1  0
  9 14  2  0
 10  9  1  0
 11 10  2  0
 11 12  1  0
 12 13  2  0
 13 14  1  0
 13 15  1  0
 15 16  1  0
  4 17  1  0
  5 18  1  0
  8 19  1  0
  9 20  1  0
 10 21  1  0
 15 22  1  0
 15 23  1  0
 16 24  1  0
 16 25  1  0
 16 26  1  0
M  ISO  8  17  14  18  14  19  14  20  14  21  14  22   8  23   8  24   8
M  ISO  2  25   8  26   8
M  END
>  <minimizedAffinity>  (1) 
-5.52733469

>  <minimizedRMSD>  (1) 
0.231076151

$$$$
