
     RDKit          3D

 30 31  0  0  0  0  0  0  0  0999 V2000
   43.9530   34.7350   41.3300 N   0  0  0  0  0  0  0  0  0  0  0  0
   45.2400   34.2600   40.9300 C   0  0  0  0  0  0  0  0  0  0  0  0
   46.2980   34.3690   41.9620 C   0  0  0  0  0  0  0  0  0  0  0  0
   46.2920   35.5710   42.7140 N   0  0  0  0  0  0  0  0  0  0  0  0
   45.0420   36.1440   42.9910 C   0  0  0  0  0  0  0  0  0  0  0  0
   43.8900   35.2000   42.6810 C   0  0  0  0  0  0  0  0  0  0  0  0
   41.7510   35.4210   40.6980 C   0  0  0  0  0  0  0  0  0  0  0  0
   42.9100   34.6930   40.3640 C   0  0  0  0  0  0  0  0  0  0  0  0
   42.9530   34.0120   39.1600 C   0  0  0  0  0  0  0  0  0  0  0  0
   41.8730   34.0700   38.3360 N   0  0  0  0  0  0  0  0  0  0  0  0
   40.7730   34.7750   38.6790 C   0  0  0  0  0  0  0  0  0  0  0  0
   40.7070   35.4430   39.8400 N   0  0  0  0  0  0  0  0  0  0  0  0
   39.6910   34.7380   37.6790 C   0  0  0  0  0  0  0  0  0  0  0  0
   38.6060   33.7380   38.0700 C   0  0  0  0  0  0  0  0  0  0  0  0
   45.1414   33.1999   40.6535 H   0  0  0  0  0  0  0  0  0  0  0  0
   45.5582   34.9021   40.0955 H   0  0  0  0  0  0  0  0  0  0  0  0
   46.1766   33.5297   42.6626 H   0  0  0  0  0  0  0  0  0  0  0  0
   47.2543   34.3561   41.4185 H   0  0  0  0  0  0  0  0  0  0  0  0
   46.7506   35.3756   43.6153 H   0  0  0  0  0  0  0  0  0  0  0  0
   45.0037   36.4097   44.0577 H   0  0  0  0  0  0  0  0  0  0  0  0
   44.9303   37.0313   42.3504 H   0  0  0  0  0  0  0  0  0  0  0  0
   42.9392   35.7316   42.8337 H   0  0  0  0  0  0  0  0  0  0  0  0
   43.9604   34.3315   43.3524 H   0  0  0  0  0  0  0  0  0  0  0  0
   41.6961   35.9679   41.6508 H   0  0  0  0  0  0  0  0  0  0  0  0
   43.8446   33.4343   38.8748 H   0  0  0  0  0  0  0  0  0  0  0  0
   40.1128   34.4464   36.7058 H   0  0  0  0  0  0  0  0  0  0  0  0
   39.2365   35.7382   37.6232 H   0  0  0  0  0  0  0  0  0  0  0  0
   38.5407   33.6778   39.1664 H   0  0  0  0  0  0  0  0  0  0  0  0
   37.6390   34.0682   37.6627 H   0  0  0  0  0  0  0  0  0  0  0  0
   38.8564   32.7473   37.6627 H   0  0  0  0  0  0  0  0  0  0  0  0
  1  6  1  0
  2  1  1  0
  2  3  1  0
  3  4  1  0
  4  5  1  0
  6  5  1  0
  8  7  2  0
  8  1  1  0
  9  8  1  0
 10 11  1  0
 10  9  2  0
 11 12  2  0
 12  7  1  0
 13 14  1  0
 13 11  1  0
  2 15  1  0
  2 16  1  0
  3 17  1  0
  3 18  1  0
  4 19  1  0
  5 20  1  0
  5 21  1  0
  6 22  1  0
  6 23  1  0
  7 24  1  0
  9 25  1  0
 13 26  1  0
 13 27  1  0
 14 28  1  0
 14 29  1  0
 14 30  1  0
M  ISO  8  15  13  16  13  17  13  18  13  19   5  20  13  21  13  22  13
M  ISO  8  23  13  24  14  25  14  26   8  27   8  28   8  29   8  30   8
M  END
>  <minimizedAffinity>  (1) 
-4.14978886

>  <minimizedRMSD>  (1) 
6.54783487

$$$$
