
     RDKit          3D

 28 29  0  0  0  0  0  0  0  0999 V2000
   45.6030   32.2410   44.1470 C   0  0  0  0  0  0  0  0  0  0  0  0
   44.7540   35.7780   44.6370 C   0  0  0  0  0  0  0  0  0  0  0  0
   45.2380   36.4050   43.4880 C   0  0  0  0  0  0  0  0  0  0  0  0
   45.8560   35.6080   42.5500 C   0  0  0  0  0  0  0  0  0  0  0  0
   45.9650   34.2870   42.7700 N   0  0  0  0  0  0  0  0  0  0  0  0
   45.4840   33.7030   43.8980 C   0  0  0  0  0  0  0  0  0  0  0  0
   44.8680   34.4640   44.8480 N   0  0  0  0  0  0  0  0  0  0  0  0
   45.0400   37.8050   43.4140 N   0  0  0  0  0  0  0  0  0  0  0  0
   46.1040   31.9880   45.5400 C   0  0  0  0  0  0  0  0  0  0  0  0
   47.2720   31.3270   45.8180 C   0  0  0  0  0  0  0  0  0  0  0  0
   47.4130   31.2800   47.2080 C   0  0  0  0  0  0  0  0  0  0  0  0
   46.2950   31.9300   47.6970 C   0  0  0  0  0  0  0  0  0  0  0  0
   45.5950   32.3070   46.6850 O   0  0  0  0  0  0  0  0  0  0  0  0
   45.9330   32.1720   49.1310 C   0  0  0  0  0  0  0  0  0  0  0  0
   44.9830   31.0740   49.5610 C   0  0  0  0  0  0  0  0  0  0  0  0
   46.3080   31.8060   43.4233 H   0  0  0  0  0  0  0  0  0  0  0  0
   44.6120   31.7772   44.0337 H   0  0  0  0  0  0  0  0  0  0  0  0
   44.2571   36.3926   45.4021 H   0  0  0  0  0  0  0  0  0  0  0  0
   46.2579   36.0502   41.6264 H   0  0  0  0  0  0  0  0  0  0  0  0
   45.3732   38.3295   42.5926 H   0  0  0  0  0  0  0  0  0  0  0  0
   44.5628   38.2989   44.1816 H   0  0  0  0  0  0  0  0  0  0  0  0
   47.9724   30.9087   45.0801 H   0  0  0  0  0  0  0  0  0  0  0  0
   48.2322   30.8262   47.7851 H   0  0  0  0  0  0  0  0  0  0  0  0
   46.8389   32.1483   49.7546 H   0  0  0  0  0  0  0  0  0  0  0  0
   45.4580   33.1575   49.2460 H   0  0  0  0  0  0  0  0  0  0  0  0
   44.9457   31.0308   50.6595 H   0  0  0  0  0  0  0  0  0  0  0  0
   43.9774   31.2844   49.1679 H   0  0  0  0  0  0  0  0  0  0  0  0
   45.3358   30.1091   49.1679 H   0  0  0  0  0  0  0  0  0  0  0  0
  1  9  1  0
  2  7  2  0
  3  2  1  0
  4  5  1  0
  4  3  2  0
  5  6  2  0
  6  1  1  0
  6  7  1  0
  8  3  1  0
  9 10  2  0
  9 13  1  0
 10 11  1  0
 11 12  2  0
 12 14  1  0
 13 12  1  0
 14 15  1  0
  1 16  1  0
  1 17  1  0
  2 18  1  0
  4 19  1  0
  8 20  1  0
  8 21  1  0
 10 22  1  0
 11 23  1  0
 14 24  1  0
 14 25  1  0
 15 26  1  0
 15 27  1  0
 15 28  1  0
M  ISO  8  16   8  17   8  18  14  19  14  22  14  23  14  24   8  25   8
M  ISO  3  26   8  27   8  28   8
M  END
>  <minimizedAffinity>  (1) 
-4.27258158

>  <minimizedRMSD>  (1) 
1.13368118

$$$$
