
     RDKit          3D

 42 44  0  0  1  0  0  0  0  0999 V2000
   47.4360   33.3420   43.1650 C   0  0  0  0  0  0  0  0  0  0  0  0
   48.3150   32.9140   43.9800 O   0  0  0  0  0  0  0  0  0  0  0  0
   47.4130   32.9950   41.7790 N   0  0  0  0  0  0  0  0  0  0  0  0
   46.2900   32.5980   40.9260 C   0  0  0  0  0  0  0  0  0  0  0  0
   46.2840   33.4700   39.6750 C   0  0  0  0  0  0  0  0  0  0  0  0
   47.5320   33.2540   38.8710 C   0  0  0  0  0  0  0  0  0  0  0  0
   48.5170   32.4560   39.7000 C   0  0  0  0  0  0  0  0  0  0  0  0
   48.6670   33.0300   41.0810 C   0  0  2  0  0  0  0  0  0  0  0  0
   46.0940   35.3770   42.9240 C   0  0  0  0  0  0  0  0  0  0  0  0
   46.4130   34.2230   43.6800 C   0  0  0  0  0  0  0  0  0  0  0  0
   45.7560   33.9840   44.8550 C   0  0  0  0  0  0  0  0  0  0  0  0
   44.8160   34.8640   45.2570 N   0  0  0  0  0  0  0  0  0  0  0  0
   44.4960   35.9760   44.5490 C   0  0  0  0  0  0  0  0  0  0  0  0
   45.1470   36.2040   43.3920 N   0  0  0  0  0  0  0  0  0  0  0  0
   46.1000   32.8000   45.6150 C   0  0  0  0  0  0  0  0  0  0  0  0
   45.6770   31.5690   45.2080 C   0  0  0  0  0  0  0  0  0  0  0  0
   46.0210   30.4610   45.9520 C   0  0  0  0  0  0  0  0  0  0  0  0
   46.7830   30.5330   47.1050 C   0  0  0  0  0  0  0  0  0  0  0  0
   47.1870   31.8070   47.4780 C   0  0  0  0  0  0  0  0  0  0  0  0
   46.8390   32.8690   46.7360 N   0  0  0  0  0  0  0  0  0  0  0  0
   49.8150   32.3050   41.7040 C   0  0  0  0  0  0  0  0  0  0  0  0
   50.9800   33.1500   42.0970 C   0  0  0  0  0  0  0  0  0  0  0  0
   46.4004   31.5419   40.6388 H   0  0  0  0  0  0  0  0  0  0  0  0
   45.3444   32.7265   41.4730 H   0  0  0  0  0  0  0  0  0  0  0  0
   45.4092   33.2125   39.0598 H   0  0  0  0  0  0  0  0  0  0  0  0
   46.2389   34.5258   39.9805 H   0  0  0  0  0  0  0  0  0  0  0  0
   47.2883   32.7001   37.9524 H   0  0  0  0  0  0  0  0  0  0  0  0
   47.9732   34.2243   38.5993 H   0  0  0  0  0  0  0  0  0  0  0  0
   48.1586   31.4192   39.7809 H   0  0  0  0  0  0  0  0  0  0  0  0
   49.4972   32.4938   39.2022 H   0  0  0  0  0  0  0  0  0  0  0  0
   48.9133   34.1019   41.0997 H   0  0  0  0  0  0  0  0  0  0  0  0
   46.6100   35.5902   41.9762 H   0  0  0  0  0  0  0  0  0  0  0  0
   43.7254   36.6730   44.9101 H   0  0  0  0  0  0  0  0  0  0  0  0
   45.0690   31.4618   44.2976 H   0  0  0  0  0  0  0  0  0  0  0  0
   45.6738   29.4736   45.6136 H   0  0  0  0  0  0  0  0  0  0  0  0
   47.0508   29.6391   47.6874 H   0  0  0  0  0  0  0  0  0  0  0  0
   47.7942   31.9465   48.3845 H   0  0  0  0  0  0  0  0  0  0  0  0
   49.4444   31.7995   42.6080 H   0  0  0  0  0  0  0  0  0  0  0  0
   50.1907   31.6193   40.9303 H   0  0  0  0  0  0  0  0  0  0  0  0
   51.0452   33.1973   43.1940 H   0  0  0  0  0  0  0  0  0  0  0  0
   51.9042   32.7108   41.6934 H   0  0  0  0  0  0  0  0  0  0  0  0
   50.8496   34.1649   41.6934 H   0  0  0  0  0  0  0  0  0  0  0  0
  1 10  1  0
  1  2  2  0
  3  1  1  0
  4  3  1  0
  5  4  1  0
  6  5  1  0
  6  7  1  0
  7  8  1  0
  8 21  1  0
  8  3  1  0
  9 14  2  0
  9 10  1  0
 10 11  2  0
 11 12  1  0
 11 15  1  0
 13 12  2  0
 14 13  1  0
 15 20  1  0
 16 15  2  0
 16 17  1  0
 17 18  2  0
 18 19  1  0
 20 19  2  0
 21 22  1  0
  4 23  1  0
  4 24  1  0
  5 25  1  0
  5 26  1  0
  6 27  1  0
  6 28  1  0
  7 29  1  0
  7 30  1  0
  8 31  1  6
  9 32  1  0
 13 33  1  0
 16 34  1  0
 17 35  1  0
 18 36  1  0
 19 37  1  0
 21 38  1  0
 21 39  1  0
 22 40  1  0
 22 41  1  0
 22 42  1  0
M  ISO  8  23  13  24  13  25  13  26  13  27  13  28  13  29  13  30  13
M  ISO  8  31  13  32  14  33  14  34  14  35  14  36  14  37  14  38   8
M  ISO  4  39   8  40   8  41   8  42   8
M  END
>  <minimizedAffinity>  (1) 
-5.10582018

>  <minimizedRMSD>  (1) 
0.730181813

$$$$
