
     RDKit          3D

 19 19  0  0  0  0  0  0  0  0999 V2000
   44.7570   35.1690   44.9180 C   0  0  0  0  0  0  0  0  0  0  0  0
   45.4560   35.1880   43.6790 C   0  0  0  0  0  0  0  0  0  0  0  0
   46.5110   34.2990   43.5780 C   0  0  0  0  0  0  0  0  0  0  0  0
   46.8140   33.4800   44.6400 N   0  0  0  0  0  0  0  0  0  0  0  0
   46.1140   33.5070   45.7920 C   0  0  0  0  0  0  0  0  0  0  0  0
   45.0860   34.3590   45.9180 N   0  0  0  0  0  0  0  0  0  0  0  0
   47.2290   34.3110   42.3050 C   0  0  0  0  0  0  0  0  0  0  0  0
   48.3630   33.5050   42.4010 F   0  0  0  0  0  0  0  0  0  0  0  0
   47.7210   35.5820   42.1360 F   0  0  0  0  0  0  0  0  0  0  0  0
   46.4970   33.8410   41.2490 F   0  0  0  0  0  0  0  0  0  0  0  0
   44.9520   36.1510   42.7250 C   0  0  0  0  0  0  0  0  0  0  0  0
   43.7940   35.5850   41.9270 C   0  0  0  0  0  0  0  0  0  0  0  0
   43.9076   35.8546   45.0537 H   0  0  0  0  0  0  0  0  0  0  0  0
   46.3837   32.8362   46.6211 H   0  0  0  0  0  0  0  0  0  0  0  0
   44.6103   37.0457   43.2661 H   0  0  0  0  0  0  0  0  0  0  0  0
   45.7633   36.4034   42.0264 H   0  0  0  0  0  0  0  0  0  0  0  0
   43.0234   35.2084   42.6158 H   0  0  0  0  0  0  0  0  0  0  0  0
   43.3647   36.3749   41.2931 H   0  0  0  0  0  0  0  0  0  0  0  0
   44.1535   34.7610   41.2931 H   0  0  0  0  0  0  0  0  0  0  0  0
  1  6  2  0
  2  1  1  0
  3  2  2  0
  3  4  1  0
  4  5  2  0
  5  6  1  0
  7  8  1  0
  7  3  1  0
  9  7  1  0
 10  7  1  0
 11  2  1  0
 12 11  1  0
  1 13  1  0
  5 14  1  0
 11 15  1  0
 11 16  1  0
 12 17  1  0
 12 18  1  0
 12 19  1  0
M  ISO  7  13  14  14  14  15   8  16   8  17   8  18   8  19   8
M  END
>  <minimizedAffinity>  (1) 
-3.85517716

>  <minimizedRMSD>  (1) 
1.00488424

$$$$
