
     RDKit          3D

 32 34  0  0  0  0  0  0  0  0999 V2000
   44.5710   35.8740   44.6210 C   0  0  0  0  0  0  0  0  0  0  0  0
   45.2240   35.8530   43.3840 C   0  0  0  0  0  0  0  0  0  0  0  0
   46.1300   34.8320   43.2100 C   0  0  0  0  0  0  0  0  0  0  0  0
   46.3570   33.9050   44.2050 N   0  0  0  0  0  0  0  0  0  0  0  0
   45.6870   33.9770   45.3930 C   0  0  0  0  0  0  0  0  0  0  0  0
   44.7980   34.9600   45.5970 N   0  0  0  0  0  0  0  0  0  0  0  0
   45.9500   32.9600   46.4100 C   0  0  0  0  0  0  0  0  0  0  0  0
   45.2290   33.0150   47.5870 C   0  0  0  0  0  0  0  0  0  0  0  0
   45.4530   32.0600   48.5680 C   0  0  0  0  0  0  0  0  0  0  0  0
   46.3980   31.0890   48.3210 C   0  0  0  0  0  0  0  0  0  0  0  0
   47.0940   31.0830   47.1190 C   0  0  0  0  0  0  0  0  0  0  0  0
   46.8750   32.0160   46.1600 N   0  0  0  0  0  0  0  0  0  0  0  0
   48.1340   30.0780   46.7550 C   0  0  0  0  0  0  0  0  0  0  0  0
   48.9760   29.6380   47.9050 C   0  0  0  0  0  0  0  0  0  0  0  0
   46.8780   34.6750   41.9120 C   0  0  0  0  0  0  0  0  0  0  0  0
   48.2340   35.3860   41.9250 C   0  0  0  0  0  0  0  0  0  0  0  0
   48.0470   33.8400   41.8630 C   0  0  0  0  0  0  0  0  0  0  0  0
   43.8373   36.6711   44.8115 H   0  0  0  0  0  0  0  0  0  0  0  0
   45.0265   36.6021   42.6031 H   0  0  0  0  0  0  0  0  0  0  0  0
   44.4840   33.8088   47.7450 H   0  0  0  0  0  0  0  0  0  0  0  0
   44.8928   32.0777   49.5145 H   0  0  0  0  0  0  0  0  0  0  0  0
   46.6020   30.3166   49.0772 H   0  0  0  0  0  0  0  0  0  0  0  0
   47.6305   29.1943   46.3360 H   0  0  0  0  0  0  0  0  0  0  0  0
   48.8073   30.5618   46.0321 H   0  0  0  0  0  0  0  0  0  0  0  0
   48.4743   29.9001   48.8482 H   0  0  0  0  0  0  0  0  0  0  0  0
   49.1213   28.5487   47.8574 H   0  0  0  0  0  0  0  0  0  0  0  0
   49.9533   30.1407   47.8574 H   0  0  0  0  0  0  0  0  0  0  0  0
   45.9749   34.6843   41.2840 H   0  0  0  0  0  0  0  0  0  0  0  0
   48.5838   35.9457   41.0450 H   0  0  0  0  0  0  0  0  0  0  0  0
   48.7572   36.1069   42.5704 H   0  0  0  0  0  0  0  0  0  0  0  0
   48.3139   33.2221   42.7330 H   0  0  0  0  0  0  0  0  0  0  0  0
   48.3999   33.0482   41.1858 H   0  0  0  0  0  0  0  0  0  0  0  0
  1  6  2  0
  2  1  1  0
  3  2  2  0
  3  4  1  0
  4  5  2  0
  5  6  1  0
  5  7  1  0
  7  8  2  0
  8  9  1  0
 10  9  2  0
 11 10  1  0
 12  7  1  0
 12 11  2  0
 13 11  1  0
 13 14  1  0
 15 16  1  0
 15  3  1  0
 17 15  1  0
 17 16  1  0
  1 18  1  0
  2 19  1  0
  8 20  1  0
  9 21  1  0
 10 22  1  0
 13 23  1  0
 13 24  1  0
 14 25  1  0
 14 26  1  0
 14 27  1  0
 15 28  1  0
 16 29  1  0
 16 30  1  0
 17 31  1  0
 17 32  1  0
M  ISO  8  18  14  19  14  20  14  21  14  22  14  23   8  24   8  25   8
M  ISO  7  26   8  27   8  28  13  29  13  30  13  31  13  32  13
M  END
>  <minimizedAffinity>  (1) 
-5.34912872

>  <minimizedRMSD>  (1) 
0.307740331

$$$$
