
     RDKit          3D

 40 43  0  0  0  0  0  0  0  0999 V2000
   44.4840   32.2910   40.8430 F   0  0  0  0  0  0  0  0  0  0  0  0
   44.4760   33.5100   41.3820 C   0  0  0  0  0  0  0  0  0  0  0  0
   45.3570   33.8110   42.3820 C   0  0  0  0  0  0  0  0  0  0  0  0
   45.3590   35.0900   42.9580 C   0  0  0  0  0  0  0  0  0  0  0  0
   44.4960   36.0700   42.5480 C   0  0  0  0  0  0  0  0  0  0  0  0
   43.6140   35.7420   41.5360 C   0  0  0  0  0  0  0  0  0  0  0  0
   43.5970   34.4900   40.9580 C   0  0  0  0  0  0  0  0  0  0  0  0
   42.6250   34.2510   39.8960 C   0  0  0  0  0  0  0  0  0  0  0  0
   42.7700   34.0280   38.5550 C   0  0  0  0  0  0  0  0  0  0  0  0
   41.5850   33.8560   37.9490 N   0  0  0  0  0  0  0  0  0  0  0  0
   40.6660   33.9730   38.9290 C   0  0  0  0  0  0  0  0  0  0  0  0
   41.2910   34.2090   40.0920 N   0  0  0  0  0  0  0  0  0  0  0  0
   47.2290   31.6170   44.4080 C   0  0  0  0  0  0  0  0  0  0  0  0
   47.9850   31.5990   43.2400 C   0  0  0  0  0  0  0  0  0  0  0  0
   47.3980   32.4100   42.3220 C   0  0  0  0  0  0  0  0  0  0  0  0
   46.3000   32.9210   42.9090 N   0  0  0  0  0  0  0  0  0  0  0  0
   46.2060   32.4430   44.1530 N   0  0  0  0  0  0  0  0  0  0  0  0
   48.5840   29.1030   46.6810 C   0  0  0  0  0  0  0  0  0  0  0  0
   48.0740   29.5050   47.9350 C   0  0  0  0  0  0  0  0  0  0  0  0
   47.2650   30.6470   47.9660 C   0  0  0  0  0  0  0  0  0  0  0  0
   47.0390   31.2700   46.7990 N   0  0  0  0  0  0  0  0  0  0  0  0
   47.5260   30.8840   45.6090 C   0  0  0  0  0  0  0  0  0  0  0  0
   48.3120   29.7820   45.5510 N   0  0  0  0  0  0  0  0  0  0  0  0
   46.6700   31.1700   49.2200 C   0  0  0  0  0  0  0  0  0  0  0  0
   45.1570   31.1810   49.1730 C   0  0  0  0  0  0  0  0  0  0  0  0
   46.0752   35.3119   43.7629 H   0  0  0  0  0  0  0  0  0  0  0  0
   44.5041   37.0716   43.0027 H   0  0  0  0  0  0  0  0  0  0  0  0
   42.9036   36.5029   41.1805 H   0  0  0  0  0  0  0  0  0  0  0  0
   43.7394   33.9937   38.0362 H   0  0  0  0  0  0  0  0  0  0  0  0
   41.4141   33.6737   36.9498 H   0  0  0  0  0  0  0  0  0  0  0  0
   39.5774   33.8884   38.7958 H   0  0  0  0  0  0  0  0  0  0  0  0
   48.9084   31.0216   43.0852 H   0  0  0  0  0  0  0  0  0  0  0  0
   47.7508   32.6099   41.2995 H   0  0  0  0  0  0  0  0  0  0  0  0
   49.2222   28.2088   46.6260 H   0  0  0  0  0  0  0  0  0  0  0  0
   48.3036   28.9425   48.8520 H   0  0  0  0  0  0  0  0  0  0  0  0
   46.9939   30.5350   50.0577 H   0  0  0  0  0  0  0  0  0  0  0  0
   47.0117   32.2076   49.3492 H   0  0  0  0  0  0  0  0  0  0  0  0
   44.7583   31.1839   50.1982 H   0  0  0  0  0  0  0  0  0  0  0  0
   44.8131   32.0817   48.6433 H   0  0  0  0  0  0  0  0  0  0  0  0
   44.8001   30.2854   48.6433 H   0  0  0  0  0  0  0  0  0  0  0  0
  1  2  1  0
  2  3  2  0
  3 16  1  0
  3  4  1  0
  5  4  2  0
  6  5  1  0
  7  2  1  0
  7  6  2  0
  8 12  1  0
  8  7  1  0
  9  8  2  0
 10  9  1  0
 10 11  1  0
 11 12  2  0
 13 22  1  0
 14 13  1  0
 15 16  1  0
 15 14  2  0
 16 17  1  0
 17 13  2  0
 18 19  2  0
 19 20  1  0
 20 24  1  0
 21 20  2  0
 22 21  1  0
 23 22  2  0
 23 18  1  0
 25 24  1  0
  4 26  1  0
  5 27  1  0
  6 28  1  0
  9 29  1  0
 10 30  1  0
 11 31  1  0
 14 32  1  0
 15 33  1  0
 18 34  1  0
 19 35  1  0
 24 36  1  0
 24 37  1  0
 25 38  1  0
 25 39  1  0
 25 40  1  0
M  ISO  8  26  14  27  14  28  14  29  14  30   9  31  14  32  14  33  14
M  ISO  7  34  14  35  14  36   8  37   8  38   8  39   8  40   8
M  END
>  <minimizedAffinity>  (1) 
-5.2674818

>  <minimizedRMSD>  (1) 
1.8561672

$$$$
