
     RDKit          3D

 35 37  0  0  0  0  0  0  0  0999 V2000
   47.4880   32.8190   43.9360 C   0  0  0  0  0  0  0  0  0  0  0  0
   48.3280   33.3600   43.0410 C   0  0  0  0  0  0  0  0  0  0  0  0
   49.1820   32.4580   42.4340 C   0  0  0  0  0  0  0  0  0  0  0  0
   49.1000   31.1060   42.8000 N   0  0  0  0  0  0  0  0  0  0  0  0
   48.2530   30.6490   43.6910 C   0  0  0  0  0  0  0  0  0  0  0  0
   47.3820   31.5170   44.3160 N   0  0  0  0  0  0  0  0  0  0  0  0
   48.4840   34.7450   42.7630 C   0  0  0  0  0  0  0  0  0  0  0  0
   49.5040   35.3760   42.1230 C   0  0  0  0  0  0  0  0  0  0  0  0
   48.2920   35.1920   41.2530 C   0  0  0  0  0  0  0  0  0  0  0  0
   46.4150   33.5140   44.6590 C   0  0  0  0  0  0  0  0  0  0  0  0
   45.8470   33.8720   45.6610 O   0  0  0  0  0  0  0  0  0  0  0  0
   44.5940   31.7110   42.9440 Cl  0  0  0  0  0  0  0  0  0  0  0  0
   44.6080   33.4610   42.7890 C   0  0  0  0  0  0  0  0  0  0  0  0
   45.4940   34.1350   43.6570 C   0  0  0  0  0  0  0  0  0  0  0  0
   45.4320   35.5040   43.4620 C   0  0  0  0  0  0  0  0  0  0  0  0
   44.6850   36.2180   42.6070 C   0  0  0  0  0  0  0  0  0  0  0  0
   43.8530   35.4930   41.7990 C   0  0  0  0  0  0  0  0  0  0  0  0
   43.8050   34.1470   41.8770 C   0  0  0  0  0  0  0  0  0  0  0  0
   42.9280   33.2550   41.0410 C   0  0  0  0  0  0  0  0  0  0  0  0
   41.4800   33.6490   41.1100 C   0  0  0  0  0  0  0  0  0  0  0  0
   49.9100   32.7930   41.6805 H   0  0  0  0  0  0  0  0  0  0  0  0
   48.2373   29.5774   43.9390 H   0  0  0  0  0  0  0  0  0  0  0  0
   48.0613   34.9310   43.7614 H   0  0  0  0  0  0  0  0  0  0  0  0
   49.7789   36.3930   42.4395 H   0  0  0  0  0  0  0  0  0  0  0  0
   50.5596   35.1029   41.9778 H   0  0  0  0  0  0  0  0  0  0  0  0
   47.6461   36.0418   40.9873 H   0  0  0  0  0  0  0  0  0  0  0  0
   48.0371   34.7323   40.2867 H   0  0  0  0  0  0  0  0  0  0  0  0
   46.0971   36.0970   44.1069 H   0  0  0  0  0  0  0  0  0  0  0  0
   44.7380   37.3157   42.5587 H   0  0  0  0  0  0  0  0  0  0  0  0
   43.2125   36.0160   41.0736 H   0  0  0  0  0  0  0  0  0  0  0  0
   43.0303   32.2207   41.4013 H   0  0  0  0  0  0  0  0  0  0  0  0
   43.2524   33.3509   39.9943 H   0  0  0  0  0  0  0  0  0  0  0  0
   41.1725   33.7327   42.1628 H   0  0  0  0  0  0  0  0  0  0  0  0
   41.3394   34.6181   40.6088 H   0  0  0  0  0  0  0  0  0  0  0  0
   40.8678   32.8848   40.6088 H   0  0  0  0  0  0  0  0  0  0  0  0
  1  6  1  0
  1 10  1  0
  2  1  2  0
  3  4  2  0
  3  2  1  0
  4  5  1  0
  5  6  2  0
  7  2  1  0
  8  7  1  0
  9  8  1  0
  9  7  1  0
 10 11  2  0
 13 12  1  0
 13 14  2  0
 14 10  1  0
 15 14  1  0
 16 15  2  0
 17 18  2  0
 17 16  1  0
 18 13  1  0
 19 20  1  0
 19 18  1  0
  3 21  1  0
  5 22  1  0
  7 23  1  0
  8 24  1  0
  8 25  1  0
  9 26  1  0
  9 27  1  0
 15 28  1  0
 16 29  1  0
 17 30  1  0
 19 31  1  0
 19 32  1  0
 20 33  1  0
 20 34  1  0
 20 35  1  0
M  ISO  8  21  14  22  14  23  13  24  13  25  13  26  13  27  13  28  14
M  ISO  7  29  14  30  14  31   8  32   8  33   8  34   8  35   8
M  END
>  <minimizedAffinity>  (1) 
-5.01834536

>  <minimizedRMSD>  (1) 
0.584291041

$$$$
