
     RDKit          3D

 39 41  0  0  0  0  0  0  0  0999 V2000
   45.2970   35.2750   43.1300 Cl  0  0  0  0  0  0  0  0  0  0  0  0
   45.1770   34.5310   41.5620 C   0  0  0  0  0  0  0  0  0  0  0  0
   46.2820   34.1490   40.8820 C   0  0  0  0  0  0  0  0  0  0  0  0
   46.0740   33.5640   39.6380 C   0  0  0  0  0  0  0  0  0  0  0  0
   44.8230   33.3760   39.1070 C   0  0  0  0  0  0  0  0  0  0  0  0
   43.7260   33.7690   39.8120 C   0  0  0  0  0  0  0  0  0  0  0  0
   43.9130   34.3520   41.0500 C   0  0  0  0  0  0  0  0  0  0  0  0
   47.7580   31.8730   38.8940 C   0  0  0  0  0  0  0  0  0  0  0  0
   47.2260   33.1270   38.8710 C   0  0  0  0  0  0  0  0  0  0  0  0
   47.8220   34.0660   38.0490 C   0  0  0  0  0  0  0  0  0  0  0  0
   48.9130   33.7440   37.2800 C   0  0  0  0  0  0  0  0  0  0  0  0
   49.4590   32.4680   37.2990 C   0  0  0  0  0  0  0  0  0  0  0  0
   48.8630   31.5210   38.1260 C   0  0  0  0  0  0  0  0  0  0  0  0
   47.0630   30.6580   39.8520 S   0  0  0  0  0  0  0  0  0  0  0  0
   47.1840   29.2810   39.2380 O   0  0  0  0  0  0  0  0  0  0  0  0
   47.9730   30.5700   41.1060 O   0  0  0  0  0  0  0  0  0  0  0  0
   45.5170   30.7080   40.5450 C   0  0  0  0  0  0  0  0  0  0  0  0
   45.7850   30.6990   42.0860 C   0  0  0  0  0  0  0  0  0  0  0  0
   49.5550   35.7290   41.9010 C   0  0  0  0  0  0  0  0  0  0  0  0
   48.2960   35.5390   41.3250 C   0  0  0  0  0  0  0  0  0  0  0  0
   47.5880   34.3600   41.4690 C   0  0  0  0  0  0  0  0  0  0  0  0
   48.2080   33.4120   42.2040 N   0  0  0  0  0  0  0  0  0  0  0  0
   49.4190   33.5820   42.7630 C   0  0  0  0  0  0  0  0  0  0  0  0
   50.0780   34.7320   42.6080 N   0  0  0  0  0  0  0  0  0  0  0  0
   44.7066   32.9104   38.1172 H   0  0  0  0  0  0  0  0  0  0  0  0
   42.7143   33.6254   39.4048 H   0  0  0  0  0  0  0  0  0  0  0  0
   43.0396   34.6774   41.6342 H   0  0  0  0  0  0  0  0  0  0  0  0
   47.4154   35.0874   38.0106 H   0  0  0  0  0  0  0  0  0  0  0  0
   49.3636   34.5132   36.6356 H   0  0  0  0  0  0  0  0  0  0  0  0
   50.3331   32.2141   36.6813 H   0  0  0  0  0  0  0  0  0  0  0  0
   49.2642   30.4978   38.1723 H   0  0  0  0  0  0  0  0  0  0  0  0
   44.9856   31.6239   40.2470 H   0  0  0  0  0  0  0  0  0  0  0  0
   44.8843   29.8677   40.2231 H   0  0  0  0  0  0  0  0  0  0  0  0
   44.8267   30.7312   42.6250 H   0  0  0  0  0  0  0  0  0  0  0  0
   46.3283   29.7821   42.3583 H   0  0  0  0  0  0  0  0  0  0  0  0
   46.3886   31.5774   42.3583 H   0  0  0  0  0  0  0  0  0  0  0  0
   50.0981   36.6770   41.7730 H   0  0  0  0  0  0  0  0  0  0  0  0
   47.8528   36.3558   40.7365 H   0  0  0  0  0  0  0  0  0  0  0  0
   49.8690   32.7687   43.3513 H   0  0  0  0  0  0  0  0  0  0  0  0
  2  1  1  0
  3 21  1  0
  3  2  2  0
  4  3  1  0
  5  4  2  0
  5  6  1  0
  6  7  2  0
  7  2  1  0
  8 14  1  0
  9  8  2  0
  9  4  1  0
 10  9  1  0
 11 12  1  0
 11 10  2  0
 12 13  2  0
 13  8  1  0
 14 17  1  0
 14 16  2  0
 15 14  2  0
 17 18  1  0
 19 24  2  0
 20 21  2  0
 20 19  1  0
 21 22  1  0
 22 23  2  0
 24 23  1  0
  5 25  1  0
  6 26  1  0
  7 27  1  0
 10 28  1  0
 11 29  1  0
 12 30  1  0
 13 31  1  0
 17 32  1  0
 17 33  1  0
 18 34  1  0
 18 35  1  0
 18 36  1  0
 19 37  1  0
 20 38  1  0
 23 39  1  0
M  ISO  8  25  14  26  14  27  14  28  14  29  14  30  14  31  14  32   8
M  ISO  7  33   8  34   8  35   8  36   8  37  14  38  14  39  14
M  END
>  <minimizedAffinity>  (1) 
-4.44589472

>  <minimizedRMSD>  (1) 
0.311789155

$$$$
