
     RDKit          3D

 38 40  0  0  0  0  0  0  0  0999 V2000
   46.4600   33.8720   43.2270 C   0  0  0  0  0  0  0  0  0  0  0  0
   45.7590   34.8740   42.4300 C   0  0  0  0  0  0  0  0  0  0  0  0
   45.3320   36.0800   43.1800 C   0  0  0  0  0  0  0  0  0  0  0  0
   44.5560   35.7650   44.4490 C   0  0  0  0  0  0  0  0  0  0  0  0
   44.9860   34.4930   45.1340 C   0  0  0  0  0  0  0  0  0  0  0  0
   46.4080   34.1430   44.7410 C   0  0  0  0  0  0  0  0  0  0  0  0
   47.8790   33.7130   42.8830 C   0  0  0  0  0  0  0  0  0  0  0  0
   48.5840   34.9190   42.7190 C   0  0  0  0  0  0  0  0  0  0  0  0
   49.9560   34.8960   42.3920 C   0  0  0  0  0  0  0  0  0  0  0  0
   50.5230   33.6580   42.2530 N   0  0  0  0  0  0  0  0  0  0  0  0
   49.8010   32.5050   42.4210 C   0  0  0  0  0  0  0  0  0  0  0  0
   48.5140   32.5510   42.7280 N   0  0  0  0  0  0  0  0  0  0  0  0
   50.5610   31.2710   42.2460 C   0  0  0  0  0  0  0  0  0  0  0  0
   51.5740   31.2950   41.3510 N   0  0  0  0  0  0  0  0  0  0  0  0
   52.1730   30.0900   41.3140 C   0  0  0  0  0  0  0  0  0  0  0  0
   51.5080   29.3160   42.2080 N   0  0  0  0  0  0  0  0  0  0  0  0
   50.5200   30.0290   42.7830 N   0  0  0  0  0  0  0  0  0  0  0  0
   51.8100   27.9310   42.5010 C   0  0  0  0  0  0  0  0  0  0  0  0
   53.0480   27.8240   43.3660 C   0  0  0  0  0  0  0  0  0  0  0  0
   45.9091   32.9528   42.9789 H   0  0  0  0  0  0  0  0  0  0  0  0
   44.8624   34.4032   42.0006 H   0  0  0  0  0  0  0  0  0  0  0  0
   46.4748   35.2202   41.6699 H   0  0  0  0  0  0  0  0  0  0  0  0
   46.2290   36.6544   43.4545 H   0  0  0  0  0  0  0  0  0  0  0  0
   44.6572   36.6469   42.5218 H   0  0  0  0  0  0  0  0  0  0  0  0
   44.6918   36.5993   45.1529 H   0  0  0  0  0  0  0  0  0  0  0  0
   43.5060   35.6259   44.1522 H   0  0  0  0  0  0  0  0  0  0  0  0
   44.9336   34.6314   46.2240 H   0  0  0  0  0  0  0  0  0  0  0  0
   44.3168   33.6756   44.8273 H   0  0  0  0  0  0  0  0  0  0  0  0
   46.7305   33.2444   45.2873 H   0  0  0  0  0  0  0  0  0  0  0  0
   47.0779   34.9789   44.9910 H   0  0  0  0  0  0  0  0  0  0  0  0
   48.0652   35.8806   42.8458 H   0  0  0  0  0  0  0  0  0  0  0  0
   50.5370   35.8202   42.2565 H   0  0  0  0  0  0  0  0  0  0  0  0
   53.0269   29.7936   40.6872 H   0  0  0  0  0  0  0  0  0  0  0  0
   50.9585   27.4804   43.0320 H   0  0  0  0  0  0  0  0  0  0  0  0
   51.9934   27.4014   41.5545 H   0  0  0  0  0  0  0  0  0  0  0  0
   52.7575   27.8491   44.4267 H   0  0  0  0  0  0  0  0  0  0  0  0
   53.5656   26.8778   43.1499 H   0  0  0  0  0  0  0  0  0  0  0  0
   53.7203   28.6674   43.1499 H   0  0  0  0  0  0  0  0  0  0  0  0
  1  6  1  0
  2  3  1  0
  2  1  1  0
  3  4  1  0
  4  5  1  0
  6  5  1  0
  7  1  1  0
  8  7  2  0
  9  8  1  0
 10  9  2  0
 10 11  1  0
 11 12  2  0
 12  7  1  0
 13 11  1  0
 13 17  2  0
 14 13  1  0
 15 14  2  0
 15 16  1  0
 16 18  1  0
 16 17  1  0
 18 19  1  0
  1 20  1  0
  2 21  1  0
  2 22  1  0
  3 23  1  0
  3 24  1  0
  4 25  1  0
  4 26  1  0
  5 27  1  0
  5 28  1  0
  6 29  1  0
  6 30  1  0
  8 31  1  0
  9 32  1  0
 15 33  1  0
 18 34  1  0
 18 35  1  0
 19 36  1  0
 19 37  1  0
 19 38  1  0
M  ISO  8  20  13  21  13  22  13  23  13  24  13  25  13  26  13  27  13
M  ISO  8  28  13  29  13  30  13  31  14  32  14  33  14  34   8  35   8
M  ISO  3  36   8  37   8  38   8
M  END
>  <minimizedAffinity>  (1) 
-4.13347721

>  <minimizedRMSD>  (1) 
0.0898768306

$$$$
