
     RDKit          3D

 23 24  0  0  0  0  0  0  0  0999 V2000
   46.2320   32.9590   45.8980 C   0  0  0  0  0  0  0  0  0  0  0  0
   47.0060   31.8560   45.5240 C   0  0  0  0  0  0  0  0  0  0  0  0
   47.1950   31.0620   46.6100 C   0  0  0  0  0  0  0  0  0  0  0  0
   46.5530   31.6610   47.6250 N   0  0  0  0  0  0  0  0  0  0  0  0
   45.9830   32.7900   47.1860 N   0  0  0  0  0  0  0  0  0  0  0  0
   44.4750   35.9040   44.6060 C   0  0  0  0  0  0  0  0  0  0  0  0
   45.0290   36.0680   43.3260 C   0  0  0  0  0  0  0  0  0  0  0  0
   46.0130   35.1450   42.9270 C   0  0  0  0  0  0  0  0  0  0  0  0
   46.3680   34.1590   43.7940 N   0  0  0  0  0  0  0  0  0  0  0  0
   45.8180   34.0290   45.0110 C   0  0  0  0  0  0  0  0  0  0  0  0
   44.8690   34.9010   45.4220 N   0  0  0  0  0  0  0  0  0  0  0  0
   46.5260   31.1090   48.9670 C   0  0  0  0  0  0  0  0  0  0  0  0
   45.1190   31.2690   49.4900 C   0  0  0  0  0  0  0  0  0  0  0  0
   47.3981   31.6627   44.5146 H   0  0  0  0  0  0  0  0  0  0  0  0
   47.7599   30.1190   46.6494 H   0  0  0  0  0  0  0  0  0  0  0  0
   43.7033   36.6073   44.9522 H   0  0  0  0  0  0  0  0  0  0  0  0
   44.7069   36.8843   42.6628 H   0  0  0  0  0  0  0  0  0  0  0  0
   46.4847   35.2191   41.9360 H   0  0  0  0  0  0  0  0  0  0  0  0
   46.7992   30.0438   48.9414 H   0  0  0  0  0  0  0  0  0  0  0  0
   47.2446   31.6299   49.6169 H   0  0  0  0  0  0  0  0  0  0  0  0
   45.1343   31.2673   50.5899 H   0  0  0  0  0  0  0  0  0  0  0  0
   44.7002   32.2206   49.1306 H   0  0  0  0  0  0  0  0  0  0  0  0
   44.4973   30.4358   49.1306 H   0  0  0  0  0  0  0  0  0  0  0  0
  1  5  2  0
  2  1  1  0
  2  3  2  0
  3  4  1  0
  4 12  1  0
  5  4  1  0
  6 11  2  0
  7  6  1  0
  8  7  2  0
  8  9  1  0
  9 10  2  0
 10 11  1  0
 10  1  1  0
 12 13  1  0
  2 14  1  0
  3 15  1  0
  6 16  1  0
  7 17  1  0
  8 18  1  0
 12 19  1  0
 12 20  1  0
 13 21  1  0
 13 22  1  0
 13 23  1  0
M  ISO  8  14  14  15  14  16  14  17  14  18  14  19   8  20   8  21   8
M  ISO  2  22   8  23   8
M  END
>  <minimizedAffinity>  (1) 
-4.50934696

>  <minimizedRMSD>  (1) 
1.34549916

$$$$
