
     RDKit          3D

 42 44  0  0  0  0  0  0  0  0999 V2000
   45.0400   35.4730   43.3620 C   0  0  0  0  0  0  0  0  0  0  0  0
   45.4840   34.1620   43.3970 C   0  0  0  0  0  0  0  0  0  0  0  0
   45.4840   33.4690   44.5820 C   0  0  0  0  0  0  0  0  0  0  0  0
   45.0280   34.1390   45.7010 N   0  0  0  0  0  0  0  0  0  0  0  0
   44.6030   35.4000   45.6610 C   0  0  0  0  0  0  0  0  0  0  0  0
   44.6150   36.0570   44.4820 N   0  0  0  0  0  0  0  0  0  0  0  0
   45.9020   32.1330   44.7840 C   0  0  0  0  0  0  0  0  0  0  0  0
   45.6260   31.0830   43.9030 C   0  0  0  0  0  0  0  0  0  0  0  0
   45.9730   29.7780   44.1280 C   0  0  0  0  0  0  0  0  0  0  0  0
   46.6370   29.4360   45.2870 C   0  0  0  0  0  0  0  0  0  0  0  0
   46.9280   30.4860   46.1910 C   0  0  0  0  0  0  0  0  0  0  0  0
   47.5840   30.1610   47.3510 C   0  0  0  0  0  0  0  0  0  0  0  0
   47.9000   31.1320   48.2800 C   0  0  0  0  0  0  0  0  0  0  0  0
   47.5420   32.4680   48.0270 C   0  0  0  0  0  0  0  0  0  0  0  0
   46.8680   32.7550   46.8260 C   0  0  0  0  0  0  0  0  0  0  0  0
   46.5670   31.7690   45.9270 C   0  0  0  0  0  0  0  0  0  0  0  0
   45.9050   33.6120   42.2180 O   0  0  0  0  0  0  0  0  0  0  0  0
   48.2170   32.5720   41.5670 O   0  0  0  0  0  0  0  0  0  0  0  0
   47.4410   33.8400   41.5440 P   0  0  1  0  0  0  0  0  0  0  0  0
   47.3220   34.3200   39.9250 O   0  0  0  0  0  0  0  0  0  0  0  0
   48.2330   33.6750   39.1130 C   0  0  0  0  0  0  0  0  0  0  0  0
   48.3230   34.4110   37.7870 C   0  0  0  0  0  0  0  0  0  0  0  0
   48.2180   35.0510   42.4080 O   0  0  0  0  0  0  0  0  0  0  0  0
   49.5120   35.5070   42.2160 C   0  0  0  0  0  0  0  0  0  0  0  0
   49.3870   36.5150   41.4960 O   0  0  0  0  0  0  0  0  0  0  0  0
   50.4610   34.6660   42.9010 N   0  0  0  0  0  0  0  0  0  0  0  0
   45.0381   36.0302   42.4136 H   0  0  0  0  0  0  0  0  0  0  0  0
   44.2475   35.8988   46.5747 H   0  0  0  0  0  0  0  0  0  0  0  0
   45.0959   31.3208   42.9690 H   0  0  0  0  0  0  0  0  0  0  0  0
   45.7229   29.0048   43.3866 H   0  0  0  0  0  0  0  0  0  0  0  0
   46.9270   28.3964   45.4993 H   0  0  0  0  0  0  0  0  0  0  0  0
   47.8616   29.1141   47.5433 H   0  0  0  0  0  0  0  0  0  0  0  0
   48.4261   30.8635   49.2080 H   0  0  0  0  0  0  0  0  0  0  0  0
   47.7817   33.2648   48.7465 H   0  0  0  0  0  0  0  0  0  0  0  0
   46.5773   33.7927   46.6055 H   0  0  0  0  0  0  0  0  0  0  0  0
   49.2199   33.6685   39.5987 H   0  0  0  0  0  0  0  0  0  0  0  0
   47.9081   32.6383   38.9409 H   0  0  0  0  0  0  0  0  0  0  0  0
   48.4546   35.4871   37.9731 H   0  0  0  0  0  0  0  0  0  0  0  0
   49.1813   34.0304   37.2139 H   0  0  0  0  0  0  0  0  0  0  0  0
   47.3983   34.2484   37.2139 H   0  0  0  0  0  0  0  0  0  0  0  0
   51.4676   34.8788   42.8513 H   0  0  0  0  0  0  0  0  0  0  0  0
   50.1327   33.8521   43.4402 H   0  0  0  0  0  0  0  0  0  0  0  0
  1  2  2  0
  1  6  1  0
  2  3  1  0
  3  7  1  0
  3  4  2  0
  5  4  1  0
  6  5  2  0
  7 16  2  0
  8  9  2  0
  8  7  1  0
  9 10  1  0
 10 11  2  0
 11 12  1  0
 12 13  2  0
 14 13  1  0
 15 14  2  0
 16 11  1  0
 16 15  1  0
 17  2  1  0
 19 18  2  0
 19 17  1  0
 19 23  1  0
 20 19  1  0
 21 20  1  0
 22 21  1  0
 24 23  1  0
 24 26  1  0
 25 24  2  0
  1 27  1  0
  5 28  1  0
  8 29  1  0
  9 30  1  0
 10 31  1  0
 12 32  1  0
 13 33  1  0
 14 34  1  0
 15 35  1  0
 21 36  1  0
 21 37  1  0
 22 38  1  0
 22 39  1  0
 22 40  1  0
 26 41  1  0
 26 42  1  0
M  ISO  8  27  14  28  14  29  14  30  14  31  14  32  14  33  14  34  14
M  ISO  6  35  14  36   8  37   8  38   8  39   8  40   8
M  END
>  <minimizedAffinity>  (1) 
-5.97133112

>  <minimizedRMSD>  (1) 
0.796928108

$$$$
