
     RDKit          3D

 30 31  0  0  0  0  0  0  0  0999 V2000
   43.8870   32.7480   40.5820 C   0  0  0  0  0  0  0  0  0  0  0  0
   45.1700   33.2140   40.2230 C   0  0  0  0  0  0  0  0  0  0  0  0
   46.0440   33.0200   39.1400 C   0  0  0  0  0  0  0  0  0  0  0  0
   47.2670   33.6290   39.1000 C   0  0  0  0  0  0  0  0  0  0  0  0
   47.5980   34.4680   40.2210 C   0  0  0  0  0  0  0  0  0  0  0  0
   46.1540   34.3810   41.3260 S   0  0  0  0  0  0  0  0  0  0  0  0
   48.6950   35.1380   40.3970 O   0  0  0  0  0  0  0  0  0  0  0  0
   48.9870   35.7780   41.6260 C   0  0  0  0  0  0  0  0  0  0  0  0
   49.8150   34.9330   42.5390 C   0  0  0  0  0  0  0  0  0  0  0  0
   43.1330   33.4770   41.6170 C   0  0  0  0  0  0  0  0  0  0  0  0
   41.9900   34.1700   41.0280 C   0  0  0  0  0  0  0  0  0  0  0  0
   41.2540   33.6150   40.0050 C   0  0  0  0  0  0  0  0  0  0  0  0
   40.1770   34.3200   39.4820 C   0  0  0  0  0  0  0  0  0  0  0  0
   39.9160   35.5330   40.0220 N   0  0  0  0  0  0  0  0  0  0  0  0
   40.6400   36.0600   41.0140 C   0  0  0  0  0  0  0  0  0  0  0  0
   41.6610   35.3760   41.5020 N   0  0  0  0  0  0  0  0  0  0  0  0
   44.0058   31.7135   40.9364 H   0  0  0  0  0  0  0  0  0  0  0  0
   43.2883   32.8849   39.6694 H   0  0  0  0  0  0  0  0  0  0  0  0
   45.7385   32.3664   38.3096 H   0  0  0  0  0  0  0  0  0  0  0  0
   47.9597   33.4856   38.2576 H   0  0  0  0  0  0  0  0  0  0  0  0
   49.5348   36.7085   41.4158 H   0  0  0  0  0  0  0  0  0  0  0  0
   48.0302   35.9720   42.1328 H   0  0  0  0  0  0  0  0  0  0  0  0
   49.5747   35.1782   43.5840 H   0  0  0  0  0  0  0  0  0  0  0  0
   49.5984   33.8708   42.3525 H   0  0  0  0  0  0  0  0  0  0  0  0
   50.8814   35.1280   42.3525 H   0  0  0  0  0  0  0  0  0  0  0  0
   42.7729   32.7630   42.3723 H   0  0  0  0  0  0  0  0  0  0  0  0
   43.7971   34.2203   42.0822 H   0  0  0  0  0  0  0  0  0  0  0  0
   41.5160   32.6239   39.6061 H   0  0  0  0  0  0  0  0  0  0  0  0
   39.5640   33.9105   38.6656 H   0  0  0  0  0  0  0  0  0  0  0  0
   40.3895   37.0512   41.4198 H   0  0  0  0  0  0  0  0  0  0  0  0
  1 10  1  0
  2  1  1  0
  2  6  1  0
  3  2  2  0
  4  3  1  0
  4  5  2  0
  5  7  1  0
  5  6  1  0
  7  8  1  0
  8  9  1  0
 11 16  1  0
 11 10  1  0
 12 11  2  0
 13 12  1  0
 13 14  2  0
 14 15  1  0
 15 16  2  0
  1 17  1  0
  1 18  1  0
  3 19  1  0
  4 20  1  0
  8 21  1  0
  8 22  1  0
  9 23  1  0
  9 24  1  0
  9 25  1  0
 10 26  1  0
 10 27  1  0
 12 28  1  0
 13 29  1  0
 15 30  1  0
M  ISO  8  17   8  18   8  19  14  20  14  21   8  22   8  23   8  24   8
M  ISO  6  25   8  26   8  27   8  28  14  29  14  30  14
M  END
>  <minimizedAffinity>  (1) 
-3.924402

>  <minimizedRMSD>  (1) 
4.8041997

$$$$
