
     RDKit          3D

 41 43  0  0  1  0  0  0  0  0999 V2000
   47.7200   34.3670   42.3900 N   0  0  0  0  0  0  0  0  0  0  0  0
   47.9360   34.6790   40.9890 C   0  0  0  0  0  0  0  0  0  0  0  0
   48.4200   33.3390   40.5260 C   0  0  2  0  0  0  0  0  0  0  0  0
   49.4770   33.0430   41.5610 C   0  0  0  0  0  0  0  0  0  0  0  0
   48.8670   33.5990   42.8220 C   0  0  0  0  0  0  0  0  0  0  0  0
   44.7330   35.9790   43.9450 C   0  0  0  0  0  0  0  0  0  0  0  0
   45.7680   35.7300   43.0340 C   0  0  0  0  0  0  0  0  0  0  0  0
   46.6540   34.6940   43.2440 C   0  0  0  0  0  0  0  0  0  0  0  0
   46.4720   33.9410   44.3630 N   0  0  0  0  0  0  0  0  0  0  0  0
   45.4870   34.1620   45.2480 C   0  0  0  0  0  0  0  0  0  0  0  0
   44.6150   35.1840   45.0390 N   0  0  0  0  0  0  0  0  0  0  0  0
   49.0740   33.3980   39.2360 N   0  0  0  0  0  0  0  0  0  0  0  0
   49.5140   32.1850   37.1080 C   0  0  0  0  0  0  0  0  0  0  0  0
   48.6870   32.9210   37.9660 C   0  0  0  0  0  0  0  0  0  0  0  0
   47.4310   33.1540   37.4690 C   0  0  0  0  0  0  0  0  0  0  0  0
   46.9700   32.7280   36.2430 C   0  0  0  0  0  0  0  0  0  0  0  0
   47.8050   32.0060   35.4200 C   0  0  0  0  0  0  0  0  0  0  0  0
   49.0840   31.7490   35.8870 C   0  0  0  0  0  0  0  0  0  0  0  0
   51.9380   31.6640   37.9400 N   0  0  0  0  0  0  0  0  0  0  0  0
   50.8690   31.8910   37.5620 C   0  0  0  0  0  0  0  0  0  0  0  0
   50.0000   30.9750   35.0140 C   0  0  0  0  0  0  0  0  0  0  0  0
   49.9450   31.5850   33.6350 C   0  0  0  0  0  0  0  0  0  0  0  0
   47.0057   34.9790   40.4845 H   0  0  0  0  0  0  0  0  0  0  0  0
   48.6131   35.5227   40.7898 H   0  0  0  0  0  0  0  0  0  0  0  0
   47.6023   32.6104   40.4235 H   0  0  0  0  0  0  0  0  0  0  0  0
   49.6544   31.9610   41.6493 H   0  0  0  0  0  0  0  0  0  0  0  0
   50.4584   33.4780   41.3210 H   0  0  0  0  0  0  0  0  0  0  0  0
   49.5874   34.2450   43.3452 H   0  0  0  0  0  0  0  0  0  0  0  0
   48.5832   32.8014   43.5243 H   0  0  0  0  0  0  0  0  0  0  0  0
   44.0272   36.8057   43.7764 H   0  0  0  0  0  0  0  0  0  0  0  0
   45.8749   36.3665   42.1433 H   0  0  0  0  0  0  0  0  0  0  0  0
   45.3861   33.5207   46.1360 H   0  0  0  0  0  0  0  0  0  0  0  0
   49.9871   33.8744   39.2474 H   0  0  0  0  0  0  0  0  0  0  0  0
   46.7355   33.7271   38.0998 H   0  0  0  0  0  0  0  0  0  0  0  0
   45.9437   32.9625   35.9241 H   0  0  0  0  0  0  0  0  0  0  0  0
   47.4712   31.6488   34.4346 H   0  0  0  0  0  0  0  0  0  0  0  0
   51.0261   31.0287   35.4067 H   0  0  0  0  0  0  0  0  0  0  0  0
   49.6976   29.9179   34.9798 H   0  0  0  0  0  0  0  0  0  0  0  0
   49.8465   32.6772   33.7209 H   0  0  0  0  0  0  0  0  0  0  0  0
   50.8687   31.3419   33.0894 H   0  0  0  0  0  0  0  0  0  0  0  0
   49.0797   31.1806   33.0894 H   0  0  0  0  0  0  0  0  0  0  0  0
  1  5  1  0
  1  8  1  0
  2  1  1  0
  3  2  1  0
  3  4  1  0
  4  5  1  0
  6 11  2  0
  7  8  2  0
  7  6  1  0
  8  9  1  0
  9 10  2  0
 11 10  1  0
 12  3  1  0
 13 20  1  0
 13 14  2  0
 14 12  1  0
 15 14  1  0
 16 15  2  0
 17 18  2  0
 17 16  1  0
 18 13  1  0
 20 19  3  0
 21 18  1  0
 22 21  1  0
  2 23  1  0
  2 24  1  0
  3 25  1  6
  4 26  1  0
  4 27  1  0
  5 28  1  0
  5 29  1  0
  6 30  1  0
  7 31  1  0
 10 32  1  0
 12 33  1  0
 15 34  1  0
 16 35  1  0
 17 36  1  0
 21 37  1  0
 21 38  1  0
 22 39  1  0
 22 40  1  0
 22 41  1  0
M  ISO  8  23  13  24  13  25  13  26  13  27  13  28  13  29  13  30  14
M  ISO  8  31  14  32  14  34  14  35  14  36  14  37   8  38   8  39   8
M  ISO  2  40   8  41   8
M  END
>  <minimizedAffinity>  (1) 
-4.82094431

>  <minimizedRMSD>  (1) 
1.55357456

$$$$
