
     RDKit          3D

 43 46  0  0  1  0  0  0  0  0999 V2000
   47.4790   32.5790   44.2520 C   0  0  0  0  0  0  0  0  0  0  0  0
   46.7790   33.5460   43.5250 C   0  0  0  0  0  0  0  0  0  0  0  0
   45.7400   34.2920   44.0720 C   0  0  0  0  0  0  0  0  0  0  0  0
   45.3720   34.0740   45.4050 C   0  0  0  0  0  0  0  0  0  0  0  0
   44.4480   34.5890   46.2420 N   0  0  0  0  0  0  0  0  0  0  0  0
   44.5440   33.9890   47.4480 C   0  0  0  0  0  0  0  0  0  0  0  0
   45.5350   33.1050   47.3310 N   0  0  0  0  0  0  0  0  0  0  0  0
   46.0740   33.1190   46.0990 C   0  0  0  0  0  0  0  0  0  0  0  0
   47.1070   32.3640   45.5870 C   0  0  0  0  0  0  0  0  0  0  0  0
   46.9910   33.2020   39.8900 C   0  0  0  0  0  0  0  0  0  0  0  0
   47.8440   34.2450   39.5260 C   0  0  0  0  0  0  0  0  0  0  0  0
   48.3420   35.0600   40.5360 C   0  0  0  0  0  0  0  0  0  0  0  0
   47.9760   34.8080   41.8360 N   0  0  0  0  0  0  0  0  0  0  0  0
   47.1480   33.7870   42.1330 C   0  0  0  0  0  0  0  0  0  0  0  0
   46.6380   32.9650   41.1910 N   0  0  0  0  0  0  0  0  0  0  0  0
   44.8660   35.5120   43.1320 S   0  0  0  0  0  0  0  0  0  0  0  0
   42.3290   35.4000   42.4560 N   0  0  0  0  0  0  0  0  0  0  0  0
   43.6040   34.8300   42.0370 C   0  0  1  0  0  0  0  0  0  0  0  0
   43.9730   35.2740   40.6320 C   0  0  0  0  0  0  0  0  0  0  0  0
   42.9130   35.2460   39.7470 O   0  0  0  0  0  0  0  0  0  0  0  0
   41.7780   34.6080   40.2030 C   0  0  0  0  0  0  0  0  0  0  0  0
   41.3120   35.2880   41.4550 C   0  0  1  0  0  0  0  0  0  0  0  0
   40.1820   34.4350   42.0420 C   0  0  0  0  0  0  0  0  0  0  0  0
   39.5050   33.5780   41.0260 C   0  0  0  0  0  0  0  0  0  0  0  0
   48.2962   32.0045   43.7914 H   0  0  0  0  0  0  0  0  0  0  0  0
   43.7723   35.3273   45.9984 H   0  0  0  0  0  0  0  0  0  0  0  0
   43.9324   34.1881   48.3403 H   0  0  0  0  0  0  0  0  0  0  0  0
   47.6237   31.6160   46.2062 H   0  0  0  0  0  0  0  0  0  0  0  0
   46.5881   32.5472   39.1033 H   0  0  0  0  0  0  0  0  0  0  0  0
   48.1136   34.4166   38.4735 H   0  0  0  0  0  0  0  0  0  0  0  0
   49.0187   35.8939   40.2980 H   0  0  0  0  0  0  0  0  0  0  0  0
   42.0117   34.9077   43.3032 H   0  0  0  0  0  0  0  0  0  0  0  0
   43.5339   33.7327   42.0689 H   0  0  0  0  0  0  0  0  0  0  0  0
   44.3570   36.3036   40.6822 H   0  0  0  0  0  0  0  0  0  0  0  0
   44.7254   34.5647   40.2567 H   0  0  0  0  0  0  0  0  0  0  0  0
   40.9902   34.6628   39.4373 H   0  0  0  0  0  0  0  0  0  0  0  0
   42.0015   33.5515   40.4124 H   0  0  0  0  0  0  0  0  0  0  0  0
   41.0011   36.3079   41.1846 H   0  0  0  0  0  0  0  0  0  0  0  0
   40.6039   33.7849   42.8227 H   0  0  0  0  0  0  0  0  0  0  0  0
   39.4258   35.1254   42.4438 H   0  0  0  0  0  0  0  0  0  0  0  0
   38.9007   32.8130   41.5356 H   0  0  0  0  0  0  0  0  0  0  0  0
   38.8528   34.2012   40.3966 H   0  0  0  0  0  0  0  0  0  0  0  0
   40.2623   33.0877   40.3966 H   0  0  0  0  0  0  0  0  0  0  0  0
  1  9  2  0
  2  3  2  0
  2  1  1  0
  3  4  1  0
  4  8  2  0
  4  5  1  0
  5  6  1  0
  7  6  2  0
  8  7  1  0
  9  8  1  0
 10 15  2  0
 11 10  1  0
 11 12  2  0
 12 13  1  0
 13 14  2  0
 14  2  1  0
 15 14  1  0
 16  3  1  0
 18 17  1  0
 18 16  1  0
 19 18  1  0
 20 21  1  0
 20 19  1  0
 21 22  1  0
 22 23  1  0
 22 17  1  0
 24 23  1  0
  1 25  1  0
  5 26  1  0
  6 27  1  0
  9 28  1  0
 10 29  1  0
 11 30  1  0
 12 31  1  0
 17 32  1  0
 18 33  1  6
 19 34  1  0
 19 35  1  0
 21 36  1  0
 21 37  1  0
 22 38  1  6
 23 39  1  0
 23 40  1  0
 24 41  1  0
 24 42  1  0
 24 43  1  0
M  ISO  8  25  14  26   9  27  14  28  14  29  14  30  14  31  14  32   5
M  ISO  8  33  13  34  13  35  13  36  13  37  13  38  13  39   8  40   8
M  ISO  3  41   8  42   8  43   8
M  END
>  <minimizedAffinity>  (1) 
-5.84090328

>  <minimizedRMSD>  (1) 
0.279157698

$$$$
