
     RDKit          3D

 38 39  0  0  1  0  0  0  0  0999 V2000
   46.6480   31.6650   45.0740 C   0  0  2  0  0  0  0  0  0  0  0  0
   45.6850   30.7270   44.3250 C   0  0  0  0  0  0  0  0  0  0  0  0
   45.8580   29.3770   45.0190 C   0  0  0  0  0  0  0  0  0  0  0  0
   45.1800   29.5590   46.3560 C   0  0  0  0  0  0  0  0  0  0  0  0
   45.8700   30.5930   47.1680 C   0  0  0  0  0  0  0  0  0  0  0  0
   46.1430   31.8840   46.4560 C   0  0  1  0  0  0  0  0  0  0  0  0
   47.9160   34.3490   42.7760 C   0  0  0  0  0  0  0  0  0  0  0  0
   47.9110   33.1530   43.5150 C   0  0  0  0  0  0  0  0  0  0  0  0
   46.7560   32.8720   44.2700 C   0  0  0  0  0  0  0  0  0  0  0  0
   45.7370   33.7680   44.2320 N   0  0  0  0  0  0  0  0  0  0  0  0
   45.7670   34.9000   43.5190 C   0  0  0  0  0  0  0  0  0  0  0  0
   46.8720   35.1820   42.7890 N   0  0  0  0  0  0  0  0  0  0  0  0
   49.1520   34.6270   41.9810 C   0  0  0  0  0  0  0  0  0  0  0  0
   49.6060   33.4920   41.3400 F   0  0  0  0  0  0  0  0  0  0  0  0
   48.8700   35.6580   41.0830 F   0  0  0  0  0  0  0  0  0  0  0  0
   50.1340   35.1450   42.8190 F   0  0  0  0  0  0  0  0  0  0  0  0
   44.6250   35.8480   43.5130 C   0  0  0  0  0  0  0  0  0  0  0  0
   43.7040   35.5270   42.5670 F   0  0  0  0  0  0  0  0  0  0  0  0
   45.1120   37.1610   43.3210 F   0  0  0  0  0  0  0  0  0  0  0  0
   44.0290   35.9100   44.7500 F   0  0  0  0  0  0  0  0  0  0  0  0
   47.0530   32.7000   47.2980 C   0  0  0  0  0  0  0  0  0  0  0  0
   47.7660   31.8280   48.3230 C   0  0  0  0  0  0  0  0  0  0  0  0
   47.6582   31.2481   45.1993 H   0  0  0  0  0  0  0  0  0  0  0  0
   45.9578   30.6565   43.2617 H   0  0  0  0  0  0  0  0  0  0  0  0
   44.6447   31.0835   44.3520 H   0  0  0  0  0  0  0  0  0  0  0  0
   45.3731   28.5763   44.4413 H   0  0  0  0  0  0  0  0  0  0  0  0
   46.9142   29.0861   45.1180 H   0  0  0  0  0  0  0  0  0  0  0  0
   44.1373   29.8682   46.1911 H   0  0  0  0  0  0  0  0  0  0  0  0
   45.2181   28.6039   46.9003 H   0  0  0  0  0  0  0  0  0  0  0  0
   45.2422   30.8132   48.0440 H   0  0  0  0  0  0  0  0  0  0  0  0
   46.8529   30.1728   47.4276 H   0  0  0  0  0  0  0  0  0  0  0  0
   45.2051   32.4420   46.3183 H   0  0  0  0  0  0  0  0  0  0  0  0
   48.7710   32.4673   43.5039 H   0  0  0  0  0  0  0  0  0  0  0  0
   47.8013   33.1859   46.6546 H   0  0  0  0  0  0  0  0  0  0  0  0
   46.4580   33.4565   47.8306 H   0  0  0  0  0  0  0  0  0  0  0  0
   47.4958   32.1584   49.3368 H   0  0  0  0  0  0  0  0  0  0  0  0
   47.4633   30.7794   48.1863 H   0  0  0  0  0  0  0  0  0  0  0  0
   48.8539   31.9164   48.1863 H   0  0  0  0  0  0  0  0  0  0  0  0
  1  6  1  0
  2  3  1  0
  2  1  1  0
  3  4  1  0
  4  5  1  0
  6  5  1  0
  6 21  1  0
  7 12  2  0
  7  8  1  0
  8  9  2  0
  9  1  1  0
 10  9  1  0
 11 10  2  0
 12 11  1  0
 13  7  1  0
 13 16  1  0
 14 13  1  0
 15 13  1  0
 17 11  1  0
 17 20  1  0
 18 17  1  0
 19 17  1  0
 21 22  1  0
  1 23  1  1
  2 24  1  0
  2 25  1  0
  3 26  1  0
  3 27  1  0
  4 28  1  0
  4 29  1  0
  5 30  1  0
  5 31  1  0
  6 32  1  6
  8 33  1  0
 21 34  1  0
 21 35  1  0
 22 36  1  0
 22 37  1  0
 22 38  1  0
M  ISO  8  23  13  24  13  25  13  26  13  27  13  28  13  29  13  30  13
M  ISO  8  31  13  32  13  33  14  34   8  35   8  36   8  37   8  38   8
M  END
>  <minimizedAffinity>  (1) 
-5.97710276

>  <minimizedRMSD>  (1) 
0.865620077

$$$$
