
     RDKit          3D

 43 47  0  0  1  0  0  0  0  0999 V2000
   49.0230   30.7930   37.6830 C   0  0  1  0  0  0  0  0  0  0  0  0
   48.5850   30.5290   36.3260 C   0  0  0  0  0  0  0  0  0  0  0  0
   49.7640   31.4420   36.5490 C   0  0  2  0  0  0  0  0  0  0  0  0
   51.0970   30.8660   36.2480 C   0  0  0  0  0  0  0  0  0  0  0  0
   51.4250   30.2430   35.0470 C   0  0  0  0  0  0  0  0  0  0  0  0
   52.6980   29.7440   34.8220 C   0  0  0  0  0  0  0  0  0  0  0  0
   53.6680   29.8600   35.7910 C   0  0  0  0  0  0  0  0  0  0  0  0
   54.9340   29.3890   35.6110 N   0  0  0  0  0  0  0  0  0  0  0  0
   55.8720   29.5180   36.5740 C   0  0  0  0  0  0  0  0  0  0  0  0
   55.6270   30.1340   37.8130 C   0  0  0  0  0  0  0  0  0  0  0  0
   54.3400   30.6190   38.0130 C   0  0  0  0  0  0  0  0  0  0  0  0
   53.3910   30.4780   37.0150 C   0  0  0  0  0  0  0  0  0  0  0  0
   52.1030   30.9580   37.1920 C   0  0  0  0  0  0  0  0  0  0  0  0
   48.2870   33.0910   38.4200 C   0  0  0  0  0  0  0  0  0  0  0  0
   48.2390   31.6720   38.5930 C   0  0  0  0  0  0  0  0  0  0  0  0
   47.4730   31.1620   39.6240 C   0  0  0  0  0  0  0  0  0  0  0  0
   46.8100   32.0560   40.4130 N   0  0  0  0  0  0  0  0  0  0  0  0
   46.8660   33.3870   40.2400 C   0  0  0  0  0  0  0  0  0  0  0  0
   47.6080   33.9110   39.2370 N   0  0  0  0  0  0  0  0  0  0  0  0
   46.7720   34.8680   42.1990 C   0  0  0  0  0  0  0  0  0  0  0  0
   46.1210   34.2690   41.1390 C   0  0  0  0  0  0  0  0  0  0  0  0
   44.7780   34.4720   40.8890 C   0  0  0  0  0  0  0  0  0  0  0  0
   44.0210   35.2880   41.6930 C   0  0  0  0  0  0  0  0  0  0  0  0
   44.6580   35.9050   42.7720 C   0  0  0  0  0  0  0  0  0  0  0  0
   46.0000   35.6830   42.9990 C   0  0  0  0  0  0  0  0  0  0  0  0
   49.2990   34.4510   42.6590 N   0  0  0  0  0  0  0  0  0  0  0  0
   48.1670   34.6460   42.4450 C   0  0  0  0  0  0  0  0  0  0  0  0
   49.2850   30.1366   38.5259 H   0  0  0  0  0  0  0  0  0  0  0  0
   47.6313   30.9443   35.9683 H   0  0  0  0  0  0  0  0  0  0  0  0
   48.4154   29.6181   35.7331 H   0  0  0  0  0  0  0  0  0  0  0  0
   50.0348   32.4678   36.2583 H   0  0  0  0  0  0  0  0  0  0  0  0
   50.6600   30.1451   34.2627 H   0  0  0  0  0  0  0  0  0  0  0  0
   52.9338   29.2537   33.8660 H   0  0  0  0  0  0  0  0  0  0  0  0
   56.8789   29.1207   36.3786 H   0  0  0  0  0  0  0  0  0  0  0  0
   56.4092   30.2270   38.5808 H   0  0  0  0  0  0  0  0  0  0  0  0
   54.0766   31.1127   38.9600 H   0  0  0  0  0  0  0  0  0  0  0  0
   51.8648   31.4455   38.1489 H   0  0  0  0  0  0  0  0  0  0  0  0
   48.8899   33.5169   37.6045 H   0  0  0  0  0  0  0  0  0  0  0  0
   47.4007   30.0788   39.8014 H   0  0  0  0  0  0  0  0  0  0  0  0
   44.3065   33.9711   40.0306 H   0  0  0  0  0  0  0  0  0  0  0  0
   42.9513   35.4500   41.4944 H   0  0  0  0  0  0  0  0  0  0  0  0
   44.0893   36.5679   43.4407 H   0  0  0  0  0  0  0  0  0  0  0  0
   46.4762   36.1789   43.8577 H   0  0  0  0  0  0  0  0  0  0  0  0
  1 15  1  0
  2  3  1  0
  2  1  1  0
  3  1  1  0
  4  3  1  0
  4 13  1  0
  5  4  2  0
  6  5  1  0
  6  7  2  0
  7 12  1  0
  8  7  1  0
  8  9  2  0
  9 10  1  0
 10 11  2  0
 12 13  2  0
 12 11  1  0
 14 15  2  0
 14 19  1  0
 15 16  1  0
 16 17  2  0
 18 17  1  0
 18 21  1  0
 19 18  2  0
 20 27  1  0
 20 25  2  0
 21 20  1  0
 22 21  2  0
 22 23  1  0
 23 24  2  0
 24 25  1  0
 27 26  3  0
  1 28  1  1
  2 29  1  0
  2 30  1  0
  3 31  1  1
  5 32  1  0
  6 33  1  0
  9 34  1  0
 10 35  1  0
 11 36  1  0
 13 37  1  0
 14 38  1  0
 16 39  1  0
 22 40  1  0
 23 41  1  0
 24 42  1  0
 25 43  1  0
M  ISO  8  28  13  29  13  30  13  31  13  32  14  33  14  34  14  35  14
M  ISO  8  36  14  37  14  38  14  39  14  40  14  41  14  42  14  43  14
M  END
>  <minimizedAffinity>  (1) 
-5.01530981

>  <minimizedRMSD>  (1) 
6.09131432

$$$$
