
     RDKit          3D

 45 47  0  0  1  0  0  0  0  0999 V2000
   44.9940   34.6600   44.9470 C   0  0  0  0  0  0  0  0  0  0  0  0
   45.8960   34.6010   43.8470 C   0  0  0  0  0  0  0  0  0  0  0  0
   46.9990   33.7330   43.9560 C   0  0  0  0  0  0  0  0  0  0  0  0
   47.1450   33.0050   45.0900 N   0  0  0  0  0  0  0  0  0  0  0  0
   46.2790   33.0810   46.1140 C   0  0  0  0  0  0  0  0  0  0  0  0
   45.2210   33.9060   46.0240 N   0  0  0  0  0  0  0  0  0  0  0  0
   46.4980   32.2960   47.2540 N   0  0  0  0  0  0  0  0  0  0  0  0
   47.7180   32.4340   47.9970 C   0  0  0  0  0  0  0  0  0  0  0  0
   47.9960   31.2860   48.9170 C   0  0  0  0  0  0  0  0  0  0  0  0
   46.8570   30.6580   49.4910 N   0  0  0  0  0  0  0  0  0  0  0  0
   45.6090   31.2940   49.1660 C   0  0  0  0  0  0  0  0  0  0  0  0
   45.4720   31.3500   47.6650 C   0  0  2  0  0  0  0  0  0  0  0  0
   45.6560   30.0090   47.0330 C   0  0  0  0  0  0  0  0  0  0  0  0
   44.8360   29.0180   47.8280 C   0  0  0  0  0  0  0  0  0  0  0  0
   45.1250   27.7340   47.8280 C   0  0  0  0  0  0  0  0  0  0  0  0
   44.3640   26.6930   48.5840 C   0  0  0  0  0  0  0  0  0  0  0  0
   44.3700   24.5560   47.2050 C   0  0  0  0  0  0  0  0  0  0  0  0
   43.8080   25.7700   47.5550 C   0  0  0  0  0  0  0  0  0  0  0  0
   42.6350   26.1210   46.8750 C   0  0  0  0  0  0  0  0  0  0  0  0
   42.0150   25.3600   45.9030 C   0  0  0  0  0  0  0  0  0  0  0  0
   42.6090   24.1590   45.5840 C   0  0  0  0  0  0  0  0  0  0  0  0
   43.7590   23.7730   46.2250 C   0  0  0  0  0  0  0  0  0  0  0  0
   46.5270   23.8210   48.4110 N   0  0  0  0  0  0  0  0  0  0  0  0
   45.5610   24.1550   47.8670 C   0  0  0  0  0  0  0  0  0  0  0  0
   44.1165   35.3223   44.9092 H   0  0  0  0  0  0  0  0  0  0  0  0
   45.7370   35.2109   42.9455 H   0  0  0  0  0  0  0  0  0  0  0  0
   47.7281   33.6473   43.1369 H   0  0  0  0  0  0  0  0  0  0  0  0
   48.5514   32.5171   47.2838 H   0  0  0  0  0  0  0  0  0  0  0  0
   47.6119   33.3307   48.6252 H   0  0  0  0  0  0  0  0  0  0  0  0
   48.5491   30.5245   48.3475 H   0  0  0  0  0  0  0  0  0  0  0  0
   48.5573   31.7118   49.7617 H   0  0  0  0  0  0  0  0  0  0  0  0
   46.8209   29.6848   49.1556 H   0  0  0  0  0  0  0  0  0  0  0  0
   44.7764   30.7153   49.5925 H   0  0  0  0  0  0  0  0  0  0  0  0
   45.5869   32.3117   49.5829 H   0  0  0  0  0  0  0  0  0  0  0  0
   44.4658   31.6615   47.3480 H   0  0  0  0  0  0  0  0  0  0  0  0
   45.3078   30.0340   45.9899 H   0  0  0  0  0  0  0  0  0  0  0  0
   46.7180   29.7224   47.0324 H   0  0  0  0  0  0  0  0  0  0  0  0
   43.9804   29.3776   48.4184 H   0  0  0  0  0  0  0  0  0  0  0  0
   45.9870   27.4038   47.2297 H   0  0  0  0  0  0  0  0  0  0  0  0
   45.0338   26.1482   49.2655 H   0  0  0  0  0  0  0  0  0  0  0  0
   43.5691   27.1395   49.1995 H   0  0  0  0  0  0  0  0  0  0  0  0
   42.1688   27.0823   47.1366 H   0  0  0  0  0  0  0  0  0  0  0  0
   41.0921   25.6967   45.4080 H   0  0  0  0  0  0  0  0  0  0  0  0
   42.1620   23.5102   44.8164 H   0  0  0  0  0  0  0  0  0  0  0  0
   44.2167   22.8096   45.9561 H   0  0  0  0  0  0  0  0  0  0  0  0
  1  6  2  0
  2  3  2  0
  2  1  1  0
  3  4  1  0
  4  5  2  0
  5  7  1  0
  6  5  1  0
  7 12  1  0
  7  8  1  0
  8  9  1  0
  9 10  1  0
 11 10  1  0
 12 11  1  0
 13 12  1  0
 13 14  1  0
 15 14  2  0
 15 16  1  0
 17 18  2  0
 17 24  1  0
 18 16  1  0
 19 18  1  0
 20 19  2  0
 21 20  1  0
 21 22  2  0
 22 17  1  0
 24 23  3  0
  1 25  1  0
  2 26  1  0
  3 27  1  0
  8 28  1  0
  8 29  1  0
  9 30  1  0
  9 31  1  0
 10 32  1  0
 11 33  1  0
 11 34  1  0
 12 35  1  1
 13 36  1  0
 13 37  1  0
 14 38  1  0
 15 39  1  0
 16 40  1  0
 16 41  1  0
 19 42  1  0
 20 43  1  0
 21 44  1  0
 22 45  1  0
M  ISO  8  25  14  26  14  27  14  28  13  29  13  30  13  31  13  32   5
M  ISO  8  33  13  34  13  35  13  36   8  37   8  40   8  41   8  42  14
M  ISO  3  43  14  44  14  45  14
M  END
>  <minimizedAffinity>  (1) 
-5.71382189

>  <minimizedRMSD>  (1) 
1.29940212

$$$$
