
     RDKit          3D

 45 48  0  0  1  0  0  0  0  0999 V2000
   42.5010   33.4030   40.6550 C   0  0  0  0  0  0  0  0  0  0  0  0
   43.1240   34.4870   41.2050 C   0  0  0  0  0  0  0  0  0  0  0  0
   42.3550   35.6490   41.4240 C   0  0  0  0  0  0  0  0  0  0  0  0
   41.0190   35.7400   41.1130 C   0  0  0  0  0  0  0  0  0  0  0  0
   40.4010   34.6470   40.5620 C   0  0  0  0  0  0  0  0  0  0  0  0
   41.1390   33.5210   40.3480 C   0  0  0  0  0  0  0  0  0  0  0  0
   43.2750   31.9250   40.4330 S   0  0  0  0  0  0  0  0  0  0  0  0
   44.4160   32.3520   39.4570 O   0  0  0  0  0  0  0  0  0  0  0  0
   42.4450   30.9310   39.7130 O   0  0  0  0  0  0  0  0  0  0  0  0
   43.9730   30.4120   42.4550 C   0  0  0  0  0  0  0  0  0  0  0  0
   44.4650   31.1630   41.3500 C   0  0  0  0  0  0  0  0  0  0  0  0
   45.8480   31.0290   41.2560 C   0  0  0  0  0  0  0  0  0  0  0  0
   46.7630   30.3350   42.0120 C   0  0  0  0  0  0  0  0  0  0  0  0
   46.1200   29.6890   43.0080 C   0  0  0  0  0  0  0  0  0  0  0  0
   44.7820   29.6780   43.2850 C   0  0  0  0  0  0  0  0  0  0  0  0
   41.4350   30.3380   43.0900 N   0  0  0  0  0  0  0  0  0  0  0  0
   42.5550   30.3700   42.7980 C   0  0  0  0  0  0  0  0  0  0  0  0
   44.5290   34.4910   41.5690 C   0  0  0  0  0  0  0  0  0  0  0  0
   45.4840   34.4810   40.7350 O   0  0  0  0  0  0  0  0  0  0  0  0
   44.7470   34.5120   42.9940 C   0  0  0  0  0  0  0  0  0  0  0  0
   44.3580   35.7240   43.6610 C   0  0  0  0  0  0  0  0  0  0  0  0
   44.5520   35.7670   45.0340 C   0  0  0  0  0  0  0  0  0  0  0  0
   45.0870   34.6790   45.6480 N   0  0  0  0  0  0  0  0  0  0  0  0
   45.4400   33.5470   44.9610 C   0  0  0  0  0  0  0  0  0  0  0  0
   45.2630   33.5000   43.6850 N   0  0  0  0  0  0  0  0  0  0  0  0
   46.0040   32.4090   45.7170 C   0  0  1  0  0  0  0  0  0  0  0  0
   46.9660   32.6850   46.8490 C   0  0  0  0  0  0  0  0  0  0  0  0
   45.5420   32.3050   47.1180 C   0  0  1  0  0  0  0  0  0  0  0  0
   44.7810   33.3860   47.7200 N   0  0  0  0  0  0  0  0  0  0  0  0
   42.8493   36.5267   41.8660 H   0  0  0  0  0  0  0  0  0  0  0  0
   40.4590   36.6678   41.3017 H   0  0  0  0  0  0  0  0  0  0  0  0
   39.3335   34.6781   40.2985 H   0  0  0  0  0  0  0  0  0  0  0  0
   40.6332   32.6498   39.9063 H   0  0  0  0  0  0  0  0  0  0  0  0
   46.2931   31.5841   40.4171 H   0  0  0  0  0  0  0  0  0  0  0  0
   47.8481   30.3100   41.8334 H   0  0  0  0  0  0  0  0  0  0  0  0
   46.7544   29.0956   43.6828 H   0  0  0  0  0  0  0  0  0  0  0  0
   44.3733   29.1082   44.1325 H   0  0  0  0  0  0  0  0  0  0  0  0
   43.9284   36.5742   43.1110 H   0  0  0  0  0  0  0  0  0  0  0  0
   44.2789   36.6617   45.6127 H   0  0  0  0  0  0  0  0  0  0  0  0
   46.0466   31.7526   44.8353 H   0  0  0  0  0  0  0  0  0  0  0  0
   47.7785   31.9770   47.0694 H   0  0  0  0  0  0  0  0  0  0  0  0
   47.6223   33.5203   47.1346 H   0  0  0  0  0  0  0  0  0  0  0  0
   44.9933   31.5119   47.6470 H   0  0  0  0  0  0  0  0  0  0  0  0
   44.8328   33.3124   48.7461 H   0  0  0  0  0  0  0  0  0  0  0  0
   45.1730   34.2902   47.4204 H   0  0  0  0  0  0  0  0  0  0  0  0
  1  2  1  0
  2  3  2  0
  2 18  1  0
  4  3  1  0
  5  4  2  0
  6  5  1  0
  6  1  2  0
  7  1  1  0
  7 11  1  0
  8  7  2  0
  9  7  2  0
 10 17  1  0
 10 15  2  0
 11 10  1  0
 12 11  2  0
 12 13  1  0
 13 14  2  0
 14 15  1  0
 17 16  3  0
 18 20  1  0
 19 18  2  0
 20 21  2  0
 20 25  1  0
 21 22  1  0
 22 23  2  0
 24 23  1  0
 24 26  1  0
 25 24  2  0
 26 27  1  0
 26 28  1  0
 27 28  1  0
 28 29  1  0
  3 30  1  0
  4 31  1  0
  5 32  1  0
  6 33  1  0
 12 34  1  0
 13 35  1  0
 14 36  1  0
 15 37  1  0
 21 38  1  0
 22 39  1  0
 26 40  1  6
 27 41  1  0
 27 42  1  0
 28 43  1  1
 29 44  1  0
 29 45  1  0
M  ISO  8  30  14  31  14  32  14  33  14  34  14  35  14  36  14  37  14
M  ISO  8  38  14  39  14  40  13  41  13  42  13  43  13  44   5  45   5
M  END
>  <minimizedAffinity>  (1) 
-5.63272572

>  <minimizedRMSD>  (1) 
1.29750025

$$$$
