
     RDKit          3D

 39 42  0  0  0  0  0  0  0  0999 V2000
   43.9160   35.3620   42.0210 C   0  0  0  0  0  0  0  0  0  0  0  0
   42.5690   35.1060   42.1910 C   0  0  0  0  0  0  0  0  0  0  0  0
   42.1310   34.6890   40.9900 N   0  0  0  0  0  0  0  0  0  0  0  0
   43.1700   34.6920   40.1240 C   0  0  0  0  0  0  0  0  0  0  0  0
   44.2800   35.1100   40.7620 N   0  0  0  0  0  0  0  0  0  0  0  0
   43.2370   34.3380   38.7380 N   0  0  0  0  0  0  0  0  0  0  0  0
   40.4320   33.0130   40.8860 C   0  0  0  0  0  0  0  0  0  0  0  0
   40.8400   34.2930   40.5890 C   0  0  0  0  0  0  0  0  0  0  0  0
   39.9410   35.0940   39.9150 C   0  0  0  0  0  0  0  0  0  0  0  0
   38.6840   34.6460   39.5470 C   0  0  0  0  0  0  0  0  0  0  0  0
   38.2670   33.3560   39.8440 C   0  0  0  0  0  0  0  0  0  0  0  0
   39.1810   32.5680   40.5190 C   0  0  0  0  0  0  0  0  0  0  0  0
   41.9920   31.3680   42.1340 N   0  0  0  0  0  0  0  0  0  0  0  0
   41.2920   32.1020   41.5840 C   0  0  0  0  0  0  0  0  0  0  0  0
   44.8640   35.8580   43.0870 C   0  0  0  0  0  0  0  0  0  0  0  0
   45.2040   37.0670   43.2240 O   0  0  0  0  0  0  0  0  0  0  0  0
   44.8510   34.7790   45.2820 C   0  0  0  0  0  0  0  0  0  0  0  0
   45.4410   34.9450   44.0190 C   0  0  0  0  0  0  0  0  0  0  0  0
   46.5670   34.1800   43.7900 C   0  0  0  0  0  0  0  0  0  0  0  0
   47.0720   33.3380   44.6960 N   0  0  0  0  0  0  0  0  0  0  0  0
   46.4610   33.2120   45.9100 C   0  0  0  0  0  0  0  0  0  0  0  0
   45.3520   33.9390   46.1890 N   0  0  0  0  0  0  0  0  0  0  0  0
   47.2160   34.3020   42.5380 C   0  0  0  0  0  0  0  0  0  0  0  0
   47.9880   35.2410   41.9270 C   0  0  0  0  0  0  0  0  0  0  0  0
   48.4860   35.1090   40.7170 C   0  0  0  0  0  0  0  0  0  0  0  0
   48.1840   33.9530   40.0850 C   0  0  0  0  0  0  0  0  0  0  0  0
   47.1480   33.0370   41.2860 S   0  0  0  0  0  0  0  0  0  0  0  0
   41.9799   35.2193   43.1130 H   0  0  0  0  0  0  0  0  0  0  0  0
   42.3902   34.0179   38.2467 H   0  0  0  0  0  0  0  0  0  0  0  0
   44.1320   34.4035   38.2324 H   0  0  0  0  0  0  0  0  0  0  0  0
   40.2332   36.1237   39.6615 H   0  0  0  0  0  0  0  0  0  0  0  0
   38.0041   35.3239   39.0101 H   0  0  0  0  0  0  0  0  0  0  0  0
   37.2716   32.9837   39.5602 H   0  0  0  0  0  0  0  0  0  0  0  0
   38.8957   31.5370   40.7751 H   0  0  0  0  0  0  0  0  0  0  0  0
   43.9496   35.3583   45.5308 H   0  0  0  0  0  0  0  0  0  0  0  0
   46.8688   32.5203   46.6619 H   0  0  0  0  0  0  0  0  0  0  0  0
   48.2090   36.1667   42.4785 H   0  0  0  0  0  0  0  0  0  0  0  0
   49.1071   35.8877   40.2502 H   0  0  0  0  0  0  0  0  0  0  0  0
   48.4908   33.6346   39.0778 H   0  0  0  0  0  0  0  0  0  0  0  0
  1  2  2  0
  1 15  1  0
  3  2  1  0
  4  5  2  0
  4  3  1  0
  5  1  1  0
  6  4  1  0
  7 14  1  0
  8  7  2  0
  8  3  1  0
  9  8  1  0
 10 11  1  0
 10  9  2  0
 11 12  2  0
 12  7  1  0
 14 13  3  0
 15 16  2  0
 15 18  1  0
 17 22  2  0
 18 17  1  0
 19 18  2  0
 19 20  1  0
 20 21  2  0
 21 22  1  0
 23 19  1  0
 24 23  2  0
 25 24  1  0
 26 25  2  0
 26 27  1  0
 27 23  1  0
  2 28  1  0
  6 29  1  0
  6 30  1  0
  9 31  1  0
 10 32  1  0
 11 33  1  0
 12 34  1  0
 17 35  1  0
 21 36  1  0
 24 37  1  0
 25 38  1  0
 26 39  1  0
M  ISO  8  28  14  31  14  32  14  33  14  34  14  35  14  36  14  37  14
M  ISO  2  38  14  39  14
M  END
>  <minimizedAffinity>  (1) 
-7.00544882

>  <minimizedRMSD>  (1) 
3.38196778

$$$$
