
     RDKit          3D

 34 36  0  0  0  0  0  0  0  0999 V2000
   44.9060   33.6400   41.1700 C   0  0  0  0  0  0  0  0  0  0  0  0
   43.5440   34.2400   41.1510 C   0  0  0  0  0  0  0  0  0  0  0  0
   43.2070   35.3170   42.0270 C   0  0  0  0  0  0  0  0  0  0  0  0
   41.4440   35.6440   41.5770 S   0  0  0  0  0  0  0  0  0  0  0  0
   41.4860   34.2750   40.2960 C   0  0  0  0  0  0  0  0  0  0  0  0
   42.5490   33.8800   40.3800 N   0  0  0  0  0  0  0  0  0  0  0  0
   40.0240   34.5470   38.2720 C   0  0  0  0  0  0  0  0  0  0  0  0
   40.3100   33.9360   39.4670 C   0  0  0  0  0  0  0  0  0  0  0  0
   39.5060   32.9500   39.9770 C   0  0  0  0  0  0  0  0  0  0  0  0
   38.4040   32.5860   39.2640 C   0  0  0  0  0  0  0  0  0  0  0  0
   38.1240   33.2070   38.0640 C   0  0  0  0  0  0  0  0  0  0  0  0
   38.9150   34.2040   37.5240 C   0  0  0  0  0  0  0  0  0  0  0  0
   41.5570   36.4040   37.3300 N   0  0  0  0  0  0  0  0  0  0  0  0
   40.8770   35.5720   37.7610 C   0  0  0  0  0  0  0  0  0  0  0  0
   45.5370   33.4810   39.8200 C   0  0  0  0  0  0  0  0  0  0  0  0
   46.9460   33.0500   39.8630 C   0  0  0  0  0  0  0  0  0  0  0  0
   47.5860   32.8700   38.6170 C   0  0  0  0  0  0  0  0  0  0  0  0
   48.9080   32.4660   38.6000 C   0  0  0  0  0  0  0  0  0  0  0  0
   49.5410   32.2560   39.8050 N   0  0  0  0  0  0  0  0  0  0  0  0
   48.8940   32.4390   40.9620 C   0  0  0  0  0  0  0  0  0  0  0  0
   47.6190   32.8290   40.9860 N   0  0  0  0  0  0  0  0  0  0  0  0
   46.7120   33.1570   37.0900 S   0  0  0  0  0  0  0  0  0  0  0  0
   45.5565   34.2850   41.7789 H   0  0  0  0  0  0  0  0  0  0  0  0
   44.7943   32.6266   41.5830 H   0  0  0  0  0  0  0  0  0  0  0  0
   43.8347   35.8216   42.7762 H   0  0  0  0  0  0  0  0  0  0  0  0
   39.7442   32.4660   40.9357 H   0  0  0  0  0  0  0  0  0  0  0  0
   37.7378   31.7977   39.6445 H   0  0  0  0  0  0  0  0  0  0  0  0
   37.2272   32.8933   37.5097 H   0  0  0  0  0  0  0  0  0  0  0  0
   38.6777   34.6898   36.5660 H   0  0  0  0  0  0  0  0  0  0  0  0
   45.4871   34.4485   39.2989 H   0  0  0  0  0  0  0  0  0  0  0  0
   44.9782   32.6896   39.2991 H   0  0  0  0  0  0  0  0  0  0  0  0
   49.4403   32.3162   37.6491 H   0  0  0  0  0  0  0  0  0  0  0  0
   49.4234   32.2646   41.9103 H   0  0  0  0  0  0  0  0  0  0  0  0
   45.4369   33.5757   37.3654 H   0  0  0  0  0  0  0  0  0  0  0  0
  2  1  1  0
  2  3  2  0
  4  3  1  0
  5  6  2  0
  5  4  1  0
  6  2  1  0
  7  8  2  0
  8  9  1  0
  8  5  1  0
 10  9  2  0
 11 10  1  0
 12 11  2  0
 12  7  1  0
 13 14  3  0
 14  7  1  0
 15 16  1  0
 15  1  1  0
 16 21  1  0
 17 16  2  0
 18 17  1  0
 18 19  2  0
 19 20  1  0
 20 21  2  0
 22 17  1  0
  1 23  1  0
  1 24  1  0
  3 25  1  0
  9 26  1  0
 10 27  1  0
 11 28  1  0
 12 29  1  0
 15 30  1  0
 15 31  1  0
 18 32  1  0
 20 33  1  0
 22 34  1  0
M  ISO  8  23   8  24   8  25  14  26  14  27  14  28  14  29  14  30   8
M  ISO  4  31   8  32  14  33  14  34  11
M  END
>  <minimizedAffinity>  (1) 
-4.96428537

>  <minimizedRMSD>  (1) 
2.5477829

$$$$
