
     RDKit          3D

 41 45  0  0  0  0  0  0  0  0999 V2000
   45.3200   34.7800   43.5450 C   0  0  0  0  0  0  0  0  0  0  0  0
   46.0500   33.7010   44.1050 C   0  0  0  0  0  0  0  0  0  0  0  0
   45.9630   33.5130   45.4640 C   0  0  0  0  0  0  0  0  0  0  0  0
   45.1960   34.3560   46.1930 N   0  0  0  0  0  0  0  0  0  0  0  0
   44.5060   35.3810   45.6410 C   0  0  0  0  0  0  0  0  0  0  0  0
   44.5700   35.5860   44.3330 N   0  0  0  0  0  0  0  0  0  0  0  0
   46.9880   32.6920   47.5180 C   0  0  0  0  0  0  0  0  0  0  0  0
   46.6460   32.4520   46.1960 C   0  0  0  0  0  0  0  0  0  0  0  0
   46.9590   31.2330   45.6600 C   0  0  0  0  0  0  0  0  0  0  0  0
   47.5960   30.2440   46.3830 C   0  0  0  0  0  0  0  0  0  0  0  0
   47.9900   28.9840   46.0600 N   0  0  0  0  0  0  0  0  0  0  0  0
   48.5740   28.4530   47.1860 C   0  0  0  0  0  0  0  0  0  0  0  0
   48.5290   29.3720   48.1570 N   0  0  0  0  0  0  0  0  0  0  0  0
   47.9350   30.4730   47.6820 C   0  0  0  0  0  0  0  0  0  0  0  0
   47.6320   31.6980   48.2540 C   0  0  0  0  0  0  0  0  0  0  0  0
   45.4150   34.9630   42.1600 O   0  0  0  0  0  0  0  0  0  0  0  0
   44.3730   34.5230   41.3410 C   0  0  0  0  0  0  0  0  0  0  0  0
   45.0880   33.8830   40.3970 C   0  0  0  0  0  0  0  0  0  0  0  0
   43.7020   33.2500   39.2440 S   0  0  0  0  0  0  0  0  0  0  0  0
   42.4280   34.0440   40.3740 C   0  0  0  0  0  0  0  0  0  0  0  0
   43.0720   34.4820   41.1370 N   0  0  0  0  0  0  0  0  0  0  0  0
   40.3680   34.6590   39.0970 C   0  0  0  0  0  0  0  0  0  0  0  0
   40.9560   33.9660   40.0950 C   0  0  0  0  0  0  0  0  0  0  0  0
   40.2820   33.1280   40.9490 C   0  0  0  0  0  0  0  0  0  0  0  0
   38.9260   33.0250   40.7280 C   0  0  0  0  0  0  0  0  0  0  0  0
   38.3030   33.7200   39.7200 C   0  0  0  0  0  0  0  0  0  0  0  0
   39.0000   34.5570   38.8740 C   0  0  0  0  0  0  0  0  0  0  0  0
   41.6860   36.2180   37.5270 N   0  0  0  0  0  0  0  0  0  0  0  0
   41.1040   35.5170   38.2370 C   0  0  0  0  0  0  0  0  0  0  0  0
   46.6630   33.0392   43.4755 H   0  0  0  0  0  0  0  0  0  0  0  0
   43.8951   36.0407   46.2746 H   0  0  0  0  0  0  0  0  0  0  0  0
   46.7528   33.6605   47.9834 H   0  0  0  0  0  0  0  0  0  0  0  0
   46.6927   31.0327   44.6117 H   0  0  0  0  0  0  0  0  0  0  0  0
   47.8738   28.5176   45.1490 H   0  0  0  0  0  0  0  0  0  0  0  0
   49.0047   27.4446   47.2734 H   0  0  0  0  0  0  0  0  0  0  0  0
   47.9031   31.8890   49.3028 H   0  0  0  0  0  0  0  0  0  0  0  0
   46.1776   33.7580   40.3121 H   0  0  0  0  0  0  0  0  0  0  0  0
   40.7899   32.5769   41.7542 H   0  0  0  0  0  0  0  0  0  0  0  0
   38.3263   32.3688   41.3759 H   0  0  0  0  0  0  0  0  0  0  0  0
   37.2175   33.6057   39.5838 H   0  0  0  0  0  0  0  0  0  0  0  0
   38.5006   35.1133   38.0671 H   0  0  0  0  0  0  0  0  0  0  0  0
  1  2  2  0
  1  6  1  0
  2  3  1  0
  3  4  2  0
  3  8  1  0
  5  4  1  0
  6  5  2  0
  7 15  2  0
  8  7  1  0
  9  8  2  0
  9 10  1  0
 10 14  2  0
 11 10  1  0
 11 12  1  0
 12 13  2  0
 14 13  1  0
 14 15  1  0
 16  1  1  0
 17 16  1  0
 18 17  2  0
 19 20  1  0
 19 18  1  0
 20 21  2  0
 21 17  1  0
 22 23  2  0
 23 20  1  0
 23 24  1  0
 25 24  2  0
 26 25  1  0
 27 22  1  0
 27 26  2  0
 28 29  3  0
 29 22  1  0
  2 30  1  0
  5 31  1  0
  7 32  1  0
  9 33  1  0
 11 34  1  0
 12 35  1  0
 15 36  1  0
 18 37  1  0
 24 38  1  0
 25 39  1  0
 26 40  1  0
 27 41  1  0
M  ISO  8  30  14  31  14  32  14  33  14  34   9  35  14  36  14  37  14
M  ISO  4  38  14  39  14  40  14  41  14
M  END
>  <minimizedAffinity>  (1) 
-7.04703856

>  <minimizedRMSD>  (1) 
1.23345172

$$$$
