
     RDKit          3D

 46 49  0  0  1  0  0  0  0  0999 V2000
   47.2270   32.9440   43.4400 C   0  0  0  0  0  0  0  0  0  0  0  0
   47.8140   33.2290   42.2830 C   0  0  0  0  0  0  0  0  0  0  0  0
   48.6800   32.2920   41.8340 C   0  0  0  0  0  0  0  0  0  0  0  0
   48.8830   31.1290   42.6030 N   0  0  0  0  0  0  0  0  0  0  0  0
   48.2660   30.9060   43.7500 C   0  0  0  0  0  0  0  0  0  0  0  0
   47.3870   31.8360   44.2280 N   0  0  0  0  0  0  0  0  0  0  0  0
   47.7060   34.4200   41.5300 C   0  0  1  0  0  0  0  0  0  0  0  0
   48.5420   34.9730   40.6230 C   0  0  0  0  0  0  0  0  0  0  0  0
   47.2750   34.3700   40.0440 C   0  0  1  0  0  0  0  0  0  0  0  0
   46.7110   32.6950   38.2820 C   0  0  0  0  0  0  0  0  0  0  0  0
   47.6320   33.3740   39.0580 C   0  0  0  0  0  0  0  0  0  0  0  0
   48.8880   32.9250   38.6900 C   0  0  0  0  0  0  0  0  0  0  0  0
   49.3080   32.0080   37.7750 C   0  0  0  0  0  0  0  0  0  0  0  0
   48.2980   31.3990   37.0670 C   0  0  0  0  0  0  0  0  0  0  0  0
   46.9860   31.7290   37.3050 C   0  0  0  0  0  0  0  0  0  0  0  0
   44.1840   33.2260   38.3950 N   0  0  0  0  0  0  0  0  0  0  0  0
   45.3090   32.9840   38.3550 C   0  0  0  0  0  0  0  0  0  0  0  0
   46.2040   33.7500   44.1380 C   0  0  0  0  0  0  0  0  0  0  0  0
   45.7510   34.3280   45.0950 O   0  0  0  0  0  0  0  0  0  0  0  0
   44.4000   31.4300   43.2050 Cl  0  0  0  0  0  0  0  0  0  0  0  0
   44.1920   33.0870   42.6450 C   0  0  0  0  0  0  0  0  0  0  0  0
   45.0980   34.0370   43.1800 C   0  0  0  0  0  0  0  0  0  0  0  0
   44.8300   35.2870   42.6770 C   0  0  0  0  0  0  0  0  0  0  0  0
   43.9130   35.7000   41.8240 C   0  0  0  0  0  0  0  0  0  0  0  0
   43.0640   34.7380   41.3400 C   0  0  0  0  0  0  0  0  0  0  0  0
   43.1940   33.4300   41.7430 C   0  0  0  0  0  0  0  0  0  0  0  0
   42.2930   32.5560   41.1950 O   0  0  0  0  0  0  0  0  0  0  0  0
   40.0540   31.3060   40.6550 O   0  0  0  0  0  0  0  0  0  0  0  0
   40.7940   32.0330   41.7540 P   0  0  0  0  0  0  0  0  0  0  0  0
   41.0190   31.0390   43.1060 O   0  0  0  0  0  0  0  0  0  0  0  0
   39.8650   33.3470   42.3090 O   0  0  0  0  0  0  0  0  0  0  0  0
   49.2167   32.4355   40.8846 H   0  0  0  0  0  0  0  0  0  0  0  0
   48.4581   29.9813   44.3139 H   0  0  0  0  0  0  0  0  0  0  0  0
   47.3434   34.8257   42.4860 H   0  0  0  0  0  0  0  0  0  0  0  0
   48.6703   36.0654   40.6089 H   0  0  0  0  0  0  0  0  0  0  0  0
   49.6092   34.8239   40.4020 H   0  0  0  0  0  0  0  0  0  0  0  0
   46.2995   34.5559   39.5709 H   0  0  0  0  0  0  0  0  0  0  0  0
   49.7084   33.4026   39.2457 H   0  0  0  0  0  0  0  0  0  0  0  0
   50.3706   31.7729   37.6148 H   0  0  0  0  0  0  0  0  0  0  0  0
   48.5424   30.6434   36.3059 H   0  0  0  0  0  0  0  0  0  0  0  0
   46.1722   31.2473   36.7431 H   0  0  0  0  0  0  0  0  0  0  0  0
   45.4948   36.0800   43.0500 H   0  0  0  0  0  0  0  0  0  0  0  0
   43.8338   36.7538   41.5188 H   0  0  0  0  0  0  0  0  0  0  0  0
   42.2747   35.0144   40.6254 H   0  0  0  0  0  0  0  0  0  0  0  0
   40.8983   31.5722   43.9314 H   0  0  0  0  0  0  0  0  0  0  0  0
   39.8606   33.3532   43.2990 H   0  0  0  0  0  0  0  0  0  0  0  0
  1 18  1  0
  1  6  2  0
  2  1  1  0
  3  2  2  0
  3  4  1  0
  4  5  2  0
  5  6  1  0
  7  2  1  0
  8  7  1  0
  9  8  1  0
  9  7  1  0
 10 17  1  0
 10 11  2  0
 11  9  1  0
 12 11  1  0
 13 12  2  0
 14 15  2  0
 14 13  1  0
 15 10  1  0
 17 16  3  0
 18 19  2  0
 21 22  2  0
 21 20  1  0
 22 18  1  0
 23 22  1  0
 24 23  2  0
 25 26  2  0
 25 24  1  0
 26 21  1  0
 27 26  1  0
 27 29  1  0
 28 29  2  0
 29 31  1  0
 29 30  1  0
  3 32  1  0
  5 33  1  0
  7 34  1  1
  8 35  1  0
  8 36  1  0
  9 37  1  1
 12 38  1  0
 13 39  1  0
 14 40  1  0
 15 41  1  0
 23 42  1  0
 24 43  1  0
 25 44  1  0
 30 45  1  0
 31 46  1  0
M  ISO  8  32  14  33  14  34  13  35  13  36  13  37  13  38  14  39  14
M  ISO  7  40  14  41  14  42  14  43  14  44  14  45   3  46   3
M  END
>  <minimizedAffinity>  (1) 
-5.67479897

>  <minimizedRMSD>  (1) 
1.37258673

$$$$
