
     RDKit          3D

 49 52  0  0  1  0  0  0  0  0999 V2000
   47.7630   34.1020   41.5530 C   0  0  0  0  0  0  0  0  0  0  0  0
   48.4270   35.2010   42.0990 C   0  0  0  0  0  0  0  0  0  0  0  0
   49.7490   35.1700   42.5170 C   0  0  0  0  0  0  0  0  0  0  0  0
   50.3760   33.9270   42.3460 C   0  0  0  0  0  0  0  0  0  0  0  0
   49.6960   32.8240   41.7940 C   0  0  0  0  0  0  0  0  0  0  0  0
   48.4120   32.9310   41.4110 N   0  0  0  0  0  0  0  0  0  0  0  0
   50.4130   31.5660   41.6270 C   0  0  1  0  0  0  0  0  0  0  0  0
   51.6860   31.7760   40.7080 C   0  0  0  0  0  0  0  0  0  0  0  0
   52.0210   30.3150   40.2930 C   0  0  0  0  0  0  0  0  0  0  0  0
   52.6360   29.7150   41.5530 C   0  0  0  0  0  0  0  0  0  0  0  0
   51.6570   29.6750   42.6690 C   0  0  0  0  0  0  0  0  0  0  0  0
   50.7450   30.8340   42.8120 C   0  0  2  0  0  0  0  0  0  0  0  0
   49.1830   30.1780   43.4830 S   0  0  0  0  0  0  0  0  0  0  0  0
   44.2140   34.9260   41.4120 C   0  0  0  0  0  0  0  0  0  0  0  0
   43.7860   34.4140   40.1900 C   0  0  0  0  0  0  0  0  0  0  0  0
   44.7580   33.7820   39.4310 C   0  0  0  0  0  0  0  0  0  0  0  0
   46.0380   33.6990   39.9100 N   0  0  0  0  0  0  0  0  0  0  0  0
   46.3820   34.2340   41.1360 C   0  0  0  0  0  0  0  0  0  0  0  0
   45.4900   34.8230   41.8490 N   0  0  0  0  0  0  0  0  0  0  0  0
   44.5260   33.2130   38.1830 N   0  0  0  0  0  0  0  0  0  0  0  0
   41.5250   33.5630   40.1870 C   0  0  0  0  0  0  0  0  0  0  0  0
   42.4220   34.5030   39.6800 C   0  0  0  0  0  0  0  0  0  0  0  0
   41.9700   35.4350   38.7500 C   0  0  0  0  0  0  0  0  0  0  0  0
   40.6460   35.3940   38.3640 C   0  0  0  0  0  0  0  0  0  0  0  0
   39.7360   34.4770   38.8470 C   0  0  0  0  0  0  0  0  0  0  0  0
   40.2080   33.5490   39.7790 C   0  0  0  0  0  0  0  0  0  0  0  0
   42.2500   31.7700   41.9210 N   0  0  0  0  0  0  0  0  0  0  0  0
   41.9360   32.5740   41.1520 C   0  0  0  0  0  0  0  0  0  0  0  0
   47.8711   36.1444   42.2037 H   0  0  0  0  0  0  0  0  0  0  0  0
   50.2613   36.0441   42.9454 H   0  0  0  0  0  0  0  0  0  0  0  0
   51.4264   33.8106   42.6510 H   0  0  0  0  0  0  0  0  0  0  0  0
   49.6776   30.9107   41.1373 H   0  0  0  0  0  0  0  0  0  0  0  0
   51.4496   32.3974   39.8317 H   0  0  0  0  0  0  0  0  0  0  0  0
   52.5150   32.2993   41.2069 H   0  0  0  0  0  0  0  0  0  0  0  0
   51.1101   29.7706   40.0032 H   0  0  0  0  0  0  0  0  0  0  0  0
   52.6922   30.2615   39.4232 H   0  0  0  0  0  0  0  0  0  0  0  0
   52.9712   28.6904   41.3344 H   0  0  0  0  0  0  0  0  0  0  0  0
   53.4831   30.3466   41.8587 H   0  0  0  0  0  0  0  0  0  0  0  0
   51.0341   28.7789   42.5307 H   0  0  0  0  0  0  0  0  0  0  0  0
   52.2689   29.6814   43.5831 H   0  0  0  0  0  0  0  0  0  0  0  0
   51.2848   31.5532   43.4456 H   0  0  0  0  0  0  0  0  0  0  0  0
   49.2301   30.1978   44.8520 H   0  0  0  0  0  0  0  0  0  0  0  0
   43.4803   35.4381   42.0519 H   0  0  0  0  0  0  0  0  0  0  0  0
   43.5829   33.2440   37.7701 H   0  0  0  0  0  0  0  0  0  0  0  0
   45.2973   32.7607   37.6718 H   0  0  0  0  0  0  0  0  0  0  0  0
   42.6539   36.1882   38.3317 H   0  0  0  0  0  0  0  0  0  0  0  0
   40.2964   36.1345   37.6295 H   0  0  0  0  0  0  0  0  0  0  0  0
   38.6876   34.4762   38.5141 H   0  0  0  0  0  0  0  0  0  0  0  0
   39.5197   32.7973   40.1927 H   0  0  0  0  0  0  0  0  0  0  0  0
  1  2  2  0
  2  3  1  0
  4  3  2  0
  5  4  1  0
  6  1  1  0
  6  5  2  0
  7  5  1  0
  7 12  1  0
  8  7  1  0
  9  8  1  0
  9 10  1  0
 10 11  1  0
 11 12  1  0
 12 13  1  0
 14 19  2  0
 15 14  1  0
 16 17  1  0
 16 15  2  0
 17 18  2  0
 18  1  1  0
 18 19  1  0
 20 16  1  0
 21 28  1  0
 22 21  2  0
 22 15  1  0
 23 22  1  0
 24 23  2  0
 24 25  1  0
 25 26  2  0
 26 21  1  0
 28 27  3  0
  2 29  1  0
  3 30  1  0
  4 31  1  0
  7 32  1  6
  8 33  1  0
  8 34  1  0
  9 35  1  0
  9 36  1  0
 10 37  1  0
 10 38  1  0
 11 39  1  0
 11 40  1  0
 12 41  1  1
 13 42  1  0
 14 43  1  0
 20 44  1  0
 20 45  1  0
 23 46  1  0
 24 47  1  0
 25 48  1  0
 26 49  1  0
M  ISO  8  29  14  30  14  31  14  32  13  33  13  34  13  35  13  36  13
M  ISO  8  37  13  38  13  39  13  40  13  41  13  42  11  43  14  46  14
M  ISO  3  47  14  48  14  49  14
M  END
>  <minimizedAffinity>  (1) 
-6.18566465

>  <minimizedRMSD>  (1) 
6.81530523

$$$$
