
     RDKit          3D

 41 43  0  0  0  0  0  0  0  0999 V2000
   46.2490   32.7840   46.5170 C   0  0  0  0  0  0  0  0  0  0  0  0
   44.5200   35.6920   44.8990 C   0  0  0  0  0  0  0  0  0  0  0  0
   45.1180   35.6570   43.6190 C   0  0  0  0  0  0  0  0  0  0  0  0
   46.0590   34.6560   43.3980 C   0  0  0  0  0  0  0  0  0  0  0  0
   46.3530   33.7730   44.4090 N   0  0  0  0  0  0  0  0  0  0  0  0
   45.7510   33.8610   45.5990 C   0  0  0  0  0  0  0  0  0  0  0  0
   44.8250   34.8160   45.8750 N   0  0  0  0  0  0  0  0  0  0  0  0
   46.6780   34.5990   42.1130 N   0  0  0  0  0  0  0  0  0  0  0  0
   47.9060   35.1500   41.9720 C   0  0  0  0  0  0  0  0  0  0  0  0
   48.5070   35.0980   40.7230 C   0  0  0  0  0  0  0  0  0  0  0  0
   47.8500   34.5010   39.6980 C   0  0  0  0  0  0  0  0  0  0  0  0
   48.4160   34.4610   38.5590 O   0  0  0  0  0  0  0  0  0  0  0  0
   46.6310   33.9490   39.8200 N   0  0  0  0  0  0  0  0  0  0  0  0
   46.0700   34.0180   41.0590 C   0  0  0  0  0  0  0  0  0  0  0  0
   44.9420   33.5400   41.2920 O   0  0  0  0  0  0  0  0  0  0  0  0
   45.3090   32.6100   47.6890 C   0  0  0  0  0  0  0  0  0  0  0  0
   45.6890   30.1600   47.8720 C   0  0  0  0  0  0  0  0  0  0  0  0
   46.8230   30.5080   48.2620 O   0  0  0  0  0  0  0  0  0  0  0  0
   44.8010   31.2480   47.6720 N   0  0  0  0  0  0  0  0  0  0  0  0
   44.8270   28.5810   46.2390 C   0  0  0  0  0  0  0  0  0  0  0  0
   45.1040   28.8500   47.5850 C   0  0  0  0  0  0  0  0  0  0  0  0
   44.8150   27.8900   48.5320 C   0  0  0  0  0  0  0  0  0  0  0  0
   44.2620   26.6920   48.1150 C   0  0  0  0  0  0  0  0  0  0  0  0
   43.9780   26.3950   46.7940 C   0  0  0  0  0  0  0  0  0  0  0  0
   44.2710   27.3680   45.8450 C   0  0  0  0  0  0  0  0  0  0  0  0
   45.3600   30.3430   44.3970 N   0  0  0  0  0  0  0  0  0  0  0  0
   45.1140   29.5660   45.2070 C   0  0  0  0  0  0  0  0  0  0  0  0
   47.2462   33.0595   46.8907 H   0  0  0  0  0  0  0  0  0  0  0  0
   46.3010   31.8373   45.9593 H   0  0  0  0  0  0  0  0  0  0  0  0
   43.7712   36.4704   45.1075 H   0  0  0  0  0  0  0  0  0  0  0  0
   44.8531   36.3840   42.8372 H   0  0  0  0  0  0  0  0  0  0  0  0
   48.4134   35.6258   42.8242 H   0  0  0  0  0  0  0  0  0  0  0  0
   49.5040   35.5355   40.5660 H   0  0  0  0  0  0  0  0  0  0  0  0
   46.1509   33.5017   39.0261 H   0  0  0  0  0  0  0  0  0  0  0  0
   45.8498   32.7930   48.6292 H   0  0  0  0  0  0  0  0  0  0  0  0
   44.4762   33.3248   47.6147 H   0  0  0  0  0  0  0  0  0  0  0  0
   43.7981   31.0733   47.5150 H   0  0  0  0  0  0  0  0  0  0  0  0
   45.0199   28.0729   49.5972 H   0  0  0  0  0  0  0  0  0  0  0  0
   44.0352   25.9323   48.8776 H   0  0  0  0  0  0  0  0  0  0  0  0
   43.5384   25.4286   46.5062 H   0  0  0  0  0  0  0  0  0  0  0  0
   44.0630   27.1786   44.7816 H   0  0  0  0  0  0  0  0  0  0  0  0
  1 16  1  0
  2  7  2  0
  3  2  1  0
  4  3  2  0
  4  5  1  0
  5  6  2  0
  6  7  1  0
  6  1  1  0
  8  4  1  0
  9  8  1  0
 10  9  2  0
 11 13  1  0
 11 10  1  0
 12 11  2  0
 13 14  1  0
 14 15  2  0
 14  8  1  0
 17 18  2  0
 19 16  1  0
 19 17  1  0
 20 21  2  0
 21 17  1  0
 21 22  1  0
 23 22  2  0
 24 23  1  0
 25 20  1  0
 25 24  2  0
 26 27  3  0
 27 20  1  0
  1 28  1  0
  1 29  1  0
  2 30  1  0
  3 31  1  0
  9 32  1  0
 10 33  1  0
 13 34  1  0
 16 35  1  0
 16 36  1  0
 19 37  1  0
 22 38  1  0
 23 39  1  0
 24 40  1  0
 25 41  1  0
M  ISO  8  28   8  29   8  30  14  31  14  32  14  33  14  34   9  35   8
M  ISO  5  36   8  38  14  39  14  40  14  41  14
M  END
>  <minimizedAffinity>  (1) 
-6.42353964

>  <minimizedRMSD>  (1) 
0.843419552

$$$$
