
     RDKit          3D

 27 28  0  0  0  0  0  0  0  0999 V2000
   43.4530   34.5280   41.9340 C   0  0  0  0  0  0  0  0  0  0  0  0
   43.5410   33.3360   42.3610 O   0  0  0  0  0  0  0  0  0  0  0  0
   44.4630   35.3820   42.4660 N   0  0  0  0  0  0  0  0  0  0  0  0
   45.2910   34.5980   43.3620 C   0  0  0  0  0  0  0  0  0  0  0  0
   45.1840   34.5820   44.7550 C   0  0  0  0  0  0  0  0  0  0  0  0
   46.0730   33.7640   45.4260 C   0  0  0  0  0  0  0  0  0  0  0  0
   46.9590   33.0560   44.7120 N   0  0  0  0  0  0  0  0  0  0  0  0
   47.0440   33.0850   43.3790 C   0  0  0  0  0  0  0  0  0  0  0  0
   46.2020   33.8650   42.6940 N   0  0  0  0  0  0  0  0  0  0  0  0
   44.1820   35.4020   45.3160 N   0  0  0  0  0  0  0  0  0  0  0  0
   42.6650   34.5600   39.7000 C   0  0  0  0  0  0  0  0  0  0  0  0
   42.4200   34.9550   40.9990 C   0  0  0  0  0  0  0  0  0  0  0  0
   41.3540   35.6680   41.4350 C   0  0  0  0  0  0  0  0  0  0  0  0
   40.4020   36.0460   40.4810 C   0  0  0  0  0  0  0  0  0  0  0  0
   40.6610   35.6430   39.1870 C   0  0  0  0  0  0  0  0  0  0  0  0
   41.7310   34.9230   38.7300 C   0  0  0  0  0  0  0  0  0  0  0  0
   44.7580   33.2030   38.9730 N   0  0  0  0  0  0  0  0  0  0  0  0
   43.8140   33.8020   39.2920 C   0  0  0  0  0  0  0  0  0  0  0  0
   44.5837   36.3821   42.2513 H   0  0  0  0  0  0  0  0  0  0  0  0
   46.0538   33.6954   46.5237 H   0  0  0  0  0  0  0  0  0  0  0  0
   47.7949   32.4767   42.8536 H   0  0  0  0  0  0  0  0  0  0  0  0
   44.0540   35.4329   46.3375 H   0  0  0  0  0  0  0  0  0  0  0  0
   43.5786   35.9696   44.7039 H   0  0  0  0  0  0  0  0  0  0  0  0
   41.2411   35.9388   42.4951 H   0  0  0  0  0  0  0  0  0  0  0  0
   39.5059   36.6265   40.7456 H   0  0  0  0  0  0  0  0  0  0  0  0
   39.9173   35.9360   38.4314 H   0  0  0  0  0  0  0  0  0  0  0  0
   41.8465   34.6494   37.6708 H   0  0  0  0  0  0  0  0  0  0  0  0
  1  2  2  0
  1  3  1  0
  3  4  1  0
  4  5  2  0
  5 10  1  0
  5  6  1  0
  7  6  2  0
  8  7  1  0
  9  4  1  0
  9  8  2  0
 11 12  2  0
 12 13  1  0
 12  1  1  0
 14 13  2  0
 15 14  1  0
 16 15  2  0
 16 11  1  0
 17 18  3  0
 18 11  1  0
  3 19  1  0
  6 20  1  0
  8 21  1  0
 10 22  1  0
 10 23  1  0
 13 24  1  0
 14 25  1  0
 15 26  1  0
 16 27  1  0
M  ISO  6  20  14  21  14  24  14  25  14  26  14  27  14
M  END
>  <minimizedAffinity>  (1) 
-5.15898085

>  <minimizedRMSD>  (1) 
2.07219243

$$$$
