
     RDKit          3D

 48 52  0  0  1  0  0  0  0  0999 V2000
   45.1670   28.1850   48.6120 C   0  0  0  0  0  0  0  0  0  0  0  0
   45.0410   29.5140   48.2830 C   0  0  0  0  0  0  0  0  0  0  0  0
   44.4120   29.7850   47.0750 C   0  0  0  0  0  0  0  0  0  0  0  0
   43.9420   28.7860   46.2500 C   0  0  0  0  0  0  0  0  0  0  0  0
   43.3150   28.7470   45.0600 N   0  0  0  0  0  0  0  0  0  0  0  0
   43.0710   27.4940   44.6770 C   0  0  0  0  0  0  0  0  0  0  0  0
   43.5450   26.6230   45.6360 C   0  0  0  0  0  0  0  0  0  0  0  0
   44.0800   27.4550   46.6010 C   0  0  0  0  0  0  0  0  0  0  0  0
   44.6980   27.1750   47.7910 C   0  0  0  0  0  0  0  0  0  0  0  0
   46.7810   25.5820   46.9510 O   0  0  0  0  0  0  0  0  0  0  0  0
   46.3050   25.3560   48.1000 C   0  0  0  0  0  0  0  0  0  0  0  0
   44.9160   25.8020   48.3140 C   0  0  1  0  0  0  0  0  0  0  0  0
   44.6080   25.6600   49.7810 C   0  0  0  0  0  0  0  0  0  0  0  0
   45.5910   24.5970   50.2140 C   0  0  0  0  0  0  0  0  0  0  0  0
   46.7480   24.7530   49.3340 N   0  0  0  0  0  0  0  0  0  0  0  0
   45.4620   30.6990   49.0040 C   0  0  0  0  0  0  0  0  0  0  0  0
   46.8090   31.2430   48.6780 C   0  0  0  0  0  0  0  0  0  0  0  0
   46.3970   33.0980   45.6560 C   0  0  0  0  0  0  0  0  0  0  0  0
   47.2450   32.0410   45.2430 C   0  0  0  0  0  0  0  0  0  0  0  0
   47.4960   31.2360   46.3070 C   0  0  0  0  0  0  0  0  0  0  0  0
   46.8310   31.7700   47.3340 N   0  0  0  0  0  0  0  0  0  0  0  0
   46.1750   32.8800   46.9510 N   0  0  0  0  0  0  0  0  0  0  0  0
   44.4740   35.9270   44.4120 C   0  0  0  0  0  0  0  0  0  0  0  0
   45.0020   36.1450   43.1420 C   0  0  0  0  0  0  0  0  0  0  0  0
   46.0300   35.3030   42.7190 C   0  0  0  0  0  0  0  0  0  0  0  0
   46.4480   34.3330   43.5650 N   0  0  0  0  0  0  0  0  0  0  0  0
   45.9280   34.1420   44.7790 C   0  0  0  0  0  0  0  0  0  0  0  0
   44.9310   34.9490   45.2020 N   0  0  0  0  0  0  0  0  0  0  0  0
   45.6569   27.9158   49.5594 H   0  0  0  0  0  0  0  0  0  0  0  0
   44.2845   30.8330   46.7659 H   0  0  0  0  0  0  0  0  0  0  0  0
   43.0561   29.5809   44.5137 H   0  0  0  0  0  0  0  0  0  0  0  0
   42.5702   27.2004   43.7427 H   0  0  0  0  0  0  0  0  0  0  0  0
   43.5062   25.5237   45.6332 H   0  0  0  0  0  0  0  0  0  0  0  0
   44.2132   25.1743   47.7464 H   0  0  0  0  0  0  0  0  0  0  0  0
   44.7804   26.6046   50.3177 H   0  0  0  0  0  0  0  0  0  0  0  0
   43.5591   25.4012   49.9882 H   0  0  0  0  0  0  0  0  0  0  0  0
   45.8832   24.7483   51.2636 H   0  0  0  0  0  0  0  0  0  0  0  0
   45.1582   23.5882   50.1440 H   0  0  0  0  0  0  0  0  0  0  0  0
   47.7155   24.4789   49.5570 H   0  0  0  0  0  0  0  0  0  0  0  0
   44.7258   31.4907   48.8007 H   0  0  0  0  0  0  0  0  0  0  0  0
   45.5262   30.3864   50.0567 H   0  0  0  0  0  0  0  0  0  0  0  0
   47.0553   32.0478   49.3863 H   0  0  0  0  0  0  0  0  0  0  0  0
   47.5477   30.4314   48.7535 H   0  0  0  0  0  0  0  0  0  0  0  0
   47.6366   31.8960   44.2253 H   0  0  0  0  0  0  0  0  0  0  0  0
   48.1194   30.3298   46.3202 H   0  0  0  0  0  0  0  0  0  0  0  0
   43.6618   36.5744   44.7742 H   0  0  0  0  0  0  0  0  0  0  0  0
   44.6225   36.9510   42.4968 H   0  0  0  0  0  0  0  0  0  0  0  0
   46.4880   35.4238   41.7262 H   0  0  0  0  0  0  0  0  0  0  0  0
  2  1  2  0
  2 16  1  0
  3  2  1  0
  4  8  1  0
  4  3  2  0
  5  4  1  0
  6  5  1  0
  6  7  2  0
  7  8  1  0
  8  9  2  0
  9  1  1  0
 10 11  2  0
 11 12  1  0
 11 15  1  0
 12  9  1  0
 12 13  1  0
 13 14  1  0
 15 14  1  0
 17 16  1  0
 18 22  2  0
 19 18  1  0
 19 20  2  0
 20 21  1  0
 21 17  1  0
 22 21  1  0
 23 28  2  0
 24 23  1  0
 25 24  2  0
 25 26  1  0
 26 27  2  0
 27 28  1  0
 27 18  1  0
  1 29  1  0
  3 30  1  0
  5 31  1  0
  6 32  1  0
  7 33  1  0
 12 34  1  6
 13 35  1  0
 13 36  1  0
 14 37  1  0
 14 38  1  0
 15 39  1  0
 16 40  1  0
 16 41  1  0
 17 42  1  0
 17 43  1  0
 19 44  1  0
 20 45  1  0
 23 46  1  0
 24 47  1  0
 25 48  1  0
M  ISO  8  29  14  30  14  31   9  32  14  33  14  34  13  35  13  36  13
M  ISO  8  37  13  38  13  39  10  40   8  41   8  42   8  43   8  44  14
M  ISO  4  45  14  46  14  47  14  48  14
M  END
>  <minimizedAffinity>  (1) 
-5.86486149

>  <minimizedRMSD>  (1) 
1.03045213

$$$$
