
     RDKit          3D

 51 54  0  0  1  0  0  0  0  0999 V2000
   46.1090   33.7690   40.4350 C   0  0  0  0  0  0  0  0  0  0  0  0
   46.6820   33.5580   39.1990 C   0  0  0  0  0  0  0  0  0  0  0  0
   47.9050   34.0460   38.8150 C   0  0  0  0  0  0  0  0  0  0  0  0
   48.5850   34.8060   39.7750 C   0  0  0  0  0  0  0  0  0  0  0  0
   48.0630   35.0470   41.0180 C   0  0  0  0  0  0  0  0  0  0  0  0
   46.8420   34.5410   41.3550 C   0  0  0  0  0  0  0  0  0  0  0  0
   46.3950   34.8350   42.6580 N   0  0  0  0  0  0  0  0  0  0  0  0
   45.5170   35.9200   42.9850 C   0  0  0  0  0  0  0  0  0  0  0  0
   44.8460   35.6970   44.3260 C   0  0  0  0  0  0  0  0  0  0  0  0
   44.4820   34.3460   44.5940 N   0  0  0  0  0  0  0  0  0  0  0  0
   45.5370   33.4100   44.4520 C   0  0  0  0  0  0  0  0  0  0  0  0
   46.7570   34.0840   43.8700 C   0  0  0  0  0  0  0  0  0  0  0  0
   44.8000   33.2480   40.8390 C   0  0  0  0  0  0  0  0  0  0  0  0
   43.7770   33.3980   39.7330 C   0  0  0  0  0  0  0  0  0  0  0  0
   41.4410   35.5540   41.7730 C   0  0  0  0  0  0  0  0  0  0  0  0
   42.6350   34.9950   41.2640 C   0  0  0  0  0  0  0  0  0  0  0  0
   42.5410   33.9990   40.2910 C   0  0  0  0  0  0  0  0  0  0  0  0
   41.2920   33.6160   39.8820 N   0  0  0  0  0  0  0  0  0  0  0  0
   40.1810   34.1710   40.3890 C   0  0  0  0  0  0  0  0  0  0  0  0
   40.2520   35.1340   41.3290 N   0  0  0  0  0  0  0  0  0  0  0  0
   38.7120   34.1590   37.5210 O   0  0  0  0  0  0  0  0  0  0  0  0
   38.7460   33.3840   38.5270 C   0  0  0  0  0  0  0  0  0  0  0  0
   38.8200   33.7530   39.9420 C   0  0  1  0  0  0  0  0  0  0  0  0
   38.3690   32.5020   40.6760 C   0  0  0  0  0  0  0  0  0  0  0  0
   38.7200   31.3470   39.7720 C   0  0  0  0  0  0  0  0  0  0  0  0
   38.7180   31.9630   38.4580 N   0  0  0  0  0  0  0  0  0  0  0  0
   46.1192   32.9564   38.4700 H   0  0  0  0  0  0  0  0  0  0  0  0
   48.3249   33.8528   37.8168 H   0  0  0  0  0  0  0  0  0  0  0  0
   49.5710   35.2231   39.5222 H   0  0  0  0  0  0  0  0  0  0  0  0
   48.6285   35.6487   41.7447 H   0  0  0  0  0  0  0  0  0  0  0  0
   46.0988   36.8527   43.0256 H   0  0  0  0  0  0  0  0  0  0  0  0
   44.7374   35.9826   42.2115 H   0  0  0  0  0  0  0  0  0  0  0  0
   45.5382   36.0278   45.1143 H   0  0  0  0  0  0  0  0  0  0  0  0
   43.9084   36.2718   44.3028 H   0  0  0  0  0  0  0  0  0  0  0  0
   44.1342   34.2932   45.5621 H   0  0  0  0  0  0  0  0  0  0  0  0
   45.7880   32.9930   45.4384 H   0  0  0  0  0  0  0  0  0  0  0  0
   45.2143   32.6051   43.7752 H   0  0  0  0  0  0  0  0  0  0  0  0
   47.5061   33.3203   43.6137 H   0  0  0  0  0  0  0  0  0  0  0  0
   47.1698   34.7815   44.6136 H   0  0  0  0  0  0  0  0  0  0  0  0
   44.9016   32.1817   41.0895 H   0  0  0  0  0  0  0  0  0  0  0  0
   44.4534   33.8239   41.7098 H   0  0  0  0  0  0  0  0  0  0  0  0
   43.5465   32.4098   39.3084 H   0  0  0  0  0  0  0  0  0  0  0  0
   44.1799   34.0479   38.9422 H   0  0  0  0  0  0  0  0  0  0  0  0
   41.4903   36.3406   42.5403 H   0  0  0  0  0  0  0  0  0  0  0  0
   43.6157   35.3370   41.6263 H   0  0  0  0  0  0  0  0  0  0  0  0
   38.1943   34.6346   40.1455 H   0  0  0  0  0  0  0  0  0  0  0  0
   38.8964   32.4105   41.6370 H   0  0  0  0  0  0  0  0  0  0  0  0
   37.2922   32.5292   40.8991 H   0  0  0  0  0  0  0  0  0  0  0  0
   39.7110   30.9374   40.0173 H   0  0  0  0  0  0  0  0  0  0  0  0
   38.0271   30.4970   39.8583 H   0  0  0  0  0  0  0  0  0  0  0  0
   38.6985   31.4319   37.5757 H   0  0  0  0  0  0  0  0  0  0  0  0
  1 13  1  0
  1  6  1  0
  2  1  2  0
  3  2  1  0
  3  4  2  0
  4  5  1  0
  5  6  2  0
  6  7  1  0
  7  8  1  0
  7 12  1  0
  8  9  1  0
  9 10  1  0
 11 10  1  0
 12 11  1  0
 14 17  1  0
 14 13  1  0
 16 15  2  0
 17 16  1  0
 18 17  2  0
 18 19  1  0
 19 20  2  0
 20 15  1  0
 21 22  2  0
 22 23  1  0
 23 19  1  0
 23 24  1  0
 25 24  1  0
 26 22  1  0
 26 25  1  0
  2 27  1  0
  3 28  1  0
  4 29  1  0
  5 30  1  0
  8 31  1  0
  8 32  1  0
  9 33  1  0
  9 34  1  0
 10 35  1  0
 11 36  1  0
 11 37  1  0
 12 38  1  0
 12 39  1  0
 13 40  1  0
 13 41  1  0
 14 42  1  0
 14 43  1  0
 15 44  1  0
 16 45  1  0
 23 46  1  6
 24 47  1  0
 24 48  1  0
 25 49  1  0
 25 50  1  0
 26 51  1  0
M  ISO  8  27  14  28  14  29  14  30  14  31  13  32  13  33  13  34  13
M  ISO  8  35   5  36  13  37  13  38  13  39  13  40   8  41   8  42   8
M  ISO  8  43   8  44  14  45  14  46  13  47  13  48  13  49  13  50  13
M  ISO  1  51  10
M  END
>  <minimizedAffinity>  (1) 
-6.51714182

>  <minimizedRMSD>  (1) 
2.71519756

$$$$
