
     RDKit          3D

 27 28  0  0  1  0  0  0  0  0999 V2000
   46.2670   33.9860   44.3290 C   0  0  0  0  0  0  0  0  0  0  0  0
   46.6490   34.3930   43.0530 C   0  0  0  0  0  0  0  0  0  0  0  0
   45.9660   35.5350   42.5190 C   0  0  0  0  0  0  0  0  0  0  0  0
   45.0030   36.1380   43.2810 N   0  0  0  0  0  0  0  0  0  0  0  0
   44.6880   35.6870   44.5040 C   0  0  0  0  0  0  0  0  0  0  0  0
   45.3020   34.6350   45.0230 N   0  0  0  0  0  0  0  0  0  0  0  0
   49.6740   34.6790   43.0400 O   0  0  0  0  0  0  0  0  0  0  0  0
   48.8220   34.7170   42.0870 C   0  0  0  0  0  0  0  0  0  0  0  0
   47.6300   33.7970   42.1330 C   0  0  2  0  0  0  0  0  0  0  0  0
   47.1470   33.8500   40.6910 C   0  0  0  0  0  0  0  0  0  0  0  0
   48.1470   34.6380   39.9100 C   0  0  0  0  0  0  0  0  0  0  0  0
   48.7640   35.5050   40.9040 N   0  0  0  0  0  0  0  0  0  0  0  0
   46.9420   32.8230   44.8820 C   0  0  0  0  0  0  0  0  0  0  0  0
   46.6890   32.7340   46.3690 C   0  0  0  0  0  0  0  0  0  0  0  0
   46.2112   35.9183   41.5175 H   0  0  0  0  0  0  0  0  0  0  0  0
   43.9071   36.1992   45.0852 H   0  0  0  0  0  0  0  0  0  0  0  0
   47.8187   32.7697   42.4779 H   0  0  0  0  0  0  0  0  0  0  0  0
   47.0705   32.8313   40.2831 H   0  0  0  0  0  0  0  0  0  0  0  0
   46.1538   34.3192   40.6326 H   0  0  0  0  0  0  0  0  0  0  0  0
   48.8951   33.9751   39.4507 H   0  0  0  0  0  0  0  0  0  0  0  0
   47.6906   35.2001   39.0819 H   0  0  0  0  0  0  0  0  0  0  0  0
   49.0872   36.4749   40.7783 H   0  0  0  0  0  0  0  0  0  0  0  0
   46.5607   31.9144   44.3931 H   0  0  0  0  0  0  0  0  0  0  0  0
   48.0237   32.9170   44.7059 H   0  0  0  0  0  0  0  0  0  0  0  0
   47.5904   33.0511   46.9139 H   0  0  0  0  0  0  0  0  0  0  0  0
   45.8482   33.3903   46.6378 H   0  0  0  0  0  0  0  0  0  0  0  0
   46.4443   31.6958   46.6378 H   0  0  0  0  0  0  0  0  0  0  0  0
  1 13  1  0
  1  6  2  0
  2  1  1  0
  3  2  2  0
  3  4  1  0
  4  5  2  0
  5  6  1  0
  8  9  1  0
  8  7  2  0
  9  2  1  0
 10  9  1  0
 11 10  1  0
 11 12  1  0
 12  8  1  0
 13 14  1  0
  3 15  1  0
  5 16  1  0
  9 17  1  1
 10 18  1  0
 10 19  1  0
 11 20  1  0
 11 21  1  0
 12 22  1  0
 13 23  1  0
 13 24  1  0
 14 25  1  0
 14 26  1  0
 14 27  1  0
M  ISO  8  15  14  16  14  17  13  18  13  19  13  20  13  21  13  22  10
M  ISO  5  23   8  24   8  25   8  26   8  27   8
M  END
>  <minimizedAffinity>  (1) 
-4.60555029

>  <minimizedRMSD>  (1) 
2.53566408

$$$$
