
     RDKit          3D

 40 42  0  0  1  0  0  0  0  0999 V2000
   48.4150   31.1330   48.4380 C   0  0  2  0  0  0  0  0  0  0  0  0
   46.9650   31.0740   48.7300 C   0  0  2  0  0  0  0  0  0  0  0  0
   46.4860   29.9320   47.9120 C   0  0  0  0  0  0  0  0  0  0  0  0
   47.5310   29.0380   47.7840 O   0  0  0  0  0  0  0  0  0  0  0  0
   48.6630   29.6100   48.2680 C   0  0  0  0  0  0  0  0  0  0  0  0
   46.3070   32.2530   48.4620 O   0  0  0  0  0  0  0  0  0  0  0  0
   47.3830   32.3900   46.1340 O   0  0  0  0  0  0  0  0  0  0  0  0
   46.0470   32.4050   46.8280 P   0  0  1  0  0  0  0  0  0  0  0  0
   45.1420   31.0850   46.2710 O   0  0  0  0  0  0  0  0  0  0  0  0
   45.2830   33.8740   46.4150 O   0  0  0  0  0  0  0  0  0  0  0  0
   44.9400   36.1210   43.6590 C   0  0  0  0  0  0  0  0  0  0  0  0
   44.8810   35.2710   42.5230 C   0  0  0  0  0  0  0  0  0  0  0  0
   44.9670   33.8880   42.7670 C   0  0  0  0  0  0  0  0  0  0  0  0
   45.0970   33.4660   44.0460 N   0  0  0  0  0  0  0  0  0  0  0  0
   45.1490   34.3080   45.0930 C   0  0  0  0  0  0  0  0  0  0  0  0
   45.0690   35.6290   44.8920 N   0  0  0  0  0  0  0  0  0  0  0  0
   44.8560   37.4700   43.4220 O   0  0  0  0  0  0  0  0  0  0  0  0
   49.1920   31.6520   49.4360 O   0  0  0  0  0  0  0  0  0  0  0  0
   50.1460   29.4910   51.4470 O   0  0  0  0  0  0  0  0  0  0  0  0
   50.5490   30.6590   51.1210 C   0  0  0  0  0  0  0  0  0  0  0  0
   50.4120   31.1960   49.7200 C   0  0  2  0  0  0  0  0  0  0  0  0
   51.3320   32.3930   49.8440 C   0  0  0  0  0  0  0  0  0  0  0  0
   51.1370   32.8350   51.2920 C   0  0  0  0  0  0  0  0  0  0  0  0
   51.1650   31.5790   52.0200 N   0  0  0  0  0  0  0  0  0  0  0  0
   48.6737   31.7928   47.5967 H   0  0  0  0  0  0  0  0  0  0  0  0
   46.7619   30.9298   49.8014 H   0  0  0  0  0  0  0  0  0  0  0  0
   45.6354   29.4447   48.4111 H   0  0  0  0  0  0  0  0  0  0  0  0
   46.1540   30.2799   46.9227 H   0  0  0  0  0  0  0  0  0  0  0  0
   48.9160   29.1648   49.2416 H   0  0  0  0  0  0  0  0  0  0  0  0
   49.4971   29.4407   47.5711 H   0  0  0  0  0  0  0  0  0  0  0  0
   44.7923   30.5749   47.0441 H   0  0  0  0  0  0  0  0  0  0  0  0
   44.7736   35.6731   41.5048 H   0  0  0  0  0  0  0  0  0  0  0  0
   44.9294   33.1667   41.9374 H   0  0  0  0  0  0  0  0  0  0  0  0
   44.7607   37.8048   42.4952 H   0  0  0  0  0  0  0  0  0  0  0  0
   50.6223   30.4437   48.9455 H   0  0  0  0  0  0  0  0  0  0  0  0
   52.3777   32.1078   49.6561 H   0  0  0  0  0  0  0  0  0  0  0  0
   51.1068   33.1870   49.1168 H   0  0  0  0  0  0  0  0  0  0  0  0
   51.9518   33.4989   51.6164 H   0  0  0  0  0  0  0  0  0  0  0  0
   50.2121   33.4090   51.4506 H   0  0  0  0  0  0  0  0  0  0  0  0
   51.5404   31.3960   52.9615 H   0  0  0  0  0  0  0  0  0  0  0  0
  1  2  1  0
  1 18  1  0
  3  2  1  0
  4  3  1  0
  4  5  1  0
  5  1  1  0
  6  2  1  0
  8  7  2  0
  8  6  1  0
  9  8  1  0
 10  8  1  0
 11 16  2  0
 12 13  2  0
 12 11  1  0
 13 14  1  0
 14 15  2  0
 15 10  1  0
 16 15  1  0
 17 11  1  0
 20 19  2  0
 20 24  1  0
 21 18  1  0
 21 22  1  0
 21 20  1  0
 22 23  1  0
 23 24  1  0
  1 25  1  6
  2 26  1  1
  3 27  1  0
  3 28  1  0
  5 29  1  0
  5 30  1  0
  9 31  1  0
 12 32  1  0
 13 33  1  0
 17 34  1  0
 21 35  1  6
 22 36  1  0
 22 37  1  0
 23 38  1  0
 23 39  1  0
 24 40  1  0
M  ISO  8  25  13  26  13  27  13  28  13  29  13  30  13  31   3  32  14
M  ISO  8  33  14  34   3  35  13  36  13  37  13  38  13  39  13  40  10
M  END
>  <minimizedAffinity>  (1) 
-5.78214884

>  <minimizedRMSD>  (1) 
1.74173582

$$$$
