
     RDKit          3D

 41 45  0  0  1  0  0  0  0  0999 V2000
   45.5360   34.8290   43.3990 C   0  0  0  0  0  0  0  0  0  0  0  0
   46.2440   33.7630   43.9930 C   0  0  0  0  0  0  0  0  0  0  0  0
   46.0420   33.5540   45.3500 C   0  0  0  0  0  0  0  0  0  0  0  0
   45.1960   34.3590   46.0290 N   0  0  0  0  0  0  0  0  0  0  0  0
   44.5280   35.3740   45.4330 C   0  0  0  0  0  0  0  0  0  0  0  0
   44.7040   35.5990   44.1340 N   0  0  0  0  0  0  0  0  0  0  0  0
   46.8930   32.7020   47.4720 C   0  0  0  0  0  0  0  0  0  0  0  0
   46.6950   32.4960   46.1130 C   0  0  0  0  0  0  0  0  0  0  0  0
   47.1230   31.3120   45.5620 C   0  0  0  0  0  0  0  0  0  0  0  0
   47.7390   30.3200   46.3010 C   0  0  0  0  0  0  0  0  0  0  0  0
   48.2290   29.1110   45.9880 N   0  0  0  0  0  0  0  0  0  0  0  0
   48.7340   28.5570   47.1540 C   0  0  0  0  0  0  0  0  0  0  0  0
   48.5420   29.4350   48.1440 N   0  0  0  0  0  0  0  0  0  0  0  0
   47.9350   30.5230   47.6500 C   0  0  0  0  0  0  0  0  0  0  0  0
   47.5120   31.7100   48.2270 C   0  0  0  0  0  0  0  0  0  0  0  0
   45.7110   35.0700   42.0510 O   0  0  0  0  0  0  0  0  0  0  0  0
   44.7430   34.7190   41.1150 C   0  0  0  0  0  0  0  0  0  0  0  0
   45.3220   33.7010   40.4230 C   0  0  0  0  0  0  0  0  0  0  0  0
   43.9500   33.2900   39.1850 S   0  0  0  0  0  0  0  0  0  0  0  0
   42.8530   34.6610   39.9270 C   0  0  0  0  0  0  0  0  0  0  0  0
   43.5330   35.0370   40.7160 N   0  0  0  0  0  0  0  0  0  0  0  0
   42.3690   36.2030   37.4340 O   0  0  0  0  0  0  0  0  0  0  0  0
   41.5480   35.5210   38.1020 C   0  0  0  0  0  0  0  0  0  0  0  0
   41.4980   34.9990   39.4630 C   0  0  1  0  0  0  0  0  0  0  0  0
   40.6820   33.7340   39.2830 C   0  0  0  0  0  0  0  0  0  0  0  0
   39.5500   34.2810   38.4180 C   0  0  0  0  0  0  0  0  0  0  0  0
   40.3240   35.0890   37.4740 N   0  0  0  0  0  0  0  0  0  0  0  0
   46.9245   33.1271   43.4077 H   0  0  0  0  0  0  0  0  0  0  0  0
   43.8452   36.0076   46.0181 H   0  0  0  0  0  0  0  0  0  0  0  0
   46.5644   33.6385   47.9464 H   0  0  0  0  0  0  0  0  0  0  0  0
   46.9685   31.1467   44.4855 H   0  0  0  0  0  0  0  0  0  0  0  0
   48.2298   28.6753   45.0547 H   0  0  0  0  0  0  0  0  0  0  0  0
   49.2089   27.5693   47.2482 H   0  0  0  0  0  0  0  0  0  0  0  0
   47.6687   31.8714   49.3037 H   0  0  0  0  0  0  0  0  0  0  0  0
   46.3142   33.2428   40.5483 H   0  0  0  0  0  0  0  0  0  0  0  0
   41.0820   35.7037   40.1981 H   0  0  0  0  0  0  0  0  0  0  0  0
   41.2518   32.9492   38.7639 H   0  0  0  0  0  0  0  0  0  0  0  0
   40.3629   33.2475   40.2166 H   0  0  0  0  0  0  0  0  0  0  0  0
   38.9978   33.4763   37.9105 H   0  0  0  0  0  0  0  0  0  0  0  0
   38.7688   34.8279   38.9663 H   0  0  0  0  0  0  0  0  0  0  0  0
   40.0384   35.3141   36.5103 H   0  0  0  0  0  0  0  0  0  0  0  0
  1  2  2  0
  1  6  1  0
  2  3  1  0
  3  4  2  0
  3  8  1  0
  5  4  1  0
  6  5  2  0
  7 15  2  0
  8  7  1  0
  9  8  2  0
  9 10  1  0
 10 14  2  0
 11 10  1  0
 11 12  1  0
 12 13  2  0
 14 13  1  0
 14 15  1  0
 16  1  1  0
 17 16  1  0
 18 17  2  0
 19 20  1  0
 19 18  1  0
 20 21  2  0
 21 17  1  0
 22 23  2  0
 23 24  1  0
 24 20  1  0
 25 24  1  0
 26 25  1  0
 27 23  1  0
 27 26  1  0
  2 28  1  0
  5 29  1  0
  7 30  1  0
  9 31  1  0
 11 32  1  0
 12 33  1  0
 15 34  1  0
 18 35  1  0
 24 36  1  1
 25 37  1  0
 25 38  1  0
 26 39  1  0
 26 40  1  0
 27 41  1  0
M  ISO  8  28  14  29  14  30  14  31  14  32   9  33  14  34  14  35  14
M  ISO  6  36  13  37  13  38  13  39  13  40  13  41  10
M  END
>  <minimizedAffinity>  (1) 
-6.63029957

>  <minimizedRMSD>  (1) 
0.591339231

$$$$
