
     RDKit          3D

 20 20  0  0  0  0  0  0  0  0999 V2000
   45.3540   34.7050   44.7470 C   0  0  0  0  0  0  0  0  0  0  0  0
   46.2080   34.4160   43.6750 C   0  0  0  0  0  0  0  0  0  0  0  0
   47.1260   33.3620   43.8330 C   0  0  0  0  0  0  0  0  0  0  0  0
   47.1230   32.6950   45.0140 N   0  0  0  0  0  0  0  0  0  0  0  0
   46.2790   33.0090   46.0220 C   0  0  0  0  0  0  0  0  0  0  0  0
   45.3990   34.0140   45.8840 N   0  0  0  0  0  0  0  0  0  0  0  0
   44.3950   35.8330   44.5360 C   0  0  0  0  0  0  0  0  0  0  0  0
   46.3330   32.2480   47.2640 C   0  0  0  0  0  0  0  0  0  0  0  0
   45.2960   32.2390   48.0860 C   0  0  0  0  0  0  0  0  0  0  0  0
   45.3490   31.4600   49.3600 C   0  0  0  0  0  0  0  0  0  0  0  0
   46.1623   34.9942   42.7404 H   0  0  0  0  0  0  0  0  0  0  0  0
   47.8223   33.0882   43.0266 H   0  0  0  0  0  0  0  0  0  0  0  0
   44.0651   36.2210   45.5110 H   0  0  0  0  0  0  0  0  0  0  0  0
   44.8915   36.6356   43.9709 H   0  0  0  0  0  0  0  0  0  0  0  0
   43.5230   35.4721   43.9709 H   0  0  0  0  0  0  0  0  0  0  0  0
   47.2392   31.6790   47.5190 H   0  0  0  0  0  0  0  0  0  0  0  0
   44.3901   32.8081   47.8300 H   0  0  0  0  0  0  0  0  0  0  0  0
   45.3020   32.1510   50.2145 H   0  0  0  0  0  0  0  0  0  0  0  0
   44.4959   30.7668   49.4017 H   0  0  0  0  0  0  0  0  0  0  0  0
   46.2881   30.8887   49.4017 H   0  0  0  0  0  0  0  0  0  0  0  0
  1  6  2  0
  2  3  2  0
  2  1  1  0
  3  4  1  0
  4  5  2  0
  5  8  1  0
  6  5  1  0
  7  1  1  0
  8  9  2  0
  9 10  1  0
  2 11  1  0
  3 12  1  0
  7 13  1  0
  7 14  1  0
  7 15  1  0
  8 16  1  0
  9 17  1  0
 10 18  1  0
 10 19  1  0
 10 20  1  0
M  ISO  8  11  14  12  14  13   8  14   8  15   8  18   8  19   8  20   8
M  END
>  <minimizedAffinity>  (1) 
-3.90428114

>  <minimizedRMSD>  (1) 
1.55369174

$$$$
