
     RDKit          3D

 30 31  0  0  0  0  0  0  0  0999 V2000
   48.3490   34.0000   42.7120 C   0  0  0  0  0  0  0  0  0  0  0  0
   49.1350   33.1700   41.8550 C   0  0  0  0  0  0  0  0  0  0  0  0
   48.9200   32.3770   40.6880 C   0  0  0  0  0  0  0  0  0  0  0  0
   49.9680   31.6980   40.1300 C   0  0  0  0  0  0  0  0  0  0  0  0
   51.2620   31.8230   40.7690 C   0  0  0  0  0  0  0  0  0  0  0  0
   50.9760   32.9210   42.1770 S   0  0  0  0  0  0  0  0  0  0  0  0
   52.4760   31.2720   40.4500 C   0  0  0  0  0  0  0  0  0  0  0  0
   53.1680   31.1800   39.3290 C   0  0  0  0  0  0  0  0  0  0  0  0
   52.7490   31.7080   38.0010 C   0  0  0  0  0  0  0  0  0  0  0  0
   47.7400   35.2120   42.1040 C   0  0  0  0  0  0  0  0  0  0  0  0
   46.2910   35.1010   42.1160 C   0  0  0  0  0  0  0  0  0  0  0  0
   45.5090   35.6450   43.1120 C   0  0  0  0  0  0  0  0  0  0  0  0
   44.1290   35.5010   43.0570 C   0  0  0  0  0  0  0  0  0  0  0  0
   43.6120   34.8210   42.0130 N   0  0  0  0  0  0  0  0  0  0  0  0
   44.3870   34.2890   41.0420 C   0  0  0  0  0  0  0  0  0  0  0  0
   45.6980   34.4470   41.1260 N   0  0  0  0  0  0  0  0  0  0  0  0
   47.5312   33.3831   43.1128 H   0  0  0  0  0  0  0  0  0  0  0  0
   49.0538   34.3816   43.4654 H   0  0  0  0  0  0  0  0  0  0  0  0
   47.9174   32.3123   40.2400 H   0  0  0  0  0  0  0  0  0  0  0  0
   49.8333   31.0802   39.2299 H   0  0  0  0  0  0  0  0  0  0  0  0
   52.9808   30.8081   41.3102 H   0  0  0  0  0  0  0  0  0  0  0  0
   54.1402   30.6679   39.3807 H   0  0  0  0  0  0  0  0  0  0  0  0
   52.0710   32.5624   38.1434 H   0  0  0  0  0  0  0  0  0  0  0  0
   53.6368   32.0341   37.4393 H   0  0  0  0  0  0  0  0  0  0  0  0
   52.2297   30.9175   37.4393 H   0  0  0  0  0  0  0  0  0  0  0  0
   48.0888   35.3128   41.0657 H   0  0  0  0  0  0  0  0  0  0  0  0
   48.0387   36.0963   42.6861 H   0  0  0  0  0  0  0  0  0  0  0  0
   45.9754   36.1902   43.9458 H   0  0  0  0  0  0  0  0  0  0  0  0
   43.4804   35.9263   43.8370 H   0  0  0  0  0  0  0  0  0  0  0  0
   43.9387   33.7379   40.2021 H   0  0  0  0  0  0  0  0  0  0  0  0
  2  6  1  0
  2  1  1  0
  3  2  2  0
  4  3  1  0
  4  5  2  0
  5  6  1  0
  7  5  1  0
  8  7  2  0
  9  8  1  0
 10 11  1  0
 10  1  1  0
 11 12  2  0
 13 12  1  0
 14 13  2  0
 15 16  2  0
 15 14  1  0
 16 11  1  0
  1 17  1  0
  1 18  1  0
  3 19  1  0
  4 20  1  0
  7 21  1  0
  8 22  1  0
  9 23  1  0
  9 24  1  0
  9 25  1  0
 10 26  1  0
 10 27  1  0
 12 28  1  0
 13 29  1  0
 15 30  1  0
M  ISO  8  17   8  18   8  19  14  20  14  23   8  24   8  25   8  26   8
M  ISO  4  27   8  28  14  29  14  30  14
M  END
>  <minimizedAffinity>  (1) 
-3.94072342

>  <minimizedRMSD>  (1) 
1.10931885

$$$$
