
     RDKit          3D

 33 34  0  0  0  0  0  0  0  0999 V2000
   44.4260   33.8300   41.1280 C   0  0  0  0  0  0  0  0  0  0  0  0
   45.8370   34.2270   41.0420 C   0  0  0  0  0  0  0  0  0  0  0  0
   46.6790   33.8860   40.0170 C   0  0  0  0  0  0  0  0  0  0  0  0
   48.0170   34.2410   39.8970 C   0  0  0  0  0  0  0  0  0  0  0  0
   48.5000   35.0210   40.9530 C   0  0  0  0  0  0  0  0  0  0  0  0
   47.6770   35.3820   42.0020 C   0  0  0  0  0  0  0  0  0  0  0  0
   46.3670   35.0030   42.0660 C   0  0  0  0  0  0  0  0  0  0  0  0
   45.5440   35.4140   43.1980 C   0  0  0  0  0  0  0  0  0  0  0  0
   45.4920   34.7930   44.3640 C   0  0  0  0  0  0  0  0  0  0  0  0
   44.6350   35.2550   45.4850 C   0  0  0  0  0  0  0  0  0  0  0  0
   43.7270   33.9590   39.7770 C   0  0  0  0  0  0  0  0  0  0  0  0
   40.9290   35.9120   41.3790 C   0  0  0  0  0  0  0  0  0  0  0  0
   42.1970   35.3060   41.1930 C   0  0  0  0  0  0  0  0  0  0  0  0
   42.4200   34.6010   40.0000 C   0  0  0  0  0  0  0  0  0  0  0  0
   41.3850   34.5470   39.0910 N   0  0  0  0  0  0  0  0  0  0  0  0
   40.2150   35.1350   39.3200 C   0  0  0  0  0  0  0  0  0  0  0  0
   39.9660   35.8230   40.4560 N   0  0  0  0  0  0  0  0  0  0  0  0
   44.3685   32.7835   41.4621 H   0  0  0  0  0  0  0  0  0  0  0  0
   43.9221   34.4967   41.8432 H   0  0  0  0  0  0  0  0  0  0  0  0
   46.2545   33.2709   39.2098 H   0  0  0  0  0  0  0  0  0  0  0  0
   48.6423   33.9351   39.0453 H   0  0  0  0  0  0  0  0  0  0  0  0
   49.5492   35.3513   40.9480 H   0  0  0  0  0  0  0  0  0  0  0  0
   48.0918   35.9966   42.8145 H   0  0  0  0  0  0  0  0  0  0  0  0
   44.9183   36.3098   43.0718 H   0  0  0  0  0  0  0  0  0  0  0  0
   46.1105   33.8951   44.5100 H   0  0  0  0  0  0  0  0  0  0  0  0
   45.1126   34.9975   46.4419 H   0  0  0  0  0  0  0  0  0  0  0  0
   44.5049   36.3455   45.4218 H   0  0  0  0  0  0  0  0  0  0  0  0
   43.6525   34.7643   45.4218 H   0  0  0  0  0  0  0  0  0  0  0  0
   43.5826   32.9622   39.3347 H   0  0  0  0  0  0  0  0  0  0  0  0
   44.3362   34.5620   39.0876 H   0  0  0  0  0  0  0  0  0  0  0  0
   40.7324   36.4697   42.3065 H   0  0  0  0  0  0  0  0  0  0  0  0
   42.9817   35.3858   41.9598 H   0  0  0  0  0  0  0  0  0  0  0  0
   39.4236   35.0590   38.5598 H   0  0  0  0  0  0  0  0  0  0  0  0
  2  1  1  0
  2  7  1  0
  3  2  2  0
  4  3  1  0
  4  5  2  0
  5  6  1  0
  6  7  2  0
  7  8  1  0
  8  9  2  0
  9 10  1  0
 11 14  1  0
 11  1  1  0
 13 12  2  0
 14 13  1  0
 15 16  1  0
 15 14  2  0
 16 17  2  0
 17 12  1  0
  1 18  1  0
  1 19  1  0
  3 20  1  0
  4 21  1  0
  5 22  1  0
  6 23  1  0
  8 24  1  0
  9 25  1  0
 10 26  1  0
 10 27  1  0
 10 28  1  0
 11 29  1  0
 11 30  1  0
 12 31  1  0
 13 32  1  0
 16 33  1  0
M  ISO  8  18   8  19   8  20  14  21  14  22  14  23  14  26   8  27   8
M  ISO  6  28   8  29   8  30   8  31  14  32  14  33  14
M  END
>  <minimizedAffinity>  (1) 
-5.30546331

>  <minimizedRMSD>  (1) 
1.44599223

$$$$
