
     RDKit          3D

 40 41  0  0  0  0  0  0  0  0999 V2000
   44.6090   35.6490   43.0700 C   0  0  0  0  0  0  0  0  0  0  0  0
   43.7930   34.8700   42.2020 C   0  0  0  0  0  0  0  0  0  0  0  0
   44.0000   33.5070   42.1660 C   0  0  0  0  0  0  0  0  0  0  0  0
   44.9700   33.0110   42.9640 N   0  0  0  0  0  0  0  0  0  0  0  0
   45.7340   33.7460   43.7790 C   0  0  0  0  0  0  0  0  0  0  0  0
   45.5340   35.0660   43.8150 N   0  0  0  0  0  0  0  0  0  0  0  0
   46.7950   33.2050   44.6520 C   0  0  0  0  0  0  0  0  0  0  0  0
   46.2080   32.2630   45.6640 C   0  0  0  0  0  0  0  0  0  0  0  0
   45.7750   32.9120   46.9040 C   0  0  0  0  0  0  0  0  0  0  0  0
   45.2680   32.3430   47.9940 C   0  0  0  0  0  0  0  0  0  0  0  0
   45.0860   30.8740   48.0390 C   0  0  0  0  0  0  0  0  0  0  0  0
   42.7640   35.5190   41.3750 C   0  0  0  0  0  0  0  0  0  0  0  0
   41.4810   35.5140   41.6400 C   0  0  0  0  0  0  0  0  0  0  0  0
   40.4710   36.1860   40.7730 C   0  0  0  0  0  0  0  0  0  0  0  0
   41.1020   36.1290   38.0490 F   0  0  0  0  0  0  0  0  0  0  0  0
   40.1750   35.2490   38.5100 C   0  0  0  0  0  0  0  0  0  0  0  0
   39.8360   35.2470   39.8540 C   0  0  0  0  0  0  0  0  0  0  0  0
   38.8930   34.3170   40.1890 C   0  0  0  0  0  0  0  0  0  0  0  0
   38.2710   33.4110   39.3430 C   0  0  0  0  0  0  0  0  0  0  0  0
   38.6730   33.4860   38.0120 C   0  0  0  0  0  0  0  0  0  0  0  0
   39.6100   34.3820   37.5720 C   0  0  0  0  0  0  0  0  0  0  0  0
   44.4701   36.7390   43.1215 H   0  0  0  0  0  0  0  0  0  0  0  0
   43.4011   32.8524   41.5157 H   0  0  0  0  0  0  0  0  0  0  0  0
   47.5303   32.6650   44.0374 H   0  0  0  0  0  0  0  0  0  0  0  0
   47.2833   34.0376   45.1795 H   0  0  0  0  0  0  0  0  0  0  0  0
   45.3366   31.7679   45.2106 H   0  0  0  0  0  0  0  0  0  0  0  0
   47.0040   31.5548   45.9376 H   0  0  0  0  0  0  0  0  0  0  0  0
   45.8826   34.0062   46.9377 H   0  0  0  0  0  0  0  0  0  0  0  0
   44.9850   32.9612   48.8587 H   0  0  0  0  0  0  0  0  0  0  0  0
   45.0448   30.5416   49.0868 H   0  0  0  0  0  0  0  0  0  0  0  0
   44.1477   30.6051   47.5318 H   0  0  0  0  0  0  0  0  0  0  0  0
   45.9303   30.3842   47.5318 H   0  0  0  0  0  0  0  0  0  0  0  0
   43.0958   36.0466   40.4686 H   0  0  0  0  0  0  0  0  0  0  0  0
   41.1332   34.9905   42.5427 H   0  0  0  0  0  0  0  0  0  0  0  0
   39.6975   36.6376   41.4115 H   0  0  0  0  0  0  0  0  0  0  0  0
   40.9877   36.9522   40.1764 H   0  0  0  0  0  0  0  0  0  0  0  0
   38.5939   34.2830   41.2470 H   0  0  0  0  0  0  0  0  0  0  0  0
   37.5191   32.6898   39.6958 H   0  0  0  0  0  0  0  0  0  0  0  0
   38.2192   32.7972   37.2843 H   0  0  0  0  0  0  0  0  0  0  0  0
   39.9083   34.4179   36.5138 H   0  0  0  0  0  0  0  0  0  0  0  0
  1  6  2  0
  2  1  1  0
  3  2  2  0
  3  4  1  0
  4  5  2  0
  5  6  1  0
  5  7  1  0
  7  8  1  0
  8  9  1  0
  9 10  2  0
 10 11  1  0
 12 13  2  0
 12  2  1  0
 14 13  1  0
 15 16  1  0
 16 17  2  0
 17 18  1  0
 17 14  1  0
 19 18  2  0
 20 19  1  0
 21 20  2  0
 21 16  1  0
  1 22  1  0
  3 23  1  0
  7 24  1  0
  7 25  1  0
  8 26  1  0
  8 27  1  0
  9 28  1  0
 10 29  1  0
 11 30  1  0
 11 31  1  0
 11 32  1  0
 12 33  1  0
 13 34  1  0
 14 35  1  0
 14 36  1  0
 18 37  1  0
 19 38  1  0
 20 39  1  0
 21 40  1  0
M  ISO  8  22  14  23  14  24   8  25   8  26   8  27   8  30   8  31   8
M  ISO  7  32   8  35   8  36   8  37  14  38  14  39  14  40  14
M  END
>  <minimizedAffinity>  (1) 
-6.18432903

>  <minimizedRMSD>  (1) 
1.01834571

$$$$
