
     RDKit          3D

 46 48  0  0  0  0  0  0  0  0999 V2000
   43.2980   32.8490   40.7260 C   0  0  0  0  0  0  0  0  0  0  0  0
   44.1830   33.7910   41.4310 C   0  0  0  0  0  0  0  0  0  0  0  0
   43.6730   34.9250   42.0180 C   0  0  0  0  0  0  0  0  0  0  0  0
   44.5480   35.7850   42.6690 C   0  0  0  0  0  0  0  0  0  0  0  0
   45.8790   35.4570   42.6930 N   0  0  0  0  0  0  0  0  0  0  0  0
   46.3320   34.3500   42.1160 C   0  0  0  0  0  0  0  0  0  0  0  0
   45.4720   33.5420   41.4960 N   0  0  0  0  0  0  0  0  0  0  0  0
   47.7630   34.0690   42.2130 C   0  0  0  0  0  0  0  0  0  0  0  0
   48.2270   32.7570   42.2060 C   0  0  0  0  0  0  0  0  0  0  0  0
   49.5780   32.5040   42.3110 C   0  0  0  0  0  0  0  0  0  0  0  0
   50.3630   33.6150   42.4170 C   0  0  0  0  0  0  0  0  0  0  0  0
   49.9530   34.9430   42.4290 C   0  0  0  0  0  0  0  0  0  0  0  0
   48.6120   35.1180   42.3220 N   0  0  0  0  0  0  0  0  0  0  0  0
   41.9840   32.8330   41.4270 C   0  0  0  0  0  0  0  0  0  0  0  0
   40.9640   32.4980   40.6440 N   0  0  0  0  0  0  0  0  0  0  0  0
   40.5760   31.2300   40.1630 C   0  0  0  0  0  0  0  0  0  0  0  0
   39.3510   31.0060   41.0810 C   0  0  0  0  0  0  0  0  0  0  0  0
   38.3110   31.9970   40.8760 C   0  0  0  0  0  0  0  0  0  0  0  0
   38.6520   33.3110   40.3710 C   0  0  0  0  0  0  0  0  0  0  0  0
   40.1100   33.6400   40.2410 C   0  0  0  0  0  0  0  0  0  0  0  0
   40.6550   35.2210   39.7040 S   0  0  0  0  0  0  0  0  0  0  0  0
   40.7240   35.4080   37.9530 C   0  0  0  0  0  0  0  0  0  0  0  0
   41.0850   36.6040   37.5110 C   0  0  0  0  0  0  0  0  0  0  0  0
   41.2130   36.9950   36.0800 C   0  0  0  0  0  0  0  0  0  0  0  0
   43.7397   31.8417   40.7395 H   0  0  0  0  0  0  0  0  0  0  0  0
   43.1669   33.1610   39.6793 H   0  0  0  0  0  0  0  0  0  0  0  0
   42.5964   35.1461   41.9730 H   0  0  0  0  0  0  0  0  0  0  0  0
   44.1833   36.7036   43.1518 H   0  0  0  0  0  0  0  0  0  0  0  0
   47.5161   31.9223   42.1167 H   0  0  0  0  0  0  0  0  0  0  0  0
   49.9915   31.4847   42.3095 H   0  0  0  0  0  0  0  0  0  0  0  0
   51.4455   33.4393   42.5029 H   0  0  0  0  0  0  0  0  0  0  0  0
   50.6578   35.7829   42.5179 H   0  0  0  0  0  0  0  0  0  0  0  0
   42.0400   32.1087   42.2530 H   0  0  0  0  0  0  0  0  0  0  0  0
   41.7954   33.8579   41.7790 H   0  0  0  0  0  0  0  0  0  0  0  0
   40.2980   31.2569   39.0990 H   0  0  0  0  0  0  0  0  0  0  0  0
   41.3489   30.4480   40.1960 H   0  0  0  0  0  0  0  0  0  0  0  0
   38.9336   30.0095   40.8745 H   0  0  0  0  0  0  0  0  0  0  0  0
   39.6946   31.0943   42.1222 H   0  0  0  0  0  0  0  0  0  0  0  0
   37.5922   31.5609   40.1666 H   0  0  0  0  0  0  0  0  0  0  0  0
   37.9536   32.2030   41.8957 H   0  0  0  0  0  0  0  0  0  0  0  0
   37.8740   34.0378   40.0942 H   0  0  0  0  0  0  0  0  0  0  0  0
   40.4820   34.5818   37.2683 H   0  0  0  0  0  0  0  0  0  0  0  0
   41.3090   37.3729   38.2650 H   0  0  0  0  0  0  0  0  0  0  0  0
   41.5546   38.0385   36.0142 H   0  0  0  0  0  0  0  0  0  0  0  0
   41.9430   36.3382   35.5843 H   0  0  0  0  0  0  0  0  0  0  0  0
   40.2359   36.8971   35.5843 H   0  0  0  0  0  0  0  0  0  0  0  0
  1 14  1  0
  1  2  1  0
  2  7  1  0
  2  3  2  0
  3  4  1  0
  4  5  2  0
  6  8  1  0
  6  5  1  0
  7  6  2  0
  8 13  1  0
  9  8  2  0
  9 10  1  0
 10 11  2  0
 11 12  1  0
 13 12  2  0
 15 14  1  0
 16 15  1  0
 16 17  1  0
 18 17  1  0
 19 18  1  0
 20 19  2  0
 20 15  1  0
 21 20  1  0
 22 21  1  0
 23 22  2  0
 24 23  1  0
  1 25  1  0
  1 26  1  0
  3 27  1  0
  4 28  1  0
  9 29  1  0
 10 30  1  0
 11 31  1  0
 12 32  1  0
 14 33  1  0
 14 34  1  0
 16 35  1  0
 16 36  1  0
 17 37  1  0
 17 38  1  0
 18 39  1  0
 18 40  1  0
 19 41  1  0
 22 42  1  0
 23 43  1  0
 24 44  1  0
 24 45  1  0
 24 46  1  0
M  ISO  8  25   8  26   8  27  14  28  14  29  14  30  14  31  14  32  14
M  ISO  8  33   8  34   8  35  13  36  13  37  13  38  13  39  13  40  13
M  ISO  4  41  13  44   8  45   8  46   8
M  END
>  <minimizedAffinity>  (1) 
-5.43435001

>  <minimizedRMSD>  (1) 
1.0659138

$$$$
