
     RDKit          3D

 33 34  0  0  0  0  0  0  0  0999 V2000
   48.2080   33.8100   42.6390 C   0  0  0  0  0  0  0  0  0  0  0  0
   49.0990   33.0810   41.8130 C   0  0  0  0  0  0  0  0  0  0  0  0
   49.0260   32.3160   40.6270 C   0  0  0  0  0  0  0  0  0  0  0  0
   50.1150   31.7220   40.0980 C   0  0  0  0  0  0  0  0  0  0  0  0
   51.3570   31.9010   40.7980 C   0  0  0  0  0  0  0  0  0  0  0  0
   50.9370   32.9260   42.2100 S   0  0  0  0  0  0  0  0  0  0  0  0
   52.5400   31.4460   40.5160 O   0  0  0  0  0  0  0  0  0  0  0  0
   52.9770   30.6700   39.4670 C   0  0  0  0  0  0  0  0  0  0  0  0
   53.8000   31.2920   38.6080 C   0  0  0  0  0  0  0  0  0  0  0  0
   54.4700   30.8020   37.3760 C   0  0  0  0  0  0  0  0  0  0  0  0
   47.6700   35.0770   42.1150 C   0  0  0  0  0  0  0  0  0  0  0  0
   46.2160   35.0470   42.0660 C   0  0  0  0  0  0  0  0  0  0  0  0
   45.4440   35.6300   43.0470 C   0  0  0  0  0  0  0  0  0  0  0  0
   44.0590   35.5640   42.9390 C   0  0  0  0  0  0  0  0  0  0  0  0
   43.5420   34.9290   41.8740 N   0  0  0  0  0  0  0  0  0  0  0  0
   44.3260   34.3650   40.9240 C   0  0  0  0  0  0  0  0  0  0  0  0
   45.6270   34.4310   41.0300 N   0  0  0  0  0  0  0  0  0  0  0  0
   47.3518   33.1548   42.8572 H   0  0  0  0  0  0  0  0  0  0  0  0
   48.8132   34.1038   43.5093 H   0  0  0  0  0  0  0  0  0  0  0  0
   48.0554   32.2021   40.1221 H   0  0  0  0  0  0  0  0  0  0  0  0
   50.0553   31.1283   39.1739 H   0  0  0  0  0  0  0  0  0  0  0  0
   53.5097   29.8021   39.8828 H   0  0  0  0  0  0  0  0  0  0  0  0
   52.0804   30.3961   38.8916 H   0  0  0  0  0  0  0  0  0  0  0  0
   53.2167   32.1590   38.2643 H   0  0  0  0  0  0  0  0  0  0  0  0
   54.6906   31.2985   39.2536 H   0  0  0  0  0  0  0  0  0  0  0  0
   55.3296   30.1733   37.6514 H   0  0  0  0  0  0  0  0  0  0  0  0
   53.7581   30.2100   36.7822 H   0  0  0  0  0  0  0  0  0  0  0  0
   54.8184   31.6599   36.7822 H   0  0  0  0  0  0  0  0  0  0  0  0
   47.9907   35.9014   42.7688 H   0  0  0  0  0  0  0  0  0  0  0  0
   48.0516   35.2234   41.0937 H   0  0  0  0  0  0  0  0  0  0  0  0
   45.9150   36.1389   43.9009 H   0  0  0  0  0  0  0  0  0  0  0  0
   43.4079   36.0171   43.7010 H   0  0  0  0  0  0  0  0  0  0  0  0
   43.8685   33.8524   40.0650 H   0  0  0  0  0  0  0  0  0  0  0  0
  2  6  1  0
  2  1  1  0
  3  2  2  0
  4  3  1  0
  4  5  2  0
  5  6  1  0
  7  5  1  0
  8  7  1  0
  9  8  1  0
 10  9  1  0
 11  1  1  0
 12 11  1  0
 12 13  2  0
 14 13  1  0
 15 14  2  0
 16 17  2  0
 16 15  1  0
 17 12  1  0
  1 18  1  0
  1 19  1  0
  3 20  1  0
  4 21  1  0
  8 22  1  0
  8 23  1  0
  9 24  1  0
  9 25  1  0
 10 26  1  0
 10 27  1  0
 10 28  1  0
 11 29  1  0
 11 30  1  0
 13 31  1  0
 14 32  1  0
 16 33  1  0
M  ISO  8  18   8  19   8  20  14  21  14  22   8  23   8  24   8  25   8
M  ISO  8  26   8  27   8  28   8  29   8  30   8  31  14  32  14  33  14
M  END
>  <minimizedAffinity>  (1) 
-3.87009621

>  <minimizedRMSD>  (1) 
0.0732232034

$$$$
