
     RDKit          3D

 18 18  0  0  0  0  0  0  0  0999 V2000
   44.5460   36.0170   44.5440 C   0  0  0  0  0  0  0  0  0  0  0  0
   45.2710   35.8520   43.3420 C   0  0  0  0  0  0  0  0  0  0  0  0
   46.1330   34.7280   43.2720 C   0  0  0  0  0  0  0  0  0  0  0  0
   46.2100   33.9010   44.3330 N   0  0  0  0  0  0  0  0  0  0  0  0
   45.4940   34.1040   45.4600 C   0  0  0  0  0  0  0  0  0  0  0  0
   44.6750   35.1470   45.5650 N   0  0  0  0  0  0  0  0  0  0  0  0
   45.5580   33.2670   46.5600 O   0  0  0  0  0  0  0  0  0  0  0  0
   46.7680   32.6590   46.8650 C   0  0  0  0  0  0  0  0  0  0  0  0
   46.9970   32.2880   48.1340 C   0  0  0  0  0  0  0  0  0  0  0  0
   48.2140   31.6300   48.6680 C   0  0  0  0  0  0  0  0  0  0  0  0
   43.8627   36.8727   44.6482 H   0  0  0  0  0  0  0  0  0  0  0  0
   45.1719   36.5584   42.5046 H   0  0  0  0  0  0  0  0  0  0  0  0
   46.7283   34.5347   42.3674 H   0  0  0  0  0  0  0  0  0  0  0  0
   47.5225   32.4852   46.0836 H   0  0  0  0  0  0  0  0  0  0  0  0
   46.1943   32.4945   48.8572 H   0  0  0  0  0  0  0  0  0  0  0  0
   48.1864   31.6449   49.7676 H   0  0  0  0  0  0  0  0  0  0  0  0
   48.2520   30.5884   48.3163 H   0  0  0  0  0  0  0  0  0  0  0  0
   49.1063   32.1686   48.3163 H   0  0  0  0  0  0  0  0  0  0  0  0
  1  6  2  0
  2  1  1  0
  3  2  2  0
  3  4  1  0
  4  5  2  0
  5  6  1  0
  5  7  1  0
  7  8  1  0
  8  9  2  0
  9 10  1  0
  1 11  1  0
  2 12  1  0
  3 13  1  0
  8 14  1  0
  9 15  1  0
 10 16  1  0
 10 17  1  0
 10 18  1  0
M  ISO  6  11  14  12  14  13  14  16   8  17   8  18   8
M  END
>  <minimizedAffinity>  (1) 
-3.7648375

>  <minimizedRMSD>  (1) 
1.41806841

$$$$
