
     RDKit          3D

 48 49  0  0  0  0  0  0  0  0999 V2000
   46.1670   34.5720   43.6030 C   0  0  0  0  0  0  0  0  0  0  0  0
   46.1650   33.8070   44.7440 C   0  0  0  0  0  0  0  0  0  0  0  0
   45.3330   34.1890   45.7530 C   0  0  0  0  0  0  0  0  0  0  0  0
   44.5520   35.2950   45.5930 N   0  0  0  0  0  0  0  0  0  0  0  0
   44.5540   36.0270   44.5030 C   0  0  0  0  0  0  0  0  0  0  0  0
   45.3610   35.6520   43.5270 N   0  0  0  0  0  0  0  0  0  0  0  0
   47.0100   34.1160   42.4900 C   0  0  0  0  0  0  0  0  0  0  0  0
   48.3950   34.6820   42.5750 C   0  0  0  0  0  0  0  0  0  0  0  0
   48.7070   35.5810   41.4620 C   0  0  0  0  0  0  0  0  0  0  0  0
   48.5110   34.9000   40.1240 C   0  0  0  0  0  0  0  0  0  0  0  0
   47.2660   34.1060   40.0380 C   0  0  0  0  0  0  0  0  0  0  0  0
   46.3370   34.3970   41.1950 C   0  0  0  0  0  0  0  0  0  0  0  0
   46.8480   32.7160   45.0760 O   0  0  0  0  0  0  0  0  0  0  0  0
   47.2750   32.1790   46.2640 C   0  0  0  0  0  0  0  0  0  0  0  0
   47.1700   30.6700   46.3410 C   0  0  0  0  0  0  0  0  0  0  0  0
   46.0330   30.1640   45.6050 N   0  0  0  0  0  0  0  0  0  0  0  0
   44.8360   29.6740   46.7770 S   0  0  0  0  0  0  0  0  0  0  0  0
   43.6040   29.1590   46.0970 O   0  0  0  0  0  0  0  0  0  0  0  0
   44.5160   30.8800   47.6070 O   0  0  0  0  0  0  0  0  0  0  0  0
   45.4550   28.5150   47.8030 O   0  0  0  0  0  0  0  0  0  0  0  0
   45.1810   27.1770   47.7780 C   0  0  0  0  0  0  0  0  0  0  0  0
   44.4290   26.1730   48.2020 C   0  0  0  0  0  0  0  0  0  0  0  0
   44.6160   24.7750   47.7940 C   0  0  0  0  0  0  0  0  0  0  0  0
   45.2918   33.6106   46.6878 H   0  0  0  0  0  0  0  0  0  0  0  0
   43.9112   36.9144   44.4068 H   0  0  0  0  0  0  0  0  0  0  0  0
   47.1375   33.0257   42.5606 H   0  0  0  0  0  0  0  0  0  0  0  0
   48.4891   35.2422   43.5170 H   0  0  0  0  0  0  0  0  0  0  0  0
   49.1015   33.8401   42.5303 H   0  0  0  0  0  0  0  0  0  0  0  0
   48.0462   36.4588   41.5160 H   0  0  0  0  0  0  0  0  0  0  0  0
   49.7627   35.8784   41.5454 H   0  0  0  0  0  0  0  0  0  0  0  0
   48.4849   35.6727   39.3415 H   0  0  0  0  0  0  0  0  0  0  0  0
   49.3489   34.1993   39.9940 H   0  0  0  0  0  0  0  0  0  0  0  0
   46.7513   34.3506   39.0971 H   0  0  0  0  0  0  0  0  0  0  0  0
   47.5355   33.0401   40.0739 H   0  0  0  0  0  0  0  0  0  0  0  0
   46.0413   35.4561   41.1636 H   0  0  0  0  0  0  0  0  0  0  0  0
   45.4504   33.7516   41.1088 H   0  0  0  0  0  0  0  0  0  0  0  0
   48.3289   32.4586   46.4091 H   0  0  0  0  0  0  0  0  0  0  0  0
   46.6139   32.5805   47.0461 H   0  0  0  0  0  0  0  0  0  0  0  0
   48.0872   30.2292   45.9233 H   0  0  0  0  0  0  0  0  0  0  0  0
   47.0387   30.3938   47.3976 H   0  0  0  0  0  0  0  0  0  0  0  0
   45.6499   30.9015   44.9965 H   0  0  0  0  0  0  0  0  0  0  0  0
   42.9419   28.8822   46.7790 H   0  0  0  0  0  0  0  0  0  0  0  0
   44.5781   30.6459   48.5669 H   0  0  0  0  0  0  0  0  0  0  0  0
   45.9206   26.7315   47.0964 H   0  0  0  0  0  0  0  0  0  0  0  0
   43.6131   26.4005   48.9038 H   0  0  0  0  0  0  0  0  0  0  0  0
   44.7009   24.1402   48.6884 H   0  0  0  0  0  0  0  0  0  0  0  0
   43.7534   24.4496   47.1940 H   0  0  0  0  0  0  0  0  0  0  0  0
   45.5338   24.6878   47.1940 H   0  0  0  0  0  0  0  0  0  0  0  0
  1  2  2  0
  2 13  1  0
  2  3  1  0
  4  3  2  0
  5  4  1  0
  6  1  1  0
  6  5  2  0
  7  8  1  0
  7  1  1  0
  9  8  1  0
 10  9  1  0
 11 10  1  0
 11 12  1  0
 12  7  1  0
 13 14  1  0
 14 15  1  0
 16 15  1  0
 16 17  1  0
 17 19  1  0
 17 20  1  0
 18 17  1  0
 21 20  1  0
 21 22  2  0
 23 22  1  0
  3 24  1  0
  5 25  1  0
  7 26  1  0
  8 27  1  0
  8 28  1  0
  9 29  1  0
  9 30  1  0
 10 31  1  0
 10 32  1  0
 11 33  1  0
 11 34  1  0
 12 35  1  0
 12 36  1  0
 14 37  1  0
 14 38  1  0
 15 39  1  0
 15 40  1  0
 16 41  1  0
 18 42  1  0
 19 43  1  0
 21 44  1  0
 22 45  1  0
 23 46  1  0
 23 47  1  0
 23 48  1  0
M  ISO  8  24  14  25  14  26  13  27  13  28  13  29  13  30  13  31  13
M  ISO  8  32  13  33  13  34  13  35  13  36  13  37   8  38   8  39   8
M  ISO  7  40   8  41   5  42   3  43   3  46   8  47   8  48   8
M  END
>  <minimizedAffinity>  (1) 
-5.50825357

>  <minimizedRMSD>  (1) 
1.48156488

$$$$
