
     RDKit          3D

 21 22  0  0  0  0  0  0  0  0999 V2000
   46.2030   33.9690   40.9960 C   0  0  0  0  0  0  0  0  0  0  0  0
   45.1510   33.3280   41.2610 O   0  0  0  0  0  0  0  0  0  0  0  0
   46.6940   34.7950   42.0430 N   0  0  0  0  0  0  0  0  0  0  0  0
   44.4690   35.9360   44.8150 C   0  0  0  0  0  0  0  0  0  0  0  0
   45.1050   35.9140   43.5600 C   0  0  0  0  0  0  0  0  0  0  0  0
   46.0100   34.8870   43.2890 C   0  0  0  0  0  0  0  0  0  0  0  0
   46.2460   33.9460   44.2440 N   0  0  0  0  0  0  0  0  0  0  0  0
   45.6040   34.0040   45.4560 C   0  0  0  0  0  0  0  0  0  0  0  0
   44.7370   34.9850   45.7220 N   0  0  0  0  0  0  0  0  0  0  0  0
   46.8610   33.8630   39.6980 C   0  0  0  0  0  0  0  0  0  0  0  0
   48.1030   34.3990   39.4390 C   0  0  0  0  0  0  0  0  0  0  0  0
   48.3490   34.0740   38.1070 C   0  0  0  0  0  0  0  0  0  0  0  0
   47.2410   33.3590   37.6370 C   0  0  0  0  0  0  0  0  0  0  0  0
   46.3920   33.2730   38.6490 O   0  0  0  0  0  0  0  0  0  0  0  0
   47.5585   35.3359   41.8985 H   0  0  0  0  0  0  0  0  0  0  0  0
   43.7508   36.7345   45.0526 H   0  0  0  0  0  0  0  0  0  0  0  0
   44.8934   36.6894   42.8090 H   0  0  0  0  0  0  0  0  0  0  0  0
   45.8055   33.2348   46.2160 H   0  0  0  0  0  0  0  0  0  0  0  0
   48.7536   34.9574   40.1281 H   0  0  0  0  0  0  0  0  0  0  0  0
   49.2493   34.3320   37.5300 H   0  0  0  0  0  0  0  0  0  0  0  0
   47.1030   32.9492   36.6256 H   0  0  0  0  0  0  0  0  0  0  0  0
  1  2  2  0
  1  3  1  0
  3  6  1  0
  4  9  2  0
  5  4  1  0
  6  5  2  0
  6  7  1  0
  7  8  2  0
  8  9  1  0
 10  1  1  0
 11 10  2  0
 12 11  1  0
 13 12  2  0
 13 14  1  0
 14 10  1  0
  3 15  1  0
  4 16  1  0
  5 17  1  0
  8 18  1  0
 11 19  1  0
 12 20  1  0
 13 21  1  0
M  ISO  6  16  14  17  14  18  14  19  14  20  14  21  14
M  END
>  <minimizedAffinity>  (1) 
-4.28736448

>  <minimizedRMSD>  (1) 
0.587136507

$$$$
