
     RDKit          3D

 33 36  0  0  0  0  0  0  0  0999 V2000
   44.8560   33.1340   41.0940 Cl  0  0  0  0  0  0  0  0  0  0  0  0
   46.3790   33.9820   40.9010 C   0  0  0  0  0  0  0  0  0  0  0  0
   46.8730   34.7410   41.9220 C   0  0  0  0  0  0  0  0  0  0  0  0
   48.0820   35.4190   41.7830 C   0  0  0  0  0  0  0  0  0  0  0  0
   48.7310   35.2850   40.5880 C   0  0  0  0  0  0  0  0  0  0  0  0
   48.2290   34.5170   39.5590 C   0  0  0  0  0  0  0  0  0  0  0  0
   47.0450   33.8590   39.7110 C   0  0  0  0  0  0  0  0  0  0  0  0
   45.6250   34.0240   45.3140 C   0  0  0  0  0  0  0  0  0  0  0  0
   44.7230   35.0760   45.5250 C   0  0  0  0  0  0  0  0  0  0  0  0
   44.5490   36.0140   44.5160 C   0  0  0  0  0  0  0  0  0  0  0  0
   45.2600   35.8660   43.3770 N   0  0  0  0  0  0  0  0  0  0  0  0
   46.1290   34.8470   43.1810 C   0  0  0  0  0  0  0  0  0  0  0  0
   46.3170   33.9180   44.1540 N   0  0  0  0  0  0  0  0  0  0  0  0
   46.4850   33.0390   38.6430 C   0  0  0  0  0  0  0  0  0  0  0  0
   45.4190   33.3100   37.8790 N   0  0  0  0  0  0  0  0  0  0  0  0
   45.2310   32.3000   37.0120 C   0  0  0  0  0  0  0  0  0  0  0  0
   46.1910   31.3740   37.2320 N   0  0  0  0  0  0  0  0  0  0  0  0
   46.9550   31.8380   38.2340 N   0  0  0  0  0  0  0  0  0  0  0  0
   46.5030   30.1160   36.6410 C   0  0  0  0  0  0  0  0  0  0  0  0
   47.8390   29.7030   36.6920 C   0  0  0  0  0  0  0  0  0  0  0  0
   47.8880   28.4630   36.0590 C   0  0  0  0  0  0  0  0  0  0  0  0
   46.5730   28.1990   35.6610 C   0  0  0  0  0  0  0  0  0  0  0  0
   45.7920   29.2020   36.0260 O   0  0  0  0  0  0  0  0  0  0  0  0
   48.4947   36.0333   42.5968 H   0  0  0  0  0  0  0  0  0  0  0  0
   49.6875   35.8082   40.4419 H   0  0  0  0  0  0  0  0  0  0  0  0
   48.7851   34.4351   38.6134 H   0  0  0  0  0  0  0  0  0  0  0  0
   45.7735   33.2722   46.1031 H   0  0  0  0  0  0  0  0  0  0  0  0
   44.1650   35.1568   46.4695 H   0  0  0  0  0  0  0  0  0  0  0  0
   43.8510   36.8549   44.6408 H   0  0  0  0  0  0  0  0  0  0  0  0
   44.4349   32.2379   36.2555 H   0  0  0  0  0  0  0  0  0  0  0  0
   48.6818   30.2483   37.1418 H   0  0  0  0  0  0  0  0  0  0  0  0
   48.7722   27.8270   35.9049 H   0  0  0  0  0  0  0  0  0  0  0  0
   46.2401   27.2967   35.1271 H   0  0  0  0  0  0  0  0  0  0  0  0
  2  1  1  0
  2  3  2  0
  3 12  1  0
  4  3  1  0
  5  4  2  0
  6  7  2  0
  6  5  1  0
  7  2  1  0
  8  9  2  0
 10  9  1  0
 11 10  2  0
 12 11  1  0
 12 13  2  0
 13  8  1  0
 14  7  1  0
 15 14  1  0
 16 17  1  0
 16 15  2  0
 17 18  1  0
 18 14  2  0
 19 20  2  0
 19 17  1  0
 21 20  1  0
 22 23  1  0
 22 21  2  0
 23 19  1  0
  4 24  1  0
  5 25  1  0
  6 26  1  0
  8 27  1  0
  9 28  1  0
 10 29  1  0
 16 30  1  0
 20 31  1  0
 21 32  1  0
 22 33  1  0
M  ISO  8  24  14  25  14  26  14  27  14  28  14  29  14  30  14  31  14
M  ISO  2  32  14  33  14
M  END
>  <minimizedAffinity>  (1) 
-5.36395884

>  <minimizedRMSD>  (1) 
0.493174493

$$$$
