
     RDKit          3D

 19 20  0  0  0  0  0  0  0  0999 V2000
   47.2550   34.9760   41.9380 C   0  0  0  0  0  0  0  0  0  0  0  0
   48.3270   35.6630   41.8400 O   0  0  0  0  0  0  0  0  0  0  0  0
   46.4330   34.8910   43.1100 C   0  0  0  0  0  0  0  0  0  0  0  0
   45.4350   35.8800   43.2030 C   0  0  0  0  0  0  0  0  0  0  0  0
   44.6130   35.8390   44.3230 C   0  0  0  0  0  0  0  0  0  0  0  0
   44.8220   34.8540   45.2500 N   0  0  0  0  0  0  0  0  0  0  0  0
   45.7840   33.9330   45.1220 C   0  0  0  0  0  0  0  0  0  0  0  0
   46.5900   33.9430   44.0610 N   0  0  0  0  0  0  0  0  0  0  0  0
   46.9050   34.2450   40.6990 C   0  0  0  0  0  0  0  0  0  0  0  0
   47.6930   34.0610   39.6010 C   0  0  0  0  0  0  0  0  0  0  0  0
   46.9480   33.3220   38.7000 C   0  0  0  0  0  0  0  0  0  0  0  0
   45.7200   33.0910   39.3140 C   0  0  0  0  0  0  0  0  0  0  0  0
   45.7320   33.6540   40.4990 O   0  0  0  0  0  0  0  0  0  0  0  0
   45.3118   36.6487   42.4259 H   0  0  0  0  0  0  0  0  0  0  0  0
   43.8129   36.5811   44.4612 H   0  0  0  0  0  0  0  0  0  0  0  0
   45.9103   33.1629   45.8973 H   0  0  0  0  0  0  0  0  0  0  0  0
   48.7201   34.4285   39.4597 H   0  0  0  0  0  0  0  0  0  0  0  0
   47.2620   32.9851   37.7010 H   0  0  0  0  0  0  0  0  0  0  0  0
   44.8800   32.5301   38.8783 H   0  0  0  0  0  0  0  0  0  0  0  0
  1  3  1  0
  2  1  2  0
  3  4  2  0
  3  8  1  0
  4  5  1  0
  5  6  2  0
  7  6  1  0
  8  7  2  0
  9  1  1  0
 10  9  2  0
 11 12  2  0
 11 10  1  0
 12 13  1  0
 13  9  1  0
  4 14  1  0
  5 15  1  0
  7 16  1  0
 10 17  1  0
 11 18  1  0
 12 19  1  0
M  ISO  6  14  14  15  14  16  14  17  14  18  14  19  14
M  END
>  <minimizedAffinity>  (1) 
-4.07223463

>  <minimizedRMSD>  (1) 
0.651588738

$$$$
