
     RDKit          3D

 35 38  0  0  0  0  0  0  0  0999 V2000
   43.9160   34.7900   40.9970 C   0  0  0  0  0  0  0  0  0  0  0  0
   43.8560   33.9430   39.9060 C   0  0  0  0  0  0  0  0  0  0  0  0
   45.0600   33.3510   39.4950 C   0  0  0  0  0  0  0  0  0  0  0  0
   46.1950   33.6220   40.1600 N   0  0  0  0  0  0  0  0  0  0  0  0
   46.2100   34.4570   41.2230 C   0  0  0  0  0  0  0  0  0  0  0  0
   45.0670   35.0120   41.6050 N   0  0  0  0  0  0  0  0  0  0  0  0
   45.0670   32.4480   38.3510 C   0  0  0  0  0  0  0  0  0  0  0  0
   45.2000   32.8220   37.0310 C   0  0  0  0  0  0  0  0  0  0  0  0
   45.1580   31.6640   36.2450 C   0  0  0  0  0  0  0  0  0  0  0  0
   44.9980   30.6530   37.1750 C   0  0  0  0  0  0  0  0  0  0  0  0
   44.9490   31.1440   38.3990 O   0  0  0  0  0  0  0  0  0  0  0  0
   42.3410   35.5250   41.4830 S   0  0  0  0  0  0  0  0  0  0  0  0
   40.0070   34.9350   40.3030 C   0  0  0  0  0  0  0  0  0  0  0  0
   40.9910   34.4130   41.1310 C   0  0  0  0  0  0  0  0  0  0  0  0
   40.8900   33.1370   41.6180 C   0  0  0  0  0  0  0  0  0  0  0  0
   39.8270   32.3090   41.3210 C   0  0  0  0  0  0  0  0  0  0  0  0
   38.8270   32.8450   40.4770 C   0  0  0  0  0  0  0  0  0  0  0  0
   38.8980   34.1290   39.9690 C   0  0  0  0  0  0  0  0  0  0  0  0
   37.8560   31.8300   40.3170 O   0  0  0  0  0  0  0  0  0  0  0  0
   38.0910   30.8850   41.3260 C   0  0  0  0  0  0  0  0  0  0  0  0
   39.4620   31.0070   41.6550 O   0  0  0  0  0  0  0  0  0  0  0  0
   47.3230   34.7890   41.9580 O   0  0  0  0  0  0  0  0  0  0  0  0
   48.5270   35.0590   41.2670 C   0  0  0  0  0  0  0  0  0  0  0  0
   49.4800   34.1060   41.4510 F   0  0  0  0  0  0  0  0  0  0  0  0
   48.1570   35.2280   39.9200 F   0  0  0  0  0  0  0  0  0  0  0  0
   49.0150   36.2670   41.7750 F   0  0  0  0  0  0  0  0  0  0  0  0
   42.9085   33.7425   39.3844 H   0  0  0  0  0  0  0  0  0  0  0  0
   45.3185   33.8507   36.6599 H   0  0  0  0  0  0  0  0  0  0  0  0
   45.2340   31.5789   35.1509 H   0  0  0  0  0  0  0  0  0  0  0  0
   44.9219   29.5838   36.9278 H   0  0  0  0  0  0  0  0  0  0  0  0
   40.0903   35.9603   39.9135 H   0  0  0  0  0  0  0  0  0  0  0  0
   41.6884   32.7569   42.2722 H   0  0  0  0  0  0  0  0  0  0  0  0
   38.1027   34.5160   39.3150 H   0  0  0  0  0  0  0  0  0  0  0  0
   37.4654   31.0992   42.2050 H   0  0  0  0  0  0  0  0  0  0  0  0
   37.8430   29.8663   40.9931 H   0  0  0  0  0  0  0  0  0  0  0  0
  1 12  1  0
  1  6  1  0
  2  1  2  0
  3  2  1  0
  3  4  2  0
  4  5  1  0
  5  6  2  0
  5 22  1  0
  7 11  1  0
  7  3  1  0
  8  7  2  0
  9  8  1  0
  9 10  2  0
 10 11  1  0
 13 14  2  0
 14 12  1  0
 14 15  1  0
 16 15  2  0
 16 21  1  0
 17 16  1  0
 18 13  1  0
 18 17  2  0
 19 17  1  0
 19 20  1  0
 20 21  1  0
 23 24  1  0
 23 26  1  0
 23 22  1  0
 25 23  1  0
  2 27  1  0
  8 28  1  0
  9 29  1  0
 10 30  1  0
 13 31  1  0
 15 32  1  0
 18 33  1  0
 20 34  1  0
 20 35  1  0
M  ISO  8  27  14  28  14  29  14  30  14  31  14  32  14  33  14  34  13
M  ISO  1  35  13
M  END
>  <minimizedAffinity>  (1) 
-5.86977434

>  <minimizedRMSD>  (1) 
0.231756538

$$$$
