
     RDKit          3D

 22 23  0  0  0  0  0  0  0  0999 V2000
   44.7840   35.5060   45.0180 C   0  0  0  0  0  0  0  0  0  0  0  0
   45.2070   35.9440   43.7540 C   0  0  0  0  0  0  0  0  0  0  0  0
   45.9000   35.0360   42.9680 C   0  0  0  0  0  0  0  0  0  0  0  0
   46.1280   33.7930   43.4490 N   0  0  0  0  0  0  0  0  0  0  0  0
   45.7020   33.4080   44.6790 C   0  0  0  0  0  0  0  0  0  0  0  0
   45.0190   34.2780   45.4720 N   0  0  0  0  0  0  0  0  0  0  0  0
   44.8760   37.2760   43.4220 N   0  0  0  0  0  0  0  0  0  0  0  0
   45.9580   32.0400   45.2010 C   0  0  0  0  0  0  0  0  0  0  0  0
   46.1130   32.0680   46.6970 C   0  0  0  0  0  0  0  0  0  0  0  0
   47.3220   32.2380   47.3440 C   0  0  0  0  0  0  0  0  0  0  0  0
   47.0720   32.2090   48.7100 C   0  0  0  0  0  0  0  0  0  0  0  0
   45.6960   32.0210   48.8140 C   0  0  0  0  0  0  0  0  0  0  0  0
   45.2020   31.9480   47.6190 O   0  0  0  0  0  0  0  0  0  0  0  0
   44.2342   36.2086   45.6615 H   0  0  0  0  0  0  0  0  0  0  0  0
   46.2588   35.3225   41.9684 H   0  0  0  0  0  0  0  0  0  0  0  0
   45.1552   37.6640   42.5096 H   0  0  0  0  0  0  0  0  0  0  0  0
   44.3553   37.8596   44.0922 H   0  0  0  0  0  0  0  0  0  0  0  0
   45.1128   31.3875   44.9367 H   0  0  0  0  0  0  0  0  0  0  0  0
   46.8870   31.6565   44.7540 H   0  0  0  0  0  0  0  0  0  0  0  0
   48.3031   32.3718   46.8649 H   0  0  0  0  0  0  0  0  0  0  0  0
   47.7997   32.3118   49.5284 H   0  0  0  0  0  0  0  0  0  0  0  0
   45.1257   31.9471   49.7517 H   0  0  0  0  0  0  0  0  0  0  0  0
  1  6  2  0
  2  1  1  0
  3  4  1  0
  3  2  2  0
  4  5  2  0
  5  8  1  0
  5  6  1  0
  7  2  1  0
  8  9  1  0
  9 10  2  0
  9 13  1  0
 10 11  1  0
 11 12  2  0
 13 12  1  0
  1 14  1  0
  3 15  1  0
  7 16  1  0
  7 17  1  0
  8 18  1  0
  8 19  1  0
 10 20  1  0
 11 21  1  0
 12 22  1  0
M  ISO  7  14  14  15  14  18   8  19   8  20  14  21  14  22  14
M  END
>  <minimizedAffinity>  (1) 
-4.11816311

>  <minimizedRMSD>  (1) 
2.04715967

$$$$
