
     RDKit          3D

 29 31  0  0  1  0  0  0  0  0999 V2000
   47.1350   35.2480   41.7920 C   0  0  1  0  0  0  0  0  0  0  0  0
   48.6530   35.5470   41.9030 C   0  0  0  0  0  0  0  0  0  0  0  0
   47.9960   34.4110   41.0630 C   0  0  2  0  0  0  0  0  0  0  0  0
   44.9810   34.8320   44.8310 C   0  0  0  0  0  0  0  0  0  0  0  0
   45.4700   35.3690   43.6110 C   0  0  0  0  0  0  0  0  0  0  0  0
   46.5840   34.7720   43.1110 C   0  0  0  0  0  0  0  0  0  0  0  0
   47.1900   33.7200   43.7530 N   0  0  0  0  0  0  0  0  0  0  0  0
   46.6920   33.2400   44.9140 C   0  0  0  0  0  0  0  0  0  0  0  0
   45.5840   33.7990   45.4520 N   0  0  0  0  0  0  0  0  0  0  0  0
   44.8460   36.4700   42.9800 N   0  0  0  0  0  0  0  0  0  0  0  0
   48.0960   34.4820   39.5580 C   0  0  0  0  0  0  0  0  0  0  0  0
   47.1830   33.4050   39.0540 C   0  0  0  0  0  0  0  0  0  0  0  0
   46.7530   32.2890   39.7310 C   0  0  0  0  0  0  0  0  0  0  0  0
   45.9260   31.5960   38.8570 C   0  0  0  0  0  0  0  0  0  0  0  0
   45.9000   32.3400   37.6820 C   0  0  0  0  0  0  0  0  0  0  0  0
   46.6540   33.3970   37.8440 O   0  0  0  0  0  0  0  0  0  0  0  0
   46.2265   35.7809   41.4747 H   0  0  0  0  0  0  0  0  0  0  0  0
   49.0938   36.4293   41.4160 H   0  0  0  0  0  0  0  0  0  0  0  0
   49.4076   35.6374   42.6982 H   0  0  0  0  0  0  0  0  0  0  0  0
   48.0957   33.3166   41.0140 H   0  0  0  0  0  0  0  0  0  0  0  0
   44.0810   35.2733   45.2839 H   0  0  0  0  0  0  0  0  0  0  0  0
   47.1861   32.3974   45.4199 H   0  0  0  0  0  0  0  0  0  0  0  0
   45.2233   36.8382   42.0952 H   0  0  0  0  0  0  0  0  0  0  0  0
   44.0142   36.9037   43.4052 H   0  0  0  0  0  0  0  0  0  0  0  0
   47.7678   35.4673   39.1953 H   0  0  0  0  0  0  0  0  0  0  0  0
   49.1292   34.3437   39.2069 H   0  0  0  0  0  0  0  0  0  0  0  0
   47.0124   32.0018   40.7607 H   0  0  0  0  0  0  0  0  0  0  0  0
   45.3987   30.6509   39.0538 H   0  0  0  0  0  0  0  0  0  0  0  0
   45.3402   32.0831   36.7706 H   0  0  0  0  0  0  0  0  0  0  0  0
  1  2  1  0
  1  6  1  0
  3  1  1  0
  3  2  1  0
  4  9  2  0
  5  4  1  0
  6  5  2  0
  6  7  1  0
  7  8  2  0
  8  9  1  0
 10  5  1  0
 11  3  1  0
 12 11  1  0
 12 13  2  0
 14 13  1  0
 15 16  1  0
 15 14  2  0
 16 12  1  0
  1 17  1  6
  2 18  1  0
  2 19  1  0
  3 20  1  1
  4 21  1  0
  8 22  1  0
 10 23  1  0
 10 24  1  0
 11 25  1  0
 11 26  1  0
 13 27  1  0
 14 28  1  0
 15 29  1  0
M  ISO  8  17  13  18  13  19  13  20  13  21  14  22  14  25   8  26   8
M  ISO  3  27  14  28  14  29  14
M  END
>  <minimizedAffinity>  (1) 
-4.47406292

>  <minimizedRMSD>  (1) 
1.3015275

$$$$
