
     RDKit          3D

 46 49  0  0  1  0  0  0  0  0999 V2000
   48.1850   33.0150   38.9760 N   0  0  0  0  0  0  0  0  0  0  0  0
   47.3490   34.3360   42.1790 N   0  0  0  0  0  0  0  0  0  0  0  0
   47.2420   34.4580   40.7290 C   0  0  0  0  0  0  0  0  0  0  0  0
   47.8070   33.1290   40.3430 C   0  0  2  0  0  0  0  0  0  0  0  0
   49.0730   33.0660   41.1810 C   0  0  0  0  0  0  0  0  0  0  0  0
   48.6520   33.7720   42.4430 C   0  0  0  0  0  0  0  0  0  0  0  0
   44.6990   35.9870   44.2150 C   0  0  0  0  0  0  0  0  0  0  0  0
   45.5620   35.7620   43.1400 C   0  0  0  0  0  0  0  0  0  0  0  0
   46.4360   34.6680   43.1940 C   0  0  0  0  0  0  0  0  0  0  0  0
   46.3950   33.8770   44.3010 N   0  0  0  0  0  0  0  0  0  0  0  0
   45.5640   34.0970   45.3330 C   0  0  0  0  0  0  0  0  0  0  0  0
   44.7120   35.1600   45.2870 N   0  0  0  0  0  0  0  0  0  0  0  0
   47.9610   32.1390   36.6550 C   0  0  0  0  0  0  0  0  0  0  0  0
   47.4420   32.7680   37.8070 C   0  0  0  0  0  0  0  0  0  0  0  0
   46.1280   33.1220   37.6740 C   0  0  0  0  0  0  0  0  0  0  0  0
   45.3400   32.9170   36.5710 C   0  0  0  0  0  0  0  0  0  0  0  0
   45.9040   32.2930   35.4710 C   0  0  0  0  0  0  0  0  0  0  0  0
   47.2170   31.9140   35.5360 C   0  0  0  0  0  0  0  0  0  0  0  0
   48.2900   32.0640   33.3420 C   0  0  0  0  0  0  0  0  0  0  0  0
   48.2700   33.3450   33.4370 O   0  0  0  0  0  0  0  0  0  0  0  0
   47.7630   31.2760   34.3890 N   0  0  0  0  0  0  0  0  0  0  0  0
   48.8560   31.4600   32.1610 C   0  0  0  0  0  0  0  0  0  0  0  0
   48.8140   32.0010   30.8840 C   0  0  0  0  0  0  0  0  0  0  0  0
   49.4620   31.1290   30.0310 C   0  0  0  0  0  0  0  0  0  0  0  0
   49.8680   30.0840   30.8560 C   0  0  0  0  0  0  0  0  0  0  0  0
   49.4960   30.3200   32.0720 O   0  0  0  0  0  0  0  0  0  0  0  0
   50.4740   31.4150   36.7510 N   0  0  0  0  0  0  0  0  0  0  0  0
   49.3630   31.7300   36.7190 C   0  0  0  0  0  0  0  0  0  0  0  0
   49.1944   33.1364   38.8108 H   0  0  0  0  0  0  0  0  0  0  0  0
   46.1987   34.5744   40.4003 H   0  0  0  0  0  0  0  0  0  0  0  0
   47.7434   35.3324   40.2885 H   0  0  0  0  0  0  0  0  0  0  0  0
   47.0616   32.3353   40.4992 H   0  0  0  0  0  0  0  0  0  0  0  0
   49.3657   32.0254   41.3844 H   0  0  0  0  0  0  0  0  0  0  0  0
   49.9495   33.5172   40.6930 H   0  0  0  0  0  0  0  0  0  0  0  0
   49.3686   34.5691   42.6903 H   0  0  0  0  0  0  0  0  0  0  0  0
   48.6212   33.0788   43.2966 H   0  0  0  0  0  0  0  0  0  0  0  0
   44.0053   36.8404   44.1906 H   0  0  0  0  0  0  0  0  0  0  0  0
   45.5557   36.4313   42.2671 H   0  0  0  0  0  0  0  0  0  0  0  0
   45.5709   33.4270   46.2054 H   0  0  0  0  0  0  0  0  0  0  0  0
   45.6577   33.6193   38.5351 H   0  0  0  0  0  0  0  0  0  0  0  0
   44.2884   33.2394   36.5601 H   0  0  0  0  0  0  0  0  0  0  0  0
   45.3093   32.1061   34.5647 H   0  0  0  0  0  0  0  0  0  0  0  0
   47.7742   30.2482   34.3220 H   0  0  0  0  0  0  0  0  0  0  0  0
   48.3470   32.9559   30.6009 H   0  0  0  0  0  0  0  0  0  0  0  0
   49.6208   31.2359   28.9478 H   0  0  0  0  0  0  0  0  0  0  0  0
   50.4211   29.1930   30.5242 H   0  0  0  0  0  0  0  0  0  0  0  0
  1  4  1  0
  2  6  1  0
  2  9  1  0
  3  2  1  0
  4  3  1  0
  4  5  1  0
  5  6  1  0
  7 12  2  0
  8  9  2  0
  8  7  1  0
  9 10  1  0
 10 11  2  0
 12 11  1  0
 13 28  1  0
 13 14  2  0
 14  1  1  0
 15 14  1  0
 16 15  2  0
 17 18  2  0
 17 16  1  0
 18 13  1  0
 19 20  2  0
 19 21  1  0
 21 18  1  0
 22 19  1  0
 23 22  2  0
 24 25  2  0
 24 23  1  0
 25 26  1  0
 26 22  1  0
 28 27  3  0
  1 29  1  0
  3 30  1  0
  3 31  1  0
  4 32  1  1
  5 33  1  0
  5 34  1  0
  6 35  1  0
  6 36  1  0
  7 37  1  0
  8 38  1  0
 11 39  1  0
 15 40  1  0
 16 41  1  0
 17 42  1  0
 21 43  1  0
 23 44  1  0
 24 45  1  0
 25 46  1  0
M  ISO  8  30  13  31  13  32  13  33  13  34  13  35  13  36  13  37  14
M  ISO  8  38  14  39  14  40  14  41  14  42  14  44  14  45  14  46  14
M  END
>  <minimizedAffinity>  (1) 
-5.57562828

>  <minimizedRMSD>  (1) 
1.05423248

$$$$
