
     RDKit          3D

 27 29  0  0  0  0  0  0  0  0999 V2000
   47.7140   32.7290   44.1430 F   0  0  0  0  0  0  0  0  0  0  0  0
   46.7230   33.6300   44.3270 C   0  0  0  0  0  0  0  0  0  0  0  0
   46.0090   33.5620   45.5190 C   0  0  0  0  0  0  0  0  0  0  0  0
   45.0070   34.4620   45.7250 C   0  0  0  0  0  0  0  0  0  0  0  0
   44.7120   35.4110   44.7780 C   0  0  0  0  0  0  0  0  0  0  0  0
   45.4050   35.4920   43.6030 C   0  0  0  0  0  0  0  0  0  0  0  0
   46.4470   34.5680   43.3720 C   0  0  0  0  0  0  0  0  0  0  0  0
   46.0890   30.3940   47.3590 C   0  0  0  0  0  0  0  0  0  0  0  0
   47.0120   30.6400   48.3920 C   0  0  0  0  0  0  0  0  0  0  0  0
   47.5870   31.9060   48.4250 C   0  0  0  0  0  0  0  0  0  0  0  0
   47.2290   32.8220   47.4700 N   0  0  0  0  0  0  0  0  0  0  0  0
   46.3470   32.5370   46.5090 C   0  0  0  0  0  0  0  0  0  0  0  0
   45.7760   31.3260   46.4500 N   0  0  0  0  0  0  0  0  0  0  0  0
   47.1720   34.6770   42.1070 C   0  0  0  0  0  0  0  0  0  0  0  0
   48.2800   35.4250   41.8330 C   0  0  0  0  0  0  0  0  0  0  0  0
   48.6680   35.2610   40.5200 C   0  0  0  0  0  0  0  0  0  0  0  0
   47.7100   34.3620   40.0450 C   0  0  0  0  0  0  0  0  0  0  0  0
   46.8750   34.0610   41.0010 O   0  0  0  0  0  0  0  0  0  0  0  0
   44.4284   34.4278   46.6599 H   0  0  0  0  0  0  0  0  0  0  0  0
   43.8970   36.1244   44.9699 H   0  0  0  0  0  0  0  0  0  0  0  0
   45.1567   36.2591   42.8548 H   0  0  0  0  0  0  0  0  0  0  0  0
   45.6099   29.4058   47.2962 H   0  0  0  0  0  0  0  0  0  0  0  0
   47.2659   29.8703   49.1357 H   0  0  0  0  0  0  0  0  0  0  0  0
   48.3172   32.1680   49.2048 H   0  0  0  0  0  0  0  0  0  0  0  0
   48.7936   36.0708   42.5604 H   0  0  0  0  0  0  0  0  0  0  0  0
   49.5129   35.7193   39.9852 H   0  0  0  0  0  0  0  0  0  0  0  0
   47.6663   33.9673   39.0192 H   0  0  0  0  0  0  0  0  0  0  0  0
  1  2  1  0
  2  3  2  0
  3  4  1  0
  3 12  1  0
  5  4  2  0
  6  5  1  0
  7  6  2  0
  7  2  1  0
  8  9  2  0
  9 10  1  0
 11 10  2  0
 12 11  1  0
 13 12  2  0
 13  8  1  0
 14  7  1  0
 15 14  2  0
 16 15  1  0
 17 16  2  0
 17 18  1  0
 18 14  1  0
  4 19  1  0
  5 20  1  0
  6 21  1  0
  8 22  1  0
  9 23  1  0
 10 24  1  0
 15 25  1  0
 16 26  1  0
 17 27  1  0
M  ISO  8  19  14  20  14  21  14  22  14  23  14  24  14  25  14  26  14
M  ISO  1  27  14
M  END
>  <minimizedAffinity>  (1) 
-5.90977287

>  <minimizedRMSD>  (1) 
7.14290142

$$$$
