
     RDKit          3D

 23 24  0  0  0  0  0  0  0  0999 V2000
   47.8000   34.7630   42.4270 C   0  0  0  0  0  0  0  0  0  0  0  0
   48.0700   33.5890   43.1440 C   0  0  0  0  0  0  0  0  0  0  0  0
   47.1150   33.1870   44.1170 C   0  0  0  0  0  0  0  0  0  0  0  0
   46.0150   33.9600   44.2860 N   0  0  0  0  0  0  0  0  0  0  0  0
   45.8040   35.0820   43.5690 C   0  0  0  0  0  0  0  0  0  0  0  0
   46.6850   35.4910   42.6400 N   0  0  0  0  0  0  0  0  0  0  0  0
   47.3160   31.9860   44.9030 C   0  0  0  0  0  0  0  0  0  0  0  0
   46.9760   31.8570   46.2300 C   0  0  0  0  0  0  0  0  0  0  0  0
   47.3440   30.5590   46.5590 C   0  0  0  0  0  0  0  0  0  0  0  0
   47.8880   29.9760   45.4080 C   0  0  0  0  0  0  0  0  0  0  0  0
   47.8460   30.8720   44.4500 O   0  0  0  0  0  0  0  0  0  0  0  0
   48.8180   35.1580   41.4150 C   0  0  0  0  0  0  0  0  0  0  0  0
   48.3440   35.0700   40.1340 F   0  0  0  0  0  0  0  0  0  0  0  0
   49.2510   36.4560   41.6950 F   0  0  0  0  0  0  0  0  0  0  0  0
   49.9580   34.3650   41.5670 F   0  0  0  0  0  0  0  0  0  0  0  0
   44.5810   35.9050   43.7840 C   0  0  0  0  0  0  0  0  0  0  0  0
   43.6070   35.6140   42.8790 F   0  0  0  0  0  0  0  0  0  0  0  0
   44.8940   37.2680   43.7580 F   0  0  0  0  0  0  0  0  0  0  0  0
   44.0490   35.6890   45.0480 F   0  0  0  0  0  0  0  0  0  0  0  0
   48.9830   33.0033   42.9612 H   0  0  0  0  0  0  0  0  0  0  0  0
   46.5159   32.6126   46.8837 H   0  0  0  0  0  0  0  0  0  0  0  0
   47.2294   30.0780   47.5416 H   0  0  0  0  0  0  0  0  0  0  0  0
   48.2799   28.9518   45.3222 H   0  0  0  0  0  0  0  0  0  0  0  0
  1  6  2  0
  1  2  1  0
  2  3  2  0
  3  4  1  0
  3  7  1  0
  5 16  1  0
  5  4  2  0
  6  5  1  0
  7  8  2  0
  8  9  1  0
 10  9  2  0
 11  7  1  0
 11 10  1  0
 12 15  1  0
 12 14  1  0
 12  1  1  0
 13 12  1  0
 16 19  1  0
 17 16  1  0
 18 16  1  0
  2 20  1  0
  8 21  1  0
  9 22  1  0
 10 23  1  0
M  ISO  4  20  14  21  14  22  14  23  14
M  END
>  <minimizedAffinity>  (1) 
-5.5550828

>  <minimizedRMSD>  (1) 
0.334585935

$$$$
