
     RDKit          3D

 28 30  0  0  0  0  0  0  0  0999 V2000
   46.1380   32.6680   47.0870 C   0  0  0  0  0  0  0  0  0  0  0  0
   45.0580   32.2690   47.8050 C   0  0  0  0  0  0  0  0  0  0  0  0
   45.2510   31.5460   48.9630 C   0  0  0  0  0  0  0  0  0  0  0  0
   46.5340   31.2320   49.3840 C   0  0  0  0  0  0  0  0  0  0  0  0
   47.6110   31.6520   48.6330 C   0  0  0  0  0  0  0  0  0  0  0  0
   47.3650   32.3390   47.5380 N   0  0  0  0  0  0  0  0  0  0  0  0
   44.9270   35.0180   44.5400 C   0  0  0  0  0  0  0  0  0  0  0  0
   45.8910   34.8450   43.5190 C   0  0  0  0  0  0  0  0  0  0  0  0
   46.9350   33.9350   43.7120 C   0  0  0  0  0  0  0  0  0  0  0  0
   46.9380   33.2770   44.8890 N   0  0  0  0  0  0  0  0  0  0  0  0
   46.0330   33.4380   45.8500 C   0  0  0  0  0  0  0  0  0  0  0  0
   45.0450   34.3060   45.6560 N   0  0  0  0  0  0  0  0  0  0  0  0
   43.8690   35.9430   44.3410 N   0  0  0  0  0  0  0  0  0  0  0  0
   49.0040   31.3840   48.9740 C   0  0  0  0  0  0  0  0  0  0  0  0
   49.6130   30.1710   48.6290 C   0  0  0  0  0  0  0  0  0  0  0  0
   50.9000   30.2370   49.0860 C   0  0  0  0  0  0  0  0  0  0  0  0
   51.0430   31.4660   49.6880 C   0  0  0  0  0  0  0  0  0  0  0  0
   49.8890   32.0960   49.5890 O   0  0  0  0  0  0  0  0  0  0  0  0
   44.0414   32.5192   47.4675 H   0  0  0  0  0  0  0  0  0  0  0  0
   44.3840   31.2172   49.5548 H   0  0  0  0  0  0  0  0  0  0  0  0
   46.6908   30.6543   50.3068 H   0  0  0  0  0  0  0  0  0  0  0  0
   45.8200   35.4199   42.5839 H   0  0  0  0  0  0  0  0  0  0  0  0
   47.7085   33.7658   42.9484 H   0  0  0  0  0  0  0  0  0  0  0  0
   43.8104   36.4772   43.4623 H   0  0  0  0  0  0  0  0  0  0  0  0
   43.1598   36.0801   45.0753 H   0  0  0  0  0  0  0  0  0  0  0  0
   49.1471   29.3298   48.0949 H   0  0  0  0  0  0  0  0  0  0  0  0
   51.6714   29.4586   48.9909 H   0  0  0  0  0  0  0  0  0  0  0  0
   51.9552   31.8530   50.1656 H   0  0  0  0  0  0  0  0  0  0  0  0
  1  6  1  0
  1  2  2  0
  2  3  1  0
  3  4  2  0
  5 14  1  0
  5  4  1  0
  6  5  2  0
  7 12  2  0
  8  9  2  0
  8  7  1  0
  9 10  1  0
 10 11  2  0
 11  1  1  0
 12 11  1  0
 13  7  1  0
 14 18  1  0
 15 14  2  0
 15 16  1  0
 16 17  2  0
 18 17  1  0
  2 19  1  0
  3 20  1  0
  4 21  1  0
  8 22  1  0
  9 23  1  0
 13 24  1  0
 13 25  1  0
 15 26  1  0
 16 27  1  0
 17 28  1  0
M  ISO  8  19  14  20  14  21  14  22  14  23  14  26  14  27  14  28  14
M  END
>  <minimizedAffinity>  (1) 
-6.03664446

>  <minimizedRMSD>  (1) 
0.974162519

$$$$
