
     RDKit          3D

 48 51  0  0  1  0  0  0  0  0999 V2000
   46.9850   32.2150   45.2300 C   0  0  0  0  0  0  0  0  0  0  0  0
   45.9220   32.8540   45.8590 C   0  0  0  0  0  0  0  0  0  0  0  0
   45.4200   34.0590   45.3180 C   0  0  0  0  0  0  0  0  0  0  0  0
   46.0440   34.5330   44.1660 N   0  0  0  0  0  0  0  0  0  0  0  0
   47.0630   33.8680   43.6140 C   0  0  0  0  0  0  0  0  0  0  0  0
   47.5250   32.7310   44.1330 N   0  0  0  0  0  0  0  0  0  0  0  0
   47.4510   30.9690   45.8070 C   0  0  2  0  0  0  0  0  0  0  0  0
   46.6700   29.7500   45.2320 C   0  0  0  0  0  0  0  0  0  0  0  0
   47.2740   28.4860   45.7370 C   0  0  0  0  0  0  0  0  0  0  0  0
   47.6410   28.4600   47.1810 C   0  0  0  0  0  0  0  0  0  0  0  0
   48.1470   29.7070   47.6970 C   0  0  0  0  0  0  0  0  0  0  0  0
   47.3340   30.9430   47.2510 C   0  0  2  0  0  0  0  0  0  0  0  0
   45.9370   30.7470   47.6400 N   0  0  0  0  0  0  0  0  0  0  0  0
   45.3320   30.5670   48.8970 C   0  0  0  0  0  0  0  0  0  0  0  0
   45.1270   31.5320   49.7170 O   0  0  0  0  0  0  0  0  0  0  0  0
   44.9560   29.2210   49.1910 N   0  0  0  0  0  0  0  0  0  0  0  0
   47.6870   34.4320   42.4130 C   0  0  0  0  0  0  0  0  0  0  0  0
   48.5580   35.4950   42.4970 C   0  0  0  0  0  0  0  0  0  0  0  0
   49.1890   36.0900   41.4350 C   0  0  0  0  0  0  0  0  0  0  0  0
   48.8840   35.5330   40.2190 C   0  0  0  0  0  0  0  0  0  0  0  0
   48.0100   34.4610   40.0950 C   0  0  0  0  0  0  0  0  0  0  0  0
   47.4130   33.9140   41.2060 N   0  0  0  0  0  0  0  0  0  0  0  0
   47.6940   33.8790   38.7950 C   0  0  0  0  0  0  0  0  0  0  0  0
   48.3960   34.1540   37.6340 C   0  0  0  0  0  0  0  0  0  0  0  0
   47.8380   33.4360   36.5720 C   0  0  0  0  0  0  0  0  0  0  0  0
   46.7900   32.7420   37.1820 C   0  0  0  0  0  0  0  0  0  0  0  0
   46.7520   33.0320   38.4580 O   0  0  0  0  0  0  0  0  0  0  0  0
   45.4763   32.4256   46.7688 H   0  0  0  0  0  0  0  0  0  0  0  0
   44.5795   34.5954   45.7826 H   0  0  0  0  0  0  0  0  0  0  0  0
   48.5150   30.8998   45.5367 H   0  0  0  0  0  0  0  0  0  0  0  0
   46.7220   29.7672   44.1334 H   0  0  0  0  0  0  0  0  0  0  0  0
   45.6190   29.8058   45.5519 H   0  0  0  0  0  0  0  0  0  0  0  0
   46.5516   27.6755   45.5602 H   0  0  0  0  0  0  0  0  0  0  0  0
   48.2228   28.3761   45.1914 H   0  0  0  0  0  0  0  0  0  0  0  0
   46.7441   28.1895   47.7575 H   0  0  0  0  0  0  0  0  0  0  0  0
   48.4568   27.7289   47.2808 H   0  0  0  0  0  0  0  0  0  0  0  0
   48.1309   29.6595   48.7959 H   0  0  0  0  0  0  0  0  0  0  0  0
   49.1636   29.8306   47.2954 H   0  0  0  0  0  0  0  0  0  0  0  0
   47.6899   31.8803   47.7035 H   0  0  0  0  0  0  0  0  0  0  0  0
   45.2766   30.7395   46.8496 H   0  0  0  0  0  0  0  0  0  0  0  0
   44.5061   28.9966   50.0900 H   0  0  0  0  0  0  0  0  0  0  0  0
   45.1347   28.4746   48.5041 H   0  0  0  0  0  0  0  0  0  0  0  0
   48.7647   35.9003   43.4985 H   0  0  0  0  0  0  0  0  0  0  0  0
   49.8790   36.9392   41.5481 H   0  0  0  0  0  0  0  0  0  0  0  0
   49.3471   35.9493   39.3122 H   0  0  0  0  0  0  0  0  0  0  0  0
   49.2588   34.8321   37.5587 H   0  0  0  0  0  0  0  0  0  0  0  0
   48.1477   33.4212   35.5166 H   0  0  0  0  0  0  0  0  0  0  0  0
   46.1010   32.0557   36.6678 H   0  0  0  0  0  0  0  0  0  0  0  0
  1  7  1  0
  1  2  2  0
  3  2  1  0
  4  3  2  0
  5  6  2  0
  5  4  1  0
  6  1  1  0
  7 12  1  0
  8  9  1  0
  8  7  1  0
  9 10  1  0
 10 11  1  0
 12 13  1  0
 12 11  1  0
 13 14  1  0
 14 16  1  0
 14 15  2  0
 17 18  2  0
 17  5  1  0
 19 18  1  0
 20 19  2  0
 21 20  1  0
 21 22  2  0
 22 17  1  0
 23 21  1  0
 24 23  2  0
 25 26  2  0
 25 24  1  0
 26 27  1  0
 27 23  1  0
  2 28  1  0
  3 29  1  0
  7 30  1  1
  8 31  1  0
  8 32  1  0
  9 33  1  0
  9 34  1  0
 10 35  1  0
 10 36  1  0
 11 37  1  0
 11 38  1  0
 12 39  1  1
 13 40  1  0
 16 41  1  0
 16 42  1  0
 18 43  1  0
 19 44  1  0
 20 45  1  0
 24 46  1  0
 25 47  1  0
 26 48  1  0
M  ISO  8  28  14  29  14  30  13  31  13  32  13  33  13  34  13  35  13
M  ISO  8  36  13  37  13  38  13  39  13  43  14  44  14  45  14  46  14
M  ISO  2  47  14  48  14
M  END
>  <minimizedAffinity>  (1) 
-6.3452282

>  <minimizedRMSD>  (1) 
1.24431777

$$$$
