
     RDKit          3D

 40 44  0  0  0  0  0  0  0  0999 V2000
   45.9410   33.2050   41.6490 C   0  0  0  0  0  0  0  0  0  0  0  0
   47.1150   33.9010   41.3230 C   0  0  0  0  0  0  0  0  0  0  0  0
   48.0990   33.9670   42.2950 C   0  0  0  0  0  0  0  0  0  0  0  0
   47.8540   33.3520   43.4890 N   0  0  0  0  0  0  0  0  0  0  0  0
   46.7270   32.6920   43.7830 C   0  0  0  0  0  0  0  0  0  0  0  0
   45.7670   32.6180   42.8600 N   0  0  0  0  0  0  0  0  0  0  0  0
   46.8930   30.7710   45.2870 C   0  0  0  0  0  0  0  0  0  0  0  0
   46.5740   32.0770   45.0850 C   0  0  0  0  0  0  0  0  0  0  0  0
   46.0810   32.9070   46.1150 C   0  0  0  0  0  0  0  0  0  0  0  0
   45.9030   32.4010   47.3960 C   0  0  0  0  0  0  0  0  0  0  0  0
   45.4730   32.8610   48.5920 N   0  0  0  0  0  0  0  0  0  0  0  0
   45.5410   31.8240   49.4870 C   0  0  0  0  0  0  0  0  0  0  0  0
   46.0080   30.7540   48.8360 N   0  0  0  0  0  0  0  0  0  0  0  0
   46.2420   31.0640   47.5530 C   0  0  0  0  0  0  0  0  0  0  0  0
   46.7250   30.2360   46.5640 C   0  0  0  0  0  0  0  0  0  0  0  0
   49.3620   34.6900   42.0060 C   0  0  0  0  0  0  0  0  0  0  0  0
   49.1070   35.8240   41.2050 F   0  0  0  0  0  0  0  0  0  0  0  0
   49.9160   35.1690   43.1680 F   0  0  0  0  0  0  0  0  0  0  0  0
   50.2000   33.8440   41.3570 F   0  0  0  0  0  0  0  0  0  0  0  0
   47.2400   34.4670   40.1080 O   0  0  0  0  0  0  0  0  0  0  0  0
   47.3720   33.7400   38.9660 C   0  0  0  0  0  0  0  0  0  0  0  0
   48.3860   34.3830   38.2570 C   0  0  0  0  0  0  0  0  0  0  0  0
   48.5540   33.3990   36.7140 S   0  0  0  0  0  0  0  0  0  0  0  0
   47.1940   32.2400   37.2780 C   0  0  0  0  0  0  0  0  0  0  0  0
   46.9630   32.7220   38.2610 N   0  0  0  0  0  0  0  0  0  0  0  0
   46.6590   31.0520   36.5450 C   0  0  0  0  0  0  0  0  0  0  0  0
   45.5280   30.2990   36.7340 C   0  0  0  0  0  0  0  0  0  0  0  0
   45.5890   29.3450   35.7380 C   0  0  0  0  0  0  0  0  0  0  0  0
   46.7510   29.5630   34.9910 C   0  0  0  0  0  0  0  0  0  0  0  0
   47.3460   30.6010   35.5260 O   0  0  0  0  0  0  0  0  0  0  0  0
   45.1379   33.1331   40.9007 H   0  0  0  0  0  0  0  0  0  0  0  0
   47.2747   30.1508   44.4626 H   0  0  0  0  0  0  0  0  0  0  0  0
   45.8370   33.9583   45.9022 H   0  0  0  0  0  0  0  0  0  0  0  0
   45.1519   33.8184   48.7948 H   0  0  0  0  0  0  0  0  0  0  0  0
   45.2613   31.8654   50.5501 H   0  0  0  0  0  0  0  0  0  0  0  0
   46.9708   29.1848   46.7749 H   0  0  0  0  0  0  0  0  0  0  0  0
   48.9557   35.2760   38.5537 H   0  0  0  0  0  0  0  0  0  0  0  0
   44.7512   30.4261   37.5024 H   0  0  0  0  0  0  0  0  0  0  0  0
   44.8500   28.5494   35.5620 H   0  0  0  0  0  0  0  0  0  0  0  0
   47.0971   28.9788   34.1256 H   0  0  0  0  0  0  0  0  0  0  0  0
  1  6  2  0
  2  1  1  0
  2  3  2  0
  3  4  1  0
  4  5  2  0
  5  8  1  0
  6  5  1  0
  7 15  2  0
  8  7  1  0
  8  9  2  0
  9 10  1  0
 10 14  2  0
 10 11  1  0
 11 12  1  0
 13 12  2  0
 14 13  1  0
 15 14  1  0
 16  3  1  0
 16 18  1  0
 17 16  1  0
 19 16  1  0
 20  2  1  0
 21 20  1  0
 22 21  2  0
 23 24  1  0
 23 22  1  0
 24 25  2  0
 25 21  1  0
 26 27  2  0
 26 24  1  0
 28 27  1  0
 29 30  1  0
 29 28  2  0
 30 26  1  0
  1 31  1  0
  7 32  1  0
  9 33  1  0
 11 34  1  0
 12 35  1  0
 15 36  1  0
 22 37  1  0
 27 38  1  0
 28 39  1  0
 29 40  1  0
M  ISO  8  31  14  32  14  33  14  34   9  35  14  36  14  37  14  38  14
M  ISO  2  39  14  40  14
M  END
>  <minimizedAffinity>  (1) 
-6.17178345

>  <minimizedRMSD>  (1) 
0.0651560873

$$$$
