
     RDKit          3D

 30 32  0  0  0  0  0  0  0  0999 V2000
   44.4610   35.6440   44.1250 C   0  0  0  0  0  0  0  0  0  0  0  0
   44.4950   34.9580   42.9020 C   0  0  0  0  0  0  0  0  0  0  0  0
   44.9390   33.6580   42.9190 C   0  0  0  0  0  0  0  0  0  0  0  0
   45.3110   33.1240   44.1000 N   0  0  0  0  0  0  0  0  0  0  0  0
   45.2670   33.8070   45.2620 C   0  0  0  0  0  0  0  0  0  0  0  0
   44.8430   35.0800   45.3020 N   0  0  0  0  0  0  0  0  0  0  0  0
   45.6710   33.2220   46.5360 C   0  0  0  0  0  0  0  0  0  0  0  0
   46.9490   32.7130   46.6360 C   0  0  0  0  0  0  0  0  0  0  0  0
   47.0930   32.2160   47.9320 C   0  0  0  0  0  0  0  0  0  0  0  0
   45.8670   32.4610   48.5440 C   0  0  0  0  0  0  0  0  0  0  0  0
   45.0520   33.0600   47.6790 O   0  0  0  0  0  0  0  0  0  0  0  0
   44.0480   35.7200   41.7320 C   0  0  0  0  0  0  0  0  0  0  0  0
   42.7890   35.1690   41.2630 N   0  0  0  0  0  0  0  0  0  0  0  0
   41.6490   35.4910   41.8800 C   0  0  0  0  0  0  0  0  0  0  0  0
   40.4670   34.9390   41.3960 C   0  0  0  0  0  0  0  0  0  0  0  0
   40.4780   34.0910   40.3180 C   0  0  0  0  0  0  0  0  0  0  0  0
   39.3850   33.6130   39.9120 O   0  0  0  0  0  0  0  0  0  0  0  0
   41.6510   33.7890   39.7210 N   0  0  0  0  0  0  0  0  0  0  0  0
   42.8060   34.3270   40.1900 C   0  0  0  0  0  0  0  0  0  0  0  0
   43.8710   34.0040   39.5870 O   0  0  0  0  0  0  0  0  0  0  0  0
   44.1091   36.6862   44.1324 H   0  0  0  0  0  0  0  0  0  0  0  0
   44.9898   33.0675   41.9923 H   0  0  0  0  0  0  0  0  0  0  0  0
   47.7114   32.7011   45.8432 H   0  0  0  0  0  0  0  0  0  0  0  0
   47.9795   31.7365   48.3726 H   0  0  0  0  0  0  0  0  0  0  0  0
   45.6114   32.2000   49.5816 H   0  0  0  0  0  0  0  0  0  0  0  0
   43.9082   36.7750   42.0102 H   0  0  0  0  0  0  0  0  0  0  0  0
   44.8029   35.6544   40.9346 H   0  0  0  0  0  0  0  0  0  0  0  0
   41.6447   36.1716   42.7441 H   0  0  0  0  0  0  0  0  0  0  0  0
   39.5124   35.1856   41.8837 H   0  0  0  0  0  0  0  0  0  0  0  0
   41.6695   33.1520   38.9118 H   0  0  0  0  0  0  0  0  0  0  0  0
  1  6  2  0
  2  3  2  0
  2  1  1  0
  3  4  1  0
  4  5  2  0
  5  6  1  0
  5  7  1  0
  7  8  2  0
  7 11  1  0
  8  9  1  0
  9 10  2  0
 11 10  1  0
 12  2  1  0
 13 12  1  0
 13 14  1  0
 15 14  2  0
 16 15  1  0
 17 16  2  0
 18 19  1  0
 18 16  1  0
 19 13  1  0
 20 19  2  0
  1 21  1  0
  3 22  1  0
  8 23  1  0
  9 24  1  0
 10 25  1  0
 12 26  1  0
 12 27  1  0
 14 28  1  0
 15 29  1  0
 18 30  1  0
M  ISO  8  21  14  22  14  23  14  24  14  25  14  26   8  27   8  28  14
M  ISO  2  29  14  30   9
M  END
>  <minimizedAffinity>  (1) 
-5.49202442

>  <minimizedRMSD>  (1) 
0.932534695

$$$$
