
     RDKit          3D

 42 46  0  0  0  0  0  0  0  0999 V2000
   44.8180   35.9960   43.3330 Cl  0  0  0  0  0  0  0  0  0  0  0  0
   45.5630   34.7490   44.2710 C   0  0  0  0  0  0  0  0  0  0  0  0
   46.6720   34.0880   43.8020 C   0  0  0  0  0  0  0  0  0  0  0  0
   47.1980   33.1070   44.6210 C   0  0  0  0  0  0  0  0  0  0  0  0
   46.6730   32.7680   45.8600 C   0  0  0  0  0  0  0  0  0  0  0  0
   45.5670   33.4470   46.2970 C   0  0  0  0  0  0  0  0  0  0  0  0
   44.9440   32.9790   47.8660 Cl  0  0  0  0  0  0  0  0  0  0  0  0
   45.0160   34.4280   45.5120 C   0  0  0  0  0  0  0  0  0  0  0  0
   47.3670   31.7000   46.5870 C   0  0  0  0  0  0  0  0  0  0  0  0
   47.4760   30.4160   46.1040 C   0  0  0  0  0  0  0  0  0  0  0  0
   48.1250   29.3890   46.7690 C   0  0  0  0  0  0  0  0  0  0  0  0
   48.7040   29.6550   47.9950 C   0  0  0  0  0  0  0  0  0  0  0  0
   49.3270   28.6490   48.6220 N   0  0  0  0  0  0  0  0  0  0  0  0
   49.9200   28.8050   49.8170 C   0  0  0  0  0  0  0  0  0  0  0  0
   49.8530   30.0760   50.3750 C   0  0  0  0  0  0  0  0  0  0  0  0
   49.2160   31.1030   49.7300 C   0  0  0  0  0  0  0  0  0  0  0  0
   48.6160   30.9150   48.5070 C   0  0  0  0  0  0  0  0  0  0  0  0
   47.9630   31.9290   47.8260 C   0  0  0  0  0  0  0  0  0  0  0  0
   48.8920   35.5530   41.3060 C   0  0  0  0  0  0  0  0  0  0  0  0
   48.4360   35.0270   40.1110 C   0  0  0  0  0  0  0  0  0  0  0  0
   47.3350   34.1430   40.1540 C   0  0  0  0  0  0  0  0  0  0  0  0
   46.7990   33.8690   41.3610 N   0  0  0  0  0  0  0  0  0  0  0  0
   47.2670   34.4000   42.5130 C   0  0  0  0  0  0  0  0  0  0  0  0
   48.3190   35.2450   42.4880 N   0  0  0  0  0  0  0  0  0  0  0  0
   46.7880   33.5430   38.9440 C   0  0  0  0  0  0  0  0  0  0  0  0
   47.4180   33.5400   37.7160 C   0  0  0  0  0  0  0  0  0  0  0  0
   46.5970   32.8770   36.8010 C   0  0  0  0  0  0  0  0  0  0  0  0
   45.4870   32.5120   37.5700 C   0  0  0  0  0  0  0  0  0  0  0  0
   45.6270   32.9140   38.8180 O   0  0  0  0  0  0  0  0  0  0  0  0
   48.0865   32.5620   44.2695 H   0  0  0  0  0  0  0  0  0  0  0  0
   44.1276   34.9703   45.8680 H   0  0  0  0  0  0  0  0  0  0  0  0
   47.0192   30.1913   45.1289 H   0  0  0  0  0  0  0  0  0  0  0  0
   48.1784   28.3818   46.3300 H   0  0  0  0  0  0  0  0  0  0  0  0
   50.4300   27.9735   50.3254 H   0  0  0  0  0  0  0  0  0  0  0  0
   50.3205   30.2609   51.3534 H   0  0  0  0  0  0  0  0  0  0  0  0
   49.1838   32.0973   50.1994 H   0  0  0  0  0  0  0  0  0  0  0  0
   47.9138   32.9337   48.2712 H   0  0  0  0  0  0  0  0  0  0  0  0
   49.7481   36.2436   41.2924 H   0  0  0  0  0  0  0  0  0  0  0  0
   48.9159   35.2889   39.1565 H   0  0  0  0  0  0  0  0  0  0  0  0
   48.3998   33.9843   37.4954 H   0  0  0  0  0  0  0  0  0  0  0  0
   46.7794   32.6875   35.7329 H   0  0  0  0  0  0  0  0  0  0  0  0
   44.6146   31.9634   37.1853 H   0  0  0  0  0  0  0  0  0  0  0  0
  1  2  1  0
  2  8  2  0
  3  2  1  0
  3  4  2  0
  4  5  1  0
  5  6  2  0
  5  9  1  0
  6  7  1  0
  8  6  1  0
  9 18  1  0
 10  9  2  0
 10 11  1  0
 11 12  2  0
 12 17  1  0
 12 13  1  0
 13 14  2  0
 14 15  1  0
 16 15  2  0
 17 16  1  0
 18 17  2  0
 19 24  2  0
 20 21  2  0
 20 19  1  0
 21 22  1  0
 22 23  2  0
 23  3  1  0
 24 23  1  0
 25 21  1  0
 26 25  2  0
 27 28  2  0
 27 26  1  0
 28 29  1  0
 29 25  1  0
  4 30  1  0
  8 31  1  0
 10 32  1  0
 11 33  1  0
 14 34  1  0
 15 35  1  0
 16 36  1  0
 18 37  1  0
 19 38  1  0
 20 39  1  0
 26 40  1  0
 27 41  1  0
 28 42  1  0
M  END
>  <minimizedAffinity>  (1) 
-7.06671953

>  <minimizedRMSD>  (1) 
0.240209952

$$$$
