
     RDKit          3D

 37 40  0  0  0  0  0  0  0  0999 V2000
   43.8830   34.6580   41.0510 C   0  0  0  0  0  0  0  0  0  0  0  0
   43.8600   33.6980   40.1050 C   0  0  0  0  0  0  0  0  0  0  0  0
   45.1150   33.1440   39.7800 C   0  0  0  0  0  0  0  0  0  0  0  0
   46.2410   33.5790   40.3920 N   0  0  0  0  0  0  0  0  0  0  0  0
   46.2080   34.5520   41.3320 C   0  0  0  0  0  0  0  0  0  0  0  0
   45.0270   35.0440   41.6170 N   0  0  0  0  0  0  0  0  0  0  0  0
   42.8570   33.2170   39.1630 C   0  0  0  0  0  0  0  0  0  0  0  0
   42.4600   31.9200   38.9410 C   0  0  0  0  0  0  0  0  0  0  0  0
   41.4830   31.8790   37.9780 C   0  0  0  0  0  0  0  0  0  0  0  0
   41.2970   33.1920   37.6210 C   0  0  0  0  0  0  0  0  0  0  0  0
   42.1190   33.8890   38.3460 O   0  0  0  0  0  0  0  0  0  0  0  0
   45.2250   32.1220   38.7910 N   0  0  0  0  0  0  0  0  0  0  0  0
   42.2660   35.3310   41.5310 S   0  0  0  0  0  0  0  0  0  0  0  0
   39.8940   34.4850   40.7290 C   0  0  0  0  0  0  0  0  0  0  0  0
   41.0150   34.0760   41.4200 C   0  0  0  0  0  0  0  0  0  0  0  0
   41.0810   32.8000   41.9060 C   0  0  0  0  0  0  0  0  0  0  0  0
   40.0690   31.8900   41.7340 C   0  0  0  0  0  0  0  0  0  0  0  0
   38.9440   32.3020   41.0370 C   0  0  0  0  0  0  0  0  0  0  0  0
   38.8400   33.5750   40.5340 C   0  0  0  0  0  0  0  0  0  0  0  0
   38.0540   31.2000   40.9900 O   0  0  0  0  0  0  0  0  0  0  0  0
   38.5240   30.2590   41.8890 C   0  0  0  0  0  0  0  0  0  0  0  0
   39.8790   30.5570   42.1170 O   0  0  0  0  0  0  0  0  0  0  0  0
   47.3040   35.0350   41.9730 O   0  0  0  0  0  0  0  0  0  0  0  0
   48.5080   35.1730   41.2550 C   0  0  0  0  0  0  0  0  0  0  0  0
   49.3590   34.1260   41.5000 F   0  0  0  0  0  0  0  0  0  0  0  0
   48.1640   35.2520   39.9010 F   0  0  0  0  0  0  0  0  0  0  0  0
   49.1350   36.3280   41.6930 F   0  0  0  0  0  0  0  0  0  0  0  0
   42.8672   31.0403   39.4610 H   0  0  0  0  0  0  0  0  0  0  0  0
   40.9652   30.9933   37.5812 H   0  0  0  0  0  0  0  0  0  0  0  0
   40.5916   33.5771   36.8699 H   0  0  0  0  0  0  0  0  0  0  0  0
   46.1471   31.7245   38.5616 H   0  0  0  0  0  0  0  0  0  0  0  0
   44.3824   31.7816   38.3063 H   0  0  0  0  0  0  0  0  0  0  0  0
   39.8252   35.5099   40.3354 H   0  0  0  0  0  0  0  0  0  0  0  0
   41.9814   32.4906   42.4569 H   0  0  0  0  0  0  0  0  0  0  0  0
   37.9388   33.8809   39.9825 H   0  0  0  0  0  0  0  0  0  0  0  0
   37.9591   30.3198   42.8309 H   0  0  0  0  0  0  0  0  0  0  0  0
   38.4051   29.2399   41.4923 H   0  0  0  0  0  0  0  0  0  0  0  0
  1 13  1  0
  1  6  2  0
  2  1  1  0
  3  2  2  0
  3  4  1  0
  4  5  2  0
  5  6  1  0
  5 23  1  0
  7  2  1  0
  8  7  2  0
  9  8  1  0
 10  9  2  0
 10 11  1  0
 11  7  1  0
 12  3  1  0
 14 15  2  0
 15 13  1  0
 15 16  1  0
 17 16  2  0
 17 22  1  0
 18 17  1  0
 19 14  1  0
 19 18  2  0
 20 18  1  0
 20 21  1  0
 21 22  1  0
 24 25  1  0
 24 27  1  0
 24 23  1  0
 26 24  1  0
  8 28  1  0
  9 29  1  0
 10 30  1  0
 12 31  1  0
 12 32  1  0
 14 33  1  0
 16 34  1  0
 19 35  1  0
 21 36  1  0
 21 37  1  0
M  ISO  8  28  14  29  14  30  14  33  14  34  14  35  14  36  13  37  13
M  END
>  <minimizedAffinity>  (1) 
-5.50145674

>  <minimizedRMSD>  (1) 
0.449842393

$$$$
