
     RDKit          3D

 34 36  0  0  1  0  0  0  0  0999 V2000
   47.3680   33.6680   43.1640 N   0  0  0  0  0  0  0  0  0  0  0  0
   46.9680   32.7720   42.0900 C   0  0  0  0  0  0  0  0  0  0  0  0
   48.1620   32.2490   41.3410 C   0  0  0  0  0  0  0  0  0  0  0  0
   49.0720   33.2560   40.9060 N   0  0  0  0  0  0  0  0  0  0  0  0
   49.2700   34.3520   41.7800 C   0  0  2  0  0  0  0  0  0  0  0  0
   48.6380   34.3140   43.1200 C   0  0  0  0  0  0  0  0  0  0  0  0
   44.6980   35.0100   45.4300 C   0  0  0  0  0  0  0  0  0  0  0  0
   45.4950   34.8810   44.2910 C   0  0  0  0  0  0  0  0  0  0  0  0
   46.4890   33.9020   44.2640 C   0  0  0  0  0  0  0  0  0  0  0  0
   46.5990   33.1430   45.3750 N   0  0  0  0  0  0  0  0  0  0  0  0
   45.8330   33.2690   46.4700 C   0  0  0  0  0  0  0  0  0  0  0  0
   44.8660   34.2240   46.4890 N   0  0  0  0  0  0  0  0  0  0  0  0
   46.1230   32.3420   47.5590 C   0  0  0  0  0  0  0  0  0  0  0  0
   45.0320   31.8950   48.3070 C   0  0  0  0  0  0  0  0  0  0  0  0
   45.5390   31.0300   49.2830 C   0  0  0  0  0  0  0  0  0  0  0  0
   46.9190   31.0120   49.0540 C   0  0  0  0  0  0  0  0  0  0  0  0
   47.2260   31.7840   48.0470 O   0  0  0  0  0  0  0  0  0  0  0  0
   48.7700   35.6150   41.0770 C   0  0  0  0  0  0  0  0  0  0  0  0
   49.6130   36.6840   41.4010 F   0  0  0  0  0  0  0  0  0  0  0  0
   47.5500   35.9090   41.6670 F   0  0  0  0  0  0  0  0  0  0  0  0
   48.7160   35.4870   39.7290 F   0  0  0  0  0  0  0  0  0  0  0  0
   46.4143   31.9237   42.5187 H   0  0  0  0  0  0  0  0  0  0  0  0
   46.3360   33.3340   41.3866 H   0  0  0  0  0  0  0  0  0  0  0  0
   48.7052   31.5561   42.0004 H   0  0  0  0  0  0  0  0  0  0  0  0
   47.7748   31.7628   40.4334 H   0  0  0  0  0  0  0  0  0  0  0  0
   49.9867   32.8068   40.7559 H   0  0  0  0  0  0  0  0  0  0  0  0
   50.3495   34.3206   41.9889 H   0  0  0  0  0  0  0  0  0  0  0  0
   49.3163   33.7820   43.8033 H   0  0  0  0  0  0  0  0  0  0  0  0
   48.4631   35.3607   43.4096 H   0  0  0  0  0  0  0  0  0  0  0  0
   43.9127   35.7800   45.4517 H   0  0  0  0  0  0  0  0  0  0  0  0
   45.3413   35.5427   43.4258 H   0  0  0  0  0  0  0  0  0  0  0  0
   43.9774   32.1698   48.1578 H   0  0  0  0  0  0  0  0  0  0  0  0
   44.9780   30.4859   50.0571 H   0  0  0  0  0  0  0  0  0  0  0  0
   47.6441   30.4288   49.6405 H   0  0  0  0  0  0  0  0  0  0  0  0
  1  9  1  0
  2  1  1  0
  3  2  1  0
  4  3  1  0
  4  5  1  0
  5  6  1  0
  6  1  1  0
  7 12  2  0
  8  7  1  0
  9  8  2  0
  9 10  1  0
 10 11  2  0
 11 12  1  0
 11 13  1  0
 13 17  1  0
 13 14  2  0
 14 15  1  0
 16 15  2  0
 17 16  1  0
 18 19  1  0
 18 20  1  0
 18  5  1  0
 21 18  1  0
  2 22  1  0
  2 23  1  0
  3 24  1  0
  3 25  1  0
  4 26  1  0
  5 27  1  1
  6 28  1  0
  6 29  1  0
  7 30  1  0
  8 31  1  0
 14 32  1  0
 15 33  1  0
 16 34  1  0
M  ISO  8  22  13  23  13  24  13  25  13  26   5  27  13  28  13  29  13
M  ISO  5  30  14  31  14  32  14  33  14  34  14
M  END
>  <minimizedAffinity>  (1) 
-6.37372732

>  <minimizedRMSD>  (1) 
0.933520973

$$$$
