
     RDKit          3D

 42 45  0  0  1  0  0  0  0  0999 V2000
   44.6170   35.3550   45.5490 C   0  0  0  0  0  0  0  0  0  0  0  0
   44.4380   35.9330   44.2730 C   0  0  0  0  0  0  0  0  0  0  0  0
   44.9700   35.2700   43.1490 C   0  0  0  0  0  0  0  0  0  0  0  0
   45.6270   34.1080   43.3630 N   0  0  0  0  0  0  0  0  0  0  0  0
   45.7840   33.5740   44.6050 C   0  0  0  0  0  0  0  0  0  0  0  0
   45.2760   34.2030   45.7040 N   0  0  0  0  0  0  0  0  0  0  0  0
   46.5000   32.3340   44.7240 N   0  0  0  0  0  0  0  0  0  0  0  0
   46.3720   31.6610   46.0100 C   0  0  0  0  0  0  0  0  0  0  0  0
   47.3880   30.6250   46.2650 C   0  0  0  0  0  0  0  0  0  0  0  0
   47.7620   29.9170   44.9980 C   0  0  0  0  0  0  0  0  0  0  0  0
   48.3700   30.9530   44.1060 C   0  0  0  0  0  0  0  0  0  0  0  0
   47.2760   31.8340   43.6170 C   0  0  2  0  0  0  0  0  0  0  0  0
   46.7900   31.8530   40.8040 F   0  0  0  0  0  0  0  0  0  0  0  0
   47.5180   32.8880   41.3030 C   0  0  0  0  0  0  0  0  0  0  0  0
   47.7600   32.8870   42.6820 C   0  0  0  0  0  0  0  0  0  0  0  0
   48.5030   33.9580   43.1520 C   0  0  0  0  0  0  0  0  0  0  0  0
   48.9810   34.9590   42.3470 C   0  0  0  0  0  0  0  0  0  0  0  0
   48.7270   34.9280   41.0050 C   0  0  0  0  0  0  0  0  0  0  0  0
   47.9890   33.8810   40.4850 C   0  0  0  0  0  0  0  0  0  0  0  0
   47.7410   33.8880   39.0450 C   0  0  0  0  0  0  0  0  0  0  0  0
   48.4620   34.4520   38.0180 C   0  0  0  0  0  0  0  0  0  0  0  0
   47.8700   34.2200   36.7940 C   0  0  0  0  0  0  0  0  0  0  0  0
   46.7560   33.4850   37.1470 C   0  0  0  0  0  0  0  0  0  0  0  0
   46.7230   33.3210   38.4260 O   0  0  0  0  0  0  0  0  0  0  0  0
   44.2055   35.8635   46.4334 H   0  0  0  0  0  0  0  0  0  0  0  0
   43.8939   36.8822   44.1587 H   0  0  0  0  0  0  0  0  0  0  0  0
   44.8550   35.6824   42.1357 H   0  0  0  0  0  0  0  0  0  0  0  0
   46.4490   32.4194   46.8031 H   0  0  0  0  0  0  0  0  0  0  0  0
   45.3996   31.1469   45.9968 H   0  0  0  0  0  0  0  0  0  0  0  0
   48.2851   31.0979   46.6912 H   0  0  0  0  0  0  0  0  0  0  0  0
   46.9699   29.8892   46.9677 H   0  0  0  0  0  0  0  0  0  0  0  0
   48.4898   29.1192   45.2073 H   0  0  0  0  0  0  0  0  0  0  0  0
   46.8860   29.4466   44.5276 H   0  0  0  0  0  0  0  0  0  0  0  0
   49.1046   31.5470   44.6696 H   0  0  0  0  0  0  0  0  0  0  0  0
   48.8848   30.4754   43.2593 H   0  0  0  0  0  0  0  0  0  0  0  0
   46.5922   31.2294   43.0031 H   0  0  0  0  0  0  0  0  0  0  0  0
   48.7209   34.0075   44.2291 H   0  0  0  0  0  0  0  0  0  0  0  0
   49.5665   35.7837   42.7795 H   0  0  0  0  0  0  0  0  0  0  0  0
   49.1044   35.7250   40.3474 H   0  0  0  0  0  0  0  0  0  0  0  0
   49.3951   35.0179   38.1559 H   0  0  0  0  0  0  0  0  0  0  0  0
   48.2004   34.5385   35.7943 H   0  0  0  0  0  0  0  0  0  0  0  0
   46.0068   33.0964   36.4415 H   0  0  0  0  0  0  0  0  0  0  0  0
  1  6  2  0
  2  1  1  0
  3  4  1  0
  3  2  2  0
  4  5  2  0
  5  7  1  0
  5  6  1  0
  7  8  1  0
  8  9  1  0
 10  9  1  0
 11 10  1  0
 12 11  1  0
 12  7  1  0
 13 14  1  0
 14 15  2  0
 15 16  1  0
 15 12  1  0
 17 16  2  0
 18 17  1  0
 19 18  2  0
 19 14  1  0
 20 19  1  0
 21 20  2  0
 22 23  2  0
 22 21  1  0
 23 24  1  0
 24 20  1  0
  1 25  1  0
  2 26  1  0
  3 27  1  0
  8 28  1  0
  8 29  1  0
  9 30  1  0
  9 31  1  0
 10 32  1  0
 10 33  1  0
 11 34  1  0
 11 35  1  0
 12 36  1  6
 16 37  1  0
 17 38  1  0
 18 39  1  0
 21 40  1  0
 22 41  1  0
 23 42  1  0
M  ISO  8  25  14  26  14  27  14  28  13  29  13  30  13  31  13  32  13
M  ISO  8  33  13  34  13  35  13  36  13  37  14  38  14  39  14  40  14
M  ISO  2  41  14  42  14
M  END
>  <minimizedAffinity>  (1) 
-6.19069099

>  <minimizedRMSD>  (1) 
1.00652504

$$$$
