
     RDKit          3D

 44 47  0  0  1  0  0  0  0  0999 V2000
   48.1550   34.5950   41.6990 C   0  0  0  0  0  0  0  0  0  0  0  0
   49.0030   35.8460   41.4500 C   0  0  0  0  0  0  0  0  0  0  0  0
   49.5100   34.6820   42.1650 C   0  0  0  0  0  0  0  0  0  0  0  0
   47.8580   33.8530   40.4470 C   0  0  0  0  0  0  0  0  0  0  0  0
   48.2760   34.5380   39.1620 C   0  0  0  0  0  0  0  0  0  0  0  0
   47.9860   33.5410   38.0460 C   0  0  0  0  0  0  0  0  0  0  0  0
   46.5910   33.5600   37.8590 O   0  0  0  0  0  0  0  0  0  0  0  0
   46.1230   32.8440   38.9920 C   0  0  0  0  0  0  0  0  0  0  0  0
   46.3390   33.6740   40.2460 C   0  0  0  0  0  0  0  0  0  0  0  0
   46.2490   35.9400   42.6550 C   0  0  0  0  0  0  0  0  0  0  0  0
   47.0200   34.7680   42.6620 C   0  0  0  0  0  0  0  0  0  0  0  0
   46.7030   33.7890   43.5990 C   0  0  0  0  0  0  0  0  0  0  0  0
   45.6660   34.0080   44.4610 N   0  0  0  0  0  0  0  0  0  0  0  0
   44.9700   35.1450   44.4060 C   0  0  0  0  0  0  0  0  0  0  0  0
   45.2410   36.0940   43.5320 N   0  0  0  0  0  0  0  0  0  0  0  0
   43.8820   35.4080   45.2910 N   0  0  0  0  0  0  0  0  0  0  0  0
   47.4430   32.5680   43.7400 C   0  0  0  0  0  0  0  0  0  0  0  0
   47.7830   31.9860   44.8520 O   0  0  0  0  0  0  0  0  0  0  0  0
   48.0980   31.5260   42.9530 C   0  0  0  0  0  0  0  0  0  0  0  0
   47.5810   30.6070   42.0860 C   0  0  0  0  0  0  0  0  0  0  0  0
   48.6320   29.8180   41.5900 C   0  0  0  0  0  0  0  0  0  0  0  0
   49.7530   30.3110   42.1980 C   0  0  0  0  0  0  0  0  0  0  0  0
   49.3580   31.2660   42.9430 O   0  0  0  0  0  0  0  0  0  0  0  0
   49.3664   36.0806   40.4386 H   0  0  0  0  0  0  0  0  0  0  0  0
   48.9073   36.9226   41.6543 H   0  0  0  0  0  0  0  0  0  0  0  0
   49.7046   34.7558   43.2451 H   0  0  0  0  0  0  0  0  0  0  0  0
   50.3952   34.0426   42.0327 H   0  0  0  0  0  0  0  0  0  0  0  0
   48.4246   32.9223   40.5980 H   0  0  0  0  0  0  0  0  0  0  0  0
   47.6945   35.4597   39.0127 H   0  0  0  0  0  0  0  0  0  0  0  0
   49.3379   34.8244   39.1830 H   0  0  0  0  0  0  0  0  0  0  0  0
   48.4994   33.8430   37.1212 H   0  0  0  0  0  0  0  0  0  0  0  0
   48.3434   32.5332   38.3043 H   0  0  0  0  0  0  0  0  0  0  0  0
   45.0500   32.6325   38.8736 H   0  0  0  0  0  0  0  0  0  0  0  0
   46.6778   31.8983   39.0805 H   0  0  0  0  0  0  0  0  0  0  0  0
   45.8600   34.6573   40.1293 H   0  0  0  0  0  0  0  0  0  0  0  0
   45.8963   33.1697   41.1176 H   0  0  0  0  0  0  0  0  0  0  0  0
   46.4698   36.7364   41.9291 H   0  0  0  0  0  0  0  0  0  0  0  0
   43.3652   36.2963   45.2220 H   0  0  0  0  0  0  0  0  0  0  0  0
   43.6135   34.7096   45.9988 H   0  0  0  0  0  0  0  0  0  0  0  0
   48.3831   33.1391   43.7515 H   0  0  0  0  0  0  0  0  0  0  0  0
   47.4667   32.5275   45.6180 H   0  0  0  0  0  0  0  0  0  0  0  0
   46.5188   30.5019   41.8202 H   0  0  0  0  0  0  0  0  0  0  0  0
   48.5674   28.9875   40.8716 H   0  0  0  0  0  0  0  0  0  0  0  0
   50.7860   29.9553   42.0699 H   0  0  0  0  0  0  0  0  0  0  0  0
  1  3  1  0
  1 11  1  0
  2  1  1  0
  2  3  1  0
  4  1  1  0
  5  4  1  0
  6  5  1  0
  7  6  1  0
  7  8  1  0
  8  9  1  0
  9  4  1  0
 10 11  2  0
 10 15  1  0
 11 12  1  0
 12 17  1  0
 12 13  2  0
 14 13  1  0
 14 16  1  0
 15 14  2  0
 17 18  1  0
 19 17  1  0
 20 19  2  0
 21 20  1  0
 21 22  2  0
 22 23  1  0
 23 19  1  0
  2 24  1  0
  2 25  1  0
  3 26  1  0
  3 27  1  0
  4 28  1  0
  5 29  1  0
  5 30  1  0
  6 31  1  0
  6 32  1  0
  8 33  1  0
  8 34  1  0
  9 35  1  0
  9 36  1  0
 10 37  1  0
 16 38  1  0
 16 39  1  0
 17 40  1  0
 18 41  1  0
 20 42  1  0
 21 43  1  0
 22 44  1  0
M  ISO  8  24  13  25  13  26  13  27  13  28  13  29  13  30  13  31  13
M  ISO  8  32  13  33  13  34  13  35  13  36  13  37  14  40   8  41   3
M  ISO  3  42  14  43  14  44  14
M  END
>  <minimizedAffinity>  (1) 
-5.24258566

>  <minimizedRMSD>  (1) 
1.36151683

$$$$
