
     RDKit          3D

 31 33  0  0  1  0  0  0  0  0999 V2000
   44.5990   33.0860   41.2060 Br  0  0  0  0  0  0  0  0  0  0  0  0
   46.2730   33.9670   41.0150 C   0  0  0  0  0  0  0  0  0  0  0  0
   46.8040   34.7630   41.9950 C   0  0  0  0  0  0  0  0  0  0  0  0
   48.0220   35.3900   41.7440 C   0  0  0  0  0  0  0  0  0  0  0  0
   48.7080   35.2390   40.5540 C   0  0  0  0  0  0  0  0  0  0  0  0
   48.1650   34.4240   39.5550 C   0  0  0  0  0  0  0  0  0  0  0  0
   46.9480   33.8110   39.8340 C   0  0  0  0  0  0  0  0  0  0  0  0
   44.4830   35.9480   44.7300 C   0  0  0  0  0  0  0  0  0  0  0  0
   45.1680   35.8880   43.5040 C   0  0  0  0  0  0  0  0  0  0  0  0
   46.0630   34.8820   43.2420 C   0  0  0  0  0  0  0  0  0  0  0  0
   46.2190   33.9710   44.2570 N   0  0  0  0  0  0  0  0  0  0  0  0
   45.5640   34.0350   45.4200 C   0  0  0  0  0  0  0  0  0  0  0  0
   44.7050   35.0060   45.6630 N   0  0  0  0  0  0  0  0  0  0  0  0
   46.4570   32.9550   38.7890 C   0  0  0  0  0  0  0  0  0  0  0  0
   45.6600   33.4270   37.8720 O   0  0  0  0  0  0  0  0  0  0  0  0
   46.7470   31.5170   38.5890 C   0  0  0  0  0  0  0  0  0  0  0  0
   46.4560   30.8590   37.4140 C   0  0  0  0  0  0  0  0  0  0  0  0
   46.8430   29.5340   37.5270 C   0  0  0  0  0  0  0  0  0  0  0  0
   47.3680   29.4380   38.7980 C   0  0  0  0  0  0  0  0  0  0  0  0
   47.2820   30.6040   39.3480 O   0  0  0  0  0  0  0  0  0  0  0  0
   48.4557   36.0317   42.5251 H   0  0  0  0  0  0  0  0  0  0  0  0
   49.6676   35.7525   40.3945 H   0  0  0  0  0  0  0  0  0  0  0  0
   48.6770   34.2748   38.5929 H   0  0  0  0  0  0  0  0  0  0  0  0
   43.7689   36.7617   44.9250 H   0  0  0  0  0  0  0  0  0  0  0  0
   44.9834   36.6601   42.7425 H   0  0  0  0  0  0  0  0  0  0  0  0
   45.7439   33.2664   46.1861 H   0  0  0  0  0  0  0  0  0  0  0  0
   47.3264   33.2152   38.1673 H   0  0  0  0  0  0  0  0  0  0  0  0
   44.8932   33.8811   38.3031 H   0  0  0  0  0  0  0  0  0  0  0  0
   45.9904   31.3137   36.5272 H   0  0  0  0  0  0  0  0  0  0  0  0
   46.7520   28.7382   36.7730 H   0  0  0  0  0  0  0  0  0  0  0  0
   47.7852   28.5315   39.2608 H   0  0  0  0  0  0  0  0  0  0  0  0
  2  1  1  0
  2  3  2  0
  3 10  1  0
  4  3  1  0
  5  4  2  0
  6  7  2  0
  6  5  1  0
  7  2  1  0
  8 13  2  0
  9  8  1  0
 10  9  2  0
 10 11  1  0
 11 12  2  0
 12 13  1  0
 14 15  1  0
 14  7  1  0
 16 14  1  0
 16 20  1  0
 17 18  1  0
 17 16  2  0
 18 19  2  0
 19 20  1  0
  4 21  1  0
  5 22  1  0
  6 23  1  0
  8 24  1  0
  9 25  1  0
 12 26  1  0
 14 27  1  0
 15 28  1  0
 17 29  1  0
 18 30  1  0
 19 31  1  0
M  ISO  8  21  14  22  14  23  14  24  14  25  14  26  14  27   8  28   3
M  ISO  3  29  14  30  14  31  14
M  END
>  <minimizedAffinity>  (1) 
-5.08935642

>  <minimizedRMSD>  (1) 
0.964526594

$$$$
