
     RDKit          3D

 51 55  0  0  1  0  0  0  0  0999 V2000
   50.1980   31.8020   42.1140 C   0  0  1  0  0  0  0  0  0  0  0  0
   49.5330   31.8780   40.7490 C   0  0  0  0  0  0  0  0  0  0  0  0
   48.7340   31.8140   42.0660 C   0  0  2  0  0  0  0  0  0  0  0  0
   51.3610   28.2940   42.1070 C   0  0  0  0  0  0  0  0  0  0  0  0
   52.2660   28.2890   43.2260 C   0  0  0  0  0  0  0  0  0  0  0  0
   52.4460   29.4870   43.9370 C   0  0  0  0  0  0  0  0  0  0  0  0
   51.7710   30.5500   43.5340 N   0  0  0  0  0  0  0  0  0  0  0  0
   50.9290   30.5460   42.4890 C   0  0  0  0  0  0  0  0  0  0  0  0
   50.7150   29.4130   41.7610 N   0  0  0  0  0  0  0  0  0  0  0  0
   54.7140   29.6730   44.9120 C   0  0  0  0  0  0  0  0  0  0  0  0
   53.3660   29.4390   45.0560 C   0  0  0  0  0  0  0  0  0  0  0  0
   52.9850   29.1660   46.3430 C   0  0  0  0  0  0  0  0  0  0  0  0
   53.8730   29.1280   47.3880 C   0  0  0  0  0  0  0  0  0  0  0  0
   55.2120   29.3650   47.2190 C   0  0  0  0  0  0  0  0  0  0  0  0
   55.6440   29.6440   45.9480 C   0  0  0  0  0  0  0  0  0  0  0  0
   55.3590   29.9040   42.3630 N   0  0  0  0  0  0  0  0  0  0  0  0
   55.3160   29.9650   43.6340 C   0  0  0  0  0  0  0  0  0  0  0  0
   56.5160   30.7280   43.5270 N   0  0  0  0  0  0  0  0  0  0  0  0
   56.1460   30.3760   41.8900 H   0  0  0  0  0  0  0  0  0  0  0  0
   48.0470   33.0070   42.4690 N   0  0  0  0  0  0  0  0  0  0  0  0
   47.2710   33.0690   43.6390 C   0  0  0  0  0  0  0  0  0  0  0  0
   47.4650   32.1390   44.6230 C   0  0  0  0  0  0  0  0  0  0  0  0
   46.7880   32.1740   45.8340 C   0  0  0  0  0  0  0  0  0  0  0  0
   45.8730   33.1720   46.0980 C   0  0  0  0  0  0  0  0  0  0  0  0
   45.6590   34.1190   45.1230 C   0  0  0  0  0  0  0  0  0  0  0  0
   44.7520   35.1340   45.3720 C   0  0  0  0  0  0  0  0  0  0  0  0
   44.5010   36.1040   44.4550 C   0  0  0  0  0  0  0  0  0  0  0  0
   45.1950   36.0310   43.2530 C   0  0  0  0  0  0  0  0  0  0  0  0
   46.0870   35.0260   43.0160 C   0  0  0  0  0  0  0  0  0  0  0  0
   46.3460   34.0530   43.9310 C   0  0  0  0  0  0  0  0  0  0  0  0
   46.7380   35.0000   41.8080 O   0  0  0  0  0  0  0  0  0  0  0  0
   50.9420   32.4120   42.6473 H   0  0  0  0  0  0  0  0  0  0  0  0
   49.5564   31.0142   40.0683 H   0  0  0  0  0  0  0  0  0  0  0  0
   49.5787   32.5505   39.8797 H   0  0  0  0  0  0  0  0  0  0  0  0
   47.9491   31.1604   42.4744 H   0  0  0  0  0  0  0  0  0  0  0  0
   51.1993   27.3704   41.5318 H   0  0  0  0  0  0  0  0  0  0  0  0
   52.8015   27.3731   43.5163 H   0  0  0  0  0  0  0  0  0  0  0  0
   51.9223   28.9689   46.5473 H   0  0  0  0  0  0  0  0  0  0  0  0
   53.4972   28.8994   48.3962 H   0  0  0  0  0  0  0  0  0  0  0  0
   55.9111   29.3328   48.0676 H   0  0  0  0  0  0  0  0  0  0  0  0
   56.7078   29.8417   45.7499 H   0  0  0  0  0  0  0  0  0  0  0  0
   56.9776   31.0836   44.3763 H   0  0  0  0  0  0  0  0  0  0  0  0
   56.9211   30.9235   42.6004 H   0  0  0  0  0  0  0  0  0  0  0  0
   48.1252   33.8482   41.8798 H   0  0  0  0  0  0  0  0  0  0  0  0
   48.1882   31.3291   44.4471 H   0  0  0  0  0  0  0  0  0  0  0  0
   46.9828   31.3991   46.5900 H   0  0  0  0  0  0  0  0  0  0  0  0
   45.3328   33.2095   47.0555 H   0  0  0  0  0  0  0  0  0  0  0  0
   44.2217   35.1558   46.3355 H   0  0  0  0  0  0  0  0  0  0  0  0
   43.7808   36.9111   44.6547 H   0  0  0  0  0  0  0  0  0  0  0  0
   45.0225   36.7952   42.4808 H   0  0  0  0  0  0  0  0  0  0  0  0
   47.3898   34.2810   41.6123 H   0  0  0  0  0  0  0  0  0  0  0  0
  1  8  1  0
  2  3  1  0
  2  1  1  0
  3  1  1  0
  3 20  1  0
  4  5  2  0
  5  6  1  0
  6 11  1  0
  7  6  2  0
  8  7  1  0
  9  4  1  0
  9  8  2  0
 10 11  2  0
 10 15  1  0
 11 12  1  0
 12 13  2  0
 14 13  1  0
 15 14  2  0
 16 17  2  0
 17 10  1  0
 18 17  1  0
 19 16  1  0
 20 21  1  0
 21 30  1  0
 21 22  2  0
 22 23  1  0
 23 24  2  0
 25 26  2  0
 25 24  1  0
 27 26  1  0
 28 27  2  0
 29 28  1  0
 29 30  2  0
 30 25  1  0
 31 29  1  0
  1 32  1  1
  2 33  1  0
  2 34  1  0
  3 35  1  6
  4 36  1  0
  5 37  1  0
 12 38  1  0
 13 39  1  0
 14 40  1  0
 15 41  1  0
 18 42  1  0
 18 43  1  0
 20 44  1  0
 22 45  1  0
 23 46  1  0
 24 47  1  0
 26 48  1  0
 27 49  1  0
 28 50  1  0
 31 51  1  0
M  ISO  8  32  13  33  13  34  13  35  13  36  14  37  14  38  14  39  14
M  ISO  8  40  14  41  14  45  14  46  14  47  14  48  14  49  14  50  14
M  ISO  1  51   3
M  END
>  <minimizedAffinity>  (1) 
-5.38545275

>  <minimizedRMSD>  (1) 
0.506367326

$$$$
