
     RDKit          3D

 27 28  0  0  0  0  0  0  0  0999 V2000
   46.0390   31.5890   45.9960 C   0  0  0  0  0  0  0  0  0  0  0  0
   45.7110   32.8720   46.3750 C   0  0  0  0  0  0  0  0  0  0  0  0
   45.5250   33.1490   47.7150 C   0  0  0  0  0  0  0  0  0  0  0  0
   45.6830   32.1050   48.6180 C   0  0  0  0  0  0  0  0  0  0  0  0
   46.0110   30.8160   48.2510 C   0  0  0  0  0  0  0  0  0  0  0  0
   46.1950   30.5470   46.9100 C   0  0  0  0  0  0  0  0  0  0  0  0
   44.5170   35.9040   44.6840 C   0  0  0  0  0  0  0  0  0  0  0  0
   45.2880   35.9210   43.5270 C   0  0  0  0  0  0  0  0  0  0  0  0
   46.2170   34.8860   43.3350 C   0  0  0  0  0  0  0  0  0  0  0  0
   46.3090   33.9210   44.2920 N   0  0  0  0  0  0  0  0  0  0  0  0
   45.5400   33.9440   45.4000 C   0  0  0  0  0  0  0  0  0  0  0  0
   44.6660   34.9290   45.5680 N   0  0  0  0  0  0  0  0  0  0  0  0
   47.0030   34.8910   42.1720 N   0  0  0  0  0  0  0  0  0  0  0  0
   47.2020   31.2360   43.6950 N   0  0  0  0  0  0  0  0  0  0  0  0
   46.2490   31.3240   44.5760 C   0  0  0  0  0  0  0  0  0  0  0  0
   44.9520   31.1280   44.0530 N   0  0  0  0  0  0  0  0  0  0  0  0
   48.2170   31.3520   43.9020 H   0  0  0  0  0  0  0  0  0  0  0  0
   45.2609   34.1610   48.0556 H   0  0  0  0  0  0  0  0  0  0  0  0
   45.5382   32.3184   49.6873 H   0  0  0  0  0  0  0  0  0  0  0  0
   46.1228   30.0245   49.0066 H   0  0  0  0  0  0  0  0  0  0  0  0
   46.4585   29.5346   46.5699 H   0  0  0  0  0  0  0  0  0  0  0  0
   43.7819   36.7019   44.8655 H   0  0  0  0  0  0  0  0  0  0  0  0
   45.1733   36.7230   42.7829 H   0  0  0  0  0  0  0  0  0  0  0  0
   47.6905   34.1410   42.0118 H   0  0  0  0  0  0  0  0  0  0  0  0
   46.8922   35.6447   41.4788 H   0  0  0  0  0  0  0  0  0  0  0  0
   44.1327   31.1789   44.6752 H   0  0  0  0  0  0  0  0  0  0  0  0
   44.8253   30.9342   43.0494 H   0  0  0  0  0  0  0  0  0  0  0  0
  1  2  2  0
  1  6  1  0
  2  3  1  0
  3  4  2  0
  5  4  1  0
  6  5  2  0
  7 12  2  0
  8  7  1  0
  9  8  2  0
  9 10  1  0
 10 11  2  0
 11 12  1  0
 11  2  1  0
 13  9  1  0
 14 17  1  0
 14 15  2  0
 15  1  1  0
 16 15  1  0
  3 18  1  0
  4 19  1  0
  5 20  1  0
  6 21  1  0
  7 22  1  0
  8 23  1  0
 13 24  1  0
 13 25  1  0
 16 26  1  0
 16 27  1  0
M  ISO  6  18  14  19  14  20  14  21  14  22  14  23  14
M  END
>  <minimizedAffinity>  (1) 
-4.69008636

>  <minimizedRMSD>  (1) 
0.276729882

$$$$
