
     RDKit          3D

 50 53  0  0  1  0  0  0  0  0999 V2000
   45.2730   34.0980   40.5820 C   0  0  1  0  0  0  0  0  0  0  0  0
   46.6850   33.5990   40.1930 C   0  0  0  0  0  0  0  0  0  0  0  0
   46.6960   33.6990   38.6540 C   0  0  0  0  0  0  0  0  0  0  0  0
   45.7800   32.5710   38.1830 C   0  0  0  0  0  0  0  0  0  0  0  0
   44.4020   32.7820   38.6710 C   0  0  0  0  0  0  0  0  0  0  0  0
   44.2180   33.2160   40.0860 C   0  0  2  0  0  0  0  0  0  0  0  0
   45.5550   33.7620   44.2300 C   0  0  0  0  0  0  0  0  0  0  0  0
   45.0450   34.9690   44.6500 C   0  0  0  0  0  0  0  0  0  0  0  0
   44.5780   35.9530   43.8070 C   0  0  0  0  0  0  0  0  0  0  0  0
   44.6670   35.6210   42.4460 C   0  0  0  0  0  0  0  0  0  0  0  0
   45.1860   34.4010   42.0080 C   0  0  0  0  0  0  0  0  0  0  0  0
   45.6240   33.4840   42.9030 N   0  0  0  0  0  0  0  0  0  0  0  0
   46.2890   30.5790   45.8760 C   0  0  0  0  0  0  0  0  0  0  0  0
   46.8600   30.9410   47.0850 C   0  0  0  0  0  0  0  0  0  0  0  0
   46.9870   32.3060   47.3220 C   0  0  0  0  0  0  0  0  0  0  0  0
   46.5510   33.1930   46.3680 N   0  0  0  0  0  0  0  0  0  0  0  0
   45.9980   32.7680   45.2010 C   0  0  0  0  0  0  0  0  0  0  0  0
   45.8710   31.4860   44.9620 N   0  0  0  0  0  0  0  0  0  0  0  0
   41.8660   33.2810   40.8270 C   0  0  0  0  0  0  0  0  0  0  0  0
   42.8730   33.9110   40.0780 C   0  0  0  0  0  0  0  0  0  0  0  0
   42.5000   35.0700   39.4410 C   0  0  0  0  0  0  0  0  0  0  0  0
   41.2170   35.5510   39.5530 C   0  0  0  0  0  0  0  0  0  0  0  0
   40.2420   34.9220   40.2900 C   0  0  0  0  0  0  0  0  0  0  0  0
   40.5840   33.7650   40.9360 C   0  0  0  0  0  0  0  0  0  0  0  0
   42.7520   31.9060   42.6750 N   0  0  0  0  0  0  0  0  0  0  0  0
   42.0240   32.0300   41.6000 C   0  0  0  0  0  0  0  0  0  0  0  0
   41.6040   30.6800   41.6000 N   0  0  0  0  0  0  0  0  0  0  0  0
   43.2900   32.6880   43.0910 H   0  0  0  0  0  0  0  0  0  0  0  0
   45.0981   35.0548   40.0683 H   0  0  0  0  0  0  0  0  0  0  0  0
   47.4629   34.2400   40.6335 H   0  0  0  0  0  0  0  0  0  0  0  0
   46.8929   32.5816   40.5559 H   0  0  0  0  0  0  0  0  0  0  0  0
   46.3087   34.6750   38.3264 H   0  0  0  0  0  0  0  0  0  0  0  0
   47.7110   33.6101   38.2394 H   0  0  0  0  0  0  0  0  0  0  0  0
   45.7741   32.5455   37.0833 H   0  0  0  0  0  0  0  0  0  0  0  0
   46.1561   31.6182   38.5838 H   0  0  0  0  0  0  0  0  0  0  0  0
   43.9426   33.5499   38.0312 H   0  0  0  0  0  0  0  0  0  0  0  0
   43.9400   31.7847   38.6277 H   0  0  0  0  0  0  0  0  0  0  0  0
   44.2663   32.3566   40.7709 H   0  0  0  0  0  0  0  0  0  0  0  0
   45.0077   35.1611   45.7325 H   0  0  0  0  0  0  0  0  0  0  0  0
   44.1729   36.9103   44.1669 H   0  0  0  0  0  0  0  0  0  0  0  0
   44.3156   36.3474   41.6984 H   0  0  0  0  0  0  0  0  0  0  0  0
   46.1702   29.5093   45.6490 H   0  0  0  0  0  0  0  0  0  0  0  0
   47.1944   30.1910   47.8169 H   0  0  0  0  0  0  0  0  0  0  0  0
   47.4305   32.6700   48.2605 H   0  0  0  0  0  0  0  0  0  0  0  0
   43.2359   35.6188   38.8350 H   0  0  0  0  0  0  0  0  0  0  0  0
   40.9586   36.4827   39.0284 H   0  0  0  0  0  0  0  0  0  0  0  0
   39.2242   35.3335   40.3581 H   0  0  0  0  0  0  0  0  0  0  0  0
   39.8380   33.2259   41.5384 H   0  0  0  0  0  0  0  0  0  0  0  0
   41.9280   30.0399   42.3390 H   0  0  0  0  0  0  0  0  0  0  0  0
   40.9740   30.3366   40.8610 H   0  0  0  0  0  0  0  0  0  0  0  0
  1 11  1  0
  2  1  1  0
  3  2  1  0
  4  3  1  0
  4  5  1  0
  5  6  1  0
  6  1  1  0
  7  8  2  0
  7 17  1  0
  9  8  1  0
 10  9  2  0
 11 10  1  0
 11 12  2  0
 12  7  1  0
 13 14  2  0
 14 15  1  0
 16 15  2  0
 17 16  1  0
 18 17  2  0
 18 13  1  0
 19 24  2  0
 19 26  1  0
 20  6  1  0
 20 19  1  0
 21 22  1  0
 21 20  2  0
 22 23  2  0
 23 24  1  0
 25 28  1  0
 26 25  2  0
 27 26  1  0
  1 29  1  6
  2 30  1  0
  2 31  1  0
  3 32  1  0
  3 33  1  0
  4 34  1  0
  4 35  1  0
  5 36  1  0
  5 37  1  0
  6 38  1  1
  8 39  1  0
  9 40  1  0
 10 41  1  0
 13 42  1  0
 14 43  1  0
 15 44  1  0
 21 45  1  0
 22 46  1  0
 23 47  1  0
 24 48  1  0
 27 49  1  0
 27 50  1  0
M  ISO  8  29  13  30  13  31  13  32  13  33  13  34  13  35  13  36  13
M  ISO  8  37  13  38  13  39  14  40  14  41  14  42  14  43  14  44  14
M  ISO  4  45  14  46  14  47  14  48  14
M  END
>  <minimizedAffinity>  (1) 
-6.28515577

>  <minimizedRMSD>  (1) 
5.59651852

$$$$
