
     RDKit          3D

 46 50  0  0  1  0  0  0  0  0999 V2000
   47.3590   32.7900   43.9030 C   0  0  0  0  0  0  0  0  0  0  0  0
   48.1280   33.2770   42.9330 C   0  0  0  0  0  0  0  0  0  0  0  0
   48.9380   32.3560   42.3180 C   0  0  0  0  0  0  0  0  0  0  0  0
   48.8870   31.0180   42.7590 N   0  0  0  0  0  0  0  0  0  0  0  0
   48.1050   30.6110   43.7270 C   0  0  0  0  0  0  0  0  0  0  0  0
   47.2750   31.5070   44.3650 N   0  0  0  0  0  0  0  0  0  0  0  0
   48.2720   34.6470   42.5570 C   0  0  1  0  0  0  0  0  0  0  0  0
   49.0390   35.1860   41.5710 C   0  0  0  0  0  0  0  0  0  0  0  0
   47.5800   35.0850   41.2110 C   0  0  1  0  0  0  0  0  0  0  0  0
   47.3390   34.0920   40.2200 N   0  0  0  0  0  0  0  0  0  0  0  0
   46.4910   33.0500   40.4930 C   0  0  0  0  0  0  0  0  0  0  0  0
   46.3880   32.2080   39.4350 N   0  0  0  0  0  0  0  0  0  0  0  0
   47.1810   32.7130   38.4630 C   0  0  0  0  0  0  0  0  0  0  0  0
   47.4770   32.2960   37.1770 C   0  0  0  0  0  0  0  0  0  0  0  0
   48.3340   33.0420   36.4350 N   0  0  0  0  0  0  0  0  0  0  0  0
   48.8650   34.1710   36.9900 C   0  0  0  0  0  0  0  0  0  0  0  0
   48.5790   34.5810   38.2400 N   0  0  0  0  0  0  0  0  0  0  0  0
   47.7450   33.8640   38.9770 C   0  0  0  0  0  0  0  0  0  0  0  0
   46.3370   33.5370   44.6700 C   0  0  0  0  0  0  0  0  0  0  0  0
   45.8350   33.9520   45.6750 O   0  0  0  0  0  0  0  0  0  0  0  0
   44.4940   31.6490   43.0660 Cl  0  0  0  0  0  0  0  0  0  0  0  0
   44.4560   33.3930   42.8830 C   0  0  0  0  0  0  0  0  0  0  0  0
   45.3540   34.1240   43.7020 C   0  0  0  0  0  0  0  0  0  0  0  0
   45.2190   35.4740   43.4690 C   0  0  0  0  0  0  0  0  0  0  0  0
   44.4270   36.1400   42.6420 C   0  0  0  0  0  0  0  0  0  0  0  0
   43.5850   35.3710   41.8790 C   0  0  0  0  0  0  0  0  0  0  0  0
   43.5850   34.0100   41.9880 C   0  0  0  0  0  0  0  0  0  0  0  0
   42.6970   33.3540   41.1790 O   0  0  0  0  0  0  0  0  0  0  0  0
   40.4200   32.5490   40.1640 O   0  0  0  0  0  0  0  0  0  0  0  0
   41.0840   32.9300   41.4640 P   0  0  0  0  0  0  0  0  0  0  0  0
   41.0270   31.6580   42.5820 O   0  0  0  0  0  0  0  0  0  0  0  0
   40.2290   34.2010   42.1930 O   0  0  0  0  0  0  0  0  0  0  0  0
   49.6109   32.6544   41.5006 H   0  0  0  0  0  0  0  0  0  0  0  0
   48.1106   29.5538   44.0310 H   0  0  0  0  0  0  0  0  0  0  0  0
   48.2526   34.8800   43.6319 H   0  0  0  0  0  0  0  0  0  0  0  0
   49.4804   36.1816   41.7256 H   0  0  0  0  0  0  0  0  0  0  0  0
   49.9497   34.8303   41.0669 H   0  0  0  0  0  0  0  0  0  0  0  0
   46.7213   35.7149   40.9357 H   0  0  0  0  0  0  0  0  0  0  0  0
   45.9620   32.9143   41.4478 H   0  0  0  0  0  0  0  0  0  0  0  0
   47.0276   31.3802   36.7655 H   0  0  0  0  0  0  0  0  0  0  0  0
   49.5596   34.7743   36.3870 H   0  0  0  0  0  0  0  0  0  0  0  0
   45.8832   36.1090   44.0737 H   0  0  0  0  0  0  0  0  0  0  0  0
   44.4433   37.2376   42.5716 H   0  0  0  0  0  0  0  0  0  0  0  0
   42.9001   35.8580   41.1692 H   0  0  0  0  0  0  0  0  0  0  0  0
   41.0435   32.0255   43.5011 H   0  0  0  0  0  0  0  0  0  0  0  0
   40.2866   34.1154   43.1776 H   0  0  0  0  0  0  0  0  0  0  0  0
  1  6  1  0
  1 19  1  0
  2  1  2  0
  3  4  2  0
  3  2  1  0
  4  5  1  0
  5  6  2  0
  7  2  1  0
  8  7  1  0
  9  8  1  0
  9  7  1  0
 10 11  1  0
 10  9  1  0
 12 11  2  0
 13 18  2  0
 13 12  1  0
 14 13  1  0
 15 16  1  0
 15 14  2  0
 16 17  2  0
 17 18  1  0
 18 10  1  0
 19 20  2  0
 22 21  1  0
 22 23  2  0
 23 19  1  0
 24 23  1  0
 25 24  2  0
 26 27  2  0
 26 25  1  0
 27 22  1  0
 28 30  1  0
 28 27  1  0
 29 30  2  0
 30 32  1  0
 30 31  1  0
  3 33  1  0
  5 34  1  0
  7 35  1  1
  8 36  1  0
  8 37  1  0
  9 38  1  1
 11 39  1  0
 14 40  1  0
 16 41  1  0
 24 42  1  0
 25 43  1  0
 26 44  1  0
 31 45  1  0
 32 46  1  0
M  ISO  8  33  14  34  14  35  13  36  13  37  13  38  13  39  14  40  14
M  ISO  6  41  14  42  14  43  14  44  14  45   3  46   3
M  END
>  <minimizedAffinity>  (1) 
-6.38378191

>  <minimizedRMSD>  (1) 
0.917163849

$$$$
