
     RDKit          3D

 41 45  0  0  0  0  0  0  0  0999 V2000
   43.6690   34.7310   41.1900 C   0  0  0  0  0  0  0  0  0  0  0  0
   43.6710   33.8380   40.1780 C   0  0  0  0  0  0  0  0  0  0  0  0
   44.9360   33.3240   39.8010 C   0  0  0  0  0  0  0  0  0  0  0  0
   46.0540   33.7370   40.4440 N   0  0  0  0  0  0  0  0  0  0  0  0
   45.9970   34.6320   41.4450 C   0  0  0  0  0  0  0  0  0  0  0  0
   44.8110   35.0820   41.7680 N   0  0  0  0  0  0  0  0  0  0  0  0
   42.7230   33.2900   39.3170 N   0  0  0  0  0  0  0  0  0  0  0  0
   42.1800   34.2070   38.4600 C   0  0  0  0  0  0  0  0  0  0  0  0
   41.2830   33.5870   37.6380 N   0  0  0  0  0  0  0  0  0  0  0  0
   41.2360   32.2830   37.9510 C   0  0  0  0  0  0  0  0  0  0  0  0
   40.6150   31.0810   37.5990 C   0  0  0  0  0  0  0  0  0  0  0  0
   40.8760   29.9280   38.2100 N   0  0  0  0  0  0  0  0  0  0  0  0
   41.7600   29.8420   39.2140 C   0  0  0  0  0  0  0  0  0  0  0  0
   42.4050   30.9810   39.6120 N   0  0  0  0  0  0  0  0  0  0  0  0
   42.1320   32.1430   38.9830 C   0  0  0  0  0  0  0  0  0  0  0  0
   45.0760   32.3560   38.7560 N   0  0  0  0  0  0  0  0  0  0  0  0
   42.0350   35.3520   41.6530 S   0  0  0  0  0  0  0  0  0  0  0  0
   39.7240   34.4540   40.6780 C   0  0  0  0  0  0  0  0  0  0  0  0
   40.8090   34.0730   41.4800 C   0  0  0  0  0  0  0  0  0  0  0  0
   40.8800   32.8080   42.0330 C   0  0  0  0  0  0  0  0  0  0  0  0
   39.8840   31.8880   41.8070 C   0  0  0  0  0  0  0  0  0  0  0  0
   38.8040   32.2520   41.0140 C   0  0  0  0  0  0  0  0  0  0  0  0
   38.7020   33.5140   40.4450 C   0  0  0  0  0  0  0  0  0  0  0  0
   37.9320   31.1410   40.9390 O   0  0  0  0  0  0  0  0  0  0  0  0
   38.3410   30.2520   41.9220 C   0  0  0  0  0  0  0  0  0  0  0  0
   39.6850   30.5770   42.2130 O   0  0  0  0  0  0  0  0  0  0  0  0
   47.0710   35.1150   42.1530 O   0  0  0  0  0  0  0  0  0  0  0  0
   48.3330   35.1080   41.5250 C   0  0  0  0  0  0  0  0  0  0  0  0
   49.0540   33.9850   41.7990 F   0  0  0  0  0  0  0  0  0  0  0  0
   48.0920   35.2630   40.1500 F   0  0  0  0  0  0  0  0  0  0  0  0
   49.0390   36.2110   42.0090 F   0  0  0  0  0  0  0  0  0  0  0  0
   42.4276   35.2785   38.4365 H   0  0  0  0  0  0  0  0  0  0  0  0
   39.8788   31.0886   36.7817 H   0  0  0  0  0  0  0  0  0  0  0  0
   41.9619   28.8791   39.7059 H   0  0  0  0  0  0  0  0  0  0  0  0
   46.0096   32.0010   38.5046 H   0  0  0  0  0  0  0  0  0  0  0  0
   44.2431   32.0144   38.2554 H   0  0  0  0  0  0  0  0  0  0  0  0
   39.6724   35.4624   40.2416 H   0  0  0  0  0  0  0  0  0  0  0  0
   41.7417   32.5351   42.6598 H   0  0  0  0  0  0  0  0  0  0  0  0
   37.8349   33.7760   39.8209 H   0  0  0  0  0  0  0  0  0  0  0  0
   37.7180   30.3650   42.8215 H   0  0  0  0  0  0  0  0  0  0  0  0
   38.2447   29.2094   41.5848 H   0  0  0  0  0  0  0  0  0  0  0  0
  1 17  1  0
  1  6  2  0
  2  1  1  0
  3  2  2  0
  3  4  1  0
  4  5  2  0
  5  6  1  0
  5 27  1  0
  7  2  1  0
  8  7  1  0
  9 10  1  0
  9  8  2  0
 10 15  2  0
 11 10  1  0
 11 12  2  0
 12 13  1  0
 13 14  2  0
 15  7  1  0
 15 14  1  0
 16  3  1  0
 18 19  2  0
 19 17  1  0
 19 20  1  0
 21 20  2  0
 21 26  1  0
 22 21  1  0
 23 18  1  0
 23 22  2  0
 24 22  1  0
 24 25  1  0
 25 26  1  0
 28 29  1  0
 28 31  1  0
 28 27  1  0
 30 28  1  0
  8 32  1  0
 11 33  1  0
 13 34  1  0
 16 35  1  0
 16 36  1  0
 18 37  1  0
 20 38  1  0
 23 39  1  0
 25 40  1  0
 25 41  1  0
M  ISO  8  32  14  33  14  34  14  37  14  38  14  39  14  40  13  41  13
M  END
>  <minimizedAffinity>  (1) 
-5.76052046

>  <minimizedRMSD>  (1) 
0.512950897

$$$$
