
     RDKit          3D

 43 47  0  0  1  0  0  0  0  0999 V2000
   46.1920   32.5440   38.8780 C   0  0  2  0  0  0  0  0  0  0  0  0
   47.1250   31.8180   37.9870 C   0  0  0  0  0  0  0  0  0  0  0  0
   46.1400   32.8640   37.4640 C   0  0  1  0  0  0  0  0  0  0  0  0
   46.5940   34.6210   41.8900 C   0  0  0  0  0  0  0  0  0  0  0  0
   47.8080   35.2180   41.5410 C   0  0  0  0  0  0  0  0  0  0  0  0
   48.5030   34.9750   40.3740 C   0  0  0  0  0  0  0  0  0  0  0  0
   47.9580   34.0720   39.4810 C   0  0  0  0  0  0  0  0  0  0  0  0
   46.7700   33.5010   39.8430 C   0  0  0  0  0  0  0  0  0  0  0  0
   46.1380   33.7650   40.9760 N   0  0  0  0  0  0  0  0  0  0  0  0
   44.5550   36.1710   44.6430 C   0  0  0  0  0  0  0  0  0  0  0  0
   45.1500   36.0470   43.3760 C   0  0  0  0  0  0  0  0  0  0  0  0
   45.9060   34.9160   43.1420 C   0  0  0  0  0  0  0  0  0  0  0  0
   46.0380   33.9980   44.1260 N   0  0  0  0  0  0  0  0  0  0  0  0
   45.4470   34.1550   45.3400 C   0  0  0  0  0  0  0  0  0  0  0  0
   44.7140   35.2420   45.5770 N   0  0  0  0  0  0  0  0  0  0  0  0
   45.1010   32.3720   36.6550 O   0  0  0  0  0  0  0  0  0  0  0  0
   45.6350   30.3650   35.1710 O   0  0  0  0  0  0  0  0  0  0  0  0
   45.6260   31.9000   35.1260 P   0  0  1  0  0  0  0  0  0  0  0  0
   44.5220   32.3430   33.9520 O   0  0  0  0  0  0  0  0  0  0  0  0
   47.2080   32.3370   34.7700 O   0  0  0  0  0  0  0  0  0  0  0  0
   48.3370   33.4120   32.8640 N   0  0  0  0  0  0  0  0  0  0  0  0
   47.7650   32.3820   33.5150 C   0  0  0  0  0  0  0  0  0  0  0  0
   47.8370   31.3200   32.6630 N   0  0  0  0  0  0  0  0  0  0  0  0
   48.4460   31.7300   31.5230 C   0  0  0  0  0  0  0  0  0  0  0  0
   48.7720   31.0790   30.3490 C   0  0  0  0  0  0  0  0  0  0  0  0
   49.3930   31.7280   29.3400 N   0  0  0  0  0  0  0  0  0  0  0  0
   49.7020   33.0410   29.4780 C   0  0  0  0  0  0  0  0  0  0  0  0
   49.3870   33.6960   30.6280 N   0  0  0  0  0  0  0  0  0  0  0  0
   48.7690   33.0630   31.6410 C   0  0  0  0  0  0  0  0  0  0  0  0
   45.4188   32.2474   39.6021 H   0  0  0  0  0  0  0  0  0  0  0  0
   48.2032   32.0340   38.0154 H   0  0  0  0  0  0  0  0  0  0  0  0
   47.3512   30.7641   37.7674 H   0  0  0  0  0  0  0  0  0  0  0  0
   46.1845   33.8103   36.9049 H   0  0  0  0  0  0  0  0  0  0  0  0
   48.2431   35.9368   42.2509 H   0  0  0  0  0  0  0  0  0  0  0  0
   49.4562   35.4816   40.1622 H   0  0  0  0  0  0  0  0  0  0  0  0
   48.4535   33.8260   38.5302 H   0  0  0  0  0  0  0  0  0  0  0  0
   43.9437   37.0581   44.8655 H   0  0  0  0  0  0  0  0  0  0  0  0
   45.0188   36.8187   42.6032 H   0  0  0  0  0  0  0  0  0  0  0  0
   45.5730   33.3904   46.1208 H   0  0  0  0  0  0  0  0  0  0  0  0
   43.6955   32.6746   34.3845 H   0  0  0  0  0  0  0  0  0  0  0  0
   48.4324   34.3587   33.2583 H   0  0  0  0  0  0  0  0  0  0  0  0
   48.5217   30.0141   30.2338 H   0  0  0  0  0  0  0  0  0  0  0  0
   50.2071   33.5763   28.6605 H   0  0  0  0  0  0  0  0  0  0  0  0
  1  8  1  0
  2  1  1  0
  3  2  1  0
  3  1  1  0
  4 12  1  0
  5  4  2  0
  6  5  1  0
  7  8  1  0
  7  6  2  0
  8  9  2  0
  9  4  1  0
 10 15  2  0
 11 10  1  0
 12 11  2  0
 12 13  1  0
 13 14  2  0
 14 15  1  0
 16  3  1  0
 18 17  2  0
 18 16  1  1
 19 18  1  0
 20 18  1  0
 21 22  1  0
 22 20  1  0
 23 22  2  0
 24 29  2  0
 24 23  1  0
 25 24  1  0
 26 27  1  0
 26 25  2  0
 27 28  2  0
 28 29  1  0
 29 21  1  0
  1 30  1  1
  2 31  1  0
  2 32  1  0
  3 33  1  1
  5 34  1  0
  6 35  1  0
  7 36  1  0
 10 37  1  0
 11 38  1  0
 14 39  1  0
 19 40  1  0
 21 41  1  0
 25 42  1  0
 27 43  1  0
M  END
>  <minimizedAffinity>  (1) 
-7.52779293

>  <minimizedRMSD>  (1) 
2.29147768

$$$$
