
     RDKit          3D

 37 40  0  0  1  0  0  0  0  0999 V2000
   45.9070   34.0100   42.9410 C   0  0  2  0  0  0  0  0  0  0  0  0
   45.4480   35.2910   42.3600 C   0  0  0  0  0  0  0  0  0  0  0  0
   45.3810   36.4120   43.3500 C   0  0  0  0  0  0  0  0  0  0  0  0
   44.5760   36.0720   44.5920 C   0  0  0  0  0  0  0  0  0  0  0  0
   44.7410   34.6500   45.0560 C   0  0  0  0  0  0  0  0  0  0  0  0
   45.9770   34.0240   44.4620 C   0  0  1  0  0  0  0  0  0  0  0  0
   46.1580   32.6870   44.9350 N   0  0  0  0  0  0  0  0  0  0  0  0
   45.8210   31.5650   44.2640 C   0  0  0  0  0  0  0  0  0  0  0  0
   46.1180   30.4590   44.9770 N   0  0  0  0  0  0  0  0  0  0  0  0
   46.6620   30.8470   46.1410 C   0  0  0  0  0  0  0  0  0  0  0  0
   47.1480   30.1770   47.2420 C   0  0  0  0  0  0  0  0  0  0  0  0
   47.6520   30.8530   48.3030 N   0  0  0  0  0  0  0  0  0  0  0  0
   47.6430   32.2090   48.2030 C   0  0  0  0  0  0  0  0  0  0  0  0
   47.1740   32.8980   47.1400 N   0  0  0  0  0  0  0  0  0  0  0  0
   46.6730   32.2310   46.0850 C   0  0  0  0  0  0  0  0  0  0  0  0
   47.2360   33.6100   42.4420 C   0  0  0  0  0  0  0  0  0  0  0  0
   48.3330   34.3100   42.9800 C   0  0  0  0  0  0  0  0  0  0  0  0
   49.6330   34.0010   42.5750 C   0  0  0  0  0  0  0  0  0  0  0  0
   49.7590   32.9950   41.6430 N   0  0  0  0  0  0  0  0  0  0  0  0
   48.6830   32.3360   41.1410 C   0  0  0  0  0  0  0  0  0  0  0  0
   47.4290   32.6440   41.5420 N   0  0  0  0  0  0  0  0  0  0  0  0
   45.1435   33.2862   42.6198 H   0  0  0  0  0  0  0  0  0  0  0  0
   46.1440   35.5775   41.5578 H   0  0  0  0  0  0  0  0  0  0  0  0
   44.4250   35.1276   41.9902 H   0  0  0  0  0  0  0  0  0  0  0  0
   46.4058   36.6673   43.6577 H   0  0  0  0  0  0  0  0  0  0  0  0
   44.8741   37.2532   42.8545 H   0  0  0  0  0  0  0  0  0  0  0  0
   44.8949   36.7407   45.4051 H   0  0  0  0  0  0  0  0  0  0  0  0
   43.5155   36.2011   44.3300 H   0  0  0  0  0  0  0  0  0  0  0  0
   44.8239   34.6376   46.1528 H   0  0  0  0  0  0  0  0  0  0  0  0
   43.8648   34.0719   44.7273 H   0  0  0  0  0  0  0  0  0  0  0  0
   46.8335   34.6369   44.7794 H   0  0  0  0  0  0  0  0  0  0  0  0
   45.3629   31.5541   43.2640 H   0  0  0  0  0  0  0  0  0  0  0  0
   47.1267   29.0774   47.2603 H   0  0  0  0  0  0  0  0  0  0  0  0
   48.0464   32.7861   49.0481 H   0  0  0  0  0  0  0  0  0  0  0  0
   48.1650   35.1038   43.7227 H   0  0  0  0  0  0  0  0  0  0  0  0
   50.5081   34.5317   42.9781 H   0  0  0  0  0  0  0  0  0  0  0  0
   48.8338   31.5398   40.3971 H   0  0  0  0  0  0  0  0  0  0  0  0
  1  6  1  0
  2  1  1  0
  2  3  1  0
  3  4  1  0
  4  5  1  0
  6  7  1  0
  6  5  1  0
  7 15  1  0
  8  7  1  0
  8  9  2  0
  9 10  1  0
 10 11  2  0
 11 12  1  0
 13 12  2  0
 14 13  1  0
 15 10  1  0
 15 14  2  0
 16  1  1  0
 16 17  2  0
 18 17  1  0
 19 18  2  0
 20 21  2  0
 20 19  1  0
 21 16  1  0
  1 22  1  1
  2 23  1  0
  2 24  1  0
  3 25  1  0
  3 26  1  0
  4 27  1  0
  4 28  1  0
  5 29  1  0
  5 30  1  0
  6 31  1  6
  8 32  1  0
 11 33  1  0
 13 34  1  0
 17 35  1  0
 18 36  1  0
 20 37  1  0
M  ISO  8  22  13  23  13  24  13  25  13  26  13  27  13  28  13  29  13
M  ISO  8  30  13  31  13  32  14  33  14  34  14  35  14  36  14  37  14
M  END
>  <minimizedAffinity>  (1) 
-5.16829157

>  <minimizedRMSD>  (1) 
2.32974839

$$$$
