
     RDKit          3D

 47 50  0  0  0  0  0  0  0  0999 V2000
   44.6190   35.7650   44.9390 C   0  0  0  0  0  0  0  0  0  0  0  0
   44.1680   36.0630   43.6290 C   0  0  0  0  0  0  0  0  0  0  0  0
   44.3300   35.0740   42.6730 C   0  0  0  0  0  0  0  0  0  0  0  0
   44.8930   33.9010   43.0190 N   0  0  0  0  0  0  0  0  0  0  0  0
   45.3040   33.6760   44.2870 C   0  0  0  0  0  0  0  0  0  0  0  0
   45.1770   34.5750   45.2340 N   0  0  0  0  0  0  0  0  0  0  0  0
   45.9130   32.3620   44.5820 C   0  0  0  0  0  0  0  0  0  0  0  0
   46.7250   32.4740   45.8400 C   0  0  0  0  0  0  0  0  0  0  0  0
   46.1420   31.7540   46.9480 C   0  0  0  0  0  0  0  0  0  0  0  0
   45.4010   32.2440   47.9860 C   0  0  0  0  0  0  0  0  0  0  0  0
   44.8890   31.4850   48.9910 C   0  0  0  0  0  0  0  0  0  0  0  0
   45.1350   30.1260   48.9570 C   0  0  0  0  0  0  0  0  0  0  0  0
   45.8790   29.6180   47.9190 C   0  0  0  0  0  0  0  0  0  0  0  0
   46.3840   30.4190   46.9150 C   0  0  0  0  0  0  0  0  0  0  0  0
   48.4830   29.3380   46.3650 C   0  0  0  0  0  0  0  0  0  0  0  0
   49.3080   29.6480   47.2920 O   0  0  0  0  0  0  0  0  0  0  0  0
   47.1050   29.5710   46.0060 N   0  0  0  0  0  0  0  0  0  0  0  0
   43.8530   35.4020   41.3140 C   0  0  0  0  0  0  0  0  0  0  0  0
   42.3370   35.3170   41.2100 C   0  0  0  0  0  0  0  0  0  0  0  0
   41.9180   34.4980   40.1120 N   0  0  0  0  0  0  0  0  0  0  0  0
   42.7570   33.9850   39.1690 C   0  0  0  0  0  0  0  0  0  0  0  0
   42.0440   33.2540   38.2700 N   0  0  0  0  0  0  0  0  0  0  0  0
   40.7360   33.3050   38.6500 C   0  0  0  0  0  0  0  0  0  0  0  0
   39.5650   32.7730   38.1450 C   0  0  0  0  0  0  0  0  0  0  0  0
   38.4050   33.0130   38.7660 N   0  0  0  0  0  0  0  0  0  0  0  0
   38.3460   33.7690   39.8820 C   0  0  0  0  0  0  0  0  0  0  0  0
   39.5030   34.2900   40.3720 N   0  0  0  0  0  0  0  0  0  0  0  0
   40.6840   34.0740   39.7830 C   0  0  0  0  0  0  0  0  0  0  0  0
   44.5112   36.5208   45.7310 H   0  0  0  0  0  0  0  0  0  0  0  0
   43.7113   37.0331   43.3833 H   0  0  0  0  0  0  0  0  0  0  0  0
   45.1215   31.6105   44.7190 H   0  0  0  0  0  0  0  0  0  0  0  0
   46.5598   32.0550   43.7469 H   0  0  0  0  0  0  0  0  0  0  0  0
   47.7295   32.0692   45.6472 H   0  0  0  0  0  0  0  0  0  0  0  0
   46.7604   33.5377   46.1179 H   0  0  0  0  0  0  0  0  0  0  0  0
   45.2054   33.3262   48.0102 H   0  0  0  0  0  0  0  0  0  0  0  0
   44.2997   31.9369   49.8025 H   0  0  0  0  0  0  0  0  0  0  0  0
   44.7437   29.4645   49.7440 H   0  0  0  0  0  0  0  0  0  0  0  0
   46.0786   28.5367   47.8874 H   0  0  0  0  0  0  0  0  0  0  0  0
   48.9723   28.7006   45.6138 H   0  0  0  0  0  0  0  0  0  0  0  0
   46.6726   29.1622   45.1653 H   0  0  0  0  0  0  0  0  0  0  0  0
   44.1701   36.4249   41.0628 H   0  0  0  0  0  0  0  0  0  0  0  0
   44.2847   34.6707   40.6149 H   0  0  0  0  0  0  0  0  0  0  0  0
   41.9407   34.8896   42.1429 H   0  0  0  0  0  0  0  0  0  0  0  0
   41.9512   36.3333   41.0415 H   0  0  0  0  0  0  0  0  0  0  0  0
   43.8458   34.1386   39.1391 H   0  0  0  0  0  0  0  0  0  0  0  0
   39.5867   32.1544   37.2357 H   0  0  0  0  0  0  0  0  0  0  0  0
   37.3856   33.9594   40.3834 H   0  0  0  0  0  0  0  0  0  0  0  0
  1  6  2  0
  2  1  1  0
  3  4  1  0
  3  2  2  0
  4  5  2  0
  5  7  1  0
  5  6  1  0
  7  8  1  0
  8  9  1  0
  9 10  2  0
 10 11  1  0
 12 11  2  0
 13 12  1  0
 14  9  1  0
 14 13  2  0
 15 16  2  0
 17 15  1  0
 17 14  1  0
 18  3  1  0
 19 18  1  0
 20 19  1  0
 21 20  1  0
 22 23  1  0
 22 21  2  0
 23 28  2  0
 24 23  1  0
 24 25  2  0
 25 26  1  0
 26 27  2  0
 28 20  1  0
 28 27  1  0
  1 29  1  0
  2 30  1  0
  7 31  1  0
  7 32  1  0
  8 33  1  0
  8 34  1  0
 10 35  1  0
 11 36  1  0
 12 37  1  0
 13 38  1  0
 15 39  1  0
 17 40  1  0
 18 41  1  0
 18 42  1  0
 19 43  1  0
 19 44  1  0
 21 45  1  0
 24 46  1  0
 26 47  1  0
M  ISO  8  29  14  30  14  31   8  32   8  33   8  34   8  35  14  36  14
M  ISO  8  37  14  38  14  39   6  41   8  42   8  43   8  44   8  45  14
M  ISO  2  46  14  47  14
M  END
>  <minimizedAffinity>  (1) 
-6.03725958

>  <minimizedRMSD>  (1) 
2.4291575

$$$$
