
     RDKit          3D

 44 48  0  0  0  0  0  0  0  0999 V2000
   49.3970   33.2030   40.9860 C   0  0  0  0  0  0  0  0  0  0  0  0
   48.5790   34.1120   40.3830 C   0  0  0  0  0  0  0  0  0  0  0  0
   48.4770   35.3920   40.8980 C   0  0  0  0  0  0  0  0  0  0  0  0
   49.1960   35.7510   42.0120 C   0  0  0  0  0  0  0  0  0  0  0  0
   50.0440   34.8500   42.6550 C   0  0  0  0  0  0  0  0  0  0  0  0
   50.1330   33.5620   42.1190 C   0  0  0  0  0  0  0  0  0  0  0  0
   44.0720   32.7160   38.2830 Cl  0  0  0  0  0  0  0  0  0  0  0  0
   45.7460   33.2130   38.2160 C   0  0  0  0  0  0  0  0  0  0  0  0
   46.4500   33.4660   39.3480 C   0  0  0  0  0  0  0  0  0  0  0  0
   47.7730   33.8380   39.1900 C   0  0  0  0  0  0  0  0  0  0  0  0
   48.3540   33.9500   37.9510 C   0  0  0  0  0  0  0  0  0  0  0  0
   47.6350   33.6920   36.8320 C   0  0  0  0  0  0  0  0  0  0  0  0
   46.3170   33.3210   36.9720 C   0  0  0  0  0  0  0  0  0  0  0  0
   44.5610   34.2330   42.5230 C   0  0  0  0  0  0  0  0  0  0  0  0
   45.1890   34.3800   41.2830 C   0  0  0  0  0  0  0  0  0  0  0  0
   45.7950   33.3250   40.6350 C   0  0  0  0  0  0  0  0  0  0  0  0
   45.7300   32.1400   41.3000 N   0  0  0  0  0  0  0  0  0  0  0  0
   45.1330   31.9890   42.4830 C   0  0  0  0  0  0  0  0  0  0  0  0
   44.5540   33.0320   43.0860 N   0  0  0  0  0  0  0  0  0  0  0  0
   49.5780   31.6520   40.3640 S   0  0  0  0  0  0  0  0  0  0  0  0
   50.6070   30.8380   41.1140 O   0  0  0  0  0  0  0  0  0  0  0  0
   48.2290   30.9370   40.7510 O   0  0  0  0  0  0  0  0  0  0  0  0
   48.7370   30.5200   38.1120 N   0  0  0  0  0  0  0  0  0  0  0  0
   49.7360   31.2740   38.6980 C   0  0  0  0  0  0  0  0  0  0  0  0
   50.5290   31.4070   37.6200 N   0  0  0  0  0  0  0  0  0  0  0  0
   50.0840   30.8220   36.5310 C   0  0  0  0  0  0  0  0  0  0  0  0
   50.7010   30.8000   35.2820 C   0  0  0  0  0  0  0  0  0  0  0  0
   50.0570   30.1300   34.2900 N   0  0  0  0  0  0  0  0  0  0  0  0
   48.8810   29.5330   34.5640 C   0  0  0  0  0  0  0  0  0  0  0  0
   48.3030   29.5730   35.8020 N   0  0  0  0  0  0  0  0  0  0  0  0
   48.8910   30.2190   36.8170 C   0  0  0  0  0  0  0  0  0  0  0  0
   47.8167   36.1260   40.4129 H   0  0  0  0  0  0  0  0  0  0  0  0
   49.1006   36.7735   42.4062 H   0  0  0  0  0  0  0  0  0  0  0  0
   50.6189   35.1406   43.5467 H   0  0  0  0  0  0  0  0  0  0  0  0
   50.7913   32.8206   42.5954 H   0  0  0  0  0  0  0  0  0  0  0  0
   49.4087   34.2508   37.8664 H   0  0  0  0  0  0  0  0  0  0  0  0
   48.0935   33.7770   35.8357 H   0  0  0  0  0  0  0  0  0  0  0  0
   45.7141   33.1085   36.0768 H   0  0  0  0  0  0  0  0  0  0  0  0
   44.0847   35.0914   43.0193 H   0  0  0  0  0  0  0  0  0  0  0  0
   45.2000   35.3720   40.8077 H   0  0  0  0  0  0  0  0  0  0  0  0
   45.1170   31.0005   42.9653 H   0  0  0  0  0  0  0  0  0  0  0  0
   47.9143   30.2051   38.6457 H   0  0  0  0  0  0  0  0  0  0  0  0
   51.6643   31.3014   35.1068 H   0  0  0  0  0  0  0  0  0  0  0  0
   48.3645   28.9909   33.7582 H   0  0  0  0  0  0  0  0  0  0  0  0
  1  6  2  0
  2  3  2  0
  2  1  1  0
  3  4  1  0
  4  5  2  0
  6  5  1  0
  8  7  1  0
  8  9  2  0
  9 16  1  0
 10  9  1  0
 10  2  1  0
 11 10  2  0
 12 13  2  0
 12 11  1  0
 13  8  1  0
 14 19  2  0
 15 14  1  0
 16 15  2  0
 16 17  1  0
 17 18  2  0
 18 19  1  0
 20 22  2  0
 20  1  1  0
 20 21  2  0
 23 24  1  0
 24 20  1  0
 25 24  2  0
 26 31  2  0
 26 25  1  0
 27 26  1  0
 28 29  1  0
 28 27  2  0
 29 30  2  0
 30 31  1  0
 31 23  1  0
  3 32  1  0
  4 33  1  0
  5 34  1  0
  6 35  1  0
 11 36  1  0
 12 37  1  0
 13 38  1  0
 14 39  1  0
 15 40  1  0
 18 41  1  0
 23 42  1  0
 27 43  1  0
 29 44  1  0
M  ISO  8  32  14  33  14  34  14  35  14  36  14  37  14  38  14  39  14
M  ISO  5  40  14  41  14  42   9  43  14  44  14
M  END
>  <minimizedAffinity>  (1) 
-5.77057934

>  <minimizedRMSD>  (1) 
5.87893152

$$$$
