
     RDKit          3D

 22 24  0  0  0  0  0  0  0  0999 V2000
   43.6650   35.2430   40.1250 N   0  0  0  0  0  0  0  0  0  0  0  0
   44.3450   34.1280   40.4530 C   0  0  0  0  0  0  0  0  0  0  0  0
   43.6410   33.0660   40.0180 N   0  0  0  0  0  0  0  0  0  0  0  0
   42.5260   33.5120   39.4230 C   0  0  0  0  0  0  0  0  0  0  0  0
   41.5190   32.7800   38.8360 C   0  0  0  0  0  0  0  0  0  0  0  0
   40.4870   33.4690   38.2950 N   0  0  0  0  0  0  0  0  0  0  0  0
   40.4860   34.8310   38.3540 C   0  0  0  0  0  0  0  0  0  0  0  0
   41.4770   35.5360   38.9310 N   0  0  0  0  0  0  0  0  0  0  0  0
   42.5230   34.8940   39.4810 C   0  0  0  0  0  0  0  0  0  0  0  0
   45.9090   34.3580   41.3250 S   0  0  0  0  0  0  0  0  0  0  0  0
   44.4870   35.9990   44.7530 C   0  0  0  0  0  0  0  0  0  0  0  0
   44.8070   35.8420   43.3800 C   0  0  0  0  0  0  0  0  0  0  0  0
   45.4680   34.6410   43.0300 C   0  0  0  0  0  0  0  0  0  0  0  0
   45.7390   33.7500   44.0050 N   0  0  0  0  0  0  0  0  0  0  0  0
   45.4190   33.9360   45.2930 C   0  0  0  0  0  0  0  0  0  0  0  0
   44.7930   35.0630   45.6590 N   0  0  0  0  0  0  0  0  0  0  0  0
   43.9641   36.2070   40.3303 H   0  0  0  0  0  0  0  0  0  0  0  0
   41.5515   31.6808   38.8077 H   0  0  0  0  0  0  0  0  0  0  0  0
   39.6397   35.3769   37.9115 H   0  0  0  0  0  0  0  0  0  0  0  0
   43.9736   36.9146   45.0817 H   0  0  0  0  0  0  0  0  0  0  0  0
   44.5562   36.6084   42.6319 H   0  0  0  0  0  0  0  0  0  0  0  0
   45.6679   33.1707   46.0429 H   0  0  0  0  0  0  0  0  0  0  0  0
  1  2  1  0
  2 10  1  0
  3  2  2  0
  4  9  2  0
  4  3  1  0
  5  4  1  0
  6  7  1  0
  6  5  2  0
  7  8  2  0
  8  9  1  0
  9  1  1  0
 10 13  1  0
 11 16  2  0
 12 11  1  0
 13 12  2  0
 13 14  1  0
 14 15  2  0
 15 16  1  0
  1 17  1  0
  5 18  1  0
  7 19  1  0
 11 20  1  0
 12 21  1  0
 15 22  1  0
M  ISO  6  17   9  18  14  19  14  20  14  21  14  22  14
M  END
>  <minimizedAffinity>  (1) 
-4.76537275

>  <minimizedRMSD>  (1) 
2.27123713

$$$$
