
     RDKit          3D

 40 43  0  0  0  0  0  0  0  0999 V2000
   48.5260   33.5760   40.8040 C   0  0  0  0  0  0  0  0  0  0  0  0
   48.7360   32.4300   40.0620 C   0  0  0  0  0  0  0  0  0  0  0  0
   49.8490   31.6150   40.2340 C   0  0  0  0  0  0  0  0  0  0  0  0
   50.7390   32.0320   41.2060 N   0  0  0  0  0  0  0  0  0  0  0  0
   50.5080   33.1520   41.9140 C   0  0  0  0  0  0  0  0  0  0  0  0
   49.4250   33.9000   41.7120 N   0  0  0  0  0  0  0  0  0  0  0  0
   47.3000   34.3310   40.5060 C   0  0  0  0  0  0  0  0  0  0  0  0
   46.5660   34.7590   41.7530 C   0  0  0  0  0  0  0  0  0  0  0  0
   45.0940   34.8240   41.5950 C   0  0  0  0  0  0  0  0  0  0  0  0
   44.3110   35.4850   42.5810 C   0  0  0  0  0  0  0  0  0  0  0  0
   42.5990   35.3020   41.9510 S   0  0  0  0  0  0  0  0  0  0  0  0
   43.2440   34.3430   40.4320 C   0  0  0  0  0  0  0  0  0  0  0  0
   44.3670   34.3350   40.6250 N   0  0  0  0  0  0  0  0  0  0  0  0
   42.4040   33.8560   39.4440 O   0  0  0  0  0  0  0  0  0  0  0  0
   40.4850   34.2670   37.6620 O   0  0  0  0  0  0  0  0  0  0  0  0
   41.5360   34.9660   38.5060 P   0  0  0  0  0  0  0  0  0  0  0  0
   40.7650   36.0430   39.5640 O   0  0  0  0  0  0  0  0  0  0  0  0
   42.6210   35.8530   37.5360 O   0  0  0  0  0  0  0  0  0  0  0  0
   47.5440   31.9420   38.7790 S   0  0  0  0  0  0  0  0  0  0  0  0
   49.4100   31.0550   36.8180 N   0  0  0  0  0  0  0  0  0  0  0  0
   48.3830   31.8330   37.2060 C   0  0  0  0  0  0  0  0  0  0  0  0
   47.9960   32.6160   36.1860 N   0  0  0  0  0  0  0  0  0  0  0  0
   48.7630   32.3670   35.1080 C   0  0  0  0  0  0  0  0  0  0  0  0
   48.8230   32.8540   33.8150 C   0  0  0  0  0  0  0  0  0  0  0  0
   49.7490   32.3730   32.9430 N   0  0  0  0  0  0  0  0  0  0  0  0
   50.5920   31.4110   33.3930 C   0  0  0  0  0  0  0  0  0  0  0  0
   50.5710   30.9000   34.6550 N   0  0  0  0  0  0  0  0  0  0  0  0
   49.6440   31.3830   35.5280 C   0  0  0  0  0  0  0  0  0  0  0  0
   50.0099   30.7037   39.6393 H   0  0  0  0  0  0  0  0  0  0  0  0
   51.2340   33.4587   42.6814 H   0  0  0  0  0  0  0  0  0  0  0  0
   47.5699   35.2286   39.9302 H   0  0  0  0  0  0  0  0  0  0  0  0
   46.6312   33.6697   39.9355 H   0  0  0  0  0  0  0  0  0  0  0  0
   46.7963   34.0405   42.5535 H   0  0  0  0  0  0  0  0  0  0  0  0
   46.9057   35.7786   41.9875 H   0  0  0  0  0  0  0  0  0  0  0  0
   44.6505   35.9853   43.4999 H   0  0  0  0  0  0  0  0  0  0  0  0
   40.9540   35.7790   40.4992 H   0  0  0  0  0  0  0  0  0  0  0  0
   43.2423   36.3610   38.1157 H   0  0  0  0  0  0  0  0  0  0  0  0
   49.9120   30.3566   37.3847 H   0  0  0  0  0  0  0  0  0  0  0  0
   48.1185   33.6340   33.4905 H   0  0  0  0  0  0  0  0  0  0  0  0
   51.3427   31.0172   32.6920 H   0  0  0  0  0  0  0  0  0  0  0  0
  1  6  2  0
  2  3  2  0
  2  1  1  0
  3  4  1  0
  4  5  2  0
  6  5  1  0
  7  1  1  0
  7  8  1  0
  9  8  1  0
  9 10  2  0
 11 10  1  0
 12 13  2  0
 12 11  1  0
 13  9  1  0
 14 12  1  0
 15 16  2  0
 16 14  1  0
 16 17  1  0
 18 16  1  0
 19  2  1  0
 20 21  1  0
 21 19  1  0
 22 21  2  0
 23 28  2  0
 23 22  1  0
 24 23  1  0
 25 26  1  0
 25 24  2  0
 26 27  2  0
 27 28  1  0
 28 20  1  0
  3 29  1  0
  5 30  1  0
  7 31  1  0
  7 32  1  0
  8 33  1  0
  8 34  1  0
 10 35  1  0
 17 36  1  0
 18 37  1  0
 20 38  1  0
 24 39  1  0
 26 40  1  0
M  ISO  8  29  14  30  14  31   8  32   8  33   8  34   8  35  14  36   3
M  ISO  4  37   3  38   9  39  14  40  14
M  END
>  <minimizedAffinity>  (1) 
-5.42089796

>  <minimizedRMSD>  (1) 
3.00738716

$$$$
