
     RDKit          3D

 46 50  0  0  1  0  0  0  0  0999 V2000
   44.5630   35.5670   44.6330 C   0  0  0  0  0  0  0  0  0  0  0  0
   45.2300   35.6080   43.3890 C   0  0  0  0  0  0  0  0  0  0  0  0
   46.3310   34.7130   43.2130 C   0  0  0  0  0  0  0  0  0  0  0  0
   46.6840   33.8810   44.2180 N   0  0  0  0  0  0  0  0  0  0  0  0
   46.0090   33.8840   45.3920 C   0  0  0  0  0  0  0  0  0  0  0  0
   44.9490   34.7240   45.6050 N   0  0  0  0  0  0  0  0  0  0  0  0
   47.0410   34.7290   41.9310 C   0  0  0  0  0  0  0  0  0  0  0  0
   48.2160   35.4050   41.8580 C   0  0  0  0  0  0  0  0  0  0  0  0
   48.8550   35.3960   40.6180 C   0  0  0  0  0  0  0  0  0  0  0  0
   48.2400   34.7090   39.5950 C   0  0  0  0  0  0  0  0  0  0  0  0
   47.0580   34.0300   39.6750 C   0  0  0  0  0  0  0  0  0  0  0  0
   46.4610   34.0640   40.9130 N   0  0  0  0  0  0  0  0  0  0  0  0
   46.4680   33.3350   38.5810 N   0  0  0  0  0  0  0  0  0  0  0  0
   45.2070   32.8570   38.5430 C   0  0  0  0  0  0  0  0  0  0  0  0
   44.9680   32.2610   37.3800 N   0  0  0  0  0  0  0  0  0  0  0  0
   46.0700   32.3250   36.6080 C   0  0  0  0  0  0  0  0  0  0  0  0
   46.4590   31.9110   35.3380 C   0  0  0  0  0  0  0  0  0  0  0  0
   47.7060   32.1720   34.8960 N   0  0  0  0  0  0  0  0  0  0  0  0
   48.5830   32.8270   35.6580 C   0  0  0  0  0  0  0  0  0  0  0  0
   48.2340   33.2440   36.9010 N   0  0  0  0  0  0  0  0  0  0  0  0
   46.9970   33.0100   37.3990 C   0  0  0  0  0  0  0  0  0  0  0  0
   46.4430   32.9530   46.4650 C   0  0  2  0  0  0  0  0  0  0  0  0
   46.9610   31.7270   45.7660 C   0  0  0  0  0  0  0  0  0  0  0  0
   46.0840   30.5440   45.7780 C   0  0  0  0  0  0  0  0  0  0  0  0
   45.7860   30.2740   47.2470 C   0  0  0  0  0  0  0  0  0  0  0  0
   45.0050   31.3430   47.8670 C   0  0  0  0  0  0  0  0  0  0  0  0
   45.3870   32.7190   47.4250 C   0  0  0  0  0  0  0  0  0  0  0  0
   44.7010   33.8490   47.9540 N   0  0  0  0  0  0  0  0  0  0  0  0
   43.7102   36.2389   44.8096 H   0  0  0  0  0  0  0  0  0  0  0  0
   44.9166   36.2975   42.5913 H   0  0  0  0  0  0  0  0  0  0  0  0
   48.6399   35.9298   42.7268 H   0  0  0  0  0  0  0  0  0  0  0  0
   49.8116   35.9167   40.4635 H   0  0  0  0  0  0  0  0  0  0  0  0
   48.7497   34.7071   38.6202 H   0  0  0  0  0  0  0  0  0  0  0  0
   44.4778   32.9481   39.3615 H   0  0  0  0  0  0  0  0  0  0  0  0
   45.7493   31.3707   34.6943 H   0  0  0  0  0  0  0  0  0  0  0  0
   49.5946   33.0302   35.2767 H   0  0  0  0  0  0  0  0  0  0  0  0
   47.2487   33.3697   47.0873 H   0  0  0  0  0  0  0  0  0  0  0  0
   47.9098   31.4446   46.2457 H   0  0  0  0  0  0  0  0  0  0  0  0
   47.0513   32.0117   44.7073 H   0  0  0  0  0  0  0  0  0  0  0  0
   45.1536   30.7495   45.2283 H   0  0  0  0  0  0  0  0  0  0  0  0
   46.5587   29.6789   45.2919 H   0  0  0  0  0  0  0  0  0  0  0  0
   45.2205   29.3337   47.3249 H   0  0  0  0  0  0  0  0  0  0  0  0
   46.7481   30.2134   47.7769 H   0  0  0  0  0  0  0  0  0  0  0  0
   44.2044   31.1512   48.5966 H   0  0  0  0  0  0  0  0  0  0  0  0
   43.9438   33.7172   48.6397 H   0  0  0  0  0  0  0  0  0  0  0  0
   44.9620   34.7982   47.6510 H   0  0  0  0  0  0  0  0  0  0  0  0
  1  6  2  0
  2  1  1  0
  3  2  2  0
  3  4  1  0
  4  5  2  0
  5  6  1  0
  5 22  1  0
  7  3  1  0
  8  7  2  0
  9  8  1  0
 10 11  1  0
 10  9  2  0
 11 12  2  0
 12  7  1  0
 13 11  1  0
 14 13  1  0
 15 14  2  0
 16 15  1  0
 16 21  2  0
 17 16  1  0
 18 17  2  0
 18 19  1  0
 19 20  2  0
 20 21  1  0
 21 13  1  0
 22 27  1  0
 23 24  1  0
 23 22  1  0
 24 25  1  0
 25 26  1  0
 27 26  2  0
 27 28  1  0
  1 29  1  0
  2 30  1  0
  8 31  1  0
  9 32  1  0
 10 33  1  0
 14 34  1  0
 17 35  1  0
 19 36  1  0
 22 37  1  1
 23 38  1  0
 23 39  1  0
 24 40  1  0
 24 41  1  0
 25 42  1  0
 25 43  1  0
 26 44  1  0
 28 45  1  0
 28 46  1  0
M  ISO  8  29  14  30  14  31  14  32  14  33  14  34  14  35  14  36  14
M  ISO  8  37  13  38  13  39  13  40  13  41  13  42  13  43  13  44  13
M  END
>  <minimizedAffinity>  (1) 
-8.39140892

>  <minimizedRMSD>  (1) 
0.239441529

$$$$
