
     RDKit          3D

 40 44  0  0  0  0  0  0  0  0999 V2000
   45.9680   32.7430   46.5370 C   0  0  0  0  0  0  0  0  0  0  0  0
   45.4640   32.9040   47.8510 C   0  0  0  0  0  0  0  0  0  0  0  0
   45.7090   32.0220   48.8760 C   0  0  0  0  0  0  0  0  0  0  0  0
   46.4680   30.9250   48.6650 C   0  0  0  0  0  0  0  0  0  0  0  0
   46.9900   30.7120   47.3940 C   0  0  0  0  0  0  0  0  0  0  0  0
   47.7460   29.5910   47.2290 C   0  0  0  0  0  0  0  0  0  0  0  0
   48.2880   29.3160   45.9890 C   0  0  0  0  0  0  0  0  0  0  0  0
   48.0150   30.2260   44.9720 C   0  0  0  0  0  0  0  0  0  0  0  0
   47.2560   31.3100   45.2250 C   0  0  0  0  0  0  0  0  0  0  0  0
   46.7200   31.6170   46.3960 C   0  0  0  0  0  0  0  0  0  0  0  0
   44.4530   35.6940   45.1460 C   0  0  0  0  0  0  0  0  0  0  0  0
   45.0960   35.7930   43.8690 C   0  0  0  0  0  0  0  0  0  0  0  0
   46.0580   34.8170   43.4720 C   0  0  0  0  0  0  0  0  0  0  0  0
   46.3120   33.8360   44.3410 N   0  0  0  0  0  0  0  0  0  0  0  0
   45.7350   33.7330   45.5100 C   0  0  0  0  0  0  0  0  0  0  0  0
   44.8080   34.6630   45.9050 N   0  0  0  0  0  0  0  0  0  0  0  0
   44.7060   36.9050   43.0630 N   0  0  0  0  0  0  0  0  0  0  0  0
   47.1550   31.9950   44.0530 O   0  0  0  0  0  0  0  0  0  0  0  0
   47.5360   31.9050   41.7320 N   0  0  0  0  0  0  0  0  0  0  0  0
   48.0530   31.9130   42.9710 C   0  0  0  0  0  0  0  0  0  0  0  0
   49.3470   31.8290   42.7470 N   0  0  0  0  0  0  0  0  0  0  0  0
   49.6980   31.7700   41.4860 C   0  0  0  0  0  0  0  0  0  0  0  0
   50.9650   31.6780   40.9420 C   0  0  0  0  0  0  0  0  0  0  0  0
   51.0540   31.6300   39.5870 N   0  0  0  0  0  0  0  0  0  0  0  0
   49.8770   31.6790   38.8970 C   0  0  0  0  0  0  0  0  0  0  0  0
   48.6690   31.7690   39.4680 N   0  0  0  0  0  0  0  0  0  0  0  0
   48.5050   31.8200   40.8060 C   0  0  0  0  0  0  0  0  0  0  0  0
   44.8409   33.7854   48.0631 H   0  0  0  0  0  0  0  0  0  0  0  0
   45.2848   32.2104   49.8733 H   0  0  0  0  0  0  0  0  0  0  0  0
   46.6689   30.2153   49.4811 H   0  0  0  0  0  0  0  0  0  0  0  0
   47.9231   28.9112   48.0755 H   0  0  0  0  0  0  0  0  0  0  0  0
   48.9048   28.4222   45.8138 H   0  0  0  0  0  0  0  0  0  0  0  0
   48.4187   30.0603   43.9622 H   0  0  0  0  0  0  0  0  0  0  0  0
   43.7071   36.4306   45.4792 H   0  0  0  0  0  0  0  0  0  0  0  0
   46.5655   34.8703   42.4975 H   0  0  0  0  0  0  0  0  0  0  0  0
   45.1271   37.0396   42.1327 H   0  0  0  0  0  0  0  0  0  0  0  0
   44.0036   37.5727   43.4118 H   0  0  0  0  0  0  0  0  0  0  0  0
   46.5295   31.9571   41.5197 H   0  0  0  0  0  0  0  0  0  0  0  0
   51.8620   31.6451   41.5779 H   0  0  0  0  0  0  0  0  0  0  0  0
   49.9240   31.6421   37.7986 H   0  0  0  0  0  0  0  0  0  0  0  0
  1  2  2  0
  2  3  1  0
  4  3  2  0
  5  4  1  0
  6  5  2  0
  7  6  1  0
  8  9  1  0
  8  7  2  0
  9 10  2  0
 10  1  1  0
 10  5  1  0
 11 16  2  0
 12 11  1  0
 13 12  2  0
 13 14  1  0
 14 15  2  0
 15 16  1  0
 15  1  1  0
 17 12  1  0
 18  9  1  0
 19 20  1  0
 20 18  1  0
 21 20  2  0
 22 21  1  0
 23 22  2  0
 24 23  1  0
 25 26  1  0
 25 24  2  0
 26 27  2  0
 27 22  1  0
 27 19  1  0
  2 28  1  0
  3 29  1  0
  4 30  1  0
  6 31  1  0
  7 32  1  0
  8 33  1  0
 11 34  1  0
 13 35  1  0
 17 36  1  0
 17 37  1  0
 19 38  1  0
 23 39  1  0
 25 40  1  0
M  ISO  8  28  14  29  14  30  14  31  14  32  14  33  14  34  14  35  14
M  ISO  3  38   9  39  14  40  14
M  END
>  <minimizedAffinity>  (1) 
-6.44006681

>  <minimizedRMSD>  (1) 
0.915046513

$$$$
