
     RDKit          3D

 48 52  0  0  1  0  0  0  0  0999 V2000
   42.8610   34.7990   40.3960 C   0  0  0  0  0  0  0  0  0  0  0  0
   42.7330   35.1530   39.0760 C   0  0  0  0  0  0  0  0  0  0  0  0
   41.5550   35.0290   38.3710 C   0  0  0  0  0  0  0  0  0  0  0  0
   40.4900   34.5300   39.0350 N   0  0  0  0  0  0  0  0  0  0  0  0
   40.6000   34.1770   40.3380 C   0  0  0  0  0  0  0  0  0  0  0  0
   41.7550   34.3050   41.0120 N   0  0  0  0  0  0  0  0  0  0  0  0
   44.1220   34.6050   42.5200 C   0  0  1  0  0  0  0  0  0  0  0  0
   44.3160   36.0940   42.0940 C   0  0  0  0  0  0  0  0  0  0  0  0
   44.1800   34.9260   41.1240 C   0  0  2  0  0  0  0  0  0  0  0  0
   45.2540   34.0500   43.2920 C   0  0  0  0  0  0  0  0  0  0  0  0
   46.5010   33.9660   42.6510 C   0  0  0  0  0  0  0  0  0  0  0  0
   47.5820   33.4500   43.3630 C   0  0  0  0  0  0  0  0  0  0  0  0
   47.3750   33.0560   44.6390 N   0  0  0  0  0  0  0  0  0  0  0  0
   46.1620   33.1480   45.2310 C   0  0  0  0  0  0  0  0  0  0  0  0
   45.1470   33.6480   44.5210 N   0  0  0  0  0  0  0  0  0  0  0  0
   46.1440   32.6640   46.6380 C   0  0  0  0  0  0  0  0  0  0  0  0
   45.1550   33.2880   47.3740 F   0  0  0  0  0  0  0  0  0  0  0  0
   47.3620   33.0000   47.2660 F   0  0  0  0  0  0  0  0  0  0  0  0
   46.0690   31.2990   46.6690 F   0  0  0  0  0  0  0  0  0  0  0  0
   39.4530   33.6020   41.1050 C   0  0  0  0  0  0  0  0  0  0  0  0
   38.3710   33.1570   40.1850 C   0  0  0  0  0  0  0  0  0  0  0  0
   38.0980   31.7030   40.1930 C   0  0  0  0  0  0  0  0  0  0  0  0
   37.7010   31.0400   41.3200 N   0  0  0  0  0  0  0  0  0  0  0  0
   37.4730   29.7110   41.3090 C   0  0  0  0  0  0  0  0  0  0  0  0
   37.6110   28.9290   40.2170 N   0  0  0  0  0  0  0  0  0  0  0  0
   38.0020   29.5470   39.0820 C   0  0  0  0  0  0  0  0  0  0  0  0
   38.1590   28.7960   37.9140 C   0  0  0  0  0  0  0  0  0  0  0  0
   38.5490   29.3700   36.7260 C   0  0  0  0  0  0  0  0  0  0  0  0
   38.7850   30.7220   36.7180 C   0  0  0  0  0  0  0  0  0  0  0  0
   38.6310   31.4620   37.8720 C   0  0  0  0  0  0  0  0  0  0  0  0
   38.2460   30.9230   39.0630 C   0  0  0  0  0  0  0  0  0  0  0  0
   43.6141   35.5556   38.5549 H   0  0  0  0  0  0  0  0  0  0  0  0
   41.4854   35.3237   37.3135 H   0  0  0  0  0  0  0  0  0  0  0  0
   43.4044   33.9862   43.0787 H   0  0  0  0  0  0  0  0  0  0  0  0
   43.5016   36.8238   42.2133 H   0  0  0  0  0  0  0  0  0  0  0  0
   45.0415   36.8978   42.2879 H   0  0  0  0  0  0  0  0  0  0  0  0
   44.7961   34.5831   40.2797 H   0  0  0  0  0  0  0  0  0  0  0  0
   46.6216   34.3002   41.6099 H   0  0  0  0  0  0  0  0  0  0  0  0
   48.5760   33.3657   42.8994 H   0  0  0  0  0  0  0  0  0  0  0  0
   39.8064   32.7398   41.6896 H   0  0  0  0  0  0  0  0  0  0  0  0
   39.0508   34.3786   41.7722 H   0  0  0  0  0  0  0  0  0  0  0  0
   38.6541   33.4448   39.1618 H   0  0  0  0  0  0  0  0  0  0  0  0
   37.4497   33.6433   40.5382 H   0  0  0  0  0  0  0  0  0  0  0  0
   37.1548   29.2344   42.2479 H   0  0  0  0  0  0  0  0  0  0  0  0
   37.9650   27.7137   37.9454 H   0  0  0  0  0  0  0  0  0  0  0  0
   38.6676   28.7662   35.8142 H   0  0  0  0  0  0  0  0  0  0  0  0
   39.0983   31.2177   35.7873 H   0  0  0  0  0  0  0  0  0  0  0  0
   38.8292   32.5431   37.8286 H   0  0  0  0  0  0  0  0  0  0  0  0
  1  6  1  0
  1  9  1  0
  2  1  2  0
  3  4  2  0
  3  2  1  0
  4  5  1  0
  5  6  2  0
  5 20  1  0
  7 10  1  0
  8  7  1  0
  9  8  1  0
  9  7  1  0
 10 15  1  0
 11 10  2  0
 11 12  1  0
 12 13  2  0
 13 14  1  0
 14 16  1  0
 15 14  2  0
 16 19  1  0
 16 18  1  0
 16 17  1  0
 21 22  1  0
 21 20  1  0
 22 23  2  0
 24 23  1  0
 25 24  2  0
 26 25  1  0
 27 26  2  0
 28 27  1  0
 29 28  2  0
 29 30  1  0
 30 31  2  0
 31 26  1  0
 31 22  1  0
  2 32  1  0
  3 33  1  0
  7 34  1  6
  8 35  1  0
  8 36  1  0
  9 37  1  6
 11 38  1  0
 12 39  1  0
 20 40  1  0
 20 41  1  0
 21 42  1  0
 21 43  1  0
 24 44  1  0
 27 45  1  0
 28 46  1  0
 29 47  1  0
 30 48  1  0
M  ISO  8  32  14  33  14  34  13  35  13  36  13  37  13  38  14  39  14
M  ISO  8  40   8  41   8  42   8  43   8  44  14  45  14  46  14  47  14
M  ISO  1  48  14
M  END
>  <minimizedAffinity>  (1) 
-6.60180473

>  <minimizedRMSD>  (1) 
1.69903958

$$$$
