
     RDKit          3D

 45 48  0  0  0  0  0  0  0  0999 V2000
   43.8590   35.0800   40.9610 C   0  0  0  0  0  0  0  0  0  0  0  0
   41.9470   34.1460   39.6640 C   0  0  0  0  0  0  0  0  0  0  0  0
   42.4290   35.0800   40.5650 C   0  0  0  0  0  0  0  0  0  0  0  0
   41.5470   36.0000   41.0780 C   0  0  0  0  0  0  0  0  0  0  0  0
   40.2350   35.9940   40.7100 C   0  0  0  0  0  0  0  0  0  0  0  0
   39.7340   35.0790   39.8200 C   0  0  0  0  0  0  0  0  0  0  0  0
   40.6530   34.1640   39.3210 C   0  0  0  0  0  0  0  0  0  0  0  0
   44.0650   31.0790   39.0550 C   0  0  0  0  0  0  0  0  0  0  0  0
   43.0960   31.9160   39.6330 C   0  0  0  0  0  0  0  0  0  0  0  0
   42.9240   33.1840   39.1430 C   0  0  0  0  0  0  0  0  0  0  0  0
   43.7140   33.5790   38.1050 N   0  0  0  0  0  0  0  0  0  0  0  0
   44.6440   32.7630   37.5570 C   0  0  0  0  0  0  0  0  0  0  0  0
   44.8230   31.5230   38.0240 N   0  0  0  0  0  0  0  0  0  0  0  0
   44.1540   35.8870   42.1170 N   0  0  0  0  0  0  0  0  0  0  0  0
   44.4610   34.9450   43.5140 S   0  0  0  0  0  0  0  0  0  0  0  0
   44.0490   33.5240   43.2970 O   0  0  0  0  0  0  0  0  0  0  0  0
   43.7880   35.5030   44.7220 O   0  0  0  0  0  0  0  0  0  0  0  0
   46.1230   34.9810   43.7630 O   0  0  0  0  0  0  0  0  0  0  0  0
   47.0300   34.5170   42.8200 C   0  0  0  0  0  0  0  0  0  0  0  0
   47.4330   35.1940   41.7050 N   0  0  0  0  0  0  0  0  0  0  0  0
   48.3210   34.6430   40.8580 C   0  0  0  0  0  0  0  0  0  0  0  0
   48.8730   33.4180   41.0260 N   0  0  0  0  0  0  0  0  0  0  0  0
   48.4790   32.7380   42.1310 C   0  0  0  0  0  0  0  0  0  0  0  0
   49.0440   31.4880   42.2990 C   0  0  0  0  0  0  0  0  0  0  0  0
   48.7000   30.7170   43.4050 C   0  0  0  0  0  0  0  0  0  0  0  0
   47.7890   31.2170   44.3260 C   0  0  0  0  0  0  0  0  0  0  0  0
   47.2400   32.4770   44.1270 C   0  0  0  0  0  0  0  0  0  0  0  0
   47.5630   33.2630   43.0400 C   0  0  0  0  0  0  0  0  0  0  0  0
   44.4506   35.4604   40.1153 H   0  0  0  0  0  0  0  0  0  0  0  0
   44.1119   34.0432   41.2278 H   0  0  0  0  0  0  0  0  0  0  0  0
   41.9051   36.7523   41.7962 H   0  0  0  0  0  0  0  0  0  0  0  0
   39.5571   36.7461   41.1400 H   0  0  0  0  0  0  0  0  0  0  0  0
   38.6754   35.0700   39.5211 H   0  0  0  0  0  0  0  0  0  0  0  0
   40.2968   33.4109   38.6027 H   0  0  0  0  0  0  0  0  0  0  0  0
   44.2087   30.0591   39.4412 H   0  0  0  0  0  0  0  0  0  0  0  0
   42.4810   31.5567   40.4713 H   0  0  0  0  0  0  0  0  0  0  0  0
   45.2588   33.1234   36.7191 H   0  0  0  0  0  0  0  0  0  0  0  0
   44.9857   36.4604   41.9160 H   0  0  0  0  0  0  0  0  0  0  0  0
   43.9204   33.0803   44.1726 H   0  0  0  0  0  0  0  0  0  0  0  0
   44.2212   35.1439   45.5366 H   0  0  0  0  0  0  0  0  0  0  0  0
   48.6176   35.2245   39.9726 H   0  0  0  0  0  0  0  0  0  0  0  0
   49.7633   31.1038   41.5608 H   0  0  0  0  0  0  0  0  0  0  0  0
   49.1452   29.7214   43.5483 H   0  0  0  0  0  0  0  0  0  0  0  0
   47.5047   30.6204   45.2053 H   0  0  0  0  0  0  0  0  0  0  0  0
   46.5203   32.8630   44.8639 H   0  0  0  0  0  0  0  0  0  0  0  0
  1 14  1  0
  2  3  1  0
  3  1  1  0
  3  4  2  0
  5  4  1  0
  6  5  2  0
  7  2  2  0
  7  6  1  0
  8  9  2  0
 10  9  1  0
 10  2  1  0
 11 10  2  0
 12 13  2  0
 12 11  1  0
 13  8  1  0
 14 15  1  0
 15 18  1  0
 15 17  1  0
 16 15  1  0
 19 28  1  0
 19 18  1  0
 20 19  2  0
 21 22  2  0
 21 20  1  0
 22 23  1  0
 23 24  1  0
 23 28  2  0
 24 25  2  0
 25 26  1  0
 27 26  2  0
 28 27  1  0
  1 29  1  0
  1 30  1  0
  4 31  1  0
  5 32  1  0
  6 33  1  0
  7 34  1  0
  8 35  1  0
  9 36  1  0
 12 37  1  0
 14 38  1  0
 16 39  1  0
 17 40  1  0
 21 41  1  0
 24 42  1  0
 25 43  1  0
 26 44  1  0
 27 45  1  0
M  ISO  8  29   8  30   8  31  14  32  14  33  14  34  14  35  14  36  14
M  ISO  8  37  14  38   5  39   3  40   3  41  14  42  14  43  14  44  14
M  ISO  1  45  14
M  END
>  <minimizedAffinity>  (1) 
-6.04039097

>  <minimizedRMSD>  (1) 
3.19249988

$$$$
