
     RDKit          3D

 40 43  0  0  1  0  0  0  0  0999 V2000
   47.6780   35.2590   41.8030 C   0  0  1  0  0  0  0  0  0  0  0  0
   49.2000   35.2130   41.7120 C   0  0  0  0  0  0  0  0  0  0  0  0
   48.3480   34.9920   40.4900 C   0  0  1  0  0  0  0  0  0  0  0  0
   47.0210   34.0970   42.4290 C   0  0  0  0  0  0  0  0  0  0  0  0
   46.1940   34.4180   43.6040 C   0  0  0  0  0  0  0  0  0  0  0  0
   45.4130   35.5320   43.4450 C   0  0  0  0  0  0  0  0  0  0  0  0
   44.5810   35.9590   44.4870 C   0  0  0  0  0  0  0  0  0  0  0  0
   44.6140   35.1930   45.6340 N   0  0  0  0  0  0  0  0  0  0  0  0
   45.3920   34.0990   45.7670 C   0  0  0  0  0  0  0  0  0  0  0  0
   46.1630   33.7360   44.7510 N   0  0  0  0  0  0  0  0  0  0  0  0
   48.2480   33.7170   39.9900 O   0  0  0  0  0  0  0  0  0  0  0  0
   48.5880   35.0070   37.6890 O   0  0  0  0  0  0  0  0  0  0  0  0
   48.4080   33.6360   38.3170 P   0  0  1  0  0  0  0  0  0  0  0  0
   49.8410   32.7630   37.9630 O   0  0  0  0  0  0  0  0  0  0  0  0
   47.0760   32.8300   37.6730 O   0  0  0  0  0  0  0  0  0  0  0  0
   47.0750   32.4370   36.3410 C   0  0  0  0  0  0  0  0  0  0  0  0
   48.2000   32.6930   35.6200 N   0  0  0  0  0  0  0  0  0  0  0  0
   48.2940   32.3480   34.3200 C   0  0  0  0  0  0  0  0  0  0  0  0
   47.2530   31.7290   33.6910 N   0  0  0  0  0  0  0  0  0  0  0  0
   46.1260   31.4720   34.4110 C   0  0  0  0  0  0  0  0  0  0  0  0
   45.0680   30.8460   33.7810 C   0  0  0  0  0  0  0  0  0  0  0  0
   43.8930   30.5580   34.4590 C   0  0  0  0  0  0  0  0  0  0  0  0
   43.8370   30.9320   35.8020 C   0  0  0  0  0  0  0  0  0  0  0  0
   44.8710   31.5570   36.4630 C   0  0  0  0  0  0  0  0  0  0  0  0
   46.0000   31.8130   35.7410 C   0  0  0  0  0  0  0  0  0  0  0  0
   46.9457   35.9892   42.1778 H   0  0  0  0  0  0  0  0  0  0  0  0
   49.7875   36.1372   41.8157 H   0  0  0  0  0  0  0  0  0  0  0  0
   49.9976   34.6524   42.2214 H   0  0  0  0  0  0  0  0  0  0  0  0
   48.3135   35.4481   39.4896 H   0  0  0  0  0  0  0  0  0  0  0  0
   46.3762   33.6208   41.6757 H   0  0  0  0  0  0  0  0  0  0  0  0
   47.8270   33.4391   42.7863 H   0  0  0  0  0  0  0  0  0  0  0  0
   45.4395   36.0914   42.4982 H   0  0  0  0  0  0  0  0  0  0  0  0
   43.9412   36.8493   44.3968 H   0  0  0  0  0  0  0  0  0  0  0  0
   45.3869   33.5185   46.7014 H   0  0  0  0  0  0  0  0  0  0  0  0
   50.2813   32.4948   38.8082 H   0  0  0  0  0  0  0  0  0  0  0  0
   49.2165   32.5671   33.7623 H   0  0  0  0  0  0  0  0  0  0  0  0
   45.1593   30.5704   32.7200 H   0  0  0  0  0  0  0  0  0  0  0  0
   43.0473   30.0595   33.9627 H   0  0  0  0  0  0  0  0  0  0  0  0
   42.9163   30.7158   36.3638 H   0  0  0  0  0  0  0  0  0  0  0  0
   44.7904   31.8368   37.5238 H   0  0  0  0  0  0  0  0  0  0  0  0
  1  4  1  0
  2  1  1  0
  3  2  1  0
  3  1  1  0
  4  5  1  0
  5 10  1  0
  6  5  2  0
  6  7  1  0
  7  8  2  0
  8  9  1  0
 10  9  2  0
 11  3  1  0
 13 12  2  0
 13 11  1  0
 14 13  1  0
 15 13  1  0
 16 15  1  0
 17 16  2  0
 18 17  1  0
 19 18  2  0
 19 20  1  0
 20 25  2  0
 21 20  1  0
 21 22  2  0
 22 23  1  0
 23 24  2  0
 25 16  1  0
 25 24  1  0
  1 26  1  6
  2 27  1  0
  2 28  1  0
  3 29  1  6
  4 30  1  0
  4 31  1  0
  6 32  1  0
  7 33  1  0
  9 34  1  0
 14 35  1  0
 18 36  1  0
 21 37  1  0
 22 38  1  0
 23 39  1  0
 24 40  1  0
M  ISO  8  26  13  27  13  28  13  29  13  30   8  31   8  32  14  33  14
M  ISO  7  34  14  35   3  36  14  37  14  38  14  39  14  40  14
M  END
>  <minimizedAffinity>  (1) 
-5.82399464

>  <minimizedRMSD>  (1) 
2.50739217

$$$$
