
     RDKit          3D

 48 52  0  0  1  0  0  0  0  0999 V2000
   49.7060   33.7020   41.4650 N   0  0  0  0  0  0  0  0  0  0  0  0
   50.7460   33.1100   42.2680 C   0  0  0  0  0  0  0  0  0  0  0  0
   51.2870   31.8160   41.7390 C   0  0  0  0  0  0  0  0  0  0  0  0
   50.1890   30.7750   41.7900 C   0  0  0  0  0  0  0  0  0  0  0  0
   48.8510   31.3850   41.4970 C   0  0  0  0  0  0  0  0  0  0  0  0
   49.0450   32.6590   40.7130 C   0  0  2  0  0  0  0  0  0  0  0  0
   49.6500   32.3810   39.4400 N   0  0  0  0  0  0  0  0  0  0  0  0
   49.0610   32.4440   38.1570 C   0  0  0  0  0  0  0  0  0  0  0  0
   47.9070   33.0590   37.8760 N   0  0  0  0  0  0  0  0  0  0  0  0
   47.3140   33.1550   36.7000 C   0  0  0  0  0  0  0  0  0  0  0  0
   47.9130   32.5800   35.6430 N   0  0  0  0  0  0  0  0  0  0  0  0
   49.0760   31.9320   35.7950 C   0  0  0  0  0  0  0  0  0  0  0  0
   49.6650   31.3550   34.7050 C   0  0  0  0  0  0  0  0  0  0  0  0
   50.8610   30.6740   34.7890 C   0  0  0  0  0  0  0  0  0  0  0  0
   51.4390   30.6030   36.0440 C   0  0  0  0  0  0  0  0  0  0  0  0
   50.8290   31.1900   37.1200 C   0  0  0  0  0  0  0  0  0  0  0  0
   49.6400   31.8690   37.0470 C   0  0  0  0  0  0  0  0  0  0  0  0
   47.4500   34.8140   41.9950 C   0  0  1  0  0  0  0  0  0  0  0  0
   48.5200   35.8310   41.8670 C   0  0  0  0  0  0  0  0  0  0  0  0
   48.8600   34.4610   42.2980 C   0  0  2  0  0  0  0  0  0  0  0  0
   45.5730   36.0130   43.1530 C   0  0  0  0  0  0  0  0  0  0  0  0
   46.4790   34.9430   43.1000 C   0  0  0  0  0  0  0  0  0  0  0  0
   46.4200   33.9800   44.1340 C   0  0  0  0  0  0  0  0  0  0  0  0
   45.4990   34.1430   45.1110 N   0  0  0  0  0  0  0  0  0  0  0  0
   44.6390   35.1800   45.1400 C   0  0  0  0  0  0  0  0  0  0  0  0
   44.6670   36.1310   44.1560 N   0  0  0  0  0  0  0  0  0  0  0  0
   51.5774   33.8271   42.3345 H   0  0  0  0  0  0  0  0  0  0  0  0
   50.2923   32.8810   43.2436 H   0  0  0  0  0  0  0  0  0  0  0  0
   52.1361   31.4893   42.3573 H   0  0  0  0  0  0  0  0  0  0  0  0
   51.6304   31.9487   40.7024 H   0  0  0  0  0  0  0  0  0  0  0  0
   50.3991   29.9948   41.0436 H   0  0  0  0  0  0  0  0  0  0  0  0
   50.1624   30.3454   42.8023 H   0  0  0  0  0  0  0  0  0  0  0  0
   48.2465   30.6795   40.9080 H   0  0  0  0  0  0  0  0  0  0  0  0
   48.3332   31.6086   42.4414 H   0  0  0  0  0  0  0  0  0  0  0  0
   48.0493   33.0796   40.5088 H   0  0  0  0  0  0  0  0  0  0  0  0
   50.6405   32.0996   39.4658 H   0  0  0  0  0  0  0  0  0  0  0  0
   46.3589   33.6893   36.5888 H   0  0  0  0  0  0  0  0  0  0  0  0
   49.1679   31.4367   33.7272 H   0  0  0  0  0  0  0  0  0  0  0  0
   51.3296   30.2128   33.9071 H   0  0  0  0  0  0  0  0  0  0  0  0
   52.3932   30.0724   36.1779 H   0  0  0  0  0  0  0  0  0  0  0  0
   51.3216   31.1124   38.1005 H   0  0  0  0  0  0  0  0  0  0  0  0
   46.6738   34.4038   41.3322 H   0  0  0  0  0  0  0  0  0  0  0  0
   48.8249   36.1851   40.8712 H   0  0  0  0  0  0  0  0  0  0  0  0
   48.6871   36.8378   42.2774 H   0  0  0  0  0  0  0  0  0  0  0  0
   49.3212   33.9619   43.1630 H   0  0  0  0  0  0  0  0  0  0  0  0
   45.5979   36.7759   42.3609 H   0  0  0  0  0  0  0  0  0  0  0  0
   47.1059   33.1201   44.1434 H   0  0  0  0  0  0  0  0  0  0  0  0
   43.9100   35.2627   45.9595 H   0  0  0  0  0  0  0  0  0  0  0  0
  1  2  1  0
  1 20  1  0
  3  4  1  0
  3  2  1  0
  5  4  1  0
  6  1  1  0
  6  5  1  0
  7  6  1  0
  8  7  1  0
  9  8  2  0
 10  9  1  0
 11 12  1  0
 11 10  2  0
 12 17  2  0
 13 14  2  0
 13 12  1  0
 14 15  1  0
 15 16  2  0
 17 16  1  0
 17  8  1  0
 18 20  1  0
 18 22  1  0
 19 18  1  0
 19 20  1  0
 21 26  2  0
 22 21  1  0
 22 23  2  0
 23 24  1  0
 24 25  2  0
 26 25  1  0
  2 27  1  0
  2 28  1  0
  3 29  1  0
  3 30  1  0
  4 31  1  0
  4 32  1  0
  5 33  1  0
  5 34  1  0
  6 35  1  6
  7 36  1  0
 10 37  1  0
 13 38  1  0
 14 39  1  0
 15 40  1  0
 16 41  1  0
 18 42  1  6
 19 43  1  0
 19 44  1  0
 20 45  1  1
 21 46  1  0
 23 47  1  0
 25 48  1  0
M  ISO  8  27  13  28  13  29  13  30  13  31  13  32  13  33  13  34  13
M  ISO  8  35  13  37  14  38  14  39  14  40  14  41  14  42  13  43  13
M  ISO  5  44  13  45  13  46  14  47  14  48  14
M  END
>  <minimizedAffinity>  (1) 
-6.13073874

>  <minimizedRMSD>  (1) 
2.60174322

$$$$
