
     RDKit          3D

 37 40  0  0  0  0  0  0  0  0999 V2000
   45.2570   32.1870   39.6690 Cl  0  0  0  0  0  0  0  0  0  0  0  0
   46.5100   33.1290   38.9460 C   0  0  0  0  0  0  0  0  0  0  0  0
   47.3260   33.9130   39.7160 C   0  0  0  0  0  0  0  0  0  0  0  0
   48.3520   34.6920   39.1670 C   0  0  0  0  0  0  0  0  0  0  0  0
   48.4880   34.6200   37.7930 C   0  0  0  0  0  0  0  0  0  0  0  0
   47.6720   33.8360   37.0230 C   0  0  0  0  0  0  0  0  0  0  0  0
   46.6790   33.0840   37.5760 C   0  0  0  0  0  0  0  0  0  0  0  0
   45.8150   32.2620   36.7310 C   0  0  0  0  0  0  0  0  0  0  0  0
   44.5410   32.1480   37.2070 N   0  0  0  0  0  0  0  0  0  0  0  0
   43.6080   31.4330   36.5610 C   0  0  0  0  0  0  0  0  0  0  0  0
   43.8840   30.7890   35.4090 N   0  0  0  0  0  0  0  0  0  0  0  0
   45.1280   30.8790   34.9120 C   0  0  0  0  0  0  0  0  0  0  0  0
   45.5290   30.2580   33.7350 C   0  0  0  0  0  0  0  0  0  0  0  0
   46.8370   30.3810   33.2620 C   0  0  0  0  0  0  0  0  0  0  0  0
   47.7820   31.1340   33.9610 C   0  0  0  0  0  0  0  0  0  0  0  0
   47.4060   31.7650   35.1410 C   0  0  0  0  0  0  0  0  0  0  0  0
   46.1130   31.6030   35.5460 C   0  0  0  0  0  0  0  0  0  0  0  0
   47.6400   33.1660   43.3210 C   0  0  0  0  0  0  0  0  0  0  0  0
   46.7050   34.0580   43.8940 C   0  0  0  0  0  0  0  0  0  0  0  0
   45.9890   34.8890   43.0440 C   0  0  0  0  0  0  0  0  0  0  0  0
   46.2170   34.8130   41.7050 N   0  0  0  0  0  0  0  0  0  0  0  0
   47.1270   33.9440   41.1760 C   0  0  0  0  0  0  0  0  0  0  0  0
   47.8250   33.1340   41.9820 N   0  0  0  0  0  0  0  0  0  0  0  0
   44.9710   35.8700   43.5400 C   0  0  0  0  0  0  0  0  0  0  0  0
   45.3100   37.1500   43.1640 F   0  0  0  0  0  0  0  0  0  0  0  0
   43.7380   35.5440   42.9800 F   0  0  0  0  0  0  0  0  0  0  0  0
   44.9120   35.7470   44.9020 F   0  0  0  0  0  0  0  0  0  0  0  0
   49.0071   35.3203   39.7884 H   0  0  0  0  0  0  0  0  0  0  0  0
   49.2762   35.2110   37.3036 H   0  0  0  0  0  0  0  0  0  0  0  0
   47.8210   33.8124   35.9334 H   0  0  0  0  0  0  0  0  0  0  0  0
   42.5933   31.3705   36.9811 H   0  0  0  0  0  0  0  0  0  0  0  0
   44.8029   29.6589   33.1659 H   0  0  0  0  0  0  0  0  0  0  0  0
   47.1263   29.8784   32.3272 H   0  0  0  0  0  0  0  0  0  0  0  0
   48.8108   31.2268   33.5829 H   0  0  0  0  0  0  0  0  0  0  0  0
   48.1189   32.3681   35.7224 H   0  0  0  0  0  0  0  0  0  0  0  0
   48.2211   32.4933   43.9689 H   0  0  0  0  0  0  0  0  0  0  0  0
   46.5494   34.0924   44.9824 H   0  0  0  0  0  0  0  0  0  0  0  0
  2  1  1  0
  2  3  2  0
  3 22  1  0
  4  3  1  0
  5  4  2  0
  6  7  2  0
  6  5  1  0
  7  2  1  0
  8  9  2  0
  8  7  1  0
 10  9  1  0
 11 10  2  0
 12 11  1  0
 12 17  2  0
 13 12  1  0
 14 13  2  0
 14 15  1  0
 15 16  2  0
 16 17  1  0
 17  8  1  0
 18 19  2  0
 20 24  1  0
 20 19  1  0
 21 20  2  0
 22 21  1  0
 22 23  2  0
 23 18  1  0
 24 27  1  0
 25 24  1  0
 26 24  1  0
  4 28  1  0
  5 29  1  0
  6 30  1  0
 10 31  1  0
 13 32  1  0
 14 33  1  0
 15 34  1  0
 16 35  1  0
 18 36  1  0
 19 37  1  0
M  ISO  8  28  14  29  14  30  14  31  14  32  14  33  14  34  14  35  14
M  ISO  2  36  14  37  14
M  END
>  <minimizedAffinity>  (1) 
-6.11070585

>  <minimizedRMSD>  (1) 
0.252687335

$$$$
