
     RDKit          3D

 43 46  0  0  0  0  0  0  0  0999 V2000
   46.3270   31.5460   45.9730 C   0  0  0  0  0  0  0  0  0  0  0  0
   47.2990   31.8600   48.2330 C   0  0  0  0  0  0  0  0  0  0  0  0
   47.2800   31.1840   47.0070 C   0  0  0  0  0  0  0  0  0  0  0  0
   48.2160   30.1760   46.8620 C   0  0  0  0  0  0  0  0  0  0  0  0
   49.0650   29.9040   47.8650 N   0  0  0  0  0  0  0  0  0  0  0  0
   49.0780   30.5460   49.0220 C   0  0  0  0  0  0  0  0  0  0  0  0
   48.1900   31.5080   49.1680 N   0  0  0  0  0  0  0  0  0  0  0  0
   49.9190   30.4020   50.2370 C   0  0  0  0  0  0  0  0  0  0  0  0
   49.9750   29.2780   50.9720 N   0  0  0  0  0  0  0  0  0  0  0  0
   50.7380   29.1790   52.0570 C   0  0  0  0  0  0  0  0  0  0  0  0
   51.5110   30.1950   52.5010 N   0  0  0  0  0  0  0  0  0  0  0  0
   51.5190   31.3770   51.8160 C   0  0  0  0  0  0  0  0  0  0  0  0
   52.3080   32.3960   52.2790 C   0  0  0  0  0  0  0  0  0  0  0  0
   52.3290   33.5940   51.6030 C   0  0  0  0  0  0  0  0  0  0  0  0
   51.5420   33.7180   50.4730 C   0  0  0  0  0  0  0  0  0  0  0  0
   50.7780   32.6440   50.0750 C   0  0  0  0  0  0  0  0  0  0  0  0
   50.7140   31.4230   50.7060 C   0  0  0  0  0  0  0  0  0  0  0  0
   47.0170   32.5050   45.0250 C   0  0  0  0  0  0  0  0  0  0  0  0
   46.3980   34.3510   43.5040 C   0  0  0  0  0  0  0  0  0  0  0  0
   46.2240   33.7180   44.7230 C   0  0  0  0  0  0  0  0  0  0  0  0
   45.3450   34.1690   45.6760 C   0  0  0  0  0  0  0  0  0  0  0  0
   44.6070   35.3020   45.4050 C   0  0  0  0  0  0  0  0  0  0  0  0
   44.7140   35.9840   44.2350 C   0  0  0  0  0  0  0  0  0  0  0  0
   45.6210   35.4740   43.3160 C   0  0  0  0  0  0  0  0  0  0  0  0
   47.5080   33.8050   42.2680 S   0  0  0  0  0  0  0  0  0  0  0  0
   48.9320   34.2320   42.5610 O   0  0  0  0  0  0  0  0  0  0  0  0
   47.1740   34.5350   40.9840 O   0  0  0  0  0  0  0  0  0  0  0  0
   46.0063   30.6461   45.4277 H   0  0  0  0  0  0  0  0  0  0  0  0
   45.4376   32.0169   46.4170 H   0  0  0  0  0  0  0  0  0  0  0  0
   46.5863   32.6752   48.4267 H   0  0  0  0  0  0  0  0  0  0  0  0
   48.2643   29.5988   45.9269 H   0  0  0  0  0  0  0  0  0  0  0  0
   50.7400   28.2315   52.6158 H   0  0  0  0  0  0  0  0  0  0  0  0
   52.9193   32.2579   53.1830 H   0  0  0  0  0  0  0  0  0  0  0  0
   52.9541   34.4294   51.9515 H   0  0  0  0  0  0  0  0  0  0  0  0
   51.5265   34.6581   49.9021 H   0  0  0  0  0  0  0  0  0  0  0  0
   50.1638   32.7737   49.1717 H   0  0  0  0  0  0  0  0  0  0  0  0
   47.9692   32.8169   45.4789 H   0  0  0  0  0  0  0  0  0  0  0  0
   47.1600   31.9699   44.0746 H   0  0  0  0  0  0  0  0  0  0  0  0
   45.2319   33.6391   46.6333 H   0  0  0  0  0  0  0  0  0  0  0  0
   43.9033   35.6683   46.1670 H   0  0  0  0  0  0  0  0  0  0  0  0
   44.1183   36.8854   44.0284 H   0  0  0  0  0  0  0  0  0  0  0  0
   45.7283   36.0091   42.3609 H   0  0  0  0  0  0  0  0  0  0  0  0
   47.4009   32.4408   42.2017 H   0  0  0  0  0  0  0  0  0  0  0  0
  1  3  1  0
  2  7  2  0
  3  2  1  0
  4  3  2  0
  4  5  1  0
  5  6  2  0
  6  7  1  0
  6  8  1  0
  8 17  1  0
  8  9  2  0
  9 10  1  0
 10 11  2  0
 12 13  2  0
 12 11  1  0
 14 13  1  0
 15 14  2  0
 16 15  1  0
 16 17  2  0
 17 12  1  0
 18  1  1  0
 19 20  2  0
 20 18  1  0
 20 21  1  0
 22 21  2  0
 23 22  1  0
 24 19  1  0
 24 23  2  0
 25 26  2  0
 25 19  1  0
 27 25  2  0
  1 28  1  0
  1 29  1  0
  2 30  1  0
  4 31  1  0
 10 32  1  0
 13 33  1  0
 14 34  1  0
 15 35  1  0
 16 36  1  0
 18 37  1  0
 18 38  1  0
 21 39  1  0
 22 40  1  0
 23 41  1  0
 24 42  1  0
 25 43  1  0
M  ISO  8  28   8  29   8  30  14  31  14  32  14  33  14  34  14  35  14
M  ISO  8  36  14  37   8  38   8  39  14  40  14  41  14  42  14  43  11
M  END
>  <minimizedAffinity>  (1) 
-6.71824121

>  <minimizedRMSD>  (1) 
0.401738018

$$$$
