
     RDKit          3D

 37 38  0  0  0  0  0  0  0  0999 V2000
   43.5520   33.2430   39.3800 O   0  0  0  0  0  0  0  0  0  0  0  0
   43.0090   34.1840   40.4490 P   0  0  1  0  0  0  0  0  0  0  0  0
   42.3640   33.2630   41.7080 O   0  0  0  0  0  0  0  0  0  0  0  0
   44.2850   35.1050   41.0740 O   0  0  0  0  0  0  0  0  0  0  0  0
   46.3590   34.3100   41.8670 C   0  0  0  0  0  0  0  0  0  0  0  0
   45.0880   34.7640   42.1570 C   0  0  0  0  0  0  0  0  0  0  0  0
   44.7120   34.8450   43.5040 C   0  0  0  0  0  0  0  0  0  0  0  0
   45.6190   34.4740   44.4360 N   0  0  0  0  0  0  0  0  0  0  0  0
   46.8440   34.0370   44.1320 C   0  0  0  0  0  0  0  0  0  0  0  0
   47.2150   33.9550   42.8450 N   0  0  0  0  0  0  0  0  0  0  0  0
   46.8200   34.1980   40.4840 C   0  0  0  0  0  0  0  0  0  0  0  0
   48.2140   34.7540   40.3810 C   0  0  0  0  0  0  0  0  0  0  0  0
   41.7560   35.1360   39.8120 O   0  0  0  0  0  0  0  0  0  0  0  0
   40.5470   34.5250   39.5340 C   0  0  0  0  0  0  0  0  0  0  0  0
   40.0430   34.6410   38.2490 C   0  0  0  0  0  0  0  0  0  0  0  0
   38.8430   34.0680   37.8690 C   0  0  0  0  0  0  0  0  0  0  0  0
   38.1480   33.3720   38.7990 N   0  0  0  0  0  0  0  0  0  0  0  0
   38.6290   33.2530   40.0520 C   0  0  0  0  0  0  0  0  0  0  0  0
   39.7920   33.8210   40.3840 N   0  0  0  0  0  0  0  0  0  0  0  0
   38.9510   30.5120   40.6210 N   0  0  0  0  0  0  0  0  0  0  0  0
   37.8620   31.0890   41.0500 C   0  0  0  0  0  0  0  0  0  0  0  0
   37.8980   32.5150   41.0530 N   0  0  0  0  0  0  0  0  0  0  0  0
   36.6310   30.5020   41.5180 N   0  0  0  0  0  0  0  0  0  0  0  0
   39.1000   29.4990   40.5510 H   0  0  0  0  0  0  0  0  0  0  0  0
   42.6373   33.6532   42.5759 H   0  0  0  0  0  0  0  0  0  0  0  0
   43.7117   35.1988   43.7942 H   0  0  0  0  0  0  0  0  0  0  0  0
   47.5431   33.7467   44.9301 H   0  0  0  0  0  0  0  0  0  0  0  0
   46.8224   33.1404   40.1814 H   0  0  0  0  0  0  0  0  0  0  0  0
   46.1467   34.7634   39.8230 H   0  0  0  0  0  0  0  0  0  0  0  0
   48.6197   34.9158   41.3906 H   0  0  0  0  0  0  0  0  0  0  0  0
   48.8535   34.0421   39.8386 H   0  0  0  0  0  0  0  0  0  0  0  0
   48.1881   35.7106   39.8386 H   0  0  0  0  0  0  0  0  0  0  0  0
   40.6182   35.2097   37.5035 H   0  0  0  0  0  0  0  0  0  0  0  0
   38.4646   34.1747   36.8416 H   0  0  0  0  0  0  0  0  0  0  0  0
   37.3904   33.0296   41.7868 H   0  0  0  0  0  0  0  0  0  0  0  0
   35.8563   31.1070   41.8258 H   0  0  0  0  0  0  0  0  0  0  0  0
   36.5263   29.4777   41.5445 H   0  0  0  0  0  0  0  0  0  0  0  0
  2  1  2  0
  2  4  1  0
  2  3  1  0
  4  6  1  0
  5  6  2  0
  5 10  1  0
  6  7  1  0
  7  8  2  0
  9  8  1  0
 10  9  2  0
 11  5  1  0
 12 11  1  0
 13  2  1  0
 14 13  1  0
 14 19  1  0
 15 14  2  0
 16 15  1  0
 16 17  2  0
 17 18  1  0
 18 19  2  0
 18 22  1  0
 20 21  2  0
 21 22  1  0
 21 23  1  0
 24 20  1  0
  3 25  1  0
  7 26  1  0
  9 27  1  0
 11 28  1  0
 11 29  1  0
 12 30  1  0
 12 31  1  0
 12 32  1  0
 15 33  1  0
 16 34  1  0
 22 35  1  0
 23 36  1  0
 23 37  1  0
M  ISO  8  25   3  26  14  27  14  28   8  29   8  30   8  31   8  32   8
M  ISO  2  33  14  34  14
M  END
>  <minimizedAffinity>  (1) 
-6.46356297

>  <minimizedRMSD>  (1) 
1.43175292

$$$$
