
     RDKit          3D

 41 43  0  0  0  0  0  0  0  0999 V2000
   45.3010   33.8040   45.6740 C   0  0  0  0  0  0  0  0  0  0  0  0
   44.8130   35.0510   45.8960 C   0  0  0  0  0  0  0  0  0  0  0  0
   44.4490   35.9290   44.9050 C   0  0  0  0  0  0  0  0  0  0  0  0
   44.6060   35.4770   43.6410 N   0  0  0  0  0  0  0  0  0  0  0  0
   45.0850   34.2530   43.4040 C   0  0  0  0  0  0  0  0  0  0  0  0
   45.4410   33.3950   44.3830 N   0  0  0  0  0  0  0  0  0  0  0  0
   45.1770   31.9810   48.8450 C   0  0  0  0  0  0  0  0  0  0  0  0
   46.3550   31.2220   48.7760 C   0  0  0  0  0  0  0  0  0  0  0  0
   47.1780   31.3290   47.6700 C   0  0  0  0  0  0  0  0  0  0  0  0
   46.8010   32.1870   46.6740 N   0  0  0  0  0  0  0  0  0  0  0  0
   45.6720   32.9060   46.7530 C   0  0  0  0  0  0  0  0  0  0  0  0
   44.8740   32.8010   47.8280 N   0  0  0  0  0  0  0  0  0  0  0  0
   48.8500   30.5690   49.9300 N   0  0  0  0  0  0  0  0  0  0  0  0
   48.8610   29.9690   48.8020 C   0  0  0  0  0  0  0  0  0  0  0  0
   48.3610   30.5610   47.6260 N   0  0  0  0  0  0  0  0  0  0  0  0
   49.4190   28.6370   48.7530 N   0  0  0  0  0  0  0  0  0  0  0  0
   48.4630   31.5260   50.0040 H   0  0  0  0  0  0  0  0  0  0  0  0
   45.2500   33.7760   42.0120 C   0  0  0  0  0  0  0  0  0  0  0  0
   44.2570   33.0310   41.4210 C   0  0  0  0  0  0  0  0  0  0  0  0
   44.3130   32.5360   40.1250 C   0  0  0  0  0  0  0  0  0  0  0  0
   45.4550   32.8250   39.3980 C   0  0  0  0  0  0  0  0  0  0  0  0
   46.4410   33.5650   39.9840 C   0  0  0  0  0  0  0  0  0  0  0  0
   46.3810   34.0520   41.2680 C   0  0  0  0  0  0  0  0  0  0  0  0
   47.3540   34.7940   41.8760 O   0  0  0  0  0  0  0  0  0  0  0  0
   49.7700   35.5160   42.5600 O   0  0  0  0  0  0  0  0  0  0  0  0
   48.9910   34.8520   41.4210 P   0  0  0  0  0  0  0  0  0  0  0  0
   49.6530   33.3810   41.0150 O   0  0  0  0  0  0  0  0  0  0  0  0
   49.1240   35.8950   40.0870 O   0  0  0  0  0  0  0  0  0  0  0  0
   44.7017   35.3802   46.9397 H   0  0  0  0  0  0  0  0  0  0  0  0
   44.0561   36.9326   45.1250 H   0  0  0  0  0  0  0  0  0  0  0  0
   44.5130   31.9047   49.7187 H   0  0  0  0  0  0  0  0  0  0  0  0
   46.6231   30.5437   49.5994 H   0  0  0  0  0  0  0  0  0  0  0  0
   48.8590   30.4333   46.7335 H   0  0  0  0  0  0  0  0  0  0  0  0
   49.4451   28.1220   47.8614 H   0  0  0  0  0  0  0  0  0  0  0  0
   49.7907   28.2025   49.6097 H   0  0  0  0  0  0  0  0  0  0  0  0
   43.3574   32.8124   42.0151 H   0  0  0  0  0  0  0  0  0  0  0  0
   43.4908   31.9436   39.6972 H   0  0  0  0  0  0  0  0  0  0  0  0
   45.5661   32.4642   38.3648 H   0  0  0  0  0  0  0  0  0  0  0  0
   47.3408   33.7856   39.3910 H   0  0  0  0  0  0  0  0  0  0  0  0
   49.8778   32.8814   41.8396 H   0  0  0  0  0  0  0  0  0  0  0  0
   49.2426   36.8248   40.4056 H   0  0  0  0  0  0  0  0  0  0  0  0
  1  2  2  0
  1 11  1  0
  3  2  1  0
  4  3  2  0
  5  4  1  0
  5  6  2  0
  6  1  1  0
  8  7  2  0
  9  8  1  0
 10 11  1  0
 10  9  2  0
 11 12  2  0
 12  7  1  0
 13 17  1  0
 14 13  2  0
 15  9  1  0
 15 14  1  0
 16 14  1  0
 18  5  1  0
 19 18  2  0
 20 19  1  0
 21 22  1  0
 21 20  2  0
 22 23  2  0
 23 24  1  0
 23 18  1  0
 26 24  1  0
 26 25  2  0
 27 26  1  0
 28 26  1  0
  2 29  1  0
  3 30  1  0
  7 31  1  0
  8 32  1  0
 15 33  1  0
 16 34  1  0
 16 35  1  0
 19 36  1  0
 20 37  1  0
 21 38  1  0
 22 39  1  0
 27 40  1  0
 28 41  1  0
M  ISO  8  29  14  30  14  31  14  32  14  36  14  37  14  38  14  39  14
M  ISO  2  40   3  41   3
M  END
>  <minimizedAffinity>  (1) 
-6.88528395

>  <minimizedRMSD>  (1) 
0.307047009

$$$$
