
     RDKit          3D

 44 46  0  0  1  0  0  0  0  0999 V2000
   42.9310   34.0580   39.1710 C   0  0  1  0  0  0  0  0  0  0  0  0
   43.2860   35.0080   40.3040 C   0  0  1  0  0  0  0  0  0  0  0  0
   42.0980   35.6490   40.7260 O   0  0  0  0  0  0  0  0  0  0  0  0
   41.2270   35.9200   39.6630 C   0  0  0  0  0  0  0  0  0  0  0  0
   40.6280   34.6490   39.0950 C   0  0  2  0  0  0  0  0  0  0  0  0
   41.5940   33.4920   39.5060 C   0  0  1  0  0  0  0  0  0  0  0  0
   42.8920   34.7470   37.9440 O   0  0  0  0  0  0  0  0  0  0  0  0
   40.6770   34.6870   37.7090 O   0  0  0  0  0  0  0  0  0  0  0  0
   43.6240   34.1840   41.3850 O   0  0  0  0  0  0  0  0  0  0  0  0
   44.7840   34.2250   42.0500 C   0  0  0  0  0  0  0  0  0  0  0  0
   45.9890   34.4480   41.3840 C   0  0  0  0  0  0  0  0  0  0  0  0
   47.1680   34.4860   42.1010 C   0  0  0  0  0  0  0  0  0  0  0  0
   47.1170   34.3010   43.4740 N   0  0  0  0  0  0  0  0  0  0  0  0
   45.9340   34.0870   44.0910 C   0  0  0  0  0  0  0  0  0  0  0  0
   44.7760   34.0510   43.3820 N   0  0  0  0  0  0  0  0  0  0  0  0
   48.4960   34.7010   41.4440 C   0  0  0  0  0  0  0  0  0  0  0  0
   49.1010   36.0970   41.5670 C   0  0  0  0  0  0  0  0  0  0  0  0
   49.6880   34.8330   42.2250 C   0  0  0  0  0  0  0  0  0  0  0  0
   41.2140   32.3830   38.8400 O   0  0  0  0  0  0  0  0  0  0  0  0
   40.0390   31.7710   38.7220 C   0  0  0  0  0  0  0  0  0  0  0  0
   39.3210   31.8490   37.6070 O   0  0  0  0  0  0  0  0  0  0  0  0
   38.0190   32.6150   40.7960 N   0  0  0  0  0  0  0  0  0  0  0  0
   38.3680   31.4570   40.5840 C   0  0  0  0  0  0  0  0  0  0  0  0
   39.2910   30.9330   39.6650 N   0  0  0  0  0  0  0  0  0  0  0  0
   37.6660   30.5560   41.4670 N   0  0  0  0  0  0  0  0  0  0  0  0
   38.2530   33.5000   40.4190 H   0  0  0  0  0  0  0  0  0  0  0  0
   43.6816   33.2610   39.0643 H   0  0  0  0  0  0  0  0  0  0  0  0
   44.0665   35.7207   39.9991 H   0  0  0  0  0  0  0  0  0  0  0  0
   40.4142   36.5676   40.0236 H   0  0  0  0  0  0  0  0  0  0  0  0
   41.8004   36.4163   38.8662 H   0  0  0  0  0  0  0  0  0  0  0  0
   39.5945   34.5254   39.4508 H   0  0  0  0  0  0  0  0  0  0  0  0
   41.5971   33.1726   40.5586 H   0  0  0  0  0  0  0  0  0  0  0  0
   42.8369   35.7207   38.1139 H   0  0  0  0  0  0  0  0  0  0  0  0
   41.4255   35.2675   37.4211 H   0  0  0  0  0  0  0  0  0  0  0  0
   45.9998   34.5928   40.2936 H   0  0  0  0  0  0  0  0  0  0  0  0
   45.9085   33.9401   45.1809 H   0  0  0  0  0  0  0  0  0  0  0  0
   48.2296   34.0290   40.6148 H   0  0  0  0  0  0  0  0  0  0  0  0
   49.6034   36.5690   40.7098 H   0  0  0  0  0  0  0  0  0  0  0  0
   48.7650   37.0912   41.8966 H   0  0  0  0  0  0  0  0  0  0  0  0
   49.6400   34.7146   43.3176 H   0  0  0  0  0  0  0  0  0  0  0  0
   50.6744   34.3464   42.2089 H   0  0  0  0  0  0  0  0  0  0  0  0
   39.4498   29.9154   39.6525 H   0  0  0  0  0  0  0  0  0  0  0  0
   37.8450   29.5429   41.4175 H   0  0  0  0  0  0  0  0  0  0  0  0
   36.9862   30.9263   42.1464 H   0  0  0  0  0  0  0  0  0  0  0  0
  1  6  1  0
  1  2  1  0
  2  3  1  0
  2  9  1  0
  4  3  1  0
  5  6  1  0
  5  4  1  0
  7  1  1  0
  8  5  1  0
  9 10  1  0
 10 15  1  0
 11 10  2  0
 11 12  1  0
 12 13  2  0
 13 14  1  0
 15 14  2  0
 16 17  1  0
 16 12  1  0
 16 18  1  0
 17 18  1  0
 19  6  1  0
 20 19  1  0
 20 24  1  0
 21 20  2  0
 23 22  2  0
 23 25  1  0
 24 23  1  0
 26 22  1  0
  1 27  1  6
  2 28  1  6
  4 29  1  0
  4 30  1  0
  5 31  1  6
  6 32  1  1
  7 33  1  0
  8 34  1  0
 11 35  1  0
 14 36  1  0
 16 37  1  0
 17 38  1  0
 17 39  1  0
 18 40  1  0
 18 41  1  0
 24 42  1  0
 25 43  1  0
 25 44  1  0
M  ISO  8  27  13  28  13  29  13  30  13  31  13  32  13  33   3  34   3
M  ISO  7  35  14  36  14  37  13  38  13  39  13  40  13  41  13
M  END
>  <minimizedAffinity>  (1) 
-6.57484818

>  <minimizedRMSD>  (1) 
1.68030965

$$$$
