
     RDKit          3D

 44 46  0  0  1  0  0  0  0  0999 V2000
   47.8580   32.9040   41.8440 C   0  0  1  0  0  0  0  0  0  0  0  0
   47.5480   32.2820   40.5570 C   0  0  0  0  0  0  0  0  0  0  0  0
   48.5790   32.8210   39.5700 C   0  0  0  0  0  0  0  0  0  0  0  0
   48.2470   34.2910   39.3530 C   0  0  0  0  0  0  0  0  0  0  0  0
   48.1700   35.0960   40.6130 C   0  0  0  0  0  0  0  0  0  0  0  0
   47.6600   34.4240   41.8160 C   0  0  1  0  0  0  0  0  0  0  0  0
   45.4340   30.9160   43.9580 C   0  0  0  0  0  0  0  0  0  0  0  0
   46.1250   31.4870   42.8790 C   0  0  0  0  0  0  0  0  0  0  0  0
   47.2100   32.3570   43.0170 C   0  0  0  0  0  0  0  0  0  0  0  0
   47.5720   32.6300   44.2710 N   0  0  0  0  0  0  0  0  0  0  0  0
   46.9150   32.0870   45.3310 C   0  0  0  0  0  0  0  0  0  0  0  0
   45.8840   31.2600   45.1920 N   0  0  0  0  0  0  0  0  0  0  0  0
   46.2790   34.7930   42.1260 C   0  0  0  0  0  0  0  0  0  0  0  0
   45.8350   35.3930   43.3140 C   0  0  0  0  0  0  0  0  0  0  0  0
   44.4680   35.6710   43.3780 C   0  0  0  0  0  0  0  0  0  0  0  0
   43.6830   35.3400   42.2910 C   0  0  0  0  0  0  0  0  0  0  0  0
   44.1430   34.7500   41.1330 C   0  0  0  0  0  0  0  0  0  0  0  0
   45.4790   34.4820   41.0780 N   0  0  0  0  0  0  0  0  0  0  0  0
   43.2360   34.4370   40.0210 C   0  0  0  0  0  0  0  0  0  0  0  0
   42.3190   35.2610   39.7600 O   0  0  0  0  0  0  0  0  0  0  0  0
   41.4150   33.9720   37.9130 N   0  0  0  0  0  0  0  0  0  0  0  0
   42.3400   33.1050   38.1490 C   0  0  0  0  0  0  0  0  0  0  0  0
   43.2960   33.2650   39.1930 N   0  0  0  0  0  0  0  0  0  0  0  0
   42.4210   31.9320   37.3420 N   0  0  0  0  0  0  0  0  0  0  0  0
   40.7230   33.8160   37.1270 H   0  0  0  0  0  0  0  0  0  0  0  0
   48.9217   32.6501   41.9624 H   0  0  0  0  0  0  0  0  0  0  0  0
   47.6271   31.1875   40.6326 H   0  0  0  0  0  0  0  0  0  0  0  0
   46.5221   32.5134   40.2345 H   0  0  0  0  0  0  0  0  0  0  0  0
   49.5922   32.7182   39.9857 H   0  0  0  0  0  0  0  0  0  0  0  0
   48.5497   32.2637   38.6221 H   0  0  0  0  0  0  0  0  0  0  0  0
   49.0253   34.7291   38.7109 H   0  0  0  0  0  0  0  0  0  0  0  0
   47.2474   34.3247   38.8952 H   0  0  0  0  0  0  0  0  0  0  0  0
   49.1860   35.4516   40.8397 H   0  0  0  0  0  0  0  0  0  0  0  0
   47.4333   35.8841   40.3980 H   0  0  0  0  0  0  0  0  0  0  0  0
   48.3010   34.8101   42.6223 H   0  0  0  0  0  0  0  0  0  0  0  0
   44.5831   30.2340   43.8138 H   0  0  0  0  0  0  0  0  0  0  0  0
   45.7923   31.2344   41.8614 H   0  0  0  0  0  0  0  0  0  0  0  0
   47.2513   32.3433   46.3465 H   0  0  0  0  0  0  0  0  0  0  0  0
   46.5197   35.6293   44.1418 H   0  0  0  0  0  0  0  0  0  0  0  0
   44.0283   36.1409   44.2701 H   0  0  0  0  0  0  0  0  0  0  0  0
   42.6080   35.5644   42.3540 H   0  0  0  0  0  0  0  0  0  0  0  0
   44.0202   32.5500   39.3518 H   0  0  0  0  0  0  0  0  0  0  0  0
   43.1558   31.2330   37.5217 H   0  0  0  0  0  0  0  0  0  0  0  0
   41.7447   31.7838   36.5794 H   0  0  0  0  0  0  0  0  0  0  0  0
  1  9  1  0
  2  1  1  0
  3  2  1  0
  4  3  1  0
  4  5  1  0
  5  6  1  0
  6  1  1  0
  6 13  1  0
  7 12  2  0
  8  9  2  0
  8  7  1  0
  9 10  1  0
 10 11  2  0
 12 11  1  0
 13 14  2  0
 14 15  1  0
 16 15  2  0
 17 16  1  0
 18 17  2  0
 18 13  1  0
 19 17  1  0
 20 19  2  0
 21 22  2  0
 22 23  1  0
 23 19  1  0
 24 22  1  0
 25 21  1  0
  1 26  1  1
  2 27  1  0
  2 28  1  0
  3 29  1  0
  3 30  1  0
  4 31  1  0
  4 32  1  0
  5 33  1  0
  5 34  1  0
  6 35  1  1
  7 36  1  0
  8 37  1  0
 11 38  1  0
 14 39  1  0
 15 40  1  0
 16 41  1  0
 23 42  1  0
 24 43  1  0
 24 44  1  0
M  ISO  8  26  13  27  13  28  13  29  13  30  13  31  13  32  13  33  13
M  ISO  8  34  13  35  13  36  14  37  14  38  14  39  14  40  14  41  14
M  END
>  <minimizedAffinity>  (1) 
-5.78123569

>  <minimizedRMSD>  (1) 
0.26990214

$$$$
