
     RDKit          3D

 43 45  0  0  0  0  0  0  0  0999 V2000
   44.3390   35.4950   41.5090 C   0  0  0  0  0  0  0  0  0  0  0  0
   43.2100   34.8960   40.8410 C   0  0  0  0  0  0  0  0  0  0  0  0
   42.5930   35.2440   39.6710 C   0  0  0  0  0  0  0  0  0  0  0  0
   41.5210   34.5970   39.0940 C   0  0  0  0  0  0  0  0  0  0  0  0
   41.0360   33.5030   39.7690 C   0  0  0  0  0  0  0  0  0  0  0  0
   41.6600   33.1670   40.9400 C   0  0  0  0  0  0  0  0  0  0  0  0
   42.6970   33.8050   41.4800 N   0  0  0  0  0  0  0  0  0  0  0  0
   38.1470   33.8850   40.0080 N   0  0  0  0  0  0  0  0  0  0  0  0
   38.6410   33.3220   38.9240 C   0  0  0  0  0  0  0  0  0  0  0  0
   39.9880   32.8600   39.0630 N   0  0  0  0  0  0  0  0  0  0  0  0
   37.8470   33.1970   37.7190 N   0  0  0  0  0  0  0  0  0  0  0  0
   37.1690   34.2310   39.9380 H   0  0  0  0  0  0  0  0  0  0  0  0
   41.0500   31.9810   41.6280 C   0  0  0  0  0  0  0  0  0  0  0  0
   39.8010   32.3240   42.1640 F   0  0  0  0  0  0  0  0  0  0  0  0
   41.8650   31.4320   42.5910 F   0  0  0  0  0  0  0  0  0  0  0  0
   40.8100   30.9800   40.6970 F   0  0  0  0  0  0  0  0  0  0  0  0
   44.3400   35.4570   42.9960 C   0  0  0  0  0  0  0  0  0  0  0  0
   47.3300   33.4020   43.6620 C   0  0  0  0  0  0  0  0  0  0  0  0
   47.1060   33.0960   44.9480 C   0  0  0  0  0  0  0  0  0  0  0  0
   45.5050   33.9650   45.2650 S   0  0  0  0  0  0  0  0  0  0  0  0
   45.4450   34.6010   43.5250 C   0  0  0  0  0  0  0  0  0  0  0  0
   46.4070   34.1430   43.1500 N   0  0  0  0  0  0  0  0  0  0  0  0
   50.6960   33.2230   41.9790 C   0  0  0  0  0  0  0  0  0  0  0  0
   49.6130   33.7410   42.7110 C   0  0  0  0  0  0  0  0  0  0  0  0
   48.5210   32.9360   42.9040 C   0  0  0  0  0  0  0  0  0  0  0  0
   48.5580   31.6600   42.3640 N   0  0  0  0  0  0  0  0  0  0  0  0
   49.6260   31.2230   41.6740 C   0  0  0  0  0  0  0  0  0  0  0  0
   50.6890   31.9950   41.4790 N   0  0  0  0  0  0  0  0  0  0  0  0
   49.7390   35.0590   43.1880 N   0  0  0  0  0  0  0  0  0  0  0  0
   44.3837   36.5508   41.2037 H   0  0  0  0  0  0  0  0  0  0  0  0
   45.2055   34.8886   41.2065 H   0  0  0  0  0  0  0  0  0  0  0  0
   42.9893   36.1225   39.1407 H   0  0  0  0  0  0  0  0  0  0  0  0
   41.0787   34.9376   38.1462 H   0  0  0  0  0  0  0  0  0  0  0  0
   40.2203   31.9683   38.6027 H   0  0  0  0  0  0  0  0  0  0  0  0
   36.8818   33.5561   37.6987 H   0  0  0  0  0  0  0  0  0  0  0  0
   38.2476   32.7490   36.8825 H   0  0  0  0  0  0  0  0  0  0  0  0
   44.4670   36.4804   43.3789 H   0  0  0  0  0  0  0  0  0  0  0  0
   43.3835   35.0280   43.3293 H   0  0  0  0  0  0  0  0  0  0  0  0
   47.7144   32.4881   45.6338 H   0  0  0  0  0  0  0  0  0  0  0  0
   51.5791   33.8581   41.8156 H   0  0  0  0  0  0  0  0  0  0  0  0
   49.6192   30.2032   41.2617 H   0  0  0  0  0  0  0  0  0  0  0  0
   48.9741   35.4859   43.7299 H   0  0  0  0  0  0  0  0  0  0  0  0
   50.5961   35.5967   42.9952 H   0  0  0  0  0  0  0  0  0  0  0  0
  1 17  1  0
  2  7  1  0
  2  1  1  0
  3  2  2  0
  4  3  1  0
  4  5  2  0
  5  6  1  0
  6  7  2  0
  6 13  1  0
  9 10  1  0
  9  8  2  0
 10  5  1  0
 11  9  1  0
 12  8  1  0
 13 14  1  0
 13 15  1  0
 16 13  1  0
 17 21  1  0
 18 19  2  0
 19 20  1  0
 21 20  1  0
 22 21  2  0
 22 18  1  0
 23 24  2  0
 24 25  1  0
 24 29  1  0
 25 18  1  0
 26 25  2  0
 27 26  1  0
 28 27  2  0
 28 23  1  0
  1 30  1  0
  1 31  1  0
  3 32  1  0
  4 33  1  0
 10 34  1  0
 11 35  1  0
 11 36  1  0
 17 37  1  0
 17 38  1  0
 19 39  1  0
 23 40  1  0
 27 41  1  0
 29 42  1  0
 29 43  1  0
M  ISO  8  30   8  31   8  32  14  33  14  37   8  38   8  39  14  40  14
M  ISO  1  41  14
M  END
>  <minimizedAffinity>  (1) 
-6.21201181

>  <minimizedRMSD>  (1) 
2.23357701

$$$$
