
     RDKit          3D

 21 22  0  0  0  0  0  0  0  0999 V2000
   45.6360   33.9650   45.4820 C   0  0  0  0  0  0  0  0  0  0  0  0
   44.7100   34.9820   45.7240 C   0  0  0  0  0  0  0  0  0  0  0  0
   44.5020   35.9290   44.6940 C   0  0  0  0  0  0  0  0  0  0  0  0
   45.2110   35.8030   43.5240 N   0  0  0  0  0  0  0  0  0  0  0  0
   46.0950   34.7890   43.3580 C   0  0  0  0  0  0  0  0  0  0  0  0
   46.3060   33.8890   44.3110 N   0  0  0  0  0  0  0  0  0  0  0  0
   46.8180   34.7060   42.0950 C   0  0  0  0  0  0  0  0  0  0  0  0
   48.0100   35.3960   41.9220 C   0  0  0  0  0  0  0  0  0  0  0  0
   48.7690   35.3860   40.7700 C   0  0  0  0  0  0  0  0  0  0  0  0
   48.2400   34.6040   39.7520 C   0  0  0  0  0  0  0  0  0  0  0  0
   47.0520   33.9060   39.9030 C   0  0  0  0  0  0  0  0  0  0  0  0
   46.3360   33.9540   41.0780 N   0  0  0  0  0  0  0  0  0  0  0  0
   45.8700   32.9730   46.5260 C   0  0  0  0  0  0  0  0  0  0  0  0
   45.1670   32.9500   47.5680 O   0  0  0  0  0  0  0  0  0  0  0  0
   44.1644   35.0441   46.6771 H   0  0  0  0  0  0  0  0  0  0  0  0
   43.7848   36.7523   44.8276 H   0  0  0  0  0  0  0  0  0  0  0  0
   48.3772   35.9962   42.7675 H   0  0  0  0  0  0  0  0  0  0  0  0
   49.7093   35.9474   40.6672 H   0  0  0  0  0  0  0  0  0  0  0  0
   48.7803   34.5363   38.7962 H   0  0  0  0  0  0  0  0  0  0  0  0
   46.6732   33.3008   39.0662 H   0  0  0  0  0  0  0  0  0  0  0  0
   46.6744   32.2334   46.3994 H   0  0  0  0  0  0  0  0  0  0  0  0
  1  2  2  0
  1 13  1  0
  3  2  1  0
  4  3  2  0
  5  4  1  0
  5  6  2  0
  6  1  1  0
  7  5  1  0
  8  7  2  0
  9  8  1  0
 10 11  1  0
 10  9  2  0
 11 12  2  0
 12  7  1  0
 13 14  2  0
  2 15  1  0
  3 16  1  0
  8 17  1  0
  9 18  1  0
 10 19  1  0
 11 20  1  0
 13 21  1  0
M  ISO  7  15  14  16  14  17  14  18  14  19  14  20  14  21   6
M  END
>  <minimizedAffinity>  (1) 
-5.04842043

>  <minimizedRMSD>  (1) 
0.0983543545

$$$$
