
     RDKit          3D

 32 33  0  0  0  0  0  0  0  0999 V2000
   44.4440   35.3990   42.6150 O   0  0  0  0  0  0  0  0  0  0  0  0
   46.5210   34.3590   43.0210 C   0  0  0  0  0  0  0  0  0  0  0  0
   45.2820   34.7270   43.4890 C   0  0  0  0  0  0  0  0  0  0  0  0
   44.9580   34.3920   44.8240 C   0  0  0  0  0  0  0  0  0  0  0  0
   45.8930   33.7350   45.5380 N   0  0  0  0  0  0  0  0  0  0  0  0
   47.0800   33.3920   45.0620 C   0  0  0  0  0  0  0  0  0  0  0  0
   47.4020   33.7040   43.7950 N   0  0  0  0  0  0  0  0  0  0  0  0
   46.9260   34.6730   41.6450 C   0  0  0  0  0  0  0  0  0  0  0  0
   48.2750   35.3310   41.6660 C   0  0  0  0  0  0  0  0  0  0  0  0
   43.6970   34.8520   40.1480 O   0  0  0  0  0  0  0  0  0  0  0  0
   43.2740   34.6970   41.5990 P   0  0  1  0  0  0  0  0  0  0  0  0
   43.1910   33.0480   41.9720 O   0  0  0  0  0  0  0  0  0  0  0  0
   41.7320   35.3430   41.8240 O   0  0  0  0  0  0  0  0  0  0  0  0
   40.6390   34.6820   41.2710 C   0  0  0  0  0  0  0  0  0  0  0  0
   39.9400   35.3760   40.2830 C   0  0  0  0  0  0  0  0  0  0  0  0
   38.8280   34.7870   39.6720 C   0  0  0  0  0  0  0  0  0  0  0  0
   38.4520   33.5460   40.0560 N   0  0  0  0  0  0  0  0  0  0  0  0
   39.1390   32.9040   41.0040 C   0  0  0  0  0  0  0  0  0  0  0  0
   40.1970   33.4440   41.5970 N   0  0  0  0  0  0  0  0  0  0  0  0
   38.6960   31.5690   41.3860 C   0  0  0  0  0  0  0  0  0  0  0  0
   37.5590   31.0920   41.2390 O   0  0  0  0  0  0  0  0  0  0  0  0
   43.9839   34.6565   45.2612 H   0  0  0  0  0  0  0  0  0  0  0  0
   47.7980   32.8551   45.6994 H   0  0  0  0  0  0  0  0  0  0  0  0
   46.1912   35.3545   41.1915 H   0  0  0  0  0  0  0  0  0  0  0  0
   46.9755   33.7468   41.0537 H   0  0  0  0  0  0  0  0  0  0  0  0
   48.5915   35.4854   42.7081 H   0  0  0  0  0  0  0  0  0  0  0  0
   49.0048   34.6877   41.1526 H   0  0  0  0  0  0  0  0  0  0  0  0
   48.2173   36.3021   41.1526 H   0  0  0  0  0  0  0  0  0  0  0  0
   43.1852   32.9319   42.9552 H   0  0  0  0  0  0  0  0  0  0  0  0
   40.2627   36.3845   39.9850 H   0  0  0  0  0  0  0  0  0  0  0  0
   38.2686   35.3244   38.8921 H   0  0  0  0  0  0  0  0  0  0  0  0
   39.4475   30.9157   41.8534 H   0  0  0  0  0  0  0  0  0  0  0  0
  1  3  1  0
  2  3  2  0
  2  7  1  0
  3  4  1  0
  4  5  2  0
  6  5  1  0
  7  6  2  0
  8  9  1  0
  8  2  1  0
 11 10  2  0
 11 13  1  0
 11 12  1  0
 11  1  1  0
 14 19  1  0
 14 13  1  0
 15 14  2  0
 16 17  2  0
 16 15  1  0
 17 18  1  0
 18 20  1  0
 18 19  2  0
 21 20  2  0
  4 22  1  0
  6 23  1  0
  8 24  1  0
  8 25  1  0
  9 26  1  0
  9 27  1  0
  9 28  1  0
 12 29  1  0
 15 30  1  0
 16 31  1  0
 20 32  1  0
M  ISO  8  22  14  23  14  24   8  25   8  26   8  27   8  28   8  29   3
M  ISO  3  30  14  31  14  32   6
M  END
>  <minimizedAffinity>  (1) 
-5.19479084

>  <minimizedRMSD>  (1) 
0.240626529

$$$$
