
     RDKit          3D

 25 26  0  0  0  0  0  0  0  0999 V2000
   45.9880   29.8260   44.8900 Br  0  0  0  0  0  0  0  0  0  0  0  0
   45.8160   30.5590   46.6700 C   0  0  0  0  0  0  0  0  0  0  0  0
   46.3620   31.8030   46.8590 C   0  0  0  0  0  0  0  0  0  0  0  0
   46.2210   32.3110   48.1660 C   0  0  0  0  0  0  0  0  0  0  0  0
   45.5860   31.6170   49.1760 C   0  0  0  0  0  0  0  0  0  0  0  0
   45.0630   30.3730   48.9060 C   0  0  0  0  0  0  0  0  0  0  0  0
   45.1760   29.8330   47.6440 C   0  0  0  0  0  0  0  0  0  0  0  0
   47.0580   32.6400   45.8780 C   0  0  0  0  0  0  0  0  0  0  0  0
   44.4980   35.3070   45.4120 C   0  0  0  0  0  0  0  0  0  0  0  0
   44.7000   35.6900   44.0830 C   0  0  0  0  0  0  0  0  0  0  0  0
   45.7100   35.0210   43.3850 C   0  0  0  0  0  0  0  0  0  0  0  0
   46.4400   34.0570   43.9870 N   0  0  0  0  0  0  0  0  0  0  0  0
   46.2010   33.7140   45.3050 C   0  0  0  0  0  0  0  0  0  0  0  0
   45.2350   34.3540   45.9750 N   0  0  0  0  0  0  0  0  0  0  0  0
   44.6200   28.5140   47.3680 C   0  0  0  0  0  0  0  0  0  0  0  0
   44.8360   27.5550   48.1500 O   0  0  0  0  0  0  0  0  0  0  0  0
   46.6354   33.3047   48.3912 H   0  0  0  0  0  0  0  0  0  0  0  0
   45.4992   32.0521   50.1826 H   0  0  0  0  0  0  0  0  0  0  0  0
   44.5532   29.8083   49.7005 H   0  0  0  0  0  0  0  0  0  0  0  0
   47.9226   33.1090   46.3704 H   0  0  0  0  0  0  0  0  0  0  0  0
   47.3584   31.9853   45.0467 H   0  0  0  0  0  0  0  0  0  0  0  0
   43.7145   35.8033   46.0034 H   0  0  0  0  0  0  0  0  0  0  0  0
   44.0951   36.4778   43.6103 H   0  0  0  0  0  0  0  0  0  0  0  0
   45.9120   35.2822   42.3357 H   0  0  0  0  0  0  0  0  0  0  0  0
   44.0068   28.3574   46.4683 H   0  0  0  0  0  0  0  0  0  0  0  0
  1  2  1  0
  2  3  2  0
  2  7  1  0
  3  4  1  0
  4  5  2  0
  6  5  1  0
  7  6  2  0
  8  3  1  0
  9 14  2  0
 10  9  1  0
 11 12  1  0
 11 10  2  0
 12 13  2  0
 13  8  1  0
 13 14  1  0
 15  7  1  0
 15 16  2  0
  4 17  1  0
  5 18  1  0
  6 19  1  0
  8 20  1  0
  8 21  1  0
  9 22  1  0
 10 23  1  0
 11 24  1  0
 15 25  1  0
M  ISO  8  17  14  18  14  19  14  20   8  21   8  22  14  23  14  24  14
M  ISO  1  25   6
M  END
>  <minimizedAffinity>  (1) 
-4.63067007

>  <minimizedRMSD>  (1) 
0.454169095

$$$$
