
     RDKit          3D

 31 33  0  0  0  0  0  0  0  0999 V2000
   47.4680   32.8120   43.9470 C   0  0  0  0  0  0  0  0  0  0  0  0
   48.3150   33.3490   43.0580 C   0  0  0  0  0  0  0  0  0  0  0  0
   49.1640   32.4440   42.4550 C   0  0  0  0  0  0  0  0  0  0  0  0
   49.0680   31.0920   42.8180 N   0  0  0  0  0  0  0  0  0  0  0  0
   48.2140   30.6360   43.7010 C   0  0  0  0  0  0  0  0  0  0  0  0
   47.3460   31.5120   44.3240 N   0  0  0  0  0  0  0  0  0  0  0  0
   48.4870   34.7310   42.7830 C   0  0  0  0  0  0  0  0  0  0  0  0
   49.5220   35.3450   42.1500 C   0  0  0  0  0  0  0  0  0  0  0  0
   48.3110   35.1860   41.2720 C   0  0  0  0  0  0  0  0  0  0  0  0
   46.3960   33.5160   44.6650 C   0  0  0  0  0  0  0  0  0  0  0  0
   45.8250   33.8790   45.6630 O   0  0  0  0  0  0  0  0  0  0  0  0
   44.5570   31.7190   42.9650 Cl  0  0  0  0  0  0  0  0  0  0  0  0
   44.5900   33.4770   42.8020 C   0  0  0  0  0  0  0  0  0  0  0  0
   45.4860   34.1430   43.6650 C   0  0  0  0  0  0  0  0  0  0  0  0
   45.4320   35.5130   43.4550 C   0  0  0  0  0  0  0  0  0  0  0  0
   44.6920   36.2230   42.5940 C   0  0  0  0  0  0  0  0  0  0  0  0
   43.8520   35.5010   41.7930 C   0  0  0  0  0  0  0  0  0  0  0  0
   43.7870   34.1570   41.8810 C   0  0  0  0  0  0  0  0  0  0  0  0
   42.9090   33.3240   41.0570 C   0  0  0  0  0  0  0  0  0  0  0  0
   41.7020   33.1880   41.2910 O   0  0  0  0  0  0  0  0  0  0  0  0
   49.8994   32.7748   41.7068 H   0  0  0  0  0  0  0  0  0  0  0  0
   48.1883   29.5636   43.9445 H   0  0  0  0  0  0  0  0  0  0  0  0
   48.0570   34.9223   43.7772 H   0  0  0  0  0  0  0  0  0  0  0  0
   49.8139   36.3558   42.4710 H   0  0  0  0  0  0  0  0  0  0  0  0
   50.5731   35.0528   42.0097 H   0  0  0  0  0  0  0  0  0  0  0  0
   47.6824   36.0484   41.0053 H   0  0  0  0  0  0  0  0  0  0  0  0
   48.0528   34.7339   40.3030 H   0  0  0  0  0  0  0  0  0  0  0  0
   46.1003   36.1082   44.0946 H   0  0  0  0  0  0  0  0  0  0  0  0
   44.7561   37.3195   42.5349 H   0  0  0  0  0  0  0  0  0  0  0  0
   43.2176   36.0258   41.0635 H   0  0  0  0  0  0  0  0  0  0  0  0
   43.3409   32.7969   40.1935 H   0  0  0  0  0  0  0  0  0  0  0  0
  1  6  1  0
  1 10  1  0
  2  1  2  0
  3  4  2  0
  3  2  1  0
  4  5  1  0
  5  6  2  0
  7  2  1  0
  8  7  1  0
  9  8  1  0
  9  7  1  0
 10 11  2  0
 13 12  1  0
 13 14  2  0
 14 10  1  0
 15 14  1  0
 16 15  2  0
 17 18  2  0
 17 16  1  0
 18 13  1  0
 19 20  2  0
 19 18  1  0
  3 21  1  0
  5 22  1  0
  7 23  1  0
  8 24  1  0
  8 25  1  0
  9 26  1  0
  9 27  1  0
 15 28  1  0
 16 29  1  0
 17 30  1  0
 19 31  1  0
M  ISO  8  21  14  22  14  23  13  24  13  25  13  26  13  27  13  28  14
M  ISO  3  29  14  30  14  31   6
M  END
>  <minimizedAffinity>  (1) 
-4.99142838

>  <minimizedRMSD>  (1) 
0.219751939

$$$$
