
     RDKit          3D

 23 24  0  0  0  0  0  0  0  0999 V2000
   44.5560   35.3350   45.4120 C   0  0  0  0  0  0  0  0  0  0  0  0
   45.2180   35.2390   44.1990 C   0  0  0  0  0  0  0  0  0  0  0  0
   46.1700   34.2260   43.9980 C   0  0  0  0  0  0  0  0  0  0  0  0
   46.3880   33.3700   45.0520 N   0  0  0  0  0  0  0  0  0  0  0  0
   45.7320   33.4880   46.2130 C   0  0  0  0  0  0  0  0  0  0  0  0
   44.8250   34.4610   46.3910 N   0  0  0  0  0  0  0  0  0  0  0  0
   46.0080   32.5520   47.2890 C   0  0  0  0  0  0  0  0  0  0  0  0
   47.2490   32.0920   47.5770 C   0  0  0  0  0  0  0  0  0  0  0  0
   47.5180   31.2060   48.5910 C   0  0  0  0  0  0  0  0  0  0  0  0
   46.4670   30.7910   49.3240 N   0  0  0  0  0  0  0  0  0  0  0  0
   45.2440   31.2450   49.0410 C   0  0  0  0  0  0  0  0  0  0  0  0
   44.9450   32.1100   48.0550 N   0  0  0  0  0  0  0  0  0  0  0  0
   44.9100   36.1950   43.1510 C   0  0  0  0  0  0  0  0  0  0  0  0
   44.2100   35.7790   42.1870 O   0  0  0  0  0  0  0  0  0  0  0  0
   45.2590   37.5430   43.0040 O   0  0  0  0  0  0  0  0  0  0  0  0
   45.2830   38.4200   44.0530 C   0  0  0  0  0  0  0  0  0  0  0  0
   45.4410   39.6610   43.8490 O   0  0  0  0  0  0  0  0  0  0  0  0
   43.8104   36.1279   45.5712 H   0  0  0  0  0  0  0  0  0  0  0  0
   46.7130   34.1227   43.0469 H   0  0  0  0  0  0  0  0  0  0  0  0
   48.0895   32.4486   46.9635 H   0  0  0  0  0  0  0  0  0  0  0  0
   48.5398   30.8531   48.7943 H   0  0  0  0  0  0  0  0  0  0  0  0
   44.4134   30.8825   49.6645 H   0  0  0  0  0  0  0  0  0  0  0  0
   45.1644   38.0460   45.0806 H   0  0  0  0  0  0  0  0  0  0  0  0
  1  6  2  0
  2  1  1  0
  3  2  2  0
  3  4  1  0
  4  5  2  0
  5  6  1  0
  5  7  1  0
  7  8  2  0
  7 12  1  0
  8  9  1  0
  9 10  2  0
 11 10  1  0
 12 11  2  0
 13  2  1  0
 14 13  2  0
 15 13  1  0
 15 16  1  0
 17 16  2  0
  1 18  1  0
  3 19  1  0
  8 20  1  0
  9 21  1  0
 11 22  1  0
 16 23  1  0
M  ISO  6  18  14  19  14  20  14  21  14  22  14  23   6
M  END
>  <minimizedAffinity>  (1) 
-4.52378941

>  <minimizedRMSD>  (1) 
1.03607023

$$$$
