
     RDKit          3D

 26 28  0  0  0  0  0  0  0  0999 V2000
   47.9040   35.1970   42.0130 C   0  0  0  0  0  0  0  0  0  0  0  0
   46.6540   34.6340   42.1340 C   0  0  0  0  0  0  0  0  0  0  0  0
   46.0940   34.0140   41.0340 C   0  0  0  0  0  0  0  0  0  0  0  0
   46.7430   33.9420   39.8170 C   0  0  0  0  0  0  0  0  0  0  0  0
   46.4100   33.4040   38.6270 N   0  0  0  0  0  0  0  0  0  0  0  0
   47.4340   33.6180   37.7500 C   0  0  0  0  0  0  0  0  0  0  0  0
   48.3870   34.2910   38.4230 N   0  0  0  0  0  0  0  0  0  0  0  0
   47.9900   34.5020   39.6900 C   0  0  0  0  0  0  0  0  0  0  0  0
   48.5690   35.1290   40.7870 C   0  0  0  0  0  0  0  0  0  0  0  0
   45.4510   34.0190   45.6580 C   0  0  0  0  0  0  0  0  0  0  0  0
   46.1460   33.8180   44.4460 C   0  0  0  0  0  0  0  0  0  0  0  0
   45.9950   34.7270   43.4260 C   0  0  0  0  0  0  0  0  0  0  0  0
   45.1740   35.7920   43.6290 N   0  0  0  0  0  0  0  0  0  0  0  0
   44.5110   35.9760   44.7950 C   0  0  0  0  0  0  0  0  0  0  0  0
   44.6550   35.0930   45.7940 N   0  0  0  0  0  0  0  0  0  0  0  0
   45.6020   33.1050   46.6800 O   0  0  0  0  0  0  0  0  0  0  0  0
   46.8990   32.5840   46.8460 C   0  0  0  0  0  0  0  0  0  0  0  0
   47.5610   32.5910   47.9130 O   0  0  0  0  0  0  0  0  0  0  0  0
   48.3745   35.6955   42.8733 H   0  0  0  0  0  0  0  0  0  0  0  0
   45.0960   33.5617   41.1307 H   0  0  0  0  0  0  0  0  0  0  0  0
   45.5297   32.9132   38.4147 H   0  0  0  0  0  0  0  0  0  0  0  0
   47.4732   33.3019   36.6971 H   0  0  0  0  0  0  0  0  0  0  0  0
   49.5677   35.5792   40.6878 H   0  0  0  0  0  0  0  0  0  0  0  0
   46.8012   32.9436   44.3191 H   0  0  0  0  0  0  0  0  0  0  0  0
   43.8545   36.8493   44.9229 H   0  0  0  0  0  0  0  0  0  0  0  0
   47.3744   32.1309   45.9636 H   0  0  0  0  0  0  0  0  0  0  0  0
  1  2  2  0
  2 12  1  0
  3  2  1  0
  4  3  2  0
  5  4  1  0
  6  7  2  0
  6  5  1  0
  7  8  1  0
  8  4  1  0
  8  9  2  0
  9  1  1  0
 10 15  2  0
 10 16  1  0
 11 10  1  0
 12 13  1  0
 12 11  2  0
 13 14  2  0
 14 15  1  0
 16 17  1  0
 17 18  2  0
  1 19  1  0
  3 20  1  0
  5 21  1  0
  6 22  1  0
  9 23  1  0
 11 24  1  0
 14 25  1  0
 17 26  1  0
M  ISO  8  19  14  20  14  21   9  22  14  23  14  24  14  25  14  26   6
M  END
>  <minimizedAffinity>  (1) 
-5.89178228

>  <minimizedRMSD>  (1) 
2.36998463

$$$$
