
     RDKit          3D

 36 38  0  0  1  0  0  0  0  0999 V2000
   49.5740   33.4480   41.4960 N   0  0  0  0  0  0  0  0  0  0  0  0
   50.7320   33.0800   42.2650 C   0  0  0  0  0  0  0  0  0  0  0  0
   51.3090   31.7370   41.9260 C   0  0  0  0  0  0  0  0  0  0  0  0
   50.3230   30.6570   42.2930 C   0  0  0  0  0  0  0  0  0  0  0  0
   48.9050   31.1210   42.0680 C   0  0  0  0  0  0  0  0  0  0  0  0
   48.9030   32.2430   41.0640 C   0  0  2  0  0  0  0  0  0  0  0  0
   47.3480   34.6550   41.9980 C   0  0  1  0  0  0  0  0  0  0  0  0
   48.4120   35.6120   41.7210 C   0  0  0  0  0  0  0  0  0  0  0  0
   48.7800   34.3020   42.3280 C   0  0  2  0  0  0  0  0  0  0  0  0
   45.5770   36.0280   43.1270 C   0  0  0  0  0  0  0  0  0  0  0  0
   46.4000   34.8680   43.1110 C   0  0  0  0  0  0  0  0  0  0  0  0
   46.2800   33.9640   44.1630 C   0  0  0  0  0  0  0  0  0  0  0  0
   45.3840   34.2450   45.1380 N   0  0  0  0  0  0  0  0  0  0  0  0
   44.6090   35.3440   45.1470 C   0  0  0  0  0  0  0  0  0  0  0  0
   44.6980   36.2500   44.1360 N   0  0  0  0  0  0  0  0  0  0  0  0
   49.3650   31.7500   39.7970 N   0  0  0  0  0  0  0  0  0  0  0  0
   48.9370   32.4840   38.6550 C   0  0  0  0  0  0  0  0  0  0  0  0
   48.1950   33.5260   38.5870 O   0  0  0  0  0  0  0  0  0  0  0  0
   51.5100   33.8394   42.0975 H   0  0  0  0  0  0  0  0  0  0  0  0
   50.4031   33.0212   43.3130 H   0  0  0  0  0  0  0  0  0  0  0  0
   51.5189   31.6902   40.8472 H   0  0  0  0  0  0  0  0  0  0  0  0
   52.2421   31.5871   42.4889 H   0  0  0  0  0  0  0  0  0  0  0  0
   50.5139   29.7693   41.6720 H   0  0  0  0  0  0  0  0  0  0  0  0
   50.4480   30.4155   43.3589 H   0  0  0  0  0  0  0  0  0  0  0  0
   48.3008   30.2849   41.6861 H   0  0  0  0  0  0  0  0  0  0  0  0
   48.4776   31.4751   43.0177 H   0  0  0  0  0  0  0  0  0  0  0  0
   47.8617   32.5800   40.9538 H   0  0  0  0  0  0  0  0  0  0  0  0
   46.5434   34.2145   41.3909 H   0  0  0  0  0  0  0  0  0  0  0  0
   48.6930   35.8287   40.6798 H   0  0  0  0  0  0  0  0  0  0  0  0
   48.5905   36.6623   41.9949 H   0  0  0  0  0  0  0  0  0  0  0  0
   49.2622   33.9129   43.2369 H   0  0  0  0  0  0  0  0  0  0  0  0
   45.6547   36.7574   42.3073 H   0  0  0  0  0  0  0  0  0  0  0  0
   46.8931   33.0515   44.2006 H   0  0  0  0  0  0  0  0  0  0  0  0
   43.9020   35.5107   45.9731 H   0  0  0  0  0  0  0  0  0  0  0  0
   49.9676   30.9183   39.7195 H   0  0  0  0  0  0  0  0  0  0  0  0
   49.2962   32.1000   37.6888 H   0  0  0  0  0  0  0  0  0  0  0  0
  1  2  1  0
  1  9  1  0
  3  2  1  0
  3  4  1  0
  5  4  1  0
  6  1  1  0
  6  5  1  0
  7  9  1  0
  7 11  1  0
  8  7  1  0
  8  9  1  0
 10 15  2  0
 11 10  1  0
 11 12  2  0
 12 13  1  0
 13 14  2  0
 15 14  1  0
 16  6  1  0
 17 16  1  0
 18 17  2  0
  2 19  1  0
  2 20  1  0
  3 21  1  0
  3 22  1  0
  4 23  1  0
  4 24  1  0
  5 25  1  0
  5 26  1  0
  6 27  1  6
  7 28  1  6
  8 29  1  0
  8 30  1  0
  9 31  1  1
 10 32  1  0
 12 33  1  0
 14 34  1  0
 16 35  1  0
 17 36  1  0
M  ISO  8  19  13  20  13  21  13  22  13  23  13  24  13  25  13  26  13
M  ISO  8  27  13  28  13  29  13  30  13  31  13  32  14  33  14  34  14
M  ISO  1  36   6
M  END
>  <minimizedAffinity>  (1) 
-4.74045563

>  <minimizedRMSD>  (1) 
0.867134809

$$$$
