
     RDKit          3D

 31 32  0  0  0  0  0  0  0  0999 V2000
   45.6150   29.9150   44.8010 Br  0  0  0  0  0  0  0  0  0  0  0  0
   45.6610   30.5840   46.6100 C   0  0  0  0  0  0  0  0  0  0  0  0
   46.3350   31.7600   46.7900 C   0  0  0  0  0  0  0  0  0  0  0  0
   46.3550   32.2250   48.1110 C   0  0  0  0  0  0  0  0  0  0  0  0
   45.7510   31.5660   49.1520 C   0  0  0  0  0  0  0  0  0  0  0  0
   45.0910   30.3910   48.8990 C   0  0  0  0  0  0  0  0  0  0  0  0
   45.0420   29.8880   47.6130 C   0  0  0  0  0  0  0  0  0  0  0  0
   47.0210   32.5620   45.7770 C   0  0  0  0  0  0  0  0  0  0  0  0
   44.5350   35.3190   45.4040 C   0  0  0  0  0  0  0  0  0  0  0  0
   44.7510   35.7200   44.0900 C   0  0  0  0  0  0  0  0  0  0  0  0
   45.7310   35.0600   43.3430 C   0  0  0  0  0  0  0  0  0  0  0  0
   46.4180   34.0640   43.9360 N   0  0  0  0  0  0  0  0  0  0  0  0
   46.2070   33.6690   45.2270 C   0  0  0  0  0  0  0  0  0  0  0  0
   45.2480   34.3310   45.9230 N   0  0  0  0  0  0  0  0  0  0  0  0
   44.3700   28.6910   47.3590 O   0  0  0  0  0  0  0  0  0  0  0  0
   44.2760   26.1100   46.9830 O   0  0  0  0  0  0  0  0  0  0  0  0
   44.9280   27.1770   47.8580 P   0  0  2  0  0  0  0  0  0  0  0  0
   44.5430   26.9540   49.4580 O   0  0  0  0  0  0  0  0  0  0  0  0
   46.6040   27.0200   47.6220 O   0  0  0  0  0  0  0  0  0  0  0  0
   47.1230   26.1490   46.6870 C   0  0  0  0  0  0  0  0  0  0  0  0
   47.3190   26.7780   45.6150 O   0  0  0  0  0  0  0  0  0  0  0  0
   46.8818   33.1666   48.3249 H   0  0  0  0  0  0  0  0  0  0  0  0
   45.7955   31.9736   50.1727 H   0  0  0  0  0  0  0  0  0  0  0  0
   44.6002   29.8484   49.7204 H   0  0  0  0  0  0  0  0  0  0  0  0
   47.9258   32.9918   46.2316 H   0  0  0  0  0  0  0  0  0  0  0  0
   47.2455   31.8871   44.9378 H   0  0  0  0  0  0  0  0  0  0  0  0
   43.7706   35.8234   46.0133 H   0  0  0  0  0  0  0  0  0  0  0  0
   44.1636   36.5385   43.6483 H   0  0  0  0  0  0  0  0  0  0  0  0
   45.9355   35.3456   42.3006 H   0  0  0  0  0  0  0  0  0  0  0  0
   45.2446   27.3604   50.0260 H   0  0  0  0  0  0  0  0  0  0  0  0
   47.3311   25.0814   46.8512 H   0  0  0  0  0  0  0  0  0  0  0  0
  1  2  1  0
  2  3  2  0
  2  7  1  0
  3  4  1  0
  4  5  2  0
  6  5  1  0
  7  6  2  0
  8  3  1  0
  9 14  2  0
 10  9  1  0
 11 12  1  0
 11 10  2  0
 12 13  2  0
 13  8  1  0
 13 14  1  0
 15  7  1  0
 15 17  1  0
 17 16  2  0
 17 18  1  0
 19 17  1  0
 20 19  1  0
 21 20  2  0
  4 22  1  0
  5 23  1  0
  6 24  1  0
  8 25  1  0
  8 26  1  0
  9 27  1  0
 10 28  1  0
 11 29  1  0
 18 30  1  0
 20 31  1  0
M  ISO  8  22  14  23  14  24  14  25   8  26   8  27  14  28  14  29  14
M  ISO  2  30   3  31   6
M  END
>  <minimizedAffinity>  (1) 
-4.70047426

>  <minimizedRMSD>  (1) 
0.322011799

$$$$
