
     RDKit          3D

 36 38  0  0  1  0  0  0  0  0999 V2000
   46.1550   32.0320   40.0000 C   0  0  0  0  0  0  0  0  0  0  0  0
   47.2180   32.7470   40.3820 C   0  0  0  0  0  0  0  0  0  0  0  0
   47.1470   33.5550   41.5450 N   0  0  0  0  0  0  0  0  0  0  0  0
   47.7670   34.0970   42.6920 C   0  0  0  0  0  0  0  0  0  0  0  0
   48.9440   34.0950   43.1720 O   0  0  0  0  0  0  0  0  0  0  0  0
   46.5630   34.7170   43.2240 C   0  0  1  0  0  0  0  0  0  0  0  0
   45.9320   34.2630   41.9270 C   0  0  2  0  0  0  0  0  0  0  0  0
   44.6310   33.0360   42.0630 S   0  0  0  0  0  0  0  0  0  0  0  0
   44.8230   31.9460   40.6580 C   0  0  0  0  0  0  0  0  0  0  0  0
   46.0830   34.0910   44.4430 C   0  0  0  0  0  0  0  0  0  0  0  0
   45.0710   34.2660   45.1480 O   0  0  0  0  0  0  0  0  0  0  0  0
   46.9560   33.0530   44.9390 N   0  0  0  0  0  0  0  0  0  0  0  0
   46.8370   31.9990   48.4940 C   0  0  0  0  0  0  0  0  0  0  0  0
   47.1390   32.7500   47.3560 C   0  0  0  0  0  0  0  0  0  0  0  0
   46.6590   32.3430   46.1280 C   0  0  0  0  0  0  0  0  0  0  0  0
   45.9090   31.2300   46.0650 N   0  0  0  0  0  0  0  0  0  0  0  0
   45.6210   30.5040   47.1850 C   0  0  0  0  0  0  0  0  0  0  0  0
   46.0890   30.9010   48.3750 N   0  0  0  0  0  0  0  0  0  0  0  0
   46.3570   31.2340   38.7670 C   0  0  0  0  0  0  0  0  0  0  0  0
   48.4650   32.7210   39.6330 C   0  0  0  0  0  0  0  0  0  0  0  0
   49.4850   32.1000   40.0680 O   0  0  0  0  0  0  0  0  0  0  0  0
   48.8430   33.2690   38.4330 O   0  0  0  0  0  0  0  0  0  0  0  0
   48.3000   34.3290   37.7750 C   0  0  0  0  0  0  0  0  0  0  0  0
   47.3490   34.1030   36.9900 O   0  0  0  0  0  0  0  0  0  0  0  0
   46.4913   35.7589   43.5695 H   0  0  0  0  0  0  0  0  0  0  0  0
   45.4573   35.0485   41.3207 H   0  0  0  0  0  0  0  0  0  0  0  0
   44.0534   32.2016   39.9148 H   0  0  0  0  0  0  0  0  0  0  0  0
   44.7224   30.9185   41.0375 H   0  0  0  0  0  0  0  0  0  0  0  0
   47.8136   32.8239   44.4165 H   0  0  0  0  0  0  0  0  0  0  0  0
   47.2127   32.3102   49.4799 H   0  0  0  0  0  0  0  0  0  0  0  0
   47.7542   33.6582   47.4379 H   0  0  0  0  0  0  0  0  0  0  0  0
   45.0060   29.5951   47.1098 H   0  0  0  0  0  0  0  0  0  0  0  0
   46.6186   30.2005   39.0379 H   0  0  0  0  0  0  0  0  0  0  0  0
   45.4304   31.2343   38.1741 H   0  0  0  0  0  0  0  0  0  0  0  0
   47.1718   31.6751   38.1741 H   0  0  0  0  0  0  0  0  0  0  0  0
   48.6823   35.3492   37.9266 H   0  0  0  0  0  0  0  0  0  0  0  0
  1  2  2  0
  1  9  1  0
  2  3  1  0
  3  7  1  0
  3  4  1  0
  4  5  2  0
  4  6  1  0
  6 10  1  0
  7  8  1  0
  7  6  1  0
  9  8  1  0
 10 12  1  0
 10 11  2  0
 12 15  1  0
 14 13  2  0
 15 14  1  0
 16 15  2  0
 16 17  1  0
 17 18  2  0
 18 13  1  0
 19  1  1  0
 20 21  2  0
 20  2  1  0
 22 20  1  0
 23 22  1  0
 24 23  2  0
  6 25  1  1
  7 26  1  6
  9 27  1  0
  9 28  1  0
 12 29  1  0
 13 30  1  0
 14 31  1  0
 17 32  1  0
 19 33  1  0
 19 34  1  0
 19 35  1  0
 23 36  1  0
M  ISO  8  25  13  26  13  27  13  28  13  30  14  31  14  32  14  33   8
M  ISO  3  34   8  35   8  36   6
M  END
>  <minimizedAffinity>  (1) 
-4.70578098

>  <minimizedRMSD>  (1) 
4.08537483

$$$$
