
     RDKit          3D

 22 23  0  0  1  0  0  0  0  0999 V2000
   47.5790   33.2730   41.2240 C   0  0  1  0  0  0  0  0  0  0  0  0
   47.2410   34.1270   40.1040 C   0  0  0  0  0  0  0  0  0  0  0  0
   48.5610   34.3410   40.7510 C   0  0  1  0  0  0  0  0  0  0  0  0
   45.6360   34.0690   42.6660 C   0  0  0  0  0  0  0  0  0  0  0  0
   46.9300   33.4630   42.5410 C   0  0  0  0  0  0  0  0  0  0  0  0
   47.5570   33.0730   43.7100 C   0  0  0  0  0  0  0  0  0  0  0  0
   46.9200   33.2840   44.9010 N   0  0  0  0  0  0  0  0  0  0  0  0
   45.7200   33.8490   44.9820 C   0  0  0  0  0  0  0  0  0  0  0  0
   45.0760   34.2440   43.8580 N   0  0  0  0  0  0  0  0  0  0  0  0
   45.1300   34.0280   46.3060 C   0  0  0  0  0  0  0  0  0  0  0  0
   44.3730   35.0210   46.4650 O   0  0  0  0  0  0  0  0  0  0  0  0
   48.8320   35.5400   41.5880 C   0  0  0  0  0  0  0  0  0  0  0  0
   49.4060   36.5670   40.8600 F   0  0  0  0  0  0  0  0  0  0  0  0
   49.6600   35.2350   42.6700 F   0  0  0  0  0  0  0  0  0  0  0  0
   47.6300   36.0080   42.0630 F   0  0  0  0  0  0  0  0  0  0  0  0
   47.6007   32.1833   41.3728 H   0  0  0  0  0  0  0  0  0  0  0  0
   46.4517   34.8846   40.2183 H   0  0  0  0  0  0  0  0  0  0  0  0
   46.9221   33.9353   39.0688 H   0  0  0  0  0  0  0  0  0  0  0  0
   49.6071   34.3702   40.4121 H   0  0  0  0  0  0  0  0  0  0  0  0
   45.0997   34.3935   41.7621 H   0  0  0  0  0  0  0  0  0  0  0  0
   48.5504   32.6015   43.6822 H   0  0  0  0  0  0  0  0  0  0  0  0
   45.3379   33.3265   47.1274 H   0  0  0  0  0  0  0  0  0  0  0  0
  1  5  1  0
  2  3  1  0
  2  1  1  0
  3  1  1  0
  3 12  1  0
  4  9  2  0
  5  4  1  0
  5  6  2  0
  6  7  1  0
  7  8  2  0
  8 10  1  0
  9  8  1  0
 10 11  2  0
 12 15  1  0
 12 14  1  0
 13 12  1  0
  1 16  1  6
  2 17  1  0
  2 18  1  0
  3 19  1  6
  4 20  1  0
  6 21  1  0
 10 22  1  0
M  ISO  7  16  13  17  13  18  13  19  13  20  14  21  14  22   6
M  END
>  <minimizedAffinity>  (1) 
-4.5340538

>  <minimizedRMSD>  (1) 
0.290830672

$$$$
