
     RDKit          3D

 26 27  0  0  1  0  0  0  0  0999 V2000
   44.5730   35.7680   44.9350 C   0  0  0  0  0  0  0  0  0  0  0  0
   44.7910   35.5310   43.5820 C   0  0  0  0  0  0  0  0  0  0  0  0
   45.3230   34.3190   43.2200 C   0  0  0  0  0  0  0  0  0  0  0  0
   45.6080   33.4150   44.2060 N   0  0  0  0  0  0  0  0  0  0  0  0
   45.3850   33.6780   45.4920 C   0  0  0  0  0  0  0  0  0  0  0  0
   44.8630   34.8630   45.8840 N   0  0  0  0  0  0  0  0  0  0  0  0
   45.7100   32.6860   46.4550 N   0  0  0  0  0  0  0  0  0  0  0  0
   45.2690   32.6900   47.8500 C   0  0  0  0  0  0  0  0  0  0  0  0
   46.4860   32.1640   48.5620 C   0  0  0  0  0  0  0  0  0  0  0  0
   47.3990   31.5840   47.4990 C   0  0  0  0  0  0  0  0  0  0  0  0
   46.5090   31.4950   46.3000 C   0  0  2  0  0  0  0  0  0  0  0  0
   44.4260   36.6030   42.6930 N   0  0  0  0  0  0  0  0  0  0  0  0
   47.3770   31.6580   45.1020 C   0  0  0  0  0  0  0  0  0  0  0  0
   47.9200   30.8210   44.4190 O   0  0  0  0  0  0  0  0  0  0  0  0
   44.1462   36.7349   45.2399 H   0  0  0  0  0  0  0  0  0  0  0  0
   45.5154   34.0805   42.1635 H   0  0  0  0  0  0  0  0  0  0  0  0
   45.0165   33.7063   48.1868 H   0  0  0  0  0  0  0  0  0  0  0  0
   44.3588   32.0991   48.0300 H   0  0  0  0  0  0  0  0  0  0  0  0
   46.9957   32.9805   49.0945 H   0  0  0  0  0  0  0  0  0  0  0  0
   46.2098   31.4007   49.3044 H   0  0  0  0  0  0  0  0  0  0  0  0
   48.2544   32.2486   47.3075 H   0  0  0  0  0  0  0  0  0  0  0  0
   47.8367   30.6164   47.7857 H   0  0  0  0  0  0  0  0  0  0  0  0
   45.9265   30.5669   46.2029 H   0  0  0  0  0  0  0  0  0  0  0  0
   44.5596   36.4977   41.6771 H   0  0  0  0  0  0  0  0  0  0  0  0
   44.0313   37.4752   43.0728 H   0  0  0  0  0  0  0  0  0  0  0  0
   47.5510   32.6985   44.7905 H   0  0  0  0  0  0  0  0  0  0  0  0
  1  6  2  0
  2  1  1  0
  3  2  2  0
  3  4  1  0
  4  5  2  0
  5  6  1  0
  5  7  1  0
  7  8  1  0
  8  9  1  0
 10  9  1  0
 11  7  1  0
 11 10  1  0
 12  2  1  0
 13 11  1  0
 14 13  2  0
  1 15  1  0
  3 16  1  0
  8 17  1  0
  8 18  1  0
  9 19  1  0
  9 20  1  0
 10 21  1  0
 10 22  1  0
 11 23  1  6
 12 24  1  0
 12 25  1  0
 13 26  1  0
M  ISO  8  15  14  16  14  17  13  18  13  19  13  20  13  21  13  22  13
M  ISO  2  23  13  26   6
M  END
>  <minimizedAffinity>  (1) 
-4.35428572

>  <minimizedRMSD>  (1) 
0.991567075

$$$$
