
     RDKit          3D

 38 41  0  0  1  0  0  0  0  0999 V2000
   47.6510   33.0150   42.0550 N   0  0  0  0  0  0  0  0  0  0  0  0
   47.1710   33.0430   43.3740 C   0  0  0  0  0  0  0  0  0  0  0  0
   47.4800   32.0500   44.2470 C   0  0  0  0  0  0  0  0  0  0  0  0
   46.9540   31.9810   45.5270 C   0  0  0  0  0  0  0  0  0  0  0  0
   46.0710   32.9410   45.9780 C   0  0  0  0  0  0  0  0  0  0  0  0
   45.7360   33.9690   45.1150 C   0  0  0  0  0  0  0  0  0  0  0  0
   44.8480   34.9470   45.5320 C   0  0  0  0  0  0  0  0  0  0  0  0
   44.4790   35.9850   44.7270 C   0  0  0  0  0  0  0  0  0  0  0  0
   45.0360   36.0230   43.4660 C   0  0  0  0  0  0  0  0  0  0  0  0
   45.9180   35.0420   43.0650 C   0  0  0  0  0  0  0  0  0  0  0  0
   46.2890   33.9970   43.8530 C   0  0  0  0  0  0  0  0  0  0  0  0
   46.4670   35.1240   41.8050 O   0  0  0  0  0  0  0  0  0  0  0  0
   49.6200   32.2620   40.6310 C   0  0  1  0  0  0  0  0  0  0  0  0
   48.4240   31.4610   40.2010 C   0  0  0  0  0  0  0  0  0  0  0  0
   48.6120   32.0300   41.6330 C   0  0  2  0  0  0  0  0  0  0  0  0
   53.0040   30.9030   39.8820 C   0  0  0  0  0  0  0  0  0  0  0  0
   53.2810   30.1650   41.0850 C   0  0  0  0  0  0  0  0  0  0  0  0
   52.2990   30.1640   42.1070 C   0  0  0  0  0  0  0  0  0  0  0  0
   51.1750   30.8400   41.9090 N   0  0  0  0  0  0  0  0  0  0  0  0
   50.9380   31.5280   40.7680 C   0  0  0  0  0  0  0  0  0  0  0  0
   51.8540   31.5680   39.7330 N   0  0  0  0  0  0  0  0  0  0  0  0
   52.5600   29.4240   43.3290 C   0  0  0  0  0  0  0  0  0  0  0  0
   52.5720   30.0120   44.4390 O   0  0  0  0  0  0  0  0  0  0  0  0
   47.3095   33.7115   41.3774 H   0  0  0  0  0  0  0  0  0  0  0  0
   48.1794   31.2650   43.9235 H   0  0  0  0  0  0  0  0  0  0  0  0
   47.2431   31.1526   46.1905 H   0  0  0  0  0  0  0  0  0  0  0  0
   45.6470   32.8903   46.9917 H   0  0  0  0  0  0  0  0  0  0  0  0
   44.4262   34.8847   46.5460 H   0  0  0  0  0  0  0  0  0  0  0  0
   43.7710   36.7548   45.0676 H   0  0  0  0  0  0  0  0  0  0  0  0
   44.7754   36.8398   42.7768 H   0  0  0  0  0  0  0  0  0  0  0  0
   47.1026   34.4308   41.4959 H   0  0  0  0  0  0  0  0  0  0  0  0
   50.1031   33.1718   40.2451 H   0  0  0  0  0  0  0  0  0  0  0  0
   47.6757   31.8931   39.5203 H   0  0  0  0  0  0  0  0  0  0  0  0
   48.2430   30.4739   39.7505 H   0  0  0  0  0  0  0  0  0  0  0  0
   48.6812   31.6569   42.6655 H   0  0  0  0  0  0  0  0  0  0  0  0
   53.7491   30.9205   39.0730 H   0  0  0  0  0  0  0  0  0  0  0  0
   54.2271   29.6175   41.2083 H   0  0  0  0  0  0  0  0  0  0  0  0
   52.7485   28.3413   43.2823 H   0  0  0  0  0  0  0  0  0  0  0  0
  1  2  1  0
  2 11  1  0
  2  3  2  0
  3  4  1  0
  4  5  2  0
  6  7  2  0
  6  5  1  0
  8  7  1  0
  9  8  2  0
 10  9  1  0
 10 11  2  0
 11  6  1  0
 12 10  1  0
 13 20  1  0
 13 15  1  0
 14 13  1  0
 14 15  1  0
 15  1  1  0
 16 17  2  0
 17 18  1  0
 18 22  1  0
 19 18  2  0
 20 19  1  0
 21 16  1  0
 21 20  2  0
 22 23  2  0
  1 24  1  0
  3 25  1  0
  4 26  1  0
  5 27  1  0
  7 28  1  0
  8 29  1  0
  9 30  1  0
 12 31  1  0
 13 32  1  6
 14 33  1  0
 14 34  1  0
 15 35  1  1
 16 36  1  0
 17 37  1  0
 22 38  1  0
M  ISO  8  25  14  26  14  27  14  28  14  29  14  30  14  31   3  32  13
M  ISO  6  33  13  34  13  35  13  36  14  37  14  38   6
M  END
>  <minimizedAffinity>  (1) 
-4.97524691

>  <minimizedRMSD>  (1) 
1.75599182

$$$$
