
     RDKit          3D

 34 35  0  0  1  0  0  0  0  0999 V2000
   46.6070   31.6650   44.9500 C   0  0  2  0  0  0  0  0  0  0  0  0
   45.6980   30.7240   44.1370 C   0  0  0  0  0  0  0  0  0  0  0  0
   45.8890   29.3620   44.8270 C   0  0  0  0  0  0  0  0  0  0  0  0
   45.1230   29.5140   46.1250 C   0  0  0  0  0  0  0  0  0  0  0  0
   45.7340   30.5530   46.9890 C   0  0  0  0  0  0  0  0  0  0  0  0
   46.0710   31.8410   46.3230 C   0  0  1  0  0  0  0  0  0  0  0  0
   47.9410   34.3850   42.7310 C   0  0  0  0  0  0  0  0  0  0  0  0
   47.9120   33.1730   43.4430 C   0  0  0  0  0  0  0  0  0  0  0  0
   46.7470   32.8810   44.1760 C   0  0  0  0  0  0  0  0  0  0  0  0
   45.7230   33.7920   44.1500 N   0  0  0  0  0  0  0  0  0  0  0  0
   45.7970   34.9340   43.4580 C   0  0  0  0  0  0  0  0  0  0  0  0
   46.9090   35.2320   42.7460 N   0  0  0  0  0  0  0  0  0  0  0  0
   49.1860   34.6680   41.9610 C   0  0  0  0  0  0  0  0  0  0  0  0
   49.6440   33.5370   41.3140 F   0  0  0  0  0  0  0  0  0  0  0  0
   48.9120   35.6830   41.0480 F   0  0  0  0  0  0  0  0  0  0  0  0
   50.1590   35.1770   42.8120 F   0  0  0  0  0  0  0  0  0  0  0  0
   44.6550   35.8960   43.4640 C   0  0  0  0  0  0  0  0  0  0  0  0
   43.7520   35.6090   42.4890 F   0  0  0  0  0  0  0  0  0  0  0  0
   45.1460   37.2120   43.3210 F   0  0  0  0  0  0  0  0  0  0  0  0
   44.0270   35.9250   44.6890 F   0  0  0  0  0  0  0  0  0  0  0  0
   47.0270   32.6280   47.1310 C   0  0  0  0  0  0  0  0  0  0  0  0
   47.7160   32.5000   48.1210 O   0  0  0  0  0  0  0  0  0  0  0  0
   47.6149   31.2553   45.1119 H   0  0  0  0  0  0  0  0  0  0  0  0
   46.0164   30.6806   43.0850 H   0  0  0  0  0  0  0  0  0  0  0  0
   44.6483   31.0521   44.1162 H   0  0  0  0  0  0  0  0  0  0  0  0
   45.4699   28.5491   44.2158 H   0  0  0  0  0  0  0  0  0  0  0  0
   46.9471   29.1039   44.9811 H   0  0  0  0  0  0  0  0  0  0  0  0
   44.0855   29.8005   45.8981 H   0  0  0  0  0  0  0  0  0  0  0  0
   45.1515   28.5539   46.6611 H   0  0  0  0  0  0  0  0  0  0  0  0
   45.0282   30.7704   47.8042 H   0  0  0  0  0  0  0  0  0  0  0  0
   46.6937   30.1328   47.3241 H   0  0  0  0  0  0  0  0  0  0  0  0
   45.1214   32.3898   46.2393 H   0  0  0  0  0  0  0  0  0  0  0  0
   48.7664   32.4803   43.4276 H   0  0  0  0  0  0  0  0  0  0  0  0
   47.1509   33.6347   46.7053 H   0  0  0  0  0  0  0  0  0  0  0  0
  1  6  1  0
  2  3  1  0
  2  1  1  0
  3  4  1  0
  4  5  1  0
  6  5  1  0
  6 21  1  0
  7 12  2  0
  7  8  1  0
  8  9  2  0
  9  1  1  0
 10  9  1  0
 11 17  1  0
 11 10  2  0
 12 11  1  0
 13  7  1  0
 13 16  1  0
 14 13  1  0
 15 13  1  0
 17 20  1  0
 18 17  1  0
 19 17  1  0
 21 22  2  0
  1 23  1  1
  2 24  1  0
  2 25  1  0
  3 26  1  0
  3 27  1  0
  4 28  1  0
  4 29  1  0
  5 30  1  0
  5 31  1  0
  6 32  1  6
  8 33  1  0
 21 34  1  0
M  ISO  8  23  13  24  13  25  13  26  13  27  13  28  13  29  13  30  13
M  ISO  4  31  13  32  13  33  14  34   6
M  END
>  <minimizedAffinity>  (1) 
-5.89333153

>  <minimizedRMSD>  (1) 
0.919870794

$$$$
