
     RDKit          3D

 21 22  0  0  1  0  0  0  0  0999 V2000
   44.6400   35.4310   45.1440 C   0  0  0  0  0  0  0  0  0  0  0  0
   45.1050   35.7080   43.8330 C   0  0  0  0  0  0  0  0  0  0  0  0
   46.0560   34.8370   43.3650 C   0  0  0  0  0  0  0  0  0  0  0  0
   46.5040   33.7800   44.1410 N   0  0  0  0  0  0  0  0  0  0  0  0
   46.0310   33.5620   45.3730 C   0  0  0  0  0  0  0  0  0  0  0  0
   45.0870   34.3980   45.8820 N   0  0  0  0  0  0  0  0  0  0  0  0
   46.5610   35.0190   41.9520 C   0  0  1  0  0  0  0  0  0  0  0  0
   48.0880   35.3050   41.9600 C   0  0  0  0  0  0  0  0  0  0  0  0
   47.4060   34.0220   41.3990 C   0  0  2  0  0  0  0  0  0  0  0  0
   47.3960   33.8810   39.8960 C   0  0  0  0  0  0  0  0  0  0  0  0
   46.4170   33.4250   39.2960 O   0  0  0  0  0  0  0  0  0  0  0  0
   44.6450   36.8160   43.0610 N   0  0  0  0  0  0  0  0  0  0  0  0
   43.8766   36.0929   45.5789 H   0  0  0  0  0  0  0  0  0  0  0  0
   46.4020   32.7148   45.9686 H   0  0  0  0  0  0  0  0  0  0  0  0
   45.6504   35.4866   41.5493 H   0  0  0  0  0  0  0  0  0  0  0  0
   48.5263   36.0538   41.2838 H   0  0  0  0  0  0  0  0  0  0  0  0
   48.8617   35.5526   42.7017 H   0  0  0  0  0  0  0  0  0  0  0  0
   47.5295   32.9447   41.5838 H   0  0  0  0  0  0  0  0  0  0  0  0
   48.2812   34.1916   39.3215 H   0  0  0  0  0  0  0  0  0  0  0  0
   45.0156   36.9723   42.1128 H   0  0  0  0  0  0  0  0  0  0  0  0
   43.9423   37.4597   43.4519 H   0  0  0  0  0  0  0  0  0  0  0  0
  1  6  2  0
  2  1  1  0
  3  2  2  0
  3  4  1  0
  4  5  2  0
  5  6  1  0
  7  8  1  0
  7  3  1  0
  9  7  1  0
  9  8  1  0
 10  9  1  0
 11 10  2  0
 12  2  1  0
  1 13  1  0
  5 14  1  0
  7 15  1  6
  8 16  1  0
  8 17  1  0
  9 18  1  1
 10 19  1  0
 12 20  1  0
 12 21  1  0
M  ISO  7  13  14  14  14  15  13  16  13  17  13  18  13  19   6
M  END
>  <minimizedAffinity>  (1) 
-4.16498804

>  <minimizedRMSD>  (1) 
0.153306037

$$$$
