
     RDKit          3D

 20 20  0  0  0  0  0  0  0  0999 V2000
   45.8100   34.7000   44.1870 C   0  0  0  0  0  0  0  0  0  0  0  0
   46.9120   34.1470   43.5600 C   0  0  0  0  0  0  0  0  0  0  0  0
   47.4900   33.0020   44.1720 C   0  0  0  0  0  0  0  0  0  0  0  0
   46.9690   32.5080   45.3100 N   0  0  0  0  0  0  0  0  0  0  0  0
   45.8920   33.0870   45.8960 C   0  0  0  0  0  0  0  0  0  0  0  0
   45.3030   34.1880   45.3400 N   0  0  0  0  0  0  0  0  0  0  0  0
   44.8660   35.7670   43.8820 C   0  0  0  0  0  0  0  0  0  0  0  0
   44.5380   36.0430   45.0990 O   0  0  0  0  0  0  0  0  0  0  0  0
   47.3000   34.7990   42.4220 O   0  0  0  0  0  0  0  0  0  0  0  0
   49.3130   33.4800   41.3180 O   0  0  0  0  0  0  0  0  0  0  0  0
   48.9310   34.8080   41.8970 P   0  0  0  0  0  0  0  0  0  0  0  0
   49.1390   35.9830   40.6880 O   0  0  0  0  0  0  0  0  0  0  0  0
   50.0050   35.2010   43.1380 O   0  0  0  0  0  0  0  0  0  0  0  0
   48.3655   32.5184   43.7142 H   0  0  0  0  0  0  0  0  0  0  0  0
   45.4881   32.6662   46.8286 H   0  0  0  0  0  0  0  0  0  0  0  0
   45.3428   36.6171   43.3721 H   0  0  0  0  0  0  0  0  0  0  0  0
   44.0434   35.5141   43.1969 H   0  0  0  0  0  0  0  0  0  0  0  0
   45.1277   35.5468   45.7203 H   0  0  0  0  0  0  0  0  0  0  0  0
   49.2952   36.8654   41.1088 H   0  0  0  0  0  0  0  0  0  0  0  0
   49.5704   35.0420   44.0132 H   0  0  0  0  0  0  0  0  0  0  0  0
  1  6  2  0
  2  3  2  0
  2  1  1  0
  3  4  1  0
  4  5  2  0
  6  5  1  0
  7  1  1  0
  7  8  1  0
  9  2  1  0
 10 11  2  0
 11  9  1  0
 11 13  1  0
 12 11  1  0
  3 14  1  0
  5 15  1  0
  7 16  1  0
  7 17  1  0
  8 18  1  0
 12 19  1  0
 13 20  1  0
M  ISO  7  14  14  15  14  16   8  17   8  18   3  19   3  20   3
M  END
>  <minimizedAffinity>  (1) 
-4.71656036

>  <minimizedRMSD>  (1) 
2.31489992

$$$$
