
     RDKit          3D

 43 46  0  0  1  0  0  0  0  0999 V2000
   46.0690   33.0450   46.1520 C   0  0  0  0  0  0  0  0  0  0  0  0
   46.9050   32.1470   45.8360 C   0  0  0  0  0  0  0  0  0  0  0  0
   44.5520   35.9170   44.4110 C   0  0  0  0  0  0  0  0  0  0  0  0
   45.1820   35.9030   43.1740 C   0  0  0  0  0  0  0  0  0  0  0  0
   46.0950   34.9190   42.9770 C   0  0  0  0  0  0  0  0  0  0  0  0
   46.3610   34.0090   43.9590 N   0  0  0  0  0  0  0  0  0  0  0  0
   45.7280   34.0550   45.1500 C   0  0  0  0  0  0  0  0  0  0  0  0
   44.8370   35.0150   45.3430 N   0  0  0  0  0  0  0  0  0  0  0  0
   46.8380   34.7730   41.7290 C   0  0  0  0  0  0  0  0  0  0  0  0
   48.0470   35.3580   41.4720 C   0  0  0  0  0  0  0  0  0  0  0  0
   48.7420   35.2130   40.2890 C   0  0  0  0  0  0  0  0  0  0  0  0
   48.2110   34.4330   39.2750 C   0  0  0  0  0  0  0  0  0  0  0  0
   47.0020   33.8220   39.4760 C   0  0  0  0  0  0  0  0  0  0  0  0
   46.3540   34.0040   40.6820 C   0  0  0  0  0  0  0  0  0  0  0  0
   47.1780   31.0980   46.8910 C   0  0  0  0  0  0  0  0  0  0  0  0
   46.7880   31.6030   48.2410 C   0  0  1  0  0  0  0  0  0  0  0  0
   46.3840   30.5520   49.2190 C   0  0  0  0  0  0  0  0  0  0  0  0
   47.6250   31.2960   49.4150 C   0  0  1  0  0  0  0  0  0  0  0  0
   48.9630   30.6670   49.1800 C   0  0  2  0  0  0  0  0  0  0  0  0
   49.6480   30.1960   50.4890 C   0  0  0  0  0  0  0  0  0  0  0  0
   50.1890   31.3620   49.7680 C   0  0  1  0  0  0  0  0  0  0  0  0
   51.4580   31.0830   49.0080 C   0  0  0  0  0  0  0  0  0  0  0  0
   52.4700   31.7750   48.8490 O   0  0  0  0  0  0  0  0  0  0  0  0
   45.6120   33.0647   47.1524 H   0  0  0  0  0  0  0  0  0  0  0  0
   47.4018   32.1312   44.8547 H   0  0  0  0  0  0  0  0  0  0  0  0
   43.8007   36.6918   44.6237 H   0  0  0  0  0  0  0  0  0  0  0  0
   44.9538   36.6478   42.3973 H   0  0  0  0  0  0  0  0  0  0  0  0
   48.4938   35.9840   42.2584 H   0  0  0  0  0  0  0  0  0  0  0  0
   49.7118   35.7137   40.1519 H   0  0  0  0  0  0  0  0  0  0  0  0
   48.7509   34.3066   38.3250 H   0  0  0  0  0  0  0  0  0  0  0  0
   46.5543   33.1964   38.6897 H   0  0  0  0  0  0  0  0  0  0  0  0
   45.3847   33.5030   40.8217 H   0  0  0  0  0  0  0  0  0  0  0  0
   46.5968   30.1928   46.6609 H   0  0  0  0  0  0  0  0  0  0  0  0
   48.2534   30.8665   46.8938 H   0  0  0  0  0  0  0  0  0  0  0  0
   46.3720   32.5357   47.8324 H   0  0  0  0  0  0  0  0  0  0  0  0
   45.5282   30.7232   49.8886 H   0  0  0  0  0  0  0  0  0  0  0  0
   46.1175   29.4869   49.1512 H   0  0  0  0  0  0  0  0  0  0  0  0
   48.0348   31.8603   50.2657 H   0  0  0  0  0  0  0  0  0  0  0  0
   48.7124   30.2587   48.1898 H   0  0  0  0  0  0  0  0  0  0  0  0
   49.1401   30.3357   51.4547 H   0  0  0  0  0  0  0  0  0  0  0  0
   50.0665   29.2428   50.8443 H   0  0  0  0  0  0  0  0  0  0  0  0
   50.4252   32.3966   50.0576 H   0  0  0  0  0  0  0  0  0  0  0  0
   51.4902   30.1015   48.5124 H   0  0  0  0  0  0  0  0  0  0  0  0
  2  1  2  0
  2 15  1  0
  3  8  2  0
  4  3  1  0
  5  4  2  0
  5  6  1  0
  6  7  2  0
  7  8  1  0
  7  1  1  0
  9  5  1  0
 10  9  2  0
 11 10  1  0
 12 13  1  0
 12 11  2  0
 13 14  2  0
 14  9  1  0
 15 16  1  0
 16 17  1  0
 16 18  1  0
 17 18  1  0
 19 18  1  0
 19 21  1  0
 19 20  1  0
 21 20  1  0
 22 21  1  0
 23 22  2  0
  1 24  1  0
  2 25  1  0
  3 26  1  0
  4 27  1  0
 10 28  1  0
 11 29  1  0
 12 30  1  0
 13 31  1  0
 14 32  1  0
 15 33  1  0
 15 34  1  0
 16 35  1  6
 17 36  1  0
 17 37  1  0
 18 38  1  1
 19 39  1  6
 20 40  1  0
 20 41  1  0
 21 42  1  1
 22 43  1  0
M  ISO  8  26  14  27  14  28  14  29  14  30  14  31  14  32  14  33   8
M  ISO  8  34   8  35  13  36  13  37  13  38  13  39  13  40  13  41  13
M  ISO  2  42  13  43   6
M  END
>  <minimizedAffinity>  (1) 
-6.07835722

>  <minimizedRMSD>  (1) 
0.670654058

$$$$
