
     RDKit          3D

 43 45  0  0  1  0  0  0  0  0999 V2000
   47.6090   31.8140   46.3580 C   0  0  2  0  0  0  0  0  0  0  0  0
   47.4050   30.3660   45.8370 C   0  0  0  0  0  0  0  0  0  0  0  0
   48.2400   29.4300   46.6480 C   0  0  0  0  0  0  0  0  0  0  0  0
   48.2020   29.6350   48.1230 C   0  0  0  0  0  0  0  0  0  0  0  0
   48.1640   31.0170   48.5310 C   0  0  0  0  0  0  0  0  0  0  0  0
   47.1590   31.8770   47.7350 C   0  0  2  0  0  0  0  0  0  0  0  0
   46.9560   32.7880   45.5080 C   0  0  0  0  0  0  0  0  0  0  0  0
   45.8590   33.4590   46.0320 C   0  0  0  0  0  0  0  0  0  0  0  0
   45.1740   34.4050   45.2330 C   0  0  0  0  0  0  0  0  0  0  0  0
   45.6640   34.6020   43.9460 N   0  0  0  0  0  0  0  0  0  0  0  0
   46.7260   33.9260   43.5050 C   0  0  0  0  0  0  0  0  0  0  0  0
   47.3610   33.0350   44.2680 N   0  0  0  0  0  0  0  0  0  0  0  0
   47.2070   34.1930   42.1440 C   0  0  0  0  0  0  0  0  0  0  0  0
   48.1990   35.1180   41.9080 C   0  0  0  0  0  0  0  0  0  0  0  0
   48.7140   35.4350   40.6780 C   0  0  0  0  0  0  0  0  0  0  0  0
   48.1530   34.7390   39.6380 C   0  0  0  0  0  0  0  0  0  0  0  0
   47.1460   33.7950   39.8380 C   0  0  0  0  0  0  0  0  0  0  0  0
   46.6800   33.5310   41.1010 N   0  0  0  0  0  0  0  0  0  0  0  0
   46.5810   33.0830   38.7060 C   0  0  0  0  0  0  0  0  0  0  0  0
   46.8140   33.4790   37.5390 O   0  0  0  0  0  0  0  0  0  0  0  0
   45.8320   31.2660   47.8470 N   0  0  0  0  0  0  0  0  0  0  0  0
   45.1550   30.7040   48.9430 C   0  0  0  0  0  0  0  0  0  0  0  0
   44.5950   31.4110   49.8550 O   0  0  0  0  0  0  0  0  0  0  0  0
   45.1320   29.2760   48.9630 N   0  0  0  0  0  0  0  0  0  0  0  0
   48.6775   32.0735   46.3255 H   0  0  0  0  0  0  0  0  0  0  0  0
   46.3448   30.0876   45.9296 H   0  0  0  0  0  0  0  0  0  0  0  0
   47.7050   30.3078   44.7803 H   0  0  0  0  0  0  0  0  0  0  0  0
   47.8957   28.4060   46.4412 H   0  0  0  0  0  0  0  0  0  0  0  0
   49.2804   29.6232   46.3476 H   0  0  0  0  0  0  0  0  0  0  0  0
   47.3048   29.1351   48.5169 H   0  0  0  0  0  0  0  0  0  0  0  0
   49.1369   29.2151   48.5226 H   0  0  0  0  0  0  0  0  0  0  0  0
   47.8872   31.0565   49.5949 H   0  0  0  0  0  0  0  0  0  0  0  0
   49.1635   31.4342   48.3388 H   0  0  0  0  0  0  0  0  0  0  0  0
   47.1023   32.9134   48.0992 H   0  0  0  0  0  0  0  0  0  0  0  0
   45.5250   33.2567   47.0604 H   0  0  0  0  0  0  0  0  0  0  0  0
   44.2997   34.9559   45.6099 H   0  0  0  0  0  0  0  0  0  0  0  0
   48.6128   35.6468   42.7793 H   0  0  0  0  0  0  0  0  0  0  0  0
   49.5084   36.1828   40.5373 H   0  0  0  0  0  0  0  0  0  0  0  0
   48.5081   34.9311   38.6148 H   0  0  0  0  0  0  0  0  0  0  0  0
   45.9496   32.1976   38.8715 H   0  0  0  0  0  0  0  0  0  0  0  0
   45.3004   31.2445   46.9651 H   0  0  0  0  0  0  0  0  0  0  0  0
   44.6573   28.7793   49.7303 H   0  0  0  0  0  0  0  0  0  0  0  0
   45.5902   28.7430   48.2101 H   0  0  0  0  0  0  0  0  0  0  0  0
  1  6  1  0
  2  1  1  0
  2  3  1  0
  3  4  1  0
  4  5  1  0
  6 21  1  0
  6  5  1  0
  7  8  2  0
  7  1  1  0
  9  8  1  0
 10  9  2  0
 11 10  1  0
 11 12  2  0
 12  7  1  0
 13 11  1  0
 14 13  2  0
 15 14  1  0
 16 17  1  0
 16 15  2  0
 17 18  2  0
 18 13  1  0
 19 17  1  0
 20 19  2  0
 21 22  1  0
 22 24  1  0
 22 23  2  0
  1 25  1  1
  2 26  1  0
  2 27  1  0
  3 28  1  0
  3 29  1  0
  4 30  1  0
  4 31  1  0
  5 32  1  0
  5 33  1  0
  6 34  1  1
  8 35  1  0
  9 36  1  0
 14 37  1  0
 15 38  1  0
 16 39  1  0
 19 40  1  0
 21 41  1  0
 24 42  1  0
 24 43  1  0
M  ISO  8  25  13  26  13  27  13  28  13  29  13  30  13  31  13  32  13
M  ISO  8  33  13  34  13  35  14  36  14  37  14  38  14  39  14  40   6
M  END
>  <minimizedAffinity>  (1) 
-5.93205833

>  <minimizedRMSD>  (1) 
0.163895085

$$$$
