
     RDKit          3D

 21 22  0  0  1  0  0  0  0  0999 V2000
   46.0360   34.7400   43.4280 C   0  0  0  0  0  0  0  0  0  0  0  0
   45.1490   35.7700   43.8260 C   0  0  0  0  0  0  0  0  0  0  0  0
   44.5560   35.6530   45.0890 C   0  0  0  0  0  0  0  0  0  0  0  0
   44.8750   34.5550   45.8420 N   0  0  0  0  0  0  0  0  0  0  0  0
   45.7240   33.6120   45.4070 C   0  0  0  0  0  0  0  0  0  0  0  0
   46.3110   33.6770   44.2220 N   0  0  0  0  0  0  0  0  0  0  0  0
   46.0240   32.4560   46.3060 C   0  0  1  0  0  0  0  0  0  0  0  0
   46.9870   32.6040   47.4400 C   0  0  0  0  0  0  0  0  0  0  0  0
   45.5170   32.6160   47.7020 C   0  0  2  0  0  0  0  0  0  0  0  0
   44.9720   31.4670   48.4490 C   0  0  0  0  0  0  0  0  0  0  0  0
   45.2140   31.5150   49.6530 O   0  0  0  0  0  0  0  0  0  0  0  0
   46.6240   34.9170   42.1310 C   0  0  0  0  0  0  0  0  0  0  0  0
   47.7870   35.3810   41.9170 O   0  0  0  0  0  0  0  0  0  0  0  0
   44.9348   36.6266   43.1699 H   0  0  0  0  0  0  0  0  0  0  0  0
   43.8582   36.4166   45.4632 H   0  0  0  0  0  0  0  0  0  0  0  0
   45.9462   31.7232   45.4893 H   0  0  0  0  0  0  0  0  0  0  0  0
   47.5958   31.7456   47.7602 H   0  0  0  0  0  0  0  0  0  0  0  0
   47.8232   33.2817   47.6671 H   0  0  0  0  0  0  0  0  0  0  0  0
   44.7882   33.2989   48.1629 H   0  0  0  0  0  0  0  0  0  0  0  0
   44.4065   30.6502   47.9766 H   0  0  0  0  0  0  0  0  0  0  0  0
   46.0223   34.6292   41.2562 H   0  0  0  0  0  0  0  0  0  0  0  0
  1  2  2  0
  1  6  1  0
  2  3  1  0
  3  4  2  0
  5  4  1  0
  5  7  1  0
  6  5  2  0
  7  8  1  0
  7  9  1  0
  8  9  1  0
  9 10  1  0
 10 11  2  0
 12  1  1  0
 13 12  2  0
  2 14  1  0
  3 15  1  0
  7 16  1  6
  8 17  1  0
  8 18  1  0
  9 19  1  6
 10 20  1  0
 12 21  1  0
M  ISO  8  14  14  15  14  16  13  17  13  18  13  19  13  20   6  21   6
M  END
>  <minimizedAffinity>  (1) 
-4.41087198

>  <minimizedRMSD>  (1) 
0.51379329

$$$$
