
     RDKit          3D

 29 31  0  0  0  0  0  0  0  0999 V2000
   47.0980   34.5620   42.0880 C   0  0  0  0  0  0  0  0  0  0  0  0
   48.1880   35.3160   41.7410 C   0  0  0  0  0  0  0  0  0  0  0  0
   48.6410   35.3250   40.4410 C   0  0  0  0  0  0  0  0  0  0  0  0
   48.0300   34.5890   39.4450 C   0  0  0  0  0  0  0  0  0  0  0  0
   48.5280   34.6460   38.1940 N   0  0  0  0  0  0  0  0  0  0  0  0
   47.9410   33.9300   37.2010 C   0  0  0  0  0  0  0  0  0  0  0  0
   46.8470   33.1700   37.5410 C   0  0  0  0  0  0  0  0  0  0  0  0
   46.3080   33.0870   38.8070 C   0  0  0  0  0  0  0  0  0  0  0  0
   46.9180   33.8200   39.7970 C   0  0  0  0  0  0  0  0  0  0  0  0
   46.4620   33.8110   41.1060 C   0  0  0  0  0  0  0  0  0  0  0  0
   45.4140   35.2230   43.8380 C   0  0  0  0  0  0  0  0  0  0  0  0
   46.4670   34.4200   43.4020 C   0  0  0  0  0  0  0  0  0  0  0  0
   46.9740   33.4010   44.2680 C   0  0  0  0  0  0  0  0  0  0  0  0
   46.3640   33.2950   45.4850 N   0  0  0  0  0  0  0  0  0  0  0  0
   45.3590   34.0770   45.8740 C   0  0  0  0  0  0  0  0  0  0  0  0
   44.8930   35.0270   45.0560 N   0  0  0  0  0  0  0  0  0  0  0  0
   44.9260   36.2220   42.9770 N   0  0  0  0  0  0  0  0  0  0  0  0
   44.7520   33.9090   47.1920 C   0  0  0  0  0  0  0  0  0  0  0  0
   45.0560   32.8690   47.8670 O   0  0  0  0  0  0  0  0  0  0  0  0
   48.7036   35.9169   42.5046 H   0  0  0  0  0  0  0  0  0  0  0  0
   49.5182   35.9384   40.1874 H   0  0  0  0  0  0  0  0  0  0  0  0
   48.3238   33.9568   36.1701 H   0  0  0  0  0  0  0  0  0  0  0  0
   46.3660   32.5846   36.7435 H   0  0  0  0  0  0  0  0  0  0  0  0
   45.4278   32.4612   39.0160 H   0  0  0  0  0  0  0  0  0  0  0  0
   45.5854   33.2017   41.3713 H   0  0  0  0  0  0  0  0  0  0  0  0
   47.8043   32.7431   43.9719 H   0  0  0  0  0  0  0  0  0  0  0  0
   45.3466   36.3496   42.0455 H   0  0  0  0  0  0  0  0  0  0  0  0
   44.1479   36.8261   43.2778 H   0  0  0  0  0  0  0  0  0  0  0  0
   44.0524   34.6578   47.5918 H   0  0  0  0  0  0  0  0  0  0  0  0
  1 12  1  0
  2  1  2  0
  3  2  1  0
  4  9  1  0
  4  3  2  0
  5  4  1  0
  6  7  1  0
  6  5  2  0
  7  8  2  0
  8  9  1  0
  9 10  2  0
 10  1  1  0
 11 16  2  0
 12 11  1  0
 12 13  2  0
 13 14  1  0
 14 15  2  0
 15 18  1  0
 16 15  1  0
 17 11  1  0
 18 19  2  0
  2 20  1  0
  3 21  1  0
  6 22  1  0
  7 23  1  0
  8 24  1  0
 10 25  1  0
 13 26  1  0
 17 27  1  0
 17 28  1  0
 18 29  1  0
M  ISO  8  20  14  21  14  22  14  23  14  24  14  25  14  26  14  29   6
M  END
>  <minimizedAffinity>  (1) 
-5.7345643

>  <minimizedRMSD>  (1) 
0.693394542

$$$$
