
     RDKit          3D

 15 15  0  0  0  0  0  0  0  0999 V2000
   45.5740   35.0080   43.8910 C   0  0  0  0  0  0  0  0  0  0  0  0
   46.6720   34.4020   43.2420 C   0  0  0  0  0  0  0  0  0  0  0  0
   47.3080   33.3430   43.9150 C   0  0  0  0  0  0  0  0  0  0  0  0
   46.8290   32.9770   45.1300 N   0  0  0  0  0  0  0  0  0  0  0  0
   45.7720   33.5870   45.7140 C   0  0  0  0  0  0  0  0  0  0  0  0
   45.1510   34.6000   45.0890 N   0  0  0  0  0  0  0  0  0  0  0  0
   44.9020   36.1310   43.1740 C   0  0  0  0  0  0  0  0  0  0  0  0
   47.1760   34.8010   41.9410 C   0  0  0  0  0  0  0  0  0  0  0  0
   48.2120   35.5320   41.8410 O   0  0  0  0  0  0  0  0  0  0  0  0
   48.1700   32.8260   43.4682 H   0  0  0  0  0  0  0  0  0  0  0  0
   45.4212   33.2528   46.7015 H   0  0  0  0  0  0  0  0  0  0  0  0
   44.4810   36.8345   43.9074 H   0  0  0  0  0  0  0  0  0  0  0  0
   45.6355   36.6543   42.5431 H   0  0  0  0  0  0  0  0  0  0  0  0
   44.0941   35.7320   42.5431 H   0  0  0  0  0  0  0  0  0  0  0  0
   46.6561   34.4674   41.0308 H   0  0  0  0  0  0  0  0  0  0  0  0
  1  6  2  0
  2  1  1  0
  2  3  2  0
  3  4  1  0
  4  5  2  0
  6  5  1  0
  7  1  1  0
  8  2  1  0
  9  8  2  0
  3 10  1  0
  5 11  1  0
  7 12  1  0
  7 13  1  0
  7 14  1  0
  8 15  1  0
M  ISO  6  10  14  11  14  12   8  13   8  14   8  15   6
M  END
>  <minimizedAffinity>  (1) 
-3.16334391

>  <minimizedRMSD>  (1) 
0.592808425

$$$$
