
     RDKit          3D

 14 14  0  0  0  0  0  0  0  0999 V2000
   44.5020   36.0000   44.5790 C   0  0  0  0  0  0  0  0  0  0  0  0
   45.1700   35.9410   43.3420 C   0  0  0  0  0  0  0  0  0  0  0  0
   46.0740   34.9050   43.1390 C   0  0  0  0  0  0  0  0  0  0  0  0
   46.2680   34.0080   44.1360 N   0  0  0  0  0  0  0  0  0  0  0  0
   45.6080   34.0990   45.3070 C   0  0  0  0  0  0  0  0  0  0  0  0
   44.7370   35.0790   45.5300 N   0  0  0  0  0  0  0  0  0  0  0  0
   46.7590   34.8130   41.9180 N   0  0  0  0  0  0  0  0  0  0  0  0
   45.8710   33.0950   46.3310 C   0  0  0  0  0  0  0  0  0  0  0  0
   45.1970   33.0420   47.3890 O   0  0  0  0  0  0  0  0  0  0  0  0
   43.7802   36.8078   44.7700 H   0  0  0  0  0  0  0  0  0  0  0  0
   44.9826   36.6915   42.5599 H   0  0  0  0  0  0  0  0  0  0  0  0
   47.4304   34.0479   41.7605 H   0  0  0  0  0  0  0  0  0  0  0  0
   46.5905   35.5105   41.1791 H   0  0  0  0  0  0  0  0  0  0  0  0
   46.6796   32.3662   46.1728 H   0  0  0  0  0  0  0  0  0  0  0  0
  1  6  2  0
  2  1  1  0
  3  2  2  0
  3  4  1  0
  4  5  2  0
  5  6  1  0
  5  8  1  0
  7  3  1  0
  8  9  2  0
  1 10  1  0
  2 11  1  0
  7 12  1  0
  7 13  1  0
  8 14  1  0
M  ISO  3  10  14  11  14  14   6
M  END
>  <minimizedAffinity>  (1) 
-3.48516822

>  <minimizedRMSD>  (1) 
0.206973642

$$$$
