
     RDKit          3D

 29 30  0  0  1  0  0  0  0  0999 V2000
   47.6340   33.4510   43.2080 N   0  0  0  0  0  0  0  0  0  0  0  0
   47.2750   32.5750   42.1080 C   0  0  0  0  0  0  0  0  0  0  0  0
   48.4600   32.1920   41.2850 C   0  0  0  0  0  0  0  0  0  0  0  0
   49.2570   33.2820   40.8680 N   0  0  0  0  0  0  0  0  0  0  0  0
   49.4000   34.3610   41.7710 C   0  0  2  0  0  0  0  0  0  0  0  0
   48.8460   34.2010   43.1320 C   0  0  0  0  0  0  0  0  0  0  0  0
   44.9770   34.5010   45.6330 C   0  0  0  0  0  0  0  0  0  0  0  0
   45.7400   34.4730   44.4610 C   0  0  0  0  0  0  0  0  0  0  0  0
   46.7920   33.5650   44.3540 C   0  0  0  0  0  0  0  0  0  0  0  0
   47.0120   32.7500   45.4150 N   0  0  0  0  0  0  0  0  0  0  0  0
   46.2600   32.7960   46.5360 C   0  0  0  0  0  0  0  0  0  0  0  0
   45.2470   33.6660   46.6480 N   0  0  0  0  0  0  0  0  0  0  0  0
   46.6150   31.8590   47.5930 C   0  0  0  0  0  0  0  0  0  0  0  0
   46.4210   32.1770   48.7820 O   0  0  0  0  0  0  0  0  0  0  0  0
   48.7780   35.5940   41.1500 C   0  0  0  0  0  0  0  0  0  0  0  0
   49.5540   36.7170   41.4160 F   0  0  0  0  0  0  0  0  0  0  0  0
   47.5850   35.7940   41.8240 F   0  0  0  0  0  0  0  0  0  0  0  0
   48.6060   35.4860   39.8000 F   0  0  0  0  0  0  0  0  0  0  0  0
   46.8170   31.6621   42.5166 H   0  0  0  0  0  0  0  0  0  0  0  0
   46.5727   33.1177   41.4583 H   0  0  0  0  0  0  0  0  0  0  0  0
   49.0886   31.5142   41.8812 H   0  0  0  0  0  0  0  0  0  0  0  0
   48.0690   31.7207   40.3712 H   0  0  0  0  0  0  0  0  0  0  0  0
   50.1996   32.9181   40.6683 H   0  0  0  0  0  0  0  0  0  0  0  0
   50.4866   34.4307   41.9277 H   0  0  0  0  0  0  0  0  0  0  0  0
   49.6009   33.6923   43.7496 H   0  0  0  0  0  0  0  0  0  0  0  0
   48.6020   35.2140   43.4845 H   0  0  0  0  0  0  0  0  0  0  0  0
   44.1459   35.2159   45.7236 H   0  0  0  0  0  0  0  0  0  0  0  0
   45.5122   35.1601   43.6328 H   0  0  0  0  0  0  0  0  0  0  0  0
   47.0502   30.8799   47.3440 H   0  0  0  0  0  0  0  0  0  0  0  0
  1  9  1  0
  2  1  1  0
  3  2  1  0
  4  3  1  0
  4  5  1  0
  5  6  1  0
  6  1  1  0
  7 12  2  0
  8  7  1  0
  9  8  2  0
  9 10  1  0
 10 11  2  0
 11 12  1  0
 11 13  1  0
 13 14  2  0
 15 16  1  0
 15  5  1  0
 15 17  1  0
 18 15  1  0
  2 19  1  0
  2 20  1  0
  3 21  1  0
  3 22  1  0
  4 23  1  0
  5 24  1  1
  6 25  1  0
  6 26  1  0
  7 27  1  0
  8 28  1  0
 13 29  1  0
M  ISO  8  19  13  20  13  21  13  22  13  23   5  24  13  25  13  26  13
M  ISO  3  27  14  28  14  29   6
M  END
>  <minimizedAffinity>  (1) 
-5.34951687

>  <minimizedRMSD>  (1) 
0.278454185

$$$$
