
     RDKit          3D

 42 45  0  0  0  0  0  0  0  0999 V2000
   47.4340   32.0680   47.8650 C   0  0  0  0  0  0  0  0  0  0  0  0
   46.8940   30.7780   47.8960 C   0  0  0  0  0  0  0  0  0  0  0  0
   45.9140   30.5010   46.9840 C   0  0  0  0  0  0  0  0  0  0  0  0
   45.5220   31.4400   46.1200 N   0  0  0  0  0  0  0  0  0  0  0  0
   46.0190   32.6570   46.0720 C   0  0  0  0  0  0  0  0  0  0  0  0
   46.9890   32.9600   46.9660 N   0  0  0  0  0  0  0  0  0  0  0  0
   45.3260   29.2580   46.9740 N   0  0  0  0  0  0  0  0  0  0  0  0
   44.1330   28.9060   46.1540 C   0  0  0  0  0  0  0  0  0  0  0  0
   44.0240   27.4060   46.2120 C   0  0  0  0  0  0  0  0  0  0  0  0
   44.6700   27.0710   47.5090 C   0  0  0  0  0  0  0  0  0  0  0  0
   45.7170   28.1040   47.7190 C   0  0  0  0  0  0  0  0  0  0  0  0
   45.7480   33.8110   45.1800 C   0  0  0  0  0  0  0  0  0  0  0  0
   44.8620   34.7750   45.4590 N   0  0  0  0  0  0  0  0  0  0  0  0
   44.5990   35.8220   44.6860 C   0  0  0  0  0  0  0  0  0  0  0  0
   45.2540   35.9730   43.5100 N   0  0  0  0  0  0  0  0  0  0  0  0
   46.1670   35.0750   43.1160 C   0  0  0  0  0  0  0  0  0  0  0  0
   46.8370   35.2230   41.9220 C   0  0  0  0  0  0  0  0  0  0  0  0
   47.7650   34.3220   41.5100 C   0  0  0  0  0  0  0  0  0  0  0  0
   48.0240   33.2360   42.3290 C   0  0  0  0  0  0  0  0  0  0  0  0
   47.3260   33.1280   43.5230 C   0  0  0  0  0  0  0  0  0  0  0  0
   46.3930   34.0090   43.9660 C   0  0  0  0  0  0  0  0  0  0  0  0
   47.7090   31.9540   44.2420 N   0  0  0  0  0  0  0  0  0  0  0  0
   49.0190   32.2640   41.8900 C   0  0  0  0  0  0  0  0  0  0  0  0
   50.1490   32.6270   41.4760 O   0  0  0  0  0  0  0  0  0  0  0  0
   47.4220   29.8890   48.7890 N   0  0  0  0  0  0  0  0  0  0  0  0
   48.2231   32.3514   48.5771 H   0  0  0  0  0  0  0  0  0  0  0  0
   44.2701   29.2403   45.1150 H   0  0  0  0  0  0  0  0  0  0  0  0
   43.2227   29.3932   46.5335 H   0  0  0  0  0  0  0  0  0  0  0  0
   42.9717   27.0858   46.2006 H   0  0  0  0  0  0  0  0  0  0  0  0
   44.4935   26.9047   45.3528 H   0  0  0  0  0  0  0  0  0  0  0  0
   43.9319   27.1027   48.3240 H   0  0  0  0  0  0  0  0  0  0  0  0
   45.0977   26.0576   47.4982 H   0  0  0  0  0  0  0  0  0  0  0  0
   46.6887   27.7345   47.3594 H   0  0  0  0  0  0  0  0  0  0  0  0
   45.8197   28.3448   48.7874 H   0  0  0  0  0  0  0  0  0  0  0  0
   43.8510   36.5650   44.9998 H   0  0  0  0  0  0  0  0  0  0  0  0
   46.6147   36.0928   41.2864 H   0  0  0  0  0  0  0  0  0  0  0  0
   48.2950   34.4507   40.5547 H   0  0  0  0  0  0  0  0  0  0  0  0
   47.2726   31.7411   45.1504 H   0  0  0  0  0  0  0  0  0  0  0  0
   48.4214   31.3206   43.8519 H   0  0  0  0  0  0  0  0  0  0  0  0
   48.7756   31.1917   41.9219 H   0  0  0  0  0  0  0  0  0  0  0  0
   47.0507   28.9297   48.8414 H   0  0  0  0  0  0  0  0  0  0  0  0
   48.1913   30.1781   49.4098 H   0  0  0  0  0  0  0  0  0  0  0  0
  1  2  2  0
  2 25  1  0
  3  2  1  0
  4  3  2  0
  5  4  1  0
  5  6  2  0
  6  1  1  0
  7  3  1  0
  7 11  1  0
  8  9  1  0
  8  7  1  0
  9 10  1  0
 10 11  1  0
 12 13  2  0
 12  5  1  0
 14 13  1  0
 15 14  2  0
 16 15  1  0
 16 21  2  0
 17 16  1  0
 18 17  2  0
 18 19  1  0
 19 20  2  0
 20 21  1  0
 20 22  1  0
 21 12  1  0
 23 19  1  0
 24 23  2  0
  1 26  1  0
  8 27  1  0
  8 28  1  0
  9 29  1  0
  9 30  1  0
 10 31  1  0
 10 32  1  0
 11 33  1  0
 11 34  1  0
 14 35  1  0
 17 36  1  0
 18 37  1  0
 22 38  1  0
 22 39  1  0
 23 40  1  0
 25 41  1  0
 25 42  1  0
M  ISO  8  26  14  27  13  28  13  29  13  30  13  31  13  32  13  33  13
M  ISO  5  34  13  35  14  36  14  37  14  40   6
M  END
>  <minimizedAffinity>  (1) 
-6.47223091

>  <minimizedRMSD>  (1) 
0.0634452477

$$$$
