
     RDKit          3D

 29 30  0  0  1  0  0  0  0  0999 V2000
   49.5670   35.4120   42.8160 O   0  0  0  0  0  0  0  0  0  0  0  0
   48.9770   34.3020   42.0090 P   0  0  1  0  0  0  0  0  0  0  0  0
   50.2300   33.2750   41.5690 O   0  0  0  0  0  0  0  0  0  0  0  0
   47.7800   33.4660   42.9050 O   0  0  0  0  0  0  0  0  0  0  0  0
   46.1920   35.2640   42.8340 C   0  0  0  0  0  0  0  0  0  0  0  0
   46.7280   34.1700   43.5080 C   0  0  0  0  0  0  0  0  0  0  0  0
   46.1980   33.8180   44.7540 C   0  0  0  0  0  0  0  0  0  0  0  0
   45.1720   34.5750   45.2450 N   0  0  0  0  0  0  0  0  0  0  0  0
   44.6840   35.6180   44.5710 C   0  0  0  0  0  0  0  0  0  0  0  0
   45.1850   35.9640   43.3730 N   0  0  0  0  0  0  0  0  0  0  0  0
   48.3080   34.9560   40.6230 O   0  0  0  0  0  0  0  0  0  0  0  0
   47.8550   34.2620   39.5530 C   0  0  0  0  0  0  0  0  0  0  0  0
   46.6820   33.7790   39.7770 O   0  0  0  0  0  0  0  0  0  0  0  0
   47.7200   33.6160   38.2250 C   0  0  2  0  0  0  0  0  0  0  0  0
   48.4720   32.3030   38.1550 C   0  0  0  0  0  0  0  0  0  0  0  0
   48.4880   32.1550   36.6240 C   0  0  0  0  0  0  0  0  0  0  0  0
   48.7250   33.4310   36.1370 O   0  0  0  0  0  0  0  0  0  0  0  0
   48.3700   34.3560   37.1050 C   0  0  0  0  0  0  0  0  0  0  0  0
   50.6655   32.9180   42.3833 H   0  0  0  0  0  0  0  0  0  0  0  0
   46.5975   35.5551   41.8538 H   0  0  0  0  0  0  0  0  0  0  0  0
   46.5937   32.9612   45.3190 H   0  0  0  0  0  0  0  0  0  0  0  0
   43.8589   36.2036   45.0026 H   0  0  0  0  0  0  0  0  0  0  0  0
   46.6272   33.5466   38.1200 H   0  0  0  0  0  0  0  0  0  0  0  0
   49.4846   32.3784   38.5780 H   0  0  0  0  0  0  0  0  0  0  0  0
   48.0378   31.4644   38.7191 H   0  0  0  0  0  0  0  0  0  0  0  0
   49.2883   31.4682   36.3114 H   0  0  0  0  0  0  0  0  0  0  0  0
   47.5445   31.7382   36.2418 H   0  0  0  0  0  0  0  0  0  0  0  0
   49.2667   34.8773   37.4713 H   0  0  0  0  0  0  0  0  0  0  0  0
   47.6806   35.1044   36.6873 H   0  0  0  0  0  0  0  0  0  0  0  0
  2  1  2  0
  2  4  1  0
  3  2  1  0
  4  6  1  0
  5 10  2  0
  5  6  1  0
  6  7  2  0
  7  8  1  0
  9  8  2  0
 10  9  1  0
 11  2  1  0
 12 13  2  0
 12 11  1  0
 14 12  1  0
 15 14  1  0
 16 15  1  0
 17 16  1  0
 17 18  1  0
 18 14  1  0
  3 19  1  0
  5 20  1  0
  7 21  1  0
  9 22  1  0
 14 23  1  6
 15 24  1  0
 15 25  1  0
 16 26  1  0
 16 27  1  0
 18 28  1  0
 18 29  1  0
M  ISO  8  19   3  20  14  21  14  22  14  23  13  24  13  25  13  26  13
M  ISO  3  27  13  28  13  29  13
M  END
>  <minimizedAffinity>  (1) 
-4.5802021

>  <minimizedRMSD>  (1) 
0.351810783

$$$$
