
     RDKit          3D

 33 34  0  0  1  0  0  0  0  0999 V2000
   43.6960   34.6210   42.3810 N   0  0  0  0  0  0  0  0  0  0  0  0
   42.9810   35.3630   41.3350 C   0  0  0  0  0  0  0  0  0  0  0  0
   41.2350   35.1500   41.6360 S   0  0  0  0  0  0  0  0  0  0  0  0
   39.1810   34.1330   40.0910 C   0  0  0  0  0  0  0  0  0  0  0  0
   40.3940   34.8100   40.0750 C   0  0  0  0  0  0  0  0  0  0  0  0
   40.9640   35.2270   38.8630 C   0  0  0  0  0  0  0  0  0  0  0  0
   40.2680   34.9320   37.7280 N   0  0  0  0  0  0  0  0  0  0  0  0
   39.1030   34.2780   37.7940 C   0  0  0  0  0  0  0  0  0  0  0  0
   38.5340   33.8680   38.9280 N   0  0  0  0  0  0  0  0  0  0  0  0
   45.4020   34.9080   42.2880 S   0  0  0  0  0  0  0  0  0  0  0  0
   45.9280   34.7520   40.9130 O   0  0  0  0  0  0  0  0  0  0  0  0
   45.6130   36.3200   42.7910 O   0  0  0  0  0  0  0  0  0  0  0  0
   46.1920   33.9230   43.3850 O   0  0  0  0  0  0  0  0  0  0  0  0
   45.3160   33.3930   44.3260 C   0  0  1  0  0  0  0  0  0  0  0  0
   45.9060   32.0960   44.8220 C   0  0  0  0  0  0  0  0  0  0  0  0
   46.4400   32.5090   46.1950 C   0  0  0  0  0  0  0  0  0  0  0  0
   45.4140   33.3460   46.6390 O   0  0  0  0  0  0  0  0  0  0  0  0
   45.3410   34.2610   45.5670 C   0  0  0  0  0  0  0  0  0  0  0  0
   43.3530   34.9242   43.3037 H   0  0  0  0  0  0  0  0  0  0  0  0
   43.2438   34.9647   40.3439 H   0  0  0  0  0  0  0  0  0  0  0  0
   43.2537   36.4285   41.3565 H   0  0  0  0  0  0  0  0  0  0  0  0
   38.7443   33.8112   41.0480 H   0  0  0  0  0  0  0  0  0  0  0  0
   41.9232   35.7644   38.8298 H   0  0  0  0  0  0  0  0  0  0  0  0
   38.5798   34.0643   36.8503 H   0  0  0  0  0  0  0  0  0  0  0  0
   46.8764   34.4707   40.9524 H   0  0  0  0  0  0  0  0  0  0  0  0
   45.6132   36.3211   43.7810 H   0  0  0  0  0  0  0  0  0  0  0  0
   44.3180   33.3020   43.8725 H   0  0  0  0  0  0  0  0  0  0  0  0
   45.1387   31.3126   44.9083 H   0  0  0  0  0  0  0  0  0  0  0  0
   46.6680   31.6660   44.1553 H   0  0  0  0  0  0  0  0  0  0  0  0
   46.5674   31.6399   46.8571 H   0  0  0  0  0  0  0  0  0  0  0  0
   47.4330   32.9817   46.1720 H   0  0  0  0  0  0  0  0  0  0  0  0
   46.2197   34.9228   45.5606 H   0  0  0  0  0  0  0  0  0  0  0  0
   44.4599   34.9158   45.6363 H   0  0  0  0  0  0  0  0  0  0  0  0
  2  3  1  0
  2  1  1  0
  5  4  2  0
  5  3  1  0
  6  5  1  0
  7  8  1  0
  7  6  2  0
  8  9  2  0
  9  4  1  0
 10  1  1  0
 10 12  1  0
 10 13  1  0
 11 10  1  0
 14 13  1  0
 14 15  1  0
 14 18  1  0
 15 16  1  0
 16 17  1  0
 18 17  1  0
  1 19  1  0
  2 20  1  0
  2 21  1  0
  4 22  1  0
  6 23  1  0
  8 24  1  0
 11 25  1  0
 12 26  1  0
 14 27  1  6
 15 28  1  0
 15 29  1  0
 16 30  1  0
 16 31  1  0
 18 32  1  0
 18 33  1  0
M  ISO  8  19   5  20   8  21   8  22  14  23  14  24  14  25   3  26   3
M  ISO  7  27  13  28  13  29  13  30  13  31  13  32  13  33  13
M  END
>  <minimizedAffinity>  (1) 
-4.32213354

>  <minimizedRMSD>  (1) 
2.92743134

$$$$
