
     RDKit          3D

 23 24  0  0  1  0  0  0  0  0999 V2000
   46.0380   32.6770   46.0040 C   0  0  0  0  0  0  0  0  0  0  0  0
   46.2770   31.5980   45.4100 O   0  0  0  0  0  0  0  0  0  0  0  0
   46.2410   33.9930   43.9260 C   0  0  0  0  0  0  0  0  0  0  0  0
   45.7070   33.8120   45.2090 C   0  0  0  0  0  0  0  0  0  0  0  0
   44.8290   34.7940   45.6850 C   0  0  0  0  0  0  0  0  0  0  0  0
   44.5340   35.8700   44.8920 N   0  0  0  0  0  0  0  0  0  0  0  0
   45.0810   35.9930   43.6600 C   0  0  0  0  0  0  0  0  0  0  0  0
   45.9210   35.0670   43.1860 N   0  0  0  0  0  0  0  0  0  0  0  0
   46.1050   32.7430   47.4880 C   0  0  1  0  0  0  0  0  0  0  0  0
   45.0700   31.9210   48.1840 C   0  0  0  0  0  0  0  0  0  0  0  0
   45.8930   30.8640   48.8740 C   0  0  0  0  0  0  0  0  0  0  0  0
   47.1490   31.3810   49.0650 O   0  0  0  0  0  0  0  0  0  0  0  0
   47.4130   32.2610   48.0260 C   0  0  0  0  0  0  0  0  0  0  0  0
   46.9341   33.2425   43.5181 H   0  0  0  0  0  0  0  0  0  0  0  0
   44.3813   34.7015   46.6855 H   0  0  0  0  0  0  0  0  0  0  0  0
   44.8310   36.8668   43.0403 H   0  0  0  0  0  0  0  0  0  0  0  0
   45.9447   33.8126   47.6886 H   0  0  0  0  0  0  0  0  0  0  0  0
   44.5085   32.5244   48.9124 H   0  0  0  0  0  0  0  0  0  0  0  0
   44.3116   31.5073   47.5031 H   0  0  0  0  0  0  0  0  0  0  0  0
   45.4403   30.6085   49.8434 H   0  0  0  0  0  0  0  0  0  0  0  0
   45.9384   29.9488   48.2654 H   0  0  0  0  0  0  0  0  0  0  0  0
   47.9758   31.7456   47.2337 H   0  0  0  0  0  0  0  0  0  0  0  0
   48.0148   33.1086   48.3857 H   0  0  0  0  0  0  0  0  0  0  0  0
  2  1  2  0
  3  4  2  0
  4  5  1  0
  4  1  1  0
  6  5  2  0
  7  6  1  0
  8  7  2  0
  8  3  1  0
  9  1  1  0
  9 13  1  0
  9 10  1  0
 10 11  1  0
 11 12  1  0
 13 12  1  0
  3 14  1  0
  5 15  1  0
  7 16  1  0
  9 17  1  6
 10 18  1  0
 10 19  1  0
 11 20  1  0
 11 21  1  0
 13 22  1  0
 13 23  1  0
M  ISO  8  14  14  15  14  16  14  17  13  18  13  19  13  20  13  21  13
M  ISO  2  22  13  23  13
M  END
>  <minimizedAffinity>  (1) 
-4.27796268

>  <minimizedRMSD>  (1) 
6.17190886

$$$$
