
     RDKit          3D

 49 52  0  0  1  0  0  0  0  0999 V2000
   47.7150   31.0280   46.0260 C   0  0  0  0  0  0  0  0  0  0  0  0
   46.9770   32.0800   45.5460 C   0  0  0  0  0  0  0  0  0  0  0  0
   45.9730   32.5790   46.3420 C   0  0  0  0  0  0  0  0  0  0  0  0
   45.6780   32.0790   47.5820 C   0  0  0  0  0  0  0  0  0  0  0  0
   44.7880   32.3320   48.5820 N   0  0  0  0  0  0  0  0  0  0  0  0
   44.9940   31.4590   49.6140 C   0  0  0  0  0  0  0  0  0  0  0  0
   46.0150   30.6700   49.2430 N   0  0  0  0  0  0  0  0  0  0  0  0
   46.4320   31.0320   48.0270 C   0  0  0  0  0  0  0  0  0  0  0  0
   47.4510   30.4800   47.2890 C   0  0  0  0  0  0  0  0  0  0  0  0
   47.1830   34.4160   42.7410 C   0  0  0  0  0  0  0  0  0  0  0  0
   47.8140   33.6480   41.7410 C   0  0  0  0  0  0  0  0  0  0  0  0
   48.1490   32.3300   42.0830 C   0  0  0  0  0  0  0  0  0  0  0  0
   47.8650   31.8540   43.3200 N   0  0  0  0  0  0  0  0  0  0  0  0
   47.2610   32.6440   44.2250 C   0  0  0  0  0  0  0  0  0  0  0  0
   46.9120   33.9150   43.9670 N   0  0  0  0  0  0  0  0  0  0  0  0
   48.0670   34.2880   40.4310 C   0  0  0  0  0  0  0  0  0  0  0  0
   48.5720   35.5300   40.7300 F   0  0  0  0  0  0  0  0  0  0  0  0
   46.8940   34.4130   39.7740 F   0  0  0  0  0  0  0  0  0  0  0  0
   48.9770   33.4920   39.7440 F   0  0  0  0  0  0  0  0  0  0  0  0
   48.1900   29.4180   47.7820 O   0  0  0  0  0  0  0  0  0  0  0  0
   49.8170   28.1380   49.3520 O   0  0  0  0  0  0  0  0  0  0  0  0
   49.4640   29.5420   48.8670 P   0  0  2  0  0  0  0  0  0  0  0  0
   48.8890   30.3870   50.2260 O   0  0  0  0  0  0  0  0  0  0  0  0
   50.8320   30.3030   48.2440 O   0  0  0  0  0  0  0  0  0  0  0  0
   51.8580   30.4340   49.1350 C   0  0  0  0  0  0  0  0  0  0  0  0
   51.9850   31.9290   49.4590 C   0  0  0  0  0  0  0  0  0  0  0  0
   52.3820   32.1490   50.8800 C   0  0  2  0  0  0  0  0  0  0  0  0
   52.0870   30.8670   51.6480 C   0  0  0  0  0  0  0  0  0  0  0  0
   51.8860   31.4510   53.0340 C   0  0  0  0  0  0  0  0  0  0  0  0
   51.3100   32.6880   52.8800 O   0  0  0  0  0  0  0  0  0  0  0  0
   51.5220   33.1480   51.5980 C   0  0  0  0  0  0  0  0  0  0  0  0
   48.5251   30.6086   45.4114 H   0  0  0  0  0  0  0  0  0  0  0  0
   45.3768   33.4224   45.9635 H   0  0  0  0  0  0  0  0  0  0  0  0
   44.0689   33.0692   48.5634 H   0  0  0  0  0  0  0  0  0  0  0  0
   44.4345   31.4124   50.5600 H   0  0  0  0  0  0  0  0  0  0  0  0
   46.9024   35.4556   42.5165 H   0  0  0  0  0  0  0  0  0  0  0  0
   48.6435   31.6807   41.3455 H   0  0  0  0  0  0  0  0  0  0  0  0
   49.1971   29.9343   51.0508 H   0  0  0  0  0  0  0  0  0  0  0  0
   51.6371   29.8666   50.0511 H   0  0  0  0  0  0  0  0  0  0  0  0
   52.7958   30.0434   48.7131 H   0  0  0  0  0  0  0  0  0  0  0  0
   52.7471   32.3735   48.8021 H   0  0  0  0  0  0  0  0  0  0  0  0
   51.0048   32.4014   49.2976 H   0  0  0  0  0  0  0  0  0  0  0  0
   53.4313   32.4777   50.8496 H   0  0  0  0  0  0  0  0  0  0  0  0
   51.1806   30.3655   51.2779 H   0  0  0  0  0  0  0  0  0  0  0  0
   52.8591   30.0870   51.5743 H   0  0  0  0  0  0  0  0  0  0  0  0
   51.2247   30.7994   53.6240 H   0  0  0  0  0  0  0  0  0  0  0  0
   52.8468   31.5337   53.5632 H   0  0  0  0  0  0  0  0  0  0  0  0
   52.0310   34.1226   51.6310 H   0  0  0  0  0  0  0  0  0  0  0  0
   50.5627   33.2712   51.0740 H   0  0  0  0  0  0  0  0  0  0  0  0
  1  9  2  0
  2  1  1  0
  2  3  2  0
  3  4  1  0
  4  8  2  0
  4  5  1  0
  5  6  1  0
  7  6  2  0
  8  7  1  0
  9 20  1  0
  9  8  1  0
 10 15  2  0
 11 12  2  0
 11 10  1  0
 12 13  1  0
 13 14  2  0
 14  2  1  0
 15 14  1  0
 16 17  1  0
 16 11  1  0
 18 16  1  0
 19 16  1  0
 20 22  1  0
 22 21  2  0
 22 23  1  0
 24 22  1  0
 24 25  1  0
 25 26  1  0
 27 26  1  0
 27 31  1  0
 27 28  1  0
 28 29  1  0
 30 29  1  0
 31 30  1  0
  1 32  1  0
  3 33  1  0
  5 34  1  0
  6 35  1  0
 10 36  1  0
 12 37  1  0
 23 38  1  0
 25 39  1  0
 25 40  1  0
 26 41  1  0
 26 42  1  0
 27 43  1  6
 28 44  1  0
 28 45  1  0
 29 46  1  0
 29 47  1  0
 31 48  1  0
 31 49  1  0
M  ISO  8  32  14  33  14  34   9  35  14  36  14  37  14  38   3  39   8
M  ISO  8  40   8  41   8  42   8  43  13  44  13  45  13  46  13  47  13
M  ISO  2  48  13  49  13
M  END
>  <minimizedAffinity>  (1) 
-5.96073771

>  <minimizedRMSD>  (1) 
2.13337159

$$$$
