
     RDKit          3D

 42 44  0  0  1  0  0  0  0  0999 V2000
   45.7820   34.4530   41.1730 C   0  0  1  0  0  0  0  0  0  0  0  0
   44.5650   34.9980   41.8060 C   0  0  2  0  0  0  0  0  0  0  0  0
   44.8080   35.3650   43.1690 O   0  0  0  0  0  0  0  0  0  0  0  0
   44.9600   34.1500   43.8480 C   0  0  0  0  0  0  0  0  0  0  0  0
   46.2850   33.5130   43.4740 C   0  0  1  0  0  0  0  0  0  0  0  0
   46.8410   34.0800   42.1930 C   0  0  1  0  0  0  0  0  0  0  0  0
   45.4780   33.3480   40.3520 O   0  0  0  0  0  0  0  0  0  0  0  0
   47.1680   33.8430   44.5190 O   0  0  0  0  0  0  0  0  0  0  0  0
   43.4340   34.1380   41.8260 O   0  0  0  0  0  0  0  0  0  0  0  0
   40.7640   34.3320   39.4430 C   0  0  0  0  0  0  0  0  0  0  0  0
   40.0280   35.4510   39.8590 C   0  0  0  0  0  0  0  0  0  0  0  0
   40.4750   36.1460   40.9870 C   0  0  0  0  0  0  0  0  0  0  0  0
   41.5930   35.7020   41.6170 N   0  0  0  0  0  0  0  0  0  0  0  0
   42.2790   34.6370   41.2090 C   0  0  0  0  0  0  0  0  0  0  0  0
   41.8720   33.9400   40.1160 N   0  0  0  0  0  0  0  0  0  0  0  0
   40.2750   33.5900   38.2340 C   0  0  0  0  0  0  0  0  0  0  0  0
   41.2600   32.8250   37.6870 F   0  0  0  0  0  0  0  0  0  0  0  0
   39.1680   32.8420   38.6050 F   0  0  0  0  0  0  0  0  0  0  0  0
   39.7790   34.5240   37.2990 F   0  0  0  0  0  0  0  0  0  0  0  0
   47.6430   33.0720   41.6190 O   0  0  0  0  0  0  0  0  0  0  0  0
   48.7390   33.5910   40.9690 C   0  0  2  0  0  0  0  0  0  0  0  0
   49.7690   32.4840   40.8480 C   0  0  0  0  0  0  0  0  0  0  0  0
   50.1420   32.3730   42.3220 C   0  0  0  0  0  0  0  0  0  0  0  0
   50.3460   33.6970   42.6730 O   0  0  0  0  0  0  0  0  0  0  0  0
   49.4720   34.4870   41.9530 C   0  0  0  0  0  0  0  0  0  0  0  0
   46.1968   35.2541   40.5436 H   0  0  0  0  0  0  0  0  0  0  0  0
   44.3276   35.8583   41.1629 H   0  0  0  0  0  0  0  0  0  0  0  0
   44.9361   34.3325   44.9325 H   0  0  0  0  0  0  0  0  0  0  0  0
   44.1400   33.4727   43.5673 H   0  0  0  0  0  0  0  0  0  0  0  0
   46.1559   32.4304   43.3278 H   0  0  0  0  0  0  0  0  0  0  0  0
   47.3851   35.0026   42.4436 H   0  0  0  0  0  0  0  0  0  0  0  0
   45.2627   32.5653   40.9186 H   0  0  0  0  0  0  0  0  0  0  0  0
   46.7258   33.6778   45.3892 H   0  0  0  0  0  0  0  0  0  0  0  0
   39.1274   35.7719   39.3150 H   0  0  0  0  0  0  0  0  0  0  0  0
   39.9344   37.0305   41.3549 H   0  0  0  0  0  0  0  0  0  0  0  0
   48.4094   34.0582   40.0293 H   0  0  0  0  0  0  0  0  0  0  0  0
   49.3341   31.5521   40.4577 H   0  0  0  0  0  0  0  0  0  0  0  0
   50.6011   32.6748   40.1542 H   0  0  0  0  0  0  0  0  0  0  0  0
   49.3248   31.9266   42.9076 H   0  0  0  0  0  0  0  0  0  0  0  0
   51.0127   31.7274   42.5096 H   0  0  0  0  0  0  0  0  0  0  0  0
   50.0305   35.2626   41.4085 H   0  0  0  0  0  0  0  0  0  0  0  0
   48.7578   34.9826   42.6270 H   0  0  0  0  0  0  0  0  0  0  0  0
  1  2  1  0
  1  6  1  0
  2  9  1  0
  2  3  1  0
  3  4  1  0
  5  4  1  0
  5  8  1  0
  6  5  1  0
  7  1  1  0
 10 11  2  0
 10 15  1  0
 11 12  1  0
 12 13  2  0
 14 13  1  0
 14  9  1  0
 15 14  2  0
 16 18  1  0
 16 10  1  0
 17 16  1  0
 19 16  1  0
 20  6  1  0
 21 20  1  0
 21 25  1  0
 22 21  1  0
 22 23  1  0
 23 24  1  0
 25 24  1  0
  1 26  1  6
  2 27  1  6
  4 28  1  0
  4 29  1  0
  5 30  1  6
  6 31  1  1
  7 32  1  0
  8 33  1  0
 11 34  1  0
 12 35  1  0
 21 36  1  6
 22 37  1  0
 22 38  1  0
 23 39  1  0
 23 40  1  0
 25 41  1  0
 25 42  1  0
M  ISO  8  26  13  27  13  28  13  29  13  30  13  31  13  32   3  33   3
M  ISO  8  34  14  35  14  36  13  37  13  38  13  39  13  40  13  41  13
M  ISO  1  42  13
M  END
>  <minimizedAffinity>  (1) 
-5.70532465

>  <minimizedRMSD>  (1) 
7.15601635

$$$$
