
     RDKit          3D

 27 28  0  0  1  0  0  0  0  0999 V2000
   46.1780   33.1640   42.8540 C   0  0  0  0  0  0  0  0  0  0  0  0
   46.7780   34.4460   42.9200 C   0  0  0  0  0  0  0  0  0  0  0  0
   46.0040   35.6290   42.6870 C   0  0  0  0  0  0  0  0  0  0  0  0
   44.6940   35.4650   42.3980 N   0  0  0  0  0  0  0  0  0  0  0  0
   44.1630   34.2380   42.3380 C   0  0  0  0  0  0  0  0  0  0  0  0
   44.8750   33.1150   42.5580 N   0  0  0  0  0  0  0  0  0  0  0  0
   46.4900   31.7250   43.0530 C   0  0  2  0  0  0  0  0  0  0  0  0
   45.5070   30.9690   43.8590 C   0  0  0  0  0  0  0  0  0  0  0  0
   46.0140   31.1440   45.2970 C   0  0  0  0  0  0  0  0  0  0  0  0
   47.2140   31.8470   45.2050 O   0  0  0  0  0  0  0  0  0  0  0  0
   47.7480   31.5330   43.9640 C   0  0  0  0  0  0  0  0  0  0  0  0
   48.1470   34.3910   43.2130 O   0  0  0  0  0  0  0  0  0  0  0  0
   50.6940   34.2930   42.4920 O   0  0  0  0  0  0  0  0  0  0  0  0
   49.3180   34.5790   41.9720 P   0  0  0  0  0  0  0  0  0  0  0  0
   49.0110   33.5130   40.7140 O   0  0  0  0  0  0  0  0  0  0  0  0
   49.2790   36.1120   41.2750 O   0  0  0  0  0  0  0  0  0  0  0  0
   46.4574   36.6297   42.7411 H   0  0  0  0  0  0  0  0  0  0  0  0
   43.0940   34.1414   42.0975 H   0  0  0  0  0  0  0  0  0  0  0  0
   46.5642   31.3745   42.0130 H   0  0  0  0  0  0  0  0  0  0  0  0
   44.4972   31.3898   43.7440 H   0  0  0  0  0  0  0  0  0  0  0  0
   45.4264   29.9140   43.5581 H   0  0  0  0  0  0  0  0  0  0  0  0
   45.2840   31.7125   45.8919 H   0  0  0  0  0  0  0  0  0  0  0  0
   46.1565   30.1721   45.7921 H   0  0  0  0  0  0  0  0  0  0  0  0
   48.1182   30.4977   43.9317 H   0  0  0  0  0  0  0  0  0  0  0  0
   48.6195   32.1385   43.6743 H   0  0  0  0  0  0  0  0  0  0  0  0
   48.7569   32.6305   41.0838 H   0  0  0  0  0  0  0  0  0  0  0  0
   49.2615   36.7984   41.9882 H   0  0  0  0  0  0  0  0  0  0  0  0
  1  2  2  0
  2 12  1  0
  3  2  1  0
  4  3  2  0
  5  4  1  0
  5  6  2  0
  6  1  1  0
  7  1  1  0
  7  8  1  0
  7 11  1  0
  8  9  1  0
 10  9  1  0
 11 10  1  0
 14 13  2  0
 14 12  1  0
 15 14  1  0
 16 14  1  0
  3 17  1  0
  5 18  1  0
  7 19  1  6
  8 20  1  0
  8 21  1  0
  9 22  1  0
  9 23  1  0
 11 24  1  0
 11 25  1  0
 15 26  1  0
 16 27  1  0
M  ISO  8  17  14  18  14  19  13  20  13  21  13  22  13  23  13  24  13
M  ISO  3  25  13  26   3  27   3
M  END
>  <minimizedAffinity>  (1) 
-3.69033575

>  <minimizedRMSD>  (1) 
3.65909934

$$$$
