
     RDKit          3D

 45 47  0  0  1  0  0  0  0  0999 V2000
   42.4860   35.3770   40.5330 O   0  0  0  0  0  0  0  0  0  0  0  0
   41.3040   35.5580   41.1690 C   0  0  0  0  0  0  0  0  0  0  0  0
   40.6020   33.2770   41.6630 C   0  0  0  0  0  0  0  0  0  0  0  0
   40.3140   34.4430   40.9670 C   0  0  0  0  0  0  0  0  0  0  0  0
   39.1910   34.4960   40.2010 C   0  0  0  0  0  0  0  0  0  0  0  0
   38.4430   33.4060   40.1790 N   0  0  0  0  0  0  0  0  0  0  0  0
   38.6940   32.2780   40.8360 C   0  0  0  0  0  0  0  0  0  0  0  0
   39.8330   32.1800   41.6310 N   0  0  0  0  0  0  0  0  0  0  0  0
   37.8510   31.0480   40.8120 C   0  0  1  0  0  0  0  0  0  0  0  0
   37.9500   30.3980   39.4280 C   0  0  0  0  0  0  0  0  0  0  0  0
   37.9470   28.9360   39.8360 C   0  0  0  0  0  0  0  0  0  0  0  0
   38.6240   28.8850   41.0510 O   0  0  0  0  0  0  0  0  0  0  0  0
   38.2930   30.0040   41.7820 C   0  0  0  0  0  0  0  0  0  0  0  0
   43.7630   35.2520   41.0680 C   0  0  0  0  0  0  0  0  0  0  0  0
   43.8800   35.6260   42.3400 C   0  0  0  0  0  0  0  0  0  0  0  0
   45.1570   35.5930   43.1470 C   0  0  0  0  0  0  0  0  0  0  0  0
   44.9740   34.7580   44.2200 O   0  0  0  0  0  0  0  0  0  0  0  0
   45.6780   32.5990   42.8250 O   0  0  0  0  0  0  0  0  0  0  0  0
   45.9580   33.3940   44.0780 P   0  0  1  0  0  0  0  0  0  0  0  0
   47.5950   33.8670   44.0170 O   0  0  0  0  0  0  0  0  0  0  0  0
   45.7820   32.4120   45.4370 O   0  0  0  0  0  0  0  0  0  0  0  0
   46.0970   33.0660   46.6100 C   0  0  0  0  0  0  0  0  0  0  0  0
   46.9680   32.3800   47.6160 C   0  0  0  0  0  0  0  0  0  0  0  0
   45.4720   32.4870   47.8560 C   0  0  0  0  0  0  0  0  0  0  0  0
   41.5035   35.6502   42.2468 H   0  0  0  0  0  0  0  0  0  0  0  0
   40.8506   36.4631   40.7387 H   0  0  0  0  0  0  0  0  0  0  0  0
   41.5146   33.2520   42.2766 H   0  0  0  0  0  0  0  0  0  0  0  0
   38.9200   35.3968   39.6309 H   0  0  0  0  0  0  0  0  0  0  0  0
   36.8340   31.3765   41.0723 H   0  0  0  0  0  0  0  0  0  0  0  0
   38.8789   30.6772   38.9092 H   0  0  0  0  0  0  0  0  0  0  0  0
   37.1613   30.6871   38.7178 H   0  0  0  0  0  0  0  0  0  0  0  0
   36.9156   28.5729   39.9556 H   0  0  0  0  0  0  0  0  0  0  0  0
   38.4257   28.3005   39.0764 H   0  0  0  0  0  0  0  0  0  0  0  0
   39.1685   30.3591   42.3453 H   0  0  0  0  0  0  0  0  0  0  0  0
   37.4944   29.7775   42.5038 H   0  0  0  0  0  0  0  0  0  0  0  0
   44.6138   34.8721   40.4833 H   0  0  0  0  0  0  0  0  0  0  0  0
   42.9727   35.9888   42.8451 H   0  0  0  0  0  0  0  0  0  0  0  0
   45.9810   35.2184   42.5220 H   0  0  0  0  0  0  0  0  0  0  0  0
   45.4075   36.6055   43.4965 H   0  0  0  0  0  0  0  0  0  0  0  0
   47.9439   33.9678   44.9380 H   0  0  0  0  0  0  0  0  0  0  0  0
   46.1424   34.0523   46.1250 H   0  0  0  0  0  0  0  0  0  0  0  0
   47.4185   31.4048   47.3792 H   0  0  0  0  0  0  0  0  0  0  0  0
   47.8683   32.6584   48.1834 H   0  0  0  0  0  0  0  0  0  0  0  0
   45.0851   33.1539   48.6406 H   0  0  0  0  0  0  0  0  0  0  0  0
   44.6605   31.7745   48.0654 H   0  0  0  0  0  0  0  0  0  0  0  0
  1 14  1  0
  1  2  1  0
  4  2  1  0
  4  3  2  0
  5  4  1  0
  6  5  2  0
  6  7  1  0
  7  8  2  0
  8  3  1  0
  9  7  1  0
  9 13  1  0
 10 11  1  0
 10  9  1  0
 11 12  1  0
 12 13  1  0
 14 15  2  0
 15 16  1  0
 16 17  1  0
 19 18  2  0
 19 17  1  0
 19 21  1  0
 20 19  1  0
 21 22  1  0
 22 23  1  0
 22 24  1  0
 23 24  1  0
  2 25  1  0
  2 26  1  0
  3 27  1  0
  5 28  1  0
  9 29  1  1
 10 30  1  0
 10 31  1  0
 11 32  1  0
 11 33  1  0
 13 34  1  0
 13 35  1  0
 14 36  1  0
 15 37  1  0
 16 38  1  0
 16 39  1  0
 20 40  1  0
 22 41  1  0
 23 42  1  0
 23 43  1  0
 24 44  1  0
 24 45  1  0
M  ISO  8  25   8  26   8  27  14  28  14  29  13  30  13  31  13  32  13
M  ISO  8  33  13  34  13  35  13  38   8  39   8  40   3  41  13  42  13
M  ISO  3  43  13  44  13  45  13
M  END
>  <minimizedAffinity>  (1) 
-5.06260347

>  <minimizedRMSD>  (1) 
0.671194673

$$$$
