
     RDKit          3D

 27 28  0  0  1  0  0  0  0  0999 V2000
   44.5680   35.7900   44.6410 C   0  0  0  0  0  0  0  0  0  0  0  0
   45.1770   35.8020   43.3620 C   0  0  0  0  0  0  0  0  0  0  0  0
   46.1430   34.8440   43.0830 C   0  0  0  0  0  0  0  0  0  0  0  0
   46.4550   33.9410   44.0600 N   0  0  0  0  0  0  0  0  0  0  0  0
   45.8640   33.9500   45.2620 C   0  0  0  0  0  0  0  0  0  0  0  0
   44.9180   34.8760   45.5570 N   0  0  0  0  0  0  0  0  0  0  0  0
   46.1990   32.9790   46.3140 C   0  0  1  0  0  0  0  0  0  0  0  0
   45.2050   33.0400   47.4830 C   0  0  0  0  0  0  0  0  0  0  0  0
   45.5990   31.7290   48.1340 C   0  0  0  0  0  0  0  0  0  0  0  0
   45.9530   30.8590   47.1200 O   0  0  0  0  0  0  0  0  0  0  0  0
   46.0420   31.5450   45.9360 C   0  0  0  0  0  0  0  0  0  0  0  0
   46.7290   34.8680   41.8350 O   0  0  0  0  0  0  0  0  0  0  0  0
   48.6830   33.2430   41.1060 O   0  0  0  0  0  0  0  0  0  0  0  0
   48.4240   34.6360   41.6910 P   0  0  0  0  0  0  0  0  0  0  0  0
   49.0750   35.8440   40.7540 O   0  0  0  0  0  0  0  0  0  0  0  0
   49.0670   34.6430   43.2690 O   0  0  0  0  0  0  0  0  0  0  0  0
   43.7998   36.5386   44.8850 H   0  0  0  0  0  0  0  0  0  0  0  0
   44.8919   36.5513   42.6088 H   0  0  0  0  0  0  0  0  0  0  0  0
   47.2402   33.2567   46.5346 H   0  0  0  0  0  0  0  0  0  0  0  0
   45.3810   33.9048   48.1396 H   0  0  0  0  0  0  0  0  0  0  0  0
   44.1436   33.1577   47.2193 H   0  0  0  0  0  0  0  0  0  0  0  0
   46.4518   31.8857   48.8109 H   0  0  0  0  0  0  0  0  0  0  0  0
   44.7661   31.3210   48.7254 H   0  0  0  0  0  0  0  0  0  0  0  0
   45.1283   31.4028   45.3403 H   0  0  0  0  0  0  0  0  0  0  0  0
   46.8840   31.1912   45.3230 H   0  0  0  0  0  0  0  0  0  0  0  0
   49.4540   36.5472   41.3387 H   0  0  0  0  0  0  0  0  0  0  0  0
   48.3272   34.6349   43.9268 H   0  0  0  0  0  0  0  0  0  0  0  0
  1  6  2  0
  2  1  1  0
  3  2  2  0
  3  4  1  0
  4  5  2  0
  5  6  1  0
  7  5  1  0
  7  8  1  0
  8  9  1  0
 10  9  1  0
 11  7  1  0
 11 10  1  0
 12  3  1  0
 13 14  2  0
 14 12  1  0
 14 16  1  0
 15 14  1  0
  1 17  1  0
  2 18  1  0
  7 19  1  1
  8 20  1  0
  8 21  1  0
  9 22  1  0
  9 23  1  0
 11 24  1  0
 11 25  1  0
 15 26  1  0
 16 27  1  0
M  ISO  8  17  14  18  14  19  13  20  13  21  13  22  13  23  13  24  13
M  ISO  3  25  13  26   3  27   3
M  END
>  <minimizedAffinity>  (1) 
-5.36906767

>  <minimizedRMSD>  (1) 
0.461837769

$$$$
