
     RDKit          3D

 46 49  0  0  1  0  0  0  0  0999 V2000
   40.9350   34.4600   40.8400 C   0  0  0  0  0  0  0  0  0  0  0  0
   40.1240   34.5640   39.7430 C   0  0  0  0  0  0  0  0  0  0  0  0
   40.6960   34.9660   38.5720 C   0  0  0  0  0  0  0  0  0  0  0  0
   42.0420   35.2780   38.4140 C   0  0  0  0  0  0  0  0  0  0  0  0
   42.8510   35.1670   39.5340 C   0  0  0  0  0  0  0  0  0  0  0  0
   42.2810   34.7560   40.7420 C   0  0  0  0  0  0  0  0  0  0  0  0
   38.6850   34.2600   39.7990 C   0  0  0  0  0  0  0  0  0  0  0  0
   37.9200   30.8540   41.0200 C   0  0  0  0  0  0  0  0  0  0  0  0
   37.9620   30.1040   39.8420 C   0  0  0  0  0  0  0  0  0  0  0  0
   38.2520   30.7830   38.6570 C   0  0  0  0  0  0  0  0  0  0  0  0
   38.4730   32.1110   38.7080 N   0  0  0  0  0  0  0  0  0  0  0  0
   38.4250   32.8090   39.8680 C   0  0  0  0  0  0  0  0  0  0  0  0
   38.1500   32.1690   41.0030 N   0  0  0  0  0  0  0  0  0  0  0  0
   40.4250   34.0590   42.0590 O   0  0  0  0  0  0  0  0  0  0  0  0
   43.1050   34.6540   41.8480 O   0  0  0  0  0  0  0  0  0  0  0  0
   43.8330   33.4920   42.0070 C   0  0  0  0  0  0  0  0  0  0  0  0
   43.3620   32.3670   41.3320 C   0  0  0  0  0  0  0  0  0  0  0  0
   44.0600   31.1750   41.4610 C   0  0  0  0  0  0  0  0  0  0  0  0
   45.2110   31.1030   42.2500 C   0  0  0  0  0  0  0  0  0  0  0  0
   45.6240   32.2550   42.8940 C   0  0  0  0  0  0  0  0  0  0  0  0
   44.9680   33.4720   42.8020 C   0  0  0  0  0  0  0  0  0  0  0  0
   45.4640   34.6400   43.5170 C   0  0  1  0  0  0  0  0  0  0  0  0
   44.3130   35.4620   44.1130 C   0  0  0  0  0  0  0  0  0  0  0  0
   44.6190   35.4640   45.5750 C   0  0  0  0  0  0  0  0  0  0  0  0
   45.1540   34.1760   45.7710 O   0  0  0  0  0  0  0  0  0  0  0  0
   46.1430   34.1620   44.7990 C   0  0  0  0  0  0  0  0  0  0  0  0
   40.0457   35.0495   37.6887 H   0  0  0  0  0  0  0  0  0  0  0  0
   42.4468   35.5988   37.4428 H   0  0  0  0  0  0  0  0  0  0  0  0
   43.9246   35.3987   39.4730 H   0  0  0  0  0  0  0  0  0  0  0  0
   38.2558   34.7398   40.6910 H   0  0  0  0  0  0  0  0  0  0  0  0
   38.2224   34.6429   38.8774 H   0  0  0  0  0  0  0  0  0  0  0  0
   37.6945   30.3546   41.9738 H   0  0  0  0  0  0  0  0  0  0  0  0
   37.7738   29.0202   39.8479 H   0  0  0  0  0  0  0  0  0  0  0  0
   38.2992   30.2436   37.6995 H   0  0  0  0  0  0  0  0  0  0  0  0
   41.0216   33.9874   42.8458 H   0  0  0  0  0  0  0  0  0  0  0  0
   42.4562   32.4232   40.7103 H   0  0  0  0  0  0  0  0  0  0  0  0
   43.7033   30.2764   40.9363 H   0  0  0  0  0  0  0  0  0  0  0  0
   45.7699   30.1614   42.3553 H   0  0  0  0  0  0  0  0  0  0  0  0
   46.5287   32.2019   43.5175 H   0  0  0  0  0  0  0  0  0  0  0  0
   46.0882   35.1998   42.8050 H   0  0  0  0  0  0  0  0  0  0  0  0
   44.3082   36.4852   43.7093 H   0  0  0  0  0  0  0  0  0  0  0  0
   43.3207   35.0486   43.8797 H   0  0  0  0  0  0  0  0  0  0  0  0
   45.3534   36.2431   45.8273 H   0  0  0  0  0  0  0  0  0  0  0  0
   43.7453   35.6792   46.2078 H   0  0  0  0  0  0  0  0  0  0  0  0
   46.5383   33.1439   44.6678 H   0  0  0  0  0  0  0  0  0  0  0  0
   46.9932   34.8037   45.0735 H   0  0  0  0  0  0  0  0  0  0  0  0
  1 14  1  0
  2  7  1  0
  2  1  2  0
  3  2  1  0
  4  3  2  0
  4  5  1  0
  5  6  2  0
  6  1  1  0
  6 15  1  0
  7 12  1  0
  9  8  2  0
 10 11  2  0
 10  9  1  0
 11 12  1  0
 12 13  2  0
 13  8  1  0
 15 16  1  0
 16 21  2  0
 17 18  2  0
 17 16  1  0
 18 19  1  0
 19 20  2  0
 21 20  1  0
 22 21  1  0
 22 23  1  0
 22 26  1  0
 23 24  1  0
 24 25  1  0
 26 25  1  0
  3 27  1  0
  4 28  1  0
  5 29  1  0
  7 30  1  0
  7 31  1  0
  8 32  1  0
  9 33  1  0
 10 34  1  0
 14 35  1  0
 17 36  1  0
 18 37  1  0
 19 38  1  0
 20 39  1  0
 22 40  1  6
 23 41  1  0
 23 42  1  0
 24 43  1  0
 24 44  1  0
 26 45  1  0
 26 46  1  0
M  ISO  8  27  14  28  14  29  14  30   8  31   8  32  14  33  14  34  14
M  ISO  8  35   3  36  14  37  14  38  14  39  14  40  13  41  13  42  13
M  ISO  4  43  13  44  13  45  13  46  13
M  END
>  <minimizedAffinity>  (1) 
-6.08695745

>  <minimizedRMSD>  (1) 
3.71719146

$$$$
