
     RDKit          3D

 37 39  0  0  1  0  0  0  0  0999 V2000
   45.1120   33.8740   41.2900 C   0  0  1  0  0  0  0  0  0  0  0  0
   45.8990   33.8680   40.0180 C   0  0  0  0  0  0  0  0  0  0  0  0
   47.3110   33.4810   40.4290 C   0  0  0  0  0  0  0  0  0  0  0  0
   47.8790   34.6530   41.1930 C   0  0  0  0  0  0  0  0  0  0  0  0
   47.0320   35.1380   42.3140 C   0  0  0  0  0  0  0  0  0  0  0  0
   45.5690   35.0240   42.1670 C   0  0  2  0  0  0  0  0  0  0  0  0
   41.6830   35.1720   40.3000 C   0  0  0  0  0  0  0  0  0  0  0  0
   43.0650   35.1690   40.4620 C   0  0  0  0  0  0  0  0  0  0  0  0
   43.6530   34.0300   41.0440 C   0  0  0  0  0  0  0  0  0  0  0  0
   42.8120   33.0150   41.4030 N   0  0  0  0  0  0  0  0  0  0  0  0
   41.4890   33.0470   41.2330 C   0  0  0  0  0  0  0  0  0  0  0  0
   40.9110   34.1180   40.6840 N   0  0  0  0  0  0  0  0  0  0  0  0
   44.8320   34.8160   43.4680 C   0  0  1  0  0  0  0  0  0  0  0  0
   45.3600   33.6940   44.3020 C   0  0  0  0  0  0  0  0  0  0  0  0
   45.2870   34.3140   45.6980 C   0  0  0  0  0  0  0  0  0  0  0  0
   44.4470   35.4220   45.5980 O   0  0  0  0  0  0  0  0  0  0  0  0
   44.7520   36.0100   44.3490 C   0  0  0  0  0  0  0  0  0  0  0  0
   45.2846   32.9060   41.7830 H   0  0  0  0  0  0  0  0  0  0  0  0
   45.8913   34.8654   39.5542 H   0  0  0  0  0  0  0  0  0  0  0  0
   45.4797   33.1719   39.2766 H   0  0  0  0  0  0  0  0  0  0  0  0
   47.2875   32.5869   41.0694 H   0  0  0  0  0  0  0  0  0  0  0  0
   47.9282   33.2466   39.5492 H   0  0  0  0  0  0  0  0  0  0  0  0
   48.8531   34.3521   41.6059 H   0  0  0  0  0  0  0  0  0  0  0  0
   47.9485   35.4845   40.4762 H   0  0  0  0  0  0  0  0  0  0  0  0
   47.3173   34.5692   43.2112 H   0  0  0  0  0  0  0  0  0  0  0  0
   47.2234   36.2203   42.3589 H   0  0  0  0  0  0  0  0  0  0  0  0
   45.3285   35.9961   41.7119 H   0  0  0  0  0  0  0  0  0  0  0  0
   41.2001   36.0513   39.8487 H   0  0  0  0  0  0  0  0  0  0  0  0
   43.6768   36.0269   40.1463 H   0  0  0  0  0  0  0  0  0  0  0  0
   40.8739   32.1902   41.5454 H   0  0  0  0  0  0  0  0  0  0  0  0
   43.8250   34.5725   43.0983 H   0  0  0  0  0  0  0  0  0  0  0  0
   44.7262   32.7984   44.2234 H   0  0  0  0  0  0  0  0  0  0  0  0
   46.3614   33.3435   44.0117 H   0  0  0  0  0  0  0  0  0  0  0  0
   44.8745   33.5884   46.4145 H   0  0  0  0  0  0  0  0  0  0  0  0
   46.2858   34.6043   46.0560 H   0  0  0  0  0  0  0  0  0  0  0  0
   45.7103   36.5490   44.3825 H   0  0  0  0  0  0  0  0  0  0  0  0
   44.0207   36.7621   44.0180 H   0  0  0  0  0  0  0  0  0  0  0  0
  1  6  1  0
  2  3  1  0
  2  1  1  0
  3  4  1  0
  4  5  1  0
  6  5  1  0
  6 13  1  0
  7  8  2  0
  7 12  1  0
  8  9  1  0
  9  1  1  0
  9 10  2  0
 11 10  1  0
 12 11  2  0
 13 14  1  0
 13 17  1  0
 14 15  1  0
 16 15  1  0
 17 16  1  0
  1 18  1  1
  2 19  1  0
  2 20  1  0
  3 21  1  0
  3 22  1  0
  4 23  1  0
  4 24  1  0
  5 25  1  0
  5 26  1  0
  6 27  1  6
  7 28  1  0
  8 29  1  0
 11 30  1  0
 13 31  1  6
 14 32  1  0
 14 33  1  0
 15 34  1  0
 15 35  1  0
 17 36  1  0
 17 37  1  0
M  ISO  8  18  13  19  13  20  13  21  13  22  13  23  13  24  13  25  13
M  ISO  8  26  13  27  13  28  14  29  14  30  14  31  13  32  13  33  13
M  ISO  4  34  13  35  13  36  13  37  13
M  END
>  <minimizedAffinity>  (1) 
-5.18800831

>  <minimizedRMSD>  (1) 
4.2545805

$$$$
