
     RDKit          3D

 45 47  0  0  1  0  0  0  0  0999 V2000
   44.3930   33.3740   41.6320 C   0  0  1  0  0  0  0  0  0  0  0  0
   43.7300   34.3530   40.6000 C   0  0  0  0  0  0  0  0  0  0  0  0
   43.3920   33.6280   39.3680 C   0  0  0  0  0  0  0  0  0  0  0  0
   44.7520   33.2490   38.7280 C   0  0  0  0  0  0  0  0  0  0  0  0
   45.4330   32.4440   39.6840 C   0  0  0  0  0  0  0  0  0  0  0  0
   45.6380   32.9490   41.1790 C   0  0  1  0  0  0  0  0  0  0  0  0
   44.5920   36.1180   44.3240 C   0  0  0  0  0  0  0  0  0  0  0  0
   44.3460   35.5400   43.1160 C   0  0  0  0  0  0  0  0  0  0  0  0
   44.5780   34.1710   42.8860 C   0  0  0  0  0  0  0  0  0  0  0  0
   45.0450   33.4920   43.9150 N   0  0  0  0  0  0  0  0  0  0  0  0
   45.2890   34.0400   45.0960 C   0  0  0  0  0  0  0  0  0  0  0  0
   45.0610   35.3750   45.3120 N   0  0  0  0  0  0  0  0  0  0  0  0
   46.5640   34.0260   41.0300 O   0  0  0  0  0  0  0  0  0  0  0  0
   47.7840   33.4600   41.6490 C   0  0  1  0  0  0  0  0  0  0  0  0
   48.2420   34.1110   38.5970 Cl  0  0  0  0  0  0  0  0  0  0  0  0
   48.9340   32.6940   39.3550 C   0  0  0  0  0  0  0  0  0  0  0  0
   48.6470   32.6030   40.7120 C   0  0  0  0  0  0  0  0  0  0  0  0
   49.2650   31.4780   41.3130 C   0  0  0  0  0  0  0  0  0  0  0  0
   50.0580   30.5430   40.7160 C   0  0  0  0  0  0  0  0  0  0  0  0
   50.2770   30.7230   39.3710 C   0  0  0  0  0  0  0  0  0  0  0  0
   49.7250   31.7830   38.6980 C   0  0  0  0  0  0  0  0  0  0  0  0
   49.9280   32.1220   36.9930 Cl  0  0  0  0  0  0  0  0  0  0  0  0
   48.5570   34.5550   41.2440 O   0  0  0  0  0  0  0  0  0  0  0  0
   49.2490   35.4510   41.8890 C   0  0  0  0  0  0  0  0  0  0  0  0
   49.3320   36.6090   41.6090 O   0  0  0  0  0  0  0  0  0  0  0  0
   49.9120   34.9460   42.9840 N   0  0  0  0  0  0  0  0  0  0  0  0
   43.7680   32.4818   41.7848 H   0  0  0  0  0  0  0  0  0  0  0  0
   42.8137   34.7771   41.0365 H   0  0  0  0  0  0  0  0  0  0  0  0
   44.4374   35.1610   40.3618 H   0  0  0  0  0  0  0  0  0  0  0  0
   42.8107   32.7236   39.6007 H   0  0  0  0  0  0  0  0  0  0  0  0
   42.7763   34.2375   38.6902 H   0  0  0  0  0  0  0  0  0  0  0  0
   44.5910   32.6827   37.7988 H   0  0  0  0  0  0  0  0  0  0  0  0
   45.3363   34.1448   38.4710 H   0  0  0  0  0  0  0  0  0  0  0  0
   44.8789   31.4958   39.7468 H   0  0  0  0  0  0  0  0  0  0  0  0
   46.4607   32.4187   39.2927 H   0  0  0  0  0  0  0  0  0  0  0  0
   46.0136   32.2060   41.8980 H   0  0  0  0  0  0  0  0  0  0  0  0
   44.4027   37.1908   44.4762 H   0  0  0  0  0  0  0  0  0  0  0  0
   43.9548   36.1607   42.2964 H   0  0  0  0  0  0  0  0  0  0  0  0
   45.6794   33.4165   45.9138 H   0  0  0  0  0  0  0  0  0  0  0  0
   47.5682   33.0092   42.6289 H   0  0  0  0  0  0  0  0  0  0  0  0
   49.0833   31.3430   42.3895 H   0  0  0  0  0  0  0  0  0  0  0  0
   50.4935   29.7008   41.2737 H   0  0  0  0  0  0  0  0  0  0  0  0
   50.9059   30.0045   38.8249 H   0  0  0  0  0  0  0  0  0  0  0  0
   50.4903   35.5672   43.5676 H   0  0  0  0  0  0  0  0  0  0  0  0
   49.8300   33.9468   43.2200 H   0  0  0  0  0  0  0  0  0  0  0  0
  1  9  1  0
  2  1  1  0
  3  2  1  0
  4  3  1  0
  4  5  1  0
  5  6  1  0
  6  1  1  0
  7 12  2  0
  8  7  1  0
  9  8  2  0
  9 10  1  0
 10 11  2  0
 11 12  1  0
 13  6  1  0
 13 14  1  0
 15 16  1  0
 16 17  2  0
 17 18  1  0
 17 14  1  0
 19 18  2  0
 20 19  1  0
 21 16  1  0
 21 20  2  0
 22 21  1  0
 23 14  1  0
 23 24  1  0
 24 26  1  0
 25 24  2  0
  1 27  1  1
  2 28  1  0
  2 29  1  0
  3 30  1  0
  3 31  1  0
  4 32  1  0
  4 33  1  0
  5 34  1  0
  5 35  1  0
  6 36  1  1
  7 37  1  0
  8 38  1  0
 11 39  1  0
 14 40  1  1
 18 41  1  0
 19 42  1  0
 20 43  1  0
 26 44  1  0
 26 45  1  0
M  ISO  8  27  13  28  13  29  13  30  13  31  13  32  13  33  13  34  13
M  ISO  8  35  13  36  13  37  14  38  14  39  14  40   8  41  14  42  14
M  ISO  1  43  14
M  END
>  <minimizedAffinity>  (1) 
-5.38006163

>  <minimizedRMSD>  (1) 
0.556048214

$$$$
