
     RDKit          3D

 40 43  0  0  1  0  0  0  0  0999 V2000
   48.0510   33.2200   43.1280 N   0  0  0  0  0  0  0  0  0  0  0  0
   49.2240   33.2780   42.3810 C   0  0  0  0  0  0  0  0  0  0  0  0
   50.3790   32.8430   42.6340 O   0  0  0  0  0  0  0  0  0  0  0  0
   46.2670   32.0690   44.3880 C   0  0  1  0  0  0  0  0  0  0  0  0
   46.4160   31.3570   43.1970 C   0  0  0  0  0  0  0  0  0  0  0  0
   47.6450   32.0620   43.8430 C   0  0  1  0  0  0  0  0  0  0  0  0
   45.0390   33.9790   43.1190 C   0  0  0  0  0  0  0  0  0  0  0  0
   45.5390   33.4190   44.3410 C   0  0  0  0  0  0  0  0  0  0  0  0
   45.3630   34.1540   45.4950 C   0  0  0  0  0  0  0  0  0  0  0  0
   44.7380   35.3500   45.4240 N   0  0  0  0  0  0  0  0  0  0  0  0
   44.2700   35.8670   44.2610 C   0  0  0  0  0  0  0  0  0  0  0  0
   44.4300   35.1480   43.0690 N   0  0  0  0  0  0  0  0  0  0  0  0
   49.2090   33.9540   41.0220 C   0  0  2  0  0  0  0  0  0  0  0  0
   48.5650   35.3880   40.9670 C   0  0  0  0  0  0  0  0  0  0  0  0
   47.9490   34.1980   40.3080 C   0  0  1  0  0  0  0  0  0  0  0  0
   47.9850   34.1360   38.7970 C   0  0  0  0  0  0  0  0  0  0  0  0
   48.6490   34.9560   38.1800 O   0  0  0  0  0  0  0  0  0  0  0  0
   49.6030   31.7020   38.2290 Cl  0  0  0  0  0  0  0  0  0  0  0  0
   47.9300   31.9650   37.7470 C   0  0  0  0  0  0  0  0  0  0  0  0
   47.2490   33.1230   38.0500 C   0  0  0  0  0  0  0  0  0  0  0  0
   45.9460   33.2020   37.6140 C   0  0  0  0  0  0  0  0  0  0  0  0
   45.3450   32.1790   36.9110 C   0  0  0  0  0  0  0  0  0  0  0  0
   46.0210   31.0160   36.6050 C   0  0  0  0  0  0  0  0  0  0  0  0
   47.3280   30.9190   37.0330 C   0  0  0  0  0  0  0  0  0  0  0  0
   48.2170   29.4560   36.6610 Cl  0  0  0  0  0  0  0  0  0  0  0  0
   47.4497   34.0555   43.1639 H   0  0  0  0  0  0  0  0  0  0  0  0
   45.8314   31.7864   45.3577 H   0  0  0  0  0  0  0  0  0  0  0  0
   45.9845   31.7489   42.2641 H   0  0  0  0  0  0  0  0  0  0  0  0
   46.1903   30.3312   42.8702 H   0  0  0  0  0  0  0  0  0  0  0  0
   48.6437   31.8060   44.2266 H   0  0  0  0  0  0  0  0  0  0  0  0
   45.1686   33.4109   42.1860 H   0  0  0  0  0  0  0  0  0  0  0  0
   45.7266   33.7716   46.4602 H   0  0  0  0  0  0  0  0  0  0  0  0
   43.7675   36.8455   44.2534 H   0  0  0  0  0  0  0  0  0  0  0  0
   50.1587   33.4763   40.7394 H   0  0  0  0  0  0  0  0  0  0  0  0
   48.1063   35.8281   41.8647 H   0  0  0  0  0  0  0  0  0  0  0  0
   48.8873   36.3917   40.6527 H   0  0  0  0  0  0  0  0  0  0  0  0
   46.9493   33.7424   40.3632 H   0  0  0  0  0  0  0  0  0  0  0  0
   45.3654   34.1102   37.8333 H   0  0  0  0  0  0  0  0  0  0  0  0
   44.3003   32.2932   36.5861 H   0  0  0  0  0  0  0  0  0  0  0  0
   45.5385   30.2019   36.0442 H   0  0  0  0  0  0  0  0  0  0  0  0
  1  6  1  0
  2  3  2  0
  2  1  1  0
  5  6  1  0
  5  4  1  0
  6  4  1  0
  7  8  2  0
  8  4  1  0
  8  9  1  0
 10  9  2  0
 11 10  1  0
 12  7  1  0
 12 11  2  0
 13  2  1  0
 14 13  1  0
 15 14  1  0
 15 13  1  0
 16 15  1  0
 17 16  2  0
 19 20  2  0
 19 18  1  0
 20 16  1  0
 21 20  1  0
 22 21  2  0
 23 22  1  0
 23 24  2  0
 24 19  1  0
 25 24  1  0
  1 26  1  0
  4 27  1  1
  5 28  1  0
  5 29  1  0
  6 30  1  1
  7 31  1  0
  9 32  1  0
 11 33  1  0
 13 34  1  6
 14 35  1  0
 14 36  1  0
 15 37  1  1
 21 38  1  0
 22 39  1  0
 23 40  1  0
M  ISO  8  27  13  28  13  29  13  30  13  31  14  32  14  33  14  34  13
M  ISO  6  35  13  36  13  37  13  38  14  39  14  40  14
M  END
>  <minimizedAffinity>  (1) 
-4.91983271

>  <minimizedRMSD>  (1) 
0.880448937

$$$$
