
     RDKit          3D

 38 41  0  0  0  0  0  0  0  0999 V2000
   45.3570   33.0000   41.1300 Cl  0  0  0  0  0  0  0  0  0  0  0  0
   46.7460   34.0480   41.0360 C   0  0  0  0  0  0  0  0  0  0  0  0
   47.1060   34.8780   42.0550 C   0  0  0  0  0  0  0  0  0  0  0  0
   48.2150   35.6510   41.8610 C   0  0  0  0  0  0  0  0  0  0  0  0
   48.9430   35.6220   40.7350 C   0  0  0  0  0  0  0  0  0  0  0  0
   48.6000   34.7930   39.6900 C   0  0  0  0  0  0  0  0  0  0  0  0
   47.4710   33.9980   39.8740 C   0  0  0  0  0  0  0  0  0  0  0  0
   44.4930   35.7980   44.6500 C   0  0  0  0  0  0  0  0  0  0  0  0
   45.2710   35.8190   43.4850 C   0  0  0  0  0  0  0  0  0  0  0  0
   46.2890   34.8750   43.2550 C   0  0  0  0  0  0  0  0  0  0  0  0
   46.4510   33.9620   44.2350 N   0  0  0  0  0  0  0  0  0  0  0  0
   45.6980   33.9550   45.3480 C   0  0  0  0  0  0  0  0  0  0  0  0
   44.7370   34.8550   45.5520 N   0  0  0  0  0  0  0  0  0  0  0  0
   47.0730   33.0860   38.7660 C   0  0  0  0  0  0  0  0  0  0  0  0
   47.5210   31.7530   38.6790 C   0  0  0  0  0  0  0  0  0  0  0  0
   46.7300   31.1450   37.1590 S   0  0  0  0  0  0  0  0  0  0  0  0
   45.9000   32.8340   36.8790 C   0  0  0  0  0  0  0  0  0  0  0  0
   46.2870   33.3810   37.7640 N   0  0  0  0  0  0  0  0  0  0  0  0
   45.0480   33.1730   35.7670 N   0  0  0  0  0  0  0  0  0  0  0  0
   50.5280   31.8390   38.1380 Cl  0  0  0  0  0  0  0  0  0  0  0  0
   49.7960   30.9670   39.4660 C   0  0  0  0  0  0  0  0  0  0  0  0
   48.4250   31.0080   39.6010 C   0  0  0  0  0  0  0  0  0  0  0  0
   47.8060   30.3270   40.6450 C   0  0  0  0  0  0  0  0  0  0  0  0
   48.5770   29.6040   41.5540 C   0  0  0  0  0  0  0  0  0  0  0  0
   49.9480   29.5710   41.4080 C   0  0  0  0  0  0  0  0  0  0  0  0
   50.5560   30.2500   40.3680 C   0  0  0  0  0  0  0  0  0  0  0  0
   52.2980   30.2050   40.1850 Cl  0  0  0  0  0  0  0  0  0  0  0  0
   48.5264   36.3307   42.6678 H   0  0  0  0  0  0  0  0  0  0  0  0
   49.8273   36.2700   40.6447 H   0  0  0  0  0  0  0  0  0  0  0  0
   49.1862   34.7604   38.7598 H   0  0  0  0  0  0  0  0  0  0  0  0
   43.7007   36.5434   44.8130 H   0  0  0  0  0  0  0  0  0  0  0  0
   45.0808   36.5951   42.7290 H   0  0  0  0  0  0  0  0  0  0  0  0
   45.8801   33.1848   46.1119 H   0  0  0  0  0  0  0  0  0  0  0  0
   44.6414   34.1169   35.6987 H   0  0  0  0  0  0  0  0  0  0  0  0
   44.8457   32.4714   35.0406 H   0  0  0  0  0  0  0  0  0  0  0  0
   46.7117   30.3591   40.7526 H   0  0  0  0  0  0  0  0  0  0  0  0
   48.0951   29.0635   42.3821 H   0  0  0  0  0  0  0  0  0  0  0  0
   50.5609   29.0017   42.1224 H   0  0  0  0  0  0  0  0  0  0  0  0
  2  1  1  0
  2  3  2  0
  3 10  1  0
  4  3  1  0
  5  4  2  0
  6  7  2  0
  6  5  1  0
  7  2  1  0
  8 13  2  0
  9  8  1  0
 10  9  2  0
 10 11  1  0
 11 12  2  0
 12 13  1  0
 14  7  1  0
 15 14  2  0
 15 22  1  0
 16 15  1  0
 17 16  1  0
 17 18  2  0
 18 14  1  0
 19 17  1  0
 20 21  1  0
 21 22  2  0
 21 26  1  0
 22 23  1  0
 23 24  2  0
 25 24  1  0
 26 25  2  0
 27 26  1  0
  4 28  1  0
  5 29  1  0
  6 30  1  0
  8 31  1  0
  9 32  1  0
 12 33  1  0
 19 34  1  0
 19 35  1  0
 23 36  1  0
 24 37  1  0
 25 38  1  0
M  ISO  8  28  14  29  14  30  14  31  14  32  14  33  14  36  14  37  14
M  ISO  1  38  14
M  END
>  <minimizedAffinity>  (1) 
-6.24576521

>  <minimizedRMSD>  (1) 
1.13400233

$$$$
