
     RDKit          3D

 36 38  0  0  1  0  0  0  0  0999 V2000
   44.5280   35.5910   44.8800 C   0  0  0  0  0  0  0  0  0  0  0  0
   45.0760   35.6860   43.5960 C   0  0  0  0  0  0  0  0  0  0  0  0
   46.1000   34.8240   43.2370 C   0  0  0  0  0  0  0  0  0  0  0  0
   46.4970   33.9380   44.1900 N   0  0  0  0  0  0  0  0  0  0  0  0
   45.9690   33.8550   45.4110 C   0  0  0  0  0  0  0  0  0  0  0  0
   44.9650   34.6950   45.7680 N   0  0  0  0  0  0  0  0  0  0  0  0
   46.5000   32.8500   46.3640 C   0  0  2  0  0  0  0  0  0  0  0  0
   46.9930   31.7030   45.5620 C   0  0  0  0  0  0  0  0  0  0  0  0
   46.1330   30.5050   45.5780 C   0  0  0  0  0  0  0  0  0  0  0  0
   45.9690   30.1220   47.0350 C   0  0  0  0  0  0  0  0  0  0  0  0
   45.2190   31.1370   47.7850 C   0  0  0  0  0  0  0  0  0  0  0  0
   45.5220   32.5630   47.4040 C   0  0  0  0  0  0  0  0  0  0  0  0
   44.8560   33.6440   48.0540 N   0  0  0  0  0  0  0  0  0  0  0  0
   45.0370   33.1520   40.7840 Cl  0  0  0  0  0  0  0  0  0  0  0  0
   46.4890   34.0770   40.8470 C   0  0  0  0  0  0  0  0  0  0  0  0
   46.8210   34.7490   41.9840 C   0  0  0  0  0  0  0  0  0  0  0  0
   48.0200   35.4200   41.8790 C   0  0  0  0  0  0  0  0  0  0  0  0
   48.8100   35.4200   40.7510 C   0  0  0  0  0  0  0  0  0  0  0  0
   48.4270   34.7260   39.6320 C   0  0  0  0  0  0  0  0  0  0  0  0
   47.2350   34.0440   39.6990 C   0  0  0  0  0  0  0  0  0  0  0  0
   46.7430   33.1580   38.2750 Cl  0  0  0  0  0  0  0  0  0  0  0  0
   43.7143   36.2738   45.1657 H   0  0  0  0  0  0  0  0  0  0  0  0
   44.6996   36.4337   42.8823 H   0  0  0  0  0  0  0  0  0  0  0  0
   47.3622   33.2117   46.9435 H   0  0  0  0  0  0  0  0  0  0  0  0
   47.9814   31.4167   45.9508 H   0  0  0  0  0  0  0  0  0  0  0  0
   47.0124   32.0487   44.5179 H   0  0  0  0  0  0  0  0  0  0  0  0
   45.1540   30.7323   45.1309 H   0  0  0  0  0  0  0  0  0  0  0  0
   46.5774   29.6846   44.9954 H   0  0  0  0  0  0  0  0  0  0  0  0
   45.4291   29.1654   47.0930 H   0  0  0  0  0  0  0  0  0  0  0  0
   46.9710   30.0385   47.4812 H   0  0  0  0  0  0  0  0  0  0  0  0
   44.4903   30.8760   48.5666 H   0  0  0  0  0  0  0  0  0  0  0  0
   44.1623   33.4530   48.7911 H   0  0  0  0  0  0  0  0  0  0  0  0
   45.0687   34.6156   47.7863 H   0  0  0  0  0  0  0  0  0  0  0  0
   48.3682   35.9920   42.7517 H   0  0  0  0  0  0  0  0  0  0  0  0
   49.7560   35.9813   40.7476 H   0  0  0  0  0  0  0  0  0  0  0  0
   49.0452   34.7154   38.7222 H   0  0  0  0  0  0  0  0  0  0  0  0
  1  6  2  0
  2  1  1  0
  3  2  2  0
  3  4  1  0
  4  5  2  0
  5  6  1  0
  5  7  1  0
  7 12  1  0
  8  9  1  0
  8  7  1  0
  9 10  1  0
 10 11  1  0
 12 11  2  0
 12 13  1  0
 14 15  1  0
 15 16  2  0
 16  3  1  0
 17 16  1  0
 18 17  2  0
 19 20  2  0
 19 18  1  0
 20 15  1  0
 21 20  1  0
  1 22  1  0
  2 23  1  0
  7 24  1  1
  8 25  1  0
  8 26  1  0
  9 27  1  0
  9 28  1  0
 10 29  1  0
 10 30  1  0
 11 31  1  0
 13 32  1  0
 13 33  1  0
 17 34  1  0
 18 35  1  0
 19 36  1  0
M  ISO  8  22  14  23  14  24  13  25  13  26  13  27  13  28  13  29  13
M  ISO  5  30  13  31  13  34  14  35  14  36  14
M  END
>  <minimizedAffinity>  (1) 
-7.15364742

>  <minimizedRMSD>  (1) 
1.8174721

$$$$
