
     RDKit          3D

 46 49  0  0  1  0  0  0  0  0999 V2000
   44.5010   35.3800   45.1250 C   0  0  0  0  0  0  0  0  0  0  0  0
   45.2130   35.4060   43.9030 C   0  0  0  0  0  0  0  0  0  0  0  0
   46.1900   34.4960   43.6900 C   0  0  0  0  0  0  0  0  0  0  0  0
   46.4320   33.5990   44.6800 N   0  0  0  0  0  0  0  0  0  0  0  0
   45.7620   33.5800   45.8230 C   0  0  0  0  0  0  0  0  0  0  0  0
   44.7930   34.4650   46.0620 N   0  0  0  0  0  0  0  0  0  0  0  0
   46.1050   32.5850   46.8050 N   0  0  0  0  0  0  0  0  0  0  0  0
   45.3310   32.3010   47.9570 C   0  0  0  0  0  0  0  0  0  0  0  0
   46.3790   32.0090   49.0170 C   0  0  0  0  0  0  0  0  0  0  0  0
   47.6950   31.9740   48.3020 C   0  0  0  0  0  0  0  0  0  0  0  0
   47.2690   31.7370   46.8540 C   0  0  1  0  0  0  0  0  0  0  0  0
   44.8460   36.4130   42.9490 N   0  0  0  0  0  0  0  0  0  0  0  0
   46.8560   30.0180   46.6520 S   0  0  0  0  0  0  0  0  0  0  0  0
   45.4240   30.4120   43.6680 O   0  0  0  0  0  0  0  0  0  0  0  0
   44.9390   29.8560   44.6680 C   0  0  0  0  0  0  0  0  0  0  0  0
   45.2380   29.6520   46.1090 C   0  0  1  0  0  0  0  0  0  0  0  0
   44.7830   28.2300   46.3180 C   0  0  0  0  0  0  0  0  0  0  0  0
   43.3760   28.3670   45.7350 C   0  0  0  0  0  0  0  0  0  0  0  0
   43.6940   29.1450   44.5370 N   0  0  0  0  0  0  0  0  0  0  0  0
   40.7310   29.5230   45.0830 Cl  0  0  0  0  0  0  0  0  0  0  0  0
   41.4180   29.2890   43.4820 C   0  0  0  0  0  0  0  0  0  0  0  0
   42.7900   29.1320   43.4080 C   0  0  0  0  0  0  0  0  0  0  0  0
   43.4300   28.9410   42.2060 C   0  0  0  0  0  0  0  0  0  0  0  0
   42.6850   28.9070   41.0440 C   0  0  0  0  0  0  0  0  0  0  0  0
   41.3110   29.0630   41.1100 C   0  0  0  0  0  0  0  0  0  0  0  0
   40.6780   29.2540   42.3340 C   0  0  0  0  0  0  0  0  0  0  0  0
   38.9400   29.4600   42.4950 Cl  0  0  0  0  0  0  0  0  0  0  0  0
   43.7029   36.1145   45.3083 H   0  0  0  0  0  0  0  0  0  0  0  0
   46.7655   34.4829   42.7526 H   0  0  0  0  0  0  0  0  0  0  0  0
   44.7138   33.1663   48.2405 H   0  0  0  0  0  0  0  0  0  0  0  0
   44.6254   31.4704   47.8082 H   0  0  0  0  0  0  0  0  0  0  0  0
   46.3804   32.8007   49.7807 H   0  0  0  0  0  0  0  0  0  0  0  0
   46.1759   31.0582   49.5315 H   0  0  0  0  0  0  0  0  0  0  0  0
   48.2324   32.9278   48.4087 H   0  0  0  0  0  0  0  0  0  0  0  0
   48.3878   31.2122   48.6889 H   0  0  0  0  0  0  0  0  0  0  0  0
   48.0122   31.9542   46.0726 H   0  0  0  0  0  0  0  0  0  0  0  0
   45.3372   36.4699   42.0455 H   0  0  0  0  0  0  0  0  0  0  0  0
   44.0913   37.0790   43.1677 H   0  0  0  0  0  0  0  0  0  0  0  0
   44.7185   30.3827   46.7464 H   0  0  0  0  0  0  0  0  0  0  0  0
   45.3974   27.5097   45.7580 H   0  0  0  0  0  0  0  0  0  0  0  0
   44.8429   27.8513   47.3490 H   0  0  0  0  0  0  0  0  0  0  0  0
   42.9364   27.3897   45.4865 H   0  0  0  0  0  0  0  0  0  0  0  0
   42.6300   28.8183   46.4056 H   0  0  0  0  0  0  0  0  0  0  0  0
   44.5224   28.8168   42.1706 H   0  0  0  0  0  0  0  0  0  0  0  0
   43.1796   28.7571   40.0730 H   0  0  0  0  0  0  0  0  0  0  0  0
   40.7144   29.0357   40.1863 H   0  0  0  0  0  0  0  0  0  0  0  0
  1  6  2  0
  2  1  1  0
  3  2  2  0
  3  4  1  0
  4  5  2  0
  5  6  1  0
  5  7  1  0
  7 11  1  0
  7  8  1  0
  8  9  1  0
 10  9  1  0
 11 10  1  0
 12  2  1  0
 13 11  1  0
 14 15  2  0
 15 16  1  0
 16 17  1  0
 16 13  1  0
 18 17  1  0
 19 15  1  0
 19 18  1  0
 21 20  1  0
 22 21  2  0
 22 19  1  0
 23 22  1  0
 24 25  1  0
 24 23  2  0
 25 26  2  0
 26 27  1  0
 26 21  1  0
  1 28  1  0
  3 29  1  0
  8 30  1  0
  8 31  1  0
  9 32  1  0
  9 33  1  0
 10 34  1  0
 10 35  1  0
 11 36  1  6
 12 37  1  0
 12 38  1  0
 16 39  1  1
 17 40  1  0
 17 41  1  0
 18 42  1  0
 18 43  1  0
 23 44  1  0
 24 45  1  0
 25 46  1  0
M  ISO  8  28  14  29  14  30  13  31  13  32  13  33  13  34  13  35  13
M  ISO  8  36  13  39  13  40  13  41  13  42  13  43  13  44  14  45  14
M  ISO  1  46  14
M  END
>  <minimizedAffinity>  (1) 
-5.7251215

>  <minimizedRMSD>  (1) 
0.633438647

$$$$
