
     RDKit          3D

 44 47  0  0  1  0  0  0  0  0999 V2000
   49.5970   33.5090   41.4980 N   0  0  0  0  0  0  0  0  0  0  0  0
   50.7720   33.1900   42.2650 C   0  0  0  0  0  0  0  0  0  0  0  0
   51.3830   31.8700   41.9080 C   0  0  0  0  0  0  0  0  0  0  0  0
   50.4270   30.7640   42.3080 C   0  0  0  0  0  0  0  0  0  0  0  0
   48.9940   31.1800   42.0480 C   0  0  0  0  0  0  0  0  0  0  0  0
   48.9670   32.3060   41.0270 C   0  0  2  0  0  0  0  0  0  0  0  0
   47.3380   34.6720   41.9820 C   0  0  1  0  0  0  0  0  0  0  0  0
   48.4070   35.6680   41.7290 C   0  0  0  0  0  0  0  0  0  0  0  0
   48.7560   34.3420   42.2760 C   0  0  2  0  0  0  0  0  0  0  0  0
   45.5660   36.0320   43.1290 C   0  0  0  0  0  0  0  0  0  0  0  0
   46.3930   34.8890   43.0990 C   0  0  0  0  0  0  0  0  0  0  0  0
   46.2820   33.9690   44.1530 C   0  0  0  0  0  0  0  0  0  0  0  0
   45.3900   34.2300   45.1420 N   0  0  0  0  0  0  0  0  0  0  0  0
   44.6160   35.3320   45.1400 C   0  0  0  0  0  0  0  0  0  0  0  0
   44.6920   36.2460   44.1360 N   0  0  0  0  0  0  0  0  0  0  0  0
   49.4770   31.8170   39.7860 N   0  0  0  0  0  0  0  0  0  0  0  0
   50.6410   30.0730   37.5890 Cl  0  0  0  0  0  0  0  0  0  0  0  0
   49.6410   31.4800   37.2890 C   0  0  0  0  0  0  0  0  0  0  0  0
   49.1990   32.1520   38.4350 C   0  0  0  0  0  0  0  0  0  0  0  0
   48.4070   33.2660   38.1970 C   0  0  0  0  0  0  0  0  0  0  0  0
   48.0390   33.7410   36.9540 C   0  0  0  0  0  0  0  0  0  0  0  0
   48.4950   33.0520   35.8420 C   0  0  0  0  0  0  0  0  0  0  0  0
   49.2840   31.9400   36.0440 C   0  0  0  0  0  0  0  0  0  0  0  0
   49.9360   30.9640   34.7380 Cl  0  0  0  0  0  0  0  0  0  0  0  0
   51.5217   33.9770   42.0957 H   0  0  0  0  0  0  0  0  0  0  0  0
   50.4613   33.1265   43.3183 H   0  0  0  0  0  0  0  0  0  0  0  0
   51.5641   31.8278   40.8238 H   0  0  0  0  0  0  0  0  0  0  0  0
   52.3395   31.7461   42.4369 H   0  0  0  0  0  0  0  0  0  0  0  0
   50.6534   29.8608   41.7224 H   0  0  0  0  0  0  0  0  0  0  0  0
   50.5485   30.5606   43.3822 H   0  0  0  0  0  0  0  0  0  0  0  0
   48.4279   30.3204   41.6600 H   0  0  0  0  0  0  0  0  0  0  0  0
   48.5384   31.5274   42.9870 H   0  0  0  0  0  0  0  0  0  0  0  0
   47.9263   32.6210   40.8603 H   0  0  0  0  0  0  0  0  0  0  0  0
   46.5401   34.2131   41.3797 H   0  0  0  0  0  0  0  0  0  0  0  0
   48.6838   35.9263   40.6962 H   0  0  0  0  0  0  0  0  0  0  0  0
   48.5884   36.7078   42.0388 H   0  0  0  0  0  0  0  0  0  0  0  0
   49.2340   33.9160   43.1704 H   0  0  0  0  0  0  0  0  0  0  0  0
   45.6349   36.7661   42.3127 H   0  0  0  0  0  0  0  0  0  0  0  0
   46.9016   33.0604   44.1769 H   0  0  0  0  0  0  0  0  0  0  0  0
   43.9087   35.4960   45.9664 H   0  0  0  0  0  0  0  0  0  0  0  0
   50.1850   31.0764   39.8920 H   0  0  0  0  0  0  0  0  0  0  0  0
   48.0405   33.8186   39.0747 H   0  0  0  0  0  0  0  0  0  0  0  0
   47.4062   34.6348   36.8503 H   0  0  0  0  0  0  0  0  0  0  0  0
   48.2346   33.3832   34.8259 H   0  0  0  0  0  0  0  0  0  0  0  0
  1  2  1  0
  1  9  1  0
  3  2  1  0
  3  4  1  0
  5  4  1  0
  6  1  1  0
  6  5  1  0
  7  9  1  0
  7 11  1  0
  8  7  1  0
  8  9  1  0
 10 15  2  0
 11 10  1  0
 11 12  2  0
 12 13  1  0
 14 13  2  0
 15 14  1  0
 16  6  1  0
 18 17  1  0
 18 19  2  0
 19 16  1  0
 20 19  1  0
 21 20  2  0
 22 23  2  0
 22 21  1  0
 23 18  1  0
 24 23  1  0
  2 25  1  0
  2 26  1  0
  3 27  1  0
  3 28  1  0
  4 29  1  0
  4 30  1  0
  5 31  1  0
  5 32  1  0
  6 33  1  6
  7 34  1  6
  8 35  1  0
  8 36  1  0
  9 37  1  1
 10 38  1  0
 12 39  1  0
 14 40  1  0
 16 41  1  0
 20 42  1  0
 21 43  1  0
 22 44  1  0
M  ISO  8  25  13  26  13  27  13  28  13  29  13  30  13  31  13  32  13
M  ISO  8  33  13  34  13  35  13  36  13  37  13  38  14  39  14  40  14
M  ISO  3  42  14  43  14  44  14
M  END
>  <minimizedAffinity>  (1) 
-5.5046525

>  <minimizedRMSD>  (1) 
0.474811345

$$$$
