
     RDKit          3D

 27 29  0  0  0  0  0  0  0  0999 V2000
   48.5930   34.7650   41.8560 C   0  0  0  0  0  0  0  0  0  0  0  0
   49.2260   36.1090   41.7600 C   0  0  0  0  0  0  0  0  0  0  0  0
   49.9210   35.0020   42.4850 C   0  0  0  0  0  0  0  0  0  0  0  0
   49.4970   31.8030   41.9650 Cl  0  0  0  0  0  0  0  0  0  0  0  0
   48.8870   32.5590   40.5380 C   0  0  0  0  0  0  0  0  0  0  0  0
   48.5220   33.8810   40.6340 C   0  0  0  0  0  0  0  0  0  0  0  0
   48.0320   34.4870   39.4840 C   0  0  0  0  0  0  0  0  0  0  0  0
   47.9200   33.7840   38.2980 C   0  0  0  0  0  0  0  0  0  0  0  0
   48.2930   32.4550   38.2200 C   0  0  0  0  0  0  0  0  0  0  0  0
   48.7740   31.8720   39.3640 C   0  0  0  0  0  0  0  0  0  0  0  0
   49.2710   30.1920   39.3590 Cl  0  0  0  0  0  0  0  0  0  0  0  0
   46.2250   35.3500   42.5060 C   0  0  0  0  0  0  0  0  0  0  0  0
   47.4090   34.6200   42.7160 C   0  0  0  0  0  0  0  0  0  0  0  0
   47.3820   33.7170   43.8010 C   0  0  0  0  0  0  0  0  0  0  0  0
   46.2620   33.5970   44.5620 N   0  0  0  0  0  0  0  0  0  0  0  0
   45.1580   34.3270   44.3060 C   0  0  0  0  0  0  0  0  0  0  0  0
   45.1510   35.1960   43.2810 N   0  0  0  0  0  0  0  0  0  0  0  0
   49.6166   36.4658   40.7956 H   0  0  0  0  0  0  0  0  0  0  0  0
   48.9191   37.1342   42.0143 H   0  0  0  0  0  0  0  0  0  0  0  0
   50.0131   35.0343   43.5807 H   0  0  0  0  0  0  0  0  0  0  0  0
   50.9109   34.5272   42.4163 H   0  0  0  0  0  0  0  0  0  0  0  0
   47.7280   35.5436   39.5171 H   0  0  0  0  0  0  0  0  0  0  0  0
   47.5282   34.2900   37.4033 H   0  0  0  0  0  0  0  0  0  0  0  0
   48.2075   31.8895   37.2804 H   0  0  0  0  0  0  0  0  0  0  0  0
   46.1839   36.0708   41.6761 H   0  0  0  0  0  0  0  0  0  0  0  0
   48.2694   33.1091   44.0311 H   0  0  0  0  0  0  0  0  0  0  0  0
   44.2635   34.2114   44.9357 H   0  0  0  0  0  0  0  0  0  0  0  0
  1  3  1  0
  1 13  1  0
  2  1  1  0
  2  3  1  0
  5  6  2  0
  5  4  1  0
  6  1  1  0
  7  6  1  0
  8  7  2  0
  9  8  1  0
  9 10  2  0
 10  5  1  0
 11 10  1  0
 12 13  2  0
 12 17  1  0
 13 14  1  0
 14 15  2  0
 16 15  1  0
 17 16  2  0
  2 18  1  0
  2 19  1  0
  3 20  1  0
  3 21  1  0
  7 22  1  0
  8 23  1  0
  9 24  1  0
 12 25  1  0
 14 26  1  0
 16 27  1  0
M  ISO  8  18  13  19  13  20  13  21  13  22  14  23  14  24  14  25  14
M  ISO  2  26  14  27  14
M  END
>  <minimizedAffinity>  (1) 
-5.0336957

>  <minimizedRMSD>  (1) 
1.46297431

$$$$
