
     RDKit          3D

 45 49  0  0  0  0  0  0  0  0999 V2000
   44.7510   35.9240   43.3940 Cl  0  0  0  0  0  0  0  0  0  0  0  0
   45.5140   34.6780   44.3280 C   0  0  0  0  0  0  0  0  0  0  0  0
   46.5920   33.9860   43.8160 C   0  0  0  0  0  0  0  0  0  0  0  0
   47.1250   33.0140   44.6410 C   0  0  0  0  0  0  0  0  0  0  0  0
   46.6520   32.7090   45.9100 C   0  0  0  0  0  0  0  0  0  0  0  0
   45.5840   33.4190   46.3750 C   0  0  0  0  0  0  0  0  0  0  0  0
   45.0250   32.9930   47.9830 Cl  0  0  0  0  0  0  0  0  0  0  0  0
   45.0180   34.3890   45.6050 C   0  0  0  0  0  0  0  0  0  0  0  0
   47.3640   31.6370   46.6220 C   0  0  0  0  0  0  0  0  0  0  0  0
   47.4870   30.3610   46.1470 C   0  0  0  0  0  0  0  0  0  0  0  0
   48.1540   29.3470   46.8080 C   0  0  0  0  0  0  0  0  0  0  0  0
   48.7400   29.6210   48.0250 C   0  0  0  0  0  0  0  0  0  0  0  0
   49.3840   28.6290   48.6550 N   0  0  0  0  0  0  0  0  0  0  0  0
   49.9890   28.7930   49.8470 C   0  0  0  0  0  0  0  0  0  0  0  0
   49.9080   30.0640   50.3960 C   0  0  0  0  0  0  0  0  0  0  0  0
   49.2540   31.0960   49.7690 C   0  0  0  0  0  0  0  0  0  0  0  0
   48.6440   30.8890   48.5450 C   0  0  0  0  0  0  0  0  0  0  0  0
   47.9710   31.8750   47.8580 C   0  0  0  0  0  0  0  0  0  0  0  0
   48.6970   35.3420   41.1790 C   0  0  0  0  0  0  0  0  0  0  0  0
   48.1630   34.7710   40.0140 C   0  0  0  0  0  0  0  0  0  0  0  0
   47.0590   33.9050   40.1400 C   0  0  0  0  0  0  0  0  0  0  0  0
   46.6160   33.7050   41.3950 N   0  0  0  0  0  0  0  0  0  0  0  0
   47.1370   34.2580   42.4980 C   0  0  0  0  0  0  0  0  0  0  0  0
   48.1820   35.0810   42.3990 N   0  0  0  0  0  0  0  0  0  0  0  0
   44.0370   33.7910   40.2640 Cl  0  0  0  0  0  0  0  0  0  0  0  0
   45.0540   33.1700   38.9820 C   0  0  0  0  0  0  0  0  0  0  0  0
   46.4290   33.2590   38.9980 C   0  0  0  0  0  0  0  0  0  0  0  0
   47.1300   32.7340   37.9350 C   0  0  0  0  0  0  0  0  0  0  0  0
   46.5570   32.1190   36.8420 C   0  0  0  0  0  0  0  0  0  0  0  0
   45.1600   32.0430   36.8520 C   0  0  0  0  0  0  0  0  0  0  0  0
   44.4460   32.5630   37.9100 C   0  0  0  0  0  0  0  0  0  0  0  0
   42.6870   32.4210   37.8380 Cl  0  0  0  0  0  0  0  0  0  0  0  0
   47.9856   32.4410   44.2654 H   0  0  0  0  0  0  0  0  0  0  0  0
   44.1576   34.9544   45.9923 H   0  0  0  0  0  0  0  0  0  0  0  0
   47.0255   30.1263   45.1765 H   0  0  0  0  0  0  0  0  0  0  0  0
   48.2161   28.3395   46.3707 H   0  0  0  0  0  0  0  0  0  0  0  0
   50.5146   27.9701   50.3536 H   0  0  0  0  0  0  0  0  0  0  0  0
   50.3850   30.2523   51.3691 H   0  0  0  0  0  0  0  0  0  0  0  0
   49.2152   32.0889   50.2409 H   0  0  0  0  0  0  0  0  0  0  0  0
   47.9094   32.8820   48.2963 H   0  0  0  0  0  0  0  0  0  0  0  0
   49.5586   36.0207   41.0959 H   0  0  0  0  0  0  0  0  0  0  0  0
   48.5953   34.9938   39.0274 H   0  0  0  0  0  0  0  0  0  0  0  0
   48.2270   32.8109   37.9598 H   0  0  0  0  0  0  0  0  0  0  0  0
   47.1594   31.7142   36.0154 H   0  0  0  0  0  0  0  0  0  0  0  0
   44.6303   31.5671   36.0136 H   0  0  0  0  0  0  0  0  0  0  0  0
  1  2  1  0
  2  8  2  0
  3  2  1  0
  3  4  2  0
  4  5  1  0
  5  6  2  0
  5  9  1  0
  6  7  1  0
  8  6  1  0
  9 18  1  0
 10  9  2  0
 10 11  1  0
 11 12  2  0
 12 17  1  0
 12 13  1  0
 13 14  2  0
 14 15  1  0
 16 15  2  0
 17 16  1  0
 18 17  2  0
 19 24  2  0
 20 21  2  0
 20 19  1  0
 21 22  1  0
 22 23  2  0
 23  3  1  0
 24 23  1  0
 26 27  2  0
 26 25  1  0
 27 21  1  0
 28 27  1  0
 29 30  1  0
 29 28  2  0
 30 31  2  0
 31 26  1  0
 32 31  1  0
  4 33  1  0
  8 34  1  0
 10 35  1  0
 11 36  1  0
 14 37  1  0
 15 38  1  0
 16 39  1  0
 18 40  1  0
 19 41  1  0
 20 42  1  0
 28 43  1  0
 29 44  1  0
 30 45  1  0
M  ISO  8  33  14  34  14  35  14  36  14  37  14  38  14  39  14  40  14
M  ISO  5  41  14  42  14  43  14  44  14  45  14
M  END
>  <minimizedAffinity>  (1) 
-7.48701668

>  <minimizedRMSD>  (1) 
0.585238457

$$$$
