
     RDKit          3D

 44 48  0  0  1  0  0  0  0  0999 V2000
   45.5940   32.9310   42.3240 C   0  0  0  0  0  0  0  0  0  0  0  0
   44.7610   31.8760   42.3880 N   0  0  0  0  0  0  0  0  0  0  0  0
   43.5130   32.2320   42.0500 C   0  0  0  0  0  0  0  0  0  0  0  0
   43.5650   33.5600   41.7640 N   0  0  0  0  0  0  0  0  0  0  0  0
   44.7950   33.9920   41.9220 N   0  0  0  0  0  0  0  0  0  0  0  0
   40.5340   32.9510   41.5710 O   0  0  0  0  0  0  0  0  0  0  0  0
   41.3220   33.6240   40.8320 C   0  0  0  0  0  0  0  0  0  0  0  0
   42.4670   34.4150   41.3440 C   0  0  2  0  0  0  0  0  0  0  0  0
   42.8620   35.2640   40.1490 C   0  0  0  0  0  0  0  0  0  0  0  0
   42.5740   34.3080   38.9900 C   0  0  0  0  0  0  0  0  0  0  0  0
   41.2870   33.7650   39.3950 N   0  0  0  0  0  0  0  0  0  0  0  0
   41.4510   30.9490   38.6430 Cl  0  0  0  0  0  0  0  0  0  0  0  0
   40.1780   32.0580   38.2550 C   0  0  0  0  0  0  0  0  0  0  0  0
   40.1400   33.4030   38.6360 C   0  0  0  0  0  0  0  0  0  0  0  0
   39.0940   34.2360   38.2920 C   0  0  0  0  0  0  0  0  0  0  0  0
   38.0360   33.7180   37.5360 C   0  0  0  0  0  0  0  0  0  0  0  0
   38.0890   32.3880   37.1690 C   0  0  0  0  0  0  0  0  0  0  0  0
   39.1250   31.5360   37.5010 C   0  0  0  0  0  0  0  0  0  0  0  0
   39.1080   29.8500   36.9860 Cl  0  0  0  0  0  0  0  0  0  0  0  0
   47.6840   32.9210   43.9160 C   0  0  1  0  0  0  0  0  0  0  0  0
   47.0340   33.0460   42.5830 C   0  0  2  0  0  0  0  0  0  0  0  0
   47.5170   34.2300   43.2560 C   0  0  0  0  0  0  0  0  0  0  0  0
   46.9270   31.2310   45.5680 C   0  0  0  0  0  0  0  0  0  0  0  0
   46.9210   32.5540   45.1320 C   0  0  0  0  0  0  0  0  0  0  0  0
   46.2110   33.4680   45.8710 C   0  0  0  0  0  0  0  0  0  0  0  0
   45.5620   33.0210   46.9780 N   0  0  0  0  0  0  0  0  0  0  0  0
   45.5780   31.7590   47.3800 C   0  0  0  0  0  0  0  0  0  0  0  0
   46.2690   30.8560   46.6640 N   0  0  0  0  0  0  0  0  0  0  0  0
   42.6269   31.5813   42.0119 H   0  0  0  0  0  0  0  0  0  0  0  0
   42.2102   35.0084   42.2339 H   0  0  0  0  0  0  0  0  0  0  0  0
   42.2479   36.1742   40.0817 H   0  0  0  0  0  0  0  0  0  0  0  0
   43.8984   35.6313   40.1816 H   0  0  0  0  0  0  0  0  0  0  0  0
   43.3393   33.5214   38.9149 H   0  0  0  0  0  0  0  0  0  0  0  0
   42.5750   34.7831   37.9979 H   0  0  0  0  0  0  0  0  0  0  0  0
   39.0921   35.2899   38.6070 H   0  0  0  0  0  0  0  0  0  0  0  0
   37.1866   34.3524   37.2426 H   0  0  0  0  0  0  0  0  0  0  0  0
   37.2560   31.9820   36.5764 H   0  0  0  0  0  0  0  0  0  0  0  0
   48.5271   32.3482   44.3295 H   0  0  0  0  0  0  0  0  0  0  0  0
   47.2026   32.5189   41.6324 H   0  0  0  0  0  0  0  0  0  0  0  0
   48.3972   34.7606   42.8641 H   0  0  0  0  0  0  0  0  0  0  0  0
   47.0636   35.1883   43.5494 H   0  0  0  0  0  0  0  0  0  0  0  0
   47.4879   30.4786   44.9942 H   0  0  0  0  0  0  0  0  0  0  0  0
   46.1690   34.5270   45.5766 H   0  0  0  0  0  0  0  0  0  0  0  0
   45.0338   31.4548   48.2863 H   0  0  0  0  0  0  0  0  0  0  0  0
  1  2  1  0
  1 21  1  0
  3  2  2  0
  4  5  1  0
  4  3  1  0
  5  1  2  0
  7  8  1  0
  7  6  2  0
  8  4  1  0
  9  8  1  0
 10 11  1  0
 10  9  1  0
 11  7  1  0
 13 14  2  0
 13 12  1  0
 14 11  1  0
 15 14  1  0
 16 15  2  0
 17 18  2  0
 17 16  1  0
 18 13  1  0
 19 18  1  0
 20 24  1  0
 21 22  1  0
 21 20  1  0
 22 20  1  0
 23 28  2  0
 24 23  1  0
 24 25  2  0
 25 26  1  0
 26 27  2  0
 28 27  1  0
  3 29  1  0
  8 30  1  1
  9 31  1  0
  9 32  1  0
 10 33  1  0
 10 34  1  0
 15 35  1  0
 16 36  1  0
 17 37  1  0
 20 38  1  6
 21 39  1  6
 22 40  1  0
 22 41  1  0
 23 42  1  0
 25 43  1  0
 27 44  1  0
M  ISO  8  29  14  30  13  31  13  32  13  33  13  34  13  35  14  36  14
M  ISO  8  37  14  38  13  39  13  40  13  41  13  42  14  43  14  44  14
M  END
>  <minimizedAffinity>  (1) 
-6.17378998

>  <minimizedRMSD>  (1) 
1.68053889

$$$$
