
     RDKit          3D

 43 46  0  0  0  0  0  0  0  0999 V2000
   46.0090   35.6200   42.8120 C   0  0  0  0  0  0  0  0  0  0  0  0
   46.5050   34.4220   43.4140 C   0  0  0  0  0  0  0  0  0  0  0  0
   45.9280   33.9980   44.5940 C   0  0  0  0  0  0  0  0  0  0  0  0
   44.9090   34.7450   45.1310 N   0  0  0  0  0  0  0  0  0  0  0  0
   44.4540   35.8700   44.5520 C   0  0  0  0  0  0  0  0  0  0  0  0
   44.9980   36.3030   43.4040 N   0  0  0  0  0  0  0  0  0  0  0  0
   47.5510   33.7850   42.7270 N   0  0  0  0  0  0  0  0  0  0  0  0
   48.9560   34.0960   42.9250 C   0  0  0  0  0  0  0  0  0  0  0  0
   49.8180   33.1690   42.1460 C   0  0  0  0  0  0  0  0  0  0  0  0
   49.4390   33.0960   40.7600 N   0  0  0  0  0  0  0  0  0  0  0  0
   48.0510   32.8500   40.5190 C   0  0  0  0  0  0  0  0  0  0  0  0
   47.2130   32.7510   41.7550 C   0  0  0  0  0  0  0  0  0  0  0  0
   46.4210   32.8430   45.1560 O   0  0  0  0  0  0  0  0  0  0  0  0
   45.0100   33.4810   47.2950 O   0  0  0  0  0  0  0  0  0  0  0  0
   46.0460   32.4830   46.7980 P   0  0  1  0  0  0  0  0  0  0  0  0
   45.4530   30.9200   46.8550 O   0  0  0  0  0  0  0  0  0  0  0  0
   47.4630   32.6620   47.6900 O   0  0  0  0  0  0  0  0  0  0  0  0
   48.1210   30.4760   47.1740 C   0  0  0  0  0  0  0  0  0  0  0  0
   48.0930   31.4810   48.1220 C   0  0  0  0  0  0  0  0  0  0  0  0
   48.6380   31.3390   49.3840 C   0  0  0  0  0  0  0  0  0  0  0  0
   49.2180   30.1150   49.6450 C   0  0  0  0  0  0  0  0  0  0  0  0
   49.2760   29.0750   48.7410 C   0  0  0  0  0  0  0  0  0  0  0  0
   48.7150   29.2650   47.4830 C   0  0  0  0  0  0  0  0  0  0  0  0
   49.9350   27.9880   49.3430 O   0  0  0  0  0  0  0  0  0  0  0  0
   50.6210   28.5120   50.4740 C   0  0  0  0  0  0  0  0  0  0  0  0
   49.8470   29.6720   50.8200 O   0  0  0  0  0  0  0  0  0  0  0  0
   46.4460   35.9867   41.8715 H   0  0  0  0  0  0  0  0  0  0  0  0
   43.6350   36.4361   45.0197 H   0  0  0  0  0  0  0  0  0  0  0  0
   49.1466   35.1280   42.5954 H   0  0  0  0  0  0  0  0  0  0  0  0
   49.1941   33.9843   43.9931 H   0  0  0  0  0  0  0  0  0  0  0  0
   50.8590   33.5189   42.2089 H   0  0  0  0  0  0  0  0  0  0  0  0
   49.7018   32.1637   42.5771 H   0  0  0  0  0  0  0  0  0  0  0  0
   49.6856   33.9915   40.3149 H   0  0  0  0  0  0  0  0  0  0  0  0
   47.6585   33.6725   39.9031 H   0  0  0  0  0  0  0  0  0  0  0  0
   47.9893   31.8712   40.0208 H   0  0  0  0  0  0  0  0  0  0  0  0
   46.1543   32.8578   41.4761 H   0  0  0  0  0  0  0  0  0  0  0  0
   47.4047   31.7721   42.2187 H   0  0  0  0  0  0  0  0  0  0  0  0
   45.3473   30.6414   47.7991 H   0  0  0  0  0  0  0  0  0  0  0  0
   47.6747   30.6374   46.1817 H   0  0  0  0  0  0  0  0  0  0  0  0
   48.6111   32.1472   50.1297 H   0  0  0  0  0  0  0  0  0  0  0  0
   48.7432   28.4568   46.7373 H   0  0  0  0  0  0  0  0  0  0  0  0
   50.6328   27.7852   51.2996 H   0  0  0  0  0  0  0  0  0  0  0  0
   51.6766   28.7436   50.2687 H   0  0  0  0  0  0  0  0  0  0  0  0
  1  6  2  0
  1  2  1  0
  2  3  2  0
  3  4  1  0
  3 13  1  0
  5  4  2  0
  6  5  1  0
  7  8  1  0
  7  2  1  0
  9  8  1  0
 10  9  1  0
 11 10  1  0
 11 12  1  0
 12  7  1  0
 13 15  1  0
 15 16  1  0
 15 14  2  0
 15 17  1  0
 17 19  1  0
 18 23  2  0
 18 19  1  0
 19 20  2  0
 20 21  1  0
 21 26  1  0
 22 24  1  0
 22 21  2  0
 23 22  1  0
 24 25  1  0
 25 26  1  0
  1 27  1  0
  5 28  1  0
  8 29  1  0
  8 30  1  0
  9 31  1  0
  9 32  1  0
 10 33  1  0
 11 34  1  0
 11 35  1  0
 12 36  1  0
 12 37  1  0
 16 38  1  0
 18 39  1  0
 20 40  1  0
 23 41  1  0
 25 42  1  0
 25 43  1  0
M  ISO  8  27  14  28  14  29  13  30  13  31  13  32  13  33   5  34  13
M  ISO  8  35  13  36  13  37  13  38   3  39  14  40  14  41  14  42  13
M  ISO  1  43  13
M  END
>  <minimizedAffinity>  (1) 
-6.02158642

>  <minimizedRMSD>  (1) 
2.14228296

$$$$
