
     RDKit          3D

 31 34  0  0  1  0  0  0  0  0999 V2000
   42.9400   33.3980   39.2690 C   0  0  0  0  0  0  0  0  0  0  0  0
   44.1740   32.7630   38.7540 C   0  0  0  0  0  0  0  0  0  0  0  0
   45.3060   33.2140   39.4810 N   0  0  0  0  0  0  0  0  0  0  0  0
   46.5900   33.7030   39.8540 C   0  0  1  0  0  0  0  0  0  0  0  0
   47.7470   33.5320   39.3430 O   0  0  0  0  0  0  0  0  0  0  0  0
   45.9350   34.4010   40.9800 C   0  0  1  0  0  0  0  0  0  0  0  0
   45.0220   33.1840   40.8760 C   0  0  2  0  0  0  0  0  0  0  0  0
   43.2810   33.5240   41.0690 S   0  0  0  0  0  0  0  0  0  0  0  0
   46.6470   34.3720   42.2810 C   0  0  0  0  0  0  0  0  0  0  0  0
   47.8880   34.1320   42.3690 O   0  0  0  0  0  0  0  0  0  0  0  0
   45.1260   35.7460   43.6510 C   0  0  0  0  0  0  0  0  0  0  0  0
   45.9500   34.6170   43.5200 C   0  0  0  0  0  0  0  0  0  0  0  0
   46.0790   33.7440   44.6060 C   0  0  0  0  0  0  0  0  0  0  0  0
   45.3940   34.0410   45.7360 N   0  0  0  0  0  0  0  0  0  0  0  0
   44.6070   35.1360   45.8340 C   0  0  0  0  0  0  0  0  0  0  0  0
   44.4760   35.9810   44.7960 N   0  0  0  0  0  0  0  0  0  0  0  0
   41.7000   32.5120   39.1740 C   0  0  0  0  0  0  0  0  0  0  0  0
   42.6530   34.7790   38.7760 C   0  0  0  0  0  0  0  0  0  0  0  0
   44.0892   31.6711   38.8569 H   0  0  0  0  0  0  0  0  0  0  0  0
   44.2993   33.0357   37.6957 H   0  0  0  0  0  0  0  0  0  0  0  0
   48.4158   33.4332   40.0662 H   0  0  0  0  0  0  0  0  0  0  0  0
   45.6668   35.4671   40.9412 H   0  0  0  0  0  0  0  0  0  0  0  0
   45.0142   36.4419   42.8064 H   0  0  0  0  0  0  0  0  0  0  0  0
   46.7143   32.8482   44.5441 H   0  0  0  0  0  0  0  0  0  0  0  0
   44.0686   35.3377   46.7718 H   0  0  0  0  0  0  0  0  0  0  0  0
   41.3497   32.2617   40.1863 H   0  0  0  0  0  0  0  0  0  0  0  0
   40.9063   33.0488   38.6336 H   0  0  0  0  0  0  0  0  0  0  0  0
   41.9506   31.5872   38.6336 H   0  0  0  0  0  0  0  0  0  0  0  0
   42.5129   35.4529   39.6340 H   0  0  0  0  0  0  0  0  0  0  0  0
   43.4967   35.1331   38.1655 H   0  0  0  0  0  0  0  0  0  0  0  0
   41.7380   34.7676   38.1655 H   0  0  0  0  0  0  0  0  0  0  0  0
  1  8  1  0
  2  1  1  0
  3  2  1  0
  3  4  1  0
  3  7  1  0
  4  5  1  1
  4  7  1  0
  4  6  1  0
  6  9  1  0
  7  6  1  0
  7  8  1  1
  9 10  2  0
  9 12  1  0
 11 16  2  0
 12 11  1  0
 12 13  2  0
 13 14  1  0
 14 15  2  0
 16 15  1  0
 17  1  1  0
 18  1  1  0
  2 19  1  0
  2 20  1  0
  5 21  1  0
  6 22  1  6
 11 23  1  0
 13 24  1  0
 15 25  1  0
 17 26  1  0
 17 27  1  0
 17 28  1  0
 18 29  1  0
 18 30  1  0
 18 31  1  0
M  ISO  8  19  13  20  13  21   3  22  13  23  14  24  14  25  14  26   8
M  ISO  5  27   8  28   8  29   8  30   8  31   8
M  END
>  <minimizedAffinity>  (1) 
-4.5159688

>  <minimizedRMSD>  (1) 
1.63180923

$$$$
