
     RDKit          3D

 38 41  0  0  1  0  0  0  0  0999 V2000
   45.6580   34.8120   41.3340 C   0  0  1  0  0  0  0  0  0  0  0  0
   46.9760   34.3020   40.8880 C   0  0  2  0  0  0  0  0  0  0  0  0
   45.7840   33.4710   40.6950 C   0  0  0  0  0  0  0  0  0  0  0  0
   45.0240   36.1860   43.3000 C   0  0  0  0  0  0  0  0  0  0  0  0
   45.3410   34.9280   42.7850 C   0  0  0  0  0  0  0  0  0  0  0  0
   45.3400   33.8200   43.6460 C   0  0  0  0  0  0  0  0  0  0  0  0
   45.0230   34.0480   44.9640 N   0  0  0  0  0  0  0  0  0  0  0  0
   44.7220   35.2770   45.4260 C   0  0  0  0  0  0  0  0  0  0  0  0
   44.7210   36.3670   44.5860 N   0  0  0  0  0  0  0  0  0  0  0  0
   47.9570   33.9190   41.9070 C   0  0  0  0  0  0  0  0  0  0  0  0
   48.5050   34.8420   42.4390 O   0  0  0  0  0  0  0  0  0  0  0  0
   48.4090   30.0630   40.8750 C   0  0  0  0  0  0  0  0  0  0  0  0
   49.7640   30.4620   41.2500 C   0  0  0  0  0  0  0  0  0  0  0  0
   49.8100   31.6910   41.9130 N   0  0  0  0  0  0  0  0  0  0  0  0
   50.1950   32.9780   42.2960 C   0  0  0  0  0  0  0  0  0  0  0  0
   51.2420   33.7060   42.2330 O   0  0  0  0  0  0  0  0  0  0  0  0
   48.8500   33.2320   42.8490 C   0  0  2  0  0  0  0  0  0  0  0  0
   48.7820   31.7300   42.8800 C   0  0  1  0  0  0  0  0  0  0  0  0
   47.3620   31.0220   42.0020 S   0  0  0  0  0  0  0  0  0  0  0  0
   48.0470   30.2970   39.4330 C   0  0  0  0  0  0  0  0  0  0  0  0
   48.1800   28.5930   41.2320 C   0  0  0  0  0  0  0  0  0  0  0  0
   45.0657   35.7192   41.1438 H   0  0  0  0  0  0  0  0  0  0  0  0
   47.7698   34.6740   40.2236 H   0  0  0  0  0  0  0  0  0  0  0  0
   45.3876   33.3053   39.6824 H   0  0  0  0  0  0  0  0  0  0  0  0
   45.4973   32.4467   40.9755 H   0  0  0  0  0  0  0  0  0  0  0  0
   45.0241   37.0543   42.6247 H   0  0  0  0  0  0  0  0  0  0  0  0
   45.5828   32.8110   43.2814 H   0  0  0  0  0  0  0  0  0  0  0  0
   44.4736   35.4111   46.4892 H   0  0  0  0  0  0  0  0  0  0  0  0
   50.1853   29.6911   41.9120 H   0  0  0  0  0  0  0  0  0  0  0  0
   50.3433   30.5687   40.3210 H   0  0  0  0  0  0  0  0  0  0  0  0
   48.6223   33.8528   43.7280 H   0  0  0  0  0  0  0  0  0  0  0  0
   48.7901   31.2475   43.8685 H   0  0  0  0  0  0  0  0  0  0  0  0
   47.1243   30.8934   39.3787 H   0  0  0  0  0  0  0  0  0  0  0  0
   48.8636   30.8386   38.9332 H   0  0  0  0  0  0  0  0  0  0  0  0
   47.8885   29.3300   38.9332 H   0  0  0  0  0  0  0  0  0  0  0  0
   48.1624   28.4798   42.3260 H   0  0  0  0  0  0  0  0  0  0  0  0
   47.2191   28.2594   40.8133 H   0  0  0  0  0  0  0  0  0  0  0  0
   48.9939   27.9829   40.8133 H   0  0  0  0  0  0  0  0  0  0  0  0
  1  5  1  0
  2  1  1  0
  2 10  1  0
  3  2  1  0
  3  1  1  0
  4  9  2  0
  5  4  1  0
  5  6  2  0
  6  7  1  0
  7  8  2  0
  9  8  1  0
 10 11  2  0
 12 21  1  0
 12 13  1  0
 12 19  1  0
 13 14  1  0
 14 15  1  0
 14 18  1  0
 15 17  1  0
 16 15  2  0
 17 10  1  0
 17 18  1  0
 18 19  1  0
 20 12  1  0
  1 22  1  6
  2 23  1  6
  3 24  1  0
  3 25  1  0
  4 26  1  0
  6 27  1  0
  8 28  1  0
 13 29  1  0
 13 30  1  0
 17 31  1  1
 18 32  1  1
 20 33  1  0
 20 34  1  0
 20 35  1  0
 21 36  1  0
 21 37  1  0
 21 38  1  0
M  ISO  8  22  13  23  13  24  13  25  13  26  14  27  14  28  14  29  13
M  ISO  8  30  13  31  13  32  13  33   8  34   8  35   8  36   8  37   8
M  ISO  1  38   8
M  END
>  <minimizedAffinity>  (1) 
-4.43443298

>  <minimizedRMSD>  (1) 
2.60913944

$$$$
