
     RDKit          3D

 53 57  0  0  1  0  0  0  0  0999 V2000
   46.6330   33.0140   38.6060 N   0  0  0  0  0  0  0  0  0  0  0  0
   45.8160   33.3960   37.4850 C   0  0  0  0  0  0  0  0  0  0  0  0
   44.9070   32.2580   37.0570 C   0  0  0  0  0  0  0  0  0  0  0  0
   45.6590   31.1420   36.5590 N   0  0  0  0  0  0  0  0  0  0  0  0
   47.0490   31.2470   37.0690 C   0  0  0  0  0  0  0  0  0  0  0  0
   47.0040   31.5620   38.5380 C   0  0  1  0  0  0  0  0  0  0  0  0
   44.7820   32.9920   41.1410 Br  0  0  0  0  0  0  0  0  0  0  0  0
   46.4090   33.9430   40.8940 C   0  0  0  0  0  0  0  0  0  0  0  0
   46.9020   34.7370   41.8970 C   0  0  0  0  0  0  0  0  0  0  0  0
   48.0970   35.4480   41.7320 C   0  0  0  0  0  0  0  0  0  0  0  0
   48.7600   35.3290   40.5460 C   0  0  0  0  0  0  0  0  0  0  0  0
   48.2320   34.5200   39.5600 C   0  0  0  0  0  0  0  0  0  0  0  0
   47.0840   33.8260   39.6970 C   0  0  0  0  0  0  0  0  0  0  0  0
   45.6660   34.0260   45.2580 C   0  0  0  0  0  0  0  0  0  0  0  0
   44.7420   35.0520   45.5110 C   0  0  0  0  0  0  0  0  0  0  0  0
   44.5660   35.9790   44.4980 C   0  0  0  0  0  0  0  0  0  0  0  0
   45.2720   35.8490   43.3570 N   0  0  0  0  0  0  0  0  0  0  0  0
   46.1620   34.8380   43.1440 C   0  0  0  0  0  0  0  0  0  0  0  0
   46.3380   33.9380   44.1170 N   0  0  0  0  0  0  0  0  0  0  0  0
   48.1940   31.2970   39.3390 C   0  0  0  0  0  0  0  0  0  0  0  0
   49.5560   31.2760   38.8150 C   0  0  2  0  0  0  0  0  0  0  0  0
   50.0050   32.1820   37.7480 C   0  0  0  0  0  0  0  0  0  0  0  0
   50.0860   31.4830   36.4870 N   0  0  0  0  0  0  0  0  0  0  0  0
   49.9630   31.0600   35.1330 C   0  0  0  0  0  0  0  0  0  0  0  0
   49.5980   31.6430   34.0570 O   0  0  0  0  0  0  0  0  0  0  0  0
   50.4150   29.6690   35.4000 C   0  0  0  0  0  0  0  0  0  0  0  0
   50.9120   30.2810   36.6840 C   0  0  2  0  0  0  0  0  0  0  0  0
   50.0540   29.6290   38.1730 S   0  0  0  0  0  0  0  0  0  0  0  0
   50.5410   31.5560   40.0060 C   0  0  0  0  0  0  0  0  0  0  0  0
   45.1989   34.2612   37.7688 H   0  0  0  0  0  0  0  0  0  0  0  0
   46.4762   33.6509   36.6429 H   0  0  0  0  0  0  0  0  0  0  0  0
   44.3127   31.9305   37.9228 H   0  0  0  0  0  0  0  0  0  0  0  0
   44.2552   32.6225   36.2493 H   0  0  0  0  0  0  0  0  0  0  0  0
   45.2341   30.2627   36.8863 H   0  0  0  0  0  0  0  0  0  0  0  0
   47.5736   30.2931   36.9114 H   0  0  0  0  0  0  0  0  0  0  0  0
   47.5846   32.0439   36.5323 H   0  0  0  0  0  0  0  0  0  0  0  0
   46.2846   30.8688   38.9983 H   0  0  0  0  0  0  0  0  0  0  0  0
   48.4906   36.0855   42.5374 H   0  0  0  0  0  0  0  0  0  0  0  0
   49.7026   35.8703   40.3775 H   0  0  0  0  0  0  0  0  0  0  0  0
   48.7785   34.4368   38.6090 H   0  0  0  0  0  0  0  0  0  0  0  0
   45.8396   33.2665   46.0346 H   0  0  0  0  0  0  0  0  0  0  0  0
   44.1894   35.1158   46.4600 H   0  0  0  0  0  0  0  0  0  0  0  0
   43.8584   36.8119   44.6227 H   0  0  0  0  0  0  0  0  0  0  0  0
   48.1936   32.0608   40.1306 H   0  0  0  0  0  0  0  0  0  0  0  0
   48.0493   30.2318   39.5720 H   0  0  0  0  0  0  0  0  0  0  0  0
   49.2904   33.0131   37.6552 H   0  0  0  0  0  0  0  0  0  0  0  0
   51.0035   32.5650   38.0054 H   0  0  0  0  0  0  0  0  0  0  0  0
   49.6161   28.9204   35.5067 H   0  0  0  0  0  0  0  0  0  0  0  0
   51.0399   29.0791   34.7134 H   0  0  0  0  0  0  0  0  0  0  0  0
   52.0020   30.2362   36.8252 H   0  0  0  0  0  0  0  0  0  0  0  0
   50.0145   31.4063   40.9602 H   0  0  0  0  0  0  0  0  0  0  0  0
   51.3947   30.8650   39.9460 H   0  0  0  0  0  0  0  0  0  0  0  0
   50.9036   32.5928   39.9460 H   0  0  0  0  0  0  0  0  0  0  0  0
  1 13  1  0
  2  1  1  0
  3  2  1  0
  4  3  1  0
  4  5  1  0
  5  6  1  0
  6  1  1  0
  6 20  1  0
  8  7  1  0
  8  9  2  0
  9 18  1  0
 10  9  1  0
 11 10  2  0
 12 13  2  0
 12 11  1  0
 13  8  1  0
 14 15  2  0
 16 15  1  0
 17 16  2  0
 18 17  1  0
 18 19  2  0
 19 14  1  0
 21 20  1  1
 21 29  1  0
 22 21  1  0
 23 27  1  0
 23 22  1  0
 24 26  1  0
 24 23  1  0
 25 24  2  0
 27 26  1  0
 27 28  1  0
 28 21  1  0
  2 30  1  0
  2 31  1  0
  3 32  1  0
  3 33  1  0
  4 34  1  0
  5 35  1  0
  5 36  1  0
  6 37  1  1
 10 38  1  0
 11 39  1  0
 12 40  1  0
 14 41  1  0
 15 42  1  0
 16 43  1  0
 20 44  1  0
 20 45  1  0
 22 46  1  0
 22 47  1  0
 26 48  1  0
 26 49  1  0
 27 50  1  1
 29 51  1  0
 29 52  1  0
 29 53  1  0
M  ISO  8  30  13  31  13  32  13  33  13  34   5  35  13  36  13  37  13
M  ISO  8  38  14  39  14  40  14  41  14  42  14  43  14  44   8  45   8
M  ISO  8  46  13  47  13  48  13  49  13  50  13  51   8  52   8  53   8
M  END
>  <minimizedAffinity>  (1) 
-6.02336788

>  <minimizedRMSD>  (1) 
1.26306152

$$$$
