
     RDKit          3D

 50 54  0  0  1  0  0  0  0  0999 V2000
   44.8200   34.7530   41.8720 C   0  0  0  0  0  0  0  0  0  0  0  0
   43.4560   34.6740   41.9920 C   0  0  0  0  0  0  0  0  0  0  0  0
   43.0010   34.2490   40.7990 N   0  0  0  0  0  0  0  0  0  0  0  0
   44.0530   34.0750   39.9820 C   0  0  0  0  0  0  0  0  0  0  0  0
   45.1800   34.3830   40.6360 N   0  0  0  0  0  0  0  0  0  0  0  0
   44.1110   33.6400   38.6300 N   0  0  0  0  0  0  0  0  0  0  0  0
   41.6340   33.9960   40.3760 C   0  0  0  0  0  0  0  0  0  0  0  0
   38.2130   30.1540   40.5240 C   0  0  0  0  0  0  0  0  0  0  0  0
   38.1820   31.3180   39.5590 C   0  0  0  0  0  0  0  0  0  0  0  0
   39.5580   31.7580   39.4010 N   0  0  0  0  0  0  0  0  0  0  0  0
   40.8880   32.1110   39.0050 C   0  0  0  0  0  0  0  0  0  0  0  0
   41.3080   32.0270   37.8010 O   0  0  0  0  0  0  0  0  0  0  0  0
   41.3250   32.4940   40.3660 C   0  0  2  0  0  0  0  0  0  0  0  0
   39.9020   32.2780   40.7340 C   0  0  2  0  0  0  0  0  0  0  0  0
   39.5440   30.7270   41.6540 S   0  0  0  0  0  0  0  0  0  0  0  0
   38.5490   28.8590   39.8590 C   0  0  0  0  0  0  0  0  0  0  0  0
   36.9270   30.1390   41.3050 C   0  0  0  0  0  0  0  0  0  0  0  0
   45.7780   35.1800   42.9370 C   0  0  0  0  0  0  0  0  0  0  0  0
   46.4710   36.2350   42.8840 O   0  0  0  0  0  0  0  0  0  0  0  0
   45.1020   34.5410   45.2090 C   0  0  0  0  0  0  0  0  0  0  0  0
   45.9570   34.3830   44.0990 C   0  0  0  0  0  0  0  0  0  0  0  0
   46.9310   33.4170   44.2680 C   0  0  0  0  0  0  0  0  0  0  0  0
   47.0550   32.6980   45.3780 N   0  0  0  0  0  0  0  0  0  0  0  0
   46.2000   32.8910   46.4240 C   0  0  0  0  0  0  0  0  0  0  0  0
   45.2350   33.8090   46.3250 N   0  0  0  0  0  0  0  0  0  0  0  0
   47.8420   33.1930   43.1930 C   0  0  0  0  0  0  0  0  0  0  0  0
   49.0090   33.7510   42.7840 C   0  0  0  0  0  0  0  0  0  0  0  0
   49.6490   33.3180   41.7140 C   0  0  0  0  0  0  0  0  0  0  0  0
   49.0990   32.2980   41.0380 C   0  0  0  0  0  0  0  0  0  0  0  0
   47.5830   31.9220   41.9680 S   0  0  0  0  0  0  0  0  0  0  0  0
   42.8556   34.9102   42.8829 H   0  0  0  0  0  0  0  0  0  0  0  0
   43.2436   33.4032   38.1275 H   0  0  0  0  0  0  0  0  0  0  0  0
   45.0204   33.5616   38.1528 H   0  0  0  0  0  0  0  0  0  0  0  0
   40.9448   34.4994   41.0700 H   0  0  0  0  0  0  0  0  0  0  0  0
   41.5083   34.3840   39.3544 H   0  0  0  0  0  0  0  0  0  0  0  0
   37.7715   30.9978   38.5900 H   0  0  0  0  0  0  0  0  0  0  0  0
   37.5445   32.1313   39.9361 H   0  0  0  0  0  0  0  0  0  0  0  0
   42.1688   32.0325   40.8999 H   0  0  0  0  0  0  0  0  0  0  0  0
   39.4695   33.1372   41.2676 H   0  0  0  0  0  0  0  0  0  0  0  0
   38.7474   28.0944   40.6245 H   0  0  0  0  0  0  0  0  0  0  0  0
   37.7041   28.5390   39.2314 H   0  0  0  0  0  0  0  0  0  0  0  0
   39.4429   28.9902   39.2314 H   0  0  0  0  0  0  0  0  0  0  0  0
   37.1519   30.1416   42.3818 H   0  0  0  0  0  0  0  0  0  0  0  0
   36.3340   31.0303   41.0521 H   0  0  0  0  0  0  0  0  0  0  0  0
   36.3550   29.2341   41.0521 H   0  0  0  0  0  0  0  0  0  0  0  0
   44.2983   35.2903   45.1579 H   0  0  0  0  0  0  0  0  0  0  0  0
   46.3049   32.2946   47.3423 H   0  0  0  0  0  0  0  0  0  0  0  0
   49.4333   34.5868   43.3597 H   0  0  0  0  0  0  0  0  0  0  0  0
   50.5954   33.7751   41.3895 H   0  0  0  0  0  0  0  0  0  0  0  0
   49.4776   31.8038   40.1312 H   0  0  0  0  0  0  0  0  0  0  0  0
  1  2  2  0
  1 18  1  0
  3  2  1  0
  4  5  2  0
  4  3  1  0
  5  1  1  0
  6  4  1  0
  7  3  1  0
  8 17  1  0
  8 15  1  0
  9  8  1  0
 10  9  1  0
 10 14  1  0
 11 10  1  0
 11 13  1  0
 12 11  2  0
 13  7  1  0
 13 14  1  0
 14 15  1  0
 16  8  1  0
 18 21  1  0
 19 18  2  0
 20 25  2  0
 21 22  2  0
 21 20  1  0
 22 23  1  0
 23 24  2  0
 25 24  1  0
 26 22  1  0
 27 26  2  0
 28 27  1  0
 29 28  2  0
 29 30  1  0
 30 26  1  0
  2 31  1  0
  6 32  1  0
  6 33  1  0
  7 34  1  0
  7 35  1  0
  9 36  1  0
  9 37  1  0
 13 38  1  1
 14 39  1  1
 16 40  1  0
 16 41  1  0
 16 42  1  0
 17 43  1  0
 17 44  1  0
 17 45  1  0
 20 46  1  0
 24 47  1  0
 27 48  1  0
 28 49  1  0
 29 50  1  0
M  ISO  8  31  14  34   8  35   8  36  13  37  13  38  13  39  13  40   8
M  ISO  8  41   8  42   8  43   8  44   8  45   8  46  14  47  14  48  14
M  ISO  2  49  14  50  14
M  END
>  <minimizedAffinity>  (1) 
-5.73826885

>  <minimizedRMSD>  (1) 
3.9337492

$$$$
