
     RDKit          3D

 35 37  0  0  0  0  0  0  0  0999 V2000
   40.4990   36.5720   40.6570 O   0  0  0  0  0  0  0  0  0  0  0  0
   41.3460   35.3450   40.9800 P   0  0  1  0  0  0  0  0  0  0  0  0
   40.6950   34.6090   42.3760 O   0  0  0  0  0  0  0  0  0  0  0  0
   41.2440   34.2330   39.7080 O   0  0  0  0  0  0  0  0  0  0  0  0
   39.4610   32.8220   39.0630 C   0  0  0  0  0  0  0  0  0  0  0  0
   40.6570   32.9750   39.7510 C   0  0  0  0  0  0  0  0  0  0  0  0
   41.1770   31.8600   40.4320 C   0  0  0  0  0  0  0  0  0  0  0  0
   40.4620   30.7090   40.3620 N   0  0  0  0  0  0  0  0  0  0  0  0
   39.3060   30.5910   39.6860 C   0  0  0  0  0  0  0  0  0  0  0  0
   38.8230   31.6430   39.0490 N   0  0  0  0  0  0  0  0  0  0  0  0
   38.8660   33.9430   38.3340 C   0  0  0  0  0  0  0  0  0  0  0  0
   37.9210   33.4110   37.2760 C   0  0  0  0  0  0  0  0  0  0  0  0
   42.9360   35.7970   41.3500 O   0  0  0  0  0  0  0  0  0  0  0  0
   44.1370   33.6960   41.7790 C   0  0  0  0  0  0  0  0  0  0  0  0
   43.7130   34.9520   42.1620 C   0  0  0  0  0  0  0  0  0  0  0  0
   44.0680   35.4260   43.4210 C   0  0  0  0  0  0  0  0  0  0  0  0
   44.8360   34.6640   44.2980 C   0  0  0  0  0  0  0  0  0  0  0  0
   45.3240   34.8480   45.5460 N   0  0  0  0  0  0  0  0  0  0  0  0
   46.0130   33.7780   45.9320 N   0  0  0  0  0  0  0  0  0  0  0  0
   45.9900   32.8570   44.9290 C   0  0  0  0  0  0  0  0  0  0  0  0
   45.2650   33.3940   43.9140 C   0  0  0  0  0  0  0  0  0  0  0  0
   44.8990   32.9410   42.6500 C   0  0  0  0  0  0  0  0  0  0  0  0
   41.0748   35.0384   43.1831 H   0  0  0  0  0  0  0  0  0  0  0  0
   42.1199   31.9182   40.9955 H   0  0  0  0  0  0  0  0  0  0  0  0
   38.7692   29.6311   39.6635 H   0  0  0  0  0  0  0  0  0  0  0  0
   38.3095   34.5825   39.0349 H   0  0  0  0  0  0  0  0  0  0  0  0
   39.6611   34.5320   37.8535 H   0  0  0  0  0  0  0  0  0  0  0  0
   37.0612   32.9270   37.7623 H   0  0  0  0  0  0  0  0  0  0  0  0
   37.5672   34.2425   36.6488 H   0  0  0  0  0  0  0  0  0  0  0  0
   38.4484   32.6772   36.6488 H   0  0  0  0  0  0  0  0  0  0  0  0
   43.8706   33.2990   40.7883 H   0  0  0  0  0  0  0  0  0  0  0  0
   43.7339   36.4271   43.7313 H   0  0  0  0  0  0  0  0  0  0  0  0
   45.1824   35.6946   46.1152 H   0  0  0  0  0  0  0  0  0  0  0  0
   46.4679   31.8663   44.9391 H   0  0  0  0  0  0  0  0  0  0  0  0
   45.2297   31.9414   42.3314 H   0  0  0  0  0  0  0  0  0  0  0  0
  2  1  2  0
  2 13  1  0
  2  3  1  0
  4  6  1  0
  4  2  1  0
  5  6  2  0
  6  7  1  0
  8  7  2  0
  9  8  1  0
 10  5  1  0
 10  9  2  0
 11  5  1  0
 12 11  1  0
 13 15  1  0
 14 15  2  0
 14 22  1  0
 15 16  1  0
 16 17  2  0
 17 18  1  0
 18 19  1  0
 20 19  2  0
 21 17  1  0
 21 20  1  0
 22 21  2  0
  3 23  1  0
  7 24  1  0
  9 25  1  0
 11 26  1  0
 11 27  1  0
 12 28  1  0
 12 29  1  0
 12 30  1  0
 14 31  1  0
 16 32  1  0
 18 33  1  0
 20 34  1  0
 22 35  1  0
M  ISO  8  23   3  24  14  25  14  26   8  27   8  28   8  29   8  30   8
M  ISO  5  31  14  32  14  33   9  34  14  35  14
M  END
>  <minimizedAffinity>  (1) 
-5.20712519

>  <minimizedRMSD>  (1) 
7.4201889

$$$$
