
     RDKit          3D

 37 40  0  0  0  0  0  0  0  0999 V2000
   45.3080   36.0650   43.3240 C   0  0  0  0  0  0  0  0  0  0  0  0
   46.1210   34.9330   43.1860 C   0  0  0  0  0  0  0  0  0  0  0  0
   46.1240   34.0260   44.2240 C   0  0  0  0  0  0  0  0  0  0  0  0
   45.3700   34.2210   45.3370 N   0  0  0  0  0  0  0  0  0  0  0  0
   44.5870   35.3410   45.4380 C   0  0  0  0  0  0  0  0  0  0  0  0
   44.5670   36.2290   44.4500 N   0  0  0  0  0  0  0  0  0  0  0  0
   46.8430   34.8140   41.9890 N   0  0  0  0  0  0  0  0  0  0  0  0
   48.1400   35.3660   41.8890 C   0  0  0  0  0  0  0  0  0  0  0  0
   48.7220   35.2520   40.5250 C   0  0  0  0  0  0  0  0  0  0  0  0
   48.5480   34.0130   39.8880 N   0  0  0  0  0  0  0  0  0  0  0  0
   47.3470   33.3290   40.1200 C   0  0  0  0  0  0  0  0  0  0  0  0
   46.3350   34.1760   40.8050 C   0  0  0  0  0  0  0  0  0  0  0  0
   46.5750   32.2180   45.6120 C   0  0  0  0  0  0  0  0  0  0  0  0
   46.8030   32.7730   44.3340 C   0  0  0  0  0  0  0  0  0  0  0  0
   47.6630   31.9720   43.6120 C   0  0  0  0  0  0  0  0  0  0  0  0
   48.2240   30.8170   44.0270 C   0  0  0  0  0  0  0  0  0  0  0  0
   49.0600   30.0300   43.3330 N   0  0  0  0  0  0  0  0  0  0  0  0
   49.3600   29.0030   44.1360 N   0  0  0  0  0  0  0  0  0  0  0  0
   48.7200   29.1500   45.3100 C   0  0  0  0  0  0  0  0  0  0  0  0
   47.9750   30.3140   45.2780 C   0  0  0  0  0  0  0  0  0  0  0  0
   47.1310   31.0370   46.0800 C   0  0  0  0  0  0  0  0  0  0  0  0
   45.2699   36.8183   42.5233 H   0  0  0  0  0  0  0  0  0  0  0  0
   43.9749   35.5049   46.3372 H   0  0  0  0  0  0  0  0  0  0  0  0
   48.0884   36.4311   42.1591 H   0  0  0  0  0  0  0  0  0  0  0  0
   48.7904   34.7978   42.5703 H   0  0  0  0  0  0  0  0  0  0  0  0
   48.2572   36.0240   39.8942 H   0  0  0  0  0  0  0  0  0  0  0  0
   49.8079   35.3724   40.6525 H   0  0  0  0  0  0  0  0  0  0  0  0
   49.3166   33.3988   40.1928 H   0  0  0  0  0  0  0  0  0  0  0  0
   46.9362   32.9992   39.1544 H   0  0  0  0  0  0  0  0  0  0  0  0
   47.5691   32.4749   40.7767 H   0  0  0  0  0  0  0  0  0  0  0  0
   45.9980   34.9545   40.1048 H   0  0  0  0  0  0  0  0  0  0  0  0
   45.5108   33.5169   41.1151 H   0  0  0  0  0  0  0  0  0  0  0  0
   45.9035   32.7655   46.2898 H   0  0  0  0  0  0  0  0  0  0  0  0
   47.9170   32.3085   42.5960 H   0  0  0  0  0  0  0  0  0  0  0  0
   49.4023   30.1854   42.3740 H   0  0  0  0  0  0  0  0  0  0  0  0
   48.7799   28.4546   46.1602 H   0  0  0  0  0  0  0  0  0  0  0  0
   46.8949   30.6809   47.0936 H   0  0  0  0  0  0  0  0  0  0  0  0
  1  6  2  0
  2  1  1  0
  2  3  2  0
  3 14  1  0
  3  4  1  0
  4  5  2  0
  6  5  1  0
  7  2  1  0
  8  7  1  0
  9  8  1  0
 10 11  1  0
 10  9  1  0
 11 12  1  0
 12  7  1  0
 13 21  2  0
 14 13  1  0
 15 16  1  0
 15 14  2  0
 16 20  2  0
 17 16  1  0
 17 18  1  0
 18 19  2  0
 20 19  1  0
 20 21  1  0
  1 22  1  0
  5 23  1  0
  8 24  1  0
  8 25  1  0
  9 26  1  0
  9 27  1  0
 10 28  1  0
 11 29  1  0
 11 30  1  0
 12 31  1  0
 12 32  1  0
 13 33  1  0
 15 34  1  0
 17 35  1  0
 19 36  1  0
 21 37  1  0
M  ISO  8  22  14  23  14  24  13  25  13  26  13  27  13  28   5  29  13
M  ISO  8  30  13  31  13  32  13  33  14  34  14  35   9  36  14  37  14
M  END
>  <minimizedAffinity>  (1) 
-5.34267521

>  <minimizedRMSD>  (1) 
3.89770913

$$$$
