
     RDKit          3D

 44 48  0  0  1  0  0  0  0  0999 V2000
   47.9410   34.8380   42.0380 C   0  0  0  0  0  0  0  0  0  0  0  0
   48.1230   33.8360   40.9970 C   0  0  0  0  0  0  0  0  0  0  0  0
   49.2090   33.1360   40.9330 C   0  0  0  0  0  0  0  0  0  0  0  0
   49.4060   32.1650   39.9370 N   0  0  0  0  0  0  0  0  0  0  0  0
   49.8120   30.8260   39.6030 C   0  0  0  0  0  0  0  0  0  0  0  0
   50.6090   29.9720   40.1060 O   0  0  0  0  0  0  0  0  0  0  0  0
   48.8740   30.9490   38.4380 C   0  0  0  0  0  0  0  0  0  0  0  0
   49.1300   32.4370   38.5030 C   0  0  1  0  0  0  0  0  0  0  0  0
   47.6930   33.4990   38.3770 S   0  0  0  0  0  0  0  0  0  0  0  0
   46.9960   33.6930   40.0480 C   0  0  0  0  0  0  0  0  0  0  0  0
   50.2720   33.3550   41.9290 C   0  0  0  0  0  0  0  0  0  0  0  0
   50.9020   32.4310   42.5280 O   0  0  0  0  0  0  0  0  0  0  0  0
   51.1880   33.8670   42.7820 O   0  0  0  0  0  0  0  0  0  0  0  0
   46.1480   35.1610   42.2980 S   0  0  0  0  0  0  0  0  0  0  0  0
   44.5140   35.0050   46.0040 C   0  0  0  0  0  0  0  0  0  0  0  0
   44.7690   35.4180   44.6590 C   0  0  0  0  0  0  0  0  0  0  0  0
   45.7720   34.7080   43.9730 C   0  0  0  0  0  0  0  0  0  0  0  0
   46.4180   33.7010   44.6170 N   0  0  0  0  0  0  0  0  0  0  0  0
   46.1400   33.3540   45.8800 C   0  0  0  0  0  0  0  0  0  0  0  0
   45.1940   33.9970   46.5770 N   0  0  0  0  0  0  0  0  0  0  0  0
   47.1880   31.0930   45.7720 C   0  0  0  0  0  0  0  0  0  0  0  0
   46.9010   32.2530   46.4660 C   0  0  0  0  0  0  0  0  0  0  0  0
   47.3450   32.4000   47.7780 C   0  0  0  0  0  0  0  0  0  0  0  0
   48.0790   31.3810   48.3900 C   0  0  0  0  0  0  0  0  0  0  0  0
   48.6000   31.3240   49.6480 N   0  0  0  0  0  0  0  0  0  0  0  0
   49.2220   30.1460   49.7830 N   0  0  0  0  0  0  0  0  0  0  0  0
   49.0830   29.4790   48.6130 C   0  0  0  0  0  0  0  0  0  0  0  0
   48.3670   30.2200   47.7030 C   0  0  0  0  0  0  0  0  0  0  0  0
   47.9140   30.1040   46.4050 C   0  0  0  0  0  0  0  0  0  0  0  0
   48.4388   35.7712   41.7358 H   0  0  0  0  0  0  0  0  0  0  0  0
   48.3797   34.4667   42.9759 H   0  0  0  0  0  0  0  0  0  0  0  0
   47.8364   30.6491   38.6466 H   0  0  0  0  0  0  0  0  0  0  0  0
   49.0106   30.3709   37.5122 H   0  0  0  0  0  0  0  0  0  0  0  0
   49.7981   32.9257   37.7786 H   0  0  0  0  0  0  0  0  0  0  0  0
   46.3595   34.5894   40.0858 H   0  0  0  0  0  0  0  0  0  0  0  0
   46.3820   32.8190   40.3110 H   0  0  0  0  0  0  0  0  0  0  0  0
   51.7533   33.2609   43.3235 H   0  0  0  0  0  0  0  0  0  0  0  0
   43.7399   35.5267   46.5859 H   0  0  0  0  0  0  0  0  0  0  0  0
   44.2137   36.2425   44.1880 H   0  0  0  0  0  0  0  0  0  0  0  0
   46.8447   30.9602   44.7354 H   0  0  0  0  0  0  0  0  0  0  0  0
   47.1170   33.3213   48.3340 H   0  0  0  0  0  0  0  0  0  0  0  0
   48.5280   32.0574   50.3676 H   0  0  0  0  0  0  0  0  0  0  0  0
   49.4896   28.4760   48.4164 H   0  0  0  0  0  0  0  0  0  0  0  0
   48.1415   29.1822   45.8496 H   0  0  0  0  0  0  0  0  0  0  0  0
  1 14  1  0
  2  1  1  0
  3  2  2  0
  3 11  1  0
  4  3  1  0
  5  4  1  0
  5  6  2  0
  7  8  1  0
  7  5  1  0
  8  4  1  0
  9  8  1  0
  9 10  1  0
 10  2  1  0
 11 12  2  0
 11 13  1  0
 14 17  1  0
 15 20  2  0
 16 15  1  0
 17 18  1  0
 17 16  2  0
 18 19  2  0
 19 22  1  0
 19 20  1  0
 21 29  2  0
 21 22  1  0
 22 23  2  0
 23 24  1  0
 24 25  1  0
 25 26  1  0
 27 26  2  0
 28 24  2  0
 28 27  1  0
 29 28  1  0
  1 30  1  0
  1 31  1  0
  7 32  1  0
  7 33  1  0
  8 34  1  6
 10 35  1  0
 10 36  1  0
 13 37  1  0
 15 38  1  0
 16 39  1  0
 21 40  1  0
 23 41  1  0
 25 42  1  0
 27 43  1  0
 29 44  1  0
M  ISO  8  30   8  31   8  32  13  33  13  34  13  35  13  36  13  37   3
M  ISO  7  38  14  39  14  40  14  41  14  42   9  43  14  44  14
M  END
>  <minimizedAffinity>  (1) 
-6.57462692

>  <minimizedRMSD>  (1) 
1.57591999

$$$$
