
     RDKit          3D

 40 44  0  0  0  0  0  0  0  0999 V2000
   43.8310   32.3820   42.0460 F   0  0  0  0  0  0  0  0  0  0  0  0
   44.2500   33.6150   42.3470 C   0  0  0  0  0  0  0  0  0  0  0  0
   45.3760   33.7830   43.1150 C   0  0  0  0  0  0  0  0  0  0  0  0
   45.8290   35.0590   43.4400 C   0  0  0  0  0  0  0  0  0  0  0  0
   45.1790   36.1940   43.0160 C   0  0  0  0  0  0  0  0  0  0  0  0
   44.0650   36.0080   42.2570 C   0  0  0  0  0  0  0  0  0  0  0  0
   43.5890   34.7560   41.9150 C   0  0  0  0  0  0  0  0  0  0  0  0
   42.4500   35.1170   39.7930 C   0  0  0  0  0  0  0  0  0  0  0  0
   42.3860   34.6450   41.0980 C   0  0  0  0  0  0  0  0  0  0  0  0
   41.1690   34.1120   41.4940 C   0  0  0  0  0  0  0  0  0  0  0  0
   40.1050   34.0650   40.6230 C   0  0  0  0  0  0  0  0  0  0  0  0
   38.8480   33.5930   40.8010 N   0  0  0  0  0  0  0  0  0  0  0  0
   38.1610   33.7530   39.6920 N   0  0  0  0  0  0  0  0  0  0  0  0
   38.9350   34.3290   38.7560 C   0  0  0  0  0  0  0  0  0  0  0  0
   40.1780   34.5350   39.3340 C   0  0  0  0  0  0  0  0  0  0  0  0
   41.3800   35.0700   38.9180 C   0  0  0  0  0  0  0  0  0  0  0  0
   46.6140   30.9720   44.8500 C   0  0  0  0  0  0  0  0  0  0  0  0
   47.7040   31.2880   44.0680 C   0  0  0  0  0  0  0  0  0  0  0  0
   47.4110   32.3760   43.3080 C   0  0  0  0  0  0  0  0  0  0  0  0
   46.1460   32.7270   43.6220 N   0  0  0  0  0  0  0  0  0  0  0  0
   45.6760   31.8810   44.5460 N   0  0  0  0  0  0  0  0  0  0  0  0
   45.2890   28.3500   47.0320 C   0  0  0  0  0  0  0  0  0  0  0  0
   46.4490   27.7940   47.5810 C   0  0  0  0  0  0  0  0  0  0  0  0
   47.6830   28.3190   47.2030 C   0  0  0  0  0  0  0  0  0  0  0  0
   47.6570   29.3440   46.3170 N   0  0  0  0  0  0  0  0  0  0  0  0
   46.5410   29.8770   45.7900 C   0  0  0  0  0  0  0  0  0  0  0  0
   45.3420   29.3740   46.1530 N   0  0  0  0  0  0  0  0  0  0  0  0
   46.7351   35.1622   44.0551 H   0  0  0  0  0  0  0  0  0  0  0  0
   45.5405   37.1997   43.2767 H   0  0  0  0  0  0  0  0  0  0  0  0
   43.5188   36.8934   41.8996 H   0  0  0  0  0  0  0  0  0  0  0  0
   43.3975   35.5490   39.4385 H   0  0  0  0  0  0  0  0  0  0  0  0
   41.0527   33.7223   42.5161 H   0  0  0  0  0  0  0  0  0  0  0  0
   38.4868   33.1740   41.6699 H   0  0  0  0  0  0  0  0  0  0  0  0
   38.6389   34.5873   37.7286 H   0  0  0  0  0  0  0  0  0  0  0  0
   41.4868   35.4577   37.8941 H   0  0  0  0  0  0  0  0  0  0  0  0
   48.6606   30.7450   44.0602 H   0  0  0  0  0  0  0  0  0  0  0  0
   48.0725   32.8715   42.5821 H   0  0  0  0  0  0  0  0  0  0  0  0
   44.3094   27.9432   47.3233 H   0  0  0  0  0  0  0  0  0  0  0  0
   46.3884   26.9601   48.2959 H   0  0  0  0  0  0  0  0  0  0  0  0
   48.6281   27.9225   47.6025 H   0  0  0  0  0  0  0  0  0  0  0  0
  1  2  1  0
  2  3  2  0
  3  4  1  0
  3 20  1  0
  5  4  2  0
  6  5  1  0
  7  6  2  0
  7  2  1  0
  8  9  2  0
  9 10  1  0
  9  7  1  0
 11 12  1  0
 11 10  2  0
 13 12  1  0
 14 15  1  0
 14 13  2  0
 15 11  1  0
 16 15  2  0
 16  8  1  0
 17 26  1  0
 18 17  1  0
 19 20  1  0
 19 18  2  0
 20 21  1  0
 21 17  2  0
 22 23  2  0
 24 23  1  0
 25 24  2  0
 26 27  2  0
 26 25  1  0
 27 22  1  0
  4 28  1  0
  5 29  1  0
  6 30  1  0
  8 31  1  0
 10 32  1  0
 12 33  1  0
 14 34  1  0
 16 35  1  0
 18 36  1  0
 19 37  1  0
 22 38  1  0
 23 39  1  0
 24 40  1  0
M  ISO  8  28  14  29  14  30  14  31  14  32  14  33   9  34  14  35  14
M  ISO  5  36  14  37  14  38  14  39  14  40  14
M  END
>  <minimizedAffinity>  (1) 
-6.0014534

>  <minimizedRMSD>  (1) 
4.15252638

$$$$
