
     RDKit          3D

 51 55  0  0  1  0  0  0  0  0999 V2000
   45.7340   35.2920   43.3870 C   0  0  1  0  0  0  0  0  0  0  0  0
   44.6960   34.9340   44.2490 C   0  0  0  0  0  0  0  0  0  0  0  0
   46.0100   34.3710   44.6110 C   0  0  1  0  0  0  0  0  0  0  0  0
   44.9180   34.1520   41.3200 C   0  0  0  0  0  0  0  0  0  0  0  0
   46.0260   34.7050   42.0410 C   0  0  0  0  0  0  0  0  0  0  0  0
   47.2710   34.6790   41.5000 C   0  0  0  0  0  0  0  0  0  0  0  0
   47.4010   34.1060   40.2540 N   0  0  0  0  0  0  0  0  0  0  0  0
   46.3470   33.5890   39.5870 C   0  0  0  0  0  0  0  0  0  0  0  0
   45.0680   33.5940   40.0980 N   0  0  0  0  0  0  0  0  0  0  0  0
   47.6720   32.2000   38.0380 C   0  0  0  0  0  0  0  0  0  0  0  0
   46.5720   32.9990   38.2710 C   0  0  0  0  0  0  0  0  0  0  0  0
   45.6510   33.2720   37.2820 C   0  0  0  0  0  0  0  0  0  0  0  0
   45.7930   32.7500   36.0020 C   0  0  0  0  0  0  0  0  0  0  0  0
   45.0360   32.8730   34.8870 N   0  0  0  0  0  0  0  0  0  0  0  0
   45.6380   32.1560   33.9260 N   0  0  0  0  0  0  0  0  0  0  0  0
   46.7460   31.5940   34.4200 C   0  0  0  0  0  0  0  0  0  0  0  0
   46.8910   31.9440   35.7450 C   0  0  0  0  0  0  0  0  0  0  0  0
   47.7780   31.7060   36.7700 C   0  0  0  0  0  0  0  0  0  0  0  0
   46.2970   32.9330   44.3850 C   0  0  0  0  0  0  0  0  0  0  0  0
   45.8100   32.2250   45.5140 N   0  0  0  0  0  0  0  0  0  0  0  0
   45.9190   32.8250   46.7730 C   0  0  0  0  0  0  0  0  0  0  0  0
   47.2450   32.4380   47.4630 C   0  0  0  0  0  0  0  0  0  0  0  0
   47.1500   30.9700   47.7720 C   0  0  0  0  0  0  0  0  0  0  0  0
   46.9930   30.2620   46.4570 C   0  0  0  0  0  0  0  0  0  0  0  0
   45.9320   30.8310   45.5590 C   0  0  2  0  0  0  0  0  0  0  0  0
   46.1630   30.2340   44.1780 C   0  0  0  0  0  0  0  0  0  0  0  0
   46.0279   36.2738   42.9873 H   0  0  0  0  0  0  0  0  0  0  0  0
   44.2489   35.7040   44.8949 H   0  0  0  0  0  0  0  0  0  0  0  0
   43.7120   34.4736   44.0766 H   0  0  0  0  0  0  0  0  0  0  0  0
   46.6637   34.3678   45.4957 H   0  0  0  0  0  0  0  0  0  0  0  0
   43.9165   34.1825   41.7740 H   0  0  0  0  0  0  0  0  0  0  0  0
   48.1376   35.0970   42.0331 H   0  0  0  0  0  0  0  0  0  0  0  0
   48.4126   31.9764   38.8200 H   0  0  0  0  0  0  0  0  0  0  0  0
   44.7880   33.9148   37.5103 H   0  0  0  0  0  0  0  0  0  0  0  0
   44.1643   33.4137   34.7939 H   0  0  0  0  0  0  0  0  0  0  0  0
   47.4365   30.9505   33.8551 H   0  0  0  0  0  0  0  0  0  0  0  0
   48.6440   31.0647   36.5491 H   0  0  0  0  0  0  0  0  0  0  0  0
   45.7876   32.5858   43.4740 H   0  0  0  0  0  0  0  0  0  0  0  0
   47.3765   32.7661   44.2556 H   0  0  0  0  0  0  0  0  0  0  0  0
   45.8821   33.9179   46.6540 H   0  0  0  0  0  0  0  0  0  0  0  0
   45.0853   32.4746   47.3992 H   0  0  0  0  0  0  0  0  0  0  0  0
   48.0941   32.6311   46.7909 H   0  0  0  0  0  0  0  0  0  0  0  0
   47.4059   33.0283   48.3771 H   0  0  0  0  0  0  0  0  0  0  0  0
   48.0647   30.6293   48.2793 H   0  0  0  0  0  0  0  0  0  0  0  0
   46.3006   30.7599   48.4386 H   0  0  0  0  0  0  0  0  0  0  0  0
   47.9544   30.3111   45.9248 H   0  0  0  0  0  0  0  0  0  0  0  0
   46.6804   29.2342   46.6936 H   0  0  0  0  0  0  0  0  0  0  0  0
   44.9601   30.5479   45.9895 H   0  0  0  0  0  0  0  0  0  0  0  0
   46.5582   29.2127   44.2815 H   0  0  0  0  0  0  0  0  0  0  0  0
   45.2112   30.2048   43.6273 H   0  0  0  0  0  0  0  0  0  0  0  0
   46.8865   30.8531   43.6273 H   0  0  0  0  0  0  0  0  0  0  0  0
  1  2  1  0
  1  3  1  0
  2  3  1  0
  4  5  2  0
  5  1  1  0
  6  5  1  0
  7  6  2  0
  8  9  2  0
  8  7  1  0
  9  4  1  0
 10 11  2  0
 11  8  1  0
 12 11  1  0
 13 12  2  0
 14 13  1  0
 15 16  2  0
 15 14  1  0
 16 17  1  0
 17 13  1  0
 17 18  2  0
 18 10  1  0
 19  3  1  0
 19 20  1  0
 20 25  1  0
 20 21  1  0
 21 22  1  0
 22 23  1  0
 24 23  1  0
 25 24  1  0
 26 25  1  0
  1 27  1  1
  2 28  1  0
  2 29  1  0
  3 30  1  1
  4 31  1  0
  6 32  1  0
 10 33  1  0
 12 34  1  0
 14 35  1  0
 16 36  1  0
 18 37  1  0
 19 38  1  0
 19 39  1  0
 21 40  1  0
 21 41  1  0
 22 42  1  0
 22 43  1  0
 23 44  1  0
 23 45  1  0
 24 46  1  0
 24 47  1  0
 25 48  1  1
 26 49  1  0
 26 50  1  0
 26 51  1  0
M  ISO  8  27  13  28  13  29  13  30  13  31  14  32  14  33  14  34  14
M  ISO  8  35   9  36  14  37  14  38   8  39   8  40  13  41  13  42  13
M  ISO  8  43  13  44  13  45  13  46  13  47  13  48  13  49   8  50   8
M  ISO  1  51   8
M  END
>  <minimizedAffinity>  (1) 
-5.53954649

>  <minimizedRMSD>  (1) 
2.59557199

$$$$
