
     RDKit          3D

 32 34  0  0  1  0  0  0  0  0999 V2000
   46.9700   28.2130   46.9980 C   0  0  0  0  0  0  0  0  0  0  0  0
   47.8480   29.0550   47.5070 C   0  0  0  0  0  0  0  0  0  0  0  0
   47.7190   30.4330   47.1890 N   0  0  0  0  0  0  0  0  0  0  0  0
   47.8340   31.7990   47.5590 C   0  0  0  0  0  0  0  0  0  0  0  0
   48.2550   32.4210   48.5930 O   0  0  0  0  0  0  0  0  0  0  0  0
   47.2730   32.3180   46.2860 C   0  0  1  0  0  0  0  0  0  0  0  0
   47.2410   30.8910   45.8730 C   0  0  2  0  0  0  0  0  0  0  0  0
   45.5490   30.1780   45.7830 S   0  0  0  0  0  0  0  0  0  0  0  0
   45.8080   28.4220   46.1140 C   0  0  0  0  0  0  0  0  0  0  0  0
   45.9580   32.9880   46.4260 C   0  0  0  0  0  0  0  0  0  0  0  0
   45.1880   32.7200   47.3830 O   0  0  0  0  0  0  0  0  0  0  0  0
   44.4210   35.8870   44.8730 C   0  0  0  0  0  0  0  0  0  0  0  0
   44.9020   35.8820   43.5600 C   0  0  0  0  0  0  0  0  0  0  0  0
   45.7750   34.8510   43.2060 C   0  0  0  0  0  0  0  0  0  0  0  0
   46.1140   33.9210   44.1300 N   0  0  0  0  0  0  0  0  0  0  0  0
   45.6290   33.9610   45.3870 C   0  0  0  0  0  0  0  0  0  0  0  0
   44.7780   34.9560   45.7490 N   0  0  0  0  0  0  0  0  0  0  0  0
   47.1840   26.7800   47.3830 C   0  0  0  0  0  0  0  0  0  0  0  0
   48.9400   28.6390   48.3730 C   0  0  0  0  0  0  0  0  0  0  0  0
   49.8530   27.8300   48.1810 O   0  0  0  0  0  0  0  0  0  0  0  0
   49.0950   29.1570   49.6410 O   0  0  0  0  0  0  0  0  0  0  0  0
   47.7542   33.0959   45.6750 H   0  0  0  0  0  0  0  0  0  0  0  0
   47.7317   30.6675   44.9142 H   0  0  0  0  0  0  0  0  0  0  0  0
   44.9098   28.0117   46.5986 H   0  0  0  0  0  0  0  0  0  0  0  0
   46.0000   27.9115   45.1588 H   0  0  0  0  0  0  0  0  0  0  0  0
   43.7294   36.6824   45.1877 H   0  0  0  0  0  0  0  0  0  0  0  0
   44.6056   36.6565   42.8373 H   0  0  0  0  0  0  0  0  0  0  0  0
   46.1834   34.7949   42.1862 H   0  0  0  0  0  0  0  0  0  0  0  0
   47.1970   26.6929   48.4795 H   0  0  0  0  0  0  0  0  0  0  0  0
   46.3677   26.1652   46.9760 H   0  0  0  0  0  0  0  0  0  0  0  0
   48.1443   26.4305   46.9760 H   0  0  0  0  0  0  0  0  0  0  0  0
   49.8474   28.8564   50.2099 H   0  0  0  0  0  0  0  0  0  0  0  0
  1 18  1  0
  1  2  2  0
  2 19  1  0
  3  2  1  0
  3  4  1  0
  4  5  2  0
  6 10  1  0
  6  4  1  0
  7  8  1  0
  7  6  1  0
  7  3  1  0
  8  9  1  0
  9  1  1  0
 10 11  2  0
 12 17  2  0
 13 12  1  0
 14 13  2  0
 14 15  1  0
 15 16  2  0
 16 17  1  0
 16 10  1  0
 19 21  1  0
 20 19  2  0
  6 22  1  6
  7 23  1  6
  9 24  1  0
  9 25  1  0
 12 26  1  0
 13 27  1  0
 14 28  1  0
 18 29  1  0
 18 30  1  0
 18 31  1  0
 21 32  1  0
M  ISO  8  22  13  23  13  24  13  25  13  26  14  27  14  28  14  29   8
M  ISO  3  30   8  31   8  32   3
M  END
>  <minimizedAffinity>  (1) 
-4.62044334

>  <minimizedRMSD>  (1) 
0.807365358

$$$$
