
     RDKit          3D

 52 55  0  0  1  0  0  0  0  0999 V2000
   47.4640   34.1360   42.5140 C   0  0  2  0  0  0  0  0  0  0  0  0
   48.7820   34.7830   42.7060 C   0  0  0  0  0  0  0  0  0  0  0  0
   49.0440   35.8620   41.7100 C   0  0  0  0  0  0  0  0  0  0  0  0
   48.8980   35.4130   40.2810 C   0  0  0  0  0  0  0  0  0  0  0  0
   47.8020   34.4200   40.0560 C   0  0  2  0  0  0  0  0  0  0  0  0
   46.8130   34.4160   41.2040 C   0  0  0  0  0  0  0  0  0  0  0  0
   46.5110   34.4000   43.6020 C   0  0  0  0  0  0  0  0  0  0  0  0
   45.6440   35.4600   43.3460 C   0  0  0  0  0  0  0  0  0  0  0  0
   44.6720   35.8090   44.2870 C   0  0  0  0  0  0  0  0  0  0  0  0
   44.6450   35.0490   45.4440 N   0  0  0  0  0  0  0  0  0  0  0  0
   45.5040   34.0330   45.6530 C   0  0  0  0  0  0  0  0  0  0  0  0
   46.4210   33.7210   44.7350 N   0  0  0  0  0  0  0  0  0  0  0  0
   48.3780   33.0910   39.7730 C   0  0  0  0  0  0  0  0  0  0  0  0
   48.3990   32.6440   38.3730 C   0  0  0  0  0  0  0  0  0  0  0  0
   47.0010   30.6520   34.3620 C   0  0  0  0  0  0  0  0  0  0  0  0
   46.1350   31.3920   35.0200 C   0  0  0  0  0  0  0  0  0  0  0  0
   46.5350   32.2910   36.0100 N   0  0  0  0  0  0  0  0  0  0  0  0
   46.2830   32.9150   37.2390 C   0  0  0  0  0  0  0  0  0  0  0  0
   45.2900   33.0280   38.0320 O   0  0  0  0  0  0  0  0  0  0  0  0
   47.6590   33.4780   37.3780 C   0  0  2  0  0  0  0  0  0  0  0  0
   47.7600   33.0430   35.9370 C   0  0  1  0  0  0  0  0  0  0  0  0
   49.1190   31.9250   35.5800 S   0  0  0  0  0  0  0  0  0  0  0  0
   48.4720   30.6240   34.5340 C   0  0  0  0  0  0  0  0  0  0  0  0
   46.5450   29.7110   33.3170 C   0  0  0  0  0  0  0  0  0  0  0  0
   44.7190   31.2700   34.7020 C   0  0  0  0  0  0  0  0  0  0  0  0
   43.8440   30.9490   35.5440 O   0  0  0  0  0  0  0  0  0  0  0  0
   43.4960   31.2420   34.1000 O   0  0  0  0  0  0  0  0  0  0  0  0
   47.7233   33.0671   42.5271 H   0  0  0  0  0  0  0  0  0  0  0  0
   48.8160   35.2197   43.7150 H   0  0  0  0  0  0  0  0  0  0  0  0
   49.5540   34.0112   42.5706 H   0  0  0  0  0  0  0  0  0  0  0  0
   48.3334   36.6820   41.8909 H   0  0  0  0  0  0  0  0  0  0  0  0
   50.0896   36.1765   41.8435 H   0  0  0  0  0  0  0  0  0  0  0  0
   48.6932   36.2983   39.6611 H   0  0  0  0  0  0  0  0  0  0  0  0
   49.8385   34.9102   40.0114 H   0  0  0  0  0  0  0  0  0  0  0  0
   47.2206   34.7160   39.1704 H   0  0  0  0  0  0  0  0  0  0  0  0
   46.3268   35.4014   41.2547 H   0  0  0  0  0  0  0  0  0  0  0  0
   46.0829   33.6153   41.0146 H   0  0  0  0  0  0  0  0  0  0  0  0
   45.7246   36.0218   42.4037 H   0  0  0  0  0  0  0  0  0  0  0  0
   43.9696   36.6386   44.1186 H   0  0  0  0  0  0  0  0  0  0  0  0
   45.4493   33.4558   46.5878 H   0  0  0  0  0  0  0  0  0  0  0  0
   49.4179   33.0996   40.1316 H   0  0  0  0  0  0  0  0  0  0  0  0
   47.7097   32.3818   40.2833 H   0  0  0  0  0  0  0  0  0  0  0  0
   49.4510   32.6043   38.0542 H   0  0  0  0  0  0  0  0  0  0  0  0
   47.8756   31.6765   38.3767 H   0  0  0  0  0  0  0  0  0  0  0  0
   47.9559   34.4889   37.6940 H   0  0  0  0  0  0  0  0  0  0  0  0
   47.9093   33.8363   35.1897 H   0  0  0  0  0  0  0  0  0  0  0  0
   48.7481   29.6562   34.9780 H   0  0  0  0  0  0  0  0  0  0  0  0
   48.9078   30.7777   33.5358 H   0  0  0  0  0  0  0  0  0  0  0  0
   46.1122   28.8179   33.7914 H   0  0  0  0  0  0  0  0  0  0  0  0
   45.7835   30.1991   32.6910 H   0  0  0  0  0  0  0  0  0  0  0  0
   47.4000   29.4158   32.6910 H   0  0  0  0  0  0  0  0  0  0  0  0
   42.6909   31.0057   34.6255 H   0  0  0  0  0  0  0  0  0  0  0  0
  1  2  1  0
  1  7  1  0
  3  2  1  0
  4  3  1  0
  5  4  1  0
  5  6  1  0
  6  1  1  0
  7 12  1  0
  8  7  2  0
  8  9  1  0
  9 10  2  0
 10 11  1  0
 12 11  2  0
 13  5  1  0
 14 13  1  0
 15 23  1  0
 15 16  2  0
 16 17  1  0
 17 18  1  0
 18 20  1  0
 18 19  2  0
 20 14  1  0
 21 22  1  0
 21 17  1  0
 21 20  1  0
 23 22  1  0
 24 15  1  0
 25 16  1  0
 25 26  2  0
 27 25  1  0
  1 28  1  6
  2 29  1  0
  2 30  1  0
  3 31  1  0
  3 32  1  0
  4 33  1  0
  4 34  1  0
  5 35  1  6
  6 36  1  0
  6 37  1  0
  8 38  1  0
  9 39  1  0
 11 40  1  0
 13 41  1  0
 13 42  1  0
 14 43  1  0
 14 44  1  0
 20 45  1  6
 21 46  1  6
 23 47  1  0
 23 48  1  0
 24 49  1  0
 24 50  1  0
 24 51  1  0
 27 52  1  0
M  ISO  8  28  13  29  13  30  13  31  13  32  13  33  13  34  13  35  13
M  ISO  8  36  13  37  13  38  14  39  14  40  14  41   8  42   8  43   8
M  ISO  8  44   8  45  13  46  13  47  13  48  13  49   8  50   8  51   8
M  ISO  1  52   3
M  END
>  <minimizedAffinity>  (1) 
-6.51330042

>  <minimizedRMSD>  (1) 
2.04709435

$$$$
