
     RDKit          3D

 50 54  0  0  1  0  0  0  0  0999 V2000
   43.9880   34.6730   40.6820 C   0  0  0  0  0  0  0  0  0  0  0  0
   43.9980   33.7350   39.6970 C   0  0  0  0  0  0  0  0  0  0  0  0
   45.2390   33.0930   39.5120 C   0  0  0  0  0  0  0  0  0  0  0  0
   46.3180   33.4180   40.2630 N   0  0  0  0  0  0  0  0  0  0  0  0
   46.2500   34.3660   41.2210 C   0  0  0  0  0  0  0  0  0  0  0  0
   45.0810   34.9490   41.3890 N   0  0  0  0  0  0  0  0  0  0  0  0
   45.3810   32.0440   38.5530 N   0  0  0  0  0  0  0  0  0  0  0  0
   42.3850   35.4590   40.9810 S   0  0  0  0  0  0  0  0  0  0  0  0
   40.1770   34.5800   39.7970 C   0  0  0  0  0  0  0  0  0  0  0  0
   41.0630   34.2690   40.8480 C   0  0  0  0  0  0  0  0  0  0  0  0
   40.9100   33.1230   41.6270 C   0  0  0  0  0  0  0  0  0  0  0  0
   39.8710   32.2680   41.3660 C   0  0  0  0  0  0  0  0  0  0  0  0
   38.9800   32.5510   40.3310 C   0  0  0  0  0  0  0  0  0  0  0  0
   39.1180   33.6830   39.5520 C   0  0  0  0  0  0  0  0  0  0  0  0
   38.0220   31.4980   40.3030 O   0  0  0  0  0  0  0  0  0  0  0  0
   38.1320   30.8580   41.5290 C   0  0  0  0  0  0  0  0  0  0  0  0
   39.4650   31.0690   41.9510 O   0  0  0  0  0  0  0  0  0  0  0  0
   47.3000   34.7500   42.0010 O   0  0  0  0  0  0  0  0  0  0  0  0
   48.5020   35.1290   41.3770 C   0  0  0  0  0  0  0  0  0  0  0  0
   49.4920   34.1950   41.5980 F   0  0  0  0  0  0  0  0  0  0  0  0
   48.2270   35.2660   40.0120 F   0  0  0  0  0  0  0  0  0  0  0  0
   48.9230   36.3240   41.9350 F   0  0  0  0  0  0  0  0  0  0  0  0
   43.1030   33.2600   38.6270 C   0  0  0  0  0  0  0  0  0  0  0  0
   42.4810   31.9530   38.7120 C   0  0  0  0  0  0  0  0  0  0  0  0
   42.4390   30.8380   39.4120 C   0  0  0  0  0  0  0  0  0  0  0  0
   41.6450   29.7020   39.1150 N   0  0  0  0  0  0  0  0  0  0  0  0
   40.6710   28.7610   39.5300 C   0  0  0  0  0  0  0  0  0  0  0  0
   40.4130   28.2550   40.6550 O   0  0  0  0  0  0  0  0  0  0  0  0
   40.2230   28.7420   38.0910 C   0  0  0  0  0  0  0  0  0  0  0  0
   41.6850   28.9990   37.8190 C   0  0  1  0  0  0  0  0  0  0  0  0
   42.0000   30.3610   36.6260 S   0  0  0  0  0  0  0  0  0  0  0  0
   41.4740   31.8440   37.5790 C   0  0  0  0  0  0  0  0  0  0  0  0
   43.3210   30.8020   40.5770 C   0  0  0  0  0  0  0  0  0  0  0  0
   44.3810   30.5430   41.1920 O   0  0  0  0  0  0  0  0  0  0  0  0
   43.3660   31.1520   41.8970 O   0  0  0  0  0  0  0  0  0  0  0  0
   46.2928   31.5820   38.4264 H   0  0  0  0  0  0  0  0  0  0  0  0
   44.5716   31.7496   37.9881 H   0  0  0  0  0  0  0  0  0  0  0  0
   40.3072   35.4886   39.1908 H   0  0  0  0  0  0  0  0  0  0  0  0
   41.6158   32.9072   42.4426 H   0  0  0  0  0  0  0  0  0  0  0  0
   38.4022   33.8842   38.7413 H   0  0  0  0  0  0  0  0  0  0  0  0
   37.4269   31.2921   42.2532 H   0  0  0  0  0  0  0  0  0  0  0  0
   37.8949   29.7867   41.4511 H   0  0  0  0  0  0  0  0  0  0  0  0
   43.6912   33.2689   37.6975 H   0  0  0  0  0  0  0  0  0  0  0  0
   42.2462   33.9461   38.6994 H   0  0  0  0  0  0  0  0  0  0  0  0
   39.8344   27.7793   37.7273 H   0  0  0  0  0  0  0  0  0  0  0  0
   39.4058   29.3618   37.6936 H   0  0  0  0  0  0  0  0  0  0  0  0
   42.3353   28.1728   37.4958 H   0  0  0  0  0  0  0  0  0  0  0  0
   41.5043   32.7428   36.9455 H   0  0  0  0  0  0  0  0  0  0  0  0
   40.4413   31.7566   37.9476 H   0  0  0  0  0  0  0  0  0  0  0  0
   44.1794   30.9678   42.4305 H   0  0  0  0  0  0  0  0  0  0  0  0
  1  8  1  0
  1  6  2  0
  2  1  1  0
  3  2  2  0
  3  4  1  0
  4  5  2  0
  5  6  1  0
  5 18  1  0
  7  3  1  0
  9 10  2  0
 10  8  1  0
 10 11  1  0
 12 11  2  0
 12 17  1  0
 13 12  1  0
 14  9  1  0
 14 13  2  0
 15 13  1  0
 15 16  1  0
 16 17  1  0
 19 20  1  0
 19 22  1  0
 19 18  1  0
 21 19  1  0
 23 24  1  0
 23  2  1  0
 24 25  2  0
 25 33  1  0
 26 25  1  0
 26 27  1  0
 27 28  2  0
 29 27  1  0
 30 31  1  0
 30 29  1  0
 30 26  1  0
 31 32  1  0
 32 24  1  0
 33 34  2  0
 33 35  1  0
  7 36  1  0
  7 37  1  0
  9 38  1  0
 11 39  1  0
 14 40  1  0
 16 41  1  0
 16 42  1  0
 23 43  1  0
 23 44  1  0
 29 45  1  0
 29 46  1  0
 30 47  1  1
 32 48  1  0
 32 49  1  0
 35 50  1  0
M  ISO  8  38  14  39  14  40  14  41  13  42  13  43   8  44   8  45  13
M  ISO  5  46  13  47  13  48  13  49  13  50   3
M  END
>  <minimizedAffinity>  (1) 
-5.5414753

>  <minimizedRMSD>  (1) 
0.996356905

$$$$
