
     RDKit          3D

 45 48  0  0  1  0  0  0  0  0999 V2000
   46.9820   30.7400   47.7090 C   0  0  0  0  0  0  0  0  0  0  0  0
   47.6060   29.7650   46.9440 C   0  0  0  0  0  0  0  0  0  0  0  0
   48.9050   29.4610   47.1870 C   0  0  0  0  0  0  0  0  0  0  0  0
   49.5980   30.0710   48.1360 N   0  0  0  0  0  0  0  0  0  0  0  0
   49.0060   31.0160   48.8820 C   0  0  0  0  0  0  0  0  0  0  0  0
   47.7000   31.3650   48.6860 N   0  0  0  0  0  0  0  0  0  0  0  0
   45.6050   31.2730   47.6750 C   0  0  0  0  0  0  0  0  0  0  0  0
   45.6960   32.6750   47.6120 O   0  0  0  0  0  0  0  0  0  0  0  0
   44.8700   35.0740   45.1190 C   0  0  0  0  0  0  0  0  0  0  0  0
   45.6960   34.7290   44.0450 C   0  0  0  0  0  0  0  0  0  0  0  0
   46.5520   33.6320   44.2150 C   0  0  0  0  0  0  0  0  0  0  0  0
   46.5380   32.9710   45.3910 N   0  0  0  0  0  0  0  0  0  0  0  0
   45.7240   33.3420   46.3970 C   0  0  0  0  0  0  0  0  0  0  0  0
   44.8940   34.3820   46.2720 N   0  0  0  0  0  0  0  0  0  0  0  0
   45.6120   35.5450   42.7970 C   0  0  0  0  0  0  0  0  0  0  0  0
   45.3040   36.8160   43.2130 F   0  0  0  0  0  0  0  0  0  0  0  0
   44.5420   35.0170   42.0620 F   0  0  0  0  0  0  0  0  0  0  0  0
   46.7900   35.4570   42.1250 F   0  0  0  0  0  0  0  0  0  0  0  0
   49.8380   31.6800   49.9500 C   0  0  0  0  0  0  0  0  0  0  0  0
   50.7520   30.6800   50.5280 C   0  0  0  0  0  0  0  0  0  0  0  0
   52.0390   30.9650   50.6420 C   0  0  0  0  0  0  0  0  0  0  0  0
   52.9120   29.9980   51.2110 N   0  0  0  0  0  0  0  0  0  0  0  0
   54.1430   29.2820   51.0840 C   0  0  0  0  0  0  0  0  0  0  0  0
   55.2550   29.4660   50.4810 O   0  0  0  0  0  0  0  0  0  0  0  0
   53.5740   28.2110   51.9680 C   0  0  0  0  0  0  0  0  0  0  0  0
   52.6480   29.2950   52.4770 C   0  0  2  0  0  0  0  0  0  0  0  0
   50.8940   28.8890   52.5110 S   0  0  0  0  0  0  0  0  0  0  0  0
   50.1570   29.3880   50.9370 C   0  0  0  0  0  0  0  0  0  0  0  0
   52.5810   32.2370   50.2120 C   0  0  0  0  0  0  0  0  0  0  0  0
   53.8160   32.5690   50.2470 O   0  0  0  0  0  0  0  0  0  0  0  0
   52.7050   33.5090   49.7280 O   0  0  0  0  0  0  0  0  0  0  0  0
   47.0527   29.2441   46.1487 H   0  0  0  0  0  0  0  0  0  0  0  0
   49.3962   28.6868   46.5793 H   0  0  0  0  0  0  0  0  0  0  0  0
   45.0761   30.8908   46.7895 H   0  0  0  0  0  0  0  0  0  0  0  0
   45.0464   30.9608   48.5697 H   0  0  0  0  0  0  0  0  0  0  0  0
   44.1860   35.9296   45.0188 H   0  0  0  0  0  0  0  0  0  0  0  0
   47.2237   33.3155   43.4034 H   0  0  0  0  0  0  0  0  0  0  0  0
   50.4205   32.5016   49.5077 H   0  0  0  0  0  0  0  0  0  0  0  0
   49.1838   32.0871   50.7350 H   0  0  0  0  0  0  0  0  0  0  0  0
   53.0781   27.3837   51.4392 H   0  0  0  0  0  0  0  0  0  0  0  0
   54.1952   27.5950   52.6348 H   0  0  0  0  0  0  0  0  0  0  0  0
   52.8054   29.6941   53.4899 H   0  0  0  0  0  0  0  0  0  0  0  0
   49.0694   29.5016   51.0561 H   0  0  0  0  0  0  0  0  0  0  0  0
   50.3525   28.6237   50.1704 H   0  0  0  0  0  0  0  0  0  0  0  0
   51.9027   34.0040   49.4256 H   0  0  0  0  0  0  0  0  0  0  0  0
  1  6  2  0
  2  3  2  0
  2  1  1  0
  3  4  1  0
  4  5  2  0
  5 19  1  0
  6  5  1  0
  7  1  1  0
  8  7  1  0
  9 14  2  0
 10 11  2  0
 10  9  1  0
 11 12  1  0
 12 13  2  0
 13  8  1  0
 14 13  1  0
 15 16  1  0
 15 10  1  0
 17 15  1  0
 18 15  1  0
 19 20  1  0
 20 21  2  0
 20 28  1  0
 21 22  1  0
 22 26  1  0
 23 22  1  0
 23 25  1  0
 24 23  2  0
 26 25  1  0
 26 27  1  0
 28 27  1  0
 29 30  2  0
 29 21  1  0
 31 29  1  0
  2 32  1  0
  3 33  1  0
  7 34  1  0
  7 35  1  0
  9 36  1  0
 11 37  1  0
 19 38  1  0
 19 39  1  0
 25 40  1  0
 25 41  1  0
 26 42  1  1
 28 43  1  0
 28 44  1  0
 31 45  1  0
M  ISO  8  32  14  33  14  34   8  35   8  36  14  37  14  38   8  39   8
M  ISO  6  40  13  41  13  42  13  43  13  44  13  45   3
M  END
>  <minimizedAffinity>  (1) 
-6.17769384

>  <minimizedRMSD>  (1) 
0.707209468

$$$$
