
     RDKit          3D

 57 61  0  0  1  0  0  0  0  0999 V2000
   47.4220   31.0200   45.7620 O   0  0  0  0  0  0  0  0  0  0  0  0
   47.4260   32.9080   44.3780 C   0  0  2  0  0  0  0  0  0  0  0  0
   47.3640   33.3450   42.9580 C   0  0  1  0  0  0  0  0  0  0  0  0
   47.3390   32.1630   41.9900 C   0  0  0  0  0  0  0  0  0  0  0  0
   48.4590   31.4080   42.3340 O   0  0  0  0  0  0  0  0  0  0  0  0
   48.2820   30.7450   43.5290 C   0  0  0  0  0  0  0  0  0  0  0  0
   47.2780   31.3750   44.4400 C   0  0  1  0  0  0  0  0  0  0  0  0
   45.0040   36.1410   42.8430 C   0  0  0  0  0  0  0  0  0  0  0  0
   43.9960   35.7070   41.9470 C   0  0  0  0  0  0  0  0  0  0  0  0
   44.1760   34.4080   41.3920 C   0  0  0  0  0  0  0  0  0  0  0  0
   45.2670   33.6920   41.7460 N   0  0  0  0  0  0  0  0  0  0  0  0
   46.1920   34.1610   42.6040 C   0  0  0  0  0  0  0  0  0  0  0  0
   46.0560   35.3920   43.1530 N   0  0  0  0  0  0  0  0  0  0  0  0
   44.8320   37.3810   43.3740 O   0  0  0  0  0  0  0  0  0  0  0  0
   46.4410   33.4730   45.1880 O   0  0  0  0  0  0  0  0  0  0  0  0
   46.5530   28.4900   45.3930 F   0  0  0  0  0  0  0  0  0  0  0  0
   46.2430   29.2590   46.4530 C   0  0  0  0  0  0  0  0  0  0  0  0
   46.6370   30.5500   46.7180 C   0  0  0  0  0  0  0  0  0  0  0  0
   46.1490   31.0890   47.9030 C   0  0  0  0  0  0  0  0  0  0  0  0
   45.3290   30.4580   48.8010 C   0  0  0  0  0  0  0  0  0  0  0  0
   44.9750   29.1810   48.4800 C   0  0  0  0  0  0  0  0  0  0  0  0
   45.4120   28.5340   47.3060 C   0  0  0  0  0  0  0  0  0  0  0  0
   44.8800   27.1450   47.2810 C   0  0  0  0  0  0  0  0  0  0  0  0
   45.7400   26.1350   47.9160 C   0  0  0  0  0  0  0  0  0  0  0  0
   45.3690   25.6250   49.0850 C   0  0  0  0  0  0  0  0  0  0  0  0
   46.1860   24.6630   49.7470 N   0  0  0  0  0  0  0  0  0  0  0  0
   46.3170   23.6630   50.6930 C   0  0  0  0  0  0  0  0  0  0  0  0
   45.7120   23.1770   51.6620 O   0  0  0  0  0  0  0  0  0  0  0  0
   47.6130   23.2160   50.1760 C   0  0  0  0  0  0  0  0  0  0  0  0
   47.5700   24.4950   49.4250 C   0  0  1  0  0  0  0  0  0  0  0  0
   47.7410   24.3460   47.6330 S   0  0  0  0  0  0  0  0  0  0  0  0
   46.9090   25.8530   47.0990 C   0  0  0  0  0  0  0  0  0  0  0  0
   44.1330   25.9910   49.8280 C   0  0  0  0  0  0  0  0  0  0  0  0
   42.8960   25.8320   49.6890 O   0  0  0  0  0  0  0  0  0  0  0  0
   44.1370   26.6950   51.0080 O   0  0  0  0  0  0  0  0  0  0  0  0
   48.3985   33.2487   44.7629 H   0  0  0  0  0  0  0  0  0  0  0  0
   48.2765   33.9518   42.8624 H   0  0  0  0  0  0  0  0  0  0  0  0
   47.4093   32.5112   40.9489 H   0  0  0  0  0  0  0  0  0  0  0  0
   46.4062   31.5842   42.0598 H   0  0  0  0  0  0  0  0  0  0  0  0
   47.9509   29.7195   43.3081 H   0  0  0  0  0  0  0  0  0  0  0  0
   49.2481   30.7790   44.0538 H   0  0  0  0  0  0  0  0  0  0  0  0
   46.2971   31.0205   44.0904 H   0  0  0  0  0  0  0  0  0  0  0  0
   43.1282   36.3345   41.6957 H   0  0  0  0  0  0  0  0  0  0  0  0
   43.4399   33.9940   40.6872 H   0  0  0  0  0  0  0  0  0  0  0  0
   44.0390   37.9197   43.1268 H   0  0  0  0  0  0  0  0  0  0  0  0
   46.6781   33.3370   46.1395 H   0  0  0  0  0  0  0  0  0  0  0  0
   46.4498   32.1197   48.1422 H   0  0  0  0  0  0  0  0  0  0  0  0
   44.9791   30.9494   49.7208 H   0  0  0  0  0  0  0  0  0  0  0  0
   44.3180   28.6300   49.1690 H   0  0  0  0  0  0  0  0  0  0  0  0
   43.9105   27.1422   47.8008 H   0  0  0  0  0  0  0  0  0  0  0  0
   44.8097   26.8634   46.2200 H   0  0  0  0  0  0  0  0  0  0  0  0
   48.4168   23.1323   50.9223 H   0  0  0  0  0  0  0  0  0  0  0  0
   47.7772   22.2360   49.7042 H   0  0  0  0  0  0  0  0  0  0  0  0
   48.3370   25.2470   49.6622 H   0  0  0  0  0  0  0  0  0  0  0  0
   47.6114   26.6959   47.1773 H   0  0  0  0  0  0  0  0  0  0  0  0
   46.5778   25.7142   46.0593 H   0  0  0  0  0  0  0  0  0  0  0  0
   43.2823   26.9105   51.4587 H   0  0  0  0  0  0  0  0  0  0  0  0
  1 18  1  0
  2  7  1  0
  2 15  1  0
  3  2  1  0
  4  5  1  0
  4  3  1  0
  5  6  1  0
  6  7  1  0
  7  1  1  0
  8 13  2  0
  8 14  1  0
  9  8  1  0
 10 11  1  0
 10  9  2  0
 11 12  2  0
 12  3  1  0
 12 13  1  0
 16 17  1  0
 17 18  2  0
 17 22  1  0
 18 19  1  0
 19 20  2  0
 21 20  1  0
 22 21  2  0
 23 22  1  0
 23 24  1  0
 24 25  2  0
 25 26  1  0
 25 33  1  0
 26 27  1  0
 27 28  2  0
 29 27  1  0
 30 31  1  0
 30 26  1  0
 30 29  1  0
 32 31  1  0
 32 24  1  0
 33 35  1  0
 34 33  2  0
  2 36  1  1
  3 37  1  6
  4 38  1  0
  4 39  1  0
  6 40  1  0
  6 41  1  0
  7 42  1  6
  9 43  1  0
 10 44  1  0
 14 45  1  0
 15 46  1  0
 19 47  1  0
 20 48  1  0
 21 49  1  0
 23 50  1  0
 23 51  1  0
 29 52  1  0
 29 53  1  0
 30 54  1  1
 32 55  1  0
 32 56  1  0
 35 57  1  0
M  ISO  8  36  13  37  13  38  13  39  13  40  13  41  13  42  13  43  14
M  ISO  8  44  14  45   3  46   3  47  14  48  14  49  14  50   8  51   8
M  ISO  6  52  13  53  13  54  13  55  13  56  13  57   3
M  END
>  <minimizedAffinity>  (1) 
-6.65940809

>  <minimizedRMSD>  (1) 
1.37974489

$$$$
