
     RDKit          3D

 54 58  0  0  1  0  0  0  0  0999 V2000
   48.8000   30.3170   39.8070 C   0  0  0  0  0  0  0  0  0  0  0  0
   49.4390   31.4850   39.8540 C   0  0  0  0  0  0  0  0  0  0  0  0
   48.7120   32.6930   39.9940 N   0  0  0  0  0  0  0  0  0  0  0  0
   48.6060   34.0000   40.5220 C   0  0  0  0  0  0  0  0  0  0  0  0
   49.3670   34.7750   41.1780 O   0  0  0  0  0  0  0  0  0  0  0  0
   47.2480   34.2260   40.0560 C   0  0  1  0  0  0  0  0  0  0  0  0
   47.4190   32.8890   39.3710 C   0  0  2  0  0  0  0  0  0  0  0  0
   46.3440   31.5680   39.9390 S   0  0  0  0  0  0  0  0  0  0  0  0
   47.3300   30.0730   39.8900 C   0  0  0  0  0  0  0  0  0  0  0  0
   46.2700   34.2960   41.1310 C   0  0  0  0  0  0  0  0  0  0  0  0
   45.0450   34.0930   41.1880 O   0  0  0  0  0  0  0  0  0  0  0  0
   46.8460   34.6800   42.3990 N   0  0  0  0  0  0  0  0  0  0  0  0
   44.4340   35.9850   44.8990 C   0  0  0  0  0  0  0  0  0  0  0  0
   45.1830   35.8760   43.7280 C   0  0  0  0  0  0  0  0  0  0  0  0
   46.0490   34.8160   43.5630 C   0  0  0  0  0  0  0  0  0  0  0  0
   46.1480   33.9070   44.5460 N   0  0  0  0  0  0  0  0  0  0  0  0
   45.4120   34.0170   45.6920 C   0  0  0  0  0  0  0  0  0  0  0  0
   44.5710   35.0520   45.8470 N   0  0  0  0  0  0  0  0  0  0  0  0
   49.6700   29.1270   39.6530 C   0  0  0  0  0  0  0  0  0  0  0  0
   50.8850   31.5600   39.7600 C   0  0  0  0  0  0  0  0  0  0  0  0
   51.5030   31.6660   38.6790 O   0  0  0  0  0  0  0  0  0  0  0  0
   51.8920   31.5400   40.7080 O   0  0  0  0  0  0  0  0  0  0  0  0
   53.1470   30.9220   40.4720 C   0  0  0  0  0  0  0  0  0  0  0  0
   52.9820   29.4830   40.7710 C   0  0  0  0  0  0  0  0  0  0  0  0
   52.5450   28.9830   41.8910 C   0  0  0  0  0  0  0  0  0  0  0  0
   52.4540   27.5890   42.0120 N   0  0  0  0  0  0  0  0  0  0  0  0
   51.7440   26.4530   42.5490 C   0  0  0  0  0  0  0  0  0  0  0  0
   50.8280   26.2640   43.4190 O   0  0  0  0  0  0  0  0  0  0  0  0
   52.4560   25.4840   41.7120 C   0  0  0  0  0  0  0  0  0  0  0  0
   53.3720   26.6420   41.4240 C   0  0  1  0  0  0  0  0  0  0  0  0
   53.3650   26.9990   39.6310 S   0  0  0  0  0  0  0  0  0  0  0  0
   53.4150   28.7830   39.5540 C   0  0  0  0  0  0  0  0  0  0  0  0
   52.1500   29.8060   43.0290 C   0  0  0  0  0  0  0  0  0  0  0  0
   52.6590   30.2140   44.1010 O   0  0  0  0  0  0  0  0  0  0  0  0
   50.9140   30.3970   43.1610 O   0  0  0  0  0  0  0  0  0  0  0  0
   46.9100   35.1191   39.5099 H   0  0  0  0  0  0  0  0  0  0  0  0
   47.2551   32.8770   38.2833 H   0  0  0  0  0  0  0  0  0  0  0  0
   47.0265   29.4873   39.0097 H   0  0  0  0  0  0  0  0  0  0  0  0
   47.1488   29.5415   40.8359 H   0  0  0  0  0  0  0  0  0  0  0  0
   47.8586   34.8590   42.4584 H   0  0  0  0  0  0  0  0  0  0  0  0
   43.7402   36.8267   45.0410 H   0  0  0  0  0  0  0  0  0  0  0  0
   45.0831   36.6343   42.9374 H   0  0  0  0  0  0  0  0  0  0  0  0
   45.5082   33.2604   46.4846 H   0  0  0  0  0  0  0  0  0  0  0  0
   49.9488   28.7456   40.6464 H   0  0  0  0  0  0  0  0  0  0  0  0
   49.1284   28.3460   39.0992 H   0  0  0  0  0  0  0  0  0  0  0  0
   50.5785   29.4062   39.0992 H   0  0  0  0  0  0  0  0  0  0  0  0
   53.4438   31.0582   39.4216 H   0  0  0  0  0  0  0  0  0  0  0  0
   53.9295   31.3675   41.1038 H   0  0  0  0  0  0  0  0  0  0  0  0
   52.9149   24.6421   42.2511 H   0  0  0  0  0  0  0  0  0  0  0  0
   51.9696   24.8844   40.9285 H   0  0  0  0  0  0  0  0  0  0  0  0
   54.4218   26.5737   41.7453 H   0  0  0  0  0  0  0  0  0  0  0  0
   54.4515   29.0837   39.3412 H   0  0  0  0  0  0  0  0  0  0  0  0
   52.6988   29.0707   38.7703 H   0  0  0  0  0  0  0  0  0  0  0  0
   50.7099   30.9445   43.9602 H   0  0  0  0  0  0  0  0  0  0  0  0
  1  2  2  0
  1  9  1  0
  2  3  1  0
  3  4  1  0
  4  5  2  0
  6  4  1  0
  6 10  1  0
  7  8  1  0
  7  3  1  0
  7  6  1  0
  9  8  1  0
 10 11  2  0
 10 12  1  0
 12 15  1  0
 13 18  2  0
 14 13  1  0
 15 14  2  0
 15 16  1  0
 16 17  2  0
 17 18  1  0
 19  1  1  0
 20  2  1  0
 20 22  1  0
 21 20  2  0
 23 22  1  0
 23 24  1  0
 24 25  2  0
 25 26  1  0
 25 33  1  0
 26 27  1  0
 27 28  2  0
 29 27  1  0
 30 31  1  0
 30 29  1  0
 30 26  1  0
 32 31  1  0
 32 24  1  0
 33 35  1  0
 33 34  2  0
  6 36  1  6
  7 37  1  6
  9 38  1  0
  9 39  1  0
 12 40  1  0
 13 41  1  0
 14 42  1  0
 17 43  1  0
 19 44  1  0
 19 45  1  0
 19 46  1  0
 23 47  1  0
 23 48  1  0
 29 49  1  0
 29 50  1  0
 30 51  1  1
 32 52  1  0
 32 53  1  0
 35 54  1  0
M  ISO  8  36  13  37  13  38  13  39  13  41  14  42  14  43  14  44   8
M  ISO  8  45   8  46   8  47   8  48   8  49  13  50  13  51  13  52  13
M  ISO  2  53  13  54   3
M  END
>  <minimizedAffinity>  (1) 
-4.50372744

>  <minimizedRMSD>  (1) 
2.26092958

$$$$
