
     RDKit          3D

 44 48  0  0  1  0  0  0  0  0999 V2000
   47.3920   33.5120   39.2220 C   0  0  0  0  0  0  0  0  0  0  0  0
   48.6500   32.9630   39.4650 C   0  0  0  0  0  0  0  0  0  0  0  0
   49.1500   32.9710   40.7830 C   0  0  0  0  0  0  0  0  0  0  0  0
   48.3460   33.5280   41.7440 N   0  0  0  0  0  0  0  0  0  0  0  0
   47.1340   34.0460   41.4590 C   0  0  0  0  0  0  0  0  0  0  0  0
   46.6580   34.0410   40.2130 N   0  0  0  0  0  0  0  0  0  0  0  0
   46.3720   34.6030   42.5300 N   0  0  0  0  0  0  0  0  0  0  0  0
   45.6890   35.7680   42.5100 C   0  0  0  0  0  0  0  0  0  0  0  0
   45.0980   35.9420   43.7200 N   0  0  0  0  0  0  0  0  0  0  0  0
   45.4250   34.8880   44.4570 C   0  0  0  0  0  0  0  0  0  0  0  0
   45.1380   34.4930   45.7490 C   0  0  0  0  0  0  0  0  0  0  0  0
   45.5980   33.3580   46.2760 N   0  0  0  0  0  0  0  0  0  0  0  0
   46.3780   32.5220   45.5720 C   0  0  0  0  0  0  0  0  0  0  0  0
   46.6650   32.8910   44.3180 N   0  0  0  0  0  0  0  0  0  0  0  0
   46.2280   34.0200   43.7420 C   0  0  0  0  0  0  0  0  0  0  0  0
   44.3280   35.2750   46.6090 N   0  0  0  0  0  0  0  0  0  0  0  0
   46.8460   33.4510   37.4980 S   0  0  0  0  0  0  0  0  0  0  0  0
   46.7530   31.7320   36.9350 C   0  0  0  0  0  0  0  0  0  0  0  0
   47.6960   31.5020   35.8280 C   0  0  0  0  0  0  0  0  0  0  0  0
   47.3890   31.6860   34.5830 C   0  0  0  0  0  0  0  0  0  0  0  0
   48.3070   31.4620   33.5330 N   0  0  0  0  0  0  0  0  0  0  0  0
   48.5890   31.0120   32.2180 C   0  0  0  0  0  0  0  0  0  0  0  0
   47.8740   30.6840   31.2120 O   0  0  0  0  0  0  0  0  0  0  0  0
   50.0570   31.0590   32.4280 C   0  0  0  0  0  0  0  0  0  0  0  0
   49.7110   31.7930   33.6830 C   0  0  2  0  0  0  0  0  0  0  0  0
   50.2810   30.8410   35.1390 S   0  0  0  0  0  0  0  0  0  0  0  0
   48.9770   31.0500   36.3590 C   0  0  0  0  0  0  0  0  0  0  0  0
   46.0480   32.1440   34.2370 C   0  0  0  0  0  0  0  0  0  0  0  0
   45.0870   31.3810   33.9100 O   0  0  0  0  0  0  0  0  0  0  0  0
   44.8850   32.8280   33.9590 O   0  0  0  0  0  0  0  0  0  0  0  0
   49.2414   32.5317   38.6439 H   0  0  0  0  0  0  0  0  0  0  0  0
   50.1366   32.5511   41.0285 H   0  0  0  0  0  0  0  0  0  0  0  0
   45.6227   36.4595   41.6571 H   0  0  0  0  0  0  0  0  0  0  0  0
   46.7603   31.5848   46.0026 H   0  0  0  0  0  0  0  0  0  0  0  0
   44.1329   34.9520   47.5674 H   0  0  0  0  0  0  0  0  0  0  0  0
   43.9342   36.1665   46.2758 H   0  0  0  0  0  0  0  0  0  0  0  0
   47.0053   31.0629   37.7708 H   0  0  0  0  0  0  0  0  0  0  0  0
   45.7316   31.5274   36.5816 H   0  0  0  0  0  0  0  0  0  0  0  0
   50.5423   30.0826   32.5733 H   0  0  0  0  0  0  0  0  0  0  0  0
   50.7618   31.4460   31.6774 H   0  0  0  0  0  0  0  0  0  0  0  0
   50.0657   32.8269   33.8063 H   0  0  0  0  0  0  0  0  0  0  0  0
   49.3185   31.7890   37.0988 H   0  0  0  0  0  0  0  0  0  0  0  0
   48.7956   30.0524   36.7856 H   0  0  0  0  0  0  0  0  0  0  0  0
   44.0715   32.3323   33.6896 H   0  0  0  0  0  0  0  0  0  0  0  0
  1  2  2  0
  1  6  1  0
  2  3  1  0
  3  4  2  0
  5  4  1  0
  5  7  1  0
  6  5  2  0
  7 15  1  0
  8  7  1  0
  8  9  2  0
  9 10  1  0
 10 11  2  0
 11 12  1  0
 11 16  1  0
 13 12  2  0
 14 13  1  0
 15 14  2  0
 15 10  1  0
 17  1  1  0
 18 17  1  0
 19 27  1  0
 19 18  1  0
 20 19  2  0
 21 25  1  0
 21 20  1  0
 22 24  1  0
 22 21  1  0
 23 22  2  0
 25 24  1  0
 25 26  1  0
 26 27  1  0
 28 20  1  0
 29 28  2  0
 30 28  1  0
  2 31  1  0
  3 32  1  0
  8 33  1  0
 13 34  1  0
 16 35  1  0
 16 36  1  0
 18 37  1  0
 18 38  1  0
 24 39  1  0
 24 40  1  0
 25 41  1  6
 27 42  1  0
 27 43  1  0
 30 44  1  0
M  ISO  8  31  14  32  14  33  14  34  14  37   8  38   8  39  13  40  13
M  ISO  4  41  13  42  13  43  13  44   3
M  END
>  <minimizedAffinity>  (1) 
-7.48040342

>  <minimizedRMSD>  (1) 
2.65627742

$$$$
