
     RDKit          3D

 44 46  0  0  0  0  0  0  0  0999 V2000
   46.4360   32.9730   46.4980 C   0  0  0  0  0  0  0  0  0  0  0  0
   44.5090   35.6820   44.7800 C   0  0  0  0  0  0  0  0  0  0  0  0
   45.1090   35.6460   43.5100 C   0  0  0  0  0  0  0  0  0  0  0  0
   46.1180   34.7140   43.3200 C   0  0  0  0  0  0  0  0  0  0  0  0
   46.4790   33.8840   44.3630 N   0  0  0  0  0  0  0  0  0  0  0  0
   45.8690   33.9660   45.5500 C   0  0  0  0  0  0  0  0  0  0  0  0
   44.8720   34.8660   45.7880 N   0  0  0  0  0  0  0  0  0  0  0  0
   46.7470   34.6540   42.0380 N   0  0  0  0  0  0  0  0  0  0  0  0
   47.9440   35.2370   41.8830 C   0  0  0  0  0  0  0  0  0  0  0  0
   48.5650   35.1870   40.6490 C   0  0  0  0  0  0  0  0  0  0  0  0
   47.9230   34.5410   39.6380 C   0  0  0  0  0  0  0  0  0  0  0  0
   48.5010   34.4980   38.4970 O   0  0  0  0  0  0  0  0  0  0  0  0
   46.7170   33.9470   39.7680 N   0  0  0  0  0  0  0  0  0  0  0  0
   46.1720   34.0340   40.9960 C   0  0  0  0  0  0  0  0  0  0  0  0
   45.0500   33.5150   41.2330 O   0  0  0  0  0  0  0  0  0  0  0  0
   45.4280   32.5940   47.5540 C   0  0  0  0  0  0  0  0  0  0  0  0
   45.4770   30.1540   47.8470 C   0  0  0  0  0  0  0  0  0  0  0  0
   46.4160   30.3780   48.6580 O   0  0  0  0  0  0  0  0  0  0  0  0
   44.9020   31.2730   47.2400 N   0  0  0  0  0  0  0  0  0  0  0  0
   45.0160   28.7690   47.5620 C   0  0  0  0  0  0  0  0  0  0  0  0
   44.1740   28.6990   46.3050 C   0  0  0  0  0  0  0  0  0  0  0  0
   43.6240   27.2810   46.2330 C   0  0  0  0  0  0  0  0  0  0  0  0
   44.7490   26.4560   46.0200 O   0  0  0  0  0  0  0  0  0  0  0  0
   45.5380   26.4380   47.1500 C   0  0  0  0  0  0  0  0  0  0  0  0
   46.1450   27.7800   47.4660 C   0  0  0  0  0  0  0  0  0  0  0  0
   47.3215   33.4067   46.9857 H   0  0  0  0  0  0  0  0  0  0  0  0
   46.7092   32.0684   45.9348 H   0  0  0  0  0  0  0  0  0  0  0  0
   43.7050   36.4110   44.9594 H   0  0  0  0  0  0  0  0  0  0  0  0
   44.7932   36.3252   42.7044 H   0  0  0  0  0  0  0  0  0  0  0  0
   48.4267   35.7494   42.7282 H   0  0  0  0  0  0  0  0  0  0  0  0
   49.5476   35.6549   40.4893 H   0  0  0  0  0  0  0  0  0  0  0  0
   46.2499   33.4643   38.9872 H   0  0  0  0  0  0  0  0  0  0  0  0
   45.9141   32.5746   48.5406 H   0  0  0  0  0  0  0  0  0  0  0  0
   44.6102   33.3294   47.5746 H   0  0  0  0  0  0  0  0  0  0  0  0
   44.1181   31.1654   46.5806 H   0  0  0  0  0  0  0  0  0  0  0  0
   44.3951   28.4892   48.4258 H   0  0  0  0  0  0  0  0  0  0  0  0
   43.3490   29.4245   46.3591 H   0  0  0  0  0  0  0  0  0  0  0  0
   44.7698   28.9409   45.4125 H   0  0  0  0  0  0  0  0  0  0  0  0
   43.1229   27.0137   47.1751 H   0  0  0  0  0  0  0  0  0  0  0  0
   42.8771   27.1708   45.4330 H   0  0  0  0  0  0  0  0  0  0  0  0
   44.9201   26.1230   48.0038 H   0  0  0  0  0  0  0  0  0  0  0  0
   46.3660   25.7387   46.9619 H   0  0  0  0  0  0  0  0  0  0  0  0
   46.6865   27.7326   48.4223 H   0  0  0  0  0  0  0  0  0  0  0  0
   46.8593   28.0785   46.6846 H   0  0  0  0  0  0  0  0  0  0  0  0
  1 16  1  0
  2  7  2  0
  3  2  1  0
  4  3  2  0
  4  5  1  0
  5  6  2  0
  6  7  1  0
  6  1  1  0
  8  4  1  0
  9  8  1  0
 10  9  2  0
 11 13  1  0
 11 10  1  0
 12 11  2  0
 13 14  1  0
 14 15  2  0
 14  8  1  0
 17 18  2  0
 19 16  1  0
 19 17  1  0
 20 17  1  0
 21 20  1  0
 22 21  1  0
 23 22  1  0
 23 24  1  0
 24 25  1  0
 25 20  1  0
  1 26  1  0
  1 27  1  0
  2 28  1  0
  3 29  1  0
  9 30  1  0
 10 31  1  0
 13 32  1  0
 16 33  1  0
 16 34  1  0
 19 35  1  0
 20 36  1  0
 21 37  1  0
 21 38  1  0
 22 39  1  0
 22 40  1  0
 24 41  1  0
 24 42  1  0
 25 43  1  0
 25 44  1  0
M  ISO  8  26   8  27   8  28  14  29  14  30  14  31  14  32   9  33   8
M  ISO  8  34   8  36  13  37  13  38  13  39  13  40  13  41  13  42  13
M  ISO  2  43  13  44  13
M  END
>  <minimizedAffinity>  (1) 
-6.41328382

>  <minimizedRMSD>  (1) 
1.20818877

$$$$
