
     RDKit          3D

 46 48  0  0  0  0  0  0  0  0999 V2000
   47.3350   32.3190   47.8100 C   0  0  0  0  0  0  0  0  0  0  0  0
   47.1770   31.3460   46.7750 C   0  0  0  0  0  0  0  0  0  0  0  0
   47.8570   30.1340   46.9060 C   0  0  0  0  0  0  0  0  0  0  0  0
   48.6340   29.9510   48.0190 N   0  0  0  0  0  0  0  0  0  0  0  0
   48.7490   30.8810   48.9510 C   0  0  0  0  0  0  0  0  0  0  0  0
   48.1210   32.0480   48.8680 N   0  0  0  0  0  0  0  0  0  0  0  0
   46.3200   31.6450   45.6230 C   0  0  0  0  0  0  0  0  0  0  0  0
   47.0410   32.6590   44.7710 C   0  0  0  0  0  0  0  0  0  0  0  0
   46.5380   34.5190   43.2450 C   0  0  0  0  0  0  0  0  0  0  0  0
   46.2790   33.8580   44.4320 C   0  0  0  0  0  0  0  0  0  0  0  0
   45.3290   34.2700   45.3160 C   0  0  0  0  0  0  0  0  0  0  0  0
   44.5860   35.3960   45.0240 C   0  0  0  0  0  0  0  0  0  0  0  0
   44.7840   36.1050   43.8700 C   0  0  0  0  0  0  0  0  0  0  0  0
   45.7720   35.6290   43.0070 C   0  0  0  0  0  0  0  0  0  0  0  0
   47.7480   34.0240   42.0920 S   0  0  0  0  0  0  0  0  0  0  0  0
   49.1240   34.5900   42.4200 O   0  0  0  0  0  0  0  0  0  0  0  0
   47.4130   34.6410   40.7440 O   0  0  0  0  0  0  0  0  0  0  0  0
   49.6010   30.5800   50.1560 C   0  0  0  0  0  0  0  0  0  0  0  0
   50.5830   31.6980   50.4350 C   0  0  0  0  0  0  0  0  0  0  0  0
   51.1080   31.7360   51.8190 C   0  0  0  0  0  0  0  0  0  0  0  0
   52.5690   31.9590   51.9540 C   0  0  0  0  0  0  0  0  0  0  0  0
   52.9790   32.8070   50.9220 O   0  0  0  0  0  0  0  0  0  0  0  0
   53.0210   31.9560   49.8000 C   0  0  0  0  0  0  0  0  0  0  0  0
   51.6130   31.7300   49.3490 C   0  0  0  0  0  0  0  0  0  0  0  0
   46.8157   33.2863   47.7419 H   0  0  0  0  0  0  0  0  0  0  0  0
   47.7715   29.3501   46.1391 H   0  0  0  0  0  0  0  0  0  0  0  0
   46.1381   30.7285   45.0426 H   0  0  0  0  0  0  0  0  0  0  0  0
   45.3487   32.0398   45.9556 H   0  0  0  0  0  0  0  0  0  0  0  0
   47.9444   32.9748   45.3133 H   0  0  0  0  0  0  0  0  0  0  0  0
   47.2476   32.1549   43.8154 H   0  0  0  0  0  0  0  0  0  0  0  0
   45.1561   33.7137   46.2491 H   0  0  0  0  0  0  0  0  0  0  0  0
   43.8168   35.7314   45.7353 H   0  0  0  0  0  0  0  0  0  0  0  0
   44.1947   37.0036   43.6350 H   0  0  0  0  0  0  0  0  0  0  0  0
   45.9473   36.1826   42.0728 H   0  0  0  0  0  0  0  0  0  0  0  0
   47.7628   32.6541   42.1051 H   0  0  0  0  0  0  0  0  0  0  0  0
   48.9483   30.4508   51.0319 H   0  0  0  0  0  0  0  0  0  0  0  0
   50.1720   29.6618   49.9541 H   0  0  0  0  0  0  0  0  0  0  0  0
   50.0387   32.6533   50.4005 H   0  0  0  0  0  0  0  0  0  0  0  0
   50.5927   32.5484   52.3524 H   0  0  0  0  0  0  0  0  0  0  0  0
   50.9208   30.7351   52.2351 H   0  0  0  0  0  0  0  0  0  0  0  0
   52.7862   32.4244   52.9267 H   0  0  0  0  0  0  0  0  0  0  0  0
   53.1064   31.0011   51.8944 H   0  0  0  0  0  0  0  0  0  0  0  0
   53.6018   32.4274   48.9935 H   0  0  0  0  0  0  0  0  0  0  0  0
   53.5013   31.0007   50.0583 H   0  0  0  0  0  0  0  0  0  0  0  0
   51.3464   32.5394   48.6535 H   0  0  0  0  0  0  0  0  0  0  0  0
   51.6002   30.7292   48.8927 H   0  0  0  0  0  0  0  0  0  0  0  0
  1  6  2  0
  2  3  2  0
  2  1  1  0
  3  4  1  0
  4  5  2  0
  5 18  1  0
  6  5  1  0
  7  2  1  0
  8  7  1  0
  9 10  2  0
 10  8  1  0
 10 11  1  0
 12 11  2  0
 13 12  1  0
 14  9  1  0
 14 13  2  0
 15 16  2  0
 15  9  1  0
 17 15  2  0
 18 19  1  0
 19 20  1  0
 20 21  1  0
 22 21  1  0
 23 22  1  0
 24 23  1  0
 24 19  1  0
  1 25  1  0
  3 26  1  0
  7 27  1  0
  7 28  1  0
  8 29  1  0
  8 30  1  0
 11 31  1  0
 12 32  1  0
 13 33  1  0
 14 34  1  0
 15 35  1  0
 18 36  1  0
 18 37  1  0
 19 38  1  0
 20 39  1  0
 20 40  1  0
 21 41  1  0
 21 42  1  0
 23 43  1  0
 23 44  1  0
 24 45  1  0
 24 46  1  0
M  ISO  8  25  14  26  14  27   8  28   8  29   8  30   8  31  14  32  14
M  ISO  8  33  14  34  14  35  11  36   8  37   8  38  13  39  13  40  13
M  ISO  6  41  13  42  13  43  13  44  13  45  13  46  13
M  END
>  <minimizedAffinity>  (1) 
-5.75106859

>  <minimizedRMSD>  (1) 
2.72175288

$$$$
