
     RDKit          3D

 33 34  0  0  0  0  0  0  0  0999 V2000
   48.1630   32.8970   41.6940 O   0  0  0  0  0  0  0  0  0  0  0  0
   47.2070   34.0050   41.2360 P   0  0  2  0  0  0  0  0  0  0  0  0
   45.6690   33.6990   41.9190 O   0  0  0  0  0  0  0  0  0  0  0  0
   44.4130   35.8610   44.6020 C   0  0  0  0  0  0  0  0  0  0  0  0
   44.6990   35.4090   43.2880 C   0  0  0  0  0  0  0  0  0  0  0  0
   45.3680   34.1810   43.1890 C   0  0  0  0  0  0  0  0  0  0  0  0
   45.7030   33.5000   44.3110 N   0  0  0  0  0  0  0  0  0  0  0  0
   45.4030   33.9810   45.5460 C   0  0  0  0  0  0  0  0  0  0  0  0
   44.7600   35.1580   45.6920 N   0  0  0  0  0  0  0  0  0  0  0  0
   47.0990   34.0860   39.5830 O   0  0  0  0  0  0  0  0  0  0  0  0
   47.7550   33.0210   39.0210 C   0  0  0  0  0  0  0  0  0  0  0  0
   46.8580   31.8900   38.6190 C   0  0  0  0  0  0  0  0  0  0  0  0
   47.7120   30.8020   38.0110 C   0  0  0  0  0  0  0  0  0  0  0  0
   48.6100   31.2420   37.0680 O   0  0  0  0  0  0  0  0  0  0  0  0
   49.4850   32.2130   37.5440 C   0  0  0  0  0  0  0  0  0  0  0  0
   48.5990   33.4360   37.8150 C   0  0  0  0  0  0  0  0  0  0  0  0
   47.7830   35.4520   41.9000 O   0  0  0  0  0  0  0  0  0  0  0  0
   49.0340   35.7910   41.4210 C   0  0  0  0  0  0  0  0  0  0  0  0
   49.4610   37.0410   41.8630 F   0  0  0  0  0  0  0  0  0  0  0  0
   49.9280   34.7960   41.7180 F   0  0  0  0  0  0  0  0  0  0  0  0
   48.9220   35.8880   40.0360 F   0  0  0  0  0  0  0  0  0  0  0  0
   43.8894   36.8196   44.7322 H   0  0  0  0  0  0  0  0  0  0  0  0
   44.4124   35.9887   42.3982 H   0  0  0  0  0  0  0  0  0  0  0  0
   45.6880   33.4035   46.4378 H   0  0  0  0  0  0  0  0  0  0  0  0
   48.4089   32.6559   39.8267 H   0  0  0  0  0  0  0  0  0  0  0  0
   46.3319   31.5000   39.5028 H   0  0  0  0  0  0  0  0  0  0  0  0
   46.1114   32.2383   37.8901 H   0  0  0  0  0  0  0  0  0  0  0  0
   48.2751   30.3146   38.8205 H   0  0  0  0  0  0  0  0  0  0  0  0
   47.0243   30.1176   37.4926 H   0  0  0  0  0  0  0  0  0  0  0  0
   49.9733   31.8749   38.4699 H   0  0  0  0  0  0  0  0  0  0  0  0
   50.2914   32.4333   36.8290 H   0  0  0  0  0  0  0  0  0  0  0  0
   49.2119   34.3182   38.0516 H   0  0  0  0  0  0  0  0  0  0  0  0
   47.9862   33.7161   36.9455 H   0  0  0  0  0  0  0  0  0  0  0  0
  2  1  2  0
  2 17  1  0
  2  3  1  0
  3  6  1  0
  4  9  2  0
  5  4  1  0
  6  5  2  0
  6  7  1  0
  7  8  2  0
  8  9  1  0
 10  2  1  0
 11 10  1  0
 12 11  1  0
 13 12  1  0
 14 15  1  0
 14 13  1  0
 15 16  1  0
 16 11  1  0
 18 20  1  0
 18 19  1  0
 18 17  1  0
 21 18  1  0
  4 22  1  0
  5 23  1  0
  8 24  1  0
 11 25  1  0
 12 26  1  0
 12 27  1  0
 13 28  1  0
 13 29  1  0
 15 30  1  0
 15 31  1  0
 16 32  1  0
 16 33  1  0
M  ISO  8  22  14  23  14  24  14  25  13  26  13  27  13  28  13  29  13
M  ISO  4  30  13  31  13  32  13  33  13
M  END
>  <minimizedAffinity>  (1) 
-5.06027079

>  <minimizedRMSD>  (1) 
2.53730631

$$$$
