
     RDKit          3D

 46 50  0  0  1  0  0  0  0  0999 V2000
   47.5320   33.9940   41.2930 C   0  0  1  0  0  0  0  0  0  0  0  0
   48.1200   35.2500   41.7110 C   0  0  0  0  0  0  0  0  0  0  0  0
   46.6270   35.0910   41.8340 C   0  0  2  0  0  0  0  0  0  0  0  0
   46.1060   34.8520   43.2100 C   0  0  0  0  0  0  0  0  0  0  0  0
   45.1120   35.5900   43.8140 C   0  0  0  0  0  0  0  0  0  0  0  0
   44.6620   35.3140   45.0860 C   0  0  0  0  0  0  0  0  0  0  0  0
   45.2120   34.2680   45.7930 C   0  0  0  0  0  0  0  0  0  0  0  0
   44.8050   33.9490   47.0510 N   0  0  0  0  0  0  0  0  0  0  0  0
   45.3480   32.9250   47.7300 C   0  0  0  0  0  0  0  0  0  0  0  0
   46.3650   32.1140   47.2010 C   0  0  0  0  0  0  0  0  0  0  0  0
   46.8090   32.4070   45.9190 C   0  0  0  0  0  0  0  0  0  0  0  0
   46.2260   33.4780   45.2420 C   0  0  0  0  0  0  0  0  0  0  0  0
   46.6350   33.8090   43.9580 C   0  0  0  0  0  0  0  0  0  0  0  0
   48.2070   34.3230   38.8940 C   0  0  0  0  0  0  0  0  0  0  0  0
   47.3980   33.6440   39.8550 C   0  0  0  0  0  0  0  0  0  0  0  0
   46.5200   32.6730   39.4150 C   0  0  0  0  0  0  0  0  0  0  0  0
   46.4850   32.4270   38.0690 N   0  0  0  0  0  0  0  0  0  0  0  0
   47.2470   33.0680   37.1680 C   0  0  0  0  0  0  0  0  0  0  0  0
   48.1060   34.0160   37.5900 N   0  0  0  0  0  0  0  0  0  0  0  0
   47.0350   32.6190   35.7680 C   0  0  0  0  0  0  0  0  0  0  0  0
   48.3170   32.4920   34.9830 C   0  0  0  0  0  0  0  0  0  0  0  0
   49.2840   31.6620   35.7870 C   0  0  0  0  0  0  0  0  0  0  0  0
   48.6480   30.5730   36.3600 O   0  0  0  0  0  0  0  0  0  0  0  0
   47.4900   30.2160   35.7170 C   0  0  0  0  0  0  0  0  0  0  0  0
   46.3940   31.2510   35.8100 C   0  0  0  0  0  0  0  0  0  0  0  0
   47.7484   32.9451   41.5439 H   0  0  0  0  0  0  0  0  0  0  0  0
   48.7404   35.2854   42.6186 H   0  0  0  0  0  0  0  0  0  0  0  0
   48.7744   35.9888   41.2253 H   0  0  0  0  0  0  0  0  0  0  0  0
   45.7429   35.6457   41.4865 H   0  0  0  0  0  0  0  0  0  0  0  0
   44.6624   36.4283   43.2616 H   0  0  0  0  0  0  0  0  0  0  0  0
   43.8665   35.9266   45.5354 H   0  0  0  0  0  0  0  0  0  0  0  0
   44.9800   32.7125   48.7446 H   0  0  0  0  0  0  0  0  0  0  0  0
   46.7921   31.2810   47.7787 H   0  0  0  0  0  0  0  0  0  0  0  0
   47.6024   31.8083   45.4478 H   0  0  0  0  0  0  0  0  0  0  0  0
   47.4324   33.2039   43.5019 H   0  0  0  0  0  0  0  0  0  0  0  0
   48.9143   35.0990   39.2221 H   0  0  0  0  0  0  0  0  0  0  0  0
   45.8766   32.1211   40.1160 H   0  0  0  0  0  0  0  0  0  0  0  0
   46.4090   33.3757   35.2725 H   0  0  0  0  0  0  0  0  0  0  0  0
   48.1161   32.0002   34.0198 H   0  0  0  0  0  0  0  0  0  0  0  0
   48.7426   33.4876   34.7887 H   0  0  0  0  0  0  0  0  0  0  0  0
   50.0860   31.3028   35.1253 H   0  0  0  0  0  0  0  0  0  0  0  0
   49.6983   32.2881   36.5909 H   0  0  0  0  0  0  0  0  0  0  0  0
   47.1212   29.2801   36.1621 H   0  0  0  0  0  0  0  0  0  0  0  0
   47.7373   30.1080   34.6506 H   0  0  0  0  0  0  0  0  0  0  0  0
   45.8427   31.1264   36.7537 H   0  0  0  0  0  0  0  0  0  0  0  0
   45.6885   31.1350   34.9741 H   0  0  0  0  0  0  0  0  0  0  0  0
  1  2  1  0
  1  3  1  0
  2  3  1  0
  3  4  1  0
  4  5  2  0
  4 13  1  0
  5  6  1  0
  6  7  2  0
  7  8  1  0
  8  9  2  0
 10  9  1  0
 11 10  2  0
 12  7  1  0
 12 11  1  0
 13 12  2  0
 14 15  2  0
 15  1  1  0
 16 15  1  0
 17 16  2  0
 18 19  2  0
 18 17  1  0
 19 14  1  0
 20 25  1  0
 20 18  1  0
 21 20  1  0
 21 22  1  0
 22 23  1  0
 24 25  1  0
 24 23  1  0
  1 26  1  1
  2 27  1  0
  2 28  1  0
  3 29  1  6
  5 30  1  0
  6 31  1  0
  9 32  1  0
 10 33  1  0
 11 34  1  0
 13 35  1  0
 14 36  1  0
 16 37  1  0
 20 38  1  0
 21 39  1  0
 21 40  1  0
 22 41  1  0
 22 42  1  0
 24 43  1  0
 24 44  1  0
 25 45  1  0
 25 46  1  0
M  ISO  8  26  13  27  13  28  13  29  13  30  14  31  14  32  14  33  14
M  ISO  8  34  14  35  14  36  14  37  14  38  13  39  13  40  13  41  13
M  ISO  5  42  13  43  13  44  13  45  13  46  13
M  END
>  <minimizedAffinity>  (1) 
-6.21620417

>  <minimizedRMSD>  (1) 
8.67219734

$$$$
