
     RDKit          3D

 31 33  0  0  0  0  0  0  0  0999 V2000
   44.9940   33.3110   43.3740 C   0  0  0  0  0  0  0  0  0  0  0  0
   45.6380   34.2370   42.5390 C   0  0  0  0  0  0  0  0  0  0  0  0
   46.9810   34.4550   42.7960 C   0  0  0  0  0  0  0  0  0  0  0  0
   47.5860   33.7650   43.8280 N   0  0  0  0  0  0  0  0  0  0  0  0
   46.9390   32.8870   44.6030 C   0  0  0  0  0  0  0  0  0  0  0  0
   45.6360   32.6780   44.3530 N   0  0  0  0  0  0  0  0  0  0  0  0
   44.8430   34.8910   41.4560 C   0  0  0  0  0  0  0  0  0  0  0  0
   43.6120   35.5450   41.9880 C   0  0  0  0  0  0  0  0  0  0  0  0
   42.3180   35.1350   41.3970 C   0  0  0  0  0  0  0  0  0  0  0  0
   42.4070   34.6550   40.0920 O   0  0  0  0  0  0  0  0  0  0  0  0
   43.1770   33.4770   40.2140 C   0  0  0  0  0  0  0  0  0  0  0  0
   44.5940   33.9300   40.3100 C   0  0  0  0  0  0  0  0  0  0  0  0
   47.7560   35.3810   41.8910 C   0  0  0  0  0  0  0  0  0  0  0  0
   49.2670   35.1550   42.0550 C   0  0  0  0  0  0  0  0  0  0  0  0
   48.4620   34.7730   40.7780 C   0  0  0  0  0  0  0  0  0  0  0  0
   43.9259   33.1020   43.2145 H   0  0  0  0  0  0  0  0  0  0  0  0
   47.4556   32.3554   45.4157 H   0  0  0  0  0  0  0  0  0  0  0  0
   45.4374   35.7142   41.0328 H   0  0  0  0  0  0  0  0  0  0  0  0
   43.5649   35.3336   43.0665 H   0  0  0  0  0  0  0  0  0  0  0  0
   43.7195   36.6076   41.7249 H   0  0  0  0  0  0  0  0  0  0  0  0
   41.8882   34.3420   42.0266 H   0  0  0  0  0  0  0  0  0  0  0  0
   41.6913   36.0381   41.3570 H   0  0  0  0  0  0  0  0  0  0  0  0
   42.8893   32.9227   41.1195 H   0  0  0  0  0  0  0  0  0  0  0  0
   43.0236   32.8012   39.3598 H   0  0  0  0  0  0  0  0  0  0  0  0
   45.2337   33.0463   40.4508 H   0  0  0  0  0  0  0  0  0  0  0  0
   44.8266   34.4678   39.3791 H   0  0  0  0  0  0  0  0  0  0  0  0
   47.0639   36.2349   41.9347 H   0  0  0  0  0  0  0  0  0  0  0  0
   49.9656   36.0046   42.0444 H   0  0  0  0  0  0  0  0  0  0  0  0
   49.9269   34.6408   42.7693 H   0  0  0  0  0  0  0  0  0  0  0  0
   48.2916   33.7135   40.5361 H   0  0  0  0  0  0  0  0  0  0  0  0
   48.5594   35.0071   39.7076 H   0  0  0  0  0  0  0  0  0  0  0  0
  1  6  2  0
  2  3  2  0
  2  1  1  0
  3  4  1  0
  4  5  2  0
  6  5  1  0
  7  8  1  0
  7  2  1  0
  9  8  1  0
 10 11  1  0
 10  9  1  0
 11 12  1  0
 12  7  1  0
 13 14  1  0
 13  3  1  0
 15 13  1  0
 15 14  1  0
  1 16  1  0
  5 17  1  0
  7 18  1  0
  8 19  1  0
  8 20  1  0
  9 21  1  0
  9 22  1  0
 11 23  1  0
 11 24  1  0
 12 25  1  0
 12 26  1  0
 13 27  1  0
 14 28  1  0
 14 29  1  0
 15 30  1  0
 15 31  1  0
M  ISO  8  16  14  17  14  18  13  19  13  20  13  21  13  22  13  23  13
M  ISO  8  24  13  25  13  26  13  27  13  28  13  29  13  30  13  31  13
M  END
>  <minimizedAffinity>  (1) 
-4.50379372

>  <minimizedRMSD>  (1) 
2.69645691

$$$$
