
     RDKit          3D

 31 33  0  0  0  0  0  0  0  0999 V2000
   45.9270   34.4450   42.7380 C   0  0  0  0  0  0  0  0  0  0  0  0
   47.2800   34.0310   42.8810 C   0  0  0  0  0  0  0  0  0  0  0  0
   47.6790   33.3960   44.0740 C   0  0  0  0  0  0  0  0  0  0  0  0
   46.7240   33.2130   45.0530 N   0  0  0  0  0  0  0  0  0  0  0  0
   45.4660   33.6230   44.8690 C   0  0  0  0  0  0  0  0  0  0  0  0
   45.0580   34.2360   43.7220 N   0  0  0  0  0  0  0  0  0  0  0  0
   45.2230   35.0600   41.5950 C   0  0  0  0  0  0  0  0  0  0  0  0
   43.9370   35.7220   41.9330 C   0  0  0  0  0  0  0  0  0  0  0  0
   42.6850   35.0470   41.5330 C   0  0  0  0  0  0  0  0  0  0  0  0
   42.7750   34.3170   40.3530 O   0  0  0  0  0  0  0  0  0  0  0  0
   43.7150   33.3080   40.6430 C   0  0  0  0  0  0  0  0  0  0  0  0
   45.0460   33.9670   40.5310 C   0  0  0  0  0  0  0  0  0  0  0  0
   48.3030   34.3290   41.8430 C   0  0  0  0  0  0  0  0  0  0  0  0
   48.7250   35.6430   41.5320 C   0  0  0  0  0  0  0  0  0  0  0  0
   49.6930   34.8260   42.3350 C   0  0  0  0  0  0  0  0  0  0  0  0
   48.7156   33.0580   44.2197 H   0  0  0  0  0  0  0  0  0  0  0  0
   44.7326   33.4600   45.6725 H   0  0  0  0  0  0  0  0  0  0  0  0
   45.8372   35.8914   41.2189 H   0  0  0  0  0  0  0  0  0  0  0  0
   43.9087   35.8436   43.0259 H   0  0  0  0  0  0  0  0  0  0  0  0
   43.9456   36.6546   41.3498 H   0  0  0  0  0  0  0  0  0  0  0  0
   42.3920   34.3599   42.3405 H   0  0  0  0  0  0  0  0  0  0  0  0
   41.9450   35.8409   41.3540 H   0  0  0  0  0  0  0  0  0  0  0  0
   43.5618   32.9196   41.6607 H   0  0  0  0  0  0  0  0  0  0  0  0
   43.6222   32.4520   39.9584 H   0  0  0  0  0  0  0  0  0  0  0  0
   45.8324   33.2092   40.6625 H   0  0  0  0  0  0  0  0  0  0  0  0
   45.1169   34.4361   39.5386 H   0  0  0  0  0  0  0  0  0  0  0  0
   47.9094   33.5104   41.2226 H   0  0  0  0  0  0  0  0  0  0  0  0
   48.9705   35.8959   40.4900 H   0  0  0  0  0  0  0  0  0  0  0  0
   48.2709   36.6332   41.6849 H   0  0  0  0  0  0  0  0  0  0  0  0
   49.8683   35.0455   43.3985 H   0  0  0  0  0  0  0  0  0  0  0  0
   50.7409   34.5032   42.2475 H   0  0  0  0  0  0  0  0  0  0  0  0
  1  2  1  0
  1  6  2  0
  2  3  2  0
  3  4  1  0
  5  4  2  0
  6  5  1  0
  7  8  1  0
  7  1  1  0
  9  8  1  0
 10 11  1  0
 10  9  1  0
 12 11  1  0
 12  7  1  0
 13 15  1  0
 13  2  1  0
 14 13  1  0
 14 15  1  0
  3 16  1  0
  5 17  1  0
  7 18  1  0
  8 19  1  0
  8 20  1  0
  9 21  1  0
  9 22  1  0
 11 23  1  0
 11 24  1  0
 12 25  1  0
 12 26  1  0
 13 27  1  0
 14 28  1  0
 14 29  1  0
 15 30  1  0
 15 31  1  0
M  ISO  8  16  14  17  14  18  13  19  13  20  13  21  13  22  13  23  13
M  ISO  8  24  13  25  13  26  13  27  13  28  13  29  13  30  13  31  13
M  END
>  <minimizedAffinity>  (1) 
-4.46832371

>  <minimizedRMSD>  (1) 
1.47679424

$$$$
