
     RDKit          3D

 41 44  0  0  1  0  0  0  0  0999 V2000
   47.4110   33.7720   39.7400 C   0  0  0  0  0  0  0  0  0  0  0  0
   48.3220   34.5790   39.0600 C   0  0  0  0  0  0  0  0  0  0  0  0
   48.2010   34.3360   37.7000 C   0  0  0  0  0  0  0  0  0  0  0  0
   47.2150   33.3870   37.6260 C   0  0  0  0  0  0  0  0  0  0  0  0
   46.7620   33.0640   38.8180 O   0  0  0  0  0  0  0  0  0  0  0  0
   46.7180   32.8010   36.3680 C   0  0  2  0  0  0  0  0  0  0  0  0
   46.4190   31.3560   36.3050 C   0  0  0  0  0  0  0  0  0  0  0  0
   47.7070   31.8210   35.7040 C   0  0  1  0  0  0  0  0  0  0  0  0
   47.7650   31.9580   34.2120 C   0  0  0  0  0  0  0  0  0  0  0  0
   47.7810   30.5990   33.5610 C   0  0  0  0  0  0  0  0  0  0  0  0
   47.8550   30.7070   32.0510 C   0  0  0  0  0  0  0  0  0  0  0  0
   49.0210   31.4230   31.7720 O   0  0  0  0  0  0  0  0  0  0  0  0
   48.8070   32.7400   32.1730 C   0  0  0  0  0  0  0  0  0  0  0  0
   48.8400   32.8630   33.7020 C   0  0  0  0  0  0  0  0  0  0  0  0
   47.1380   33.6410   41.1180 O   0  0  0  0  0  0  0  0  0  0  0  0
   47.3150   34.7570   41.9710 C   0  0  0  0  0  0  0  0  0  0  0  0
   48.2150   35.5660   41.6480 O   0  0  0  0  0  0  0  0  0  0  0  0
   46.4420   34.8220   43.0960 C   0  0  0  0  0  0  0  0  0  0  0  0
   45.5570   35.8650   43.0840 C   0  0  0  0  0  0  0  0  0  0  0  0
   44.6700   35.9970   44.1520 C   0  0  0  0  0  0  0  0  0  0  0  0
   44.7330   35.0750   45.1530 N   0  0  0  0  0  0  0  0  0  0  0  0
   45.6120   34.0760   45.1190 C   0  0  0  0  0  0  0  0  0  0  0  0
   46.4560   33.9600   44.0950 N   0  0  0  0  0  0  0  0  0  0  0  0
   49.0206   35.2902   39.5249 H   0  0  0  0  0  0  0  0  0  0  0  0
   48.7640   34.7966   36.8748 H   0  0  0  0  0  0  0  0  0  0  0  0
   46.1459   33.6977   36.0876 H   0  0  0  0  0  0  0  0  0  0  0  0
   46.4353   30.7575   37.2278 H   0  0  0  0  0  0  0  0  0  0  0  0
   45.5691   30.7688   35.9270 H   0  0  0  0  0  0  0  0  0  0  0  0
   48.7591   31.5222   35.8210 H   0  0  0  0  0  0  0  0  0  0  0  0
   46.8413   32.4764   33.9154 H   0  0  0  0  0  0  0  0  0  0  0  0
   48.6565   30.0398   33.9226 H   0  0  0  0  0  0  0  0  0  0  0  0
   46.8480   30.0792   33.8244 H   0  0  0  0  0  0  0  0  0  0  0  0
   47.9041   29.7057   31.5983 H   0  0  0  0  0  0  0  0  0  0  0  0
   46.9666   31.2083   31.6393 H   0  0  0  0  0  0  0  0  0  0  0  0
   49.5932   33.3786   31.7440 H   0  0  0  0  0  0  0  0  0  0  0  0
   47.8154   33.0571   31.8178 H   0  0  0  0  0  0  0  0  0  0  0  0
   49.8202   32.5483   34.0896 H   0  0  0  0  0  0  0  0  0  0  0  0
   48.6791   33.9018   34.0260 H   0  0  0  0  0  0  0  0  0  0  0  0
   45.5452   36.5832   42.2509 H   0  0  0  0  0  0  0  0  0  0  0  0
   43.9416   36.8206   44.1852 H   0  0  0  0  0  0  0  0  0  0  0  0
   45.6415   33.3437   45.9393 H   0  0  0  0  0  0  0  0  0  0  0  0
  1 15  1  0
  2  1  2  0
  3  2  1  0
  4  3  2  0
  4  5  1  0
  5  1  1  0
  6  4  1  0
  7  6  1  0
  8  7  1  0
  8  6  1  0
  9  8  1  0
 10  9  1  0
 11 10  1  0
 12 11  1  0
 12 13  1  0
 13 14  1  0
 14  9  1  0
 15 16  1  0
 16 18  1  0
 17 16  2  0
 18 23  1  0
 19 18  2  0
 19 20  1  0
 20 21  2  0
 22 21  1  0
 23 22  2  0
  2 24  1  0
  3 25  1  0
  6 26  1  6
  7 27  1  0
  7 28  1  0
  8 29  1  1
  9 30  1  0
 10 31  1  0
 10 32  1  0
 11 33  1  0
 11 34  1  0
 13 35  1  0
 13 36  1  0
 14 37  1  0
 14 38  1  0
 19 39  1  0
 20 40  1  0
 22 41  1  0
M  ISO  8  24  14  25  14  26  13  27  13  28  13  29  13  30  13  31  13
M  ISO  8  32  13  33  13  34  13  35  13  36  13  37  13  38  13  39  14
M  ISO  2  40  14  41  14
M  END
>  <minimizedAffinity>  (1) 
-5.50735855

>  <minimizedRMSD>  (1) 
1.19811583

$$$$
