
     RDKit          3D

 39 42  0  0  0  0  0  0  0  0999 V2000
   45.1340   33.9600   40.7090 C   0  0  0  0  0  0  0  0  0  0  0  0
   44.0890   33.6360   39.8900 C   0  0  0  0  0  0  0  0  0  0  0  0
   44.3870   33.1330   38.6620 C   0  0  0  0  0  0  0  0  0  0  0  0
   45.6720   32.9350   38.2040 C   0  0  0  0  0  0  0  0  0  0  0  0
   46.6990   33.2690   39.0500 C   0  0  0  0  0  0  0  0  0  0  0  0
   46.4480   33.7830   40.3030 C   0  0  0  0  0  0  0  0  0  0  0  0
   40.8080   35.2770   40.7940 C   0  0  0  0  0  0  0  0  0  0  0  0
   42.1030   35.0970   40.2810 C   0  0  0  0  0  0  0  0  0  0  0  0
   42.7540   33.8590   40.4070 C   0  0  0  0  0  0  0  0  0  0  0  0
   42.0360   32.9020   41.0470 N   0  0  0  0  0  0  0  0  0  0  0  0
   40.8060   33.0860   41.5300 C   0  0  0  0  0  0  0  0  0  0  0  0
   40.1960   34.2750   41.4010 N   0  0  0  0  0  0  0  0  0  0  0  0
   40.2030   36.5370   40.6390 N   0  0  0  0  0  0  0  0  0  0  0  0
   47.6140   34.1070   41.1260 C   0  0  0  0  0  0  0  0  0  0  0  0
   48.1360   35.3590   40.9440 C   0  0  0  0  0  0  0  0  0  0  0  0
   49.2440   35.8320   41.6430 C   0  0  0  0  0  0  0  0  0  0  0  0
   49.8310   34.9740   42.5660 C   0  0  0  0  0  0  0  0  0  0  0  0
   49.3200   33.7170   42.7600 C   0  0  0  0  0  0  0  0  0  0  0  0
   48.2180   33.2730   42.0500 C   0  0  0  0  0  0  0  0  0  0  0  0
   47.6180   31.9400   42.2070 C   0  0  0  0  0  0  0  0  0  0  0  0
   46.6460   31.5330   43.0530 N   0  0  0  0  0  0  0  0  0  0  0  0
   46.4190   30.2090   42.8340 C   0  0  0  0  0  0  0  0  0  0  0  0
   47.2640   29.8380   41.8540 N   0  0  0  0  0  0  0  0  0  0  0  0
   47.9830   30.8570   41.4710 N   0  0  0  0  0  0  0  0  0  0  0  0
   44.7270   34.9220   43.0980 N   0  0  0  0  0  0  0  0  0  0  0  0
   44.9130   34.4970   42.0200 C   0  0  0  0  0  0  0  0  0  0  0  0
   43.5533   32.8686   37.9949 H   0  0  0  0  0  0  0  0  0  0  0  0
   45.8659   32.5260   37.2014 H   0  0  0  0  0  0  0  0  0  0  0  0
   47.7391   33.1241   38.7226 H   0  0  0  0  0  0  0  0  0  0  0  0
   42.6112   35.9321   39.7767 H   0  0  0  0  0  0  0  0  0  0  0  0
   40.2885   32.2583   42.0371 H   0  0  0  0  0  0  0  0  0  0  0  0
   40.7090   37.2959   40.1605 H   0  0  0  0  0  0  0  0  0  0  0  0
   39.2539   36.7010   41.0040 H   0  0  0  0  0  0  0  0  0  0  0  0
   47.6573   36.0240   40.2101 H   0  0  0  0  0  0  0  0  0  0  0  0
   49.6389   36.8442   41.4715 H   0  0  0  0  0  0  0  0  0  0  0  0
   50.7078   35.3047   43.1421 H   0  0  0  0  0  0  0  0  0  0  0  0
   49.7946   33.0487   43.4936 H   0  0  0  0  0  0  0  0  0  0  0  0
   45.6904   29.5697   43.3540 H   0  0  0  0  0  0  0  0  0  0  0  0
   47.3329   28.8875   41.4632 H   0  0  0  0  0  0  0  0  0  0  0  0
  1 26  1  0
  2  9  1  0
  2  1  2  0
  3  2  1  0
  4  3  2  0
  4  5  1  0
  5  6  2  0
  6  1  1  0
  6 14  1  0
  7 12  2  0
  8  9  2  0
  8  7  1  0
  9 10  1  0
 10 11  2  0
 12 11  1  0
 13  7  1  0
 14 19  1  0
 15 14  2  0
 15 16  1  0
 16 17  2  0
 17 18  1  0
 19 20  1  0
 19 18  2  0
 20 21  1  0
 22 21  2  0
 23 22  1  0
 24 23  1  0
 24 20  2  0
 26 25  3  0
  3 27  1  0
  4 28  1  0
  5 29  1  0
  8 30  1  0
 11 31  1  0
 13 32  1  0
 13 33  1  0
 15 34  1  0
 16 35  1  0
 17 36  1  0
 18 37  1  0
 22 38  1  0
 23 39  1  0
M  ISO  8  27  14  28  14  29  14  30  14  31  14  34  14  35  14  36  14
M  ISO  3  37  14  38  14  39   9
M  END
>  <minimizedAffinity>  (1) 
-5.92235708

>  <minimizedRMSD>  (1) 
0.0973351076

$$$$
