
     RDKit          3D

 43 47  0  0  1  0  0  0  0  0999 V2000
   47.2070   32.9530   43.1300 C   0  0  0  0  0  0  0  0  0  0  0  0
   46.4120   33.6520   42.2250 C   0  0  0  0  0  0  0  0  0  0  0  0
   45.3670   34.4730   42.6240 C   0  0  0  0  0  0  0  0  0  0  0  0
   45.0890   34.6140   43.9950 C   0  0  0  0  0  0  0  0  0  0  0  0
   44.1890   35.2960   44.7270 N   0  0  0  0  0  0  0  0  0  0  0  0
   44.3920   35.0520   46.0330 C   0  0  0  0  0  0  0  0  0  0  0  0
   45.4310   34.2080   46.0940 N   0  0  0  0  0  0  0  0  0  0  0  0
   45.8900   33.9120   44.8600 C   0  0  0  0  0  0  0  0  0  0  0  0
   46.9390   33.0860   44.4970 C   0  0  0  0  0  0  0  0  0  0  0  0
   46.2300   32.4890   38.7610 C   0  0  0  0  0  0  0  0  0  0  0  0
   47.1890   33.2620   38.1100 C   0  0  0  0  0  0  0  0  0  0  0  0
   47.9000   34.1880   38.8830 C   0  0  0  0  0  0  0  0  0  0  0  0
   47.6320   34.3020   40.2280 N   0  0  0  0  0  0  0  0  0  0  0  0
   46.6850   33.5180   40.7950 C   0  0  0  0  0  0  0  0  0  0  0  0
   45.9610   32.5980   40.0980 N   0  0  0  0  0  0  0  0  0  0  0  0
   44.3680   35.3520   41.4610 S   0  0  0  0  0  0  0  0  0  0  0  0
   42.1050   34.0450   41.7870 N   0  0  0  0  0  0  0  0  0  0  0  0
   43.0510   34.3450   40.7240 C   0  0  1  0  0  0  0  0  0  0  0  0
   42.4060   35.2320   39.6570 C   0  0  0  0  0  0  0  0  0  0  0  0
   41.1280   34.8450   39.3140 O   0  0  0  0  0  0  0  0  0  0  0  0
   40.7400   33.6140   39.7900 C   0  0  0  0  0  0  0  0  0  0  0  0
   40.8340   33.6050   41.2920 C   0  0  1  0  0  0  0  0  0  0  0  0
   40.5210   32.2160   41.7430 C   0  0  0  0  0  0  0  0  0  0  0  0
   41.3960   31.3940   42.3880 N   0  0  0  0  0  0  0  0  0  0  0  0
   40.7380   30.2240   42.6290 C   0  0  0  0  0  0  0  0  0  0  0  0
   39.4850   30.3180   42.1450 N   0  0  0  0  0  0  0  0  0  0  0  0
   39.3710   31.5420   41.6080 N   0  0  0  0  0  0  0  0  0  0  0  0
   48.0275   32.3105   42.7780 H   0  0  0  0  0  0  0  0  0  0  0  0
   43.4565   35.9110   44.3448 H   0  0  0  0  0  0  0  0  0  0  0  0
   43.8214   35.4617   46.8795 H   0  0  0  0  0  0  0  0  0  0  0  0
   47.5378   32.5556   45.2521 H   0  0  0  0  0  0  0  0  0  0  0  0
   45.6613   31.7551   38.1712 H   0  0  0  0  0  0  0  0  0  0  0  0
   47.3798   33.1494   37.0325 H   0  0  0  0  0  0  0  0  0  0  0  0
   48.6693   34.8215   38.4173 H   0  0  0  0  0  0  0  0  0  0  0  0
   42.5017   33.3027   42.3807 H   0  0  0  0  0  0  0  0  0  0  0  0
   43.4022   33.4029   40.2777 H   0  0  0  0  0  0  0  0  0  0  0  0
   42.3660   36.2625   40.0396 H   0  0  0  0  0  0  0  0  0  0  0  0
   43.0228   35.1450   38.7504 H   0  0  0  0  0  0  0  0  0  0  0  0
   39.7019   33.4139   39.4863 H   0  0  0  0  0  0  0  0  0  0  0  0
   41.3991   32.8364   39.3765 H   0  0  0  0  0  0  0  0  0  0  0  0
   40.1138   34.3278   41.7028 H   0  0  0  0  0  0  0  0  0  0  0  0
   41.1624   29.3453   43.1368 H   0  0  0  0  0  0  0  0  0  0  0  0
   38.7558   29.5914   42.1802 H   0  0  0  0  0  0  0  0  0  0  0  0
  1  9  2  0
  2  3  2  0
  2  1  1  0
  3  4  1  0
  4  5  1  0
  4  8  2  0
  5  6  1  0
  6  7  2  0
  8  7  1  0
  9  8  1  0
 10 15  2  0
 11 10  1  0
 11 12  2  0
 12 13  1  0
 13 14  2  0
 14  2  1  0
 15 14  1  0
 16  3  1  0
 18 16  1  0
 18 17  1  0
 19 18  1  0
 20 19  1  0
 20 21  1  0
 21 22  1  0
 22 23  1  0
 22 17  1  0
 23 24  1  0
 24 25  2  0
 26 25  1  0
 27 23  2  0
 27 26  1  0
  1 28  1  0
  5 29  1  0
  6 30  1  0
  9 31  1  0
 10 32  1  0
 11 33  1  0
 12 34  1  0
 17 35  1  0
 18 36  1  6
 19 37  1  0
 19 38  1  0
 21 39  1  0
 21 40  1  0
 22 41  1  1
 25 42  1  0
 26 43  1  0
M  ISO  8  28  14  29   9  30  14  31  14  32  14  33  14  34  14  35   5
M  ISO  8  36  13  37  13  38  13  39  13  40  13  41  13  42  14  43   9
M  END
>  <minimizedAffinity>  (1) 
-5.97170591

>  <minimizedRMSD>  (1) 
2.14367175

$$$$
