
     RDKit          3D

 44 47  0  0  1  0  0  0  0  0999 V2000
   46.5760   33.0560   44.2990 C   0  0  0  0  0  0  0  0  0  0  0  0
   46.0410   32.2300   45.3200 N   0  0  0  0  0  0  0  0  0  0  0  0
   45.9330   32.7560   46.6100 C   0  0  0  0  0  0  0  0  0  0  0  0
   47.2000   32.4780   47.4460 C   0  0  0  0  0  0  0  0  0  0  0  0
   47.2420   30.9890   47.6690 C   0  0  0  0  0  0  0  0  0  0  0  0
   47.3240   30.3480   46.3010 C   0  0  0  0  0  0  0  0  0  0  0  0
   46.3180   30.8560   45.3090 C   0  0  2  0  0  0  0  0  0  0  0  0
   46.7760   30.3800   43.9380 C   0  0  0  0  0  0  0  0  0  0  0  0
   45.8450   35.3520   43.2650 C   0  0  1  0  0  0  0  0  0  0  0  0
   44.7320   34.7940   43.8970 C   0  0  0  0  0  0  0  0  0  0  0  0
   46.0240   34.4180   44.4970 C   0  0  1  0  0  0  0  0  0  0  0  0
   45.6390   34.1800   41.0670 C   0  0  0  0  0  0  0  0  0  0  0  0
   46.4730   34.8900   41.9880 C   0  0  0  0  0  0  0  0  0  0  0  0
   47.7770   35.1160   41.6830 C   0  0  0  0  0  0  0  0  0  0  0  0
   48.2410   34.6450   40.4890 N   0  0  0  0  0  0  0  0  0  0  0  0
   47.4390   33.9720   39.6260 C   0  0  0  0  0  0  0  0  0  0  0  0
   46.1120   33.7170   39.8870 N   0  0  0  0  0  0  0  0  0  0  0  0
   48.1180   33.5500   38.4040 C   0  0  0  0  0  0  0  0  0  0  0  0
   48.8920   32.4900   38.1020 N   0  0  0  0  0  0  0  0  0  0  0  0
   49.2760   32.5770   36.7950 C   0  0  0  0  0  0  0  0  0  0  0  0
   48.7120   33.7190   36.3110 N   0  0  0  0  0  0  0  0  0  0  0  0
   48.0140   34.3080   37.2730 N   0  0  0  0  0  0  0  0  0  0  0  0
   46.2824   32.6711   43.3113 H   0  0  0  0  0  0  0  0  0  0  0  0
   47.6748   33.0711   44.3470 H   0  0  0  0  0  0  0  0  0  0  0  0
   45.7830   33.8435   46.5404 H   0  0  0  0  0  0  0  0  0  0  0  0
   45.0798   32.2722   47.1080 H   0  0  0  0  0  0  0  0  0  0  0  0
   48.0964   32.8066   46.8996 H   0  0  0  0  0  0  0  0  0  0  0  0
   47.1767   33.0244   48.4004 H   0  0  0  0  0  0  0  0  0  0  0  0
   48.1248   30.7198   48.2676 H   0  0  0  0  0  0  0  0  0  0  0  0
   46.3513   30.6449   48.2150 H   0  0  0  0  0  0  0  0  0  0  0  0
   48.3294   30.5338   45.8952 H   0  0  0  0  0  0  0  0  0  0  0  0
   47.1062   29.2794   46.4450 H   0  0  0  0  0  0  0  0  0  0  0  0
   45.3424   30.4408   45.6021 H   0  0  0  0  0  0  0  0  0  0  0  0
   47.5341   29.5921   44.0578 H   0  0  0  0  0  0  0  0  0  0  0  0
   45.9152   29.9792   43.3826 H   0  0  0  0  0  0  0  0  0  0  0  0
   47.2097   31.2247   43.3826 H   0  0  0  0  0  0  0  0  0  0  0  0
   46.0525   36.3871   42.9559 H   0  0  0  0  0  0  0  0  0  0  0  0
   44.0529   35.4509   44.4603 H   0  0  0  0  0  0  0  0  0  0  0  0
   43.8852   34.1997   43.5230 H   0  0  0  0  0  0  0  0  0  0  0  0
   46.4875   34.4652   45.4935 H   0  0  0  0  0  0  0  0  0  0  0  0
   44.5841   34.0059   41.3256 H   0  0  0  0  0  0  0  0  0  0  0  0
   48.4368   35.6602   42.3748 H   0  0  0  0  0  0  0  0  0  0  0  0
   49.9120   31.8686   36.2440 H   0  0  0  0  0  0  0  0  0  0  0  0
   48.8121   34.0703   35.3479 H   0  0  0  0  0  0  0  0  0  0  0  0
  1 11  1  0
  1  2  1  0
  2  3  1  0
  3  4  1  0
  4  5  1  0
  6  5  1  0
  7  2  1  0
  7  6  1  0
  8  7  1  0
  9 10  1  0
  9 11  1  0
 10 11  1  0
 12 13  2  0
 13  9  1  0
 14 13  1  0
 15 14  2  0
 16 17  2  0
 16 15  1  0
 17 12  1  0
 18 16  1  0
 19 18  1  0
 20 19  2  0
 21 20  1  0
 21 22  1  0
 22 18  2  0
  1 23  1  0
  1 24  1  0
  3 25  1  0
  3 26  1  0
  4 27  1  0
  4 28  1  0
  5 29  1  0
  5 30  1  0
  6 31  1  0
  6 32  1  0
  7 33  1  1
  8 34  1  0
  8 35  1  0
  8 36  1  0
  9 37  1  1
 10 38  1  0
 10 39  1  0
 11 40  1  1
 12 41  1  0
 14 42  1  0
 20 43  1  0
 21 44  1  0
M  ISO  8  23   8  24   8  25  13  26  13  27  13  28  13  29  13  30  13
M  ISO  8  31  13  32  13  33  13  34   8  35   8  36   8  37  13  38  13
M  ISO  6  39  13  40  13  41  14  42  14  43  14  44   9
M  END
>  <minimizedAffinity>  (1) 
-5.0641284

>  <minimizedRMSD>  (1) 
2.76097226

$$$$
