
     RDKit          3D

 32 34  0  0  1  0  0  0  0  0999 V2000
   45.7260   33.9470   41.3950 C   0  0  1  0  0  0  0  0  0  0  0  0
   46.4500   33.9240   40.0730 C   0  0  0  0  0  0  0  0  0  0  0  0
   47.9180   33.7070   40.4230 C   0  0  0  0  0  0  0  0  0  0  0  0
   48.4040   34.9740   41.0940 C   0  0  0  0  0  0  0  0  0  0  0  0
   47.6000   35.3550   42.2880 C   0  0  0  0  0  0  0  0  0  0  0  0
   46.1300   35.1790   42.1770 C   0  0  2  0  0  0  0  0  0  0  0  0
   42.1470   34.9150   40.5850 C   0  0  0  0  0  0  0  0  0  0  0  0
   43.5320   35.0280   40.6880 C   0  0  0  0  0  0  0  0  0  0  0  0
   44.2620   33.9510   41.2290 C   0  0  0  0  0  0  0  0  0  0  0  0
   43.5360   32.8660   41.6160 N   0  0  0  0  0  0  0  0  0  0  0  0
   42.2050   32.7770   41.5090 C   0  0  0  0  0  0  0  0  0  0  0  0
   41.4960   33.7930   40.9950 N   0  0  0  0  0  0  0  0  0  0  0  0
   45.5180   35.1300   43.5080 C   0  0  0  0  0  0  0  0  0  0  0  0
   45.8820   34.1860   44.3960 N   0  0  0  0  0  0  0  0  0  0  0  0
   45.1680   34.3640   45.5410 C   0  0  0  0  0  0  0  0  0  0  0  0
   44.3880   35.4250   45.3000 N   0  0  0  0  0  0  0  0  0  0  0  0
   44.5890   35.9040   44.0620 N   0  0  0  0  0  0  0  0  0  0  0  0
   46.0077   33.0315   41.9358 H   0  0  0  0  0  0  0  0  0  0  0  0
   46.3170   34.8792   39.5440 H   0  0  0  0  0  0  0  0  0  0  0  0
   46.0658   33.1363   39.4082 H   0  0  0  0  0  0  0  0  0  0  0  0
   48.0208   32.8529   41.1086 H   0  0  0  0  0  0  0  0  0  0  0  0
   48.5088   33.4884   39.5212 H   0  0  0  0  0  0  0  0  0  0  0  0
   49.4471   34.8239   41.4092 H   0  0  0  0  0  0  0  0  0  0  0  0
   48.3049   35.7887   40.3615 H   0  0  0  0  0  0  0  0  0  0  0  0
   47.9473   34.7441   43.1343 H   0  0  0  0  0  0  0  0  0  0  0  0
   47.7564   36.4366   42.4128 H   0  0  0  0  0  0  0  0  0  0  0  0
   45.7634   36.0525   41.6179 H   0  0  0  0  0  0  0  0  0  0  0  0
   41.5682   35.7501   40.1636 H   0  0  0  0  0  0  0  0  0  0  0  0
   44.0460   35.9411   40.3532 H   0  0  0  0  0  0  0  0  0  0  0  0
   41.6893   31.8652   41.8446 H   0  0  0  0  0  0  0  0  0  0  0  0
   45.2204   33.7665   46.4631 H   0  0  0  0  0  0  0  0  0  0  0  0
   43.7205   35.8222   45.9764 H   0  0  0  0  0  0  0  0  0  0  0  0
  1  6  1  0
  2  3  1  0
  2  1  1  0
  3  4  1  0
  4  5  1  0
  6  5  1  0
  6 13  1  0
  7  8  2  0
  7 12  1  0
  8  9  1  0
  9  1  1  0
  9 10  2  0
 11 10  1  0
 12 11  2  0
 13 17  2  0
 13 14  1  0
 14 15  2  0
 16 15  1  0
 17 16  1  0
  1 18  1  1
  2 19  1  0
  2 20  1  0
  3 21  1  0
  3 22  1  0
  4 23  1  0
  4 24  1  0
  5 25  1  0
  5 26  1  0
  6 27  1  6
  7 28  1  0
  8 29  1  0
 11 30  1  0
 15 31  1  0
 16 32  1  0
M  ISO  8  18  13  19  13  20  13  21  13  22  13  23  13  24  13  25  13
M  ISO  7  26  13  27  13  28  14  29  14  30  14  31  14  32   9
M  END
>  <minimizedAffinity>  (1) 
-5.40871668

>  <minimizedRMSD>  (1) 
3.75295806

$$$$
