
     RDKit          3D

 26 28  0  0  1  0  0  0  0  0999 V2000
   46.8410   34.9640   41.8540 C   0  0  1  0  0  0  0  0  0  0  0  0
   47.4800   33.7440   41.4170 C   0  0  0  0  0  0  0  0  0  0  0  0
   46.2360   34.1380   40.7170 C   0  0  1  0  0  0  0  0  0  0  0  0
   46.2630   34.0490   44.1340 C   0  0  0  0  0  0  0  0  0  0  0  0
   46.0760   35.0460   43.1290 C   0  0  0  0  0  0  0  0  0  0  0  0
   45.1760   36.0680   43.3650 C   0  0  0  0  0  0  0  0  0  0  0  0
   44.5140   36.0620   44.5590 N   0  0  0  0  0  0  0  0  0  0  0  0
   44.7050   35.1070   45.5030 C   0  0  0  0  0  0  0  0  0  0  0  0
   45.5860   34.0800   45.3040 N   0  0  0  0  0  0  0  0  0  0  0  0
   44.9670   33.4180   40.9470 C   0  0  0  0  0  0  0  0  0  0  0  0
   43.8570   34.0310   40.1760 C   0  0  0  0  0  0  0  0  0  0  0  0
   43.3400   33.5450   39.0430 N   0  0  0  0  0  0  0  0  0  0  0  0
   42.3520   34.3030   38.5700 C   0  0  0  0  0  0  0  0  0  0  0  0
   42.2440   35.3250   39.4630 N   0  0  0  0  0  0  0  0  0  0  0  0
   43.1580   35.1490   40.4270 N   0  0  0  0  0  0  0  0  0  0  0  0
   47.2023   35.9926   42.0005 H   0  0  0  0  0  0  0  0  0  0  0  0
   48.4409   33.7970   40.8843 H   0  0  0  0  0  0  0  0  0  0  0  0
   47.8030   32.8285   41.9342 H   0  0  0  0  0  0  0  0  0  0  0  0
   45.9482   34.3014   39.6680 H   0  0  0  0  0  0  0  0  0  0  0  0
   46.9777   33.2330   43.9513 H   0  0  0  0  0  0  0  0  0  0  0  0
   44.9997   36.8567   42.6188 H   0  0  0  0  0  0  0  0  0  0  0  0
   44.1410   35.1595   46.4459 H   0  0  0  0  0  0  0  0  0  0  0  0
   45.0865   32.3704   40.6334 H   0  0  0  0  0  0  0  0  0  0  0  0
   44.7219   33.4758   42.0178 H   0  0  0  0  0  0  0  0  0  0  0  0
   41.7559   34.1395   37.6601 H   0  0  0  0  0  0  0  0  0  0  0  0
   41.5719   36.1035   39.4070 H   0  0  0  0  0  0  0  0  0  0  0  0
  1  5  1  0
  2  1  1  0
  3 10  1  0
  3  2  1  0
  3  1  1  0
  4  9  2  0
  5  6  2  0
  5  4  1  0
  6  7  1  0
  7  8  2  0
  9  8  1  0
 11 15  2  0
 11 10  1  0
 12 11  1  0
 13 12  2  0
 13 14  1  0
 14 15  1  0
  1 16  1  6
  2 17  1  0
  2 18  1  0
  3 19  1  6
  4 20  1  0
  6 21  1  0
  8 22  1  0
 10 23  1  0
 10 24  1  0
 13 25  1  0
 14 26  1  0
M  ISO  8  16  13  17  13  18  13  19  13  20  14  21  14  22  14  23   8
M  ISO  3  24   8  25  14  26   9
M  END
>  <minimizedAffinity>  (1) 
-4.3068881

>  <minimizedRMSD>  (1) 
5.99288511

$$$$
