
     RDKit          3D

 26 28  0  0  0  0  0  0  0  0999 V2000
   47.1940   33.8340   39.9380 C   0  0  0  0  0  0  0  0  0  0  0  0
   48.2990   34.3900   39.3590 C   0  0  0  0  0  0  0  0  0  0  0  0
   48.2290   34.1990   37.9920 C   0  0  0  0  0  0  0  0  0  0  0  0
   47.0500   33.5160   37.7970 C   0  0  0  0  0  0  0  0  0  0  0  0
   46.4580   33.3130   38.9650 O   0  0  0  0  0  0  0  0  0  0  0  0
   46.4550   33.0420   36.5510 C   0  0  0  0  0  0  0  0  0  0  0  0
   47.2370   32.3930   35.6390 N   0  0  0  0  0  0  0  0  0  0  0  0
   46.4680   32.0560   34.5770 C   0  0  0  0  0  0  0  0  0  0  0  0
   45.2150   32.4950   34.8340 N   0  0  0  0  0  0  0  0  0  0  0  0
   45.1950   33.0970   36.0310 N   0  0  0  0  0  0  0  0  0  0  0  0
   46.8030   33.7640   41.2820 O   0  0  0  0  0  0  0  0  0  0  0  0
   47.0700   34.7980   42.1750 C   0  0  0  0  0  0  0  0  0  0  0  0
   47.9960   35.5790   41.8480 O   0  0  0  0  0  0  0  0  0  0  0  0
   46.2560   34.8360   43.3450 C   0  0  0  0  0  0  0  0  0  0  0  0
   45.3670   35.8910   43.3560 C   0  0  0  0  0  0  0  0  0  0  0  0
   44.5270   35.9900   44.4870 C   0  0  0  0  0  0  0  0  0  0  0  0
   44.6390   35.0740   45.4660 N   0  0  0  0  0  0  0  0  0  0  0  0
   45.5310   34.0610   45.4000 C   0  0  0  0  0  0  0  0  0  0  0  0
   46.3390   33.9440   44.3340 N   0  0  0  0  0  0  0  0  0  0  0  0
   49.1111   34.9051   39.8929 H   0  0  0  0  0  0  0  0  0  0  0  0
   48.9538   34.5210   37.2298 H   0  0  0  0  0  0  0  0  0  0  0  0
   46.8005   31.5241   33.6733 H   0  0  0  0  0  0  0  0  0  0  0  0
   44.4042   32.3842   34.2085 H   0  0  0  0  0  0  0  0  0  0  0  0
   45.3153   36.6150   42.5295 H   0  0  0  0  0  0  0  0  0  0  0  0
   43.7918   36.8043   44.5663 H   0  0  0  0  0  0  0  0  0  0  0  0
   45.5952   33.3313   46.2206 H   0  0  0  0  0  0  0  0  0  0  0  0
  1 11  1  0
  2  1  2  0
  3  2  1  0
  4  3  2  0
  4  5  1  0
  5  1  1  0
  6  4  1  0
  7  6  1  0
  8  9  1  0
  8  7  2  0
  9 10  1  0
 10  6  2  0
 11 12  1  0
 12 14  1  0
 13 12  2  0
 14 15  2  0
 14 19  1  0
 15 16  1  0
 16 17  2  0
 18 17  1  0
 19 18  2  0
  2 20  1  0
  3 21  1  0
  8 22  1  0
  9 23  1  0
 15 24  1  0
 16 25  1  0
 18 26  1  0
M  ISO  7  20  14  21  14  22  14  23   9  24  14  25  14  26  14
M  END
>  <minimizedAffinity>  (1) 
-5.04510069

>  <minimizedRMSD>  (1) 
0.550413668

$$$$
