
     RDKit          3D

 30 33  0  0  0  0  0  0  0  0999 V2000
   47.6850   32.1550   44.0500 C   0  0  0  0  0  0  0  0  0  0  0  0
   47.0490   33.2820   43.5330 C   0  0  0  0  0  0  0  0  0  0  0  0
   46.1170   33.9980   44.2340 C   0  0  0  0  0  0  0  0  0  0  0  0
   45.7790   33.5880   45.5340 C   0  0  0  0  0  0  0  0  0  0  0  0
   44.9270   34.0440   46.4930 N   0  0  0  0  0  0  0  0  0  0  0  0
   45.0190   33.2410   47.5720 C   0  0  0  0  0  0  0  0  0  0  0  0
   45.9350   32.2930   47.2590 N   0  0  0  0  0  0  0  0  0  0  0  0
   46.4120   32.4830   46.0230 C   0  0  0  0  0  0  0  0  0  0  0  0
   47.3530   31.7430   45.3430 C   0  0  0  0  0  0  0  0  0  0  0  0
   47.1860   33.4830   39.8650 C   0  0  0  0  0  0  0  0  0  0  0  0
   48.0480   34.5550   39.6480 C   0  0  0  0  0  0  0  0  0  0  0  0
   48.5760   35.2020   40.7640 C   0  0  0  0  0  0  0  0  0  0  0  0
   48.2330   34.7660   42.0160 N   0  0  0  0  0  0  0  0  0  0  0  0
   47.3940   33.7220   42.1850 C   0  0  0  0  0  0  0  0  0  0  0  0
   46.8710   33.0810   41.1160 N   0  0  0  0  0  0  0  0  0  0  0  0
   45.3130   35.4370   43.5700 S   0  0  0  0  0  0  0  0  0  0  0  0
   44.1150   35.0450   42.3140 C   0  0  0  0  0  0  0  0  0  0  0  0
   43.6020   33.8030   42.0710 N   0  0  0  0  0  0  0  0  0  0  0  0
   42.7250   33.9150   41.0460 C   0  0  0  0  0  0  0  0  0  0  0  0
   42.6800   35.2120   40.6430 N   0  0  0  0  0  0  0  0  0  0  0  0
   43.5150   35.8510   41.4150 N   0  0  0  0  0  0  0  0  0  0  0  0
   48.4289   31.6042   43.4556 H   0  0  0  0  0  0  0  0  0  0  0  0
   44.3133   34.8668   46.4082 H   0  0  0  0  0  0  0  0  0  0  0  0
   44.4626   33.3363   48.5161 H   0  0  0  0  0  0  0  0  0  0  0  0
   47.8254   30.8611   45.8003 H   0  0  0  0  0  0  0  0  0  0  0  0
   46.7539   32.9541   39.0027 H   0  0  0  0  0  0  0  0  0  0  0  0
   48.3039   34.8806   38.6289 H   0  0  0  0  0  0  0  0  0  0  0  0
   49.2609   36.0538   40.6403 H   0  0  0  0  0  0  0  0  0  0  0  0
   42.1430   33.0897   40.6099 H   0  0  0  0  0  0  0  0  0  0  0  0
   42.1058   35.6082   39.8853 H   0  0  0  0  0  0  0  0  0  0  0  0
  1  9  2  0
  2  1  1  0
  2  3  2  0
  3  4  1  0
  4  8  2  0
  4  5  1  0
  5  6  1  0
  7  6  2  0
  8  7  1  0
  9  8  1  0
 10 15  2  0
 11 10  1  0
 11 12  2  0
 12 13  1  0
 13 14  2  0
 14  2  1  0
 15 14  1  0
 16  3  1  0
 17 16  1  0
 18 17  1  0
 19 18  2  0
 20 19  1  0
 20 21  1  0
 21 17  2  0
  1 22  1  0
  5 23  1  0
  6 24  1  0
  9 25  1  0
 10 26  1  0
 11 27  1  0
 12 28  1  0
 19 29  1  0
 20 30  1  0
M  ISO  8  22  14  23   9  24  14  25  14  26  14  27  14  28  14  29  14
M  ISO  1  30   9
M  END
>  <minimizedAffinity>  (1) 
-5.33923054

>  <minimizedRMSD>  (1) 
1.65326285

$$$$
