
     RDKit          3D

 36 38  0  0  0  0  0  0  0  0999 V2000
   45.4640   33.2600   38.5580 C   0  0  0  0  0  0  0  0  0  0  0  0
   46.6670   32.8020   38.2240 N   0  0  0  0  0  0  0  0  0  0  0  0
   46.9920   31.6150   37.5210 C   0  0  0  0  0  0  0  0  0  0  0  0
   47.3120   32.2350   36.1410 C   0  0  0  0  0  0  0  0  0  0  0  0
   48.4220   33.1900   36.1760 C   0  0  0  0  0  0  0  0  0  0  0  0
   48.7540   33.8370   37.4460 C   0  0  0  0  0  0  0  0  0  0  0  0
   47.7970   33.6590   38.5920 C   0  0  0  0  0  0  0  0  0  0  0  0
   48.0500   34.4580   40.1410 S   0  0  0  0  0  0  0  0  0  0  0  0
   44.8730   32.5680   39.7500 C   0  0  0  0  0  0  0  0  0  0  0  0
   43.9290   33.5290   40.3830 C   0  0  0  0  0  0  0  0  0  0  0  0
   44.3710   34.6280   41.0950 C   0  0  0  0  0  0  0  0  0  0  0  0
   43.4150   35.4640   41.6630 C   0  0  0  0  0  0  0  0  0  0  0  0
   42.0880   35.1660   41.4910 N   0  0  0  0  0  0  0  0  0  0  0  0
   41.7210   34.0890   40.7910 C   0  0  0  0  0  0  0  0  0  0  0  0
   42.6310   33.2940   40.2510 N   0  0  0  0  0  0  0  0  0  0  0  0
   40.2960   33.7830   40.6160 C   0  0  0  0  0  0  0  0  0  0  0  0
   39.4600   34.1680   39.6350 N   0  0  0  0  0  0  0  0  0  0  0  0
   38.2300   33.6470   39.8850 C   0  0  0  0  0  0  0  0  0  0  0  0
   38.3090   32.9450   41.0110 N   0  0  0  0  0  0  0  0  0  0  0  0
   39.5390   33.0270   41.4450 N   0  0  0  0  0  0  0  0  0  0  0  0
   44.7874   33.1193   37.7022 H   0  0  0  0  0  0  0  0  0  0  0  0
   45.5828   34.3207   38.8242 H   0  0  0  0  0  0  0  0  0  0  0  0
   47.8631   31.1030   37.9557 H   0  0  0  0  0  0  0  0  0  0  0  0
   46.2159   30.8355   37.5222 H   0  0  0  0  0  0  0  0  0  0  0  0
   46.4147   32.7564   35.7764 H   0  0  0  0  0  0  0  0  0  0  0  0
   47.6128   31.4114   35.4767 H   0  0  0  0  0  0  0  0  0  0  0  0
   49.3217   32.6527   35.8417 H   0  0  0  0  0  0  0  0  0  0  0  0
   48.0819   34.0176   35.5361 H   0  0  0  0  0  0  0  0  0  0  0  0
   49.6718   34.4328   37.5583 H   0  0  0  0  0  0  0  0  0  0  0  0
   47.7727   33.5821   41.1573 H   0  0  0  0  0  0  0  0  0  0  0  0
   44.3352   31.6621   39.4335 H   0  0  0  0  0  0  0  0  0  0  0  0
   45.6579   32.2627   40.4576 H   0  0  0  0  0  0  0  0  0  0  0  0
   45.4453   34.8352   41.2090 H   0  0  0  0  0  0  0  0  0  0  0  0
   43.7189   36.3495   42.2406 H   0  0  0  0  0  0  0  0  0  0  0  0
   37.3304   33.7820   39.2665 H   0  0  0  0  0  0  0  0  0  0  0  0
   37.5392   32.4291   41.4606 H   0  0  0  0  0  0  0  0  0  0  0  0
  1  9  1  0
  2  1  1  0
  2  7  1  0
  3  2  1  0
  4  5  1  0
  4  3  1  0
  5  6  1  0
  6  7  2  0
  7  8  1  0
  9 10  1  0
 10 11  2  0
 11 12  1  0
 13 12  2  0
 14 13  1  0
 15 10  1  0
 15 14  2  0
 16 14  1  0
 16 20  2  0
 17 18  2  0
 17 16  1  0
 18 19  1  0
 19 20  1  0
  1 21  1  0
  1 22  1  0
  3 23  1  0
  3 24  1  0
  4 25  1  0
  4 26  1  0
  5 27  1  0
  5 28  1  0
  6 29  1  0
  8 30  1  0
  9 31  1  0
  9 32  1  0
 11 33  1  0
 12 34  1  0
 18 35  1  0
 19 36  1  0
M  ISO  8  21   8  22   8  23  13  24  13  25  13  26  13  27  13  28  13
M  ISO  8  29  13  30  11  31   8  32   8  33  14  34  14  35  14  36   9
M  END
>  <minimizedAffinity>  (1) 
-4.68938208

>  <minimizedRMSD>  (1) 
4.00272369

$$$$
