
     RDKit          3D

 35 37  0  0  0  0  0  0  0  0999 V2000
   43.4830   34.9890   40.7420 S   0  0  0  0  0  0  0  0  0  0  0  0
   44.7580   34.7020   41.9710 C   0  0  0  0  0  0  0  0  0  0  0  0
   46.0650   34.5460   41.4900 C   0  0  0  0  0  0  0  0  0  0  0  0
   47.0850   34.3210   42.4120 C   0  0  0  0  0  0  0  0  0  0  0  0
   46.7610   34.2630   43.7260 N   0  0  0  0  0  0  0  0  0  0  0  0
   45.5140   34.4120   44.1710 C   0  0  0  0  0  0  0  0  0  0  0  0
   44.5150   34.6300   43.2990 N   0  0  0  0  0  0  0  0  0  0  0  0
   45.2500   34.3380   45.5940 C   0  0  0  0  0  0  0  0  0  0  0  0
   44.5080   35.2050   46.1190 O   0  0  0  0  0  0  0  0  0  0  0  0
   45.8020   33.3010   46.4580 C   0  0  0  0  0  0  0  0  0  0  0  0
   45.2140   32.9000   47.6000 N   0  0  0  0  0  0  0  0  0  0  0  0
   45.9610   31.9280   48.1790 C   0  0  0  0  0  0  0  0  0  0  0  0
   47.0280   31.7330   47.3740 N   0  0  0  0  0  0  0  0  0  0  0  0
   46.9240   32.5710   46.3310 N   0  0  0  0  0  0  0  0  0  0  0  0
   41.8490   35.1160   41.4740 C   0  0  0  0  0  0  0  0  0  0  0  0
   40.9380   36.0070   40.6950 C   0  0  0  0  0  0  0  0  0  0  0  0
   41.7790   36.2690   37.7810 Cl  0  0  0  0  0  0  0  0  0  0  0  0
   40.4520   35.2940   38.3340 C   0  0  0  0  0  0  0  0  0  0  0  0
   40.1380   35.2360   39.7060 C   0  0  0  0  0  0  0  0  0  0  0  0
   39.0740   34.4420   40.0580 C   0  0  0  0  0  0  0  0  0  0  0  0
   38.2850   33.6980   39.2060 C   0  0  0  0  0  0  0  0  0  0  0  0
   38.6130   33.7700   37.8540 C   0  0  0  0  0  0  0  0  0  0  0  0
   37.6590   32.8530   36.6950 Cl  0  0  0  0  0  0  0  0  0  0  0  0
   39.6760   34.5570   37.4500 C   0  0  0  0  0  0  0  0  0  0  0  0
   46.2800   34.5998   40.4126 H   0  0  0  0  0  0  0  0  0  0  0  0
   48.1264   34.1938   42.0815 H   0  0  0  0  0  0  0  0  0  0  0  0
   45.7413   31.4016   49.1195 H   0  0  0  0  0  0  0  0  0  0  0  0
   47.7896   31.0580   47.5331 H   0  0  0  0  0  0  0  0  0  0  0  0
   41.4044   34.1109   41.5197 H   0  0  0  0  0  0  0  0  0  0  0  0
   41.9662   35.5539   42.4763 H   0  0  0  0  0  0  0  0  0  0  0  0
   40.2537   36.5150   41.3905 H   0  0  0  0  0  0  0  0  0  0  0  0
   41.5528   36.7372   40.1484 H   0  0  0  0  0  0  0  0  0  0  0  0
   38.8259   34.3947   41.1286 H   0  0  0  0  0  0  0  0  0  0  0  0
   37.4479   33.0852   39.5716 H   0  0  0  0  0  0  0  0  0  0  0  0
   39.9179   34.6010   36.3778 H   0  0  0  0  0  0  0  0  0  0  0  0
  1 15  1  0
  1  2  1  0
  2  7  1  0
  3  2  2  0
  3  4  1  0
  4  5  2  0
  5  6  1  0
  6  8  1  0
  7  6  2  0
  8  9  2  0
  8 10  1  0
 10 11  1  0
 11 12  2  0
 13 12  1  0
 14 10  2  0
 14 13  1  0
 16 15  1  0
 17 18  1  0
 18 19  2  0
 19 20  1  0
 19 16  1  0
 21 20  2  0
 22 21  1  0
 23 22  1  0
 24 22  2  0
 24 18  1  0
  3 25  1  0
  4 26  1  0
 12 27  1  0
 13 28  1  0
 15 29  1  0
 15 30  1  0
 16 31  1  0
 16 32  1  0
 20 33  1  0
 21 34  1  0
 24 35  1  0
M  ISO  8  25  14  26  14  27  14  28   9  29   8  30   8  31   8  32   8
M  ISO  3  33  14  34  14  35  14
M  END
>  <minimizedAffinity>  (1) 
-6.70435381

>  <minimizedRMSD>  (1) 
0.286600679

$$$$
