
     RDKit          3D

 24 24  0  0  0  0  0  0  0  0999 V2000
   45.2570   34.9870   44.0590 C   0  0  0  0  0  0  0  0  0  0  0  0
   45.1800   34.5760   45.3800 C   0  0  0  0  0  0  0  0  0  0  0  0
   46.0710   33.5880   45.7820 C   0  0  0  0  0  0  0  0  0  0  0  0
   46.9350   33.1030   44.8730 N   0  0  0  0  0  0  0  0  0  0  0  0
   46.9900   33.5140   43.6050 C   0  0  0  0  0  0  0  0  0  0  0  0
   46.1440   34.4720   43.1710 N   0  0  0  0  0  0  0  0  0  0  0  0
   43.6150   35.3630   42.4340 C   0  0  0  0  0  0  0  0  0  0  0  0
   43.8230   34.1180   42.3670 O   0  0  0  0  0  0  0  0  0  0  0  0
   44.4350   35.9930   43.4320 N   0  0  0  0  0  0  0  0  0  0  0  0
   42.6910   36.1270   41.6460 N   0  0  0  0  0  0  0  0  0  0  0  0
   41.2790   35.3310   41.1030 S   0  0  0  0  0  0  0  0  0  0  0  0
   40.5870   34.6600   42.2770 O   0  0  0  0  0  0  0  0  0  0  0  0
   41.5290   34.3410   40.0060 O   0  0  0  0  0  0  0  0  0  0  0  0
   40.1990   36.4940   40.5490 O   0  0  0  0  0  0  0  0  0  0  0  0
   44.1990   35.2140   46.1740 N   0  0  0  0  0  0  0  0  0  0  0  0
   46.0694   33.2129   46.8161 H   0  0  0  0  0  0  0  0  0  0  0  0
   47.7237   33.0728   42.9143 H   0  0  0  0  0  0  0  0  0  0  0  0
   44.4357   36.9971   43.6617 H   0  0  0  0  0  0  0  0  0  0  0  0
   42.8711   37.1149   41.4168 H   0  0  0  0  0  0  0  0  0  0  0  0
   40.9546   35.0164   43.1243 H   0  0  0  0  0  0  0  0  0  0  0  0
   41.7513   33.4606   40.4004 H   0  0  0  0  0  0  0  0  0  0  0  0
   39.7777   36.9477   41.3215 H   0  0  0  0  0  0  0  0  0  0  0  0
   44.0897   34.9545   47.1648 H   0  0  0  0  0  0  0  0  0  0  0  0
   43.5937   35.9382   45.7615 H   0  0  0  0  0  0  0  0  0  0  0  0
  1  2  2  0
  2  3  1  0
  2 15  1  0
  4  3  2  0
  5  4  1  0
  6  5  2  0
  6  1  1  0
  7  9  1  0
  8  7  2  0
  9  1  1  0
 10  7  1  0
 11 10  1  0
 11 12  1  0
 13 11  1  0
 14 11  1  0
  3 16  1  0
  5 17  1  0
  9 18  1  0
 10 19  1  0
 12 20  1  0
 13 21  1  0
 14 22  1  0
 15 23  1  0
 15 24  1  0
M  ISO  5  16  14  17  14  20   3  21   3  22   3
M  END
>  <minimizedAffinity>  (1) 
-5.08083439

>  <minimizedRMSD>  (1) 
0.992265582

$$$$
