
     RDKit          3D

 38 40  0  0  0  0  0  0  0  0999 V2000
   45.6580   32.5120   40.2730 Cl  0  0  0  0  0  0  0  0  0  0  0  0
   46.9520   33.6510   40.0580 C   0  0  0  0  0  0  0  0  0  0  0  0
   47.4600   34.3350   41.1220 C   0  0  0  0  0  0  0  0  0  0  0  0
   48.4930   35.2490   40.9790 C   0  0  0  0  0  0  0  0  0  0  0  0
   48.9820   35.4310   39.6960 C   0  0  0  0  0  0  0  0  0  0  0  0
   48.4620   34.7350   38.6270 C   0  0  0  0  0  0  0  0  0  0  0  0
   47.4570   33.8500   38.7900 C   0  0  0  0  0  0  0  0  0  0  0  0
   46.7570   32.8000   44.3950 C   0  0  0  0  0  0  0  0  0  0  0  0
   45.8360   33.7080   44.9720 C   0  0  0  0  0  0  0  0  0  0  0  0
   45.4740   34.8300   44.2280 C   0  0  0  0  0  0  0  0  0  0  0  0
   46.0250   34.9900   42.9860 N   0  0  0  0  0  0  0  0  0  0  0  0
   46.9040   34.1030   42.4640 C   0  0  0  0  0  0  0  0  0  0  0  0
   47.2580   33.0150   43.1770 N   0  0  0  0  0  0  0  0  0  0  0  0
   44.5150   35.8500   44.7330 C   0  0  0  0  0  0  0  0  0  0  0  0
   44.9970   37.1180   44.5020 F   0  0  0  0  0  0  0  0  0  0  0  0
   43.3140   35.7020   44.0540 F   0  0  0  0  0  0  0  0  0  0  0  0
   44.3240   35.6130   46.0620 F   0  0  0  0  0  0  0  0  0  0  0  0
   46.8970   33.1070   37.6630 C   0  0  0  0  0  0  0  0  0  0  0  0
   45.6020   33.2700   37.1820 C   0  0  0  0  0  0  0  0  0  0  0  0
   45.4150   32.4150   36.1190 C   0  0  0  0  0  0  0  0  0  0  0  0
   46.6250   31.7650   36.0090 C   0  0  0  0  0  0  0  0  0  0  0  0
   47.4670   32.1960   36.9290 O   0  0  0  0  0  0  0  0  0  0  0  0
   47.0970   30.7600   35.1190 N   0  0  0  0  0  0  0  0  0  0  0  0
   47.7220   30.9730   33.5200 S   0  0  0  0  0  0  0  0  0  0  0  0
   49.0620   30.3200   33.4050 O   0  0  0  0  0  0  0  0  0  0  0  0
   47.8580   32.4310   33.1760 O   0  0  0  0  0  0  0  0  0  0  0  0
   46.6020   30.2560   32.4640 O   0  0  0  0  0  0  0  0  0  0  0  0
   48.9022   35.8000   41.8386 H   0  0  0  0  0  0  0  0  0  0  0  0
   49.8015   36.1452   39.5274 H   0  0  0  0  0  0  0  0  0  0  0  0
   48.8741   34.9041   37.6212 H   0  0  0  0  0  0  0  0  0  0  0  0
   47.0633   31.9061   44.9581 H   0  0  0  0  0  0  0  0  0  0  0  0
   45.4196   33.5335   45.9751 H   0  0  0  0  0  0  0  0  0  0  0  0
   44.8516   33.9665   37.5842 H   0  0  0  0  0  0  0  0  0  0  0  0
   44.5131   32.2823   35.5033 H   0  0  0  0  0  0  0  0  0  0  0  0
   47.0625   29.7915   35.4680 H   0  0  0  0  0  0  0  0  0  0  0  0
   49.4223   30.1444   34.3102 H   0  0  0  0  0  0  0  0  0  0  0  0
   47.9077   32.9634   34.0092 H   0  0  0  0  0  0  0  0  0  0  0  0
   45.8955   29.8037   32.9897 H   0  0  0  0  0  0  0  0  0  0  0  0
  2  1  1  0
  2  3  2  0
  3 12  1  0
  4  3  1  0
  5  4  2  0
  6  7  2  0
  6  5  1  0
  7  2  1  0
  8  9  2  0
 10 14  1  0
 10  9  1  0
 11 10  2  0
 12 11  1  0
 12 13  2  0
 13  8  1  0
 14 17  1  0
 15 14  1  0
 16 14  1  0
 18  7  1  0
 19 18  2  0
 20 19  1  0
 21 20  2  0
 21 22  1  0
 22 18  1  0
 23 21  1  0
 24 23  1  0
 25 24  1  0
 26 24  1  0
 27 24  1  0
  4 28  1  0
  5 29  1  0
  6 30  1  0
  8 31  1  0
  9 32  1  0
 19 33  1  0
 20 34  1  0
 23 35  1  0
 25 36  1  0
 26 37  1  0
 27 38  1  0
M  ISO  8  28  14  29  14  30  14  31  14  32  14  33  14  34  14  36   3
M  ISO  2  37   3  38   3
M  END
>  <minimizedAffinity>  (1) 
-5.93685389

>  <minimizedRMSD>  (1) 
1.10628426

$$$$
