
     RDKit          3D

 33 33  0  0  0  0  0  0  0  0999 V2000
   43.6320   33.5260   41.6000 S   0  0  0  0  0  0  0  0  0  0  0  0
   41.2470   32.1730   41.6990 C   0  0  0  0  0  0  0  0  0  0  0  0
   42.1280   32.8430   40.8810 C   0  0  0  0  0  0  0  0  0  0  0  0
   41.8730   32.9950   39.5240 C   0  0  0  0  0  0  0  0  0  0  0  0
   40.7230   32.4530   39.0600 N   0  0  0  0  0  0  0  0  0  0  0  0
   39.8690   31.8000   39.8690 C   0  0  0  0  0  0  0  0  0  0  0  0
   40.1010   31.6470   41.1710 N   0  0  0  0  0  0  0  0  0  0  0  0
   38.6700   31.2440   39.3380 N   0  0  0  0  0  0  0  0  0  0  0  0
   38.6830   30.0460   38.0950 S   0  0  0  0  0  0  0  0  0  0  0  0
   40.0230   29.3680   38.1390 O   0  0  0  0  0  0  0  0  0  0  0  0
   37.5880   29.0590   38.2840 O   0  0  0  0  0  0  0  0  0  0  0  0
   38.5900   30.8120   36.6020 O   0  0  0  0  0  0  0  0  0  0  0  0
   43.4440   35.2980   41.7940 C   0  0  0  0  0  0  0  0  0  0  0  0
   43.2720   35.5460   43.2170 N   0  0  0  0  0  0  0  0  0  0  0  0
   44.7500   35.8750   44.0200 S   0  0  0  0  0  0  0  0  0  0  0  0
   45.9250   35.3660   43.2600 O   0  0  0  0  0  0  0  0  0  0  0  0
   44.8370   37.3760   44.1510 O   0  0  0  0  0  0  0  0  0  0  0  0
   44.7150   35.2370   45.5610 O   0  0  0  0  0  0  0  0  0  0  0  0
   45.4230   34.0520   45.6670 C   0  0  0  0  0  0  0  0  0  0  0  0
   41.4638   32.0614   42.7716 H   0  0  0  0  0  0  0  0  0  0  0  0
   42.5698   33.5284   38.8608 H   0  0  0  0  0  0  0  0  0  0  0  0
   37.7648   31.5675   39.7080 H   0  0  0  0  0  0  0  0  0  0  0  0
   40.2929   29.2314   39.0816 H   0  0  0  0  0  0  0  0  0  0  0  0
   37.4330   28.9193   39.2518 H   0  0  0  0  0  0  0  0  0  0  0  0
   38.4718   31.7855   36.7374 H   0  0  0  0  0  0  0  0  0  0  0  0
   44.3405   35.8172   41.4242 H   0  0  0  0  0  0  0  0  0  0  0  0
   42.5824   35.6700   41.2202 H   0  0  0  0  0  0  0  0  0  0  0  0
   42.6459   36.3552   43.3363 H   0  0  0  0  0  0  0  0  0  0  0  0
   46.6225   35.0638   43.8942 H   0  0  0  0  0  0  0  0  0  0  0  0
   44.8513   37.6233   45.1095 H   0  0  0  0  0  0  0  0  0  0  0  0
   45.5698   33.8063   46.7291 H   0  0  0  0  0  0  0  0  0  0  0  0
   44.8599   33.2434   45.1781 H   0  0  0  0  0  0  0  0  0  0  0  0
   46.4019   34.1647   45.1781 H   0  0  0  0  0  0  0  0  0  0  0  0
  1 13  1  0
  3  1  1  0
  3  2  2  0
  4  3  1  0
  5  4  2  0
  5  6  1  0
  6  7  2  0
  7  2  1  0
  8  6  1  0
  9 10  1  0
  9 11  1  0
  9  8  1  0
 12  9  1  0
 13 14  1  0
 14 15  1  0
 15 17  1  0
 15 18  1  0
 16 15  1  0
 18 19  1  0
  2 20  1  0
  4 21  1  0
  8 22  1  0
 10 23  1  0
 11 24  1  0
 12 25  1  0
 13 26  1  0
 13 27  1  0
 14 28  1  0
 16 29  1  0
 17 30  1  0
 19 31  1  0
 19 32  1  0
 19 33  1  0
M  ISO  8  20  14  21  14  23   3  24   3  25   3  26   8  27   8  28   5
M  ISO  5  29   3  30   3  31   8  32   8  33   8
M  END
>  <minimizedAffinity>  (1) 
-4.35776329

>  <minimizedRMSD>  (1) 
2.43658209

$$$$
