
     RDKit          3D

 33 34  0  0  1  0  0  0  0  0999 V2000
   45.0040   35.8210   43.0650 C   0  0  0  0  0  0  0  0  0  0  0  0
   44.2540   35.0990   42.1010 C   0  0  0  0  0  0  0  0  0  0  0  0
   44.1780   33.7210   42.2480 C   0  0  0  0  0  0  0  0  0  0  0  0
   44.8180   33.1300   43.2970 N   0  0  0  0  0  0  0  0  0  0  0  0
   45.5270   33.8500   44.2030 C   0  0  0  0  0  0  0  0  0  0  0  0
   45.6040   35.1890   44.0640 N   0  0  0  0  0  0  0  0  0  0  0  0
   45.7220   33.5180   46.6660 C   0  0  2  0  0  0  0  0  0  0  0  0
   46.1770   33.1130   45.2940 C   0  0  1  0  0  0  0  0  0  0  0  0
   45.8760   31.6170   45.1240 C   0  0  0  0  0  0  0  0  0  0  0  0
   46.7890   31.0110   45.9890 O   0  0  0  0  0  0  0  0  0  0  0  0
   46.3150   31.1230   47.2660 C   0  0  0  0  0  0  0  0  0  0  0  0
   45.7810   32.4340   47.6840 C   0  0  2  0  0  0  0  0  0  0  0  0
   44.4300   34.0560   46.5040 O   0  0  0  0  0  0  0  0  0  0  0  0
   44.4570   32.2400   48.1420 O   0  0  0  0  0  0  0  0  0  0  0  0
   45.0900   37.2800   42.9190 C   0  0  0  0  0  0  0  0  0  0  0  0
   45.3020   38.0040   44.0100 C   0  0  0  0  0  0  0  0  0  0  0  0
   45.3990   39.4890   43.9190 C   0  0  0  0  0  0  0  0  0  0  0  0
   43.7514   35.6124   41.2680 H   0  0  0  0  0  0  0  0  0  0  0  0
   43.6093   33.1140   41.5282 H   0  0  0  0  0  0  0  0  0  0  0  0
   46.4160   34.2628   47.0828 H   0  0  0  0  0  0  0  0  0  0  0  0
   47.2503   33.3439   45.2254 H   0  0  0  0  0  0  0  0  0  0  0  0
   44.8412   31.3864   45.4171 H   0  0  0  0  0  0  0  0  0  0  0  0
   45.9707   31.2720   44.0838 H   0  0  0  0  0  0  0  0  0  0  0  0
   45.5068   30.3860   47.3829 H   0  0  0  0  0  0  0  0  0  0  0  0
   47.1953   30.9630   47.9058 H   0  0  0  0  0  0  0  0  0  0  0  0
   46.5013   32.7824   48.4388 H   0  0  0  0  0  0  0  0  0  0  0  0
   44.0283   34.2233   47.3932 H   0  0  0  0  0  0  0  0  0  0  0  0
   44.4471   32.2386   49.1319 H   0  0  0  0  0  0  0  0  0  0  0  0
   44.9818   37.7580   41.9342 H   0  0  0  0  0  0  0  0  0  0  0  0
   45.4066   37.5069   44.9857 H   0  0  0  0  0  0  0  0  0  0  0  0
   45.4270   39.9174   44.9318 H   0  0  0  0  0  0  0  0  0  0  0  0
   46.3170   39.7641   43.3790 H   0  0  0  0  0  0  0  0  0  0  0  0
   44.5246   39.8812   43.3790 H   0  0  0  0  0  0  0  0  0  0  0  0
  1  6  2  0
  2  3  2  0
  2  1  1  0
  3  4  1  0
  4  5  2  0
  6  5  1  0
  7 13  1  0
  7 12  1  0
  8  5  1  0
  8  7  1  0
  9  8  1  0
  9 10  1  0
 10 11  1  0
 11 12  1  0
 12 14  1  0
 15  1  1  0
 15 16  2  0
 17 16  1  0
  2 18  1  0
  3 19  1  0
  7 20  1  1
  8 21  1  1
  9 22  1  0
  9 23  1  0
 11 24  1  0
 11 25  1  0
 12 26  1  1
 13 27  1  0
 14 28  1  0
 15 29  1  0
 16 30  1  0
 17 31  1  0
 17 32  1  0
 17 33  1  0
M  ISO  8  18  14  19  14  20  13  21  13  22  13  23  13  24  13  25  13
M  ISO  6  26  13  27   3  28   3  31   8  32   8  33   8
M  END
>  <minimizedAffinity>  (1) 
-4.28704309

>  <minimizedRMSD>  (1) 
2.11045527

$$$$
