
     RDKit          3D

 45 47  0  0  1  0  0  0  0  0999 V2000
   49.6930   31.8820   41.3170 C   0  0  0  0  0  0  0  0  0  0  0  0
   51.0480   31.6560   41.6510 C   0  0  0  0  0  0  0  0  0  0  0  0
   51.9930   31.4920   40.6220 C   0  0  0  0  0  0  0  0  0  0  0  0
   51.5300   31.5640   39.3530 N   0  0  0  0  0  0  0  0  0  0  0  0
   50.2260   31.7830   39.0590 C   0  0  0  0  0  0  0  0  0  0  0  0
   49.3540   31.9340   40.0450 N   0  0  0  0  0  0  0  0  0  0  0  0
   48.9890   33.0110   37.3130 C   0  0  2  0  0  0  0  0  0  0  0  0
   49.8670   31.8370   37.6080 C   0  0  2  0  0  0  0  0  0  0  0  0
   49.1520   30.5860   37.1680 C   0  0  0  0  0  0  0  0  0  0  0  0
   47.7710   30.7600   37.1190 O   0  0  0  0  0  0  0  0  0  0  0  0
   47.3960   31.6170   36.0890 C   0  0  0  0  0  0  0  0  0  0  0  0
   48.2520   32.8380   36.0100 C   0  0  2  0  0  0  0  0  0  0  0  0
   49.7190   34.2030   37.2440 O   0  0  0  0  0  0  0  0  0  0  0  0
   49.1270   32.7990   34.9110 O   0  0  0  0  0  0  0  0  0  0  0  0
   48.7650   32.0440   42.4260 C   0  0  0  0  0  0  0  0  0  0  0  0
   48.3930   33.2790   42.7580 C   0  0  0  0  0  0  0  0  0  0  0  0
   47.4570   33.5580   43.8650 C   0  0  0  0  0  0  0  0  0  0  0  0
   44.8690   35.9910   43.2190 C   0  0  1  0  0  0  0  0  0  0  0  0
   46.1510   35.3500   42.6870 C   0  0  0  0  0  0  0  0  0  0  0  0
   46.0910   34.0150   43.3490 C   0  0  2  0  0  0  0  0  0  0  0  0
   45.1530   34.0420   44.3480 O   0  0  0  0  0  0  0  0  0  0  0  0
   44.7770   35.3430   44.5790 C   0  0  0  0  0  0  0  0  0  0  0  0
   45.0130   37.3700   43.2990 O   0  0  0  0  0  0  0  0  0  0  0  0
   51.3601   31.6089   42.7047 H   0  0  0  0  0  0  0  0  0  0  0  0
   53.0566   31.3139   40.8387 H   0  0  0  0  0  0  0  0  0  0  0  0
   48.2705   33.0668   38.1440 H   0  0  0  0  0  0  0  0  0  0  0  0
   50.8130   31.9307   37.0545 H   0  0  0  0  0  0  0  0  0  0  0  0
   49.5099   30.3071   36.1659 H   0  0  0  0  0  0  0  0  0  0  0  0
   49.3675   29.7970   37.9035 H   0  0  0  0  0  0  0  0  0  0  0  0
   47.4703   31.0737   35.1354 H   0  0  0  0  0  0  0  0  0  0  0  0
   46.3666   31.9474   36.2920 H   0  0  0  0  0  0  0  0  0  0  0  0
   47.6066   33.7138   35.8475 H   0  0  0  0  0  0  0  0  0  0  0  0
   49.9152   34.5233   38.1600 H   0  0  0  0  0  0  0  0  0  0  0  0
   50.0617   32.7573   35.2347 H   0  0  0  0  0  0  0  0  0  0  0  0
   48.3815   31.1711   42.9747 H   0  0  0  0  0  0  0  0  0  0  0  0
   48.7995   34.1250   42.1844 H   0  0  0  0  0  0  0  0  0  0  0  0
   47.3253   32.6422   44.4599 H   0  0  0  0  0  0  0  0  0  0  0  0
   47.8810   34.3678   44.4769 H   0  0  0  0  0  0  0  0  0  0  0  0
   43.9730   35.8442   42.5980 H   0  0  0  0  0  0  0  0  0  0  0  0
   46.1337   35.2595   41.5909 H   0  0  0  0  0  0  0  0  0  0  0  0
   47.0671   35.9217   42.8966 H   0  0  0  0  0  0  0  0  0  0  0  0
   45.7905   33.2704   42.5971 H   0  0  0  0  0  0  0  0  0  0  0  0
   45.4607   35.8280   45.2913 H   0  0  0  0  0  0  0  0  0  0  0  0
   43.7732   35.4236   45.0217 H   0  0  0  0  0  0  0  0  0  0  0  0
   45.0416   37.6442   44.2498 H   0  0  0  0  0  0  0  0  0  0  0  0
  1  2  2  0
  1 15  1  0
  3  2  1  0
  4  3  2  0
  5  4  1  0
  5  6  2  0
  6  1  1  0
  7 13  1  0
  7  8  1  0
  8  5  1  0
  9  8  1  0
 10  9  1  0
 11 10  1  0
 12 14  1  0
 12 11  1  0
 12  7  1  0
 15 16  2  0
 16 17  1  0
 18 23  1  0
 18 22  1  0
 19 18  1  0
 19 20  1  0
 20 17  1  0
 20 21  1  0
 21 22  1  0
  2 24  1  0
  3 25  1  0
  7 26  1  1
  8 27  1  6
  9 28  1  0
  9 29  1  0
 11 30  1  0
 11 31  1  0
 12 32  1  6
 13 33  1  0
 14 34  1  0
 15 35  1  0
 16 36  1  0
 17 37  1  0
 17 38  1  0
 18 39  1  6
 19 40  1  0
 19 41  1  0
 20 42  1  6
 22 43  1  0
 22 44  1  0
 23 45  1  0
M  ISO  8  24  14  25  14  26  13  27  13  28  13  29  13  30  13  31  13
M  ISO  8  32  13  33   3  34   3  37   8  38   8  39  13  40  13  41  13
M  ISO  4  42  13  43  13  44  13  45   3
M  END
>  <minimizedAffinity>  (1) 
-5.67043734

>  <minimizedRMSD>  (1) 
0.630068123

$$$$
