
     RDKit          3D

 51 54  0  0  1  0  0  0  0  0999 V2000
   42.8770   34.4100   38.9380 C   0  0  1  0  0  0  0  0  0  0  0  0
   43.0120   35.2280   40.2230 C   0  0  1  0  0  0  0  0  0  0  0  0
   41.7370   35.6590   40.6300 O   0  0  0  0  0  0  0  0  0  0  0  0
   40.8900   35.9390   39.5570 C   0  0  0  0  0  0  0  0  0  0  0  0
   40.4920   34.6620   38.8260 C   0  0  2  0  0  0  0  0  0  0  0  0
   41.5810   33.6270   39.1090 C   0  0  1  0  0  0  0  0  0  0  0  0
   42.7830   35.2500   37.8320 O   0  0  0  0  0  0  0  0  0  0  0  0
   40.6000   34.9260   37.4460 O   0  0  0  0  0  0  0  0  0  0  0  0
   43.4060   34.3210   41.2160 O   0  0  0  0  0  0  0  0  0  0  0  0
   44.5520   34.3660   41.8970 C   0  0  0  0  0  0  0  0  0  0  0  0
   45.7740   34.4990   41.2410 C   0  0  0  0  0  0  0  0  0  0  0  0
   46.9330   34.5410   42.0080 C   0  0  0  0  0  0  0  0  0  0  0  0
   46.8450   34.4500   43.3890 N   0  0  0  0  0  0  0  0  0  0  0  0
   45.6520   34.3230   43.9740 C   0  0  0  0  0  0  0  0  0  0  0  0
   44.5100   34.2810   43.2460 N   0  0  0  0  0  0  0  0  0  0  0  0
   48.2810   34.6750   41.3360 C   0  0  0  0  0  0  0  0  0  0  0  0
   49.0110   35.9840   41.5240 C   0  0  0  0  0  0  0  0  0  0  0  0
   49.4760   34.6530   42.1400 C   0  0  0  0  0  0  0  0  0  0  0  0
   41.4720   32.5550   38.2470 O   0  0  0  0  0  0  0  0  0  0  0  0
   39.3150   32.2430   39.2700 C   0  0  2  0  0  0  0  0  0  0  0  0
   40.5420   31.6000   38.6290 C   0  0  2  0  0  0  0  0  0  0  0  0
   41.1860   30.7590   39.7120 C   0  0  0  0  0  0  0  0  0  0  0  0
   41.5150   31.6470   40.7580 O   0  0  0  0  0  0  0  0  0  0  0  0
   40.3480   31.8100   41.5090 C   0  0  0  0  0  0  0  0  0  0  0  0
   39.0930   31.7220   40.6730 C   0  0  1  0  0  0  0  0  0  0  0  0
   38.1950   31.8880   38.5140 O   0  0  0  0  0  0  0  0  0  0  0  0
   38.0940   32.5170   41.2420 O   0  0  0  0  0  0  0  0  0  0  0  0
   43.7459   33.7560   38.7726 H   0  0  0  0  0  0  0  0  0  0  0  0
   43.7004   36.0723   40.0709 H   0  0  0  0  0  0  0  0  0  0  0  0
   39.9834   36.4346   39.9345 H   0  0  0  0  0  0  0  0  0  0  0  0
   41.4230   36.5941   38.8521 H   0  0  0  0  0  0  0  0  0  0  0  0
   39.4877   34.3291   39.1269 H   0  0  0  0  0  0  0  0  0  0  0  0
   41.5167   33.1772   40.1108 H   0  0  0  0  0  0  0  0  0  0  0  0
   42.6782   36.1861   38.1366 H   0  0  0  0  0  0  0  0  0  0  0  0
   40.9714   35.8338   37.3118 H   0  0  0  0  0  0  0  0  0  0  0  0
   45.8207   34.5690   40.1442 H   0  0  0  0  0  0  0  0  0  0  0  0
   45.5947   34.2509   45.0701 H   0  0  0  0  0  0  0  0  0  0  0  0
   47.9556   34.0861   40.4658 H   0  0  0  0  0  0  0  0  0  0  0  0
   49.5666   36.4397   40.6912 H   0  0  0  0  0  0  0  0  0  0  0  0
   48.7634   36.9907   41.8917 H   0  0  0  0  0  0  0  0  0  0  0  0
   49.4024   34.4970   43.2264 H   0  0  0  0  0  0  0  0  0  0  0  0
   50.4123   34.0762   42.1173 H   0  0  0  0  0  0  0  0  0  0  0  0
   39.4693   33.3315   39.3060 H   0  0  0  0  0  0  0  0  0  0  0  0
   40.2401   31.0263   37.7403 H   0  0  0  0  0  0  0  0  0  0  0  0
   40.4817   29.9934   40.0694 H   0  0  0  0  0  0  0  0  0  0  0  0
   42.0774   30.2358   39.3357 H   0  0  0  0  0  0  0  0  0  0  0  0
   40.3131   31.0243   42.2780 H   0  0  0  0  0  0  0  0  0  0  0  0
   40.3790   32.8162   41.9523 H   0  0  0  0  0  0  0  0  0  0  0  0
   38.8058   30.6608   40.6367 H   0  0  0  0  0  0  0  0  0  0  0  0
   37.4490   31.6515   39.1204 H   0  0  0  0  0  0  0  0  0  0  0  0
   38.1555   32.4681   42.2289 H   0  0  0  0  0  0  0  0  0  0  0  0
  1  6  1  0
  1  2  1  0
  2  3  1  0
  2  9  1  0
  4  3  1  0
  5  6  1  0
  5  4  1  0
  7  1  1  0
  8  5  1  0
  9 10  1  0
 10 15  1  0
 11 10  2  0
 11 12  1  0
 12 13  2  0
 13 14  1  0
 15 14  2  0
 16 17  1  0
 16 12  1  0
 16 18  1  0
 17 18  1  0
 19  6  1  0
 20 26  1  0
 20 25  1  0
 21 19  1  0
 21 20  1  0
 21 22  1  0
 22 23  1  0
 23 24  1  0
 25 27  1  0
 25 24  1  0
  1 28  1  6
  2 29  1  6
  4 30  1  0
  4 31  1  0
  5 32  1  6
  6 33  1  1
  7 34  1  0
  8 35  1  0
 11 36  1  0
 14 37  1  0
 16 38  1  0
 17 39  1  0
 17 40  1  0
 18 41  1  0
 18 42  1  0
 20 43  1  1
 21 44  1  6
 22 45  1  0
 22 46  1  0
 24 47  1  0
 24 48  1  0
 25 49  1  6
 26 50  1  0
 27 51  1  0
M  ISO  8  28  13  29  13  30  13  31  13  32  13  33  13  34   3  35   3
M  ISO  8  36  14  37  14  38  13  39  13  40  13  41  13  42  13  43  13
M  ISO  8  44  13  45  13  46  13  47  13  48  13  49  13  50   3  51   3
M  END
>  <minimizedAffinity>  (1) 
-6.92349339

>  <minimizedRMSD>  (1) 
1.08037925

$$$$
