
     RDKit          3D

 52 55  0  0  1  0  0  0  0  0999 V2000
   48.6790   32.5590   37.3850 C   0  0  1  0  0  0  0  0  0  0  0  0
   48.5280   33.9700   38.1540 C   0  0  1  0  0  0  0  0  0  0  0  0
   47.7470   34.5920   37.2500 O   0  0  0  0  0  0  0  0  0  0  0  0
   46.6410   33.6970   37.2270 C   0  0  0  0  0  0  0  0  0  0  0  0
   47.3070   32.4110   36.8040 C   0  0  1  0  0  0  0  0  0  0  0  0
   49.5590   32.8410   36.3320 O   0  0  0  0  0  0  0  0  0  0  0  0
   47.7650   33.6380   39.2730 O   0  0  0  0  0  0  0  0  0  0  0  0
   48.1010   34.2970   41.5250 C   0  0  2  0  0  0  0  0  0  0  0  0
   46.6910   33.6900   41.7680 C   0  0  1  0  0  0  0  0  0  0  0  0
   47.0560   32.4080   42.0590 O   0  0  0  0  0  0  0  0  0  0  0  0
   47.9070   32.0500   40.9940 C   0  0  0  0  0  0  0  0  0  0  0  0
   48.4760   33.3560   40.4030 C   0  0  1  0  0  0  0  0  0  0  0  0
   44.7220   36.0650   43.9900 C   0  0  0  0  0  0  0  0  0  0  0  0
   45.3280   35.6120   42.8150 C   0  0  0  0  0  0  0  0  0  0  0  0
   45.9960   34.4080   42.8440 C   0  0  0  0  0  0  0  0  0  0  0  0
   46.0200   33.7250   44.0400 N   0  0  0  0  0  0  0  0  0  0  0  0
   45.4270   34.1870   45.1560 C   0  0  0  0  0  0  0  0  0  0  0  0
   44.7760   35.3650   45.1250 N   0  0  0  0  0  0  0  0  0  0  0  0
   48.9360   34.0230   42.5670 O   0  0  0  0  0  0  0  0  0  0  0  0
   47.3320   32.3430   35.4240 O   0  0  0  0  0  0  0  0  0  0  0  0
   45.1400   31.7560   34.6000 C   0  0  2  0  0  0  0  0  0  0  0  0
   46.4830   31.3020   35.0550 C   0  0  2  0  0  0  0  0  0  0  0  0
   46.2430   30.3390   36.2180 C   0  0  0  0  0  0  0  0  0  0  0  0
   45.2390   29.4740   35.8600 O   0  0  0  0  0  0  0  0  0  0  0  0
   45.0350   29.3390   34.5020 C   0  0  0  0  0  0  0  0  0  0  0  0
   44.4850   30.6120   33.8540 C   0  0  1  0  0  0  0  0  0  0  0  0
   45.1250   32.9470   33.8920 O   0  0  0  0  0  0  0  0  0  0  0  0
   43.1070   30.6360   33.9610 O   0  0  0  0  0  0  0  0  0  0  0  0
   49.0174   31.6931   37.9730 H   0  0  0  0  0  0  0  0  0  0  0  0
   49.4238   34.5339   38.4532 H   0  0  0  0  0  0  0  0  0  0  0  0
   46.1790   33.6028   38.2208 H   0  0  0  0  0  0  0  0  0  0  0  0
   45.8189   34.0151   36.5690 H   0  0  0  0  0  0  0  0  0  0  0  0
   46.8047   31.4920   37.1404 H   0  0  0  0  0  0  0  0  0  0  0  0
   50.4344   33.1215   36.6996 H   0  0  0  0  0  0  0  0  0  0  0  0
   48.1427   35.3845   41.3651 H   0  0  0  0  0  0  0  0  0  0  0  0
   45.9617   33.7525   40.9469 H   0  0  0  0  0  0  0  0  0  0  0  0
   48.7262   31.4157   41.3636 H   0  0  0  0  0  0  0  0  0  0  0  0
   47.3561   31.4837   40.2286 H   0  0  0  0  0  0  0  0  0  0  0  0
   49.5402   33.3725   40.1250 H   0  0  0  0  0  0  0  0  0  0  0  0
   44.1856   37.0253   43.9791 H   0  0  0  0  0  0  0  0  0  0  0  0
   45.2728   36.2031   41.8889 H   0  0  0  0  0  0  0  0  0  0  0  0
   45.4739   33.6054   46.0885 H   0  0  0  0  0  0  0  0  0  0  0  0
   48.4602   34.1791   43.4210 H   0  0  0  0  0  0  0  0  0  0  0  0
   44.5525   32.0130   35.4937 H   0  0  0  0  0  0  0  0  0  0  0  0
   47.0046   30.8120   34.2196 H   0  0  0  0  0  0  0  0  0  0  0  0
   47.1630   29.7742   36.4294 H   0  0  0  0  0  0  0  0  0  0  0  0
   45.9577   30.8984   37.1211 H   0  0  0  0  0  0  0  0  0  0  0  0
   45.9946   29.0889   34.0259 H   0  0  0  0  0  0  0  0  0  0  0  0
   44.2877   28.5449   34.3573 H   0  0  0  0  0  0  0  0  0  0  0  0
   44.7071   30.6759   32.7785 H   0  0  0  0  0  0  0  0  0  0  0  0
   45.1154   33.7075   34.5257 H   0  0  0  0  0  0  0  0  0  0  0  0
   42.8503   30.6405   34.9171 H   0  0  0  0  0  0  0  0  0  0  0  0
  1  2  1  0
  2  7  1  0
  3  2  1  0
  4  3  1  0
  5  4  1  0
  5  1  1  0
  6  1  1  0
  7 12  1  0
  8  9  1  0
  8 19  1  0
  9 10  1  0
  9 15  1  0
 11 10  1  0
 12 11  1  0
 12  8  1  0
 13 18  2  0
 14 15  2  0
 14 13  1  0
 15 16  1  0
 16 17  2  0
 18 17  1  0
 20  5  1  0
 21 27  1  0
 21 22  1  0
 22 20  1  0
 22 23  1  0
 24 23  1  0
 25 24  1  0
 26 28  1  0
 26 25  1  0
 26 21  1  0
  1 29  1  1
  2 30  1  1
  4 31  1  0
  4 32  1  0
  5 33  1  1
  6 34  1  0
  8 35  1  6
  9 36  1  6
 11 37  1  0
 11 38  1  0
 12 39  1  6
 13 40  1  0
 14 41  1  0
 17 42  1  0
 19 43  1  0
 21 44  1  1
 22 45  1  6
 23 46  1  0
 23 47  1  0
 25 48  1  0
 25 49  1  0
 26 50  1  6
 27 51  1  0
 28 52  1  0
M  ISO  8  29  13  30  13  31  13  32  13  33  13  34   3  35  13  36  13
M  ISO  8  37  13  38  13  39  13  40  14  41  14  42  14  43   3  44  13
M  ISO  8  45  13  46  13  47  13  48  13  49  13  50  13  51   3  52   3
M  END
>  <minimizedAffinity>  (1) 
-6.52873707

>  <minimizedRMSD>  (1) 
1.56712461

$$$$
