
     RDKit          3D

 27 28  0  0  1  0  0  0  0  0999 V2000
   48.7010   34.6060   42.7760 C   0  0  2  0  0  0  0  0  0  0  0  0
   48.6270   33.1160   42.7370 C   0  0  2  0  0  0  0  0  0  0  0  0
   48.5050   32.5340   41.3630 C   0  0  0  0  0  0  0  0  0  0  0  0
   48.8670   33.4100   40.3420 O   0  0  0  0  0  0  0  0  0  0  0  0
   47.9600   34.4600   40.3800 C   0  0  0  0  0  0  0  0  0  0  0  0
   48.3420   35.3350   41.5420 C   0  0  2  0  0  0  0  0  0  0  0  0
   49.9940   34.9890   43.2040 O   0  0  0  0  0  0  0  0  0  0  0  0
   49.3960   36.1770   41.1510 O   0  0  0  0  0  0  0  0  0  0  0  0
   47.2430   32.5180   43.7740 S   0  0  0  0  0  0  0  0  0  0  0  0
   44.3690   35.3140   43.0780 C   0  0  0  0  0  0  0  0  0  0  0  0
   45.3410   34.3030   42.8750 C   0  0  0  0  0  0  0  0  0  0  0  0
   46.0160   33.7890   43.9880 C   0  0  0  0  0  0  0  0  0  0  0  0
   45.7000   34.2910   45.2140 N   0  0  0  0  0  0  0  0  0  0  0  0
   44.7780   35.2460   45.3780 C   0  0  0  0  0  0  0  0  0  0  0  0
   44.1120   35.7610   44.3280 N   0  0  0  0  0  0  0  0  0  0  0  0
   47.9135   34.9030   43.4843 H   0  0  0  0  0  0  0  0  0  0  0  0
   49.5922   32.7696   43.1349 H   0  0  0  0  0  0  0  0  0  0  0  0
   49.1535   31.6474   41.3041 H   0  0  0  0  0  0  0  0  0  0  0  0
   47.4424   32.2925   41.2131 H   0  0  0  0  0  0  0  0  0  0  0  0
   48.0090   35.0346   39.4433 H   0  0  0  0  0  0  0  0  0  0  0  0
   46.9324   34.0847   40.4947 H   0  0  0  0  0  0  0  0  0  0  0  0
   47.4436   35.9130   41.8043 H   0  0  0  0  0  0  0  0  0  0  0  0
   50.0249   34.9981   44.1935 H   0  0  0  0  0  0  0  0  0  0  0  0
   49.8466   36.5370   41.9556 H   0  0  0  0  0  0  0  0  0  0  0  0
   43.8243   35.7346   42.2199 H   0  0  0  0  0  0  0  0  0  0  0  0
   45.5604   33.9300   41.8637 H   0  0  0  0  0  0  0  0  0  0  0  0
   44.5600   35.6175   46.3902 H   0  0  0  0  0  0  0  0  0  0  0  0
  1  7  1  0
  2  1  1  0
  2  9  1  0
  3  2  1  0
  4  5  1  0
  4  3  1  0
  5  6  1  0
  6  8  1  0
  6  1  1  0
  9 12  1  0
 10 15  2  0
 11 10  1  0
 11 12  2  0
 12 13  1  0
 13 14  2  0
 15 14  1  0
  1 16  1  1
  2 17  1  1
  3 18  1  0
  3 19  1  0
  5 20  1  0
  5 21  1  0
  6 22  1  1
  7 23  1  0
  8 24  1  0
 10 25  1  0
 11 26  1  0
 14 27  1  0
M  ISO  8  16  13  17  13  18  13  19  13  20  13  21  13  22  13  23   3
M  ISO  4  24   3  25  14  26  14  27  14
M  END
>  <minimizedAffinity>  (1) 
-5.01383972

>  <minimizedRMSD>  (1) 
2.55261517

$$$$
