
     RDKit          3D

 30 31  0  0  1  0  0  0  0  0999 V2000
   42.4610   34.1320   41.5490 O   0  0  0  0  0  0  0  0  0  0  0  0
   40.2270   33.3830   41.4560 C   0  0  2  0  0  0  0  0  0  0  0  0
   41.1950   34.4830   41.1660 C   0  0  2  0  0  0  0  0  0  0  0  0
   41.0490   34.8490   39.7120 C   0  0  0  0  0  0  0  0  0  0  0  0
   39.7760   35.4120   39.6210 O   0  0  0  0  0  0  0  0  0  0  0  0
   38.8550   34.4070   39.6020 C   0  0  0  0  0  0  0  0  0  0  0  0
   39.1400   33.2230   40.4450 C   0  0  2  0  0  0  0  0  0  0  0  0
   39.6930   33.6040   42.7270 O   0  0  0  0  0  0  0  0  0  0  0  0
   37.9930   32.7340   41.0760 O   0  0  0  0  0  0  0  0  0  0  0  0
   43.4080   34.2680   40.5460 C   0  0  0  0  0  0  0  0  0  0  0  0
   44.8610   35.2110   42.2060 C   0  0  0  0  0  0  0  0  0  0  0  0
   44.7690   34.4660   41.0470 C   0  0  0  0  0  0  0  0  0  0  0  0
   45.9540   33.9950   40.4930 C   0  0  0  0  0  0  0  0  0  0  0  0
   47.0910   34.3000   41.1290 N   0  0  0  0  0  0  0  0  0  0  0  0
   47.1750   35.0230   42.2520 C   0  0  0  0  0  0  0  0  0  0  0  0
   46.0350   35.5170   42.8480 N   0  0  0  0  0  0  0  0  0  0  0  0
   40.7835   32.4353   41.4090 H   0  0  0  0  0  0  0  0  0  0  0  0
   40.9783   35.3852   41.7568 H   0  0  0  0  0  0  0  0  0  0  0  0
   41.8184   35.5768   39.4149 H   0  0  0  0  0  0  0  0  0  0  0  0
   41.1716   33.9812   39.0473 H   0  0  0  0  0  0  0  0  0  0  0  0
   37.8952   34.8290   39.9348 H   0  0  0  0  0  0  0  0  0  0  0  0
   38.8603   34.0317   38.5680 H   0  0  0  0  0  0  0  0  0  0  0  0
   39.5138   32.4934   39.7116 H   0  0  0  0  0  0  0  0  0  0  0  0
   40.3519   33.3313   43.4137 H   0  0  0  0  0  0  0  0  0  0  0  0
   38.1098   32.7838   42.0578 H   0  0  0  0  0  0  0  0  0  0  0  0
   43.1360   35.1353   39.9264 H   0  0  0  0  0  0  0  0  0  0  0  0
   43.4087   33.3284   39.9740 H   0  0  0  0  0  0  0  0  0  0  0  0
   43.9257   35.5865   42.6467 H   0  0  0  0  0  0  0  0  0  0  0  0
   45.9567   33.3964   39.5701 H   0  0  0  0  0  0  0  0  0  0  0  0
   48.1587   35.2239   42.7014 H   0  0  0  0  0  0  0  0  0  0  0  0
  2  8  1  0
  3  2  1  0
  3  1  1  0
  4  3  1  0
  5  4  1  0
  6  5  1  0
  6  7  1  0
  7  9  1  0
  7  2  1  0
 10 12  1  0
 10  1  1  0
 11 16  2  0
 12 11  1  0
 13 12  2  0
 13 14  1  0
 14 15  2  0
 15 16  1  0
  2 17  1  1
  3 18  1  1
  4 19  1  0
  4 20  1  0
  6 21  1  0
  6 22  1  0
  7 23  1  6
  8 24  1  0
  9 25  1  0
 10 26  1  0
 10 27  1  0
 11 28  1  0
 13 29  1  0
 15 30  1  0
M  ISO  8  17  13  18  13  19  13  20  13  21  13  22  13  23  13  24   3
M  ISO  6  25   3  26   8  27   8  28  14  29  14  30  14
M  END
>  <minimizedAffinity>  (1) 
-5.20706272

>  <minimizedRMSD>  (1) 
3.56387973

$$$$
