
     RDKit          3D

 39 41  0  0  1  0  0  0  0  0999 V2000
   45.2050   34.5830   41.2850 C   0  0  1  0  0  0  0  0  0  0  0  0
   44.0110   34.1600   40.5800 N   0  0  0  0  0  0  0  0  0  0  0  0
   43.0770   35.2200   40.3900 C   0  0  0  0  0  0  0  0  0  0  0  0
   41.7690   34.5340   39.9870 C   0  0  0  0  0  0  0  0  0  0  0  0
   42.0320   34.0970   38.6410 N   0  0  0  0  0  0  0  0  0  0  0  0
   43.1220   33.1870   38.5000 C   0  0  0  0  0  0  0  0  0  0  0  0
   44.2740   33.3760   39.4340 C   0  0  0  0  0  0  0  0  0  0  0  0
   44.8750   36.0580   43.2290 C   0  0  0  0  0  0  0  0  0  0  0  0
   45.0700   34.7720   42.7020 C   0  0  0  0  0  0  0  0  0  0  0  0
   45.1360   33.6870   43.5800 C   0  0  0  0  0  0  0  0  0  0  0  0
   45.0030   33.9530   44.9230 N   0  0  0  0  0  0  0  0  0  0  0  0
   44.8170   35.1970   45.4080 C   0  0  0  0  0  0  0  0  0  0  0  0
   44.7500   36.2640   44.5650 N   0  0  0  0  0  0  0  0  0  0  0  0
   46.3260   33.5790   41.0080 C   0  0  0  0  0  0  0  0  0  0  0  0
   47.6280   34.1180   41.4750 C   0  0  0  0  0  0  0  0  0  0  0  0
   48.4130   33.1910   42.1490 C   0  0  0  0  0  0  0  0  0  0  0  0
   49.6550   33.6290   42.6200 C   0  0  0  0  0  0  0  0  0  0  0  0
   50.0660   34.9370   42.4110 C   0  0  0  0  0  0  0  0  0  0  0  0
   49.2400   35.8260   41.7300 C   0  0  0  0  0  0  0  0  0  0  0  0
   48.0440   35.4040   41.2780 N   0  0  0  0  0  0  0  0  0  0  0  0
   45.4322   35.5853   40.8927 H   0  0  0  0  0  0  0  0  0  0  0  0
   42.9434   35.7883   41.3223 H   0  0  0  0  0  0  0  0  0  0  0  0
   43.4174   35.9367   39.6281 H   0  0  0  0  0  0  0  0  0  0  0  0
   41.5523   33.6793   40.6446 H   0  0  0  0  0  0  0  0  0  0  0  0
   40.8924   35.1940   40.0643 H   0  0  0  0  0  0  0  0  0  0  0  0
   41.1832   33.6353   38.2842 H   0  0  0  0  0  0  0  0  0  0  0  0
   42.7307   32.1705   38.6535 H   0  0  0  0  0  0  0  0  0  0  0  0
   43.5285   33.3733   37.4950 H   0  0  0  0  0  0  0  0  0  0  0  0
   44.6015   32.3819   39.7724 H   0  0  0  0  0  0  0  0  0  0  0  0
   45.0363   33.9260   38.8627 H   0  0  0  0  0  0  0  0  0  0  0  0
   44.8223   36.9177   42.5447 H   0  0  0  0  0  0  0  0  0  0  0  0
   45.2882   32.6616   43.2121 H   0  0  0  0  0  0  0  0  0  0  0  0
   44.7186   35.3511   46.4927 H   0  0  0  0  0  0  0  0  0  0  0  0
   46.1110   32.6396   41.5384 H   0  0  0  0  0  0  0  0  0  0  0  0
   46.3825   33.3959   39.9248 H   0  0  0  0  0  0  0  0  0  0  0  0
   48.0724   32.1568   42.3056 H   0  0  0  0  0  0  0  0  0  0  0  0
   50.3109   32.9306   43.1604 H   0  0  0  0  0  0  0  0  0  0  0  0
   51.0453   35.2718   42.7837 H   0  0  0  0  0  0  0  0  0  0  0  0
   49.5614   36.8646   41.5624 H   0  0  0  0  0  0  0  0  0  0  0  0
  1  9  1  0
  2  1  1  0
  3  2  1  0
  4  3  1  0
  5  4  1  0
  6  5  1  0
  6  7  1  0
  7  2  1  0
  8 13  2  0
  9  8  1  0
  9 10  2  0
 10 11  1  0
 11 12  2  0
 13 12  1  0
 14  1  1  0
 14 15  1  0
 15 16  2  0
 16 17  1  0
 18 17  2  0
 19 18  1  0
 20 15  1  0
 20 19  2  0
  1 21  1  6
  3 22  1  0
  3 23  1  0
  4 24  1  0
  4 25  1  0
  5 26  1  0
  6 27  1  0
  6 28  1  0
  7 29  1  0
  7 30  1  0
  8 31  1  0
 10 32  1  0
 12 33  1  0
 14 34  1  0
 14 35  1  0
 16 36  1  0
 17 37  1  0
 18 38  1  0
 19 39  1  0
M  ISO  8  21   8  22  13  23  13  24  13  25  13  26   5  27  13  28  13
M  ISO  8  29  13  30  13  31  14  32  14  33  14  34   8  35   8  36  14
M  ISO  3  37  14  38  14  39  14
M  END
>  <minimizedAffinity>  (1) 
-5.06142092

>  <minimizedRMSD>  (1) 
2.65359235

$$$$
