
     RDKit          3D

 33 36  0  0  0  0  0  0  0  0999 V2000
   46.8720   33.4630   39.0980 C   0  0  0  0  0  0  0  0  0  0  0  0
   48.2380   33.2590   39.2310 C   0  0  0  0  0  0  0  0  0  0  0  0
   48.8210   33.5110   40.4870 C   0  0  0  0  0  0  0  0  0  0  0  0
   48.0000   33.9410   41.4900 N   0  0  0  0  0  0  0  0  0  0  0  0
   46.6680   34.1240   41.3080 C   0  0  0  0  0  0  0  0  0  0  0  0
   46.1230   33.8840   40.1170 N   0  0  0  0  0  0  0  0  0  0  0  0
   45.9020   34.5770   42.4150 N   0  0  0  0  0  0  0  0  0  0  0  0
   44.9520   35.5460   42.3820 C   0  0  0  0  0  0  0  0  0  0  0  0
   44.4530   35.6920   43.6340 N   0  0  0  0  0  0  0  0  0  0  0  0
   45.1040   34.8100   44.4080 C   0  0  0  0  0  0  0  0  0  0  0  0
   45.0380   34.4920   45.7460 C   0  0  0  0  0  0  0  0  0  0  0  0
   45.7970   33.5670   46.2930 N   0  0  0  0  0  0  0  0  0  0  0  0
   46.7040   32.8560   45.5720 C   0  0  0  0  0  0  0  0  0  0  0  0
   46.7600   33.1750   44.2650 N   0  0  0  0  0  0  0  0  0  0  0  0
   46.0200   34.0960   43.6660 C   0  0  0  0  0  0  0  0  0  0  0  0
   44.1540   35.1360   46.6350 N   0  0  0  0  0  0  0  0  0  0  0  0
   46.2180   33.1140   37.4450 S   0  0  0  0  0  0  0  0  0  0  0  0
   47.3670   32.1560   36.5150 C   0  0  0  0  0  0  0  0  0  0  0  0
   47.4800   30.7750   36.6350 C   0  0  0  0  0  0  0  0  0  0  0  0
   48.4020   30.0600   35.8790 C   0  0  0  0  0  0  0  0  0  0  0  0
   49.2270   30.7410   34.9840 C   0  0  0  0  0  0  0  0  0  0  0  0
   49.0840   32.1100   34.8930 C   0  0  0  0  0  0  0  0  0  0  0  0
   48.1750   32.7910   35.6420 N   0  0  0  0  0  0  0  0  0  0  0  0
   48.8456   32.9116   38.3824 H   0  0  0  0  0  0  0  0  0  0  0  0
   49.8986   33.3669   40.6546 H   0  0  0  0  0  0  0  0  0  0  0  0
   44.6409   36.1144   41.4931 H   0  0  0  0  0  0  0  0  0  0  0  0
   47.3422   32.0808   46.0211 H   0  0  0  0  0  0  0  0  0  0  0  0
   44.1369   34.8672   47.6292 H   0  0  0  0  0  0  0  0  0  0  0  0
   43.5251   35.8754   46.2905 H   0  0  0  0  0  0  0  0  0  0  0  0
   46.8283   30.2389   37.3406 H   0  0  0  0  0  0  0  0  0  0  0  0
   48.4801   28.9680   35.9856 H   0  0  0  0  0  0  0  0  0  0  0  0
   49.9666   30.2046   34.3715 H   0  0  0  0  0  0  0  0  0  0  0  0
   49.7242   32.6679   34.1938 H   0  0  0  0  0  0  0  0  0  0  0  0
  1  2  2  0
  1  6  1  0
  2  3  1  0
  3  4  2  0
  5  4  1  0
  5  7  1  0
  6  5  2  0
  7 15  1  0
  8  7  1  0
  8  9  2  0
  9 10  1  0
 10 11  2  0
 11 12  1  0
 11 16  1  0
 13 12  2  0
 14 13  1  0
 15 14  2  0
 15 10  1  0
 17  1  1  0
 18 19  2  0
 18 17  1  0
 20 19  1  0
 21 20  2  0
 22 21  1  0
 22 23  2  0
 23 18  1  0
  2 24  1  0
  3 25  1  0
  8 26  1  0
 13 27  1  0
 16 28  1  0
 16 29  1  0
 19 30  1  0
 20 31  1  0
 21 32  1  0
 22 33  1  0
M  ISO  8  24  14  25  14  26  14  27  14  30  14  31  14  32  14  33  14
M  END
>  <minimizedAffinity>  (1) 
-5.78986311

>  <minimizedRMSD>  (1) 
1.57340598

$$$$
