
     RDKit          3D

 34 36  0  0  1  0  0  0  0  0999 V2000
   46.7790   34.5500   42.3140 N   0  0  0  0  0  0  0  0  0  0  0  0
   48.2260   34.5600   42.3290 C   0  0  0  0  0  0  0  0  0  0  0  0
   48.6470   35.3200   41.0750 C   0  0  0  0  0  0  0  0  0  0  0  0
   48.2270   34.5980   39.8390 C   0  0  0  0  0  0  0  0  0  0  0  0
   46.8980   33.9320   39.9340 C   0  0  0  0  0  0  0  0  0  0  0  0
   46.0560   34.2950   41.1020 C   0  0  1  0  0  0  0  0  0  0  0  0
   44.4460   36.0170   44.8400 C   0  0  0  0  0  0  0  0  0  0  0  0
   45.1400   35.8850   43.6350 C   0  0  0  0  0  0  0  0  0  0  0  0
   46.0130   34.7910   43.4980 C   0  0  0  0  0  0  0  0  0  0  0  0
   46.1350   33.9210   44.5430 N   0  0  0  0  0  0  0  0  0  0  0  0
   45.4410   34.0830   45.7040 C   0  0  0  0  0  0  0  0  0  0  0  0
   44.5960   35.1370   45.8450 N   0  0  0  0  0  0  0  0  0  0  0  0
   45.1500   33.1270   41.3800 C   0  0  0  0  0  0  0  0  0  0  0  0
   45.6290   31.8570   41.6060 C   0  0  0  0  0  0  0  0  0  0  0  0
   44.8200   30.7720   41.8630 C   0  0  0  0  0  0  0  0  0  0  0  0
   43.4610   30.9960   41.8890 C   0  0  0  0  0  0  0  0  0  0  0  0
   42.9600   32.2820   41.6610 C   0  0  0  0  0  0  0  0  0  0  0  0
   43.8190   33.3130   41.4130 N   0  0  0  0  0  0  0  0  0  0  0  0
   48.5966   35.0712   43.2297 H   0  0  0  0  0  0  0  0  0  0  0  0
   48.6388   33.5405   42.3434 H   0  0  0  0  0  0  0  0  0  0  0  0
   48.1794   36.3156   41.0851 H   0  0  0  0  0  0  0  0  0  0  0  0
   49.7436   35.4060   41.0720 H   0  0  0  0  0  0  0  0  0  0  0  0
   48.9816   33.8290   39.6172 H   0  0  0  0  0  0  0  0  0  0  0  0
   48.1407   35.3570   39.0475 H   0  0  0  0  0  0  0  0  0  0  0  0
   46.3330   34.1827   39.0241 H   0  0  0  0  0  0  0  0  0  0  0  0
   47.1176   32.8610   40.0556 H   0  0  0  0  0  0  0  0  0  0  0  0
   45.5377   35.2272   40.8329 H   0  0  0  0  0  0  0  0  0  0  0  0
   43.7574   36.8649   44.9702 H   0  0  0  0  0  0  0  0  0  0  0  0
   45.0081   36.6124   42.8205 H   0  0  0  0  0  0  0  0  0  0  0  0
   45.5647   33.3619   46.5254 H   0  0  0  0  0  0  0  0  0  0  0  0
   46.7174   31.6995   41.5800 H   0  0  0  0  0  0  0  0  0  0  0  0
   45.2406   29.7710   42.0396 H   0  0  0  0  0  0  0  0  0  0  0  0
   42.7700   30.1638   42.0890 H   0  0  0  0  0  0  0  0  0  0  0  0
   41.8750   32.4620   41.6816 H   0  0  0  0  0  0  0  0  0  0  0  0
  1  2  1  0
  1  9  1  0
  3  2  1  0
  4  5  1  0
  4  3  1  0
  5  6  1  0
  6 13  1  0
  6  1  1  0
  7 12  2  0
  8  7  1  0
  9  8  2  0
  9 10  1  0
 10 11  2  0
 11 12  1  0
 13 18  1  0
 13 14  2  0
 14 15  1  0
 15 16  2  0
 17 16  1  0
 18 17  2  0
  2 19  1  0
  2 20  1  0
  3 21  1  0
  3 22  1  0
  4 23  1  0
  4 24  1  0
  5 25  1  0
  5 26  1  0
  6 27  1  6
  7 28  1  0
  8 29  1  0
 11 30  1  0
 14 31  1  0
 15 32  1  0
 16 33  1  0
 17 34  1  0
M  ISO  8  19  13  20  13  21  13  22  13  23  13  24  13  25  13  26  13
M  ISO  8  27  13  28  14  29  14  30  14  31  14  32  14  33  14  34  14
M  END
>  <minimizedAffinity>  (1) 
-5.0901351

>  <minimizedRMSD>  (1) 
0.784122884

$$$$
