
     RDKit          3D

 41 44  0  0  1  0  0  0  0  0999 V2000
   49.5540   33.5550   41.3440 N   0  0  0  0  0  0  0  0  0  0  0  0
   50.6830   33.0540   42.0760 C   0  0  0  0  0  0  0  0  0  0  0  0
   51.2010   31.7250   41.6690 C   0  0  0  0  0  0  0  0  0  0  0  0
   50.1510   30.6680   41.8600 C   0  0  0  0  0  0  0  0  0  0  0  0
   48.7820   31.2110   41.6300 C   0  0  0  0  0  0  0  0  0  0  0  0
   48.8260   32.4380   40.7850 C   0  0  2  0  0  0  0  0  0  0  0  0
   48.9440   32.2600   39.3400 C   0  0  0  0  0  0  0  0  0  0  0  0
   49.3100   31.1410   38.6220 C   0  0  0  0  0  0  0  0  0  0  0  0
   49.3840   31.0260   37.2530 C   0  0  0  0  0  0  0  0  0  0  0  0
   49.0680   32.1270   36.4930 C   0  0  0  0  0  0  0  0  0  0  0  0
   48.7010   33.2550   37.1880 C   0  0  0  0  0  0  0  0  0  0  0  0
   48.6430   33.3180   38.5280 N   0  0  0  0  0  0  0  0  0  0  0  0
   47.3720   34.7940   41.9460 C   0  0  1  0  0  0  0  0  0  0  0  0
   48.4660   35.7250   41.7640 C   0  0  0  0  0  0  0  0  0  0  0  0
   48.7920   34.3490   42.2690 C   0  0  2  0  0  0  0  0  0  0  0  0
   45.5470   36.0420   43.1590 C   0  0  0  0  0  0  0  0  0  0  0  0
   46.4200   34.9190   43.0840 C   0  0  0  0  0  0  0  0  0  0  0  0
   46.3450   33.9780   44.0920 C   0  0  0  0  0  0  0  0  0  0  0  0
   45.4410   34.1870   45.0900 N   0  0  0  0  0  0  0  0  0  0  0  0
   44.6270   35.2570   45.1370 C   0  0  0  0  0  0  0  0  0  0  0  0
   44.6680   36.1960   44.1750 N   0  0  0  0  0  0  0  0  0  0  0  0
   51.5019   33.7799   41.9646 H   0  0  0  0  0  0  0  0  0  0  0  0
   50.3249   32.9225   43.1077 H   0  0  0  0  0  0  0  0  0  0  0  0
   52.0801   31.4764   42.2817 H   0  0  0  0  0  0  0  0  0  0  0  0
   51.4775   31.7625   40.6050 H   0  0  0  0  0  0  0  0  0  0  0  0
   50.3348   29.8488   41.1492 H   0  0  0  0  0  0  0  0  0  0  0  0
   50.2095   30.3065   42.8973 H   0  0  0  0  0  0  0  0  0  0  0  0
   48.1732   30.4476   41.1234 H   0  0  0  0  0  0  0  0  0  0  0  0
   48.3421   31.4730   42.6036 H   0  0  0  0  0  0  0  0  0  0  0  0
   47.7776   32.7639   40.8524 H   0  0  0  0  0  0  0  0  0  0  0  0
   49.5703   30.2456   39.2056 H   0  0  0  0  0  0  0  0  0  0  0  0
   49.6873   30.0802   36.7802 H   0  0  0  0  0  0  0  0  0  0  0  0
   49.1065   32.1067   35.3939 H   0  0  0  0  0  0  0  0  0  0  0  0
   48.4402   34.1565   36.6141 H   0  0  0  0  0  0  0  0  0  0  0  0
   46.5588   34.4569   41.2863 H   0  0  0  0  0  0  0  0  0  0  0  0
   48.7683   36.0172   40.7475 H   0  0  0  0  0  0  0  0  0  0  0  0
   48.6733   36.7423   42.1274 H   0  0  0  0  0  0  0  0  0  0  0  0
   49.2479   33.8661   43.1459 H   0  0  0  0  0  0  0  0  0  0  0  0
   45.5890   36.8055   42.3682 H   0  0  0  0  0  0  0  0  0  0  0  0
   46.9934   33.0894   44.0894 H   0  0  0  0  0  0  0  0  0  0  0  0
   43.9194   35.3652   45.9722 H   0  0  0  0  0  0  0  0  0  0  0  0
  1  2  1  0
  1 15  1  0
  3  4  1  0
  3  2  1  0
  5  4  1  0
  6  1  1  0
  6  5  1  0
  7  6  1  0
  8  7  2  0
  9  8  1  0
 10 11  1  0
 10  9  2  0
 11 12  2  0
 12  7  1  0
 13 15  1  0
 13 17  1  0
 14 13  1  0
 14 15  1  0
 16 21  2  0
 17 16  1  0
 17 18  2  0
 18 19  1  0
 19 20  2  0
 21 20  1  0
  2 22  1  0
  2 23  1  0
  3 24  1  0
  3 25  1  0
  4 26  1  0
  4 27  1  0
  5 28  1  0
  5 29  1  0
  6 30  1  6
  8 31  1  0
  9 32  1  0
 10 33  1  0
 11 34  1  0
 13 35  1  6
 14 36  1  0
 14 37  1  0
 15 38  1  1
 16 39  1  0
 18 40  1  0
 20 41  1  0
M  ISO  8  22  13  23  13  24  13  25  13  26  13  27  13  28  13  29  13
M  ISO  8  30  13  31  14  32  14  33  14  34  14  35  13  36  13  37  13
M  ISO  4  38  13  39  14  40  14  41  14
M  END
>  <minimizedAffinity>  (1) 
-5.09446573

>  <minimizedRMSD>  (1) 
1.11733735

$$$$
