
     RDKit          3D

 21 22  0  0  0  0  0  0  0  0999 V2000
   44.4860   35.5750   45.0770 C   0  0  0  0  0  0  0  0  0  0  0  0
   45.0930   35.4780   43.8260 C   0  0  0  0  0  0  0  0  0  0  0  0
   46.0290   34.4770   43.6180 C   0  0  0  0  0  0  0  0  0  0  0  0
   46.3020   33.6450   44.6520 N   0  0  0  0  0  0  0  0  0  0  0  0
   45.7060   33.7550   45.8530 C   0  0  0  0  0  0  0  0  0  0  0  0
   44.7960   34.7170   46.0750 N   0  0  0  0  0  0  0  0  0  0  0  0
   46.0540   32.8200   46.9150 C   0  0  0  0  0  0  0  0  0  0  0  0
   45.1750   32.5590   47.9380 C   0  0  0  0  0  0  0  0  0  0  0  0
   45.4010   31.7000   48.9850 C   0  0  0  0  0  0  0  0  0  0  0  0
   46.6190   31.0360   49.0150 C   0  0  0  0  0  0  0  0  0  0  0  0
   47.5010   31.2960   47.9920 C   0  0  0  0  0  0  0  0  0  0  0  0
   47.2100   32.1560   46.9910 N   0  0  0  0  0  0  0  0  0  0  0  0
   44.6850   36.4410   42.8480 N   0  0  0  0  0  0  0  0  0  0  0  0
   43.7409   36.3642   45.2557 H   0  0  0  0  0  0  0  0  0  0  0  0
   46.5328   34.3620   42.6469 H   0  0  0  0  0  0  0  0  0  0  0  0
   44.2079   33.0827   47.9165 H   0  0  0  0  0  0  0  0  0  0  0  0
   44.6458   31.5443   49.7695 H   0  0  0  0  0  0  0  0  0  0  0  0
   46.8686   30.3318   49.8224 H   0  0  0  0  0  0  0  0  0  0  0  0
   48.4760   30.7868   47.9886 H   0  0  0  0  0  0  0  0  0  0  0  0
   45.0966   36.4224   41.9040 H   0  0  0  0  0  0  0  0  0  0  0  0
   43.9799   37.1523   43.0885 H   0  0  0  0  0  0  0  0  0  0  0  0
  1  6  2  0
  2  1  1  0
  3  2  2  0
  3  4  1  0
  4  5  2  0
  5  6  1  0
  5  7  1  0
  7 12  1  0
  7  8  2  0
  8  9  1  0
  9 10  2  0
 11 10  1  0
 12 11  2  0
 13  2  1  0
  1 14  1  0
  3 15  1  0
  8 16  1  0
  9 17  1  0
 10 18  1  0
 11 19  1  0
 13 20  1  0
 13 21  1  0
M  ISO  6  14  14  15  14  16  14  17  14  18  14  19  14
M  END
>  <minimizedAffinity>  (1) 
-4.93113947

>  <minimizedRMSD>  (1) 
0.871081173

$$$$
