
     RDKit          3D

 44 46  0  0  0  0  0  0  0  0999 V2000
   48.5740   31.2170   48.6830 C   0  0  0  0  0  0  0  0  0  0  0  0
   47.5280   32.0100   48.7620 C   0  0  0  0  0  0  0  0  0  0  0  0
   51.1580   31.9830   51.1470 C   0  0  0  0  0  0  0  0  0  0  0  0
   51.2640   30.7450   51.8460 C   0  0  0  0  0  0  0  0  0  0  0  0
   50.4800   29.6850   51.4630 C   0  0  0  0  0  0  0  0  0  0  0  0
   49.6570   29.9160   50.4430 N   0  0  0  0  0  0  0  0  0  0  0  0
   49.5340   31.0590   49.7770 C   0  0  0  0  0  0  0  0  0  0  0  0
   50.2930   32.1090   50.1270 N   0  0  0  0  0  0  0  0  0  0  0  0
   52.2030   30.8760   52.9350 C   0  0  0  0  0  0  0  0  0  0  0  0
   51.9130   30.9320   54.2780 C   0  0  0  0  0  0  0  0  0  0  0  0
   52.7590   31.1320   55.3430 C   0  0  0  0  0  0  0  0  0  0  0  0
   54.0890   31.3030   55.0330 C   0  0  0  0  0  0  0  0  0  0  0  0
   54.4150   31.2540   53.7020 C   0  0  0  0  0  0  0  0  0  0  0  0
   53.5160   31.0550   52.7500 N   0  0  0  0  0  0  0  0  0  0  0  0
   50.5590   28.5020   52.0850 O   0  0  0  0  0  0  0  0  0  0  0  0
   51.5280   27.5500   51.6070 C   0  0  0  0  0  0  0  0  0  0  0  0
   52.0310   27.9860   50.3720 F   0  0  0  0  0  0  0  0  0  0  0  0
   52.5900   27.5870   52.5120 F   0  0  0  0  0  0  0  0  0  0  0  0
   51.0540   26.2520   51.5420 F   0  0  0  0  0  0  0  0  0  0  0  0
   46.5780   32.1410   47.6310 C   0  0  0  0  0  0  0  0  0  0  0  0
   46.5670   32.7780   45.3840 C   0  0  0  0  0  0  0  0  0  0  0  0
   45.8390   31.8800   44.8940 O   0  0  0  0  0  0  0  0  0  0  0  0
   47.0050   33.0680   46.6720 N   0  0  0  0  0  0  0  0  0  0  0  0
   44.8690   35.1410   44.4740 Cl  0  0  0  0  0  0  0  0  0  0  0  0
   46.2610   34.6080   43.5890 C   0  0  0  0  0  0  0  0  0  0  0  0
   46.8880   33.5340   44.1660 C   0  0  0  0  0  0  0  0  0  0  0  0
   48.0340   32.9780   43.5760 C   0  0  0  0  0  0  0  0  0  0  0  0
   48.5410   33.5200   42.3950 C   0  0  0  0  0  0  0  0  0  0  0  0
   47.8940   34.6030   41.8320 C   0  0  0  0  0  0  0  0  0  0  0  0
   48.4750   35.3280   40.3520 Cl  0  0  0  0  0  0  0  0  0  0  0  0
   46.7780   35.1260   42.4270 C   0  0  0  0  0  0  0  0  0  0  0  0
   48.7345   30.6481   47.7553 H   0  0  0  0  0  0  0  0  0  0  0  0
   47.3548   32.5861   49.6829 H   0  0  0  0  0  0  0  0  0  0  0  0
   51.7856   32.8364   51.4434 H   0  0  0  0  0  0  0  0  0  0  0  0
   50.8525   30.7975   54.5372 H   0  0  0  0  0  0  0  0  0  0  0  0
   52.3948   31.1540   56.3807 H   0  0  0  0  0  0  0  0  0  0  0  0
   54.8490   31.4699   55.8105 H   0  0  0  0  0  0  0  0  0  0  0  0
   55.4681   31.3856   53.4126 H   0  0  0  0  0  0  0  0  0  0  0  0
   46.4689   31.1591   47.1474 H   0  0  0  0  0  0  0  0  0  0  0  0
   45.6223   32.5013   48.0394 H   0  0  0  0  0  0  0  0  0  0  0  0
   47.5878   33.8864   46.8988 H   0  0  0  0  0  0  0  0  0  0  0  0
   48.5315   32.1160   44.0444 H   0  0  0  0  0  0  0  0  0  0  0  0
   49.4378   33.0938   41.9216 H   0  0  0  0  0  0  0  0  0  0  0  0
   46.2796   35.9882   41.9599 H   0  0  0  0  0  0  0  0  0  0  0  0
  1  2  2  0
  1  7  1  0
  3  4  2  0
  4  9  1  0
  5  4  1  0
  5 15  1  0
  6  5  2  0
  7  8  2  0
  7  6  1  0
  8  3  1  0
  9 10  2  0
 10 11  1  0
 12 11  2  0
 13 12  1  0
 14  9  1  0
 14 13  2  0
 16 15  1  0
 16 18  1  0
 17 16  1  0
 19 16  1  0
 20  2  1  0
 21 23  1  0
 22 21  2  0
 23 20  1  0
 25 26  2  0
 25 24  1  0
 26 21  1  0
 27 26  1  0
 28 27  2  0
 29 28  1  0
 29 31  2  0
 30 29  1  0
 31 25  1  0
  1 32  1  0
  2 33  1  0
  3 34  1  0
 10 35  1  0
 11 36  1  0
 12 37  1  0
 13 38  1  0
 20 39  1  0
 20 40  1  0
 23 41  1  0
 27 42  1  0
 28 43  1  0
 31 44  1  0
M  ISO  8  34  14  35  14  36  14  37  14  38  14  39   8  40   8  42  14
M  ISO  2  43  14  44  14
M  END
>  <minimizedAffinity>  (1) 
-7.35450315

>  <minimizedRMSD>  (1) 
0.495819122

$$$$
