
     RDKit          3D

 42 46  0  0  0  0  0  0  0  0999 V2000
   46.0020   33.1940   41.6860 C   0  0  0  0  0  0  0  0  0  0  0  0
   47.1730   33.8910   41.3630 C   0  0  0  0  0  0  0  0  0  0  0  0
   48.1530   33.9580   42.3410 C   0  0  0  0  0  0  0  0  0  0  0  0
   47.8980   33.3420   43.5320 N   0  0  0  0  0  0  0  0  0  0  0  0
   46.7840   32.6840   43.8250 C   0  0  0  0  0  0  0  0  0  0  0  0
   45.8160   32.6040   42.8930 N   0  0  0  0  0  0  0  0  0  0  0  0
   46.9240   30.7470   45.3230 C   0  0  0  0  0  0  0  0  0  0  0  0
   46.6150   32.0640   45.1230 C   0  0  0  0  0  0  0  0  0  0  0  0
   46.1180   32.8960   46.1500 C   0  0  0  0  0  0  0  0  0  0  0  0
   45.9260   32.3810   47.4270 C   0  0  0  0  0  0  0  0  0  0  0  0
   45.4840   32.8560   48.6180 N   0  0  0  0  0  0  0  0  0  0  0  0
   45.5350   31.8140   49.5170 C   0  0  0  0  0  0  0  0  0  0  0  0
   46.0030   30.7320   48.8650 N   0  0  0  0  0  0  0  0  0  0  0  0
   46.2510   31.0490   47.5840 C   0  0  0  0  0  0  0  0  0  0  0  0
   46.7380   30.2120   46.5980 C   0  0  0  0  0  0  0  0  0  0  0  0
   49.4110   34.6790   42.0630 C   0  0  0  0  0  0  0  0  0  0  0  0
   49.1810   35.7570   41.1950 F   0  0  0  0  0  0  0  0  0  0  0  0
   49.9190   35.2200   43.2180 F   0  0  0  0  0  0  0  0  0  0  0  0
   50.2900   33.7990   41.4800 F   0  0  0  0  0  0  0  0  0  0  0  0
   47.2900   34.4560   40.1370 O   0  0  0  0  0  0  0  0  0  0  0  0
   47.1010   33.7510   38.9740 C   0  0  0  0  0  0  0  0  0  0  0  0
   48.3890   33.6090   38.4710 C   0  0  0  0  0  0  0  0  0  0  0  0
   48.1210   32.6580   36.9080 S   0  0  0  0  0  0  0  0  0  0  0  0
   46.2760   32.6260   37.2260 C   0  0  0  0  0  0  0  0  0  0  0  0
   46.2510   33.1820   38.1780 N   0  0  0  0  0  0  0  0  0  0  0  0
   45.3810   31.9340   36.2310 C   0  0  0  0  0  0  0  0  0  0  0  0
   45.7180   31.8920   34.9020 C   0  0  0  0  0  0  0  0  0  0  0  0
   44.7820   31.2140   34.1170 C   0  0  0  0  0  0  0  0  0  0  0  0
   43.6430   30.6630   34.7030 C   0  0  0  0  0  0  0  0  0  0  0  0
   43.3880   30.7570   36.0610 C   0  0  0  0  0  0  0  0  0  0  0  0
   44.3110   31.4220   36.8140 N   0  0  0  0  0  0  0  0  0  0  0  0
   45.2035   33.1224   40.9328 H   0  0  0  0  0  0  0  0  0  0  0  0
   47.3089   30.1260   44.5006 H   0  0  0  0  0  0  0  0  0  0  0  0
   45.8831   33.9499   45.9400 H   0  0  0  0  0  0  0  0  0  0  0  0
   45.1689   33.8169   48.8136 H   0  0  0  0  0  0  0  0  0  0  0  0
   45.2455   31.8574   50.5773 H   0  0  0  0  0  0  0  0  0  0  0  0
   46.9713   29.1584   46.8115 H   0  0  0  0  0  0  0  0  0  0  0  0
   49.3352   33.9729   38.8979 H   0  0  0  0  0  0  0  0  0  0  0  0
   46.6333   32.3465   34.4951 H   0  0  0  0  0  0  0  0  0  0  0  0
   44.9441   31.1146   33.0336 H   0  0  0  0  0  0  0  0  0  0  0  0
   42.9208   30.1345   34.0634 H   0  0  0  0  0  0  0  0  0  0  0  0
   42.4855   30.3171   36.5104 H   0  0  0  0  0  0  0  0  0  0  0  0
  1  6  2  0
  2  1  1  0
  2  3  2  0
  3  4  1  0
  4  5  2  0
  5  8  1  0
  6  5  1  0
  7 15  2  0
  8  7  1  0
  8  9  2  0
  9 10  1  0
 10 14  2  0
 10 11  1  0
 11 12  1  0
 13 12  2  0
 14 13  1  0
 15 14  1  0
 16  3  1  0
 16 18  1  0
 17 16  1  0
 19 16  1  0
 20  2  1  0
 21 20  1  0
 22 21  2  0
 23 24  1  0
 23 22  1  0
 24 25  2  0
 25 21  1  0
 26 31  1  0
 26 24  1  0
 27 26  2  0
 28 29  2  0
 28 27  1  0
 29 30  1  0
 30 31  2  0
  1 32  1  0
  7 33  1  0
  9 34  1  0
 11 35  1  0
 12 36  1  0
 15 37  1  0
 22 38  1  0
 27 39  1  0
 28 40  1  0
 29 41  1  0
 30 42  1  0
M  ISO  8  32  14  33  14  34  14  35   9  36  14  37  14  38  14  39  14
M  ISO  3  40  14  41  14  42  14
M  END
>  <minimizedAffinity>  (1) 
-6.55942774

>  <minimizedRMSD>  (1) 
1.28618312

$$$$
