
     RDKit          3D

 48 51  0  0  1  0  0  0  0  0999 V2000
   47.9690   34.8920   42.3070 C   0  0  0  0  0  0  0  0  0  0  0  0
   49.0940   34.3340   41.6370 N   0  0  0  0  0  0  0  0  0  0  0  0
   50.2260   34.2050   42.4890 C   0  0  0  0  0  0  0  0  0  0  0  0
   50.9680   32.9440   42.1010 C   0  0  0  0  0  0  0  0  0  0  0  0
   49.9140   32.1240   41.4370 C   0  0  0  0  0  0  0  0  0  0  0  0
   48.8050   33.0760   41.0220 C   0  0  2  0  0  0  0  0  0  0  0  0
   48.8470   33.1580   39.5220 C   0  0  0  0  0  0  0  0  0  0  0  0
   48.3190   34.3010   38.9450 C   0  0  0  0  0  0  0  0  0  0  0  0
   48.3210   34.4540   37.5530 C   0  0  0  0  0  0  0  0  0  0  0  0
   48.8710   33.4180   36.7930 C   0  0  0  0  0  0  0  0  0  0  0  0
   49.3940   32.2840   37.4020 C   0  0  0  0  0  0  0  0  0  0  0  0
   49.3680   32.1850   38.7450 N   0  0  0  0  0  0  0  0  0  0  0  0
   45.5080   34.9130   42.1840 C   0  0  0  0  0  0  0  0  0  0  0  0
   46.6740   34.6300   41.5780 C   0  0  0  0  0  0  0  0  0  0  0  0
   43.8760   33.4580   40.8880 C   0  0  0  0  0  0  0  0  0  0  0  0
   44.2130   34.6790   41.5210 C   0  0  0  0  0  0  0  0  0  0  0  0
   43.2780   35.7350   41.5320 C   0  0  0  0  0  0  0  0  0  0  0  0
   42.0740   35.5230   40.9190 N   0  0  0  0  0  0  0  0  0  0  0  0
   41.7930   34.3660   40.3350 C   0  0  0  0  0  0  0  0  0  0  0  0
   42.6930   33.3560   40.3270 N   0  0  0  0  0  0  0  0  0  0  0  0
   39.5520   33.6170   41.7670 F   0  0  0  0  0  0  0  0  0  0  0  0
   39.3950   33.8000   40.4390 C   0  0  0  0  0  0  0  0  0  0  0  0
   40.5020   34.1750   39.6920 C   0  0  0  0  0  0  0  0  0  0  0  0
   40.4230   34.3830   38.3220 C   0  0  0  0  0  0  0  0  0  0  0  0
   39.1850   34.1990   37.7080 C   0  0  0  0  0  0  0  0  0  0  0  0
   38.0580   33.8210   38.4430 C   0  0  0  0  0  0  0  0  0  0  0  0
   38.1660   33.6200   39.8180 C   0  0  0  0  0  0  0  0  0  0  0  0
   47.9031   34.4514   43.3127 H   0  0  0  0  0  0  0  0  0  0  0  0
   48.1130   35.9816   42.3516 H   0  0  0  0  0  0  0  0  0  0  0  0
   50.8850   35.0773   42.3674 H   0  0  0  0  0  0  0  0  0  0  0  0
   49.9064   34.1499   43.5401 H   0  0  0  0  0  0  0  0  0  0  0  0
   51.7909   33.1677   41.4061 H   0  0  0  0  0  0  0  0  0  0  0  0
   51.4363   32.4363   42.9571 H   0  0  0  0  0  0  0  0  0  0  0  0
   50.3295   31.6197   40.5521 H   0  0  0  0  0  0  0  0  0  0  0  0
   49.5317   31.3500   42.1188 H   0  0  0  0  0  0  0  0  0  0  0  0
   47.7996   32.7536   41.3308 H   0  0  0  0  0  0  0  0  0  0  0  0
   47.8965   35.0916   39.5825 H   0  0  0  0  0  0  0  0  0  0  0  0
   47.9059   35.3543   37.0764 H   0  0  0  0  0  0  0  0  0  0  0  0
   48.8901   33.5017   35.6964 H   0  0  0  0  0  0  0  0  0  0  0  0
   49.8249   31.4753   36.7935 H   0  0  0  0  0  0  0  0  0  0  0  0
   45.5209   35.3303   43.2017 H   0  0  0  0  0  0  0  0  0  0  0  0
   46.6841   34.2116   40.5607 H   0  0  0  0  0  0  0  0  0  0  0  0
   44.5857   32.6179   40.8668 H   0  0  0  0  0  0  0  0  0  0  0  0
   43.5091   36.6951   42.0165 H   0  0  0  0  0  0  0  0  0  0  0  0
   41.3072   34.6829   37.7404 H   0  0  0  0  0  0  0  0  0  0  0  0
   39.0933   34.3545   36.6229 H   0  0  0  0  0  0  0  0  0  0  0  0
   37.0902   33.6828   37.9387 H   0  0  0  0  0  0  0  0  0  0  0  0
   37.2856   33.3215   40.4060 H   0  0  0  0  0  0  0  0  0  0  0  0
  2  1  1  0
  2  3  1  0
  4  3  1  0
  5  4  1  0
  6  5  1  0
  6  2  1  0
  7  6  1  0
  8  7  2  0
  9  8  1  0
 10 11  1  0
 10  9  2  0
 11 12  2  0
 12  7  1  0
 14 13  2  0
 14  1  1  0
 15 16  2  0
 16 17  1  0
 16 13  1  0
 18 17  2  0
 19 18  1  0
 20 19  2  0
 20 15  1  0
 22 21  1  0
 23 19  1  0
 23 22  2  0
 24 23  1  0
 25 24  2  0
 25 26  1  0
 26 27  2  0
 27 22  1  0
  1 28  1  0
  1 29  1  0
  3 30  1  0
  3 31  1  0
  4 32  1  0
  4 33  1  0
  5 34  1  0
  5 35  1  0
  6 36  1  6
  8 37  1  0
  9 38  1  0
 10 39  1  0
 11 40  1  0
 13 41  1  0
 14 42  1  0
 15 43  1  0
 17 44  1  0
 24 45  1  0
 25 46  1  0
 26 47  1  0
 27 48  1  0
M  ISO  8  28   8  29   8  30  13  31  13  32  13  33  13  34  13  35  13
M  ISO  8  36  13  37  14  38  14  39  14  40  14  43  14  44  14  45  14
M  ISO  3  46  14  47  14  48  14
M  END
>  <minimizedAffinity>  (1) 
-6.92876768

>  <minimizedRMSD>  (1) 
0.394516677

$$$$
