
     RDKit          3D

 37 39  0  0  0  0  0  0  0  0999 V2000
   45.0280   34.9520   44.8120 C   0  0  0  0  0  0  0  0  0  0  0  0
   45.8680   34.6090   43.7580 C   0  0  0  0  0  0  0  0  0  0  0  0
   46.7800   33.5790   43.9940 C   0  0  0  0  0  0  0  0  0  0  0  0
   46.8070   32.9780   45.1950 N   0  0  0  0  0  0  0  0  0  0  0  0
   45.9700   33.3480   46.1830 C   0  0  0  0  0  0  0  0  0  0  0  0
   45.0900   34.3230   45.9930 N   0  0  0  0  0  0  0  0  0  0  0  0
   47.7090   33.1260   42.9700 C   0  0  0  0  0  0  0  0  0  0  0  0
   48.9550   33.7540   43.0960 C   0  0  0  0  0  0  0  0  0  0  0  0
   50.0290   33.5080   42.2640 C   0  0  0  0  0  0  0  0  0  0  0  0
   49.8960   32.5950   41.2390 C   0  0  0  0  0  0  0  0  0  0  0  0
   48.6450   31.9880   41.1400 C   0  0  0  0  0  0  0  0  0  0  0  0
   47.6260   32.2540   41.9700 N   0  0  0  0  0  0  0  0  0  0  0  0
   45.7710   35.3360   42.4620 C   0  0  0  0  0  0  0  0  0  0  0  0
   44.8190   36.3190   42.7080 F   0  0  0  0  0  0  0  0  0  0  0  0
   45.2500   34.4420   41.5380 F   0  0  0  0  0  0  0  0  0  0  0  0
   46.9680   35.8560   42.1280 F   0  0  0  0  0  0  0  0  0  0  0  0
   45.9780   32.7470   47.4290 O   0  0  0  0  0  0  0  0  0  0  0  0
   45.5050   31.4270   47.6030 C   0  0  0  0  0  0  0  0  0  0  0  0
   46.6710   30.5570   47.7780 C   0  0  0  0  0  0  0  0  0  0  0  0
   46.9000   29.2650   47.3130 C   0  0  0  0  0  0  0  0  0  0  0  0
   48.0900   28.6740   47.6270 C   0  0  0  0  0  0  0  0  0  0  0  0
   49.0150   29.2930   48.3500 N   0  0  0  0  0  0  0  0  0  0  0  0
   48.7870   30.5350   48.7930 C   0  0  0  0  0  0  0  0  0  0  0  0
   47.6200   31.1780   48.5150 N   0  0  0  0  0  0  0  0  0  0  0  0
   49.8820   31.1380   49.5920 C   0  0  0  0  0  0  0  0  0  0  0  0
   49.8700   32.5050   49.5080 F   0  0  0  0  0  0  0  0  0  0  0  0
   51.1280   30.6670   49.1270 F   0  0  0  0  0  0  0  0  0  0  0  0
   49.8020   30.7990   50.9240 F   0  0  0  0  0  0  0  0  0  0  0  0
   44.2946   35.7598   44.6724 H   0  0  0  0  0  0  0  0  0  0  0  0
   49.0854   34.4867   43.9060 H   0  0  0  0  0  0  0  0  0  0  0  0
   50.9821   34.0354   42.4173 H   0  0  0  0  0  0  0  0  0  0  0  0
   50.7195   32.3620   40.5479 H   0  0  0  0  0  0  0  0  0  0  0  0
   48.4853   31.2518   40.3385 H   0  0  0  0  0  0  0  0  0  0  0  0
   44.8607   31.3739   48.4929 H   0  0  0  0  0  0  0  0  0  0  0  0
   44.9148   31.1104   46.7304 H   0  0  0  0  0  0  0  0  0  0  0  0
   46.1457   28.7367   46.7114 H   0  0  0  0  0  0  0  0  0  0  0  0
   48.2884   27.6528   47.2696 H   0  0  0  0  0  0  0  0  0  0  0  0
  1  6  2  0
  2  3  2  0
  2  1  1  0
  3  4  1  0
  4  5  2  0
  5 17  1  0
  6  5  1  0
  7  8  2  0
  7  3  1  0
  9  8  1  0
 10  9  2  0
 11 10  1  0
 11 12  2  0
 12  7  1  0
 13 14  1  0
 13  2  1  0
 15 13  1  0
 16 13  1  0
 17 18  1  0
 18 19  1  0
 19 24  2  0
 20 21  2  0
 20 19  1  0
 21 22  1  0
 22 23  2  0
 23 25  1  0
 24 23  1  0
 25 28  1  0
 26 25  1  0
 27 25  1  0
  1 29  1  0
  8 30  1  0
  9 31  1  0
 10 32  1  0
 11 33  1  0
 18 34  1  0
 18 35  1  0
 20 36  1  0
 21 37  1  0
M  ISO  8  29  14  30  14  31  14  32  14  33  14  34   8  35   8  36  14
M  ISO  1  37  14
M  END
>  <minimizedAffinity>  (1) 
-6.05892372

>  <minimizedRMSD>  (1) 
0.320758104

$$$$
