
     RDKit          3D

 26 27  0  0  0  0  0  0  0  0999 V2000
   47.0030   34.2460   43.0570 C   0  0  0  0  0  0  0  0  0  0  0  0
   45.8420   34.6900   43.6890 C   0  0  0  0  0  0  0  0  0  0  0  0
   45.3100   33.9350   44.7390 C   0  0  0  0  0  0  0  0  0  0  0  0
   45.9590   32.7930   45.0940 N   0  0  0  0  0  0  0  0  0  0  0  0
   47.0860   32.3880   44.4590 C   0  0  0  0  0  0  0  0  0  0  0  0
   47.5990   33.1080   43.4550 N   0  0  0  0  0  0  0  0  0  0  0  0
   47.7180   31.1350   44.9180 C   0  0  0  0  0  0  0  0  0  0  0  0
   48.4770   30.4310   44.0040 C   0  0  0  0  0  0  0  0  0  0  0  0
   49.0270   29.2750   44.5210 C   0  0  0  0  0  0  0  0  0  0  0  0
   48.8590   28.8330   45.8130 C   0  0  0  0  0  0  0  0  0  0  0  0
   48.0700   29.6320   46.6420 C   0  0  0  0  0  0  0  0  0  0  0  0
   47.5080   30.7690   46.1950 N   0  0  0  0  0  0  0  0  0  0  0  0
   45.1980   35.9510   43.2350 C   0  0  0  0  0  0  0  0  0  0  0  0
   46.1760   36.9240   43.0170 F   0  0  0  0  0  0  0  0  0  0  0  0
   44.6100   35.7180   42.0040 F   0  0  0  0  0  0  0  0  0  0  0  0
   44.2920   36.4830   44.0820 F   0  0  0  0  0  0  0  0  0  0  0  0
   47.4940   34.9910   42.0510 O   0  0  0  0  0  0  0  0  0  0  0  0
   48.8340   35.1020   41.6550 C   0  0  0  0  0  0  0  0  0  0  0  0
   49.5870   35.3990   42.7880 F   0  0  0  0  0  0  0  0  0  0  0  0
   49.2210   33.9370   41.0350 F   0  0  0  0  0  0  0  0  0  0  0  0
   48.9810   36.2090   40.8290 F   0  0  0  0  0  0  0  0  0  0  0  0
   44.3960   34.2542   45.2613 H   0  0  0  0  0  0  0  0  0  0  0  0
   48.6286   30.7593   42.9651 H   0  0  0  0  0  0  0  0  0  0  0  0
   49.6458   28.6615   43.8497 H   0  0  0  0  0  0  0  0  0  0  0  0
   49.3208   27.9017   46.1727 H   0  0  0  0  0  0  0  0  0  0  0  0
   47.9041   29.3246   47.6850 H   0  0  0  0  0  0  0  0  0  0  0  0
  1  6  2  0
  1  2  1  0
  2  3  2  0
  3  4  1  0
  5  7  1  0
  5  4  2  0
  6  5  1  0
  7 12  2  0
  8  9  2  0
  8  7  1  0
  9 10  1  0
 10 11  2  0
 12 11  1  0
 13  2  1  0
 13 16  1  0
 14 13  1  0
 15 13  1  0
 17  1  1  0
 18 17  1  0
 18 19  1  0
 20 18  1  0
 21 18  1  0
  3 22  1  0
  8 23  1  0
  9 24  1  0
 10 25  1  0
 11 26  1  0
M  ISO  5  22  14  23  14  24  14  25  14  26  14
M  END
>  <minimizedAffinity>  (1) 
-4.98676109

>  <minimizedRMSD>  (1) 
0.69917655

$$$$
