
     RDKit          3D

 44 48  0  0  0  0  0  0  0  0999 V2000
   49.7650   30.1790   49.4150 C   0  0  0  0  0  0  0  0  0  0  0  0
   50.0020   31.3480   50.0690 N   0  0  0  0  0  0  0  0  0  0  0  0
   50.6650   31.4100   51.2310 C   0  0  0  0  0  0  0  0  0  0  0  0
   51.1100   30.2550   51.7590 N   0  0  0  0  0  0  0  0  0  0  0  0
   50.9200   29.0570   51.1780 C   0  0  0  0  0  0  0  0  0  0  0  0
   51.3800   27.8680   51.7210 C   0  0  0  0  0  0  0  0  0  0  0  0
   51.1590   26.6710   51.0840 C   0  0  0  0  0  0  0  0  0  0  0  0
   50.4660   26.6020   49.8700 C   0  0  0  0  0  0  0  0  0  0  0  0
   50.0250   27.8140   49.3650 C   0  0  0  0  0  0  0  0  0  0  0  0
   50.2370   29.0190   49.9880 C   0  0  0  0  0  0  0  0  0  0  0  0
   49.3250   27.5880   48.1090 C   0  0  0  0  0  0  0  0  0  0  0  0
   50.1750   27.5240   46.9980 C   0  0  0  0  0  0  0  0  0  0  0  0
   49.5630   27.2840   45.7670 C   0  0  0  0  0  0  0  0  0  0  0  0
   48.1950   27.1230   45.6750 C   0  0  0  0  0  0  0  0  0  0  0  0
   47.3920   27.1940   46.7950 C   0  0  0  0  0  0  0  0  0  0  0  0
   47.9720   27.4280   48.0000 N   0  0  0  0  0  0  0  0  0  0  0  0
   48.8960   30.0680   47.8730 S   0  0  0  0  0  0  0  0  0  0  0  0
   46.0360   32.7250   46.8980 C   0  0  0  0  0  0  0  0  0  0  0  0
   47.1570   31.9360   46.9070 C   0  0  0  0  0  0  0  0  0  0  0  0
   47.4120   31.0570   47.9450 C   0  0  0  0  0  0  0  0  0  0  0  0
   46.5240   30.9600   49.0140 C   0  0  0  0  0  0  0  0  0  0  0  0
   45.4150   31.7320   49.0210 C   0  0  0  0  0  0  0  0  0  0  0  0
   45.1900   32.5950   47.9720 C   0  0  0  0  0  0  0  0  0  0  0  0
   44.5570   35.5150   45.0430 C   0  0  0  0  0  0  0  0  0  0  0  0
   45.2100   35.4550   43.7900 C   0  0  0  0  0  0  0  0  0  0  0  0
   46.1590   34.4490   43.5960 C   0  0  0  0  0  0  0  0  0  0  0  0
   46.4320   33.5620   44.5940 N   0  0  0  0  0  0  0  0  0  0  0  0
   45.7810   33.6540   45.7890 C   0  0  0  0  0  0  0  0  0  0  0  0
   44.8540   34.6170   46.0120 N   0  0  0  0  0  0  0  0  0  0  0  0
   50.8397   32.3714   51.7361 H   0  0  0  0  0  0  0  0  0  0  0  0
   51.9290   27.8827   52.6741 H   0  0  0  0  0  0  0  0  0  0  0  0
   51.5362   25.7435   51.5396 H   0  0  0  0  0  0  0  0  0  0  0  0
   50.2838   25.6491   49.3516 H   0  0  0  0  0  0  0  0  0  0  0  0
   51.2632   27.6554   47.0903 H   0  0  0  0  0  0  0  0  0  0  0  0
   50.1790   27.2223   44.8577 H   0  0  0  0  0  0  0  0  0  0  0  0
   47.7374   26.9350   44.6925 H   0  0  0  0  0  0  0  0  0  0  0  0
   46.3028   27.0635   46.7130 H   0  0  0  0  0  0  0  0  0  0  0  0
   47.8691   32.0030   46.0713 H   0  0  0  0  0  0  0  0  0  0  0  0
   46.7231   30.2637   49.8420 H   0  0  0  0  0  0  0  0  0  0  0  0
   44.7003   31.6717   49.8550 H   0  0  0  0  0  0  0  0  0  0  0  0
   44.2817   33.2151   47.9955 H   0  0  0  0  0  0  0  0  0  0  0  0
   43.8043   36.2948   45.2313 H   0  0  0  0  0  0  0  0  0  0  0  0
   44.9779   36.1776   42.9937 H   0  0  0  0  0  0  0  0  0  0  0  0
   46.6879   34.3723   42.6345 H   0  0  0  0  0  0  0  0  0  0  0  0
  1 10  1  0
  1  2  2  0
  2  3  1  0
  3  4  2  0
  5  6  2  0
  5  4  1  0
  7  6  1  0
  8  7  2  0
  9  8  1  0
  9 10  2  0
 10  5  1  0
 11  9  1  0
 12 11  2  0
 13 12  1  0
 14 13  2  0
 14 15  1  0
 15 16  2  0
 16 11  1  0
 17 20  1  0
 17  1  1  0
 18 19  2  0
 18 23  1  0
 19 20  1  0
 20 21  2  0
 21 22  1  0
 23 22  2  0
 24 29  2  0
 25 24  1  0
 26 25  2  0
 26 27  1  0
 27 28  2  0
 28 29  1  0
 28 18  1  0
  3 30  1  0
  6 31  1  0
  7 32  1  0
  8 33  1  0
 12 34  1  0
 13 35  1  0
 14 36  1  0
 15 37  1  0
 19 38  1  0
 21 39  1  0
 22 40  1  0
 23 41  1  0
 24 42  1  0
 25 43  1  0
 26 44  1  0
M  ISO  8  30  14  31  14  32  14  33  14  34  14  35  14  36  14  37  14
M  ISO  7  38  14  39  14  40  14  41  14  42  14  43  14  44  14
M  END
>  <minimizedAffinity>  (1) 
-6.50886679

>  <minimizedRMSD>  (1) 
0.811703384

$$$$
