
     RDKit          3D

 47 50  0  0  1  0  0  0  0  0999 V2000
   45.7230   35.4010   43.5580 C   0  0  1  0  0  0  0  0  0  0  0  0
   44.6170   34.9240   44.2640 C   0  0  0  0  0  0  0  0  0  0  0  0
   45.9180   34.4580   44.7800 C   0  0  1  0  0  0  0  0  0  0  0  0
   45.2980   34.2480   41.3880 C   0  0  0  0  0  0  0  0  0  0  0  0
   46.2380   34.9000   42.2480 C   0  0  0  0  0  0  0  0  0  0  0  0
   47.5310   35.0320   41.8560 C   0  0  0  0  0  0  0  0  0  0  0  0
   47.8650   34.5200   40.6320 N   0  0  0  0  0  0  0  0  0  0  0  0
   46.9780   33.9050   39.8200 C   0  0  0  0  0  0  0  0  0  0  0  0
   45.6570   33.7520   40.1810 N   0  0  0  0  0  0  0  0  0  0  0  0
   47.4310   33.3920   38.5290 C   0  0  0  0  0  0  0  0  0  0  0  0
   48.2840   34.1450   37.7500 C   0  0  0  0  0  0  0  0  0  0  0  0
   48.6900   33.6160   36.5250 C   0  0  0  0  0  0  0  0  0  0  0  0
   48.1890   32.3550   36.1960 C   0  0  0  0  0  0  0  0  0  0  0  0
   47.3260   31.6000   36.9940 C   0  0  0  0  0  0  0  0  0  0  0  0
   46.9750   32.1780   38.1660 N   0  0  0  0  0  0  0  0  0  0  0  0
   46.3530   33.0580   44.5520 C   0  0  0  0  0  0  0  0  0  0  0  0
   45.8680   32.2810   45.6350 N   0  0  0  0  0  0  0  0  0  0  0  0
   45.9500   32.8210   46.9240 C   0  0  0  0  0  0  0  0  0  0  0  0
   47.2710   32.4290   47.6080 C   0  0  0  0  0  0  0  0  0  0  0  0
   47.1760   30.9400   47.8560 C   0  0  0  0  0  0  0  0  0  0  0  0
   47.1040   30.3050   46.4900 C   0  0  0  0  0  0  0  0  0  0  0  0
   46.0360   30.8900   45.6120 C   0  0  2  0  0  0  0  0  0  0  0  0
   46.2990   30.3710   44.2040 C   0  0  0  0  0  0  0  0  0  0  0  0
   45.9786   36.4191   43.2292 H   0  0  0  0  0  0  0  0  0  0  0  0
   44.0244   35.6277   44.8671 H   0  0  0  0  0  0  0  0  0  0  0  0
   43.7075   34.3910   43.9497 H   0  0  0  0  0  0  0  0  0  0  0  0
   46.4510   34.4741   45.7421 H   0  0  0  0  0  0  0  0  0  0  0  0
   44.2534   34.1471   41.7176 H   0  0  0  0  0  0  0  0  0  0  0  0
   48.2769   35.5285   42.4940 H   0  0  0  0  0  0  0  0  0  0  0  0
   48.6336   35.1329   38.0845 H   0  0  0  0  0  0  0  0  0  0  0  0
   49.3686   34.1630   35.8540 H   0  0  0  0  0  0  0  0  0  0  0  0
   48.4980   31.9221   35.2331 H   0  0  0  0  0  0  0  0  0  0  0  0
   46.9587   30.6082   36.6917 H   0  0  0  0  0  0  0  0  0  0  0  0
   45.9363   32.6844   43.6050 H   0  0  0  0  0  0  0  0  0  0  0  0
   47.4496   32.9973   44.4911 H   0  0  0  0  0  0  0  0  0  0  0  0
   45.8916   33.9175   46.8581 H   0  0  0  0  0  0  0  0  0  0  0  0
   45.1166   32.4236   47.5220 H   0  0  0  0  0  0  0  0  0  0  0  0
   48.1246   32.6551   46.9521 H   0  0  0  0  0  0  0  0  0  0  0  0
   47.4261   32.9877   48.5428 H   0  0  0  0  0  0  0  0  0  0  0  0
   48.0640   30.5837   48.3987 H   0  0  0  0  0  0  0  0  0  0  0  0
   46.2998   30.6848   48.4701 H   0  0  0  0  0  0  0  0  0  0  0  0
   48.0757   30.4391   45.9923 H   0  0  0  0  0  0  0  0  0  0  0  0
   46.8541   29.2443   46.6396 H   0  0  0  0  0  0  0  0  0  0  0  0
   45.0699   30.5584   46.0203 H   0  0  0  0  0  0  0  0  0  0  0  0
   46.7955   29.3911   44.2612 H   0  0  0  0  0  0  0  0  0  0  0  0
   45.3445   30.2676   43.6671 H   0  0  0  0  0  0  0  0  0  0  0  0
   46.9468   31.0796   43.6671 H   0  0  0  0  0  0  0  0  0  0  0  0
  1  2  1  0
  1  3  1  0
  2  3  1  0
  4  5  2  0
  5  1  1  0
  6  5  1  0
  7  6  2  0
  8  9  2  0
  8  7  1  0
  9  4  1  0
 10  8  1  0
 11 10  2  0
 12 11  1  0
 13 12  2  0
 13 14  1  0
 14 15  2  0
 15 10  1  0
 16  3  1  0
 16 17  1  0
 17 18  1  0
 18 19  1  0
 19 20  1  0
 21 20  1  0
 22 17  1  0
 22 21  1  0
 23 22  1  0
  1 24  1  1
  2 25  1  0
  2 26  1  0
  3 27  1  1
  4 28  1  0
  6 29  1  0
 11 30  1  0
 12 31  1  0
 13 32  1  0
 14 33  1  0
 16 34  1  0
 16 35  1  0
 18 36  1  0
 18 37  1  0
 19 38  1  0
 19 39  1  0
 20 40  1  0
 20 41  1  0
 21 42  1  0
 21 43  1  0
 22 44  1  1
 23 45  1  0
 23 46  1  0
 23 47  1  0
M  ISO  8  24  13  25  13  26  13  27  13  28  14  29  14  30  14  31  14
M  ISO  8  32  14  33  14  34   8  35   8  36  13  37  13  38  13  39  13
M  ISO  8  40  13  41  13  42  13  43  13  44  13  45   8  46   8  47   8
M  END
>  <minimizedAffinity>  (1) 
-4.94904232

>  <minimizedRMSD>  (1) 
2.46965027

$$$$
