
     RDKit          3D

 48 53  0  0  1  0  0  0  0  0999 V2000
   46.6450   33.4610   43.0370 C   0  0  1  0  0  0  0  0  0  0  0  0
   46.8350   34.8280   42.5620 C   0  0  0  0  0  0  0  0  0  0  0  0
   48.0190   33.9360   42.5950 C   0  0  2  0  0  0  0  0  0  0  0  0
   48.4660   33.3640   41.2920 C   0  0  0  0  0  0  0  0  0  0  0  0
   49.3220   32.2880   41.1770 C   0  0  0  0  0  0  0  0  0  0  0  0
   49.7030   31.8110   39.9330 C   0  0  0  0  0  0  0  0  0  0  0  0
   49.2270   32.4070   38.7840 C   0  0  0  0  0  0  0  0  0  0  0  0
   49.5790   31.9560   37.5500 N   0  0  0  0  0  0  0  0  0  0  0  0
   49.0980   32.5550   36.4420 C   0  0  0  0  0  0  0  0  0  0  0  0
   48.2160   33.6630   36.4620 C   0  0  0  0  0  0  0  0  0  0  0  0
   47.8510   34.1300   37.7070 C   0  0  0  0  0  0  0  0  0  0  0  0
   48.3570   33.5020   38.8410 C   0  0  0  0  0  0  0  0  0  0  0  0
   48.0080   33.9410   40.1050 C   0  0  0  0  0  0  0  0  0  0  0  0
   47.3240   32.2240   45.1200 C   0  0  0  0  0  0  0  0  0  0  0  0
   46.4690   33.1790   44.4900 C   0  0  0  0  0  0  0  0  0  0  0  0
   45.5140   33.7910   45.2620 C   0  0  0  0  0  0  0  0  0  0  0  0
   45.4550   33.4380   46.5760 N   0  0  0  0  0  0  0  0  0  0  0  0
   46.2600   32.5420   47.1540 C   0  0  0  0  0  0  0  0  0  0  0  0
   47.2020   31.9290   46.4230 N   0  0  0  0  0  0  0  0  0  0  0  0
   46.0770   32.2700   48.6010 C   0  0  2  0  0  0  0  0  0  0  0  0
   46.8480   31.2650   49.3110 C   0  0  0  0  0  0  0  0  0  0  0  0
   45.4790   30.8570   48.9080 C   0  0  2  0  0  0  0  0  0  0  0  0
   45.4020   29.9000   47.7770 C   0  0  0  0  0  0  0  0  0  0  0  0
   44.4300   29.7470   46.8140 C   0  0  0  0  0  0  0  0  0  0  0  0
   44.4740   28.8030   45.8270 C   0  0  0  0  0  0  0  0  0  0  0  0
   45.5290   27.9430   45.7590 C   0  0  0  0  0  0  0  0  0  0  0  0
   46.4840   28.1220   46.7360 C   0  0  0  0  0  0  0  0  0  0  0  0
   46.4470   29.0460   47.7080 N   0  0  0  0  0  0  0  0  0  0  0  0
   45.9481   32.6548   42.7643 H   0  0  0  0  0  0  0  0  0  0  0  0
   46.7648   35.6652   43.2721 H   0  0  0  0  0  0  0  0  0  0  0  0
   46.3595   35.4392   41.7808 H   0  0  0  0  0  0  0  0  0  0  0  0
   49.0272   34.0039   43.0297 H   0  0  0  0  0  0  0  0  0  0  0  0
   49.7074   31.8020   42.0855 H   0  0  0  0  0  0  0  0  0  0  0  0
   50.3880   30.9533   39.8616 H   0  0  0  0  0  0  0  0  0  0  0  0
   49.4092   32.1595   35.4639 H   0  0  0  0  0  0  0  0  0  0  0  0
   47.8430   34.1252   35.5361 H   0  0  0  0  0  0  0  0  0  0  0  0
   47.1688   34.9876   37.8025 H   0  0  0  0  0  0  0  0  0  0  0  0
   47.3255   34.8003   40.1808 H   0  0  0  0  0  0  0  0  0  0  0  0
   48.0990   31.7197   44.5241 H   0  0  0  0  0  0  0  0  0  0  0  0
   44.8248   34.5357   44.8373 H   0  0  0  0  0  0  0  0  0  0  0  0
   45.8729   33.3288   48.8186 H   0  0  0  0  0  0  0  0  0  0  0  0
   47.7144   30.8029   48.8152 H   0  0  0  0  0  0  0  0  0  0  0  0
   47.3778   31.2673   50.2750 H   0  0  0  0  0  0  0  0  0  0  0  0
   44.5754   30.4726   49.4036 H   0  0  0  0  0  0  0  0  0  0  0  0
   43.5651   30.4262   46.8408 H   0  0  0  0  0  0  0  0  0  0  0  0
   43.6604   28.7374   45.0896 H   0  0  0  0  0  0  0  0  0  0  0  0
   45.6117   27.1664   44.9844 H   0  0  0  0  0  0  0  0  0  0  0  0
   47.3532   27.4480   46.7174 H   0  0  0  0  0  0  0  0  0  0  0  0
  1 15  1  0
  2  3  1  0
  2  1  1  0
  3  1  1  0
  4  3  1  0
  5  4  2  0
  6  5  1  0
  7 12  1  0
  7  6  2  0
  8  7  1  0
  9 10  1  0
  9  8  2  0
 10 11  2  0
 11 12  1  0
 12 13  2  0
 13  4  1  0
 14 19  2  0
 15 14  1  0
 15 16  2  0
 16 17  1  0
 17 18  2  0
 18 20  1  0
 19 18  1  0
 20 22  1  0
 20 21  1  0
 22 21  1  0
 23 22  1  0
 24 23  2  0
 25 24  1  0
 26 25  2  0
 26 27  1  0
 27 28  2  0
 28 23  1  0
  1 29  1  6
  2 30  1  0
  2 31  1  0
  3 32  1  1
  5 33  1  0
  6 34  1  0
  9 35  1  0
 10 36  1  0
 11 37  1  0
 13 38  1  0
 14 39  1  0
 16 40  1  0
 20 41  1  1
 21 42  1  0
 21 43  1  0
 22 44  1  1
 24 45  1  0
 25 46  1  0
 26 47  1  0
 27 48  1  0
M  ISO  8  29  13  30  13  31  13  32  13  33  14  34  14  35  14  36  14
M  ISO  8  37  14  38  14  39  14  40  14  41  13  42  13  43  13  44  13
M  ISO  4  45  14  46  14  47  14  48  14
M  END
>  <minimizedAffinity>  (1) 
-6.02361965

>  <minimizedRMSD>  (1) 
1.1500107

$$$$
