
     RDKit          3D

 43 46  0  0  0  0  0  0  0  0999 V2000
   45.3450   33.7630   45.6510 C   0  0  0  0  0  0  0  0  0  0  0  0
   44.8050   34.9840   45.9500 C   0  0  0  0  0  0  0  0  0  0  0  0
   44.3760   35.8870   45.0060 C   0  0  0  0  0  0  0  0  0  0  0  0
   44.5160   35.5020   43.7210 N   0  0  0  0  0  0  0  0  0  0  0  0
   45.0460   34.3060   43.4210 C   0  0  0  0  0  0  0  0  0  0  0  0
   45.4660   33.4220   44.3530 N   0  0  0  0  0  0  0  0  0  0  0  0
   45.1930   33.9000   42.0040 C   0  0  0  0  0  0  0  0  0  0  0  0
   44.1590   33.2500   41.3730 C   0  0  0  0  0  0  0  0  0  0  0  0
   44.1870   32.8280   40.0610 C   0  0  0  0  0  0  0  0  0  0  0  0
   45.3510   33.0870   39.3420 C   0  0  0  0  0  0  0  0  0  0  0  0
   46.3820   33.7320   39.9630 C   0  0  0  0  0  0  0  0  0  0  0  0
   46.3400   34.1510   41.2810 C   0  0  0  0  0  0  0  0  0  0  0  0
   47.3570   34.8010   41.9340 O   0  0  0  0  0  0  0  0  0  0  0  0
   49.8050   35.4270   42.5930 O   0  0  0  0  0  0  0  0  0  0  0  0
   48.9810   34.8360   41.4480 P   0  0  0  0  0  0  0  0  0  0  0  0
   49.5980   33.3620   40.9850 O   0  0  0  0  0  0  0  0  0  0  0  0
   49.1360   35.9110   40.1490 O   0  0  0  0  0  0  0  0  0  0  0  0
   45.5850   32.0490   48.8700 C   0  0  0  0  0  0  0  0  0  0  0  0
   46.6220   31.1240   48.6220 C   0  0  0  0  0  0  0  0  0  0  0  0
   47.2170   31.0930   47.3850 C   0  0  0  0  0  0  0  0  0  0  0  0
   46.7830   31.9670   46.4260 N   0  0  0  0  0  0  0  0  0  0  0  0
   45.7820   32.8490   46.6920 C   0  0  0  0  0  0  0  0  0  0  0  0
   45.2010   32.8790   47.8960 N   0  0  0  0  0  0  0  0  0  0  0  0
   48.2950   30.1940   46.9920 C   0  0  0  0  0  0  0  0  0  0  0  0
   49.2040   29.6870   47.8980 C   0  0  0  0  0  0  0  0  0  0  0  0
   50.2450   28.8340   47.6000 C   0  0  0  0  0  0  0  0  0  0  0  0
   50.4050   28.4450   46.2820 C   0  0  0  0  0  0  0  0  0  0  0  0
   49.4940   28.9550   45.3800 C   0  0  0  0  0  0  0  0  0  0  0  0
   48.4890   29.7860   45.7140 N   0  0  0  0  0  0  0  0  0  0  0  0
   44.7081   35.2601   47.0104 H   0  0  0  0  0  0  0  0  0  0  0  0
   43.9460   36.8613   45.2813 H   0  0  0  0  0  0  0  0  0  0  0  0
   43.2466   33.0531   41.9550 H   0  0  0  0  0  0  0  0  0  0  0  0
   43.3304   32.3111   39.6037 H   0  0  0  0  0  0  0  0  0  0  0  0
   45.4386   32.7769   38.2903 H   0  0  0  0  0  0  0  0  0  0  0  0
   47.2960   33.9293   39.3837 H   0  0  0  0  0  0  0  0  0  0  0  0
   49.8207   32.8300   41.7897 H   0  0  0  0  0  0  0  0  0  0  0  0
   49.2684   36.8292   40.4945 H   0  0  0  0  0  0  0  0  0  0  0  0
   45.0978   32.0861   49.8555 H   0  0  0  0  0  0  0  0  0  0  0  0
   46.9506   30.4339   49.4130 H   0  0  0  0  0  0  0  0  0  0  0  0
   49.0878   29.9898   48.9491 H   0  0  0  0  0  0  0  0  0  0  0  0
   50.9266   28.4742   48.3849 H   0  0  0  0  0  0  0  0  0  0  0  0
   51.2133   27.7670   45.9706 H   0  0  0  0  0  0  0  0  0  0  0  0
   49.5951   28.6649   44.3238 H   0  0  0  0  0  0  0  0  0  0  0  0
  1  2  2  0
  1 22  1  0
  3  2  1  0
  4  3  2  0
  5  4  1  0
  5  6  2  0
  6  1  1  0
  7  5  1  0
  8  7  2  0
  9  8  1  0
 10 11  1  0
 10  9  2  0
 11 12  2  0
 12 13  1  0
 12  7  1  0
 15 13  1  0
 15 14  2  0
 16 15  1  0
 17 15  1  0
 19 18  2  0
 20 19  1  0
 21 22  1  0
 21 20  2  0
 22 23  2  0
 23 18  1  0
 24 20  1  0
 24 25  2  0
 26 25  1  0
 27 26  2  0
 28 29  2  0
 28 27  1  0
 29 24  1  0
  2 30  1  0
  3 31  1  0
  8 32  1  0
  9 33  1  0
 10 34  1  0
 11 35  1  0
 16 36  1  0
 17 37  1  0
 18 38  1  0
 19 39  1  0
 25 40  1  0
 26 41  1  0
 27 42  1  0
 28 43  1  0
M  ISO  8  30  14  31  14  32  14  33  14  34  14  35  14  36   3  37   3
M  ISO  6  38  14  39  14  40  14  41  14  42  14  43  14
M  END
>  <minimizedAffinity>  (1) 
-6.42235804

>  <minimizedRMSD>  (1) 
0.602540076

$$$$
