
     RDKit          3D

 40 43  0  0  0  0  0  0  0  0999 V2000
   45.0360   35.3670   42.4310 C   0  0  0  0  0  0  0  0  0  0  0  0
   46.3020   35.0180   41.7170 C   0  0  0  0  0  0  0  0  0  0  0  0
   47.5580   35.3750   42.1710 C   0  0  0  0  0  0  0  0  0  0  0  0
   48.4860   34.8930   41.2710 C   0  0  0  0  0  0  0  0  0  0  0  0
   47.7240   34.2520   40.2910 C   0  0  0  0  0  0  0  0  0  0  0  0
   46.4950   34.3660   40.6130 O   0  0  0  0  0  0  0  0  0  0  0  0
   48.3110   33.5940   39.1380 C   0  0  0  0  0  0  0  0  0  0  0  0
   48.9910   32.3970   39.3010 C   0  0  0  0  0  0  0  0  0  0  0  0
   49.5890   31.6890   38.2680 C   0  0  0  0  0  0  0  0  0  0  0  0
   49.4390   32.3050   37.0300 C   0  0  0  0  0  0  0  0  0  0  0  0
   48.7780   33.4780   36.8340 C   0  0  0  0  0  0  0  0  0  0  0  0
   48.2280   34.0950   37.8980 N   0  0  0  0  0  0  0  0  0  0  0  0
   44.5160   35.1910   46.0550 C   0  0  0  0  0  0  0  0  0  0  0  0
   45.1050   33.9650   46.4110 C   0  0  0  0  0  0  0  0  0  0  0  0
   45.6670   33.2260   45.3990 C   0  0  0  0  0  0  0  0  0  0  0  0
   45.6250   33.7110   44.1220 N   0  0  0  0  0  0  0  0  0  0  0  0
   45.0530   34.8850   43.8330 C   0  0  0  0  0  0  0  0  0  0  0  0
   44.4970   35.6250   44.8080 N   0  0  0  0  0  0  0  0  0  0  0  0
   46.3130   31.9490   45.5790 C   0  0  0  0  0  0  0  0  0  0  0  0
   46.2770   30.8440   44.7830 C   0  0  0  0  0  0  0  0  0  0  0  0
   46.9140   29.6460   45.0000 C   0  0  0  0  0  0  0  0  0  0  0  0
   47.6830   29.4970   46.1290 C   0  0  0  0  0  0  0  0  0  0  0  0
   47.7310   30.6050   46.9470 C   0  0  0  0  0  0  0  0  0  0  0  0
   47.0820   31.7250   46.6580 N   0  0  0  0  0  0  0  0  0  0  0  0
   45.0880   33.5770   47.7550 N   0  0  0  0  0  0  0  0  0  0  0  0
   44.1889   34.9038   41.9039 H   0  0  0  0  0  0  0  0  0  0  0  0
   44.9373   36.4625   42.4436 H   0  0  0  0  0  0  0  0  0  0  0  0
   47.7784   35.9426   43.0871 H   0  0  0  0  0  0  0  0  0  0  0  0
   49.5807   34.9914   41.3151 H   0  0  0  0  0  0  0  0  0  0  0  0
   49.0613   31.9807   40.3167 H   0  0  0  0  0  0  0  0  0  0  0  0
   50.1256   30.7398   38.4131 H   0  0  0  0  0  0  0  0  0  0  0  0
   49.8834   31.8120   36.1528 H   0  0  0  0  0  0  0  0  0  0  0  0
   48.6944   33.9137   35.8274 H   0  0  0  0  0  0  0  0  0  0  0  0
   44.0562   35.8086   46.8406 H   0  0  0  0  0  0  0  0  0  0  0  0
   45.6724   30.9190   43.8671 H   0  0  0  0  0  0  0  0  0  0  0  0
   46.8100   28.8196   44.2815 H   0  0  0  0  0  0  0  0  0  0  0  0
   48.2190   28.5651   46.3619 H   0  0  0  0  0  0  0  0  0  0  0  0
   48.3273   30.5590   47.8702 H   0  0  0  0  0  0  0  0  0  0  0  0
   45.5136   32.6829   48.0383 H   0  0  0  0  0  0  0  0  0  0  0  0
   44.6498   34.1855   48.4612 H   0  0  0  0  0  0  0  0  0  0  0  0
  1 17  1  0
  2  3  2  0
  2  1  1  0
  4  3  1  0
  5  6  1  0
  5  4  2  0
  6  2  1  0
  7  8  2  0
  7  5  1  0
  9  8  1  0
 10  9  2  0
 11 10  1  0
 11 12  2  0
 12  7  1  0
 13 14  2  0
 14 25  1  0
 15 19  1  0
 15 14  1  0
 16 15  2  0
 17 16  1  0
 17 18  2  0
 18 13  1  0
 19 24  2  0
 20 21  2  0
 20 19  1  0
 21 22  1  0
 22 23  2  0
 24 23  1  0
  1 26  1  0
  1 27  1  0
  3 28  1  0
  4 29  1  0
  8 30  1  0
  9 31  1  0
 10 32  1  0
 11 33  1  0
 13 34  1  0
 20 35  1  0
 21 36  1  0
 22 37  1  0
 23 38  1  0
 25 39  1  0
 25 40  1  0
M  ISO  8  26   8  27   8  28  14  29  14  30  14  31  14  32  14  33  14
M  ISO  5  34  14  35  14  36  14  37  14  38  14
M  END
>  <minimizedAffinity>  (1) 
-6.04050732

>  <minimizedRMSD>  (1) 
6.5075922

$$$$
