
     RDKit          3D

 20 21  0  0  0  0  0  0  0  0999 V2000
   44.5330   35.6900   44.8150 C   0  0  0  0  0  0  0  0  0  0  0  0
   45.2020   35.6450   43.5730 C   0  0  0  0  0  0  0  0  0  0  0  0
   46.1670   34.6400   43.4090 C   0  0  0  0  0  0  0  0  0  0  0  0
   46.4050   33.7780   44.4350 N   0  0  0  0  0  0  0  0  0  0  0  0
   45.7340   33.8670   45.6020 C   0  0  0  0  0  0  0  0  0  0  0  0
   44.8030   34.8160   45.7950 N   0  0  0  0  0  0  0  0  0  0  0  0
   46.0390   32.9090   46.6590 C   0  0  0  0  0  0  0  0  0  0  0  0
   45.1930   32.8160   47.7610 C   0  0  0  0  0  0  0  0  0  0  0  0
   45.4940   31.8990   48.7640 C   0  0  0  0  0  0  0  0  0  0  0  0
   46.6300   31.1430   48.5800 C   0  0  0  0  0  0  0  0  0  0  0  0
   47.4850   31.2260   47.4840 C   0  0  0  0  0  0  0  0  0  0  0  0
   47.1330   32.1300   46.5590 N   0  0  0  0  0  0  0  0  0  0  0  0
   47.0630   34.5170   41.8570 S   0  0  0  0  0  0  0  0  0  0  0  0
   43.7691   36.4634   44.9834 H   0  0  0  0  0  0  0  0  0  0  0  0
   44.9773   36.3640   42.7714 H   0  0  0  0  0  0  0  0  0  0  0  0
   44.3019   33.4563   47.8377 H   0  0  0  0  0  0  0  0  0  0  0  0
   44.8590   31.7845   49.6549 H   0  0  0  0  0  0  0  0  0  0  0  0
   46.8830   30.4133   49.3633 H   0  0  0  0  0  0  0  0  0  0  0  0
   48.3819   30.5969   47.3848 H   0  0  0  0  0  0  0  0  0  0  0  0
   48.3964   34.3340   42.1128 H   0  0  0  0  0  0  0  0  0  0  0  0
  1  6  2  0
  2  1  1  0
  3  2  2  0
  3  4  1  0
  4  5  2  0
  5  6  1  0
  5  7  1  0
  7  8  2  0
  8  9  1  0
 10  9  2  0
 11 10  1  0
 12  7  1  0
 12 11  2  0
 13  3  1  0
  1 14  1  0
  2 15  1  0
  8 16  1  0
  9 17  1  0
 10 18  1  0
 11 19  1  0
 13 20  1  0
M  ISO  7  14  14  15  14  16  14  17  14  18  14  19  14  20  11
M  END
>  <minimizedAffinity>  (1) 
-4.74509239

>  <minimizedRMSD>  (1) 
0.691697359

$$$$
