
     RDKit          3D

 21 22  0  0  0  0  0  0  0  0999 V2000
   47.5050   35.0670   41.9110 C   0  0  0  0  0  0  0  0  0  0  0  0
   48.5760   35.7410   41.8810 O   0  0  0  0  0  0  0  0  0  0  0  0
   46.6100   34.9140   43.0210 C   0  0  0  0  0  0  0  0  0  0  0  0
   45.5910   35.8590   43.0980 C   0  0  0  0  0  0  0  0  0  0  0  0
   44.6950   35.7320   44.1800 C   0  0  0  0  0  0  0  0  0  0  0  0
   44.8890   34.7060   45.0650 N   0  0  0  0  0  0  0  0  0  0  0  0
   45.8930   33.8280   44.9340 C   0  0  0  0  0  0  0  0  0  0  0  0
   46.7570   33.9320   43.9080 N   0  0  0  0  0  0  0  0  0  0  0  0
   47.1760   34.3780   40.6410 C   0  0  0  0  0  0  0  0  0  0  0  0
   48.0770   34.4420   39.5870 C   0  0  0  0  0  0  0  0  0  0  0  0
   47.8500   33.8230   38.3560 C   0  0  0  0  0  0  0  0  0  0  0  0
   46.6580   33.1120   38.1950 C   0  0  0  0  0  0  0  0  0  0  0  0
   45.8130   33.0930   39.2830 C   0  0  0  0  0  0  0  0  0  0  0  0
   46.0500   33.6910   40.4520 N   0  0  0  0  0  0  0  0  0  0  0  0
   45.4897   36.6628   42.3540 H   0  0  0  0  0  0  0  0  0  0  0  0
   43.8622   36.4389   44.3092 H   0  0  0  0  0  0  0  0  0  0  0  0
   46.0112   33.0182   45.6691 H   0  0  0  0  0  0  0  0  0  0  0  0
   49.0113   35.0053   39.7277 H   0  0  0  0  0  0  0  0  0  0  0  0
   48.5849   33.8928   37.5405 H   0  0  0  0  0  0  0  0  0  0  0  0
   46.4089   32.5978   37.2550 H   0  0  0  0  0  0  0  0  0  0  0  0
   44.8673   32.5407   39.1797 H   0  0  0  0  0  0  0  0  0  0  0  0
  1  3  1  0
  2  1  2  0
  3  4  2  0
  3  8  1  0
  4  5  1  0
  5  6  2  0
  7  6  1  0
  8  7  2  0
  9  1  1  0
 10  9  2  0
 11 10  1  0
 12 11  2  0
 12 13  1  0
 13 14  2  0
 14  9  1  0
  4 15  1  0
  5 16  1  0
  7 17  1  0
 10 18  1  0
 11 19  1  0
 12 20  1  0
 13 21  1  0
M  ISO  7  15  14  16  14  17  14  18  14  19  14  20  14  21  14
M  END
>  <minimizedAffinity>  (1) 
-4.30531597

>  <minimizedRMSD>  (1) 
0.984367609

$$$$
