
     RDKit          3D

 30 32  0  0  0  0  0  0  0  0999 V2000
   46.0270   32.7610   47.0530 C   0  0  0  0  0  0  0  0  0  0  0  0
   47.2730   32.4680   47.5490 C   0  0  0  0  0  0  0  0  0  0  0  0
   47.4480   31.6780   48.6710 C   0  0  0  0  0  0  0  0  0  0  0  0
   46.3450   31.1530   49.3360 C   0  0  0  0  0  0  0  0  0  0  0  0
   45.1050   31.4300   48.8620 C   0  0  0  0  0  0  0  0  0  0  0  0
   44.9520   32.2250   47.7350 C   0  0  0  0  0  0  0  0  0  0  0  0
   44.7080   35.3630   44.8510 C   0  0  0  0  0  0  0  0  0  0  0  0
   45.4570   35.2210   43.6770 C   0  0  0  0  0  0  0  0  0  0  0  0
   46.4310   34.2100   43.6480 C   0  0  0  0  0  0  0  0  0  0  0  0
   46.6060   33.4210   44.7470 N   0  0  0  0  0  0  0  0  0  0  0  0
   45.8540   33.6000   45.8620 C   0  0  0  0  0  0  0  0  0  0  0  0
   44.9090   34.5680   45.9100 N   0  0  0  0  0  0  0  0  0  0  0  0
   49.1160   31.3570   49.2350 S   0  0  0  0  0  0  0  0  0  0  0  0
   49.4040   29.5820   49.0930 C   0  0  0  0  0  0  0  0  0  0  0  0
   48.9540   28.7610   48.0870 C   0  0  0  0  0  0  0  0  0  0  0  0
   49.2770   27.4190   48.1460 C   0  0  0  0  0  0  0  0  0  0  0  0
   50.0390   26.9640   49.2180 C   0  0  0  0  0  0  0  0  0  0  0  0
   50.4720   27.8120   50.2020 C   0  0  0  0  0  0  0  0  0  0  0  0
   50.1490   29.1250   50.1330 N   0  0  0  0  0  0  0  0  0  0  0  0
   48.1591   32.8737   47.0388 H   0  0  0  0  0  0  0  0  0  0  0  0
   46.4760   30.5250   50.2295 H   0  0  0  0  0  0  0  0  0  0  0  0
   44.2189   31.0238   49.3718 H   0  0  0  0  0  0  0  0  0  0  0  0
   43.9358   32.4364   47.3708 H   0  0  0  0  0  0  0  0  0  0  0  0
   43.9367   36.1454   44.9051 H   0  0  0  0  0  0  0  0  0  0  0  0
   45.2889   35.8767   42.8099 H   0  0  0  0  0  0  0  0  0  0  0  0
   47.0461   34.0559   42.7491 H   0  0  0  0  0  0  0  0  0  0  0  0
   48.3530   29.1615   47.2573 H   0  0  0  0  0  0  0  0  0  0  0  0
   48.9391   26.7249   47.3624 H   0  0  0  0  0  0  0  0  0  0  0  0
   50.2998   25.8970   49.2762 H   0  0  0  0  0  0  0  0  0  0  0  0
   51.0754   27.4308   51.0390 H   0  0  0  0  0  0  0  0  0  0  0  0
  1  2  2  0
  1  6  1  0
  2  3  1  0
  3 13  1  0
  3  4  2  0
  5  4  1  0
  6  5  2  0
  7 12  2  0
  8  7  1  0
  9  8  2  0
  9 10  1  0
 10 11  2  0
 11 12  1  0
 11  1  1  0
 14 13  1  0
 14 19  2  0
 15 16  2  0
 15 14  1  0
 16 17  1  0
 17 18  2  0
 19 18  1  0
  2 20  1  0
  4 21  1  0
  5 22  1  0
  6 23  1  0
  7 24  1  0
  8 25  1  0
  9 26  1  0
 15 27  1  0
 16 28  1  0
 17 29  1  0
 18 30  1  0
M  ISO  8  20  14  21  14  22  14  23  14  24  14  25  14  26  14  27  14
M  ISO  3  28  14  29  14  30  14
M  END
>  <minimizedAffinity>  (1) 
-5.39200783

>  <minimizedRMSD>  (1) 
0.801288843

$$$$
