
     RDKit          3D

 46 48  0  0  1  0  0  0  0  0999 V2000
   46.8100   34.3620   43.6310 N   0  0  0  0  0  0  0  0  0  0  0  0
   46.4050   35.2200   42.5800 C   0  0  0  0  0  0  0  0  0  0  0  0
   44.9070   35.3770   42.4100 C   0  0  0  0  0  0  0  0  0  0  0  0
   44.1380   35.3150   43.7010 C   0  0  0  0  0  0  0  0  0  0  0  0
   45.0410   35.1690   44.8990 C   0  0  0  0  0  0  0  0  0  0  0  0
   45.8920   33.8960   44.5570 C   0  0  2  0  0  0  0  0  0  0  0  0
   47.9380   33.5240   43.3130 C   0  0  0  0  0  0  0  0  0  0  0  0
   47.4730   32.3390   42.5440 C   0  0  0  0  0  0  0  0  0  0  0  0
   50.1230   31.6790   39.9590 C   0  0  0  0  0  0  0  0  0  0  0  0
   49.4530   31.7390   41.2030 C   0  0  0  0  0  0  0  0  0  0  0  0
   48.1860   32.2710   41.2440 C   0  0  0  0  0  0  0  0  0  0  0  0
   47.6440   32.7110   40.0970 N   0  0  0  0  0  0  0  0  0  0  0  0
   48.2980   32.6460   38.9190 C   0  0  0  0  0  0  0  0  0  0  0  0
   49.5290   32.1350   38.8410 N   0  0  0  0  0  0  0  0  0  0  0  0
   46.4890   33.6190   45.7820 O   0  0  0  0  0  0  0  0  0  0  0  0
   45.6080   31.1800   45.2150 O   0  0  0  0  0  0  0  0  0  0  0  0
   46.1440   32.0590   46.3410 P   0  0  2  0  0  0  0  0  0  0  0  0
   44.8780   32.2190   47.4670 O   0  0  0  0  0  0  0  0  0  0  0  0
   47.4550   31.3860   47.1210 O   0  0  0  0  0  0  0  0  0  0  0  0
   47.7540   30.0660   47.3010 C   0  0  0  0  0  0  0  0  0  0  0  0
   46.8750   29.0110   47.2750 C   0  0  0  0  0  0  0  0  0  0  0  0
   47.2480   27.6960   47.4660 C   0  0  0  0  0  0  0  0  0  0  0  0
   48.5910   27.3880   47.7020 C   0  0  0  0  0  0  0  0  0  0  0  0
   49.4150   28.5000   47.7140 C   0  0  0  0  0  0  0  0  0  0  0  0
   49.0670   29.7780   47.5310 N   0  0  0  0  0  0  0  0  0  0  0  0
   46.8311   36.2159   42.7715 H   0  0  0  0  0  0  0  0  0  0  0  0
   46.7684   34.7549   41.6518 H   0  0  0  0  0  0  0  0  0  0  0  0
   44.7122   36.3509   41.9371 H   0  0  0  0  0  0  0  0  0  0  0  0
   44.5651   34.5326   41.7935 H   0  0  0  0  0  0  0  0  0  0  0  0
   43.5537   36.2406   43.8093 H   0  0  0  0  0  0  0  0  0  0  0  0
   43.4858   34.4301   43.6617 H   0  0  0  0  0  0  0  0  0  0  0  0
   45.6847   36.0531   45.0173 H   0  0  0  0  0  0  0  0  0  0  0  0
   44.4884   35.0757   45.8455 H   0  0  0  0  0  0  0  0  0  0  0  0
   45.3785   33.0100   44.1553 H   0  0  0  0  0  0  0  0  0  0  0  0
   48.6593   34.0936   42.7086 H   0  0  0  0  0  0  0  0  0  0  0  0
   48.4217   33.1912   44.2432 H   0  0  0  0  0  0  0  0  0  0  0  0
   47.6786   31.4255   43.1213 H   0  0  0  0  0  0  0  0  0  0  0  0
   46.3919   32.4267   42.3608 H   0  0  0  0  0  0  0  0  0  0  0  0
   51.1372   31.2565   39.9049 H   0  0  0  0  0  0  0  0  0  0  0  0
   49.9357   31.3676   42.1190 H   0  0  0  0  0  0  0  0  0  0  0  0
   47.8090   33.0202   38.0075 H   0  0  0  0  0  0  0  0  0  0  0  0
   45.2452   32.1726   48.3852 H   0  0  0  0  0  0  0  0  0  0  0  0
   45.8121   29.2266   47.0913 H   0  0  0  0  0  0  0  0  0  0  0  0
   46.4938   26.8959   47.4328 H   0  0  0  0  0  0  0  0  0  0  0  0
   48.9568   26.3631   47.8623 H   0  0  0  0  0  0  0  0  0  0  0  0
   50.4831   28.3098   47.8957 H   0  0  0  0  0  0  0  0  0  0  0  0
  1  6  1  0
  2  1  1  0
  3  2  1  0
  3  4  1  0
  4  5  1  0
  6  5  1  0
  6 15  1  0
  7  1  1  0
  8  7  1  0
  9 10  2  0
 10 11  1  0
 11  8  1  0
 12 11  2  0
 13 12  1  0
 14 13  2  0
 14  9  1  0
 15 17  1  0
 17 16  2  0
 17 19  1  0
 17 18  1  0
 19 20  1  0
 20 25  1  0
 21 20  2  0
 21 22  1  0
 22 23  2  0
 23 24  1  0
 25 24  2  0
  2 26  1  0
  2 27  1  0
  3 28  1  0
  3 29  1  0
  4 30  1  0
  4 31  1  0
  5 32  1  0
  5 33  1  0
  6 34  1  6
  7 35  1  0
  7 36  1  0
  8 37  1  0
  8 38  1  0
  9 39  1  0
 10 40  1  0
 13 41  1  0
 18 42  1  0
 21 43  1  0
 22 44  1  0
 23 45  1  0
 24 46  1  0
M  ISO  8  26  13  27  13  28  13  29  13  30  13  31  13  32  13  33  13
M  ISO  8  34  13  35   8  36   8  37   8  38   8  39  14  40  14  41  14
M  ISO  5  42   3  43  14  44  14  45  14  46  14
M  END
>  <minimizedAffinity>  (1) 
-4.39831352

>  <minimizedRMSD>  (1) 
1.75011218

$$$$
