
     RDKit          3D

 36 39  0  0  0  0  0  0  0  0999 V2000
   45.9250   33.1890   41.7210 C   0  0  0  0  0  0  0  0  0  0  0  0
   47.0690   33.8870   41.3620 C   0  0  0  0  0  0  0  0  0  0  0  0
   48.0700   33.9760   42.3260 C   0  0  0  0  0  0  0  0  0  0  0  0
   47.8560   33.3810   43.5380 N   0  0  0  0  0  0  0  0  0  0  0  0
   46.7320   32.7140   43.8460 C   0  0  0  0  0  0  0  0  0  0  0  0
   45.7570   32.6160   42.9310 N   0  0  0  0  0  0  0  0  0  0  0  0
   46.9800   30.7950   45.3650 C   0  0  0  0  0  0  0  0  0  0  0  0
   46.5970   32.1140   45.1570 C   0  0  0  0  0  0  0  0  0  0  0  0
   46.0760   32.9210   46.1630 C   0  0  0  0  0  0  0  0  0  0  0  0
   45.9200   32.4000   47.4490 C   0  0  0  0  0  0  0  0  0  0  0  0
   45.4620   32.8690   48.6420 N   0  0  0  0  0  0  0  0  0  0  0  0
   45.5730   31.8260   49.5530 C   0  0  0  0  0  0  0  0  0  0  0  0
   46.0960   30.7460   48.8980 N   0  0  0  0  0  0  0  0  0  0  0  0
   46.3110   31.0830   47.6210 C   0  0  0  0  0  0  0  0  0  0  0  0
   46.8260   30.2670   46.6510 C   0  0  0  0  0  0  0  0  0  0  0  0
   49.3260   34.7040   42.0250 C   0  0  0  0  0  0  0  0  0  0  0  0
   49.0620   35.8250   41.2430 F   0  0  0  0  0  0  0  0  0  0  0  0
   49.9220   35.1440   43.1680 F   0  0  0  0  0  0  0  0  0  0  0  0
   50.1650   33.8490   41.3330 F   0  0  0  0  0  0  0  0  0  0  0  0
   47.1980   34.4440   40.1350 O   0  0  0  0  0  0  0  0  0  0  0  0
   47.3920   33.7380   38.9930 C   0  0  0  0  0  0  0  0  0  0  0  0
   48.3600   34.4340   38.2520 C   0  0  0  0  0  0  0  0  0  0  0  0
   48.8250   34.0060   37.0000 C   0  0  0  0  0  0  0  0  0  0  0  0
   48.3000   32.8290   36.4680 C   0  0  0  0  0  0  0  0  0  0  0  0
   47.3530   32.1680   37.2160 C   0  0  0  0  0  0  0  0  0  0  0  0
   46.9460   32.6240   38.4070 N   0  0  0  0  0  0  0  0  0  0  0  0
   45.1147   33.0982   40.9826 H   0  0  0  0  0  0  0  0  0  0  0  0
   47.3906   30.1863   44.5459 H   0  0  0  0  0  0  0  0  0  0  0  0
   45.7893   33.9608   45.9473 H   0  0  0  0  0  0  0  0  0  0  0  0
   45.1023   33.8152   48.8326 H   0  0  0  0  0  0  0  0  0  0  0  0
   45.2897   31.8627   50.6153 H   0  0  0  0  0  0  0  0  0  0  0  0
   47.1100   29.2283   46.8755 H   0  0  0  0  0  0  0  0  0  0  0  0
   48.7745   35.3613   38.6744 H   0  0  0  0  0  0  0  0  0  0  0  0
   49.5840   34.5837   36.4521 H   0  0  0  0  0  0  0  0  0  0  0  0
   48.6291   32.4449   35.4912 H   0  0  0  0  0  0  0  0  0  0  0  0
   46.9174   31.2372   36.8237 H   0  0  0  0  0  0  0  0  0  0  0  0
  1  6  2  0
  2  1  1  0
  2  3  2  0
  3  4  1  0
  4  5  2  0
  5  8  1  0
  6  5  1  0
  7 15  2  0
  8  7  1  0
  8  9  2  0
  9 10  1  0
 10 14  2  0
 10 11  1  0
 11 12  1  0
 13 12  2  0
 14 13  1  0
 15 14  1  0
 16  3  1  0
 16 18  1  0
 17 16  1  0
 19 16  1  0
 20  2  1  0
 21 20  1  0
 22 21  2  0
 23 22  1  0
 24 23  2  0
 24 25  1  0
 25 26  2  0
 26 21  1  0
  1 27  1  0
  7 28  1  0
  9 29  1  0
 11 30  1  0
 12 31  1  0
 15 32  1  0
 22 33  1  0
 23 34  1  0
 24 35  1  0
 25 36  1  0
M  ISO  8  27  14  28  14  29  14  30   9  31  14  32  14  33  14  34  14
M  ISO  2  35  14  36  14
M  END
>  <minimizedAffinity>  (1) 
-6.27791882

>  <minimizedRMSD>  (1) 
1.34990072

$$$$
