
     RDKit          3D

 23 24  0  0  0  0  0  0  0  0999 V2000
   43.6150   35.5700   41.4220 C   0  0  0  0  0  0  0  0  0  0  0  0
   44.2820   35.8520   43.7230 C   0  0  0  0  0  0  0  0  0  0  0  0
   44.2170   34.9950   42.6290 C   0  0  0  0  0  0  0  0  0  0  0  0
   44.7180   33.7190   42.7920 C   0  0  0  0  0  0  0  0  0  0  0  0
   45.2290   33.3870   43.9780 N   0  0  0  0  0  0  0  0  0  0  0  0
   45.2880   34.2220   45.0340 C   0  0  0  0  0  0  0  0  0  0  0  0
   44.8100   35.4980   44.9370 N   0  0  0  0  0  0  0  0  0  0  0  0
   42.2320   35.6370   41.4640 O   0  0  0  0  0  0  0  0  0  0  0  0
   41.4850   35.2790   40.3570 C   0  0  0  0  0  0  0  0  0  0  0  0
   40.1400   35.1340   40.7030 C   0  0  0  0  0  0  0  0  0  0  0  0
   39.1940   34.7740   39.7420 C   0  0  0  0  0  0  0  0  0  0  0  0
   39.6250   34.5700   38.4520 C   0  0  0  0  0  0  0  0  0  0  0  0
   40.9820   34.7280   38.1500 C   0  0  0  0  0  0  0  0  0  0  0  0
   41.8640   35.0730   39.0970 N   0  0  0  0  0  0  0  0  0  0  0  0
   43.9061   34.9509   40.5607 H   0  0  0  0  0  0  0  0  0  0  0  0
   43.9833   36.6034   41.3417 H   0  0  0  0  0  0  0  0  0  0  0  0
   43.8870   36.8720   43.6069 H   0  0  0  0  0  0  0  0  0  0  0  0
   44.6962   32.9946   41.9645 H   0  0  0  0  0  0  0  0  0  0  0  0
   45.7245   33.8734   45.9816 H   0  0  0  0  0  0  0  0  0  0  0  0
   39.8231   35.3051   41.7424 H   0  0  0  0  0  0  0  0  0  0  0  0
   38.1333   34.6567   40.0089 H   0  0  0  0  0  0  0  0  0  0  0  0
   38.9102   34.2855   37.6658 H   0  0  0  0  0  0  0  0  0  0  0  0
   41.3298   34.5664   37.1190 H   0  0  0  0  0  0  0  0  0  0  0  0
  1  8  1  0
  1  3  1  0
  2  7  2  0
  3  4  2  0
  3  2  1  0
  4  5  1  0
  5  6  2  0
  7  6  1  0
  9 10  2  0
  9  8  1  0
 11 10  1  0
 12 11  2  0
 13 12  1  0
 13 14  2  0
 14  9  1  0
  1 15  1  0
  1 16  1  0
  2 17  1  0
  4 18  1  0
  6 19  1  0
 10 20  1  0
 11 21  1  0
 12 22  1  0
 13 23  1  0
M  ISO  8  15   8  16   8  17  14  18  14  19  14  20  14  21  14  22  14
M  ISO  1  23  14
M  END
>  <minimizedAffinity>  (1) 
-4.50276518

>  <minimizedRMSD>  (1) 
1.6311413

$$$$
