
     RDKit          3D

 33 34  0  0  0  0  0  0  0  0999 V2000
   49.1140   33.8500   42.0800 C   0  0  0  0  0  0  0  0  0  0  0  0
   47.8940   34.6820   41.8510 C   0  0  0  0  0  0  0  0  0  0  0  0
   44.9140   35.1220   44.1050 C   0  0  0  0  0  0  0  0  0  0  0  0
   45.7960   35.2690   43.0100 C   0  0  0  0  0  0  0  0  0  0  0  0
   46.9770   34.5190   43.0070 C   0  0  0  0  0  0  0  0  0  0  0  0
   47.2230   33.6900   44.0450 N   0  0  0  0  0  0  0  0  0  0  0  0
   46.3510   33.5800   45.0710 C   0  0  0  0  0  0  0  0  0  0  0  0
   45.2060   34.2830   45.1130 N   0  0  0  0  0  0  0  0  0  0  0  0
   43.7150   35.8580   44.1510 N   0  0  0  0  0  0  0  0  0  0  0  0
   48.9300   32.5590   41.6530 O   0  0  0  0  0  0  0  0  0  0  0  0
   50.5110   30.4780   41.5650 O   0  0  0  0  0  0  0  0  0  0  0  0
   50.3420   31.8740   41.0440 P   0  0  2  0  0  0  0  0  0  0  0  0
   51.6220   32.8820   41.4500 O   0  0  0  0  0  0  0  0  0  0  0  0
   50.2540   31.8780   39.3320 O   0  0  0  0  0  0  0  0  0  0  0  0
   49.0180   32.1130   38.7450 C   0  0  0  0  0  0  0  0  0  0  0  0
   48.0380   31.1710   38.5550 C   0  0  0  0  0  0  0  0  0  0  0  0
   46.8250   31.4380   37.9690 C   0  0  0  0  0  0  0  0  0  0  0  0
   46.5570   32.7410   37.5360 C   0  0  0  0  0  0  0  0  0  0  0  0
   47.5670   33.6530   37.7480 C   0  0  0  0  0  0  0  0  0  0  0  0
   48.7740   33.3910   38.3290 N   0  0  0  0  0  0  0  0  0  0  0  0
   49.9568   34.2922   41.5285 H   0  0  0  0  0  0  0  0  0  0  0  0
   49.3202   33.8300   43.1603 H   0  0  0  0  0  0  0  0  0  0  0  0
   48.1811   35.7394   41.7536 H   0  0  0  0  0  0  0  0  0  0  0  0
   47.3907   34.3594   40.9276 H   0  0  0  0  0  0  0  0  0  0  0  0
   45.5601   35.9545   42.1827 H   0  0  0  0  0  0  0  0  0  0  0  0
   46.5853   32.8936   45.8980 H   0  0  0  0  0  0  0  0  0  0  0  0
   43.4781   36.5049   43.3853 H   0  0  0  0  0  0  0  0  0  0  0  0
   43.0745   35.7496   44.9503 H   0  0  0  0  0  0  0  0  0  0  0  0
   51.6963   32.9405   42.4355 H   0  0  0  0  0  0  0  0  0  0  0  0
   48.2356   30.1426   38.8916 H   0  0  0  0  0  0  0  0  0  0  0  0
   46.0772   30.6413   37.8423 H   0  0  0  0  0  0  0  0  0  0  0  0
   45.6052   33.0180   37.0591 H   0  0  0  0  0  0  0  0  0  0  0  0
   47.3843   34.6867   37.4192 H   0  0  0  0  0  0  0  0  0  0  0  0
  2  1  1  0
  2  5  1  0
  3  9  1  0
  3  8  2  0
  4  3  1  0
  5  4  2  0
  5  6  1  0
  6  7  2  0
  7  8  1  0
 10  1  1  0
 12 13  1  0
 12 11  2  0
 12 10  1  0
 14 12  1  0
 15 14  1  0
 16 15  2  0
 17 16  1  0
 18 19  1  0
 18 17  2  0
 19 20  2  0
 20 15  1  0
  1 21  1  0
  1 22  1  0
  2 23  1  0
  2 24  1  0
  4 25  1  0
  7 26  1  0
  9 27  1  0
  9 28  1  0
 13 29  1  0
 16 30  1  0
 17 31  1  0
 18 32  1  0
 19 33  1  0
M  ISO  8  21   8  22   8  23   8  24   8  25  14  26  14  29   3  30  14
M  ISO  3  31  14  32  14  33  14
M  END
>  <minimizedAffinity>  (1) 
-4.52799845

>  <minimizedRMSD>  (1) 
0.967003763

$$$$
