
     RDKit          3D

 44 46  0  0  1  0  0  0  0  0999 V2000
   47.4200   32.8720   47.4020 O   0  0  0  0  0  0  0  0  0  0  0  0
   46.1350   32.3310   46.8860 P   0  0  1  0  0  0  0  0  0  0  0  0
   46.4200   31.4210   45.4830 O   0  0  0  0  0  0  0  0  0  0  0  0
   45.5120   31.3550   48.0690 O   0  0  0  0  0  0  0  0  0  0  0  0
   47.6790   30.3650   48.2220 C   0  0  2  0  0  0  0  0  0  0  0  0
   46.2150   30.1780   48.1250 C   0  0  2  0  0  0  0  0  0  0  0  0
   45.9900   29.3150   46.9870 C   0  0  0  0  0  0  0  0  0  0  0  0
   47.1650   28.5940   46.7260 O   0  0  0  0  0  0  0  0  0  0  0  0
   48.0330   28.9090   47.7160 C   0  0  0  0  0  0  0  0  0  0  0  0
   48.2120   30.5040   49.4430 O   0  0  0  0  0  0  0  0  0  0  0  0
   49.3850   30.9900   49.7300 C   0  0  0  0  0  0  0  0  0  0  0  0
   50.0630   30.0790   50.7320 C   0  0  0  0  0  0  0  0  0  0  0  0
   45.1450   33.6860   46.5710 O   0  0  0  0  0  0  0  0  0  0  0  0
   46.4380   34.6770   43.3730 C   0  0  0  0  0  0  0  0  0  0  0  0
   45.6160   35.7970   43.0040 C   0  0  0  0  0  0  0  0  0  0  0  0
   44.6060   36.1700   43.9300 C   0  0  0  0  0  0  0  0  0  0  0  0
   44.4780   35.4680   45.0750 N   0  0  0  0  0  0  0  0  0  0  0  0
   45.2700   34.4280   45.3770 C   0  0  0  0  0  0  0  0  0  0  0  0
   46.2210   34.0690   44.5180 N   0  0  0  0  0  0  0  0  0  0  0  0
   47.3850   34.3280   42.4960 O   0  0  0  0  0  0  0  0  0  0  0  0
   47.4350   33.1660   41.7780 C   0  0  0  0  0  0  0  0  0  0  0  0
   46.5610   32.1520   41.4910 C   0  0  0  0  0  0  0  0  0  0  0  0
   46.8830   31.0630   40.7150 C   0  0  0  0  0  0  0  0  0  0  0  0
   48.1520   30.9600   40.1820 C   0  0  0  0  0  0  0  0  0  0  0  0
   49.0150   31.9860   40.4810 C   0  0  0  0  0  0  0  0  0  0  0  0
   48.6880   33.0570   41.2470 N   0  0  0  0  0  0  0  0  0  0  0  0
   46.7062   30.5073   45.7348 H   0  0  0  0  0  0  0  0  0  0  0  0
   48.0338   31.2744   47.7149 H   0  0  0  0  0  0  0  0  0  0  0  0
   45.8275   29.7116   49.0428 H   0  0  0  0  0  0  0  0  0  0  0  0
   45.1696   28.6167   47.2092 H   0  0  0  0  0  0  0  0  0  0  0  0
   45.7194   29.9188   46.1082 H   0  0  0  0  0  0  0  0  0  0  0  0
   47.9342   28.1907   48.5432 H   0  0  0  0  0  0  0  0  0  0  0  0
   49.0684   28.8711   47.3465 H   0  0  0  0  0  0  0  0  0  0  0  0
   49.9933   31.0503   48.8155 H   0  0  0  0  0  0  0  0  0  0  0  0
   49.2760   31.9977   50.1574 H   0  0  0  0  0  0  0  0  0  0  0  0
   49.8175   30.4089   51.7522 H   0  0  0  0  0  0  0  0  0  0  0  0
   49.7115   29.0470   50.5858 H   0  0  0  0  0  0  0  0  0  0  0  0
   51.1525   30.1194   50.5858 H   0  0  0  0  0  0  0  0  0  0  0  0
   45.7614   36.3358   42.0561 H   0  0  0  0  0  0  0  0  0  0  0  0
   43.9385   37.0180   43.7171 H   0  0  0  0  0  0  0  0  0  0  0  0
   45.5434   32.2116   41.9045 H   0  0  0  0  0  0  0  0  0  0  0  0
   46.1350   30.2802   40.5207 H   0  0  0  0  0  0  0  0  0  0  0  0
   48.4540   30.1077   39.5556 H   0  0  0  0  0  0  0  0  0  0  0  0
   50.0356   31.9361   40.0737 H   0  0  0  0  0  0  0  0  0  0  0  0
  2  1  2  0
  2  4  1  0
  3  2  1  0
  4  6  1  0
  5 10  1  0
  6  5  1  0
  7  6  1  0
  8  7  1  0
  8  9  1  0
  9  5  1  0
 10 11  1  0
 11 12  1  0
 13  2  1  0
 14 19  1  0
 15 14  2  0
 15 16  1  0
 16 17  2  0
 17 18  1  0
 18 13  1  0
 19 18  2  0
 20 14  1  0
 21 20  1  0
 22 21  2  0
 23 22  1  0
 24 25  1  0
 24 23  2  0
 25 26  2  0
 26 21  1  0
  3 27  1  0
  5 28  1  6
  6 29  1  1
  7 30  1  0
  7 31  1  0
  9 32  1  0
  9 33  1  0
 11 34  1  0
 11 35  1  0
 12 36  1  0
 12 37  1  0
 12 38  1  0
 15 39  1  0
 16 40  1  0
 22 41  1  0
 23 42  1  0
 24 43  1  0
 25 44  1  0
M  ISO  8  27   3  28  13  29  13  30  13  31  13  32  13  33  13  34   8
M  ISO  8  35   8  36   8  37   8  38   8  39  14  40  14  41  14  42  14
M  ISO  2  43  14  44  14
M  END
>  <minimizedAffinity>  (1) 
-4.74488878

>  <minimizedRMSD>  (1) 
4.8480649

$$$$
