
     RDKit          3D

 50 55  0  0  0  0  0  0  0  0999 V2000
   44.4060   31.6930   43.0210 Cl  0  0  0  0  0  0  0  0  0  0  0  0
   44.4490   33.4240   42.6730 C   0  0  0  0  0  0  0  0  0  0  0  0
   45.4030   34.1610   43.4030 C   0  0  0  0  0  0  0  0  0  0  0  0
   45.3530   35.5000   43.0520 C   0  0  0  0  0  0  0  0  0  0  0  0
   44.5690   36.1320   42.1670 C   0  0  0  0  0  0  0  0  0  0  0  0
   43.6720   35.3420   41.5030 C   0  0  0  0  0  0  0  0  0  0  0  0
   43.5960   34.0120   41.7350 C   0  0  0  0  0  0  0  0  0  0  0  0
   42.6540   33.1190   41.0580 C   0  0  0  0  0  0  0  0  0  0  0  0
   43.0450   32.7500   39.7690 C   0  0  0  0  0  0  0  0  0  0  0  0
   42.2190   31.9020   39.0290 C   0  0  0  0  0  0  0  0  0  0  0  0
   41.0250   31.3980   39.4920 C   0  0  0  0  0  0  0  0  0  0  0  0
   40.6900   31.7920   40.7600 C   0  0  0  0  0  0  0  0  0  0  0  0
   41.4590   32.6190   41.5280 C   0  0  0  0  0  0  0  0  0  0  0  0
   39.1620   31.1940   41.4520 S   0  0  0  0  0  0  0  0  0  0  0  0
   38.4110   30.1570   40.2150 C   0  0  0  0  0  0  0  0  0  0  0  0
   37.2100   29.5520   40.4690 C   0  0  0  0  0  0  0  0  0  0  0  0
   36.5810   28.7400   39.5540 C   0  0  0  0  0  0  0  0  0  0  0  0
   37.2090   28.5490   38.3400 C   0  0  0  0  0  0  0  0  0  0  0  0
   38.4160   29.1780   38.1260 C   0  0  0  0  0  0  0  0  0  0  0  0
   39.0700   29.9950   39.0230 C   0  0  0  0  0  0  0  0  0  0  0  0
   40.2970   30.5500   38.6260 N   0  0  0  0  0  0  0  0  0  0  0  0
   46.3660   33.6270   44.4080 C   0  0  0  0  0  0  0  0  0  0  0  0
   45.8030   34.0110   45.4020 O   0  0  0  0  0  0  0  0  0  0  0  0
   47.4530   32.9400   43.6970 C   0  0  0  0  0  0  0  0  0  0  0  0
   48.3140   33.4950   42.8320 C   0  0  0  0  0  0  0  0  0  0  0  0
   49.1760   32.6030   42.2280 C   0  0  0  0  0  0  0  0  0  0  0  0
   49.0820   31.2390   42.5670 N   0  0  0  0  0  0  0  0  0  0  0  0
   48.2120   30.7720   43.4280 C   0  0  0  0  0  0  0  0  0  0  0  0
   47.3320   31.6300   44.0500 N   0  0  0  0  0  0  0  0  0  0  0  0
   48.4830   34.8830   42.5820 C   0  0  0  0  0  0  0  0  0  0  0  0
   49.5640   35.5270   42.0690 C   0  0  0  0  0  0  0  0  0  0  0  0
   48.4620   35.3400   41.0630 C   0  0  0  0  0  0  0  0  0  0  0  0
   46.0684   36.1457   43.5823 H   0  0  0  0  0  0  0  0  0  0  0  0
   44.6425   37.2147   41.9869 H   0  0  0  0  0  0  0  0  0  0  0  0
   42.9973   35.7985   40.7638 H   0  0  0  0  0  0  0  0  0  0  0  0
   43.9889   33.1217   39.3436 H   0  0  0  0  0  0  0  0  0  0  0  0
   42.5416   31.6200   38.0159 H   0  0  0  0  0  0  0  0  0  0  0  0
   41.1189   32.8904   42.5383 H   0  0  0  0  0  0  0  0  0  0  0  0
   36.7286   29.7218   41.4434 H   0  0  0  0  0  0  0  0  0  0  0  0
   35.6165   28.2622   39.7808 H   0  0  0  0  0  0  0  0  0  0  0  0
   36.7583   27.9121   37.5646 H   0  0  0  0  0  0  0  0  0  0  0  0
   38.9010   29.0135   37.1525 H   0  0  0  0  0  0  0  0  0  0  0  0
   40.6721   30.3364   37.6908 H   0  0  0  0  0  0  0  0  0  0  0  0
   49.9212   32.9498   41.4969 H   0  0  0  0  0  0  0  0  0  0  0  0
   48.1843   29.6958   43.6540 H   0  0  0  0  0  0  0  0  0  0  0  0
   47.9436   35.0580   43.5246 H   0  0  0  0  0  0  0  0  0  0  0  0
   49.7914   36.5436   42.4222 H   0  0  0  0  0  0  0  0  0  0  0  0
   50.6318   35.2637   42.0450 H   0  0  0  0  0  0  0  0  0  0  0  0
   47.8434   36.1866   40.7303 H   0  0  0  0  0  0  0  0  0  0  0  0
   48.3243   34.8859   40.0706 H   0  0  0  0  0  0  0  0  0  0  0  0
  2  1  1  0
  2  3  2  0
  3 22  1  0
  4  3  1  0
  5  4  2  0
  6  7  2  0
  6  5  1  0
  7  2  1  0
  8 13  1  0
  8  7  1  0
  9  8  2  0
 10 11  2  0
 10  9  1  0
 11 12  1  0
 12 14  1  0
 12 13  2  0
 15 16  2  0
 15 14  1  0
 17 16  1  0
 18 17  2  0
 19 18  1  0
 19 20  2  0
 20 15  1  0
 21 20  1  0
 21 11  1  0
 22 23  2  0
 24 29  1  0
 24 22  1  0
 25 24  2  0
 26 27  2  0
 26 25  1  0
 27 28  1  0
 28 29  2  0
 30 25  1  0
 31 30  1  0
 32 31  1  0
 32 30  1  0
  4 33  1  0
  5 34  1  0
  6 35  1  0
  9 36  1  0
 10 37  1  0
 13 38  1  0
 16 39  1  0
 17 40  1  0
 18 41  1  0
 19 42  1  0
 21 43  1  0
 26 44  1  0
 28 45  1  0
 30 46  1  0
 31 47  1  0
 31 48  1  0
 32 49  1  0
 32 50  1  0
M  ISO  8  33  14  34  14  35  14  36  14  37  14  38  14  39  14  40  14
M  ISO  8  41  14  42  14  44  14  45  14  46  13  47  13  48  13  49  13
M  ISO  1  50  13
M  END
>  <minimizedAffinity>  (1) 
-6.77615118

>  <minimizedRMSD>  (1) 
1.26929677

$$$$
