
     RDKit          3D

 56 61  0  0  1  0  0  0  0  0999 V2000
   45.9400   31.8190   46.9540 N   0  0  0  0  0  0  0  0  0  0  0  0
   46.6600   32.5710   47.9200 C   0  0  0  0  0  0  0  0  0  0  0  0
   48.0080   31.9390   48.2730 C   0  0  0  0  0  0  0  0  0  0  0  0
   47.6680   30.6230   48.9560 C   0  0  0  0  0  0  0  0  0  0  0  0
   47.0290   29.7800   47.8700 C   0  0  0  0  0  0  0  0  0  0  0  0
   45.8160   30.4680   47.2980 C   0  0  2  0  0  0  0  0  0  0  0  0
   45.1250   29.5940   46.3440 C   0  0  0  0  0  0  0  0  0  0  0  0
   45.1540   29.7930   44.9780 C   0  0  0  0  0  0  0  0  0  0  0  0
   44.4680   28.9050   44.1380 C   0  0  0  0  0  0  0  0  0  0  0  0
   43.7460   27.8210   44.5910 C   0  0  0  0  0  0  0  0  0  0  0  0
   43.7220   27.6320   45.9520 C   0  0  0  0  0  0  0  0  0  0  0  0
   44.3930   28.5010   46.7620 C   0  0  0  0  0  0  0  0  0  0  0  0
   42.8100   26.2570   46.5820 S   0  0  0  0  0  0  0  0  0  0  0  0
   42.1150   25.4200   45.1840 C   0  0  0  0  0  0  0  0  0  0  0  0
   41.3640   24.3120   45.4750 C   0  0  0  0  0  0  0  0  0  0  0  0
   40.7880   23.6100   44.4130 C   0  0  0  0  0  0  0  0  0  0  0  0
   40.9900   24.0460   43.1200 C   0  0  0  0  0  0  0  0  0  0  0  0
   41.7630   25.1720   42.9340 C   0  0  0  0  0  0  0  0  0  0  0  0
   42.3630   25.9170   43.9330 C   0  0  0  0  0  0  0  0  0  0  0  0
   43.1200   27.0390   43.5970 N   0  0  0  0  0  0  0  0  0  0  0  0
   46.1480   32.1940   45.5960 C   0  0  0  0  0  0  0  0  0  0  0  0
   46.0070   34.4030   44.2100 C   0  0  1  0  0  0  0  0  0  0  0  0
   45.0450   34.4840   45.2460 C   0  0  0  0  0  0  0  0  0  0  0  0
   46.2540   33.6720   45.5450 C   0  0  1  0  0  0  0  0  0  0  0  0
   44.5910   33.0940   42.6230 C   0  0  0  0  0  0  0  0  0  0  0  0
   45.8900   33.5480   42.9930 C   0  0  0  0  0  0  0  0  0  0  0  0
   46.9710   33.1860   42.2320 C   0  0  0  0  0  0  0  0  0  0  0  0
   46.7410   32.3960   41.1410 N   0  0  0  0  0  0  0  0  0  0  0  0
   45.4890   31.9700   40.8010 C   0  0  0  0  0  0  0  0  0  0  0  0
   44.3900   32.3130   41.5400 N   0  0  0  0  0  0  0  0  0  0  0  0
   46.8381   33.5800   47.5197 H   0  0  0  0  0  0  0  0  0  0  0  0
   46.0550   32.5996   48.8382 H   0  0  0  0  0  0  0  0  0  0  0  0
   48.5993   31.7593   47.3630 H   0  0  0  0  0  0  0  0  0  0  0  0
   48.6106   32.5932   48.9203 H   0  0  0  0  0  0  0  0  0  0  0  0
   48.5781   30.1380   49.3386 H   0  0  0  0  0  0  0  0  0  0  0  0
   47.0024   30.7625   49.8206 H   0  0  0  0  0  0  0  0  0  0  0  0
   47.7610   29.6134   47.0660 H   0  0  0  0  0  0  0  0  0  0  0  0
   46.7148   28.8214   48.3087 H   0  0  0  0  0  0  0  0  0  0  0  0
   45.1258   30.6103   48.1426 H   0  0  0  0  0  0  0  0  0  0  0  0
   45.7106   30.6411   44.5526 H   0  0  0  0  0  0  0  0  0  0  0  0
   44.5080   29.0834   43.0533 H   0  0  0  0  0  0  0  0  0  0  0  0
   44.3465   28.3138   47.8450 H   0  0  0  0  0  0  0  0  0  0  0  0
   41.2185   23.9843   46.5149 H   0  0  0  0  0  0  0  0  0  0  0  0
   40.1776   22.7157   44.6068 H   0  0  0  0  0  0  0  0  0  0  0  0
   40.5486   23.5125   42.2652 H   0  0  0  0  0  0  0  0  0  0  0  0
   41.9165   25.5083   41.8980 H   0  0  0  0  0  0  0  0  0  0  0  0
   43.2240   27.3014   42.6064 H   0  0  0  0  0  0  0  0  0  0  0  0
   47.0763   31.7391   45.2202 H   0  0  0  0  0  0  0  0  0  0  0  0
   45.3132   31.8468   44.9694 H   0  0  0  0  0  0  0  0  0  0  0  0
   46.4780   35.1832   43.5940 H   0  0  0  0  0  0  0  0  0  0  0  0
   44.8961   35.4404   45.7687 H   0  0  0  0  0  0  0  0  0  0  0  0
   43.9664   34.2726   45.2899 H   0  0  0  0  0  0  0  0  0  0  0  0
   47.0363   33.6545   46.3181 H   0  0  0  0  0  0  0  0  0  0  0  0
   43.7272   33.3882   43.2372 H   0  0  0  0  0  0  0  0  0  0  0  0
   47.9870   33.5194   42.4902 H   0  0  0  0  0  0  0  0  0  0  0  0
   45.3610   31.3357   39.9114 H   0  0  0  0  0  0  0  0  0  0  0  0
  1  6  1  0
  1  2  1  0
  2  3  1  0
  3  4  1  0
  5  4  1  0
  6  5  1  0
  7 12  1  0
  7  6  1  0
  8  7  2  0
  9 10  2  0
  9  8  1  0
 10 11  1  0
 11 13  1  0
 11 12  2  0
 14 15  2  0
 14 13  1  0
 16 15  1  0
 17 16  2  0
 18 17  1  0
 18 19  2  0
 19 14  1  0
 20 19  1  0
 20 10  1  0
 21  1  1  0
 22 23  1  0
 22 24  1  0
 23 24  1  0
 24 21  1  0
 25 26  2  0
 26 22  1  0
 27 26  1  0
 28 27  2  0
 29 28  1  0
 29 30  2  0
 30 25  1  0
  2 31  1  0
  2 32  1  0
  3 33  1  0
  3 34  1  0
  4 35  1  0
  4 36  1  0
  5 37  1  0
  5 38  1  0
  6 39  1  1
  8 40  1  0
  9 41  1  0
 12 42  1  0
 15 43  1  0
 16 44  1  0
 17 45  1  0
 18 46  1  0
 20 47  1  0
 21 48  1  0
 21 49  1  0
 22 50  1  6
 23 51  1  0
 23 52  1  0
 24 53  1  1
 25 54  1  0
 27 55  1  0
 29 56  1  0
M  ISO  8  31  13  32  13  33  13  34  13  35  13  36  13  37  13  38  13
M  ISO  8  39  13  40  14  41  14  42  14  43  14  44  14  45  14  46  14
M  ISO  8  48   8  49   8  50  13  51  13  52  13  53  13  54  14  55  14
M  ISO  1  56  14
M  END
>  <minimizedAffinity>  (1) 
-4.8548646

>  <minimizedRMSD>  (1) 
0.390399367

$$$$
