
     RDKit          3D

 38 41  0  0  0  0  0  0  0  0999 V2000
   47.4100   31.3680   46.8200 C   0  0  0  0  0  0  0  0  0  0  0  0
   47.3200   30.0290   46.5030 C   0  0  0  0  0  0  0  0  0  0  0  0
   48.0070   29.1240   47.2850 C   0  0  0  0  0  0  0  0  0  0  0  0
   48.7930   29.4420   48.3720 C   0  0  0  0  0  0  0  0  0  0  0  0
   48.8450   30.7860   48.6390 C   0  0  0  0  0  0  0  0  0  0  0  0
   48.1810   31.7230   47.8960 C   0  0  0  0  0  0  0  0  0  0  0  0
   49.8270   31.3260   50.0220 S   0  0  0  0  0  0  0  0  0  0  0  0
   50.5370   29.8650   50.7500 C   0  0  0  0  0  0  0  0  0  0  0  0
   51.3510   29.9560   51.8450 C   0  0  0  0  0  0  0  0  0  0  0  0
   51.9360   28.8690   52.4610 C   0  0  0  0  0  0  0  0  0  0  0  0
   51.6490   27.6420   51.9010 C   0  0  0  0  0  0  0  0  0  0  0  0
   50.8250   27.5700   50.7960 C   0  0  0  0  0  0  0  0  0  0  0  0
   50.2410   28.6560   50.1800 C   0  0  0  0  0  0  0  0  0  0  0  0
   49.4270   28.3820   49.0600 N   0  0  0  0  0  0  0  0  0  0  0  0
   46.3080   33.4610   44.0210 C   0  0  0  0  0  0  0  0  0  0  0  0
   45.3790   34.2990   44.6250 C   0  0  0  0  0  0  0  0  0  0  0  0
   45.1370   34.1360   45.9970 C   0  0  0  0  0  0  0  0  0  0  0  0
   45.8190   33.1740   46.6640 N   0  0  0  0  0  0  0  0  0  0  0  0
   46.7110   32.3840   46.0410 C   0  0  0  0  0  0  0  0  0  0  0  0
   46.9630   32.5170   44.7270 N   0  0  0  0  0  0  0  0  0  0  0  0
   44.6810   35.3240   43.8100 C   0  0  0  0  0  0  0  0  0  0  0  0
   45.6010   36.2400   43.3150 F   0  0  0  0  0  0  0  0  0  0  0  0
   44.1340   34.7000   42.7020 F   0  0  0  0  0  0  0  0  0  0  0  0
   43.7290   36.0270   44.4640 F   0  0  0  0  0  0  0  0  0  0  0  0
   46.5340   33.6250   42.7030 O   0  0  0  0  0  0  0  0  0  0  0  0
   47.7130   34.0760   42.0760 C   0  0  0  0  0  0  0  0  0  0  0  0
   48.4510   34.7570   43.0440 F   0  0  0  0  0  0  0  0  0  0  0  0
   48.3960   33.0120   41.5540 F   0  0  0  0  0  0  0  0  0  0  0  0
   47.4140   35.0230   41.1260 F   0  0  0  0  0  0  0  0  0  0  0  0
   46.7157   29.6912   45.6482 H   0  0  0  0  0  0  0  0  0  0  0  0
   47.9205   28.0601   47.0192 H   0  0  0  0  0  0  0  0  0  0  0  0
   48.2678   32.7852   48.1682 H   0  0  0  0  0  0  0  0  0  0  0  0
   51.5512   30.9552   52.2592 H   0  0  0  0  0  0  0  0  0  0  0  0
   52.5882   28.9741   53.3406 H   0  0  0  0  0  0  0  0  0  0  0  0
   52.0749   26.7245   52.3331 H   0  0  0  0  0  0  0  0  0  0  0  0
   50.6195   26.5740   50.3767 H   0  0  0  0  0  0  0  0  0  0  0  0
   49.2950   27.4106   48.7441 H   0  0  0  0  0  0  0  0  0  0  0  0
   44.4099   34.7749   46.5196 H   0  0  0  0  0  0  0  0  0  0  0  0
  1  6  1  0
  2  1  2  0
  2  3  1  0
  3  4  2  0
  4  5  1  0
  4 14  1  0
  5  7  1  0
  6  5  2  0
  7  8  1  0
  8  9  2  0
  9 10  1  0
 11 10  2  0
 12 11  1  0
 13  8  1  0
 13 12  2  0
 14 13  1  0
 15 16  2  0
 15 20  1  0
 16 17  1  0
 17 18  2  0
 19 18  1  0
 19  1  1  0
 20 19  2  0
 21 24  1  0
 21 16  1  0
 22 21  1  0
 23 21  1  0
 25 15  1  0
 26 25  1  0
 26 27  1  0
 28 26  1  0
 29 26  1  0
  2 30  1  0
  3 31  1  0
  6 32  1  0
  9 33  1  0
 10 34  1  0
 11 35  1  0
 12 36  1  0
 14 37  1  0
 17 38  1  0
M  ISO  8  30  14  31  14  32  14  33  14  34  14  35  14  36  14  38  14
M  END
>  <minimizedAffinity>  (1) 
-6.67098665

>  <minimizedRMSD>  (1) 
1.76748657

$$$$
