
     RDKit          3D

 42 46  0  0  1  0  0  0  0  0999 V2000
   47.6790   34.2770   39.6430 C   0  0  0  0  0  0  0  0  0  0  0  0
   48.4360   34.5920   38.5340 C   0  0  0  0  0  0  0  0  0  0  0  0
   48.1880   34.0910   37.2840 C   0  0  0  0  0  0  0  0  0  0  0  0
   47.1070   33.2110   37.1350 C   0  0  0  0  0  0  0  0  0  0  0  0
   46.3500   32.8920   38.2390 C   0  0  0  0  0  0  0  0  0  0  0  0
   46.6490   33.4240   39.4540 C   0  0  0  0  0  0  0  0  0  0  0  0
   44.9740   31.7740   38.0900 S   0  0  0  0  0  0  0  0  0  0  0  0
   44.8350   31.3890   36.3550 C   0  0  0  0  0  0  0  0  0  0  0  0
   43.8210   30.6120   35.9130 C   0  0  0  0  0  0  0  0  0  0  0  0
   43.6400   30.2670   34.5970 C   0  0  0  0  0  0  0  0  0  0  0  0
   44.5950   30.7780   33.7040 C   0  0  0  0  0  0  0  0  0  0  0  0
   45.6310   31.5720   34.1720 C   0  0  0  0  0  0  0  0  0  0  0  0
   45.7770   31.9050   35.5440 C   0  0  0  0  0  0  0  0  0  0  0  0
   46.8470   32.7450   35.8360 N   0  0  0  0  0  0  0  0  0  0  0  0
   48.1050   34.9540   40.9170 C   0  0  0  0  0  0  0  0  0  0  0  0
   48.9350   35.9460   40.9750 O   0  0  0  0  0  0  0  0  0  0  0  0
   46.4500   35.1870   42.6790 C   0  0  0  0  0  0  0  0  0  0  0  0
   47.5870   34.5230   42.1680 C   0  0  0  0  0  0  0  0  0  0  0  0
   48.0690   33.4840   42.9370 C   0  0  0  0  0  0  0  0  0  0  0  0
   47.4890   33.1300   44.0980 N   0  0  0  0  0  0  0  0  0  0  0  0
   46.3960   33.7920   44.5590 C   0  0  0  0  0  0  0  0  0  0  0  0
   45.8870   34.8190   43.8370 N   0  0  0  0  0  0  0  0  0  0  0  0
   49.1970   32.8000   42.4980 C   0  0  0  0  0  0  0  0  0  0  0  0
   50.5290   33.1260   42.3560 C   0  0  0  0  0  0  0  0  0  0  0  0
   51.4190   32.2610   41.9010 C   0  0  0  0  0  0  0  0  0  0  0  0
   50.9760   30.9970   41.5680 C   0  0  0  0  0  0  0  0  0  0  0  0
   49.1560   31.1020   41.9470 S   0  0  0  0  0  0  0  0  0  0  0  0
   49.2834   35.2819   38.6603 H   0  0  0  0  0  0  0  0  0  0  0  0
   48.8162   34.3698   36.4252 H   0  0  0  0  0  0  0  0  0  0  0  0
   46.0267   33.1485   40.3182 H   0  0  0  0  0  0  0  0  0  0  0  0
   43.0985   30.2341   36.6514 H   0  0  0  0  0  0  0  0  0  0  0  0
   42.8042   29.6337   34.2649 H   0  0  0  0  0  0  0  0  0  0  0  0
   44.5213   30.5481   32.6308 H   0  0  0  0  0  0  0  0  0  0  0  0
   46.3678   31.9586   33.4525 H   0  0  0  0  0  0  0  0  0  0  0  0
   47.4719   33.0360   35.0707 H   0  0  0  0  0  0  0  0  0  0  0  0
   48.9427   34.2475   41.0123 H   0  0  0  0  0  0  0  0  0  0  0  0
   49.1197   36.1668   41.9222 H   0  0  0  0  0  0  0  0  0  0  0  0
   46.0172   36.0252   42.1131 H   0  0  0  0  0  0  0  0  0  0  0  0
   45.9285   33.4968   45.5099 H   0  0  0  0  0  0  0  0  0  0  0  0
   50.8617   34.1380   42.6300 H   0  0  0  0  0  0  0  0  0  0  0  0
   52.4775   32.5394   41.7914 H   0  0  0  0  0  0  0  0  0  0  0  0
   51.5516   30.1446   41.1780 H   0  0  0  0  0  0  0  0  0  0  0  0
  1 15  1  0
  2  1  2  0
  3  2  1  0
  4  3  2  0
  4  5  1  0
  5  6  2  0
  6  1  1  0
  7  5  1  0
  8  7  1  0
  9  8  2  0
 10  9  1  0
 11 12  1  0
 11 10  2  0
 12 13  2  0
 13 14  1  0
 13  8  1  0
 14  4  1  0
 15 16  1  0
 15 18  1  0
 17 22  2  0
 18 17  1  0
 18 19  2  0
 19 20  1  0
 20 21  2  0
 22 21  1  0
 23 19  1  0
 24 23  2  0
 25 24  1  0
 26 25  2  0
 26 27  1  0
 27 23  1  0
  2 28  1  0
  3 29  1  0
  6 30  1  0
  9 31  1  0
 10 32  1  0
 11 33  1  0
 12 34  1  0
 14 35  1  0
 15 36  1  0
 16 37  1  0
 17 38  1  0
 21 39  1  0
 24 40  1  0
 25 41  1  0
 26 42  1  0
M  ISO  8  28  14  29  14  30  14  31  14  32  14  33  14  34  14  36   8
M  ISO  6  37   3  38  14  39  14  40  14  41  14  42  14
M  END
>  <minimizedAffinity>  (1) 
-6.25286388

>  <minimizedRMSD>  (1) 
3.02138948

$$$$
