
     RDKit          3D

 35 38  0  0  0  0  0  0  0  0999 V2000
   47.5110   29.8650   47.3900 C   0  0  0  0  0  0  0  0  0  0  0  0
   46.6780   30.4450   48.3230 C   0  0  0  0  0  0  0  0  0  0  0  0
   46.0130   31.6100   48.0150 C   0  0  0  0  0  0  0  0  0  0  0  0
   46.1240   32.2620   46.8040 C   0  0  0  0  0  0  0  0  0  0  0  0
   46.9530   31.6730   45.8950 C   0  0  0  0  0  0  0  0  0  0  0  0
   47.6100   30.5320   46.1810 C   0  0  0  0  0  0  0  0  0  0  0  0
   47.1320   32.4730   44.3120 S   0  0  0  0  0  0  0  0  0  0  0  0
   46.1050   33.9260   44.3560 C   0  0  0  0  0  0  0  0  0  0  0  0
   46.1040   34.6900   43.2180 C   0  0  0  0  0  0  0  0  0  0  0  0
   45.3220   35.8410   43.1850 C   0  0  0  0  0  0  0  0  0  0  0  0
   44.5800   36.1740   44.2890 C   0  0  0  0  0  0  0  0  0  0  0  0
   44.6420   35.3460   45.3900 C   0  0  0  0  0  0  0  0  0  0  0  0
   45.3910   34.1930   45.4990 C   0  0  0  0  0  0  0  0  0  0  0  0
   45.3670   33.4410   46.6730 N   0  0  0  0  0  0  0  0  0  0  0  0
   48.4460   28.3600   47.6210 S   0  0  0  0  0  0  0  0  0  0  0  0
   47.5930   26.9770   46.8180 C   0  0  0  0  0  0  0  0  0  0  0  0
   44.4500   26.5320   48.7550 C   0  0  0  0  0  0  0  0  0  0  0  0
   44.7850   25.4800   49.5900 C   0  0  0  0  0  0  0  0  0  0  0  0
   46.0640   24.9400   49.4840 C   0  0  0  0  0  0  0  0  0  0  0  0
   46.9400   25.4520   48.5760 N   0  0  0  0  0  0  0  0  0  0  0  0
   46.5690   26.4840   47.7780 C   0  0  0  0  0  0  0  0  0  0  0  0
   45.3470   27.0140   47.8670 N   0  0  0  0  0  0  0  0  0  0  0  0
   46.5453   29.9783   49.3102 H   0  0  0  0  0  0  0  0  0  0  0  0
   45.3540   32.0472   48.7795 H   0  0  0  0  0  0  0  0  0  0  0  0
   48.2646   30.1047   45.4071 H   0  0  0  0  0  0  0  0  0  0  0  0
   46.7098   34.3990   42.3472 H   0  0  0  0  0  0  0  0  0  0  0  0
   45.2996   36.4745   42.2860 H   0  0  0  0  0  0  0  0  0  0  0  0
   43.9522   37.0773   44.2962 H   0  0  0  0  0  0  0  0  0  0  0  0
   44.0373   35.6319   46.2633 H   0  0  0  0  0  0  0  0  0  0  0  0
   44.7828   33.7551   47.4610 H   0  0  0  0  0  0  0  0  0  0  0  0
   47.1090   27.3182   45.8910 H   0  0  0  0  0  0  0  0  0  0  0  0
   48.3013   26.1780   46.5535 H   0  0  0  0  0  0  0  0  0  0  0  0
   43.4465   26.9786   48.8148 H   0  0  0  0  0  0  0  0  0  0  0  0
   44.0614   25.0820   50.3166 H   0  0  0  0  0  0  0  0  0  0  0  0
   46.3655   24.1032   50.1312 H   0  0  0  0  0  0  0  0  0  0  0  0
  1 15  1  0
  1  2  2  0
  3  2  1  0
  4  3  2  0
  5  6  2  0
  5  4  1  0
  6  1  1  0
  7  8  1  0
  7  5  1  0
  8 13  2  0
  9  8  1  0
 10  9  2  0
 10 11  1  0
 11 12  2  0
 12 13  1  0
 13 14  1  0
 14  4  1  0
 16 15  1  0
 16 21  1  0
 17 18  2  0
 19 18  1  0
 20 19  2  0
 21 22  2  0
 21 20  1  0
 22 17  1  0
  2 23  1  0
  3 24  1  0
  6 25  1  0
  9 26  1  0
 10 27  1  0
 11 28  1  0
 12 29  1  0
 14 30  1  0
 16 31  1  0
 16 32  1  0
 17 33  1  0
 18 34  1  0
 19 35  1  0
M  ISO  8  23  14  24  14  25  14  26  14  27  14  28  14  29  14  31   8
M  ISO  4  32   8  33  14  34  14  35  14
M  END
>  <minimizedAffinity>  (1) 
-5.84076643

>  <minimizedRMSD>  (1) 
8.05429363

$$$$
