
     RDKit          3D

 59 65  0  0  1  0  0  0  0  0999 V2000
   47.6770   30.9260   44.4480 C   0  0  0  0  0  0  0  0  0  0  0  0
   47.8590   32.0930   43.6730 C   0  0  0  0  0  0  0  0  0  0  0  0
   48.9230   31.9590   42.8140 C   0  0  0  0  0  0  0  0  0  0  0  0
   49.7250   30.8670   42.6950 C   0  0  0  0  0  0  0  0  0  0  0  0
   49.4810   29.7580   43.4990 C   0  0  0  0  0  0  0  0  0  0  0  0
   48.4390   29.7920   44.3880 C   0  0  0  0  0  0  0  0  0  0  0  0
   50.4550   28.8390   43.1440 O   0  0  0  0  0  0  0  0  0  0  0  0
   51.2530   29.3520   42.0950 C   0  0  2  0  0  0  0  0  0  0  0  0
   50.8030   30.6790   41.8490 O   0  0  0  0  0  0  0  0  0  0  0  0
   45.6080   35.0770   43.9380 C   0  0  0  0  0  0  0  0  0  0  0  0
   46.5450   34.2400   43.3330 C   0  0  0  0  0  0  0  0  0  0  0  0
   46.9650   33.1190   43.9850 C   0  0  0  0  0  0  0  0  0  0  0  0
   46.4290   32.8820   45.2230 N   0  0  0  0  0  0  0  0  0  0  0  0
   45.5310   33.6860   45.8020 C   0  0  0  0  0  0  0  0  0  0  0  0
   45.1320   34.7600   45.1680 N   0  0  0  0  0  0  0  0  0  0  0  0
   47.0270   34.6210   42.0820 N   0  0  0  0  0  0  0  0  0  0  0  0
   48.2300   35.3770   41.9310 C   0  0  0  0  0  0  0  0  0  0  0  0
   48.6960   35.5500   40.5140 C   0  0  0  0  0  0  0  0  0  0  0  0
   48.5240   34.4360   39.7000 N   0  0  0  0  0  0  0  0  0  0  0  0
   47.3590   33.7280   39.8170 C   0  0  0  0  0  0  0  0  0  0  0  0
   46.4280   34.3360   40.8390 C   0  0  0  0  0  0  0  0  0  0  0  0
   51.0060   28.5690   40.9640 O   0  0  0  0  0  0  0  0  0  0  0  0
   51.2130   28.9020   39.6570 C   0  0  0  0  0  0  0  0  0  0  0  0
   52.2750   28.5300   38.8590 C   0  0  0  0  0  0  0  0  0  0  0  0
   52.3140   28.9640   37.5520 C   0  0  0  0  0  0  0  0  0  0  0  0
   51.3550   29.7580   36.9710 C   0  0  0  0  0  0  0  0  0  0  0  0
   50.3170   30.1170   37.7660 C   0  0  0  0  0  0  0  0  0  0  0  0
   50.2460   29.7100   39.0480 C   0  0  0  0  0  0  0  0  0  0  0  0
   49.0320   31.1480   37.0820 S   0  0  0  0  0  0  0  0  0  0  0  0
   49.5200   31.4420   35.3920 C   0  0  0  0  0  0  0  0  0  0  0  0
   48.6490   32.2270   34.6790 C   0  0  0  0  0  0  0  0  0  0  0  0
   48.9370   32.5160   33.3530 C   0  0  0  0  0  0  0  0  0  0  0  0
   50.0900   32.0030   32.7960 C   0  0  0  0  0  0  0  0  0  0  0  0
   50.9030   31.2230   33.5930 C   0  0  0  0  0  0  0  0  0  0  0  0
   50.6650   30.9050   34.9140 C   0  0  0  0  0  0  0  0  0  0  0  0
   51.5560   30.1060   35.6290 N   0  0  0  0  0  0  0  0  0  0  0  0
   46.8445   30.9298   45.1670 H   0  0  0  0  0  0  0  0  0  0  0  0
   49.1473   32.8154   42.1612 H   0  0  0  0  0  0  0  0  0  0  0  0
   48.2212   28.9303   45.0361 H   0  0  0  0  0  0  0  0  0  0  0  0
   52.3256   29.3421   42.3390 H   0  0  0  0  0  0  0  0  0  0  0  0
   45.2587   35.9843   43.4235 H   0  0  0  0  0  0  0  0  0  0  0  0
   45.1322   33.4480   46.7991 H   0  0  0  0  0  0  0  0  0  0  0  0
   48.0615   36.3760   42.3594 H   0  0  0  0  0  0  0  0  0  0  0  0
   49.0177   34.8084   42.4469 H   0  0  0  0  0  0  0  0  0  0  0  0
   48.1366   36.3868   40.0703 H   0  0  0  0  0  0  0  0  0  0  0  0
   49.7801   35.7291   40.5660 H   0  0  0  0  0  0  0  0  0  0  0  0
   49.2981   33.7871   39.9014 H   0  0  0  0  0  0  0  0  0  0  0  0
   46.8531   33.7127   38.8404 H   0  0  0  0  0  0  0  0  0  0  0  0
   47.6116   32.7105   40.1501 H   0  0  0  0  0  0  0  0  0  0  0  0
   46.0314   35.2752   40.4259 H   0  0  0  0  0  0  0  0  0  0  0  0
   45.6469   33.5864   41.0340 H   0  0  0  0  0  0  0  0  0  0  0  0
   53.0792   27.8959   39.2605 H   0  0  0  0  0  0  0  0  0  0  0  0
   53.1690   28.6545   36.9330 H   0  0  0  0  0  0  0  0  0  0  0  0
   49.3817   30.0298   39.6485 H   0  0  0  0  0  0  0  0  0  0  0  0
   47.7370   32.6208   35.1513 H   0  0  0  0  0  0  0  0  0  0  0  0
   48.2580   33.1430   32.7565 H   0  0  0  0  0  0  0  0  0  0  0  0
   50.3535   32.2094   31.7482 H   0  0  0  0  0  0  0  0  0  0  0  0
   51.8190   30.8205   33.1358 H   0  0  0  0  0  0  0  0  0  0  0  0
   52.3982   29.7565   35.1500 H   0  0  0  0  0  0  0  0  0  0  0  0
  2 12  1  0
  2  1  2  0
  3  2  1  0
  4  3  2  0
  4  5  1  0
  5  6  2  0
  6  1  1  0
  7  5  1  0
  8  7  1  0
  9  8  1  0
  9  4  1  0
 10 15  2  0
 11 10  1  0
 11 12  2  0
 12 13  1  0
 13 14  2  0
 15 14  1  0
 16 11  1  0
 17 16  1  0
 18 17  1  0
 19 20  1  0
 19 18  1  0
 20 21  1  0
 21 16  1  0
 22  8  1  0
 23 22  1  0
 24 23  2  0
 25 24  1  0
 26 25  2  0
 26 27  1  0
 27 28  2  0
 28 23  1  0
 29 27  1  0
 30 29  1  0
 31 30  2  0
 32 31  1  0
 33 32  2  0
 33 34  1  0
 34 35  2  0
 35 30  1  0
 35 36  1  0
 36 26  1  0
  1 37  1  0
  3 38  1  0
  6 39  1  0
  8 40  1  1
 10 41  1  0
 14 42  1  0
 17 43  1  0
 17 44  1  0
 18 45  1  0
 18 46  1  0
 19 47  1  0
 20 48  1  0
 20 49  1  0
 21 50  1  0
 21 51  1  0
 24 52  1  0
 25 53  1  0
 28 54  1  0
 31 55  1  0
 32 56  1  0
 33 57  1  0
 34 58  1  0
 36 59  1  0
M  ISO  8  37  14  38  14  39  14  40  13  41  14  42  14  43  13  44  13
M  ISO  8  45  13  46  13  47   5  48  13  49  13  50  13  51  13  52  14
M  ISO  6  53  14  54  14  55  14  56  14  57  14  58  14
M  END
>  <minimizedAffinity>  (1) 
-6.00200605

>  <minimizedRMSD>  (1) 
5.50706863

$$$$
