
     RDKit          3D

 42 46  0  0  1  0  0  0  0  0999 V2000
   47.7070   30.9220   47.6180 C   0  0  0  0  0  0  0  0  0  0  0  0
   47.8630   29.5650   47.7510 C   0  0  0  0  0  0  0  0  0  0  0  0
   48.7530   28.9760   48.6160 C   0  0  0  0  0  0  0  0  0  0  0  0
   49.5690   29.7340   49.4280 C   0  0  0  0  0  0  0  0  0  0  0  0
   49.4770   31.0950   49.3580 C   0  0  0  0  0  0  0  0  0  0  0  0
   48.5770   31.6270   48.4810 C   0  0  0  0  0  0  0  0  0  0  0  0
   50.5370   32.0670   50.4120 S   0  0  0  0  0  0  0  0  0  0  0  0
   51.5120   30.9080   51.3510 C   0  0  0  0  0  0  0  0  0  0  0  0
   52.3880   31.4680   52.2190 C   0  0  0  0  0  0  0  0  0  0  0  0
   53.1900   30.6470   52.9960 C   0  0  0  0  0  0  0  0  0  0  0  0
   53.0600   29.2950   52.8470 C   0  0  0  0  0  0  0  0  0  0  0  0
   52.1520   28.8070   51.9490 C   0  0  0  0  0  0  0  0  0  0  0  0
   51.3230   29.5630   51.1470 C   0  0  0  0  0  0  0  0  0  0  0  0
   50.4120   28.9740   50.2440 N   0  0  0  0  0  0  0  0  0  0  0  0
   46.9650   31.7920   46.9020 O   0  0  0  0  0  0  0  0  0  0  0  0
   46.2340   32.8430   43.5500 C   0  0  0  0  0  0  0  0  0  0  0  0
   47.0900   31.9620   42.8400 C   0  0  0  0  0  0  0  0  0  0  0  0
   47.8870   31.0380   43.5100 C   0  0  0  0  0  0  0  0  0  0  0  0
   47.7930   31.0380   44.8630 N   0  0  0  0  0  0  0  0  0  0  0  0
   46.9600   31.8990   45.5350 C   0  0  0  0  0  0  0  0  0  0  0  0
   46.1990   32.7800   44.8850 N   0  0  0  0  0  0  0  0  0  0  0  0
   45.4240   33.8070   42.7840 C   0  0  1  0  0  0  0  0  0  0  0  0
   45.9760   35.2690   42.9570 C   0  0  1  0  0  0  0  0  0  0  0  0
   45.8610   34.5210   41.6470 C   0  0  0  0  0  0  0  0  0  0  0  0
   44.8950   36.3040   43.1640 C   0  0  0  0  0  0  0  0  0  0  0  0
   45.3710   37.5800   43.2430 F   0  0  0  0  0  0  0  0  0  0  0  0
   44.0060   36.2430   42.0690 F   0  0  0  0  0  0  0  0  0  0  0  0
   44.1120   35.9910   44.2640 F   0  0  0  0  0  0  0  0  0  0  0  0
   47.2376   28.9093   47.1273 H   0  0  0  0  0  0  0  0  0  0  0  0
   48.8156   27.8787   48.6614 H   0  0  0  0  0  0  0  0  0  0  0  0
   48.5224   32.7249   48.4412 H   0  0  0  0  0  0  0  0  0  0  0  0
   52.4621   32.5620   52.3063 H   0  0  0  0  0  0  0  0  0  0  0  0
   53.9098   31.0713   53.7114 H   0  0  0  0  0  0  0  0  0  0  0  0
   53.6786   28.6074   53.4425 H   0  0  0  0  0  0  0  0  0  0  0  0
   52.0758   27.7134   51.8580 H   0  0  0  0  0  0  0  0  0  0  0  0
   50.3667   27.9467   50.1841 H   0  0  0  0  0  0  0  0  0  0  0  0
   47.1245   32.0099   41.7416 H   0  0  0  0  0  0  0  0  0  0  0  0
   48.5544   30.3478   42.9731 H   0  0  0  0  0  0  0  0  0  0  0  0
   44.5067   33.2147   42.9170 H   0  0  0  0  0  0  0  0  0  0  0  0
   46.7622   35.7776   43.5342 H   0  0  0  0  0  0  0  0  0  0  0  0
   46.7778   34.1988   41.1317 H   0  0  0  0  0  0  0  0  0  0  0  0
   45.3821   34.7638   40.6870 H   0  0  0  0  0  0  0  0  0  0  0  0
  1  2  2  0
  1  6  1  0
  2  3  1  0
  3  4  2  0
  4 14  1  0
  5  4  1  0
  5  7  1  0
  6  5  2  0
  7  8  1  0
  8  9  2  0
  9 10  1  0
 11 10  2  0
 12 11  1  0
 13  8  1  0
 13 12  2  0
 14 13  1  0
 15  1  1  0
 16 21  2  0
 17 18  2  0
 17 16  1  0
 18 19  1  0
 19 20  2  0
 20 15  1  0
 21 20  1  0
 22 23  1  0
 22 16  1  0
 23 25  1  0
 24 22  1  0
 24 23  1  0
 25 26  1  0
 25 28  1  0
 27 25  1  0
  2 29  1  0
  3 30  1  0
  6 31  1  0
  9 32  1  0
 10 33  1  0
 11 34  1  0
 12 35  1  0
 14 36  1  0
 17 37  1  0
 18 38  1  0
 22 39  1  6
 23 40  1  1
 24 41  1  0
 24 42  1  0
M  ISO  8  29  14  30  14  31  14  32  14  33  14  34  14  35  14  37  14
M  ISO  5  38  14  39  13  40  13  41  13  42  13
M  END
>  <minimizedAffinity>  (1) 
-5.83787012

>  <minimizedRMSD>  (1) 
1.78503501

$$$$
