
     RDKit          3D

 58 62  0  0  1  0  0  0  0  0999 V2000
   47.1930   34.1200   42.9410 N   0  0  0  0  0  0  0  0  0  0  0  0
   46.7630   35.3710   42.4370 C   0  0  0  0  0  0  0  0  0  0  0  0
   45.2930   35.6730   42.6380 C   0  0  0  0  0  0  0  0  0  0  0  0
   44.7120   35.1130   43.9010 C   0  0  0  0  0  0  0  0  0  0  0  0
   45.7570   34.4260   44.7460 C   0  0  0  0  0  0  0  0  0  0  0  0
   46.3730   33.3660   43.7650 C   0  0  2  0  0  0  0  0  0  0  0  0
   48.1450   33.4530   42.1090 C   0  0  0  0  0  0  0  0  0  0  0  0
   47.4180   32.6710   41.0600 C   0  0  0  0  0  0  0  0  0  0  0  0
   49.3420   32.3420   37.8480 C   0  0  0  0  0  0  0  0  0  0  0  0
   48.7910   32.0500   39.1100 C   0  0  0  0  0  0  0  0  0  0  0  0
   47.9950   32.9860   39.7270 C   0  0  0  0  0  0  0  0  0  0  0  0
   47.7810   34.1440   39.0880 N   0  0  0  0  0  0  0  0  0  0  0  0
   48.3120   34.4140   37.8790 C   0  0  0  0  0  0  0  0  0  0  0  0
   49.0940   33.5190   37.2520 N   0  0  0  0  0  0  0  0  0  0  0  0
   47.1110   32.5720   44.6370 O   0  0  0  0  0  0  0  0  0  0  0  0
   45.2100   30.8000   44.1050 O   0  0  0  0  0  0  0  0  0  0  0  0
   46.2900   31.1810   45.1080 P   0  0  2  0  0  0  0  0  0  0  0  0
   45.4470   31.5880   46.5410 O   0  0  0  0  0  0  0  0  0  0  0  0
   47.3280   29.9200   45.4490 O   0  0  0  0  0  0  0  0  0  0  0  0
   47.0830   28.8370   46.2520 C   0  0  0  0  0  0  0  0  0  0  0  0
   45.7980   28.3870   46.4870 C   0  0  0  0  0  0  0  0  0  0  0  0
   45.6070   27.2910   47.3060 C   0  0  0  0  0  0  0  0  0  0  0  0
   46.6410   26.6090   47.9120 C   0  0  0  0  0  0  0  0  0  0  0  0
   47.9240   27.0440   47.6880 C   0  0  0  0  0  0  0  0  0  0  0  0
   48.0920   28.1320   46.8730 C   0  0  0  0  0  0  0  0  0  0  0  0
   49.2850   26.1890   48.4520 S   0  0  0  0  0  0  0  0  0  0  0  0
   48.5590   24.8660   49.4000 C   0  0  0  0  0  0  0  0  0  0  0  0
   49.4240   24.0780   50.0720 C   0  0  0  0  0  0  0  0  0  0  0  0
   48.9580   23.0260   50.8330 C   0  0  0  0  0  0  0  0  0  0  0  0
   47.5970   22.8110   50.8830 C   0  0  0  0  0  0  0  0  0  0  0  0
   46.7730   23.6560   50.1700 C   0  0  0  0  0  0  0  0  0  0  0  0
   47.1950   24.7170   49.3980 C   0  0  0  0  0  0  0  0  0  0  0  0
   46.2550   25.5180   48.7090 N   0  0  0  0  0  0  0  0  0  0  0  0
   46.9709   35.3931   41.3571 H   0  0  0  0  0  0  0  0  0  0  0  0
   47.3134   36.1357   43.0046 H   0  0  0  0  0  0  0  0  0  0  0  0
   45.1657   36.7655   42.6558 H   0  0  0  0  0  0  0  0  0  0  0  0
   44.7575   35.1918   41.8063 H   0  0  0  0  0  0  0  0  0  0  0  0
   44.2681   35.9343   44.4828 H   0  0  0  0  0  0  0  0  0  0  0  0
   43.9527   34.3665   43.6248 H   0  0  0  0  0  0  0  0  0  0  0  0
   46.5216   35.1403   45.0854 H   0  0  0  0  0  0  0  0  0  0  0  0
   45.3442   33.9772   45.6615 H   0  0  0  0  0  0  0  0  0  0  0  0
   45.6907   32.7598   43.1510 H   0  0  0  0  0  0  0  0  0  0  0  0
   48.7978   34.1962   41.6278 H   0  0  0  0  0  0  0  0  0  0  0  0
   48.7575   32.7730   42.7193 H   0  0  0  0  0  0  0  0  0  0  0  0
   47.5258   31.5952   41.2625 H   0  0  0  0  0  0  0  0  0  0  0  0
   46.3511   32.9385   41.0731 H   0  0  0  0  0  0  0  0  0  0  0  0
   49.9807   31.6001   37.3464 H   0  0  0  0  0  0  0  0  0  0  0  0
   48.9948   31.0848   39.5966 H   0  0  0  0  0  0  0  0  0  0  0  0
   48.1022   35.3810   37.3986 H   0  0  0  0  0  0  0  0  0  0  0  0
   45.9882   31.3267   47.3277 H   0  0  0  0  0  0  0  0  0  0  0  0
   44.9375   28.8953   46.0275 H   0  0  0  0  0  0  0  0  0  0  0  0
   44.5781   26.9449   47.4837 H   0  0  0  0  0  0  0  0  0  0  0  0
   49.1230   28.4734   46.6986 H   0  0  0  0  0  0  0  0  0  0  0  0
   50.5046   24.2752   50.0128 H   0  0  0  0  0  0  0  0  0  0  0  0
   49.6533   22.3764   51.3849 H   0  0  0  0  0  0  0  0  0  0  0  0
   47.1786   21.9853   51.4773 H   0  0  0  0  0  0  0  0  0  0  0  0
   45.6904   23.4680   50.2215 H   0  0  0  0  0  0  0  0  0  0  0  0
   45.2533   25.2940   48.7943 H   0  0  0  0  0  0  0  0  0  0  0  0
  1  6  1  0
  2  3  1  0
  2  1  1  0
  3  4  1  0
  4  5  1  0
  6 15  1  0
  6  5  1  0
  7  1  1  0
  8  7  1  0
  9 10  2  0
 10 11  1  0
 11  8  1  0
 12 11  2  0
 13 12  1  0
 14  9  1  0
 14 13  2  0
 15 17  1  0
 17 16  2  0
 17 19  1  0
 17 18  1  0
 19 20  1  0
 20 21  2  0
 20 25  1  0
 21 22  1  0
 22 23  2  0
 23 33  1  0
 24 23  1  0
 24 26  1  0
 25 24  2  0
 26 27  1  0
 27 28  2  0
 28 29  1  0
 29 30  2  0
 31 30  1  0
 32 27  1  0
 32 31  2  0
 33 32  1  0
  2 34  1  0
  2 35  1  0
  3 36  1  0
  3 37  1  0
  4 38  1  0
  4 39  1  0
  5 40  1  0
  5 41  1  0
  6 42  1  6
  7 43  1  0
  7 44  1  0
  8 45  1  0
  8 46  1  0
  9 47  1  0
 10 48  1  0
 13 49  1  0
 18 50  1  0
 21 51  1  0
 22 52  1  0
 25 53  1  0
 28 54  1  0
 29 55  1  0
 30 56  1  0
 31 57  1  0
 33 58  1  0
M  ISO  8  34  13  35  13  36  13  37  13  38  13  39  13  40  13  41  13
M  ISO  8  42  13  43   8  44   8  45   8  46   8  47  14  48  14  49  14
M  ISO  8  50   3  51  14  52  14  53  14  54  14  55  14  56  14  57  14
M  END
>  <minimizedAffinity>  (1) 
-5.4527483

>  <minimizedRMSD>  (1) 
0.759395838

$$$$
