
     RDKit          3D

 52 57  0  0  1  0  0  0  0  0999 V2000
   48.2310   29.8890   48.0140 C   0  0  0  0  0  0  0  0  0  0  0  0
   47.3420   30.7570   48.6100 C   0  0  0  0  0  0  0  0  0  0  0  0
   47.9400   31.5350   49.5190 N   0  0  0  0  0  0  0  0  0  0  0  0
   49.2240   31.1640   49.5050 C   0  0  0  0  0  0  0  0  0  0  0  0
   49.3970   30.1880   48.6140 N   0  0  0  0  0  0  0  0  0  0  0  0
   45.9460   32.2930   44.6980 C   0  0  0  0  0  0  0  0  0  0  0  0
   46.9850   32.5240   43.7620 C   0  0  0  0  0  0  0  0  0  0  0  0
   48.0220   31.5490   43.6570 C   0  0  0  0  0  0  0  0  0  0  0  0
   47.9670   30.4400   44.4560 N   0  0  0  0  0  0  0  0  0  0  0  0
   46.9460   30.2760   45.3320 C   0  0  0  0  0  0  0  0  0  0  0  0
   45.9540   31.1920   45.4460 N   0  0  0  0  0  0  0  0  0  0  0  0
   46.9770   29.1100   46.1100 N   0  0  0  0  0  0  0  0  0  0  0  0
   48.0750   28.8390   46.9790 C   0  0  2  0  0  0  0  0  0  0  0  0
   48.1020   27.4610   47.5420 C   0  0  0  0  0  0  0  0  0  0  0  0
   46.8600   26.8140   47.7320 N   0  0  0  0  0  0  0  0  0  0  0  0
   45.7230   27.6140   47.4230 C   0  0  0  0  0  0  0  0  0  0  0  0
   45.8800   28.1660   46.0340 C   0  0  0  0  0  0  0  0  0  0  0  0
   50.3230   31.6920   50.3070 C   0  0  0  0  0  0  0  0  0  0  0  0
   51.0670   32.8030   49.9690 C   0  0  0  0  0  0  0  0  0  0  0  0
   52.0790   33.2130   50.7960 C   0  0  0  0  0  0  0  0  0  0  0  0
   52.4300   32.5910   51.9720 C   0  0  0  0  0  0  0  0  0  0  0  0
   51.6740   31.4900   52.2810 C   0  0  0  0  0  0  0  0  0  0  0  0
   50.6560   31.0520   51.4790 C   0  0  0  0  0  0  0  0  0  0  0  0
   52.0380   30.6040   53.7810 S   0  0  0  0  0  0  0  0  0  0  0  0
   53.4020   31.4530   54.5480 C   0  0  0  0  0  0  0  0  0  0  0  0
   53.8970   30.9820   55.7330 C   0  0  0  0  0  0  0  0  0  0  0  0
   54.9500   31.5910   56.3790 C   0  0  0  0  0  0  0  0  0  0  0  0
   55.4940   32.7070   55.7790 C   0  0  0  0  0  0  0  0  0  0  0  0
   54.9680   33.1520   54.5860 C   0  0  0  0  0  0  0  0  0  0  0  0
   53.9180   32.5590   53.9220 C   0  0  0  0  0  0  0  0  0  0  0  0
   53.4980   33.1410   52.7060 N   0  0  0  0  0  0  0  0  0  0  0  0
   46.2701   30.8043   48.3675 H   0  0  0  0  0  0  0  0  0  0  0  0
   47.5049   32.2629   50.1036 H   0  0  0  0  0  0  0  0  0  0  0  0
   45.1318   33.0247   44.8064 H   0  0  0  0  0  0  0  0  0  0  0  0
   46.9919   33.4279   43.1351 H   0  0  0  0  0  0  0  0  0  0  0  0
   48.8504   31.6868   42.9465 H   0  0  0  0  0  0  0  0  0  0  0  0
   48.9662   28.8767   46.3353 H   0  0  0  0  0  0  0  0  0  0  0  0
   48.6987   26.8372   46.8602 H   0  0  0  0  0  0  0  0  0  0  0  0
   48.5175   27.5774   48.5538 H   0  0  0  0  0  0  0  0  0  0  0  0
   46.8378   25.9778   47.1310 H   0  0  0  0  0  0  0  0  0  0  0  0
   44.8130   26.9983   47.4751 H   0  0  0  0  0  0  0  0  0  0  0  0
   45.6403   28.4395   48.1453 H   0  0  0  0  0  0  0  0  0  0  0  0
   44.9576   28.6743   45.7166 H   0  0  0  0  0  0  0  0  0  0  0  0
   46.0783   27.3706   45.3005 H   0  0  0  0  0  0  0  0  0  0  0  0
   50.8495   33.3553   49.0429 H   0  0  0  0  0  0  0  0  0  0  0  0
   52.6522   34.1035   50.4986 H   0  0  0  0  0  0  0  0  0  0  0  0
   50.0860   30.1607   51.7802 H   0  0  0  0  0  0  0  0  0  0  0  0
   53.4398   30.0890   56.1841 H   0  0  0  0  0  0  0  0  0  0  0  0
   55.3400   31.2040   57.3320 H   0  0  0  0  0  0  0  0  0  0  0  0
   56.3376   33.2354   56.2471 H   0  0  0  0  0  0  0  0  0  0  0  0
   55.4197   34.0459   54.1311 H   0  0  0  0  0  0  0  0  0  0  0  0
   53.9796   33.9795   52.3511 H   0  0  0  0  0  0  0  0  0  0  0  0
  1  2  2  0
  1  5  1  0
  2  3  1  0
  4  3  1  0
  4 18  1  0
  5  4  2  0
  6 11  2  0
  7  6  1  0
  8  7  2  0
  8  9  1  0
  9 10  2  0
 10 11  1  0
 10 12  1  0
 12 13  1  0
 13 14  1  0
 13  1  1  0
 14 15  1  0
 16 15  1  0
 17 12  1  0
 17 16  1  0
 18 23  1  0
 19 18  2  0
 19 20  1  0
 20 21  2  0
 21 22  1  0
 21 31  1  0
 22 24  1  0
 23 22  2  0
 24 25  1  0
 25 26  2  0
 26 27  1  0
 28 27  2  0
 29 28  1  0
 30 25  1  0
 30 29  2  0
 31 30  1  0
  2 32  1  0
  3 33  1  0
  6 34  1  0
  7 35  1  0
  8 36  1  0
 13 37  1  6
 14 38  1  0
 14 39  1  0
 15 40  1  0
 16 41  1  0
 16 42  1  0
 17 43  1  0
 17 44  1  0
 19 45  1  0
 20 46  1  0
 23 47  1  0
 26 48  1  0
 27 49  1  0
 28 50  1  0
 29 51  1  0
 31 52  1  0
M  ISO  8  32  14  33   9  34  14  35  14  36  14  37  13  38  13  39  13
M  ISO  8  40   5  41  13  42  13  43  13  44  13  45  14  46  14  47  14
M  ISO  4  48  14  49  14  50  14  51  14
M  END
>  <minimizedAffinity>  (1) 
-6.68947363

>  <minimizedRMSD>  (1) 
2.28349352

$$$$
