
     RDKit          3D

 44 48  0  0  0  0  0  0  0  0999 V2000
   49.0330   33.1820   41.9170 C   0  0  0  0  0  0  0  0  0  0  0  0
   48.7390   32.3600   40.7760 C   0  0  0  0  0  0  0  0  0  0  0  0
   49.7440   31.6230   40.2090 C   0  0  0  0  0  0  0  0  0  0  0  0
   51.0670   31.7150   40.8040 C   0  0  0  0  0  0  0  0  0  0  0  0
   50.8740   32.8650   42.1820 S   0  0  0  0  0  0  0  0  0  0  0  0
   52.2260   31.0960   40.4430 C   0  0  0  0  0  0  0  0  0  0  0  0
   52.8050   30.1750   41.2880 C   0  0  0  0  0  0  0  0  0  0  0  0
   53.9980   29.5330   40.9270 C   0  0  0  0  0  0  0  0  0  0  0  0
   54.6420   29.7810   39.7330 C   0  0  0  0  0  0  0  0  0  0  0  0
   54.0300   30.7030   38.9260 C   0  0  0  0  0  0  0  0  0  0  0  0
   52.8750   31.3380   39.2540 C   0  0  0  0  0  0  0  0  0  0  0  0
   54.7990   31.0810   37.3630 S   0  0  0  0  0  0  0  0  0  0  0  0
   56.2700   30.0800   37.2660 C   0  0  0  0  0  0  0  0  0  0  0  0
   57.0490   30.1880   36.1450 C   0  0  0  0  0  0  0  0  0  0  0  0
   58.2020   29.4470   35.9980 C   0  0  0  0  0  0  0  0  0  0  0  0
   58.5420   28.5940   37.0180 C   0  0  0  0  0  0  0  0  0  0  0  0
   57.7190   28.5270   38.1230 C   0  0  0  0  0  0  0  0  0  0  0  0
   56.5590   29.2460   38.3170 C   0  0  0  0  0  0  0  0  0  0  0  0
   55.8280   29.0700   39.4940 N   0  0  0  0  0  0  0  0  0  0  0  0
   48.3140   34.0700   42.7660 C   0  0  0  0  0  0  0  0  0  0  0  0
   47.6960   35.2770   42.1010 C   0  0  0  0  0  0  0  0  0  0  0  0
   46.2550   35.1380   42.1040 C   0  0  0  0  0  0  0  0  0  0  0  0
   45.4600   35.6850   43.1130 C   0  0  0  0  0  0  0  0  0  0  0  0
   44.0800   35.5120   43.0510 C   0  0  0  0  0  0  0  0  0  0  0  0
   43.5780   34.8170   42.0100 N   0  0  0  0  0  0  0  0  0  0  0  0
   44.3600   34.3020   41.0540 C   0  0  0  0  0  0  0  0  0  0  0  0
   45.6720   34.4600   41.1040 N   0  0  0  0  0  0  0  0  0  0  0  0
   47.7200   32.3232   40.3634 H   0  0  0  0  0  0  0  0  0  0  0  0
   49.5567   30.9836   39.3337 H   0  0  0  0  0  0  0  0  0  0  0  0
   52.3286   29.9419   42.2517 H   0  0  0  0  0  0  0  0  0  0  0  0
   54.4373   28.8033   41.6231 H   0  0  0  0  0  0  0  0  0  0  0  0
   52.4465   32.0660   38.5495 H   0  0  0  0  0  0  0  0  0  0  0  0
   56.7484   30.8806   35.3450 H   0  0  0  0  0  0  0  0  0  0  0  0
   58.8263   29.5360   35.0967 H   0  0  0  0  0  0  0  0  0  0  0  0
   59.4508   27.9773   36.9557 H   0  0  0  0  0  0  0  0  0  0  0  0
   58.0163   27.8349   38.9246 H   0  0  0  0  0  0  0  0  0  0  0  0
   56.1670   28.4035   40.2024 H   0  0  0  0  0  0  0  0  0  0  0  0
   47.5038   33.4973   43.2410 H   0  0  0  0  0  0  0  0  0  0  0  0
   49.0587   34.4713   43.4692 H   0  0  0  0  0  0  0  0  0  0  0  0
   48.0562   35.3503   41.0642 H   0  0  0  0  0  0  0  0  0  0  0  0
   47.9801   36.1868   42.6502 H   0  0  0  0  0  0  0  0  0  0  0  0
   45.9166   36.2435   43.9434 H   0  0  0  0  0  0  0  0  0  0  0  0
   43.4203   35.9288   43.8262 H   0  0  0  0  0  0  0  0  0  0  0  0
   43.9084   33.7434   40.2209 H   0  0  0  0  0  0  0  0  0  0  0  0
  1  5  1  0
  1 20  1  0
  2  1  2  0
  3  2  1  0
  3  4  2  0
  4  5  1  0
  6  4  1  0
  6  7  2  0
  8  7  1  0
  9  8  2  0
 10 11  2  0
 10  9  1  0
 11  6  1  0
 12 10  1  0
 13 12  1  0
 13 18  2  0
 14 13  1  0
 15 14  2  0
 15 16  1  0
 16 17  2  0
 17 18  1  0
 18 19  1  0
 19  9  1  0
 21 22  1  0
 21 20  1  0
 22 23  2  0
 24 23  1  0
 25 24  2  0
 26 27  2  0
 26 25  1  0
 27 22  1  0
  2 28  1  0
  3 29  1  0
  7 30  1  0
  8 31  1  0
 11 32  1  0
 14 33  1  0
 15 34  1  0
 16 35  1  0
 17 36  1  0
 19 37  1  0
 20 38  1  0
 20 39  1  0
 21 40  1  0
 21 41  1  0
 23 42  1  0
 24 43  1  0
 26 44  1  0
M  ISO  8  28  14  29  14  30  14  31  14  32  14  33  14  34  14  35  14
M  ISO  8  36  14  38   8  39   8  40   8  41   8  42  14  43  14  44  14
M  END
>  <minimizedAffinity>  (1) 
-4.96755886

>  <minimizedRMSD>  (1) 
1.8865726

$$$$
