
     RDKit          3D

 42 45  0  0  0  0  0  0  0  0999 V2000
   47.7840   31.0780   45.9780 C   0  0  0  0  0  0  0  0  0  0  0  0
   47.0200   32.0830   45.4450 C   0  0  0  0  0  0  0  0  0  0  0  0
   45.9510   32.5370   46.1930 C   0  0  0  0  0  0  0  0  0  0  0  0
   45.6410   32.0190   47.4290 C   0  0  0  0  0  0  0  0  0  0  0  0
   44.7000   32.2260   48.3880 N   0  0  0  0  0  0  0  0  0  0  0  0
   44.9010   31.3870   49.4300 C   0  0  0  0  0  0  0  0  0  0  0  0
   45.9830   30.6450   49.1160 N   0  0  0  0  0  0  0  0  0  0  0  0
   46.4460   31.0140   47.9060 C   0  0  0  0  0  0  0  0  0  0  0  0
   47.5130   30.5270   47.2140 C   0  0  0  0  0  0  0  0  0  0  0  0
   47.2680   34.4260   42.6540 C   0  0  0  0  0  0  0  0  0  0  0  0
   47.9100   33.6760   41.6640 C   0  0  0  0  0  0  0  0  0  0  0  0
   48.2460   32.3540   42.0030 C   0  0  0  0  0  0  0  0  0  0  0  0
   47.9440   31.8640   43.2360 N   0  0  0  0  0  0  0  0  0  0  0  0
   47.3190   32.6530   44.1430 C   0  0  0  0  0  0  0  0  0  0  0  0
   46.9850   33.9100   43.8630 N   0  0  0  0  0  0  0  0  0  0  0  0
   48.1880   34.3200   40.3530 C   0  0  0  0  0  0  0  0  0  0  0  0
   48.7230   35.5400   40.6640 F   0  0  0  0  0  0  0  0  0  0  0  0
   46.9950   34.4660   39.6950 F   0  0  0  0  0  0  0  0  0  0  0  0
   49.0560   33.4970   39.6510 F   0  0  0  0  0  0  0  0  0  0  0  0
   48.2890   29.5080   47.7520 O   0  0  0  0  0  0  0  0  0  0  0  0
   49.8940   28.3210   49.4100 O   0  0  0  0  0  0  0  0  0  0  0  0
   49.4630   29.7140   48.9490 P   0  0  2  0  0  0  0  0  0  0  0  0
   48.6920   30.4400   50.2860 O   0  0  0  0  0  0  0  0  0  0  0  0
   50.7850   30.6110   48.4790 O   0  0  0  0  0  0  0  0  0  0  0  0
   53.2010   29.2740   49.3800 Cl  0  0  0  0  0  0  0  0  0  0  0  0
   52.6210   30.8470   49.9040 C   0  0  0  0  0  0  0  0  0  0  0  0
   51.4550   31.3950   49.4100 C   0  0  0  0  0  0  0  0  0  0  0  0
   51.0670   32.6380   49.8720 C   0  0  0  0  0  0  0  0  0  0  0  0
   51.8330   33.3080   50.8040 C   0  0  0  0  0  0  0  0  0  0  0  0
   52.9950   32.7370   51.2810 C   0  0  0  0  0  0  0  0  0  0  0  0
   53.4320   31.4820   50.8470 C   0  0  0  0  0  0  0  0  0  0  0  0
   48.6409   30.6982   45.4022 H   0  0  0  0  0  0  0  0  0  0  0  0
   45.3239   33.3433   45.7847 H   0  0  0  0  0  0  0  0  0  0  0  0
   43.9427   32.9217   48.3296 H   0  0  0  0  0  0  0  0  0  0  0  0
   44.3016   31.3226   50.3501 H   0  0  0  0  0  0  0  0  0  0  0  0
   46.9866   35.4672   42.4378 H   0  0  0  0  0  0  0  0  0  0  0  0
   48.7552   31.7128   41.2685 H   0  0  0  0  0  0  0  0  0  0  0  0
   49.0755   30.0789   51.1242 H   0  0  0  0  0  0  0  0  0  0  0  0
   50.1412   33.0966   49.4943 H   0  0  0  0  0  0  0  0  0  0  0  0
   51.5172   34.2973   51.1667 H   0  0  0  0  0  0  0  0  0  0  0  0
   53.5942   33.2845   52.0234 H   0  0  0  0  0  0  0  0  0  0  0  0
   54.3575   31.0230   51.2249 H   0  0  0  0  0  0  0  0  0  0  0  0
  1  9  2  0
  2  1  1  0
  2  3  2  0
  3  4  1  0
  4  8  2  0
  4  5  1  0
  5  6  1  0
  7  6  2  0
  8  7  1  0
  9 20  1  0
  9  8  1  0
 10 15  2  0
 11 12  2  0
 11 10  1  0
 12 13  1  0
 13 14  2  0
 14  2  1  0
 15 14  1  0
 16 17  1  0
 16 11  1  0
 18 16  1  0
 19 16  1  0
 20 22  1  0
 22 21  2  0
 22 23  1  0
 24 22  1  0
 24 27  1  0
 25 26  1  0
 26 31  2  0
 27 28  2  0
 27 26  1  0
 28 29  1  0
 29 30  2  0
 31 30  1  0
  1 32  1  0
  3 33  1  0
  5 34  1  0
  6 35  1  0
 10 36  1  0
 12 37  1  0
 23 38  1  0
 28 39  1  0
 29 40  1  0
 30 41  1  0
 31 42  1  0
M  ISO  8  32  14  33  14  34   9  35  14  36  14  37  14  38   3  39  14
M  ISO  3  40  14  41  14  42  14
M  END
>  <minimizedAffinity>  (1) 
-6.28583813

>  <minimizedRMSD>  (1) 
2.6483674

$$$$
