
     RDKit          3D

 49 52  0  0  1  0  0  0  0  0999 V2000
   46.1770   33.6110   43.2050 C   0  0  2  0  0  0  0  0  0  0  0  0
   45.2260   34.3560   42.3400 C   0  0  2  0  0  0  0  0  0  0  0  0
   44.8810   35.6990   42.8770 C   0  0  0  0  0  0  0  0  0  0  0  0
   44.4270   35.7050   44.3100 C   0  0  0  0  0  0  0  0  0  0  0  0
   45.1120   34.6890   45.1770 C   0  0  0  0  0  0  0  0  0  0  0  0
   46.4160   34.2140   44.5630 C   0  0  0  0  0  0  0  0  0  0  0  0
   42.9420   34.2200   41.2770 C   0  0  1  0  0  0  0  0  0  0  0  0
   43.9760   33.5320   42.1130 C   0  0  1  0  0  0  0  0  0  0  0  0
   44.3460   32.3490   41.4910 O   0  0  0  0  0  0  0  0  0  0  0  0
   43.9840   32.4420   40.1380 C   0  0  0  0  0  0  0  0  0  0  0  0
   42.6090   33.1070   40.2570 C   0  0  2  0  0  0  0  0  0  0  0  0
   41.7810   34.5080   41.9730 O   0  0  0  0  0  0  0  0  0  0  0  0
   42.2090   33.6570   39.0810 O   0  0  0  0  0  0  0  0  0  0  0  0
   41.0880   36.1030   37.3850 Cl  0  0  0  0  0  0  0  0  0  0  0  0
   40.2410   34.6580   37.8240 C   0  0  0  0  0  0  0  0  0  0  0  0
   40.9770   33.7780   38.5600 C   0  0  0  0  0  0  0  0  0  0  0  0
   40.2800   32.6160   38.9070 C   0  0  0  0  0  0  0  0  0  0  0  0
   38.9530   32.3790   38.5370 C   0  0  0  0  0  0  0  0  0  0  0  0
   38.2600   33.3310   37.7810 C   0  0  0  0  0  0  0  0  0  0  0  0
   38.9370   34.4750   37.4350 C   0  0  0  0  0  0  0  0  0  0  0  0
   47.4820   33.3920   42.5560 C   0  0  0  0  0  0  0  0  0  0  0  0
   48.4640   34.3320   42.8760 C   0  0  0  0  0  0  0  0  0  0  0  0
   49.7500   34.2290   42.3250 C   0  0  0  0  0  0  0  0  0  0  0  0
   49.9480   33.1530   41.4660 N   0  0  0  0  0  0  0  0  0  0  0  0
   48.9690   32.2660   41.1810 C   0  0  0  0  0  0  0  0  0  0  0  0
   47.7270   32.3740   41.7210 N   0  0  0  0  0  0  0  0  0  0  0  0
   45.6621   32.6511   43.3581 H   0  0  0  0  0  0  0  0  0  0  0  0
   45.7319   34.5285   41.3786 H   0  0  0  0  0  0  0  0  0  0  0  0
   45.7720   36.3391   42.7972 H   0  0  0  0  0  0  0  0  0  0  0  0
   44.0315   36.0632   42.2805 H   0  0  0  0  0  0  0  0  0  0  0  0
   44.6213   36.7033   44.7292 H   0  0  0  0  0  0  0  0  0  0  0  0
   43.3580   35.4458   44.3039 H   0  0  0  0  0  0  0  0  0  0  0  0
   45.3236   35.1415   46.1571 H   0  0  0  0  0  0  0  0  0  0  0  0
   44.4450   33.8203   45.2792 H   0  0  0  0  0  0  0  0  0  0  0  0
   46.8693   33.4567   45.2195 H   0  0  0  0  0  0  0  0  0  0  0  0
   47.0895   35.0767   44.4529 H   0  0  0  0  0  0  0  0  0  0  0  0
   43.3017   35.1807   40.8799 H   0  0  0  0  0  0  0  0  0  0  0  0
   43.5150   33.3591   43.0967 H   0  0  0  0  0  0  0  0  0  0  0  0
   43.9151   31.4500   39.6677 H   0  0  0  0  0  0  0  0  0  0  0  0
   44.7026   32.9885   39.5096 H   0  0  0  0  0  0  0  0  0  0  0  0
   41.7964   32.4212   40.5386 H   0  0  0  0  0  0  0  0  0  0  0  0
   41.9598   34.4637   42.9457 H   0  0  0  0  0  0  0  0  0  0  0  0
   40.8019   31.8508   39.5004 H   0  0  0  0  0  0  0  0  0  0  0  0
   38.4546   31.4462   38.8395 H   0  0  0  0  0  0  0  0  0  0  0  0
   37.2155   33.1698   37.4762 H   0  0  0  0  0  0  0  0  0  0  0  0
   38.4305   35.2505   36.8417 H   0  0  0  0  0  0  0  0  0  0  0  0
   48.2279   35.1574   43.5637 H   0  0  0  0  0  0  0  0  0  0  0  0
   50.5477   34.9502   42.5565 H   0  0  0  0  0  0  0  0  0  0  0  0
   49.1834   31.4345   40.4935 H   0  0  0  0  0  0  0  0  0  0  0  0
  1  6  1  0
  2  3  1  0
  2  1  1  0
  3  4  1  0
  4  5  1  0
  6  5  1  0
  7 12  1  0
  7  8  1  0
  8  2  1  0
  9  8  1  0
 10 11  1  0
 10  9  1  0
 11  7  1  0
 13 11  1  0
 14 15  1  0
 15 16  2  0
 16 17  1  0
 16 13  1  0
 18 17  2  0
 19 18  1  0
 20 19  2  0
 20 15  1  0
 21 22  2  0
 21  1  1  0
 23 22  1  0
 24 23  2  0
 25 24  1  0
 25 26  2  0
 26 21  1  0
  1 27  1  1
  2 28  1  6
  3 29  1  0
  3 30  1  0
  4 31  1  0
  4 32  1  0
  5 33  1  0
  5 34  1  0
  6 35  1  0
  6 36  1  0
  7 37  1  6
  8 38  1  1
 10 39  1  0
 10 40  1  0
 11 41  1  1
 12 42  1  0
 17 43  1  0
 18 44  1  0
 19 45  1  0
 20 46  1  0
 22 47  1  0
 23 48  1  0
 25 49  1  0
M  ISO  8  27  13  28  13  29  13  30  13  31  13  32  13  33  13  34  13
M  ISO  8  35  13  36  13  37  13  38  13  39  13  40  13  41  13  42   3
M  ISO  7  43  14  44  14  45  14  46  14  47  14  48  14  49  14
M  END
>  <minimizedAffinity>  (1) 
-6.60504484

>  <minimizedRMSD>  (1) 
1.41181803

$$$$
