
     RDKit          3D

 21 22  0  0  0  0  0  0  0  0999 V2000
   45.1270   35.6360   42.3880 O   0  0  0  0  0  0  0  0  0  0  0  0
   44.5380   35.6100   44.7710 C   0  0  0  0  0  0  0  0  0  0  0  0
   45.2100   35.0790   43.6520 C   0  0  0  0  0  0  0  0  0  0  0  0
   45.9860   33.9450   43.8550 C   0  0  0  0  0  0  0  0  0  0  0  0
   46.0640   33.4080   45.0850 N   0  0  0  0  0  0  0  0  0  0  0  0
   45.4120   33.9320   46.1470 C   0  0  0  0  0  0  0  0  0  0  0  0
   44.6420   35.0430   45.9840 N   0  0  0  0  0  0  0  0  0  0  0  0
   46.3290   33.9350   40.3030 Cl  0  0  0  0  0  0  0  0  0  0  0  0
   44.6070   34.2400   40.4800 C   0  0  0  0  0  0  0  0  0  0  0  0
   44.1980   35.0560   41.5020 C   0  0  0  0  0  0  0  0  0  0  0  0
   42.8450   35.3470   41.7070 C   0  0  0  0  0  0  0  0  0  0  0  0
   41.9340   34.7650   40.8220 C   0  0  0  0  0  0  0  0  0  0  0  0
   42.3600   33.9480   39.7990 C   0  0  0  0  0  0  0  0  0  0  0  0
   43.7100   33.6640   39.6030 C   0  0  0  0  0  0  0  0  0  0  0  0
   43.9149   36.5082   44.6484 H   0  0  0  0  0  0  0  0  0  0  0  0
   46.5325   33.4899   43.0158 H   0  0  0  0  0  0  0  0  0  0  0  0
   45.5031   33.4631   47.1379 H   0  0  0  0  0  0  0  0  0  0  0  0
   42.5143   36.0027   42.5259 H   0  0  0  0  0  0  0  0  0  0  0  0
   40.8589   34.9627   40.9445 H   0  0  0  0  0  0  0  0  0  0  0  0
   41.6156   33.5082   39.1190 H   0  0  0  0  0  0  0  0  0  0  0  0
   44.0462   33.0095   38.7853 H   0  0  0  0  0  0  0  0  0  0  0  0
  1  3  1  0
  2  7  2  0
  3  4  2  0
  3  2  1  0
  4  5  1  0
  5  6  2  0
  7  6  1  0
  8  9  1  0
  9 10  2  0
 10 11  1  0
 10  1  1  0
 12 11  2  0
 13 12  1  0
 14 13  2  0
 14  9  1  0
  2 15  1  0
  4 16  1  0
  6 17  1  0
 11 18  1  0
 12 19  1  0
 13 20  1  0
 14 21  1  0
M  ISO  7  15  14  16  14  17  14  18  14  19  14  20  14  21  14
M  END
>  <minimizedAffinity>  (1) 
-4.10181904

>  <minimizedRMSD>  (1) 
1.83468711

$$$$
