
     RDKit          3D

 50 54  0  0  0  0  0  0  0  0999 V2000
   46.7290   32.0260   46.2650 C   0  0  0  0  0  0  0  0  0  0  0  0
   46.8710   32.6770   47.4890 C   0  0  0  0  0  0  0  0  0  0  0  0
   47.4130   32.0580   48.6230 C   0  0  0  0  0  0  0  0  0  0  0  0
   47.8330   30.7580   48.5710 C   0  0  0  0  0  0  0  0  0  0  0  0
   47.6930   30.0790   47.3490 C   0  0  0  0  0  0  0  0  0  0  0  0
   48.0710   28.7700   47.3510 C   0  0  0  0  0  0  0  0  0  0  0  0
   47.8750   28.0420   46.1750 C   0  0  0  0  0  0  0  0  0  0  0  0
   47.2850   28.7070   45.0440 C   0  0  0  0  0  0  0  0  0  0  0  0
   46.9570   30.0340   45.1990 C   0  0  0  0  0  0  0  0  0  0  0  0
   47.1350   30.7800   46.2770 C   0  0  0  0  0  0  0  0  0  0  0  0
   44.7850   29.6640   44.4390 C   0  0  0  0  0  0  0  0  0  0  0  0
   46.1220   30.0340   44.0180 C   0  0  0  0  0  0  0  0  0  0  0  0
   46.1860   30.1130   42.6910 C   0  0  0  0  0  0  0  0  0  0  0  0
   45.1500   29.8790   41.8090 C   0  0  0  0  0  0  0  0  0  0  0  0
   43.8950   29.5280   42.2320 C   0  0  0  0  0  0  0  0  0  0  0  0
   43.7230   29.4200   43.5930 C   0  0  0  0  0  0  0  0  0  0  0  0
   44.3380   29.4940   45.7800 O   0  0  0  0  0  0  0  0  0  0  0  0
   42.4430   29.0580   43.9460 O   0  0  0  0  0  0  0  0  0  0  0  0
   40.1380   29.3660   45.6760 Cl  0  0  0  0  0  0  0  0  0  0  0  0
   41.1070   27.9200   45.3600 C   0  0  0  0  0  0  0  0  0  0  0  0
   42.2130   27.8210   44.5130 C   0  0  0  0  0  0  0  0  0  0  0  0
   42.8270   26.5910   44.4120 C   0  0  0  0  0  0  0  0  0  0  0  0
   42.3590   25.5100   45.1220 C   0  0  0  0  0  0  0  0  0  0  0  0
   41.2680   25.5920   45.9620 C   0  0  0  0  0  0  0  0  0  0  0  0
   40.6380   26.8130   46.0790 C   0  0  0  0  0  0  0  0  0  0  0  0
   45.2450   33.8770   43.3830 C   0  0  0  0  0  0  0  0  0  0  0  0
   46.4240   34.3910   42.7940 C   0  0  0  0  0  0  0  0  0  0  0  0
   47.6130   34.0450   43.4030 C   0  0  0  0  0  0  0  0  0  0  0  0
   47.4930   33.2710   44.4770 N   0  0  0  0  0  0  0  0  0  0  0  0
   46.4080   32.7740   45.0590 C   0  0  0  0  0  0  0  0  0  0  0  0
   45.2970   33.1030   44.4720 N   0  0  0  0  0  0  0  0  0  0  0  0
   48.8700   34.4300   42.8780 N   0  0  0  0  0  0  0  0  0  0  0  0
   46.5428   33.7239   47.5683 H   0  0  0  0  0  0  0  0  0  0  0  0
   47.5013   32.6226   49.5629 H   0  0  0  0  0  0  0  0  0  0  0  0
   48.2645   30.2621   49.4530 H   0  0  0  0  0  0  0  0  0  0  0  0
   48.5134   28.3045   48.2441 H   0  0  0  0  0  0  0  0  0  0  0  0
   48.1656   26.9828   46.1151 H   0  0  0  0  0  0  0  0  0  0  0  0
   47.1041   28.1777   44.0969 H   0  0  0  0  0  0  0  0  0  0  0  0
   47.1570   30.3913   42.2554 H   0  0  0  0  0  0  0  0  0  0  0  0
   45.3386   29.9777   40.7298 H   0  0  0  0  0  0  0  0  0  0  0  0
   43.0729   29.3433   41.5249 H   0  0  0  0  0  0  0  0  0  0  0  0
   43.3986   29.2385   45.9600 H   0  0  0  0  0  0  0  0  0  0  0  0
   43.7018   26.4726   43.7557 H   0  0  0  0  0  0  0  0  0  0  0  0
   42.8741   24.5438   45.0160 H   0  0  0  0  0  0  0  0  0  0  0  0
   40.9125   24.7130   46.5197 H   0  0  0  0  0  0  0  0  0  0  0  0
   39.7643   26.9181   46.7391 H   0  0  0  0  0  0  0  0  0  0  0  0
   44.2687   34.1182   42.9374 H   0  0  0  0  0  0  0  0  0  0  0  0
   46.3946   35.0311   41.8999 H   0  0  0  0  0  0  0  0  0  0  0  0
   49.7366   34.1528   43.3608 H   0  0  0  0  0  0  0  0  0  0  0  0
   48.9181   34.9874   42.0132 H   0  0  0  0  0  0  0  0  0  0  0  0
  1 10  1  0
  1  2  2  0
  2  3  1  0
  4  3  2  0
  5  6  2  0
  5  4  1  0
  7  6  1  0
  8  9  1  0
  8  7  2  0
  9 10  2  0
 10  5  1  0
 11 17  1  0
 12 11  2  0
 12  9  1  0
 13 12  1  0
 14 15  1  0
 14 13  2  0
 15 16  2  0
 16 18  1  0
 16 11  1  0
 18 21  1  0
 20 19  1  0
 20 25  2  0
 21 20  1  0
 22 21  2  0
 22 23  1  0
 23 24  2  0
 24 25  1  0
 26 31  2  0
 27 26  1  0
 27 28  2  0
 28 29  1  0
 29 30  2  0
 30  1  1  0
 31 30  1  0
 32 28  1  0
  2 33  1  0
  3 34  1  0
  4 35  1  0
  6 36  1  0
  7 37  1  0
  8 38  1  0
 13 39  1  0
 14 40  1  0
 15 41  1  0
 17 42  1  0
 22 43  1  0
 23 44  1  0
 24 45  1  0
 25 46  1  0
 26 47  1  0
 27 48  1  0
 32 49  1  0
 32 50  1  0
M  ISO  8  33  14  34  14  35  14  36  14  37  14  38  14  39  14  40  14
M  ISO  8  41  14  42   3  43  14  44  14  45  14  46  14  47  14  48  14
M  END
>  <minimizedAffinity>  (1) 
-5.89520741

>  <minimizedRMSD>  (1) 
1.04719877

$$$$
