
     RDKit          3D

 26 27  0  0  0  0  0  0  0  0999 V2000
   45.4320   34.4540   41.4230 C   0  0  0  0  0  0  0  0  0  0  0  0
   44.4710   35.9570   44.7330 C   0  0  0  0  0  0  0  0  0  0  0  0
   44.6490   35.7940   43.3510 C   0  0  0  0  0  0  0  0  0  0  0  0
   45.2470   34.6240   42.8840 C   0  0  0  0  0  0  0  0  0  0  0  0
   45.6260   33.7010   43.8010 N   0  0  0  0  0  0  0  0  0  0  0  0
   45.4450   33.8800   45.1320 C   0  0  0  0  0  0  0  0  0  0  0  0
   44.8750   34.9930   45.5920 N   0  0  0  0  0  0  0  0  0  0  0  0
   46.5560   33.4720   41.1860 C   0  0  0  0  0  0  0  0  0  0  0  0
   48.8250   35.3780   40.9830 Cl  0  0  0  0  0  0  0  0  0  0  0  0
   48.0490   34.5260   39.6480 C   0  0  0  0  0  0  0  0  0  0  0  0
   46.9820   33.6320   39.7710 C   0  0  0  0  0  0  0  0  0  0  0  0
   46.4730   33.0340   38.6360 C   0  0  0  0  0  0  0  0  0  0  0  0
   47.0200   33.3270   37.4060 C   0  0  0  0  0  0  0  0  0  0  0  0
   48.0790   34.2170   37.2960 C   0  0  0  0  0  0  0  0  0  0  0  0
   48.6020   34.8240   38.4200 C   0  0  0  0  0  0  0  0  0  0  0  0
   44.5040   34.0690   40.9751 H   0  0  0  0  0  0  0  0  0  0  0  0
   45.6777   35.4220   40.9620 H   0  0  0  0  0  0  0  0  0  0  0  0
   44.0007   36.8730   45.1200 H   0  0  0  0  0  0  0  0  0  0  0  0
   44.3227   36.5750   42.6485 H   0  0  0  0  0  0  0  0  0  0  0  0
   45.7708   33.1013   45.8373 H   0  0  0  0  0  0  0  0  0  0  0  0
   47.3969   33.6904   41.8606 H   0  0  0  0  0  0  0  0  0  0  0  0
   46.2247   32.4415   41.3820 H   0  0  0  0  0  0  0  0  0  0  0  0
   45.6342   32.3265   38.7132 H   0  0  0  0  0  0  0  0  0  0  0  0
   46.6131   32.8506   36.5018 H   0  0  0  0  0  0  0  0  0  0  0  0
   48.5045   34.4403   36.3065 H   0  0  0  0  0  0  0  0  0  0  0  0
   49.4415   35.5300   38.3382 H   0  0  0  0  0  0  0  0  0  0  0  0
  1  4  1  0
  2  7  2  0
  3  2  1  0
  4  3  2  0
  4  5  1  0
  5  6  2  0
  6  7  1  0
  8  1  1  0
 10 11  2  0
 10  9  1  0
 11  8  1  0
 12 11  1  0
 13 12  2  0
 14 13  1  0
 14 15  2  0
 15 10  1  0
  1 16  1  0
  1 17  1  0
  2 18  1  0
  3 19  1  0
  6 20  1  0
  8 21  1  0
  8 22  1  0
 12 23  1  0
 13 24  1  0
 14 25  1  0
 15 26  1  0
M  ISO  8  16   8  17   8  18  14  19  14  20  14  21   8  22   8  23  14
M  ISO  3  24  14  25  14  26  14
M  END
>  <minimizedAffinity>  (1) 
-4.55412674

>  <minimizedRMSD>  (1) 
1.95788455

$$$$
