
     RDKit          3D

 33 35  0  0  0  0  0  0  0  0999 V2000
   45.2830   33.8990   40.5650 C   0  0  0  0  0  0  0  0  0  0  0  0
   44.2030   33.6200   39.7660 C   0  0  0  0  0  0  0  0  0  0  0  0
   44.4530   33.1630   38.5000 C   0  0  0  0  0  0  0  0  0  0  0  0
   45.7220   32.9710   37.9960 C   0  0  0  0  0  0  0  0  0  0  0  0
   46.7900   33.2620   38.8310 C   0  0  0  0  0  0  0  0  0  0  0  0
   46.5760   33.7240   40.1100 C   0  0  0  0  0  0  0  0  0  0  0  0
   40.9350   35.2190   40.7690 C   0  0  0  0  0  0  0  0  0  0  0  0
   42.2180   35.0610   40.2070 C   0  0  0  0  0  0  0  0  0  0  0  0
   42.8740   33.8340   40.3300 C   0  0  0  0  0  0  0  0  0  0  0  0
   42.2060   32.8520   41.0020 N   0  0  0  0  0  0  0  0  0  0  0  0
   40.9900   33.0290   41.5250 C   0  0  0  0  0  0  0  0  0  0  0  0
   40.3530   34.2200   41.4070 N   0  0  0  0  0  0  0  0  0  0  0  0
   40.3060   36.4770   40.6230 N   0  0  0  0  0  0  0  0  0  0  0  0
   47.5380   31.5680   42.0010 Cl  0  0  0  0  0  0  0  0  0  0  0  0
   48.2510   33.1810   41.9360 C   0  0  0  0  0  0  0  0  0  0  0  0
   47.6930   34.0410   41.0170 C   0  0  0  0  0  0  0  0  0  0  0  0
   48.1580   35.3430   40.8610 C   0  0  0  0  0  0  0  0  0  0  0  0
   49.2140   35.8080   41.6430 C   0  0  0  0  0  0  0  0  0  0  0  0
   49.7480   34.9230   42.5510 C   0  0  0  0  0  0  0  0  0  0  0  0
   49.2920   33.6210   42.7160 C   0  0  0  0  0  0  0  0  0  0  0  0
   44.9520   34.7930   43.0010 N   0  0  0  0  0  0  0  0  0  0  0  0
   45.0950   34.3830   41.9080 C   0  0  0  0  0  0  0  0  0  0  0  0
   43.5952   32.9367   37.8497 H   0  0  0  0  0  0  0  0  0  0  0  0
   45.8808   32.6016   36.9721 H   0  0  0  0  0  0  0  0  0  0  0  0
   47.8188   33.1223   38.4677 H   0  0  0  0  0  0  0  0  0  0  0  0
   42.6982   35.8964   39.6764 H   0  0  0  0  0  0  0  0  0  0  0  0
   40.5002   32.2000   42.0569 H   0  0  0  0  0  0  0  0  0  0  0  0
   40.7854   37.2372   40.1199 H   0  0  0  0  0  0  0  0  0  0  0  0
   39.3684   36.6331   41.0198 H   0  0  0  0  0  0  0  0  0  0  0  0
   47.6911   36.0071   40.1187 H   0  0  0  0  0  0  0  0  0  0  0  0
   49.6014   36.8323   41.5392 H   0  0  0  0  0  0  0  0  0  0  0  0
   50.5821   35.2652   43.1812 H   0  0  0  0  0  0  0  0  0  0  0  0
   49.7564   32.9548   43.4579 H   0  0  0  0  0  0  0  0  0  0  0  0
  1 22  1  0
  2  9  1  0
  2  1  2  0
  3  2  1  0
  4  3  2  0
  4  5  1  0
  5  6  2  0
  6  1  1  0
  6 16  1  0
  7 12  2  0
  8  9  2  0
  8  7  1  0
  9 10  1  0
 10 11  2  0
 12 11  1  0
 13  7  1  0
 15 14  1  0
 15 20  2  0
 16 15  1  0
 17 16  2  0
 17 18  1  0
 18 19  2  0
 19 20  1  0
 22 21  3  0
  3 23  1  0
  4 24  1  0
  5 25  1  0
  8 26  1  0
 11 27  1  0
 13 28  1  0
 13 29  1  0
 17 30  1  0
 18 31  1  0
 19 32  1  0
 20 33  1  0
M  ISO  8  23  14  24  14  25  14  26  14  27  14  30  14  31  14  32  14
M  ISO  1  33  14
M  END
>  <minimizedAffinity>  (1) 
-5.81965542

>  <minimizedRMSD>  (1) 
4.28730583

$$$$
