
     RDKit          3D

 29 31  0  0  1  0  0  0  0  0999 V2000
   46.4350   35.0110   42.0490 C   0  0  1  0  0  0  0  0  0  0  0  0
   47.9660   35.2440   41.9250 C   0  0  0  0  0  0  0  0  0  0  0  0
   47.1790   34.0420   41.3300 C   0  0  2  0  0  0  0  0  0  0  0  0
   44.8810   32.4980   40.0410 Cl  0  0  0  0  0  0  0  0  0  0  0  0
   46.2150   33.2160   39.1590 C   0  0  0  0  0  0  0  0  0  0  0  0
   47.1820   33.8820   39.8580 C   0  0  0  0  0  0  0  0  0  0  0  0
   48.2590   34.4670   39.1910 C   0  0  0  0  0  0  0  0  0  0  0  0
   48.3220   34.3550   37.8160 C   0  0  0  0  0  0  0  0  0  0  0  0
   47.3230   33.6700   37.1260 C   0  0  0  0  0  0  0  0  0  0  0  0
   46.2440   33.0840   37.7830 C   0  0  0  0  0  0  0  0  0  0  0  0
   44.7510   35.1020   45.4060 C   0  0  0  0  0  0  0  0  0  0  0  0
   45.0980   35.4890   44.0670 C   0  0  0  0  0  0  0  0  0  0  0  0
   46.0670   34.7150   43.4860 C   0  0  0  0  0  0  0  0  0  0  0  0
   46.6570   33.6530   44.1450 N   0  0  0  0  0  0  0  0  0  0  0  0
   46.2940   33.3330   45.4020 C   0  0  0  0  0  0  0  0  0  0  0  0
   45.3450   34.0530   46.0340 N   0  0  0  0  0  0  0  0  0  0  0  0
   44.4940   36.5930   43.4180 N   0  0  0  0  0  0  0  0  0  0  0  0
   45.5097   35.5436   41.7839 H   0  0  0  0  0  0  0  0  0  0  0  0
   48.3664   36.0352   41.2741 H   0  0  0  0  0  0  0  0  0  0  0  0
   48.8193   35.3981   42.6019 H   0  0  0  0  0  0  0  0  0  0  0  0
   47.1926   32.9454   41.4148 H   0  0  0  0  0  0  0  0  0  0  0  0
   49.0402   35.0052   39.7478 H   0  0  0  0  0  0  0  0  0  0  0  0
   49.1605   34.8063   37.2652 H   0  0  0  0  0  0  0  0  0  0  0  0
   47.3889   33.5900   36.0309 H   0  0  0  0  0  0  0  0  0  0  0  0
   45.4565   32.5447   37.2362 H   0  0  0  0  0  0  0  0  0  0  0  0
   43.9786   35.6738   45.9412 H   0  0  0  0  0  0  0  0  0  0  0  0
   46.7718   32.4842   45.9131 H   0  0  0  0  0  0  0  0  0  0  0  0
   44.7698   36.8392   42.4566 H   0  0  0  0  0  0  0  0  0  0  0  0
   43.7788   37.1499   43.9073 H   0  0  0  0  0  0  0  0  0  0  0  0
  1 13  1  0
  2  1  1  0
  3  2  1  0
  3  1  1  0
  5  6  2  0
  5  4  1  0
  6  3  1  0
  7  6  1  0
  8  7  2  0
  9 10  2  0
  9  8  1  0
 10  5  1  0
 11 16  2  0
 12 11  1  0
 13 12  2  0
 13 14  1  0
 14 15  2  0
 15 16  1  0
 17 12  1  0
  1 18  1  6
  2 19  1  0
  2 20  1  0
  3 21  1  1
  7 22  1  0
  8 23  1  0
  9 24  1  0
 10 25  1  0
 11 26  1  0
 15 27  1  0
 17 28  1  0
 17 29  1  0
M  ISO  8  18  13  19  13  20  13  21  13  22  14  23  14  24  14  25  14
M  ISO  2  26  14  27  14
M  END
>  <minimizedAffinity>  (1) 
-5.51627111

>  <minimizedRMSD>  (1) 
0.537080765

$$$$
