
     RDKit          3D

 30 32  0  0  1  0  0  0  0  0999 V2000
   46.8180   33.2750   41.4320 C   0  0  1  0  0  0  0  0  0  0  0  0
   45.9690   34.3540   40.9830 C   0  0  0  0  0  0  0  0  0  0  0  0
   46.4860   33.4200   39.9510 C   0  0  1  0  0  0  0  0  0  0  0  0
   48.6690   34.7900   42.2150 C   0  0  0  0  0  0  0  0  0  0  0  0
   48.2310   33.4850   41.8340 C   0  0  0  0  0  0  0  0  0  0  0  0
   49.1520   32.4550   41.8460 C   0  0  0  0  0  0  0  0  0  0  0  0
   50.4300   32.7590   42.2260 N   0  0  0  0  0  0  0  0  0  0  0  0
   50.8170   34.0030   42.5830 C   0  0  0  0  0  0  0  0  0  0  0  0
   49.9420   35.0520   42.5860 N   0  0  0  0  0  0  0  0  0  0  0  0
   47.5190   33.9060   39.0080 C   0  0  0  0  0  0  0  0  0  0  0  0
   49.8930   31.9900   38.4190 Cl  0  0  0  0  0  0  0  0  0  0  0  0
   48.4760   32.1520   37.4400 C   0  0  0  0  0  0  0  0  0  0  0  0
   47.4880   33.0320   37.8050 C   0  0  0  0  0  0  0  0  0  0  0  0
   46.3690   33.1300   36.9970 C   0  0  0  0  0  0  0  0  0  0  0  0
   46.2460   32.3600   35.8470 C   0  0  0  0  0  0  0  0  0  0  0  0
   47.2200   31.4670   35.4530 C   0  0  0  0  0  0  0  0  0  0  0  0
   48.2990   31.4130   36.2870 C   0  0  0  0  0  0  0  0  0  0  0  0
   46.7043   32.5122   42.2163 H   0  0  0  0  0  0  0  0  0  0  0  0
   44.8987   34.3435   41.2367 H   0  0  0  0  0  0  0  0  0  0  0  0
   45.9982   35.4469   41.1042 H   0  0  0  0  0  0  0  0  0  0  0  0
   46.0580   32.7694   39.1741 H   0  0  0  0  0  0  0  0  0  0  0  0
   47.9412   35.6148   42.2061 H   0  0  0  0  0  0  0  0  0  0  0  0
   48.8684   31.4311   41.5612 H   0  0  0  0  0  0  0  0  0  0  0  0
   51.8624   34.1755   42.8786 H   0  0  0  0  0  0  0  0  0  0  0  0
   47.3029   34.9455   38.7203 H   0  0  0  0  0  0  0  0  0  0  0  0
   48.5126   33.8744   39.4788 H   0  0  0  0  0  0  0  0  0  0  0  0
   45.5641   33.8285   37.2694 H   0  0  0  0  0  0  0  0  0  0  0  0
   45.3414   32.4663   35.2303 H   0  0  0  0  0  0  0  0  0  0  0  0
   47.1348   30.8515   34.5453 H   0  0  0  0  0  0  0  0  0  0  0  0
   49.1040   30.7145   36.0149 H   0  0  0  0  0  0  0  0  0  0  0  0
  1  5  1  0
  2  1  1  0
  3  2  1  0
  3  1  1  0
  4  9  2  0
  5  6  2  0
  5  4  1  0
  6  7  1  0
  7  8  2  0
  8  9  1  0
 10  3  1  0
 12 13  2  0
 12 11  1  0
 13 10  1  0
 14 13  1  0
 15 14  2  0
 16 15  1  0
 16 17  2  0
 17 12  1  0
  1 18  1  1
  2 19  1  0
  2 20  1  0
  3 21  1  6
  4 22  1  0
  6 23  1  0
  8 24  1  0
 10 25  1  0
 10 26  1  0
 14 27  1  0
 15 28  1  0
 16 29  1  0
 17 30  1  0
M  ISO  8  18  13  19  13  20  13  21  13  22  14  23  14  24  14  25   8
M  ISO  5  26   8  27  14  28  14  29  14  30  14
M  END
>  <minimizedAffinity>  (1) 
-3.51961422

>  <minimizedRMSD>  (1) 
5.91568422

$$$$
