
     RDKit          3D

 45 49  0  0  0  0  0  0  0  0999 V2000
   44.8000   36.0070   43.2360 Cl  0  0  0  0  0  0  0  0  0  0  0  0
   45.5380   34.7650   44.1970 C   0  0  0  0  0  0  0  0  0  0  0  0
   46.6260   34.0690   43.7050 C   0  0  0  0  0  0  0  0  0  0  0  0
   47.1370   33.1050   44.5500 C   0  0  0  0  0  0  0  0  0  0  0  0
   46.6450   32.8020   45.8060 C   0  0  0  0  0  0  0  0  0  0  0  0
   45.5710   33.5140   46.2500 C   0  0  0  0  0  0  0  0  0  0  0  0
   44.9780   33.1020   47.8490 Cl  0  0  0  0  0  0  0  0  0  0  0  0
   45.0180   34.4880   45.4560 C   0  0  0  0  0  0  0  0  0  0  0  0
   47.3360   31.7380   46.5410 C   0  0  0  0  0  0  0  0  0  0  0  0
   47.4440   30.4450   46.0690 C   0  0  0  0  0  0  0  0  0  0  0  0
   48.0900   29.4260   46.7440 C   0  0  0  0  0  0  0  0  0  0  0  0
   48.6680   29.6910   47.9560 C   0  0  0  0  0  0  0  0  0  0  0  0
   49.2940   28.6950   48.6040 N   0  0  0  0  0  0  0  0  0  0  0  0
   49.8850   28.8710   49.7960 C   0  0  0  0  0  0  0  0  0  0  0  0
   49.8250   30.1560   50.3500 C   0  0  0  0  0  0  0  0  0  0  0  0
   49.1850   31.1690   49.6850 C   0  0  0  0  0  0  0  0  0  0  0  0
   48.5840   30.9660   48.4620 C   0  0  0  0  0  0  0  0  0  0  0  0
   47.9350   31.9610   47.7690 C   0  0  0  0  0  0  0  0  0  0  0  0
   48.7570   35.4560   41.1020 C   0  0  0  0  0  0  0  0  0  0  0  0
   48.2810   34.8360   39.9370 C   0  0  0  0  0  0  0  0  0  0  0  0
   47.2110   33.9270   40.0500 C   0  0  0  0  0  0  0  0  0  0  0  0
   46.7320   33.7320   41.2920 N   0  0  0  0  0  0  0  0  0  0  0  0
   47.1990   34.3340   42.3920 C   0  0  0  0  0  0  0  0  0  0  0  0
   48.2130   35.1980   42.3080 N   0  0  0  0  0  0  0  0  0  0  0  0
   48.5260   34.6470   37.5120 Cl  0  0  0  0  0  0  0  0  0  0  0  0
   47.1880   33.4960   37.6580 C   0  0  0  0  0  0  0  0  0  0  0  0
   46.6480   33.2340   38.8980 C   0  0  0  0  0  0  0  0  0  0  0  0
   45.6100   32.3340   38.9780 C   0  0  0  0  0  0  0  0  0  0  0  0
   45.1770   31.7510   37.8030 C   0  0  0  0  0  0  0  0  0  0  0  0
   45.7010   31.9980   36.5550 C   0  0  0  0  0  0  0  0  0  0  0  0
   46.7400   32.9030   36.5040 C   0  0  0  0  0  0  0  0  0  0  0  0
   48.0060   32.5313   44.1956 H   0  0  0  0  0  0  0  0  0  0  0  0
   44.1508   35.0575   45.8215 H   0  0  0  0  0  0  0  0  0  0  0  0
   46.9879   30.2112   45.0957 H   0  0  0  0  0  0  0  0  0  0  0  0
   48.1388   28.4153   46.3126 H   0  0  0  0  0  0  0  0  0  0  0  0
   50.3931   28.0442   50.3140 H   0  0  0  0  0  0  0  0  0  0  0  0
   50.2945   30.3533   51.3250 H   0  0  0  0  0  0  0  0  0  0  0  0
   49.1502   32.1701   50.1394 H   0  0  0  0  0  0  0  0  0  0  0  0
   47.8903   32.9695   48.2059 H   0  0  0  0  0  0  0  0  0  0  0  0
   49.5923   36.1681   41.0297 H   0  0  0  0  0  0  0  0  0  0  0  0
   48.7328   35.0546   38.9582 H   0  0  0  0  0  0  0  0  0  0  0  0
   45.1421   32.0878   39.9426 H   0  0  0  0  0  0  0  0  0  0  0  0
   44.3472   31.0320   37.8704 H   0  0  0  0  0  0  0  0  0  0  0  0
   45.3142   31.5031   35.6520 H   0  0  0  0  0  0  0  0  0  0  0  0
   47.2091   33.1494   35.5400 H   0  0  0  0  0  0  0  0  0  0  0  0
  1  2  1  0
  2  8  2  0
  3  2  1  0
  3  4  2  0
  4  5  1  0
  5  6  2  0
  5  9  1  0
  6  7  1  0
  8  6  1  0
  9 18  1  0
 10  9  2  0
 10 11  1  0
 11 12  2  0
 12 17  1  0
 12 13  1  0
 13 14  2  0
 14 15  1  0
 16 15  2  0
 17 16  1  0
 18 17  2  0
 19 24  2  0
 20 21  2  0
 20 19  1  0
 21 22  1  0
 22 23  2  0
 23  3  1  0
 24 23  1  0
 25 26  1  0
 26 27  2  0
 27 28  1  0
 27 21  1  0
 29 28  2  0
 30 29  1  0
 31 30  2  0
 31 26  1  0
  4 32  1  0
  8 33  1  0
 10 34  1  0
 11 35  1  0
 14 36  1  0
 15 37  1  0
 16 38  1  0
 18 39  1  0
 19 40  1  0
 20 41  1  0
 28 42  1  0
 29 43  1  0
 30 44  1  0
 31 45  1  0
M  END
>  <minimizedAffinity>  (1) 
-7.66726637

>  <minimizedRMSD>  (1) 
0.184198081

$$$$
