
     RDKit          3D

 32 34  0  0  0  0  0  0  0  0999 V2000
   45.1150   33.4600   41.1440 F   0  0  0  0  0  0  0  0  0  0  0  0
   46.3150   34.0410   41.0260 C   0  0  0  0  0  0  0  0  0  0  0  0
   46.8280   34.7700   42.0800 C   0  0  0  0  0  0  0  0  0  0  0  0
   48.0520   35.3880   42.0140 C   0  0  0  0  0  0  0  0  0  0  0  0
   48.8330   35.3040   40.8770 C   0  0  0  0  0  0  0  0  0  0  0  0
   48.2760   34.5590   39.8410 C   0  0  0  0  0  0  0  0  0  0  0  0
   47.0590   33.9300   39.8700 C   0  0  0  0  0  0  0  0  0  0  0  0
   48.1540   34.6270   37.1050 Cl  0  0  0  0  0  0  0  0  0  0  0  0
   46.9680   33.3620   37.4030 C   0  0  0  0  0  0  0  0  0  0  0  0
   46.5770   33.1750   38.7180 C   0  0  0  0  0  0  0  0  0  0  0  0
   45.6420   32.1750   38.9470 C   0  0  0  0  0  0  0  0  0  0  0  0
   45.0770   31.3650   37.9890 C   0  0  0  0  0  0  0  0  0  0  0  0
   45.5140   31.6050   36.6920 C   0  0  0  0  0  0  0  0  0  0  0  0
   46.4400   32.5790   36.3910 C   0  0  0  0  0  0  0  0  0  0  0  0
   45.4280   34.0520   45.4120 C   0  0  0  0  0  0  0  0  0  0  0  0
   44.6070   35.1780   45.6180 C   0  0  0  0  0  0  0  0  0  0  0  0
   44.5300   36.1850   44.6190 C   0  0  0  0  0  0  0  0  0  0  0  0
   45.2840   35.9750   43.4990 N   0  0  0  0  0  0  0  0  0  0  0  0
   46.0510   34.9050   43.3270 C   0  0  0  0  0  0  0  0  0  0  0  0
   46.1180   33.9620   44.2700 N   0  0  0  0  0  0  0  0  0  0  0  0
   45.4940   33.0640   46.4080 N   0  0  0  0  0  0  0  0  0  0  0  0
   48.4171   35.9593   42.8802 H   0  0  0  0  0  0  0  0  0  0  0  0
   49.8176   35.7878   40.7967 H   0  0  0  0  0  0  0  0  0  0  0  0
   48.8655   34.4672   38.9168 H   0  0  0  0  0  0  0  0  0  0  0  0
   45.3242   32.0158   39.9880 H   0  0  0  0  0  0  0  0  0  0  0  0
   44.3370   30.5879   38.2310 H   0  0  0  0  0  0  0  0  0  0  0  0
   45.1046   30.9936   35.8743 H   0  0  0  0  0  0  0  0  0  0  0  0
   46.7590   32.7342   35.3498 H   0  0  0  0  0  0  0  0  0  0  0  0
   44.0282   35.2770   46.5481 H   0  0  0  0  0  0  0  0  0  0  0  0
   43.9015   37.0796   44.7398 H   0  0  0  0  0  0  0  0  0  0  0  0
   46.0897   32.2348   46.2722 H   0  0  0  0  0  0  0  0  0  0  0  0
   44.9467   33.1686   47.2742 H   0  0  0  0  0  0  0  0  0  0  0  0
  2  1  1  0
  2  3  2  0
  3 19  1  0
  4  3  1  0
  5  4  2  0
  6  7  2  0
  6  5  1  0
  7  2  1  0
  8  9  1  0
  9 10  2  0
 10 11  1  0
 10  7  1  0
 12 11  2  0
 13 12  1  0
 14 13  2  0
 14  9  1  0
 15 16  2  0
 15 21  1  0
 17 16  1  0
 18 17  2  0
 19 18  1  0
 19 20  2  0
 20 15  1  0
  4 22  1  0
  5 23  1  0
  6 24  1  0
 11 25  1  0
 12 26  1  0
 13 27  1  0
 14 28  1  0
 16 29  1  0
 17 30  1  0
 21 31  1  0
 21 32  1  0
M  ISO  8  22  14  23  14  24  14  25  14  26  14  27  14  28  14  29  14
M  ISO  1  30  14
M  END
>  <minimizedAffinity>  (1) 
-6.48507643

>  <minimizedRMSD>  (1) 
0.179689676

$$$$
