
     RDKit          3D

 36 39  0  0  0  0  0  0  0  0999 V2000
   47.7460   31.1470   46.1640 C   0  0  0  0  0  0  0  0  0  0  0  0
   46.9610   32.1290   45.6140 C   0  0  0  0  0  0  0  0  0  0  0  0
   45.8520   32.5580   46.3190 C   0  0  0  0  0  0  0  0  0  0  0  0
   45.4970   32.0460   47.5510 C   0  0  0  0  0  0  0  0  0  0  0  0
   44.5310   32.2260   48.4650 N   0  0  0  0  0  0  0  0  0  0  0  0
   44.7240   31.3910   49.5220 C   0  0  0  0  0  0  0  0  0  0  0  0
   45.8380   30.6790   49.2470 N   0  0  0  0  0  0  0  0  0  0  0  0
   46.3270   31.0610   48.0520 C   0  0  0  0  0  0  0  0  0  0  0  0
   47.4290   30.6020   47.4010 C   0  0  0  0  0  0  0  0  0  0  0  0
   49.4240   31.7100   49.2740 Cl  0  0  0  0  0  0  0  0  0  0  0  0
   49.2810   30.0380   48.7720 C   0  0  0  0  0  0  0  0  0  0  0  0
   48.3310   29.5660   47.8920 C   0  0  0  0  0  0  0  0  0  0  0  0
   48.3060   28.2250   47.5610 C   0  0  0  0  0  0  0  0  0  0  0  0
   49.2330   27.3750   48.1170 C   0  0  0  0  0  0  0  0  0  0  0  0
   50.2120   27.8010   49.0100 C   0  0  0  0  0  0  0  0  0  0  0  0
   50.1980   29.1470   49.3090 C   0  0  0  0  0  0  0  0  0  0  0  0
   47.1680   34.4340   42.7750 C   0  0  0  0  0  0  0  0  0  0  0  0
   47.9320   33.7350   41.8520 C   0  0  0  0  0  0  0  0  0  0  0  0
   48.3660   32.4660   42.2380 C   0  0  0  0  0  0  0  0  0  0  0  0
   48.0260   31.9920   43.4620 N   0  0  0  0  0  0  0  0  0  0  0  0
   47.2840   32.7090   44.3170 C   0  0  0  0  0  0  0  0  0  0  0  0
   46.8450   33.9310   43.9890 N   0  0  0  0  0  0  0  0  0  0  0  0
   48.2290   34.3760   40.5480 C   0  0  0  0  0  0  0  0  0  0  0  0
   48.8130   35.5970   40.8690 F   0  0  0  0  0  0  0  0  0  0  0  0
   47.0510   34.5750   39.8870 F   0  0  0  0  0  0  0  0  0  0  0  0
   49.0770   33.5470   39.8420 F   0  0  0  0  0  0  0  0  0  0  0  0
   48.6330   30.7890   45.6208 H   0  0  0  0  0  0  0  0  0  0  0  0
   45.2225   33.3446   45.8774 H   0  0  0  0  0  0  0  0  0  0  0  0
   43.7558   32.8987   48.3789 H   0  0  0  0  0  0  0  0  0  0  0  0
   44.0968   31.3117   50.4222 H   0  0  0  0  0  0  0  0  0  0  0  0
   47.5514   27.8406   46.8590 H   0  0  0  0  0  0  0  0  0  0  0  0
   49.1993   26.3100   47.8436 H   0  0  0  0  0  0  0  0  0  0  0  0
   50.9476   27.1102   49.4479 H   0  0  0  0  0  0  0  0  0  0  0  0
   50.9529   29.5338   50.0094 H   0  0  0  0  0  0  0  0  0  0  0  0
   46.8097   35.4394   42.5089 H   0  0  0  0  0  0  0  0  0  0  0  0
   48.9776   31.8567   41.5563 H   0  0  0  0  0  0  0  0  0  0  0  0
  1  9  2  0
  2  1  1  0
  2  3  2  0
  3  4  1  0
  4  8  2  0
  4  5  1  0
  5  6  1  0
  7  6  2  0
  8  7  1  0
  9 12  1  0
  9  8  1  0
 11 10  1  0
 11 16  2  0
 12 11  1  0
 13 12  2  0
 13 14  1  0
 14 15  2  0
 15 16  1  0
 17 22  2  0
 18 19  2  0
 18 17  1  0
 19 20  1  0
 20 21  2  0
 21  2  1  0
 22 21  1  0
 23 24  1  0
 23 18  1  0
 25 23  1  0
 26 23  1  0
  1 27  1  0
  3 28  1  0
  5 29  1  0
  6 30  1  0
 13 31  1  0
 14 32  1  0
 15 33  1  0
 16 34  1  0
 17 35  1  0
 19 36  1  0
M  ISO  8  27  14  28  14  29   9  30  14  31  14  32  14  33  14  34  14
M  ISO  2  35  14  36  14
M  END
>  <minimizedAffinity>  (1) 
-6.09583616

>  <minimizedRMSD>  (1) 
0.419108301

$$$$
