
     RDKit          3D

 33 36  0  0  0  0  0  0  0  0999 V2000
   46.0180   31.3050   45.0530 C   0  0  0  0  0  0  0  0  0  0  0  0
   46.3300   32.6370   45.2730 C   0  0  0  0  0  0  0  0  0  0  0  0
   46.2670   33.2100   46.5310 C   0  0  0  0  0  0  0  0  0  0  0  0
   45.8800   32.4460   47.6300 C   0  0  0  0  0  0  0  0  0  0  0  0
   45.7140   32.6720   48.9600 N   0  0  0  0  0  0  0  0  0  0  0  0
   45.3120   31.5100   49.5420 C   0  0  0  0  0  0  0  0  0  0  0  0
   45.2360   30.5780   48.5510 N   0  0  0  0  0  0  0  0  0  0  0  0
   45.5770   31.1240   47.3810 C   0  0  0  0  0  0  0  0  0  0  0  0
   45.6300   30.5300   46.1480 C   0  0  0  0  0  0  0  0  0  0  0  0
   46.3050   35.2280   42.6620 C   0  0  0  0  0  0  0  0  0  0  0  0
   47.5360   35.0390   42.0350 C   0  0  0  0  0  0  0  0  0  0  0  0
   48.3790   34.0130   42.5160 C   0  0  0  0  0  0  0  0  0  0  0  0
   47.9240   33.2670   43.5740 N   0  0  0  0  0  0  0  0  0  0  0  0
   46.7360   33.4700   44.1580 C   0  0  0  0  0  0  0  0  0  0  0  0
   45.9380   34.4460   43.6990 N   0  0  0  0  0  0  0  0  0  0  0  0
   48.0550   28.8650   46.2560 Cl  0  0  0  0  0  0  0  0  0  0  0  0
   46.4210   28.3030   45.9340 C   0  0  0  0  0  0  0  0  0  0  0  0
   45.3070   29.1340   45.8940 C   0  0  0  0  0  0  0  0  0  0  0  0
   44.0630   28.5880   45.6310 C   0  0  0  0  0  0  0  0  0  0  0  0
   43.9610   27.2270   45.4150 C   0  0  0  0  0  0  0  0  0  0  0  0
   45.0600   26.3930   45.4520 C   0  0  0  0  0  0  0  0  0  0  0  0
   46.2960   26.9460   45.7150 C   0  0  0  0  0  0  0  0  0  0  0  0
   46.0744   30.8702   44.0441 H   0  0  0  0  0  0  0  0  0  0  0  0
   46.5231   34.2715   46.6637 H   0  0  0  0  0  0  0  0  0  0  0  0
   45.8663   33.5685   49.4438 H   0  0  0  0  0  0  0  0  0  0  0  0
   45.0908   31.3530   50.6080 H   0  0  0  0  0  0  0  0  0  0  0  0
   45.6282   36.0200   42.3090 H   0  0  0  0  0  0  0  0  0  0  0  0
   47.8422   35.6717   41.1889 H   0  0  0  0  0  0  0  0  0  0  0  0
   49.3614   33.8196   42.0605 H   0  0  0  0  0  0  0  0  0  0  0  0
   43.1689   29.2277   45.5944 H   0  0  0  0  0  0  0  0  0  0  0  0
   42.9714   26.7941   45.2067 H   0  0  0  0  0  0  0  0  0  0  0  0
   44.9528   25.3125   45.2759 H   0  0  0  0  0  0  0  0  0  0  0  0
   47.1870   26.3019   45.7504 H   0  0  0  0  0  0  0  0  0  0  0  0
  1  2  2  0
  1  9  1  0
  2  3  1  0
  3  4  2  0
  4  5  1  0
  5  6  1  0
  7  6  2  0
  8  4  1  0
  8  7  1  0
  9  8  2  0
 10 15  2  0
 11 12  2  0
 11 10  1  0
 12 13  1  0
 13 14  2  0
 14  2  1  0
 15 14  1  0
 17 16  1  0
 18 17  2  0
 18  9  1  0
 19 18  1  0
 20 21  1  0
 20 19  2  0
 21 22  2  0
 22 17  1  0
  1 23  1  0
  3 24  1  0
  5 25  1  0
  6 26  1  0
 10 27  1  0
 11 28  1  0
 12 29  1  0
 19 30  1  0
 20 31  1  0
 21 32  1  0
 22 33  1  0
M  ISO  8  23  14  24  14  25   9  26  14  27  14  28  14  29  14  30  14
M  ISO  3  31  14  32  14  33  14
M  END
>  <minimizedAffinity>  (1) 
-5.47942495

>  <minimizedRMSD>  (1) 
1.65202332

$$$$
