
     RDKit          3D

 27 29  0  0  0  0  0  0  0  0999 V2000
   46.0480   32.9390   46.0090 C   0  0  0  0  0  0  0  0  0  0  0  0
   45.6450   32.6950   47.3500 C   0  0  0  0  0  0  0  0  0  0  0  0
   46.1200   31.5950   47.9730 C   0  0  0  0  0  0  0  0  0  0  0  0
   46.9940   30.7130   47.3050 C   0  0  0  0  0  0  0  0  0  0  0  0
   47.1240   31.5360   45.6890 S   0  0  0  0  0  0  0  0  0  0  0  0
   44.4550   36.0390   44.7230 C   0  0  0  0  0  0  0  0  0  0  0  0
   45.0390   36.0860   43.4310 C   0  0  0  0  0  0  0  0  0  0  0  0
   45.9380   35.0610   43.0770 C   0  0  0  0  0  0  0  0  0  0  0  0
   46.1990   34.0800   43.9960 N   0  0  0  0  0  0  0  0  0  0  0  0
   45.6140   34.0840   45.2150 C   0  0  0  0  0  0  0  0  0  0  0  0
   44.7440   35.0610   45.5770 N   0  0  0  0  0  0  0  0  0  0  0  0
   45.7640   28.0170   46.5010 Cl  0  0  0  0  0  0  0  0  0  0  0  0
   47.2830   28.2440   47.3280 C   0  0  0  0  0  0  0  0  0  0  0  0
   47.6540   29.5420   47.5970 C   0  0  0  0  0  0  0  0  0  0  0  0
   48.8870   29.5880   48.2600 C   0  0  0  0  0  0  0  0  0  0  0  0
   49.6340   28.4860   48.6030 C   0  0  0  0  0  0  0  0  0  0  0  0
   49.1520   27.2400   48.2770 C   0  0  0  0  0  0  0  0  0  0  0  0
   47.9500   27.0770   47.6240 C   0  0  0  0  0  0  0  0  0  0  0  0
   44.9628   33.3853   47.8678 H   0  0  0  0  0  0  0  0  0  0  0  0
   45.8224   31.3852   49.0110 H   0  0  0  0  0  0  0  0  0  0  0  0
   43.7492   36.8270   45.0246 H   0  0  0  0  0  0  0  0  0  0  0  0
   44.7975   36.8969   42.7281 H   0  0  0  0  0  0  0  0  0  0  0  0
   46.4182   35.0489   42.0874 H   0  0  0  0  0  0  0  0  0  0  0  0
   49.2867   30.5778   48.5255 H   0  0  0  0  0  0  0  0  0  0  0  0
   50.5951   28.5983   49.1261 H   0  0  0  0  0  0  0  0  0  0  0  0
   49.7414   26.3506   48.5445 H   0  0  0  0  0  0  0  0  0  0  0  0
   47.5523   26.0864   47.3585 H   0  0  0  0  0  0  0  0  0  0  0  0
  1  2  2  0
  2  3  1  0
  4 14  1  0
  4  3  2  0
  5  1  1  0
  5  4  1  0
  6 11  2  0
  7  6  1  0
  8  7  2  0
  8  9  1  0
  9 10  2  0
 10 11  1  0
 10  1  1  0
 12 13  1  0
 13 14  2  0
 13 18  1  0
 14 15  1  0
 15 16  2  0
 17 16  1  0
 18 17  2  0
  2 19  1  0
  3 20  1  0
  6 21  1  0
  7 22  1  0
  8 23  1  0
 15 24  1  0
 16 25  1  0
 17 26  1  0
 18 27  1  0
M  ISO  8  19  14  20  14  21  14  22  14  23  14  24  14  25  14  26  14
M  ISO  1  27  14
M  END
>  <minimizedAffinity>  (1) 
-4.76702404

>  <minimizedRMSD>  (1) 
1.34648383

$$$$
