
     RDKit          3D

 29 31  0  0  0  0  0  0  0  0999 V2000
   46.8040   34.8320   42.1160 C   0  0  0  0  0  0  0  0  0  0  0  0
   48.0440   35.4220   41.9520 C   0  0  0  0  0  0  0  0  0  0  0  0
   48.8200   35.3210   40.8120 C   0  0  0  0  0  0  0  0  0  0  0  0
   48.3200   34.5740   39.7510 C   0  0  0  0  0  0  0  0  0  0  0  0
   47.0940   34.0020   39.9380 C   0  0  0  0  0  0  0  0  0  0  0  0
   46.3950   34.1340   41.0560 N   0  0  0  0  0  0  0  0  0  0  0  0
   44.4500   35.9430   44.8420 C   0  0  0  0  0  0  0  0  0  0  0  0
   45.1170   35.9670   43.6120 C   0  0  0  0  0  0  0  0  0  0  0  0
   46.0240   34.9610   43.3320 C   0  0  0  0  0  0  0  0  0  0  0  0
   46.2110   34.0030   44.2810 N   0  0  0  0  0  0  0  0  0  0  0  0
   45.5650   33.9890   45.4600 C   0  0  0  0  0  0  0  0  0  0  0  0
   44.6800   34.9760   45.7260 N   0  0  0  0  0  0  0  0  0  0  0  0
   48.1480   34.5610   37.2020 Cl  0  0  0  0  0  0  0  0  0  0  0  0
   46.8980   33.3530   37.5420 C   0  0  0  0  0  0  0  0  0  0  0  0
   46.5050   33.2030   38.8680 C   0  0  0  0  0  0  0  0  0  0  0  0
   45.5340   32.2430   39.0230 C   0  0  0  0  0  0  0  0  0  0  0  0
   45.0140   31.5160   37.9730 C   0  0  0  0  0  0  0  0  0  0  0  0
   45.4520   31.7230   36.6990 C   0  0  0  0  0  0  0  0  0  0  0  0
   46.4230   32.6650   36.4580 C   0  0  0  0  0  0  0  0  0  0  0  0
   48.4418   36.0145   42.7891 H   0  0  0  0  0  0  0  0  0  0  0  0
   49.8005   35.8153   40.7466 H   0  0  0  0  0  0  0  0  0  0  0  0
   48.8810   34.4506   38.8129 H   0  0  0  0  0  0  0  0  0  0  0  0
   43.7252   36.7351   45.0812 H   0  0  0  0  0  0  0  0  0  0  0  0
   44.9242   36.7685   42.8837 H   0  0  0  0  0  0  0  0  0  0  0  0
   45.7526   33.1908   46.1933 H   0  0  0  0  0  0  0  0  0  0  0  0
   45.1524   32.0446   40.0354 H   0  0  0  0  0  0  0  0  0  0  0  0
   44.2375   30.7610   38.1656 H   0  0  0  0  0  0  0  0  0  0  0  0
   45.0303   31.1388   35.8678 H   0  0  0  0  0  0  0  0  0  0  0  0
   46.8005   32.8570   35.4428 H   0  0  0  0  0  0  0  0  0  0  0  0
  1  9  1  0
  2  1  2  0
  3  2  1  0
  4  5  1  0
  4  3  2  0
  5  6  2  0
  6  1  1  0
  7 12  2  0
  8  7  1  0
  9  8  2  0
  9 10  1  0
 10 11  2  0
 11 12  1  0
 13 14  1  0
 14 15  2  0
 15 16  1  0
 15  5  1  0
 17 16  2  0
 18 17  1  0
 19 18  2  0
 19 14  1  0
  2 20  1  0
  3 21  1  0
  4 22  1  0
  7 23  1  0
  8 24  1  0
 11 25  1  0
 16 26  1  0
 17 27  1  0
 18 28  1  0
 19 29  1  0
M  ISO  8  20  14  21  14  22  14  23  14  24  14  25  14  26  14  27  14
M  ISO  2  28  14  29  14
M  END
>  <minimizedAffinity>  (1) 
-5.87479162

>  <minimizedRMSD>  (1) 
0.438480705

$$$$
