
     RDKit          3D

 26 27  0  0  0  0  0  0  0  0999 V2000
   46.8090   32.4920   45.7430 C   0  0  0  0  0  0  0  0  0  0  0  0
   45.7590   33.1910   46.3310 C   0  0  0  0  0  0  0  0  0  0  0  0
   45.2420   34.2800   45.6310 C   0  0  0  0  0  0  0  0  0  0  0  0
   45.7900   34.5960   44.4180 N   0  0  0  0  0  0  0  0  0  0  0  0
   46.8110   33.8920   43.8780 C   0  0  0  0  0  0  0  0  0  0  0  0
   47.3160   32.8440   44.5420 N   0  0  0  0  0  0  0  0  0  0  0  0
   45.4050   32.6810   41.5960 Cl  0  0  0  0  0  0  0  0  0  0  0  0
   46.7730   33.7820   41.4300 C   0  0  0  0  0  0  0  0  0  0  0  0
   47.3480   34.2840   42.5790 C   0  0  0  0  0  0  0  0  0  0  0  0
   48.4220   35.1520   42.5350 C   0  0  0  0  0  0  0  0  0  0  0  0
   48.9350   35.5260   41.3020 C   0  0  0  0  0  0  0  0  0  0  0  0
   48.3550   35.0200   40.1390 C   0  0  0  0  0  0  0  0  0  0  0  0
   47.2770   34.1500   40.2180 C   0  0  0  0  0  0  0  0  0  0  0  0
   45.2610   32.7590   47.6150 C   0  0  0  0  0  0  0  0  0  0  0  0
   45.4350   31.2550   47.7160 C   0  0  0  0  0  0  0  0  0  0  0  0
   47.2382   31.6281   46.2717 H   0  0  0  0  0  0  0  0  0  0  0  0
   44.4122   34.8719   46.0446 H   0  0  0  0  0  0  0  0  0  0  0  0
   48.8637   35.5408   43.4644 H   0  0  0  0  0  0  0  0  0  0  0  0
   49.7906   36.2147   41.2419 H   0  0  0  0  0  0  0  0  0  0  0  0
   48.7534   35.3115   39.1560 H   0  0  0  0  0  0  0  0  0  0  0  0
   46.8258   33.7544   39.2961 H   0  0  0  0  0  0  0  0  0  0  0  0
   45.8273   33.2531   48.4183 H   0  0  0  0  0  0  0  0  0  0  0  0
   44.1981   33.0237   47.7162 H   0  0  0  0  0  0  0  0  0  0  0  0
   45.4691   30.9601   48.7752 H   0  0  0  0  0  0  0  0  0  0  0  0
   44.5888   30.7541   47.2230 H   0  0  0  0  0  0  0  0  0  0  0  0
   46.3732   30.9605   47.2230 H   0  0  0  0  0  0  0  0  0  0  0  0
  1  2  2  0
  2 14  1  0
  3  2  1  0
  4  3  2  0
  5  4  1  0
  5  6  2  0
  6  1  1  0
  8  7  1  0
  8  9  2  0
  9  5  1  0
 10  9  1  0
 11 10  2  0
 12 13  2  0
 12 11  1  0
 13  8  1  0
 14 15  1  0
  1 16  1  0
  3 17  1  0
 10 18  1  0
 11 19  1  0
 12 20  1  0
 13 21  1  0
 14 22  1  0
 14 23  1  0
 15 24  1  0
 15 25  1  0
 15 26  1  0
M  ISO  8  16  14  17  14  18  14  19  14  20  14  21  14  22   8  23   8
M  ISO  3  24   8  25   8  26   8
M  END
>  <minimizedAffinity>  (1) 
-4.77754307

>  <minimizedRMSD>  (1) 
6.41219807

$$$$
