
     RDKit          3D

 21 22  0  0  0  0  0  0  0  0999 V2000
   44.8560   35.0500   45.4480 C   0  0  0  0  0  0  0  0  0  0  0  0
   44.4990   36.0560   44.5260 C   0  0  0  0  0  0  0  0  0  0  0  0
   45.0880   35.9860   43.2560 C   0  0  0  0  0  0  0  0  0  0  0  0
   45.9460   34.9800   42.9900 N   0  0  0  0  0  0  0  0  0  0  0  0
   46.2630   34.0300   43.9060 C   0  0  0  0  0  0  0  0  0  0  0  0
   45.7160   34.0750   45.1240 N   0  0  0  0  0  0  0  0  0  0  0  0
   48.8020   34.9650   42.6120 Cl  0  0  0  0  0  0  0  0  0  0  0  0
   48.4080   33.2900   42.9540 C   0  0  0  0  0  0  0  0  0  0  0  0
   47.2020   32.9650   43.5580 C   0  0  0  0  0  0  0  0  0  0  0  0
   46.9130   31.6270   43.8180 C   0  0  0  0  0  0  0  0  0  0  0  0
   47.8120   30.6090   43.4840 C   0  0  0  0  0  0  0  0  0  0  0  0
   49.0090   30.9720   42.8810 C   0  0  0  0  0  0  0  0  0  0  0  0
   49.2680   32.2860   42.6370 C   0  0  0  0  0  0  0  0  0  0  0  0
   44.2830   35.1110   46.6950 O   0  0  0  0  0  0  0  0  0  0  0  0
   43.7927   36.8566   44.7908 H   0  0  0  0  0  0  0  0  0  0  0  0
   44.8543   36.7391   42.4890 H   0  0  0  0  0  0  0  0  0  0  0  0
   45.9574   31.3658   44.2961 H   0  0  0  0  0  0  0  0  0  0  0  0
   47.5783   29.5545   43.6923 H   0  0  0  0  0  0  0  0  0  0  0  0
   49.7437   30.2023   42.6021 H   0  0  0  0  0  0  0  0  0  0  0  0
   50.2229   32.5491   42.1584 H   0  0  0  0  0  0  0  0  0  0  0  0
   44.5037   34.4263   47.3752 H   0  0  0  0  0  0  0  0  0  0  0  0
  1 14  1  0
  2  1  2  0
  3  2  1  0
  4  3  2  0
  4  5  1  0
  5  6  2  0
  6  1  1  0
  7  8  1  0
  8  9  2  0
  9 10  1  0
  9  5  1  0
 11 10  2  0
 12 11  1  0
 13 12  2  0
 13  8  1  0
  2 15  1  0
  3 16  1  0
 10 17  1  0
 11 18  1  0
 12 19  1  0
 13 20  1  0
 14 21  1  0
M  ISO  7  15  14  16  14  17  14  18  14  19  14  20  14  21   3
M  END
>  <minimizedAffinity>  (1) 
-4.90367174

>  <minimizedRMSD>  (1) 
4.7158885

$$$$
