
     RDKit          3D

 49 52  0  0  0  0  0  0  0  0999 V2000
   45.9210   32.2360   48.3890 C   0  0  0  0  0  0  0  0  0  0  0  0
   45.5330   31.3540   49.3520 C   0  0  0  0  0  0  0  0  0  0  0  0
   46.6280   30.6550   49.6840 N   0  0  0  0  0  0  0  0  0  0  0  0
   47.6920   31.0580   48.9730 C   0  0  0  0  0  0  0  0  0  0  0  0
   47.2400   32.0510   48.1610 N   0  0  0  0  0  0  0  0  0  0  0  0
   49.0390   30.6290   48.9700 N   0  0  0  0  0  0  0  0  0  0  0  0
   49.9780   31.2910   49.9020 C   0  0  0  0  0  0  0  0  0  0  0  0
   50.1840   30.2740   51.0210 C   0  0  0  0  0  0  0  0  0  0  0  0
   50.4800   28.9050   50.4410 C   0  0  0  0  0  0  0  0  0  0  0  0
   50.8780   29.0540   48.9880 C   0  0  0  0  0  0  0  0  0  0  0  0
   49.7220   29.6320   48.2100 C   0  0  0  0  0  0  0  0  0  0  0  0
   45.0550   33.2380   47.6950 C   0  0  0  0  0  0  0  0  0  0  0  0
   45.0560   34.4630   45.5600 C   0  0  0  0  0  0  0  0  0  0  0  0
   45.5190   33.4990   46.3280 C   0  0  0  0  0  0  0  0  0  0  0  0
   45.6130   34.5920   44.2140 C   0  0  0  0  0  0  0  0  0  0  0  0
   44.9360   35.3380   43.1990 C   0  0  0  0  0  0  0  0  0  0  0  0
   45.5230   35.4050   41.9550 C   0  0  0  0  0  0  0  0  0  0  0  0
   46.7040   34.7700   41.7450 N   0  0  0  0  0  0  0  0  0  0  0  0
   47.3270   34.0690   42.7210 C   0  0  0  0  0  0  0  0  0  0  0  0
   46.8010   33.9800   43.9250 N   0  0  0  0  0  0  0  0  0  0  0  0
   47.2050   31.5490   40.9750 Cl  0  0  0  0  0  0  0  0  0  0  0  0
   48.6760   32.3370   41.5020 C   0  0  0  0  0  0  0  0  0  0  0  0
   48.5800   33.4660   42.2860 C   0  0  0  0  0  0  0  0  0  0  0  0
   49.8020   33.9980   42.6360 C   0  0  0  0  0  0  0  0  0  0  0  0
   51.0140   33.4520   42.2380 C   0  0  0  0  0  0  0  0  0  0  0  0
   51.0390   32.3220   41.4560 C   0  0  0  0  0  0  0  0  0  0  0  0
   49.8500   31.7530   41.0790 C   0  0  0  0  0  0  0  0  0  0  0  0
   44.5234   31.2384   49.7730 H   0  0  0  0  0  0  0  0  0  0  0  0
   46.6495   29.9070   50.3918 H   0  0  0  0  0  0  0  0  0  0  0  0
   50.9307   31.5156   49.4001 H   0  0  0  0  0  0  0  0  0  0  0  0
   49.5913   32.2511   50.2745 H   0  0  0  0  0  0  0  0  0  0  0  0
   51.0290   30.5922   51.6493 H   0  0  0  0  0  0  0  0  0  0  0  0
   49.2662   30.2157   51.6245 H   0  0  0  0  0  0  0  0  0  0  0  0
   51.3033   28.4383   51.0017 H   0  0  0  0  0  0  0  0  0  0  0  0
   49.5840   28.2713   50.5151 H   0  0  0  0  0  0  0  0  0  0  0  0
   51.7449   29.7268   48.9118 H   0  0  0  0  0  0  0  0  0  0  0  0
   51.1429   28.0690   48.5761 H   0  0  0  0  0  0  0  0  0  0  0  0
   49.0174   28.8249   47.9605 H   0  0  0  0  0  0  0  0  0  0  0  0
   50.1150   30.0984   47.2946 H   0  0  0  0  0  0  0  0  0  0  0  0
   44.0254   32.8529   47.6550 H   0  0  0  0  0  0  0  0  0  0  0  0
   45.1004   34.1811   48.2594 H   0  0  0  0  0  0  0  0  0  0  0  0
   44.2752   35.1494   45.9193 H   0  0  0  0  0  0  0  0  0  0  0  0
   46.3046   32.8471   45.9181 H   0  0  0  0  0  0  0  0  0  0  0  0
   43.9796   35.8409   43.4048 H   0  0  0  0  0  0  0  0  0  0  0  0
   45.0405   35.9664   41.1414 H   0  0  0  0  0  0  0  0  0  0  0  0
   49.8175   34.9017   43.2630 H   0  0  0  0  0  0  0  0  0  0  0  0
   51.9572   33.9248   42.5492 H   0  0  0  0  0  0  0  0  0  0  0  0
   51.9958   31.8820   41.1383 H   0  0  0  0  0  0  0  0  0  0  0  0
   49.8337   30.8493   40.4520 H   0  0  0  0  0  0  0  0  0  0  0  0
  1  2  2  0
  2  3  1  0
  4  3  1  0
  5  1  1  0
  5  4  2  0
  6  4  1  0
  6  7  1  0
  7  8  1  0
  9  8  1  0
 10  9  1  0
 11  6  1  0
 11 10  1  0
 12  1  1  0
 13 14  2  0
 14 12  1  0
 15 13  1  0
 16 15  2  0
 17 16  1  0
 18 17  2  0
 18 19  1  0
 19 20  2  0
 20 15  1  0
 21 22  1  0
 22 23  2  0
 23 24  1  0
 23 19  1  0
 25 24  2  0
 26 25  1  0
 27 26  2  0
 27 22  1  0
  2 28  1  0
  3 29  1  0
  7 30  1  0
  7 31  1  0
  8 32  1  0
  8 33  1  0
  9 34  1  0
  9 35  1  0
 10 36  1  0
 10 37  1  0
 11 38  1  0
 11 39  1  0
 12 40  1  0
 12 41  1  0
 13 42  1  0
 14 43  1  0
 16 44  1  0
 17 45  1  0
 24 46  1  0
 25 47  1  0
 26 48  1  0
 27 49  1  0
M  ISO  8  28  14  29   9  30  13  31  13  32  13  33  13  34  13  35  13
M  ISO  8  36  13  37  13  38  13  39  13  40   8  41   8  44  14  45  14
M  ISO  4  46  14  47  14  48  14  49  14
M  END
>  <minimizedAffinity>  (1) 
-6.831882

>  <minimizedRMSD>  (1) 
1.56388652

$$$$
