
     RDKit          3D

 40 44  0  0  0  0  0  0  0  0999 V2000
   47.2310   31.3530   45.1890 C   0  0  0  0  0  0  0  0  0  0  0  0
   46.8570   32.6970   45.1870 C   0  0  0  0  0  0  0  0  0  0  0  0
   46.2540   33.3000   46.2760 C   0  0  0  0  0  0  0  0  0  0  0  0
   45.9980   32.5680   47.4300 C   0  0  0  0  0  0  0  0  0  0  0  0
   45.4420   32.8270   48.6430 N   0  0  0  0  0  0  0  0  0  0  0  0
   45.4700   31.6780   49.3750 C   0  0  0  0  0  0  0  0  0  0  0  0
   46.0460   30.7270   48.5960 N   0  0  0  0  0  0  0  0  0  0  0  0
   46.3750   31.2520   47.4040 C   0  0  0  0  0  0  0  0  0  0  0  0
   46.9710   30.6130   46.3600 C   0  0  0  0  0  0  0  0  0  0  0  0
   46.4450   35.1740   42.5120 C   0  0  0  0  0  0  0  0  0  0  0  0
   47.6060   34.9850   41.7500 C   0  0  0  0  0  0  0  0  0  0  0  0
   48.5200   34.0120   42.1550 C   0  0  0  0  0  0  0  0  0  0  0  0
   48.2370   33.2870   43.2840 N   0  0  0  0  0  0  0  0  0  0  0  0
   47.1090   33.4930   43.9990 C   0  0  0  0  0  0  0  0  0  0  0  0
   46.2270   34.4260   43.6140 N   0  0  0  0  0  0  0  0  0  0  0  0
   47.3390   29.1970   46.4260 C   0  0  0  0  0  0  0  0  0  0  0  0
   48.3260   28.6040   45.6610 C   0  0  0  0  0  0  0  0  0  0  0  0
   48.3040   27.2620   46.0790 C   0  0  0  0  0  0  0  0  0  0  0  0
   47.3310   27.1280   47.0450 C   0  0  0  0  0  0  0  0  0  0  0  0
   46.7910   28.3150   47.2100 O   0  0  0  0  0  0  0  0  0  0  0  0
   49.2730   26.2780   49.1550 Cl  0  0  0  0  0  0  0  0  0  0  0  0
   47.7960   25.4230   48.7480 C   0  0  0  0  0  0  0  0  0  0  0  0
   46.9680   25.9060   47.7520 C   0  0  0  0  0  0  0  0  0  0  0  0
   45.8020   25.2490   47.4160 C   0  0  0  0  0  0  0  0  0  0  0  0
   45.4440   24.0910   48.0750 C   0  0  0  0  0  0  0  0  0  0  0  0
   46.2900   23.6330   49.0640 C   0  0  0  0  0  0  0  0  0  0  0  0
   47.4700   24.2600   49.4340 C   0  0  0  0  0  0  0  0  0  0  0  0
   47.7089   30.8901   44.3131 H   0  0  0  0  0  0  0  0  0  0  0  0
   45.9758   34.3632   46.2289 H   0  0  0  0  0  0  0  0  0  0  0  0
   45.0652   33.7336   48.9545 H   0  0  0  0  0  0  0  0  0  0  0  0
   45.0970   31.5462   50.4014 H   0  0  0  0  0  0  0  0  0  0  0  0
   45.7092   35.9343   42.2110 H   0  0  0  0  0  0  0  0  0  0  0  0
   47.7926   35.5912   40.8513 H   0  0  0  0  0  0  0  0  0  0  0  0
   49.4427   33.8313   41.5841 H   0  0  0  0  0  0  0  0  0  0  0  0
   48.9743   29.0711   44.9050 H   0  0  0  0  0  0  0  0  0  0  0  0
   48.9518   26.4578   45.7002 H   0  0  0  0  0  0  0  0  0  0  0  0
   45.1563   25.6496   46.6207 H   0  0  0  0  0  0  0  0  0  0  0  0
   44.5187   23.5530   47.8214 H   0  0  0  0  0  0  0  0  0  0  0  0
   46.0101   22.7103   49.5934 H   0  0  0  0  0  0  0  0  0  0  0  0
   48.1144   23.8574   50.2294 H   0  0  0  0  0  0  0  0  0  0  0  0
  1  9  2  0
  2  1  1  0
  2  3  2  0
  3  4  1  0
  4  5  1  0
  5  6  1  0
  7  6  2  0
  8  4  2  0
  8  7  1  0
  9 16  1  0
  9  8  1  0
 10 15  2  0
 11 12  2  0
 11 10  1  0
 12 13  1  0
 13 14  2  0
 14  2  1  0
 15 14  1  0
 16 20  1  0
 17 18  1  0
 17 16  2  0
 18 19  2  0
 19 20  1  0
 19 23  1  0
 22 21  1  0
 22 27  2  0
 23 22  1  0
 24 23  2  0
 24 25  1  0
 25 26  2  0
 26 27  1  0
  1 28  1  0
  3 29  1  0
  5 30  1  0
  6 31  1  0
 10 32  1  0
 11 33  1  0
 12 34  1  0
 17 35  1  0
 18 36  1  0
 24 37  1  0
 25 38  1  0
 26 39  1  0
 27 40  1  0
M  ISO  8  28  14  29  14  30   9  31  14  32  14  33  14  34  14  35  14
M  ISO  5  36  14  37  14  38  14  39  14  40  14
M  END
>  <minimizedAffinity>  (1) 
-6.10793209

>  <minimizedRMSD>  (1) 
1.23831201

$$$$
