
     RDKit          3D

 36 38  0  0  1  0  0  0  0  0999 V2000
   47.0430   34.0910   42.9110 C   0  0  2  0  0  0  0  0  0  0  0  0
   46.4990   33.4900   41.6680 C   0  0  2  0  0  0  0  0  0  0  0  0
   47.4900   33.3750   40.5750 C   0  0  0  0  0  0  0  0  0  0  0  0
   48.1900   34.6720   40.2530 C   0  0  0  0  0  0  0  0  0  0  0  0
   48.5940   35.4330   41.4700 C   0  0  0  0  0  0  0  0  0  0  0  0
   48.4420   34.6530   42.7440 C   0  0  0  0  0  0  0  0  0  0  0  0
   47.1080   33.1020   44.0110 C   0  0  0  0  0  0  0  0  0  0  0  0
   47.6360   31.8260   43.6840 C   0  0  0  0  0  0  0  0  0  0  0  0
   47.7330   30.8440   44.6730 C   0  0  0  0  0  0  0  0  0  0  0  0
   47.2950   31.2030   45.9320 N   0  0  0  0  0  0  0  0  0  0  0  0
   46.7990   32.4130   46.2210 C   0  0  0  0  0  0  0  0  0  0  0  0
   46.7060   33.3620   45.2580 N   0  0  0  0  0  0  0  0  0  0  0  0
   45.3660   35.9300   43.1320 Cl  0  0  0  0  0  0  0  0  0  0  0  0
   44.5990   35.1690   41.7500 C   0  0  0  0  0  0  0  0  0  0  0  0
   45.2220   34.0440   41.1850 C   0  0  0  0  0  0  0  0  0  0  0  0
   44.4860   33.5750   40.1110 C   0  0  0  0  0  0  0  0  0  0  0  0
   43.3220   34.1030   39.6440 C   0  0  0  0  0  0  0  0  0  0  0  0
   42.7810   35.2000   40.2510 C   0  0  0  0  0  0  0  0  0  0  0  0
   43.4250   35.7510   41.3260 C   0  0  0  0  0  0  0  0  0  0  0  0
   46.3458   34.9078   43.1491 H   0  0  0  0  0  0  0  0  0  0  0  0
   46.2532   32.4704   41.9997 H   0  0  0  0  0  0  0  0  0  0  0  0
   48.2484   32.6349   40.8701 H   0  0  0  0  0  0  0  0  0  0  0  0
   46.9392   33.0737   39.6717 H   0  0  0  0  0  0  0  0  0  0  0  0
   49.0918   34.4471   39.6646 H   0  0  0  0  0  0  0  0  0  0  0  0
   47.4805   35.2989   39.6930 H   0  0  0  0  0  0  0  0  0  0  0  0
   49.6496   35.7238   41.3640 H   0  0  0  0  0  0  0  0  0  0  0  0
   47.9258   36.3037   41.5429 H   0  0  0  0  0  0  0  0  0  0  0  0
   49.1596   33.8193   42.7362 H   0  0  0  0  0  0  0  0  0  0  0  0
   48.6319   35.3384   43.5831 H   0  0  0  0  0  0  0  0  0  0  0  0
   47.9672   31.6112   42.6572 H   0  0  0  0  0  0  0  0  0  0  0  0
   48.1352   29.8424   44.4607 H   0  0  0  0  0  0  0  0  0  0  0  0
   46.4655   32.6376   47.2449 H   0  0  0  0  0  0  0  0  0  0  0  0
   44.8789   32.6922   39.5853 H   0  0  0  0  0  0  0  0  0  0  0  0
   42.8179   33.6470   38.7792 H   0  0  0  0  0  0  0  0  0  0  0  0
   41.8407   35.6349   39.8813 H   0  0  0  0  0  0  0  0  0  0  0  0
   43.0158   36.6348   41.8374 H   0  0  0  0  0  0  0  0  0  0  0  0
  1  7  1  0
  2  1  1  0
  3  2  1  0
  4  3  1  0
  4  5  1  0
  5  6  1  0
  6  1  1  0
  7 12  1  0
  8  7  2  0
  8  9  1  0
  9 10  2  0
 10 11  1  0
 12 11  2  0
 14 13  1  0
 15  2  1  0
 15 14  2  0
 16 15  1  0
 17 16  2  0
 17 18  1  0
 18 19  2  0
 19 14  1  0
  1 20  1  1
  2 21  1  1
  3 22  1  0
  3 23  1  0
  4 24  1  0
  4 25  1  0
  5 26  1  0
  5 27  1  0
  6 28  1  0
  6 29  1  0
  8 30  1  0
  9 31  1  0
 11 32  1  0
 16 33  1  0
 17 34  1  0
 18 35  1  0
 19 36  1  0
M  ISO  8  20  13  21  13  22  13  23  13  24  13  25  13  26  13  27  13
M  ISO  8  28  13  29  13  30  14  31  14  32  14  33  14  34  14  35  14
M  ISO  1  36  14
M  END
>  <minimizedAffinity>  (1) 
-5.5693078

>  <minimizedRMSD>  (1) 
3.64598894

$$$$
