
     RDKit          3D

 33 35  0  0  0  0  0  0  0  0999 V2000
   44.5720   31.8300   42.3270 Br  0  0  0  0  0  0  0  0  0  0  0  0
   43.4460   33.1990   41.5490 C   0  0  0  0  0  0  0  0  0  0  0  0
   42.1110   32.8940   41.4930 C   0  0  0  0  0  0  0  0  0  0  0  0
   41.3160   33.8960   40.9270 C   0  0  0  0  0  0  0  0  0  0  0  0
   41.8180   35.0920   40.4630 C   0  0  0  0  0  0  0  0  0  0  0  0
   43.1690   35.3180   40.5570 C   0  0  0  0  0  0  0  0  0  0  0  0
   44.0120   34.3760   41.1020 C   0  0  0  0  0  0  0  0  0  0  0  0
   45.0320   35.6880   43.6300 Cl  0  0  0  0  0  0  0  0  0  0  0  0
   46.0570   35.0890   42.3490 C   0  0  0  0  0  0  0  0  0  0  0  0
   45.4680   34.5130   41.2520 C   0  0  0  0  0  0  0  0  0  0  0  0
   46.2140   34.0140   40.1960 C   0  0  0  0  0  0  0  0  0  0  0  0
   47.6030   34.1010   40.2520 C   0  0  0  0  0  0  0  0  0  0  0  0
   48.2090   34.6850   41.3650 C   0  0  0  0  0  0  0  0  0  0  0  0
   47.4420   35.1670   42.3890 C   0  0  0  0  0  0  0  0  0  0  0  0
   41.4480   31.6620   41.9490 C   0  0  0  0  0  0  0  0  0  0  0  0
   39.4300   30.3550   39.1000 C   0  0  0  0  0  0  0  0  0  0  0  0
   38.1230   30.5200   39.5670 C   0  0  0  0  0  0  0  0  0  0  0  0
   37.9610   31.0670   40.8230 C   0  0  0  0  0  0  0  0  0  0  0  0
   39.0540   31.4190   41.5530 N   0  0  0  0  0  0  0  0  0  0  0  0
   40.3240   31.2400   41.0610 C   0  0  0  0  0  0  0  0  0  0  0  0
   40.4720   30.7120   39.8450 N   0  0  0  0  0  0  0  0  0  0  0  0
   40.2331   33.7197   40.8482 H   0  0  0  0  0  0  0  0  0  0  0  0
   41.1507   35.8498   40.0265 H   0  0  0  0  0  0  0  0  0  0  0  0
   43.5849   36.2681   40.1905 H   0  0  0  0  0  0  0  0  0  0  0  0
   45.7172   33.5566   39.3277 H   0  0  0  0  0  0  0  0  0  0  0  0
   48.2169   33.7127   39.4260 H   0  0  0  0  0  0  0  0  0  0  0  0
   49.3053   34.7577   41.4186 H   0  0  0  0  0  0  0  0  0  0  0  0
   47.9318   35.6252   43.2609 H   0  0  0  0  0  0  0  0  0  0  0  0
   42.1933   30.8535   41.9789 H   0  0  0  0  0  0  0  0  0  0  0  0
   41.0228   31.8662   42.9427 H   0  0  0  0  0  0  0  0  0  0  0  0
   39.5990   29.9238   38.1023 H   0  0  0  0  0  0  0  0  0  0  0  0
   37.2568   30.2250   38.9565 H   0  0  0  0  0  0  0  0  0  0  0  0
   36.9515   31.2181   41.2330 H   0  0  0  0  0  0  0  0  0  0  0  0
  2  1  1  0
  3  2  2  0
  3 15  1  0
  4  3  1  0
  5  6  1  0
  5  4  2  0
  6  7  2  0
  7 10  1  0
  7  2  1  0
  9 14  2  0
  9  8  1  0
 10  9  1  0
 11 12  1  0
 11 10  2  0
 12 13  2  0
 13 14  1  0
 16 17  2  0
 16 21  1  0
 17 18  1  0
 18 19  2  0
 20 19  1  0
 20 15  1  0
 21 20  2  0
  4 22  1  0
  5 23  1  0
  6 24  1  0
 11 25  1  0
 12 26  1  0
 13 27  1  0
 14 28  1  0
 15 29  1  0
 15 30  1  0
 16 31  1  0
 17 32  1  0
 18 33  1  0
M  ISO  8  22  14  23  14  24  14  25  14  26  14  27  14  28  14  29   8
M  ISO  4  30   8  31  14  32  14  33  14
M  END
>  <minimizedAffinity>  (1) 
-5.24022913

>  <minimizedRMSD>  (1) 
8.88821507

$$$$
