
     RDKit          3D

 30 32  0  0  0  0  0  0  0  0999 V2000
   44.5590   33.1240   41.1760 Br  0  0  0  0  0  0  0  0  0  0  0  0
   46.2690   33.9790   40.9910 C   0  0  0  0  0  0  0  0  0  0  0  0
   46.8260   34.7610   41.9760 C   0  0  0  0  0  0  0  0  0  0  0  0
   48.0560   35.3240   41.7330 C   0  0  0  0  0  0  0  0  0  0  0  0
   48.7430   35.1330   40.5490 C   0  0  0  0  0  0  0  0  0  0  0  0
   48.1880   34.3450   39.5490 C   0  0  0  0  0  0  0  0  0  0  0  0
   46.9580   33.7870   39.8010 C   0  0  0  0  0  0  0  0  0  0  0  0
   44.4720   36.1420   44.5970 C   0  0  0  0  0  0  0  0  0  0  0  0
   45.1960   36.0020   43.4040 C   0  0  0  0  0  0  0  0  0  0  0  0
   46.0570   34.9320   43.2110 C   0  0  0  0  0  0  0  0  0  0  0  0
   46.1590   34.0310   44.2320 N   0  0  0  0  0  0  0  0  0  0  0  0
   45.4490   34.1890   45.3720 C   0  0  0  0  0  0  0  0  0  0  0  0
   44.6180   35.2290   45.5520 N   0  0  0  0  0  0  0  0  0  0  0  0
   48.1000   34.6380   37.2320 Cl  0  0  0  0  0  0  0  0  0  0  0  0
   46.9390   33.3360   37.4650 C   0  0  0  0  0  0  0  0  0  0  0  0
   46.4240   32.9680   38.7130 C   0  0  0  0  0  0  0  0  0  0  0  0
   45.5160   31.9330   38.8090 C   0  0  0  0  0  0  0  0  0  0  0  0
   45.1380   31.2850   37.6660 C   0  0  0  0  0  0  0  0  0  0  0  0
   45.6280   31.6240   36.4210 C   0  0  0  0  0  0  0  0  0  0  0  0
   46.5470   32.6670   36.3000 C   0  0  0  0  0  0  0  0  0  0  0  0
   48.5122   35.9521   42.5124 H   0  0  0  0  0  0  0  0  0  0  0  0
   49.7260   35.6035   40.3992 H   0  0  0  0  0  0  0  0  0  0  0  0
   48.7107   34.1749   38.5962 H   0  0  0  0  0  0  0  0  0  0  0  0
   43.7929   36.9954   44.7404 H   0  0  0  0  0  0  0  0  0  0  0  0
   45.0791   36.7529   42.6087 H   0  0  0  0  0  0  0  0  0  0  0  0
   45.5550   33.4446   46.1749 H   0  0  0  0  0  0  0  0  0  0  0  0
   45.1049   31.6356   39.7850 H   0  0  0  0  0  0  0  0  0  0  0  0
   44.4142   30.4602   37.7417 H   0  0  0  0  0  0  0  0  0  0  0  0
   45.2955   31.0744   35.5281 H   0  0  0  0  0  0  0  0  0  0  0  0
   46.9512   32.9548   35.3183 H   0  0  0  0  0  0  0  0  0  0  0  0
  2  1  1  0
  2  3  2  0
  3 10  1  0
  4  3  1  0
  5  4  2  0
  6  7  2  0
  6  5  1  0
  7  2  1  0
  8 13  2  0
  9  8  1  0
 10  9  2  0
 10 11  1  0
 11 12  2  0
 12 13  1  0
 14 15  1  0
 15 16  2  0
 16 17  1  0
 16  7  1  0
 18 17  2  0
 19 18  1  0
 20 19  2  0
 20 15  1  0
  4 21  1  0
  5 22  1  0
  6 23  1  0
  8 24  1  0
  9 25  1  0
 12 26  1  0
 17 27  1  0
 18 28  1  0
 19 29  1  0
 20 30  1  0
M  ISO  8  21  14  22  14  23  14  24  14  25  14  26  14  27  14  28  14
M  ISO  2  29  14  30  14
M  END
>  <minimizedAffinity>  (1) 
-6.09271574

>  <minimizedRMSD>  (1) 
0.236497581

$$$$
