
     RDKit          3D

 39 42  0  0  0  0  0  0  0  0999 V2000
   44.5230   31.8080   42.8810 Cl  0  0  0  0  0  0  0  0  0  0  0  0
   44.5760   33.5690   42.7750 C   0  0  0  0  0  0  0  0  0  0  0  0
   45.4350   34.1970   43.7010 C   0  0  0  0  0  0  0  0  0  0  0  0
   45.4020   35.5730   43.5330 C   0  0  0  0  0  0  0  0  0  0  0  0
   44.7090   36.3200   42.6630 C   0  0  0  0  0  0  0  0  0  0  0  0
   43.9020   35.6310   41.8010 C   0  0  0  0  0  0  0  0  0  0  0  0
   43.8250   34.2820   41.8430 C   0  0  0  0  0  0  0  0  0  0  0  0
   45.2660   33.3250   39.4330 Cl  0  0  0  0  0  0  0  0  0  0  0  0
   43.5920   32.9380   39.8280 C   0  0  0  0  0  0  0  0  0  0  0  0
   42.9920   33.4210   40.9680 C   0  0  0  0  0  0  0  0  0  0  0  0
   41.6850   33.1080   41.2590 C   0  0  0  0  0  0  0  0  0  0  0  0
   40.9900   32.2970   40.3780 C   0  0  0  0  0  0  0  0  0  0  0  0
   41.6240   31.8240   39.2340 C   0  0  0  0  0  0  0  0  0  0  0  0
   42.9290   32.1250   38.9260 C   0  0  0  0  0  0  0  0  0  0  0  0
   46.2880   33.5330   44.7210 C   0  0  0  0  0  0  0  0  0  0  0  0
   45.7050   33.9100   45.7080 O   0  0  0  0  0  0  0  0  0  0  0  0
   47.3540   32.7920   44.0340 C   0  0  0  0  0  0  0  0  0  0  0  0
   48.2050   33.2830   43.1220 C   0  0  0  0  0  0  0  0  0  0  0  0
   49.0440   32.3530   42.5550 C   0  0  0  0  0  0  0  0  0  0  0  0
   48.9460   31.0110   42.9710 N   0  0  0  0  0  0  0  0  0  0  0  0
   48.0860   30.6050   43.8750 C   0  0  0  0  0  0  0  0  0  0  0  0
   47.2280   31.5090   44.4610 N   0  0  0  0  0  0  0  0  0  0  0  0
   48.3880   34.6550   42.7880 C   0  0  0  0  0  0  0  0  0  0  0  0
   49.4110   35.2310   42.1040 C   0  0  0  0  0  0  0  0  0  0  0  0
   48.1760   35.0520   41.2650 C   0  0  0  0  0  0  0  0  0  0  0  0
   46.0455   36.1400   44.2218 H   0  0  0  0  0  0  0  0  0  0  0  0
   44.7845   37.4172   42.6436 H   0  0  0  0  0  0  0  0  0  0  0  0
   43.3051   36.1838   41.0606 H   0  0  0  0  0  0  0  0  0  0  0  0
   41.2032   33.4928   42.1699 H   0  0  0  0  0  0  0  0  0  0  0  0
   39.9429   32.0284   40.5816 H   0  0  0  0  0  0  0  0  0  0  0  0
   41.0560   31.1809   38.5457 H   0  0  0  0  0  0  0  0  0  0  0  0
   43.4169   31.7427   38.0173 H   0  0  0  0  0  0  0  0  0  0  0  0
   49.7775   32.6512   41.7914 H   0  0  0  0  0  0  0  0  0  0  0  0
   48.0504   29.5443   44.1643 H   0  0  0  0  0  0  0  0  0  0  0  0
   47.9891   34.8904   43.7857 H   0  0  0  0  0  0  0  0  0  0  0  0
   49.7222   36.2502   42.3767 H   0  0  0  0  0  0  0  0  0  0  0  0
   50.4548   34.9209   41.9477 H   0  0  0  0  0  0  0  0  0  0  0  0
   47.5497   35.9105   40.9809 H   0  0  0  0  0  0  0  0  0  0  0  0
   47.8872   34.5653   40.3218 H   0  0  0  0  0  0  0  0  0  0  0  0
  2  1  1  0
  2  3  2  0
  3 15  1  0
  4  3  1  0
  5  4  2  0
  6  7  2  0
  6  5  1  0
  7  2  1  0
  8  9  1  0
  9 10  2  0
 10 11  1  0
 10  7  1  0
 12 11  2  0
 13 12  1  0
 14 13  2  0
 14  9  1  0
 15 16  2  0
 17 22  1  0
 17 15  1  0
 18 17  2  0
 19 20  2  0
 19 18  1  0
 20 21  1  0
 21 22  2  0
 23 18  1  0
 24 23  1  0
 25 24  1  0
 25 23  1  0
  4 26  1  0
  5 27  1  0
  6 28  1  0
 11 29  1  0
 12 30  1  0
 13 31  1  0
 14 32  1  0
 19 33  1  0
 21 34  1  0
 23 35  1  0
 24 36  1  0
 24 37  1  0
 25 38  1  0
 25 39  1  0
M  ISO  8  26  14  27  14  28  14  29  14  30  14  31  14  32  14  33  14
M  ISO  6  34  14  35  13  36  13  37  13  38  13  39  13
M  END
>  <minimizedAffinity>  (1) 
-5.63432217

>  <minimizedRMSD>  (1) 
0.941256166

$$$$
