
     RDKit          3D

 40 42  0  0  0  0  0  0  0  0999 V2000
   44.5770   35.5180   44.9590 C   0  0  0  0  0  0  0  0  0  0  0  0
   45.1720   35.5360   43.6790 C   0  0  0  0  0  0  0  0  0  0  0  0
   46.1530   34.6000   43.4180 C   0  0  0  0  0  0  0  0  0  0  0  0
   46.4910   33.7040   44.4160 N   0  0  0  0  0  0  0  0  0  0  0  0
   45.8980   33.7260   45.6090 C   0  0  0  0  0  0  0  0  0  0  0  0
   44.9350   34.6270   45.9040 N   0  0  0  0  0  0  0  0  0  0  0  0
   46.7680   34.5990   42.1350 N   0  0  0  0  0  0  0  0  0  0  0  0
   47.9610   35.2150   41.9960 C   0  0  0  0  0  0  0  0  0  0  0  0
   48.5570   35.2090   40.7370 C   0  0  0  0  0  0  0  0  0  0  0  0
   47.9210   34.5920   39.7090 C   0  0  0  0  0  0  0  0  0  0  0  0
   48.4780   34.5980   38.5740 O   0  0  0  0  0  0  0  0  0  0  0  0
   46.7370   33.9790   39.8410 N   0  0  0  0  0  0  0  0  0  0  0  0
   46.1840   34.0010   41.0740 C   0  0  0  0  0  0  0  0  0  0  0  0
   45.0810   33.4570   41.2970 O   0  0  0  0  0  0  0  0  0  0  0  0
   46.4550   32.6540   46.4890 C   0  0  0  0  0  0  0  0  0  0  0  0
   45.5040   32.3580   47.6390 C   0  0  0  0  0  0  0  0  0  0  0  0
   45.5050   29.8960   47.6230 C   0  0  0  0  0  0  0  0  0  0  0  0
   46.6550   30.0090   48.1220 O   0  0  0  0  0  0  0  0  0  0  0  0
   44.8380   31.1060   47.3600 N   0  0  0  0  0  0  0  0  0  0  0  0
   44.6090   29.3420   44.7660 Cl  0  0  0  0  0  0  0  0  0  0  0  0
   44.4340   28.2030   46.0930 C   0  0  0  0  0  0  0  0  0  0  0  0
   44.8880   28.6000   47.3310 C   0  0  0  0  0  0  0  0  0  0  0  0
   44.7720   27.7320   48.4110 C   0  0  0  0  0  0  0  0  0  0  0  0
   44.2070   26.4790   48.2660 C   0  0  0  0  0  0  0  0  0  0  0  0
   43.7530   26.0960   47.0090 C   0  0  0  0  0  0  0  0  0  0  0  0
   43.8610   26.9500   45.9140 C   0  0  0  0  0  0  0  0  0  0  0  0
   43.7953   36.2558   45.1925 H   0  0  0  0  0  0  0  0  0  0  0  0
   44.8655   36.2685   42.9178 H   0  0  0  0  0  0  0  0  0  0  0  0
   48.4478   35.7068   42.8511 H   0  0  0  0  0  0  0  0  0  0  0  0
   49.5297   35.6976   40.5782 H   0  0  0  0  0  0  0  0  0  0  0  0
   46.2735   33.5162   39.0461 H   0  0  0  0  0  0  0  0  0  0  0  0
   46.6012   31.7391   45.8961 H   0  0  0  0  0  0  0  0  0  0  0  0
   47.4151   32.9971   46.9019 H   0  0  0  0  0  0  0  0  0  0  0  0
   46.0693   32.2782   48.5792 H   0  0  0  0  0  0  0  0  0  0  0  0
   44.7663   33.1675   47.7415 H   0  0  0  0  0  0  0  0  0  0  0  0
   43.8838   31.0999   46.9722 H   0  0  0  0  0  0  0  0  0  0  0  0
   45.1367   28.0485   49.3993 H   0  0  0  0  0  0  0  0  0  0  0  0
   44.1185   25.7995   49.1265 H   0  0  0  0  0  0  0  0  0  0  0  0
   43.3009   25.1019   46.8770 H   0  0  0  0  0  0  0  0  0  0  0  0
   43.4985   26.6375   44.9236 H   0  0  0  0  0  0  0  0  0  0  0  0
  1  6  2  0
  2  1  1  0
  3  2  2  0
  3  4  1  0
  4  5  2  0
  5  6  1  0
  5 15  1  0
  7  3  1  0
  8  7  1  0
  9  8  2  0
 10 12  1  0
 10  9  1  0
 11 10  2  0
 12 13  1  0
 13 14  2  0
 13  7  1  0
 15 16  1  0
 17 18  2  0
 19 17  1  0
 19 16  1  0
 20 21  1  0
 21 22  2  0
 22 17  1  0
 22 23  1  0
 24 23  2  0
 25 24  1  0
 26 21  1  0
 26 25  2  0
  1 27  1  0
  2 28  1  0
  8 29  1  0
  9 30  1  0
 12 31  1  0
 15 32  1  0
 15 33  1  0
 16 34  1  0
 16 35  1  0
 19 36  1  0
 23 37  1  0
 24 38  1  0
 25 39  1  0
 26 40  1  0
M  ISO  8  27  14  28  14  29  14  30  14  31   9  32   8  33   8  34   8
M  ISO  5  35   8  37  14  38  14  39  14  40  14
M  END
>  <minimizedAffinity>  (1) 
-6.55333376

>  <minimizedRMSD>  (1) 
1.32794476

$$$$
