
     RDKit          3D

 26 27  0  0  0  0  0  0  0  0999 V2000
   42.5810   34.3620   40.6640 C   0  0  0  0  0  0  0  0  0  0  0  0
   42.9090   33.3620   41.3920 O   0  0  0  0  0  0  0  0  0  0  0  0
   43.5310   35.4220   40.7340 N   0  0  0  0  0  0  0  0  0  0  0  0
   39.9390   33.9560   42.1240 Cl  0  0  0  0  0  0  0  0  0  0  0  0
   40.1350   34.2660   40.4320 C   0  0  0  0  0  0  0  0  0  0  0  0
   41.3810   34.4390   39.8470 C   0  0  0  0  0  0  0  0  0  0  0  0
   41.5110   34.6860   38.4950 C   0  0  0  0  0  0  0  0  0  0  0  0
   40.3540   34.7600   37.7110 C   0  0  0  0  0  0  0  0  0  0  0  0
   39.0950   34.5860   38.2920 C   0  0  0  0  0  0  0  0  0  0  0  0
   38.9890   34.3390   39.6590 C   0  0  0  0  0  0  0  0  0  0  0  0
   44.5980   35.0380   41.6390 C   0  0  0  0  0  0  0  0  0  0  0  0
   44.5900   35.2030   43.0080 C   0  0  0  0  0  0  0  0  0  0  0  0
   45.7150   34.7650   43.7020 C   0  0  0  0  0  0  0  0  0  0  0  0
   46.7160   34.2200   42.9870 N   0  0  0  0  0  0  0  0  0  0  0  0
   46.6970   34.0720   41.6580 C   0  0  0  0  0  0  0  0  0  0  0  0
   45.6270   34.4820   40.9500 N   0  0  0  0  0  0  0  0  0  0  0  0
   43.4350   35.7990   43.5570 N   0  0  0  0  0  0  0  0  0  0  0  0
   43.4700   36.3153   40.2249 H   0  0  0  0  0  0  0  0  0  0  0  0
   42.5045   34.8220   38.0428 H   0  0  0  0  0  0  0  0  0  0  0  0
   40.4361   34.9562   36.6317 H   0  0  0  0  0  0  0  0  0  0  0  0
   38.1890   34.6440   37.6709 H   0  0  0  0  0  0  0  0  0  0  0  0
   38.0003   34.2028   40.1214 H   0  0  0  0  0  0  0  0  0  0  0  0
   45.7829   34.8611   44.7957 H   0  0  0  0  0  0  0  0  0  0  0  0
   47.5552   33.6155   41.1431 H   0  0  0  0  0  0  0  0  0  0  0  0
   43.3671   35.9500   44.5736 H   0  0  0  0  0  0  0  0  0  0  0  0
   42.6598   36.0830   42.9412 H   0  0  0  0  0  0  0  0  0  0  0  0
  1  3  1  0
  1  2  2  0
  3 11  1  0
  5  4  1  0
  6  5  2  0
  6  1  1  0
  7  6  1  0
  8  9  1  0
  8  7  2  0
  9 10  2  0
 10  5  1  0
 11 12  2  0
 12 17  1  0
 12 13  1  0
 14 13  2  0
 15 14  1  0
 16 11  1  0
 16 15  2  0
  3 18  1  0
  7 19  1  0
  8 20  1  0
  9 21  1  0
 10 22  1  0
 13 23  1  0
 15 24  1  0
 17 25  1  0
 17 26  1  0
M  ISO  6  19  14  20  14  21  14  22  14  23  14  24  14
M  END
>  <minimizedAffinity>  (1) 
-5.66865587

>  <minimizedRMSD>  (1) 
4.09221125

$$$$
