
     RDKit          3D

 31 33  0  0  0  0  0  0  0  0999 V2000
   45.2420   36.1990   43.5140 C   0  0  0  0  0  0  0  0  0  0  0  0
   45.8540   34.9790   43.1530 C   0  0  0  0  0  0  0  0  0  0  0  0
   45.8090   33.9330   44.0670 C   0  0  0  0  0  0  0  0  0  0  0  0
   45.1980   34.1060   45.2470 N   0  0  0  0  0  0  0  0  0  0  0  0
   44.6050   35.3020   45.5850 C   0  0  0  0  0  0  0  0  0  0  0  0
   44.6420   36.3060   44.7210 N   0  0  0  0  0  0  0  0  0  0  0  0
   46.4390   32.6760   43.6960 C   0  0  0  0  0  0  0  0  0  0  0  0
   45.6680   31.6160   43.2760 C   0  0  0  0  0  0  0  0  0  0  0  0
   46.3030   30.4420   42.9350 C   0  0  0  0  0  0  0  0  0  0  0  0
   47.6850   30.2610   42.9910 C   0  0  0  0  0  0  0  0  0  0  0  0
   48.3930   31.3640   43.4230 C   0  0  0  0  0  0  0  0  0  0  0  0
   47.7590   32.5080   43.7530 N   0  0  0  0  0  0  0  0  0  0  0  0
   46.4840   34.8690   41.8850 C   0  0  0  0  0  0  0  0  0  0  0  0
   47.5970   35.4580   41.7160 O   0  0  0  0  0  0  0  0  0  0  0  0
   43.4970   34.6010   41.3730 Cl  0  0  0  0  0  0  0  0  0  0  0  0
   44.7210   33.9410   40.3140 C   0  0  0  0  0  0  0  0  0  0  0  0
   46.0290   34.1550   40.6970 C   0  0  0  0  0  0  0  0  0  0  0  0
   47.0580   33.6520   39.8940 C   0  0  0  0  0  0  0  0  0  0  0  0
   46.7550   32.9530   38.7370 C   0  0  0  0  0  0  0  0  0  0  0  0
   45.4270   32.7410   38.3560 C   0  0  0  0  0  0  0  0  0  0  0  0
   44.4200   33.2450   39.1610 C   0  0  0  0  0  0  0  0  0  0  0  0
   45.2532   37.0531   42.8209 H   0  0  0  0  0  0  0  0  0  0  0  0
   44.1075   35.4222   46.5587 H   0  0  0  0  0  0  0  0  0  0  0  0
   44.5733   31.7040   43.2142 H   0  0  0  0  0  0  0  0  0  0  0  0
   45.6837   29.5974   42.5987 H   0  0  0  0  0  0  0  0  0  0  0  0
   48.1717   29.3145   42.7130 H   0  0  0  0  0  0  0  0  0  0  0  0
   49.4890   31.3096   43.4993 H   0  0  0  0  0  0  0  0  0  0  0  0
   48.1078   33.8115   40.1812 H   0  0  0  0  0  0  0  0  0  0  0  0
   47.5693   32.5601   38.1106 H   0  0  0  0  0  0  0  0  0  0  0  0
   45.1875   32.1860   37.4370 H   0  0  0  0  0  0  0  0  0  0  0  0
   43.3684   33.0890   38.8786 H   0  0  0  0  0  0  0  0  0  0  0  0
  1  6  2  0
  2  1  1  0
  2  3  2  0
  3  4  1  0
  4  5  2  0
  6  5  1  0
  7 12  1  0
  7  3  1  0
  8  7  2  0
  9 10  2  0
  9  8  1  0
 10 11  1  0
 11 12  2  0
 13  2  1  0
 14 13  2  0
 16 17  2  0
 16 15  1  0
 17 13  1  0
 18 17  1  0
 19 18  2  0
 20 19  1  0
 20 21  2  0
 21 16  1  0
  1 22  1  0
  5 23  1  0
  8 24  1  0
  9 25  1  0
 10 26  1  0
 11 27  1  0
 18 28  1  0
 19 29  1  0
 20 30  1  0
 21 31  1  0
M  ISO  8  22  14  23  14  24  14  25  14  26  14  27  14  28  14  29  14
M  ISO  2  30  14  31  14
M  END
>  <minimizedAffinity>  (1) 
-4.70506096

>  <minimizedRMSD>  (1) 
0.288720101

$$$$
