
     RDKit          3D

 46 49  0  0  1  0  0  0  0  0999 V2000
   44.5530   35.3620   45.2770 C   0  0  0  0  0  0  0  0  0  0  0  0
   45.1690   35.3790   44.0160 C   0  0  0  0  0  0  0  0  0  0  0  0
   46.0640   34.4120   43.7060 C   0  0  0  0  0  0  0  0  0  0  0  0
   46.3110   33.4730   44.6500 N   0  0  0  0  0  0  0  0  0  0  0  0
   45.7270   33.4610   45.8400 C   0  0  0  0  0  0  0  0  0  0  0  0
   44.8440   34.4000   46.1690 N   0  0  0  0  0  0  0  0  0  0  0  0
   46.0690   32.4200   46.7690 N   0  0  0  0  0  0  0  0  0  0  0  0
   45.3610   32.1490   47.9650 C   0  0  0  0  0  0  0  0  0  0  0  0
   46.4600   31.7540   48.9370 C   0  0  0  0  0  0  0  0  0  0  0  0
   47.7160   31.6590   48.1310 C   0  0  0  0  0  0  0  0  0  0  0  0
   47.1790   31.4910   46.7090 C   0  0  1  0  0  0  0  0  0  0  0  0
   44.8060   36.4420   43.1190 N   0  0  0  0  0  0  0  0  0  0  0  0
   46.6360   29.8140   46.4890 S   0  0  0  0  0  0  0  0  0  0  0  0
   45.2060   30.4710   43.5470 O   0  0  0  0  0  0  0  0  0  0  0  0
   44.7040   29.8790   44.5160 C   0  0  0  0  0  0  0  0  0  0  0  0
   45.0010   29.5730   45.9320 C   0  0  1  0  0  0  0  0  0  0  0  0
   44.4740   28.1640   46.0610 C   0  0  0  0  0  0  0  0  0  0  0  0
   43.0720   28.4140   45.5010 C   0  0  0  0  0  0  0  0  0  0  0  0
   43.4250   29.2420   44.3530 N   0  0  0  0  0  0  0  0  0  0  0  0
   40.6840   29.5680   45.3140 Cl  0  0  0  0  0  0  0  0  0  0  0  0
   41.1790   29.4930   43.6340 C   0  0  0  0  0  0  0  0  0  0  0  0
   42.5120   29.3350   43.2360 C   0  0  0  0  0  0  0  0  0  0  0  0
   42.8780   29.2780   41.9080 C   0  0  0  0  0  0  0  0  0  0  0  0
   41.8730   29.3840   40.9480 C   0  0  0  0  0  0  0  0  0  0  0  0
   40.5520   29.5410   41.3370 C   0  0  0  0  0  0  0  0  0  0  0  0
   40.1880   29.5960   42.6660 C   0  0  0  0  0  0  0  0  0  0  0  0
   43.8247   36.1440   45.5378 H   0  0  0  0  0  0  0  0  0  0  0  0
   46.5691   34.3898   42.7291 H   0  0  0  0  0  0  0  0  0  0  0  0
   44.8252   33.0427   48.3174 H   0  0  0  0  0  0  0  0  0  0  0  0
   44.5919   31.3719   47.8444 H   0  0  0  0  0  0  0  0  0  0  0  0
   46.5674   32.5173   49.7217 H   0  0  0  0  0  0  0  0  0  0  0  0
   46.2306   30.8005   49.4353 H   0  0  0  0  0  0  0  0  0  0  0  0
   48.3189   32.5744   48.2236 H   0  0  0  0  0  0  0  0  0  0  0  0
   48.3828   30.8440   48.4491 H   0  0  0  0  0  0  0  0  0  0  0  0
   47.8812   31.6790   45.8834 H   0  0  0  0  0  0  0  0  0  0  0  0
   45.2329   36.4944   42.1831 H   0  0  0  0  0  0  0  0  0  0  0  0
   44.1190   37.1512   43.4122 H   0  0  0  0  0  0  0  0  0  0  0  0
   44.5248   30.2955   46.6111 H   0  0  0  0  0  0  0  0  0  0  0  0
   45.0450   27.4474   45.4523 H   0  0  0  0  0  0  0  0  0  0  0  0
   44.5221   27.7189   47.0658 H   0  0  0  0  0  0  0  0  0  0  0  0
   42.5769   27.4796   45.1981 H   0  0  0  0  0  0  0  0  0  0  0  0
   42.3564   28.8640   46.2048 H   0  0  0  0  0  0  0  0  0  0  0  0
   43.9308   29.1527   41.6150 H   0  0  0  0  0  0  0  0  0  0  0  0
   42.1289   29.3429   39.8790 H   0  0  0  0  0  0  0  0  0  0  0  0
   39.7730   29.6240   40.5649 H   0  0  0  0  0  0  0  0  0  0  0  0
   39.1335   29.7190   42.9539 H   0  0  0  0  0  0  0  0  0  0  0  0
  1  6  2  0
  2  1  1  0
  3  2  2  0
  3  4  1  0
  4  5  2  0
  5  6  1  0
  5  7  1  0
  7  8  1  0
  8  9  1  0
 10  9  1  0
 11  7  1  0
 11 10  1  0
 12  2  1  0
 13 11  1  0
 14 15  2  0
 15 16  1  0
 16 17  1  0
 16 13  1  0
 18 17  1  0
 19 15  1  0
 19 18  1  0
 21 20  1  0
 22 21  2  0
 22 19  1  0
 23 22  1  0
 24 25  1  0
 24 23  2  0
 25 26  2  0
 26 21  1  0
  1 27  1  0
  3 28  1  0
  8 29  1  0
  8 30  1  0
  9 31  1  0
  9 32  1  0
 10 33  1  0
 10 34  1  0
 11 35  1  6
 12 36  1  0
 12 37  1  0
 16 38  1  1
 17 39  1  0
 17 40  1  0
 18 41  1  0
 18 42  1  0
 23 43  1  0
 24 44  1  0
 25 45  1  0
 26 46  1  0
M  ISO  8  27  14  28  14  29  13  30  13  31  13  32  13  33  13  34  13
M  ISO  8  35  13  38  13  39  13  40  13  41  13  42  13  43  14  44  14
M  ISO  2  45  14  46  14
M  END
>  <minimizedAffinity>  (1) 
-5.5819273

>  <minimizedRMSD>  (1) 
0.477395028

$$$$
