
     RDKit          3D

 21 22  0  0  0  0  0  0  0  0999 V2000
   45.3880   32.8540   47.5600 S   0  0  0  0  0  0  0  0  0  0  0  0
   45.1860   35.1690   44.2600 C   0  0  0  0  0  0  0  0  0  0  0  0
   46.2480   34.6150   43.4810 C   0  0  0  0  0  0  0  0  0  0  0  0
   46.9620   33.5550   44.0310 C   0  0  0  0  0  0  0  0  0  0  0  0
   46.6290   33.0970   45.2620 N   0  0  0  0  0  0  0  0  0  0  0  0
   45.6050   33.6470   45.9860 C   0  0  0  0  0  0  0  0  0  0  0  0
   44.9020   34.6720   45.4730 N   0  0  0  0  0  0  0  0  0  0  0  0
   45.0700   29.8320   46.7790 Cl  0  0  0  0  0  0  0  0  0  0  0  0
   46.5380   30.4170   47.5570 C   0  0  0  0  0  0  0  0  0  0  0  0
   46.7330   31.7350   47.9220 C   0  0  0  0  0  0  0  0  0  0  0  0
   47.9250   32.0780   48.5260 C   0  0  0  0  0  0  0  0  0  0  0  0
   48.9070   31.1400   48.7650 C   0  0  0  0  0  0  0  0  0  0  0  0
   48.6870   29.8120   48.3870 C   0  0  0  0  0  0  0  0  0  0  0  0
   47.4900   29.4300   47.7730 C   0  0  0  0  0  0  0  0  0  0  0  0
   44.5973   36.0088   43.8622 H   0  0  0  0  0  0  0  0  0  0  0  0
   46.4918   35.0115   42.4843 H   0  0  0  0  0  0  0  0  0  0  0  0
   47.7890   33.0931   43.4718 H   0  0  0  0  0  0  0  0  0  0  0  0
   48.0958   33.1231   48.8236 H   0  0  0  0  0  0  0  0  0  0  0  0
   49.8515   31.4328   49.2469 H   0  0  0  0  0  0  0  0  0  0  0  0
   49.4655   29.0579   48.5750 H   0  0  0  0  0  0  0  0  0  0  0  0
   47.3097   28.3873   47.4727 H   0  0  0  0  0  0  0  0  0  0  0  0
  1 10  1  0
  2  7  2  0
  3  4  2  0
  3  2  1  0
  4  5  1  0
  5  6  2  0
  6  1  1  0
  7  6  1  0
  8  9  1  0
  9 14  2  0
  9 10  1  0
 10 11  2  0
 11 12  1  0
 13 12  2  0
 14 13  1  0
  2 15  1  0
  3 16  1  0
  4 17  1  0
 11 18  1  0
 12 19  1  0
 13 20  1  0
 14 21  1  0
M  ISO  7  15  14  16  14  17  14  18  14  19  14  20  14  21  14
M  END
>  <minimizedAffinity>  (1) 
-4.01584578

>  <minimizedRMSD>  (1) 
2.44186258

$$$$
