
     RDKit          3D

 27 28  0  0  0  0  0  0  0  0999 V2000
   46.3680   34.8850   43.1480 C   0  0  0  0  0  0  0  0  0  0  0  0
   45.4270   35.9300   43.2700 C   0  0  0  0  0  0  0  0  0  0  0  0
   44.6070   35.9550   44.3940 C   0  0  0  0  0  0  0  0  0  0  0  0
   44.7710   34.9580   45.3080 N   0  0  0  0  0  0  0  0  0  0  0  0
   45.6730   33.9810   45.1600 C   0  0  0  0  0  0  0  0  0  0  0  0
   46.4680   33.9410   44.0890 N   0  0  0  0  0  0  0  0  0  0  0  0
   47.1500   34.9650   41.9570 C   0  0  0  0  0  0  0  0  0  0  0  0
   48.2060   35.6650   41.8230 O   0  0  0  0  0  0  0  0  0  0  0  0
   46.8730   34.2690   40.7270 N   0  0  0  0  0  0  0  0  0  0  0  0
   47.9800   34.2630   39.8360 C   0  0  0  0  0  0  0  0  0  0  0  0
   47.8250   33.3470   38.6530 C   0  0  0  0  0  0  0  0  0  0  0  0
   46.3740   33.1910   38.2370 C   0  0  0  0  0  0  0  0  0  0  0  0
   45.6990   32.5580   39.4600 C   0  0  0  0  0  0  0  0  0  0  0  0
   45.6000   33.6710   40.4860 C   0  0  0  0  0  0  0  0  0  0  0  0
   45.3439   36.7062   42.4950 H   0  0  0  0  0  0  0  0  0  0  0  0
   43.8574   36.7469   44.5386 H   0  0  0  0  0  0  0  0  0  0  0  0
   45.7603   33.2010   45.9307 H   0  0  0  0  0  0  0  0  0  0  0  0
   48.1243   35.2869   39.4608 H   0  0  0  0  0  0  0  0  0  0  0  0
   48.8408   33.8892   40.4098 H   0  0  0  0  0  0  0  0  0  0  0  0
   48.3938   33.7608   37.8073 H   0  0  0  0  0  0  0  0  0  0  0  0
   48.2028   32.3550   38.9414 H   0  0  0  0  0  0  0  0  0  0  0  0
   45.9266   34.1692   38.0070 H   0  0  0  0  0  0  0  0  0  0  0  0
   46.2589   32.5810   37.3289 H   0  0  0  0  0  0  0  0  0  0  0  0
   44.6976   32.1862   39.1976 H   0  0  0  0  0  0  0  0  0  0  0  0
   46.2686   31.6982   39.8426 H   0  0  0  0  0  0  0  0  0  0  0  0
   44.9073   34.4404   40.1142 H   0  0  0  0  0  0  0  0  0  0  0  0
   45.2341   33.2412   41.4301 H   0  0  0  0  0  0  0  0  0  0  0  0
  1  2  2  0
  1  6  1  0
  2  3  1  0
  3  4  2  0
  5  4  1  0
  6  5  2  0
  7  1  1  0
  8  7  2  0
  9  7  1  0
 10  9  1  0
 11 10  1  0
 12 11  1  0
 12 13  1  0
 13 14  1  0
 14  9  1  0
  2 15  1  0
  3 16  1  0
  5 17  1  0
 10 18  1  0
 10 19  1  0
 11 20  1  0
 11 21  1  0
 12 22  1  0
 12 23  1  0
 13 24  1  0
 13 25  1  0
 14 26  1  0
 14 27  1  0
M  ISO  8  15  14  16  14  17  14  18  13  19  13  20  13  21  13  22  13
M  ISO  5  23  13  24  13  25  13  26  13  27  13
M  END
>  <minimizedAffinity>  (1) 
-4.47041178

>  <minimizedRMSD>  (1) 
0.36243695

$$$$
