
     RDKit          3D

 44 46  0  0  0  0  0  0  0  0999 V2000
   45.5610   29.9240   44.7410 Br  0  0  0  0  0  0  0  0  0  0  0  0
   45.6470   30.5290   46.5780 C   0  0  0  0  0  0  0  0  0  0  0  0
   46.3380   31.6800   46.7800 C   0  0  0  0  0  0  0  0  0  0  0  0
   46.3890   32.1030   48.1160 C   0  0  0  0  0  0  0  0  0  0  0  0
   45.7850   31.4080   49.1530 C   0  0  0  0  0  0  0  0  0  0  0  0
   45.1070   30.2520   48.8550 C   0  0  0  0  0  0  0  0  0  0  0  0
   45.0240   29.7910   47.5620 C   0  0  0  0  0  0  0  0  0  0  0  0
   47.0240   32.5170   45.7900 C   0  0  0  0  0  0  0  0  0  0  0  0
   44.5390   35.2790   45.4810 C   0  0  0  0  0  0  0  0  0  0  0  0
   44.7530   35.7000   44.1640 C   0  0  0  0  0  0  0  0  0  0  0  0
   45.7200   35.0520   43.4160 C   0  0  0  0  0  0  0  0  0  0  0  0
   46.4270   34.0360   43.9740 N   0  0  0  0  0  0  0  0  0  0  0  0
   46.2050   33.6360   45.2640 C   0  0  0  0  0  0  0  0  0  0  0  0
   45.2640   34.2750   45.9730 N   0  0  0  0  0  0  0  0  0  0  0  0
   44.3320   28.6150   47.2670 O   0  0  0  0  0  0  0  0  0  0  0  0
   44.0300   26.0460   47.0810 O   0  0  0  0  0  0  0  0  0  0  0  0
   44.8660   27.0880   47.8200 P   0  0  2  0  0  0  0  0  0  0  0  0
   44.5410   26.9820   49.4530 O   0  0  0  0  0  0  0  0  0  0  0  0
   46.4700   26.8120   47.4820 O   0  0  0  0  0  0  0  0  0  0  0  0
   45.7200   23.1790   48.8020 N   0  0  0  0  0  0  0  0  0  0  0  0
   45.1830   23.6720   47.5490 C   0  0  0  0  0  0  0  0  0  0  0  0
   46.0920   24.6230   46.8360 C   0  0  0  0  0  0  0  0  0  0  0  0
   46.9070   25.5100   47.7060 C   0  0  0  0  0  0  0  0  0  0  0  0
   46.9610   25.1710   49.1500 C   0  0  0  0  0  0  0  0  0  0  0  0
   45.8260   24.3450   49.6580 C   0  0  0  0  0  0  0  0  0  0  0  0
   46.9334   33.0291   48.3524 H   0  0  0  0  0  0  0  0  0  0  0  0
   45.8476   31.7738   50.1885 H   0  0  0  0  0  0  0  0  0  0  0  0
   44.6223   29.6853   49.6636 H   0  0  0  0  0  0  0  0  0  0  0  0
   47.9236   32.9402   46.2608 H   0  0  0  0  0  0  0  0  0  0  0  0
   47.2553   31.8664   44.9337 H   0  0  0  0  0  0  0  0  0  0  0  0
   43.7791   35.7724   46.1047 H   0  0  0  0  0  0  0  0  0  0  0  0
   44.1670   36.5256   43.7339 H   0  0  0  0  0  0  0  0  0  0  0  0
   45.9145   35.3576   42.3773 H   0  0  0  0  0  0  0  0  0  0  0  0
   45.3453   27.2443   49.9672 H   0  0  0  0  0  0  0  0  0  0  0  0
   46.6466   22.7539   48.6550 H   0  0  0  0  0  0  0  0  0  0  0  0
   44.9947   22.8118   46.8898 H   0  0  0  0  0  0  0  0  0  0  0  0
   44.2639   24.2263   47.7899 H   0  0  0  0  0  0  0  0  0  0  0  0
   46.7816   24.0310   46.2163 H   0  0  0  0  0  0  0  0  0  0  0  0
   45.4349   25.2903   46.2591 H   0  0  0  0  0  0  0  0  0  0  0  0
   47.9592   25.3695   47.4176 H   0  0  0  0  0  0  0  0  0  0  0  0
   47.8929   24.6161   49.3334 H   0  0  0  0  0  0  0  0  0  0  0  0
   46.9027   26.1287   49.6879 H   0  0  0  0  0  0  0  0  0  0  0  0
   44.8923   24.9253   49.6199 H   0  0  0  0  0  0  0  0  0  0  0  0
   46.0008   24.0455   50.7019 H   0  0  0  0  0  0  0  0  0  0  0  0
  1  2  1  0
  2  3  2  0
  2  7  1  0
  3  4  1  0
  4  5  2  0
  6  5  1  0
  7  6  2  0
  8  3  1  0
  9 14  2  0
 10  9  1  0
 11 12  1  0
 11 10  2  0
 12 13  2  0
 13  8  1  0
 13 14  1  0
 15  7  1  0
 15 17  1  0
 17 16  2  0
 17 18  1  0
 19 23  1  0
 19 17  1  0
 20 25  1  0
 21 20  1  0
 22 21  1  0
 22 23  1  0
 23 24  1  0
 24 25  1  0
  4 26  1  0
  5 27  1  0
  6 28  1  0
  8 29  1  0
  8 30  1  0
  9 31  1  0
 10 32  1  0
 11 33  1  0
 18 34  1  0
 20 35  1  0
 21 36  1  0
 21 37  1  0
 22 38  1  0
 22 39  1  0
 23 40  1  0
 24 41  1  0
 24 42  1  0
 25 43  1  0
 25 44  1  0
M  ISO  8  26  14  27  14  28  14  29   8  30   8  31  14  32  14  33  14
M  ISO  8  34   3  35   5  36  13  37  13  38  13  39  13  40  13  41  13
M  ISO  3  42  13  43  13  44  13
M  END
>  <minimizedAffinity>  (1) 
-5.64060688

>  <minimizedRMSD>  (1) 
0.75047332

$$$$
