
     RDKit          3D

 40 42  0  0  0  0  0  0  0  0999 V2000
   46.8070   34.8670   42.1470 C   0  0  0  0  0  0  0  0  0  0  0  0
   48.0540   35.4370   41.9890 C   0  0  0  0  0  0  0  0  0  0  0  0
   48.8390   35.3250   40.8440 C   0  0  0  0  0  0  0  0  0  0  0  0
   48.3330   34.5900   39.7940 C   0  0  0  0  0  0  0  0  0  0  0  0
   47.1110   34.0400   39.9660 C   0  0  0  0  0  0  0  0  0  0  0  0
   46.3810   34.1640   41.0730 N   0  0  0  0  0  0  0  0  0  0  0  0
   44.4390   35.9300   44.8760 C   0  0  0  0  0  0  0  0  0  0  0  0
   45.1070   35.9790   43.6390 C   0  0  0  0  0  0  0  0  0  0  0  0
   46.0160   34.9920   43.3650 C   0  0  0  0  0  0  0  0  0  0  0  0
   46.2180   34.0190   44.3150 N   0  0  0  0  0  0  0  0  0  0  0  0
   45.5700   33.9900   45.4890 C   0  0  0  0  0  0  0  0  0  0  0  0
   44.6790   34.9530   45.7610 N   0  0  0  0  0  0  0  0  0  0  0  0
   46.5910   33.3040   38.9170 O   0  0  0  0  0  0  0  0  0  0  0  0
   48.0130   34.6060   37.1120 O   0  0  0  0  0  0  0  0  0  0  0  0
   47.2690   33.3070   37.3470 P   0  0  1  0  0  0  0  0  0  0  0  0
   48.3350   32.0180   37.2020 O   0  0  0  0  0  0  0  0  0  0  0  0
   45.9930   33.2000   36.2300 O   0  0  0  0  0  0  0  0  0  0  0  0
   43.4310   31.0330   34.4240 N   0  0  0  0  0  0  0  0  0  0  0  0
   44.7550   30.7700   33.8490 C   0  0  0  0  0  0  0  0  0  0  0  0
   45.7320   31.7390   34.4440 C   0  0  0  0  0  0  0  0  0  0  0  0
   45.6880   31.8720   35.9240 C   0  0  0  0  0  0  0  0  0  0  0  0
   44.3570   31.5910   36.5610 C   0  0  0  0  0  0  0  0  0  0  0  0
   43.5400   30.5750   35.8080 C   0  0  0  0  0  0  0  0  0  0  0  0
   48.4572   36.0224   42.8285 H   0  0  0  0  0  0  0  0  0  0  0  0
   49.8264   35.8055   40.7802 H   0  0  0  0  0  0  0  0  0  0  0  0
   48.8976   34.4572   38.8594 H   0  0  0  0  0  0  0  0  0  0  0  0
   43.7039   36.7104   45.1220 H   0  0  0  0  0  0  0  0  0  0  0  0
   44.9060   36.7832   42.9159 H   0  0  0  0  0  0  0  0  0  0  0  0
   45.7668   33.1888   46.2165 H   0  0  0  0  0  0  0  0  0  0  0  0
   48.5959   31.7025   38.1034 H   0  0  0  0  0  0  0  0  0  0  0  0
   42.7035   30.5049   33.9212 H   0  0  0  0  0  0  0  0  0  0  0  0
   45.0637   29.7405   34.0834 H   0  0  0  0  0  0  0  0  0  0  0  0
   44.7224   30.8903   32.7561 H   0  0  0  0  0  0  0  0  0  0  0  0
   46.7445   31.4129   34.1639 H   0  0  0  0  0  0  0  0  0  0  0  0
   45.4552   32.7264   34.0459 H   0  0  0  0  0  0  0  0  0  0  0  0
   46.3948   31.1250   36.3143 H   0  0  0  0  0  0  0  0  0  0  0  0
   44.5300   31.2144   37.5799 H   0  0  0  0  0  0  0  0  0  0  0  0
   43.7889   32.5329   36.5586 H   0  0  0  0  0  0  0  0  0  0  0  0
   42.5386   30.4926   36.2558 H   0  0  0  0  0  0  0  0  0  0  0  0
   44.0191   29.5857   35.8508 H   0  0  0  0  0  0  0  0  0  0  0  0
  1  9  1  0
  2  1  2  0
  3  2  1  0
  4  5  1  0
  4  3  2  0
  5  6  2  0
  6  1  1  0
  7 12  2  0
  8  7  1  0
  9  8  2  0
  9 10  1  0
 10 11  2  0
 11 12  1  0
 13  5  1  0
 15 14  2  0
 15 13  1  0
 16 15  1  0
 17 15  1  0
 18 23  1  0
 19 18  1  0
 19 20  1  0
 20 21  1  0
 21 17  1  0
 21 22  1  0
 23 22  1  0
  2 24  1  0
  3 25  1  0
  4 26  1  0
  7 27  1  0
  8 28  1  0
 11 29  1  0
 16 30  1  0
 18 31  1  0
 19 32  1  0
 19 33  1  0
 20 34  1  0
 20 35  1  0
 21 36  1  0
 22 37  1  0
 22 38  1  0
 23 39  1  0
 23 40  1  0
M  ISO  8  24  14  25  14  26  14  27  14  28  14  29  14  30   3  31   5
M  ISO  8  32  13  33  13  34  13  35  13  36  13  37  13  38  13  39  13
M  ISO  1  40  13
M  END
>  <minimizedAffinity>  (1) 
-6.01992226

>  <minimizedRMSD>  (1) 
2.8433044

$$$$
