
     RDKit          3D

 48 50  0  0  0  0  0  0  0  0999 V2000
   45.8020   35.1150   43.2080 C   0  0  0  0  0  0  0  0  0  0  0  0
   46.6560   34.1390   43.7850 C   0  0  0  0  0  0  0  0  0  0  0  0
   46.3960   33.7430   45.0950 C   0  0  0  0  0  0  0  0  0  0  0  0
   45.3570   34.2910   45.7570 N   0  0  0  0  0  0  0  0  0  0  0  0
   44.5560   35.2230   45.1800 C   0  0  0  0  0  0  0  0  0  0  0  0
   44.7800   35.6240   43.9260 N   0  0  0  0  0  0  0  0  0  0  0  0
   47.7030   33.6630   42.9550 N   0  0  0  0  0  0  0  0  0  0  0  0
   49.0170   34.2780   42.8990 C   0  0  0  0  0  0  0  0  0  0  0  0
   49.9220   33.4680   42.0290 C   0  0  0  0  0  0  0  0  0  0  0  0
   49.3600   33.1650   40.7350 N   0  0  0  0  0  0  0  0  0  0  0  0
   48.0310   32.6290   40.7580 C   0  0  0  0  0  0  0  0  0  0  0  0
   47.4370   32.5000   42.1240 C   0  0  0  0  0  0  0  0  0  0  0  0
   47.2410   32.7970   45.6230 O   0  0  0  0  0  0  0  0  0  0  0  0
   45.4220   30.8540   45.6610 O   0  0  0  0  0  0  0  0  0  0  0  0
   46.5590   31.4430   46.4830 P   0  0  1  0  0  0  0  0  0  0  0  0
   47.7940   30.3440   46.7210 O   0  0  0  0  0  0  0  0  0  0  0  0
   47.4480   26.5370   45.6480 N   0  0  0  0  0  0  0  0  0  0  0  0
   47.3840   26.7150   47.0660 C   0  0  0  0  0  0  0  0  0  0  0  0
   47.8360   28.1180   47.3970 C   0  0  0  0  0  0  0  0  0  0  0  0
   47.5010   29.0660   46.2610 C   0  0  0  0  0  0  0  0  0  0  0  0
   48.4720   28.7050   45.1270 C   0  0  0  0  0  0  0  0  0  0  0  0
   48.5530   27.2030   45.0060 C   0  0  0  0  0  0  0  0  0  0  0  0
   45.9420   32.0650   47.9180 O   0  0  0  0  0  0  0  0  0  0  0  0
   45.9030   31.1410   48.9340 C   0  0  0  0  0  0  0  0  0  0  0  0
   47.1470   30.8660   49.4900 F   0  0  0  0  0  0  0  0  0  0  0  0
   45.2990   29.9520   48.6160 F   0  0  0  0  0  0  0  0  0  0  0  0
   45.1200   31.7290   49.9400 F   0  0  0  0  0  0  0  0  0  0  0  0
   45.9735   35.4559   42.1763 H   0  0  0  0  0  0  0  0  0  0  0  0
   43.7172   35.6505   45.7490 H   0  0  0  0  0  0  0  0  0  0  0  0
   48.9269   35.2935   42.4858 H   0  0  0  0  0  0  0  0  0  0  0  0
   49.4379   34.3250   43.9142 H   0  0  0  0  0  0  0  0  0  0  0  0
   50.8557   34.0300   41.8797 H   0  0  0  0  0  0  0  0  0  0  0  0
   50.0886   32.5088   42.5411 H   0  0  0  0  0  0  0  0  0  0  0  0
   49.9731   32.4774   40.2743 H   0  0  0  0  0  0  0  0  0  0  0  0
   47.3837   33.2902   40.1631 H   0  0  0  0  0  0  0  0  0  0  0  0
   48.0980   31.6101   40.3490 H   0  0  0  0  0  0  0  0  0  0  0  0
   46.3483   32.3773   42.0259 H   0  0  0  0  0  0  0  0  0  0  0  0
   47.8983   31.6275   42.6098 H   0  0  0  0  0  0  0  0  0  0  0  0
   47.5254   25.5283   45.4546 H   0  0  0  0  0  0  0  0  0  0  0  0
   46.3502   26.5676   47.4116 H   0  0  0  0  0  0  0  0  0  0  0  0
   48.0350   25.9828   47.5662 H   0  0  0  0  0  0  0  0  0  0  0  0
   47.3276   28.4557   48.3121 H   0  0  0  0  0  0  0  0  0  0  0  0
   48.9256   28.1145   47.5478 H   0  0  0  0  0  0  0  0  0  0  0  0
   46.4552   29.0072   45.9252 H   0  0  0  0  0  0  0  0  0  0  0  0
   48.1082   29.1317   44.1807 H   0  0  0  0  0  0  0  0  0  0  0  0
   49.4691   29.1133   45.3487 H   0  0  0  0  0  0  0  0  0  0  0  0
   48.5549   26.9347   43.9392 H   0  0  0  0  0  0  0  0  0  0  0  0
   49.4764   26.8768   45.5069 H   0  0  0  0  0  0  0  0  0  0  0  0
  1  2  2  0
  1  6  1  0
  2  3  1  0
  3 13  1  0
  3  4  2  0
  5  4  1  0
  6  5  2  0
  7  2  1  0
  8  7  1  0
  9  8  1  0
 10 11  1  0
 10  9  1  0
 11 12  1  0
 12  7  1  0
 13 15  1  0
 15 14  2  0
 15 16  1  0
 15 23  1  0
 17 18  1  0
 18 19  1  0
 20 16  1  0
 20 19  1  0
 21 20  1  0
 22 21  1  0
 22 17  1  0
 23 24  1  0
 24 25  1  0
 24 27  1  0
 26 24  1  0
  1 28  1  0
  5 29  1  0
  8 30  1  0
  8 31  1  0
  9 32  1  0
  9 33  1  0
 10 34  1  0
 11 35  1  0
 11 36  1  0
 12 37  1  0
 12 38  1  0
 17 39  1  0
 18 40  1  0
 18 41  1  0
 19 42  1  0
 19 43  1  0
 20 44  1  0
 21 45  1  0
 21 46  1  0
 22 47  1  0
 22 48  1  0
M  ISO  8  28  14  29  14  30  13  31  13  32  13  33  13  34   5  35  13
M  ISO  8  36  13  37  13  38  13  39   5  40  13  41  13  42  13  43  13
M  ISO  5  44  13  45  13  46  13  47  13  48  13
M  END
>  <minimizedAffinity>  (1) 
-5.06484652

>  <minimizedRMSD>  (1) 
1.85757315

$$$$
