
     RDKit          3D

 46 48  0  0  0  0  0  0  0  0999 V2000
   45.1640   33.0170   41.4130 F   0  0  0  0  0  0  0  0  0  0  0  0
   46.2810   33.6760   41.1420 C   0  0  0  0  0  0  0  0  0  0  0  0
   46.7240   34.6180   42.0460 C   0  0  0  0  0  0  0  0  0  0  0  0
   47.9010   35.3740   41.8570 C   0  0  0  0  0  0  0  0  0  0  0  0
   48.6550   35.1570   40.6920 C   0  0  0  0  0  0  0  0  0  0  0  0
   48.1680   34.2040   39.8200 C   0  0  0  0  0  0  0  0  0  0  0  0
   47.0430   33.4770   39.9960 C   0  0  0  0  0  0  0  0  0  0  0  0
   45.4180   34.2010   45.4420 C   0  0  0  0  0  0  0  0  0  0  0  0
   44.5940   35.3430   45.5870 C   0  0  0  0  0  0  0  0  0  0  0  0
   44.4960   36.2560   44.4990 C   0  0  0  0  0  0  0  0  0  0  0  0
   45.2160   35.9610   43.3730 N   0  0  0  0  0  0  0  0  0  0  0  0
   45.9740   34.8800   43.2830 C   0  0  0  0  0  0  0  0  0  0  0  0
   46.0800   34.0000   44.3060 N   0  0  0  0  0  0  0  0  0  0  0  0
   45.4930   33.3200   46.5390 N   0  0  0  0  0  0  0  0  0  0  0  0
   46.6640   32.5630   39.0570 O   0  0  0  0  0  0  0  0  0  0  0  0
   47.0590   34.1390   36.9720 O   0  0  0  0  0  0  0  0  0  0  0  0
   46.4530   32.8260   37.4080 P   0  0  2  0  0  0  0  0  0  0  0  0
   44.7740   32.8450   37.0660 O   0  0  0  0  0  0  0  0  0  0  0  0
   41.3680   33.0560   39.2670 N   0  0  0  0  0  0  0  0  0  0  0  0
   41.8320   31.7280   38.9610 C   0  0  0  0  0  0  0  0  0  0  0  0
   42.9170   31.7210   37.9120 C   0  0  0  0  0  0  0  0  0  0  0  0
   44.0300   32.6810   38.2280 C   0  0  0  0  0  0  0  0  0  0  0  0
   43.4260   34.0340   38.5480 C   0  0  0  0  0  0  0  0  0  0  0  0
   42.3980   33.9740   39.6420 C   0  0  0  0  0  0  0  0  0  0  0  0
   47.0750   31.5880   36.4580 O   0  0  0  0  0  0  0  0  0  0  0  0
   46.4680   30.3560   36.7770 C   0  0  0  0  0  0  0  0  0  0  0  0
   45.3680   30.2820   35.9150 F   0  0  0  0  0  0  0  0  0  0  0  0
   47.2990   29.3070   36.4720 F   0  0  0  0  0  0  0  0  0  0  0  0
   46.1060   30.2440   38.0910 F   0  0  0  0  0  0  0  0  0  0  0  0
   48.2201   36.1154   42.6043 H   0  0  0  0  0  0  0  0  0  0  0  0
   49.5806   35.7145   40.4862 H   0  0  0  0  0  0  0  0  0  0  0  0
   48.7461   34.0207   38.9023 H   0  0  0  0  0  0  0  0  0  0  0  0
   44.0409   35.5212   46.5210 H   0  0  0  0  0  0  0  0  0  0  0  0
   43.8696   37.1582   44.5606 H   0  0  0  0  0  0  0  0  0  0  0  0
   46.0794   32.4751   46.4819 H   0  0  0  0  0  0  0  0  0  0  0  0
   44.9615   33.5208   47.3981 H   0  0  0  0  0  0  0  0  0  0  0  0
   40.6968   32.9905   40.0455 H   0  0  0  0  0  0  0  0  0  0  0  0
   42.2278   31.2722   39.8806 H   0  0  0  0  0  0  0  0  0  0  0  0
   40.9786   31.1600   38.5622 H   0  0  0  0  0  0  0  0  0  0  0  0
   42.4741   32.0005   36.9447 H   0  0  0  0  0  0  0  0  0  0  0  0
   43.3470   30.7089   37.8828 H   0  0  0  0  0  0  0  0  0  0  0  0
   44.6358   32.3075   39.0668 H   0  0  0  0  0  0  0  0  0  0  0  0
   44.2328   34.7126   38.8619 H   0  0  0  0  0  0  0  0  0  0  0  0
   42.9192   34.3913   37.6394 H   0  0  0  0  0  0  0  0  0  0  0  0
   41.9634   34.9730   39.7941 H   0  0  0  0  0  0  0  0  0  0  0  0
   42.8710   33.6383   40.5767 H   0  0  0  0  0  0  0  0  0  0  0  0
  2  1  1  0
  2  3  2  0
  3 12  1  0
  4  3  1  0
  5  4  2  0
  6  7  2  0
  6  5  1  0
  7  2  1  0
  8  9  2  0
  8 14  1  0
 10  9  1  0
 11 10  2  0
 12 11  1  0
 12 13  2  0
 13  8  1  0
 15  7  1  0
 17 16  2  0
 17 15  1  0
 18 17  1  0
 18 22  1  0
 19 24  1  0
 20 19  1  0
 21 22  1  0
 21 20  1  0
 22 23  1  0
 23 24  1  0
 25 26  1  0
 25 17  1  0
 26 29  1  0
 27 26  1  0
 28 26  1  0
  4 30  1  0
  5 31  1  0
  6 32  1  0
  9 33  1  0
 10 34  1  0
 14 35  1  0
 14 36  1  0
 19 37  1  0
 20 38  1  0
 20 39  1  0
 21 40  1  0
 21 41  1  0
 22 42  1  0
 23 43  1  0
 23 44  1  0
 24 45  1  0
 24 46  1  0
M  ISO  8  30  14  31  14  32  14  33  14  34  14  37   5  38  13  39  13
M  ISO  7  40  13  41  13  42  13  43  13  44  13  45  13  46  13
M  END
>  <minimizedAffinity>  (1) 
-5.50389338

>  <minimizedRMSD>  (1) 
1.78777349

$$$$
