
     RDKit          3D

 55 58  0  0  0  0  0  0  0  0999 V2000
   46.2830   33.3280   39.6880 C   0  0  0  0  0  0  0  0  0  0  0  0
   45.5120   33.0650   38.5750 C   0  0  0  0  0  0  0  0  0  0  0  0
   45.9530   33.1920   37.2790 C   0  0  0  0  0  0  0  0  0  0  0  0
   47.2800   33.6170   37.1260 C   0  0  0  0  0  0  0  0  0  0  0  0
   48.0900   33.8920   38.2060 C   0  0  0  0  0  0  0  0  0  0  0  0
   47.6030   33.7500   39.4750 C   0  0  0  0  0  0  0  0  0  0  0  0
   48.5090   34.0510   40.5060 N   0  0  0  0  0  0  0  0  0  0  0  0
   48.7530   35.3800   40.9980 C   0  0  0  0  0  0  0  0  0  0  0  0
   49.3810   35.3480   42.3720 C   0  0  0  0  0  0  0  0  0  0  0  0
   48.8840   34.3260   43.2250 N   0  0  0  0  0  0  0  0  0  0  0  0
   48.9260   33.0190   42.6770 C   0  0  0  0  0  0  0  0  0  0  0  0
   49.3360   33.0730   41.2270 C   0  0  0  0  0  0  0  0  0  0  0  0
   45.8070   33.2000   41.0680 C   0  0  0  0  0  0  0  0  0  0  0  0
   45.2390   34.5100   41.5830 C   0  0  0  0  0  0  0  0  0  0  0  0
   41.6820   35.6800   41.1060 C   0  0  0  0  0  0  0  0  0  0  0  0
   43.0860   35.7190   41.2790 C   0  0  0  0  0  0  0  0  0  0  0  0
   43.7670   34.5060   41.4080 C   0  0  0  0  0  0  0  0  0  0  0  0
   43.0340   33.3540   41.3610 N   0  0  0  0  0  0  0  0  0  0  0  0
   41.7110   33.3460   41.1980 C   0  0  0  0  0  0  0  0  0  0  0  0
   41.0370   34.5020   41.0700 N   0  0  0  0  0  0  0  0  0  0  0  0
   40.9480   32.1420   41.1480 N   0  0  0  0  0  0  0  0  0  0  0  0
   39.8970   31.8410   42.0830 C   0  0  0  0  0  0  0  0  0  0  0  0
   39.7460   30.3210   42.0870 C   0  0  0  0  0  0  0  0  0  0  0  0
   41.1250   29.6690   42.1080 C   0  0  0  0  0  0  0  0  0  0  0  0
   41.9090   29.9910   40.8660 C   0  0  0  0  0  0  0  0  0  0  0  0
   41.1950   31.1270   40.1290 C   0  0  0  0  0  0  0  0  0  0  0  0
   44.4760   32.7317   38.7348 H   0  0  0  0  0  0  0  0  0  0  0  0
   45.3056   32.9739   36.4168 H   0  0  0  0  0  0  0  0  0  0  0  0
   47.6877   33.7347   36.1111 H   0  0  0  0  0  0  0  0  0  0  0  0
   49.1263   34.2251   38.0473 H   0  0  0  0  0  0  0  0  0  0  0  0
   49.4314   35.8999   40.3056 H   0  0  0  0  0  0  0  0  0  0  0  0
   47.7903   35.9076   41.0676 H   0  0  0  0  0  0  0  0  0  0  0  0
   50.4639   35.1977   42.2510 H   0  0  0  0  0  0  0  0  0  0  0  0
   49.1297   36.3051   42.8524 H   0  0  0  0  0  0  0  0  0  0  0  0
   49.4451   34.3291   44.0888 H   0  0  0  0  0  0  0  0  0  0  0  0
   49.6535   32.4136   43.2376 H   0  0  0  0  0  0  0  0  0  0  0  0
   47.9253   32.5680   42.7496 H   0  0  0  0  0  0  0  0  0  0  0  0
   49.2033   32.0795   40.7738 H   0  0  0  0  0  0  0  0  0  0  0  0
   50.3916   33.3753   41.1616 H   0  0  0  0  0  0  0  0  0  0  0  0
   45.0219   32.4304   41.1056 H   0  0  0  0  0  0  0  0  0  0  0  0
   46.6601   32.9196   41.7033 H   0  0  0  0  0  0  0  0  0  0  0  0
   45.4823   34.6222   42.6499 H   0  0  0  0  0  0  0  0  0  0  0  0
   45.6755   35.3484   41.0204 H   0  0  0  0  0  0  0  0  0  0  0  0
   41.1166   36.6177   41.0006 H   0  0  0  0  0  0  0  0  0  0  0  0
   43.6257   36.6770   41.3110 H   0  0  0  0  0  0  0  0  0  0  0  0
   40.1671   32.1992   43.0874 H   0  0  0  0  0  0  0  0  0  0  0  0
   38.9562   32.3346   41.7980 H   0  0  0  0  0  0  0  0  0  0  0  0
   39.1814   30.0117   42.9789 H   0  0  0  0  0  0  0  0  0  0  0  0
   39.2068   30.0054   41.1816 H   0  0  0  0  0  0  0  0  0  0  0  0
   41.6794   30.0348   42.9848 H   0  0  0  0  0  0  0  0  0  0  0  0
   40.9890   28.5785   42.1557 H   0  0  0  0  0  0  0  0  0  0  0  0
   42.9266   30.3067   41.1397 H   0  0  0  0  0  0  0  0  0  0  0  0
   41.9773   29.1035   40.2198 H   0  0  0  0  0  0  0  0  0  0  0  0
   41.8332   31.5299   39.3287 H   0  0  0  0  0  0  0  0  0  0  0  0
   40.2648   30.7880   39.6496 H   0  0  0  0  0  0  0  0  0  0  0  0
  1 13  1  0
  2  1  2  0
  3  2  1  0
  4  3  2  0
  4  5  1  0
  5  6  2  0
  6  1  1  0
  6  7  1  0
  7  8  1  0
  7 12  1  0
  8  9  1  0
  9 10  1  0
 11 10  1  0
 12 11  1  0
 13 14  1  0
 15 16  2  0
 16 17  1  0
 17 14  1  0
 18 17  2  0
 19 18  1  0
 20 15  1  0
 20 19  2  0
 21 19  1  0
 21 22  1  0
 22 23  1  0
 23 24  1  0
 25 24  1  0
 26 25  1  0
 26 21  1  0
  2 27  1  0
  3 28  1  0
  4 29  1  0
  5 30  1  0
  8 31  1  0
  8 32  1  0
  9 33  1  0
  9 34  1  0
 10 35  1  0
 11 36  1  0
 11 37  1  0
 12 38  1  0
 12 39  1  0
 13 40  1  0
 13 41  1  0
 14 42  1  0
 14 43  1  0
 15 44  1  0
 16 45  1  0
 22 46  1  0
 22 47  1  0
 23 48  1  0
 23 49  1  0
 24 50  1  0
 24 51  1  0
 25 52  1  0
 25 53  1  0
 26 54  1  0
 26 55  1  0
M  ISO  8  27  14  28  14  29  14  30  14  31  13  32  13  33  13  34  13
M  ISO  8  35   5  36  13  37  13  38  13  39  13  40   8  41   8  42   8
M  ISO  8  43   8  44  14  45  14  46  13  47  13  48  13  49  13  50  13
M  ISO  5  51  13  52  13  53  13  54  13  55  13
M  END
>  <minimizedAffinity>  (1) 
-5.63913441

>  <minimizedRMSD>  (1) 
3.34849739

$$$$
