
     RDKit          3D

 50 53  0  0  1  0  0  0  0  0999 V2000
   46.7230   33.3660   44.7070 F   0  0  0  0  0  0  0  0  0  0  0  0
   47.3780   32.1870   44.5080 C   0  0  0  0  0  0  0  0  0  0  0  0
   48.1980   32.0780   43.4010 C   0  0  0  0  0  0  0  0  0  0  0  0
   48.8540   30.8870   43.2080 C   0  0  0  0  0  0  0  0  0  0  0  0
   48.6760   29.8520   44.1100 C   0  0  0  0  0  0  0  0  0  0  0  0
   47.8600   29.9650   45.2070 C   0  0  0  0  0  0  0  0  0  0  0  0
   47.1940   31.1840   45.3980 C   0  0  0  0  0  0  0  0  0  0  0  0
   46.3610   31.2480   46.5500 N   0  0  0  0  0  0  0  0  0  0  0  0
   45.2800   30.3970   46.9800 C   0  0  0  0  0  0  0  0  0  0  0  0
   45.6560   30.1120   48.4430 C   0  0  0  0  0  0  0  0  0  0  0  0
   46.5280   31.2840   48.8250 C   0  0  0  0  0  0  0  0  0  0  0  0
   46.3570   32.2050   47.6480 C   0  0  2  0  0  0  0  0  0  0  0  0
   45.1340   33.0420   47.7090 C   0  0  0  0  0  0  0  0  0  0  0  0
   49.0430   35.3710   42.0570 C   0  0  0  0  0  0  0  0  0  0  0  0
   48.6260   35.3070   40.7220 C   0  0  0  0  0  0  0  0  0  0  0  0
   48.0570   34.0960   40.3370 C   0  0  0  0  0  0  0  0  0  0  0  0
   47.9440   33.0920   41.2360 N   0  0  0  0  0  0  0  0  0  0  0  0
   48.3500   33.1950   42.4860 C   0  0  0  0  0  0  0  0  0  0  0  0
   48.9030   34.3410   42.9010 N   0  0  0  0  0  0  0  0  0  0  0  0
   47.5720   33.8380   39.0200 N   0  0  0  0  0  0  0  0  0  0  0  0
   46.3740   33.0920   38.6920 C   0  0  0  0  0  0  0  0  0  0  0  0
   46.7900   31.9060   37.8400 C   0  0  0  0  0  0  0  0  0  0  0  0
   47.7460   32.2650   36.7450 C   0  0  0  0  0  0  0  0  0  0  0  0
   47.8820   33.7700   36.6080 C   0  0  0  0  0  0  0  0  0  0  0  0
   48.3330   34.3620   37.9010 C   0  0  0  0  0  0  0  0  0  0  0  0
   49.5178   30.7560   42.3407 H   0  0  0  0  0  0  0  0  0  0  0  0
   49.2083   28.9043   43.9409 H   0  0  0  0  0  0  0  0  0  0  0  0
   47.7328   29.1296   45.9112 H   0  0  0  0  0  0  0  0  0  0  0  0
   44.3122   30.9151   46.9103 H   0  0  0  0  0  0  0  0  0  0  0  0
   45.1612   29.4900   46.3691 H   0  0  0  0  0  0  0  0  0  0  0  0
   44.7582   30.0683   49.0771 H   0  0  0  0  0  0  0  0  0  0  0  0
   46.1632   29.1444   48.5714 H   0  0  0  0  0  0  0  0  0  0  0  0
   46.1771   31.7557   49.7547 H   0  0  0  0  0  0  0  0  0  0  0  0
   47.5748   31.0095   49.0221 H   0  0  0  0  0  0  0  0  0  0  0  0
   47.1346   32.9792   47.5714 H   0  0  0  0  0  0  0  0  0  0  0  0
   44.8669   33.2248   48.7603 H   0  0  0  0  0  0  0  0  0  0  0  0
   45.3213   34.0021   47.2060 H   0  0  0  0  0  0  0  0  0  0  0  0
   44.3068   32.5198   47.2060 H   0  0  0  0  0  0  0  0  0  0  0  0
   49.5019   36.3003   42.4255 H   0  0  0  0  0  0  0  0  0  0  0  0
   48.7397   36.1524   40.0275 H   0  0  0  0  0  0  0  0  0  0  0  0
   45.8876   32.7395   39.6135 H   0  0  0  0  0  0  0  0  0  0  0  0
   45.6605   33.7275   38.1471 H   0  0  0  0  0  0  0  0  0  0  0  0
   47.2700   31.1605   38.4911 H   0  0  0  0  0  0  0  0  0  0  0  0
   45.8799   31.5160   37.3608 H   0  0  0  0  0  0  0  0  0  0  0  0
   48.7321   31.8348   36.9741 H   0  0  0  0  0  0  0  0  0  0  0  0
   47.3582   31.8623   35.7977 H   0  0  0  0  0  0  0  0  0  0  0  0
   48.6202   33.9992   35.8254 H   0  0  0  0  0  0  0  0  0  0  0  0
   46.9054   34.1973   36.3367 H   0  0  0  0  0  0  0  0  0  0  0  0
   49.3969   34.1259   38.0504 H   0  0  0  0  0  0  0  0  0  0  0  0
   48.1759   35.4498   37.8560 H   0  0  0  0  0  0  0  0  0  0  0  0
  2  1  1  0
  2  7  2  0
  3  2  1  0
  4  3  2  0
  4  5  1  0
  5  6  2  0
  6  7  1  0
  7  8  1  0
  8  9  1  0
  8 12  1  0
  9 10  1  0
 10 11  1  0
 12 13  1  0
 12 11  1  0
 14 19  2  0
 15 14  1  0
 16 15  2  0
 16 17  1  0
 17 18  2  0
 18 19  1  0
 18  3  1  0
 20 16  1  0
 21 20  1  0
 22 21  1  0
 23 22  1  0
 24 23  1  0
 24 25  1  0
 25 20  1  0
  4 26  1  0
  5 27  1  0
  6 28  1  0
  9 29  1  0
  9 30  1  0
 10 31  1  0
 10 32  1  0
 11 33  1  0
 11 34  1  0
 12 35  1  6
 13 36  1  0
 13 37  1  0
 13 38  1  0
 14 39  1  0
 15 40  1  0
 21 41  1  0
 21 42  1  0
 22 43  1  0
 22 44  1  0
 23 45  1  0
 23 46  1  0
 24 47  1  0
 24 48  1  0
 25 49  1  0
 25 50  1  0
M  ISO  8  26  14  27  14  28  14  29  13  30  13  31  13  32  13  33  13
M  ISO  8  34  13  35  13  36   8  37   8  38   8  39  14  40  14  41  13
M  ISO  8  42  13  43  13  44  13  45  13  46  13  47  13  48  13  49  13
M  ISO  1  50  13
M  END
>  <minimizedAffinity>  (1) 
-5.61237431

>  <minimizedRMSD>  (1) 
1.14983916

$$$$
