
     RDKit          3D

 37 39  0  0  1  0  0  0  0  0999 V2000
   46.6120   34.9460   41.9390 C   0  0  1  0  0  0  0  0  0  0  0  0
   48.0990   35.4040   41.9960 C   0  0  0  0  0  0  0  0  0  0  0  0
   47.5900   34.0340   41.5090 C   0  0  2  0  0  0  0  0  0  0  0  0
   44.5890   35.5220   45.0500 C   0  0  0  0  0  0  0  0  0  0  0  0
   45.1100   35.7320   43.7450 C   0  0  0  0  0  0  0  0  0  0  0  0
   46.0480   34.8460   43.3370 C   0  0  0  0  0  0  0  0  0  0  0  0
   46.4720   33.8050   44.1410 N   0  0  0  0  0  0  0  0  0  0  0  0
   45.9570   33.6320   45.3760 C   0  0  0  0  0  0  0  0  0  0  0  0
   45.0060   34.5010   45.8340 N   0  0  0  0  0  0  0  0  0  0  0  0
   44.7000   36.8150   42.9300 N   0  0  0  0  0  0  0  0  0  0  0  0
   47.7540   33.6820   40.0480 C   0  0  0  0  0  0  0  0  0  0  0  0
   46.4500   33.4230   39.4660 N   0  0  0  0  0  0  0  0  0  0  0  0
   45.9240   32.1720   39.9300 C   0  0  0  0  0  0  0  0  0  0  0  0
   44.8120   31.6590   39.0760 C   0  0  0  0  0  0  0  0  0  0  0  0
   44.3250   32.7670   38.1420 C   0  0  0  0  0  0  0  0  0  0  0  0
   45.4870   33.0360   37.2170 C   0  0  0  0  0  0  0  0  0  0  0  0
   46.6900   33.3610   38.0370 C   0  0  0  0  0  0  0  0  0  0  0  0
   45.6729   35.2556   41.4571 H   0  0  0  0  0  0  0  0  0  0  0  0
   48.4898   36.1477   41.2859 H   0  0  0  0  0  0  0  0  0  0  0  0
   48.8019   35.7874   42.7503 H   0  0  0  0  0  0  0  0  0  0  0  0
   47.7959   32.9891   41.7844 H   0  0  0  0  0  0  0  0  0  0  0  0
   43.8227   36.2109   45.4351 H   0  0  0  0  0  0  0  0  0  0  0  0
   46.2991   32.7996   46.0085 H   0  0  0  0  0  0  0  0  0  0  0  0
   45.1020   36.9324   41.9890 H   0  0  0  0  0  0  0  0  0  0  0  0
   43.9998   37.4853   43.2782 H   0  0  0  0  0  0  0  0  0  0  0  0
   48.2318   34.5203   39.5198 H   0  0  0  0  0  0  0  0  0  0  0  0
   48.3833   32.7847   39.9543 H   0  0  0  0  0  0  0  0  0  0  0  0
   46.7355   31.4294   39.9337 H   0  0  0  0  0  0  0  0  0  0  0  0
   45.5174   32.3376   40.9386 H   0  0  0  0  0  0  0  0  0  0  0  0
   45.1727   30.8091   38.4780 H   0  0  0  0  0  0  0  0  0  0  0  0
   43.9806   31.3329   39.7183 H   0  0  0  0  0  0  0  0  0  0  0  0
   43.4457   32.4332   37.5715 H   0  0  0  0  0  0  0  0  0  0  0  0
   44.0186   33.6679   38.6938 H   0  0  0  0  0  0  0  0  0  0  0  0
   45.2474   33.8849   36.5598 H   0  0  0  0  0  0  0  0  0  0  0  0
   45.6853   32.1481   36.5987 H   0  0  0  0  0  0  0  0  0  0  0  0
   47.4508   32.5888   37.8504 H   0  0  0  0  0  0  0  0  0  0  0  0
   47.0117   34.3677   37.7318 H   0  0  0  0  0  0  0  0  0  0  0  0
  1  2  1  0
  1  6  1  0
  3  1  1  0
  3  2  1  0
  4  9  2  0
  5  4  1  0
  6  5  2  0
  6  7  1  0
  7  8  2  0
  8  9  1  0
 10  5  1  0
 11  3  1  0
 12 13  1  0
 12 11  1  0
 14 13  1  0
 15 14  1  0
 16 17  1  0
 16 15  1  0
 17 12  1  0
  1 18  1  6
  2 19  1  0
  2 20  1  0
  3 21  1  1
  4 22  1  0
  8 23  1  0
 10 24  1  0
 10 25  1  0
 11 26  1  0
 11 27  1  0
 13 28  1  0
 13 29  1  0
 14 30  1  0
 14 31  1  0
 15 32  1  0
 15 33  1  0
 16 34  1  0
 16 35  1  0
 17 36  1  0
 17 37  1  0
M  ISO  8  18  13  19  13  20  13  21  13  22  14  23  14  26   8  27   8
M  ISO  8  28  13  29  13  30  13  31  13  32  13  33  13  34  13  35  13
M  ISO  2  36  13  37  13
M  END
>  <minimizedAffinity>  (1) 
-4.59456873

>  <minimizedRMSD>  (1) 
0.717497826

$$$$
