
     RDKit          3D

 36 38  0  0  0  0  0  0  0  0999 V2000
   46.1510   32.6380   47.0650 C   0  0  0  0  0  0  0  0  0  0  0  0
   45.0880   32.3610   47.8650 C   0  0  0  0  0  0  0  0  0  0  0  0
   45.2550   31.6190   49.0150 C   0  0  0  0  0  0  0  0  0  0  0  0
   46.5290   31.1580   49.3400 C   0  0  0  0  0  0  0  0  0  0  0  0
   47.6060   31.4550   48.5000 C   0  0  0  0  0  0  0  0  0  0  0  0
   47.3650   32.1680   47.4240 N   0  0  0  0  0  0  0  0  0  0  0  0
   48.9340   30.9930   48.8080 N   0  0  0  0  0  0  0  0  0  0  0  0
   49.7810   31.8310   49.6280 C   0  0  0  0  0  0  0  0  0  0  0  0
   50.7120   31.0420   50.5010 C   0  0  0  0  0  0  0  0  0  0  0  0
   51.1590   29.7460   49.8860 C   0  0  0  0  0  0  0  0  0  0  0  0
   50.8450   29.6570   48.4150 C   0  0  0  0  0  0  0  0  0  0  0  0
   49.3420   29.7030   48.2700 C   0  0  0  0  0  0  0  0  0  0  0  0
   44.9540   35.0040   44.5410 C   0  0  0  0  0  0  0  0  0  0  0  0
   45.9070   34.8460   43.5170 C   0  0  0  0  0  0  0  0  0  0  0  0
   46.9470   33.9340   43.6990 C   0  0  0  0  0  0  0  0  0  0  0  0
   46.9710   33.2480   44.8730 N   0  0  0  0  0  0  0  0  0  0  0  0
   46.0480   33.4170   45.8340 C   0  0  0  0  0  0  0  0  0  0  0  0
   45.0410   34.2930   45.6720 N   0  0  0  0  0  0  0  0  0  0  0  0
   43.8880   35.9380   44.3580 N   0  0  0  0  0  0  0  0  0  0  0  0
   44.0883   32.7310   47.5934 H   0  0  0  0  0  0  0  0  0  0  0  0
   44.3966   31.3947   49.6652 H   0  0  0  0  0  0  0  0  0  0  0  0
   46.6863   30.5638   50.2522 H   0  0  0  0  0  0  0  0  0  0  0  0
   50.3801   32.4765   48.9689 H   0  0  0  0  0  0  0  0  0  0  0  0
   49.1256   32.4173   50.2888 H   0  0  0  0  0  0  0  0  0  0  0  0
   51.6019   31.6557   50.7045 H   0  0  0  0  0  0  0  0  0  0  0  0
   50.1591   30.7904   51.4180 H   0  0  0  0  0  0  0  0  0  0  0  0
   52.2467   29.6508   50.0193 H   0  0  0  0  0  0  0  0  0  0  0  0
   50.6128   28.9352   50.3902 H   0  0  0  0  0  0  0  0  0  0  0  0
   51.3003   30.5044   47.8815 H   0  0  0  0  0  0  0  0  0  0  0  0
   51.2480   28.7270   47.9875 H   0  0  0  0  0  0  0  0  0  0  0  0
   49.0561   29.6213   47.2110 H   0  0  0  0  0  0  0  0  0  0  0  0
   48.8571   28.8701   48.8002 H   0  0  0  0  0  0  0  0  0  0  0  0
   45.8329   35.4318   42.5889 H   0  0  0  0  0  0  0  0  0  0  0  0
   47.7142   33.7767   42.9265 H   0  0  0  0  0  0  0  0  0  0  0  0
   43.8248   36.4830   43.4863 H   0  0  0  0  0  0  0  0  0  0  0  0
   43.1829   36.0662   45.0978 H   0  0  0  0  0  0  0  0  0  0  0  0
  1  6  1  0
  1  2  2  0
  2  3  1  0
  3  4  2  0
  5  7  1  0
  5  4  1  0
  6  5  2  0
  7  8  1  0
  8  9  1  0
 10  9  1  0
 11 10  1  0
 12 11  1  0
 12  7  1  0
 13 18  2  0
 14 15  2  0
 14 13  1  0
 15 16  1  0
 16 17  2  0
 17  1  1  0
 18 17  1  0
 19 13  1  0
  2 20  1  0
  3 21  1  0
  4 22  1  0
  8 23  1  0
  8 24  1  0
  9 25  1  0
  9 26  1  0
 10 27  1  0
 10 28  1  0
 11 29  1  0
 11 30  1  0
 12 31  1  0
 12 32  1  0
 14 33  1  0
 15 34  1  0
 19 35  1  0
 19 36  1  0
M  ISO  8  20  14  21  14  22  14  23  13  24  13  25  13  26  13  27  13
M  ISO  7  28  13  29  13  30  13  31  13  32  13  33  14  34  14
M  END
>  <minimizedAffinity>  (1) 
-6.49268961

>  <minimizedRMSD>  (1) 
0.438661188

$$$$
