
     RDKit          3D

 54 58  0  0  0  0  0  0  0  0999 V2000
   46.3490   31.0550   49.0520 C   0  0  0  0  0  0  0  0  0  0  0  0
   46.4300   32.8440   45.9520 C   0  0  0  0  0  0  0  0  0  0  0  0
   47.3960   31.8510   45.7440 C   0  0  0  0  0  0  0  0  0  0  0  0
   47.4870   31.0810   46.8410 C   0  0  0  0  0  0  0  0  0  0  0  0
   46.5970   31.5780   47.7170 N   0  0  0  0  0  0  0  0  0  0  0  0
   45.9600   32.6290   47.2000 N   0  0  0  0  0  0  0  0  0  0  0  0
   44.6350   35.5930   44.3550 C   0  0  0  0  0  0  0  0  0  0  0  0
   45.3380   35.7910   43.1810 C   0  0  0  0  0  0  0  0  0  0  0  0
   46.4380   34.9760   42.9300 C   0  0  0  0  0  0  0  0  0  0  0  0
   46.7310   34.0430   43.8750 N   0  0  0  0  0  0  0  0  0  0  0  0
   46.0510   33.8650   44.9930 C   0  0  0  0  0  0  0  0  0  0  0  0
   44.9870   34.6500   45.2390 N   0  0  0  0  0  0  0  0  0  0  0  0
   47.3120   34.9850   41.8050 N   0  0  0  0  0  0  0  0  0  0  0  0
   47.0640   34.2650   40.5650 C   0  0  0  0  0  0  0  0  0  0  0  0
   48.1280   33.2080   40.4430 C   0  0  0  0  0  0  0  0  0  0  0  0
   49.1520   33.2840   41.5490 C   0  0  0  0  0  0  0  0  0  0  0  0
   49.6540   34.6780   41.8150 C   0  0  0  0  0  0  0  0  0  0  0  0
   48.5640   35.7230   41.7720 C   0  0  0  0  0  0  0  0  0  0  0  0
   45.0040   30.4310   49.1200 C   0  0  0  0  0  0  0  0  0  0  0  0
   44.9620   27.8900   48.7400 C   0  0  0  0  0  0  0  0  0  0  0  0
   44.8090   29.2110   48.3560 C   0  0  0  0  0  0  0  0  0  0  0  0
   44.4060   29.4100   47.0330 C   0  0  0  0  0  0  0  0  0  0  0  0
   44.1770   28.3620   46.1740 C   0  0  0  0  0  0  0  0  0  0  0  0
   43.7960   28.2580   44.8950 N   0  0  0  0  0  0  0  0  0  0  0  0
   43.7150   26.9840   44.5060 C   0  0  0  0  0  0  0  0  0  0  0  0
   44.0620   26.1710   45.5840 C   0  0  0  0  0  0  0  0  0  0  0  0
   44.3370   27.0640   46.5830 C   0  0  0  0  0  0  0  0  0  0  0  0
   44.7340   26.8500   47.8830 C   0  0  0  0  0  0  0  0  0  0  0  0
   44.9210   25.4910   48.3770 C   0  0  0  0  0  0  0  0  0  0  0  0
   45.2850   25.2490   49.5520 O   0  0  0  0  0  0  0  0  0  0  0  0
   46.4044   31.8778   49.7800 H   0  0  0  0  0  0  0  0  0  0  0  0
   47.1084   30.2939   49.2845 H   0  0  0  0  0  0  0  0  0  0  0  0
   47.9877   31.7219   44.8257 H   0  0  0  0  0  0  0  0  0  0  0  0
   48.1540   30.2193   46.9916 H   0  0  0  0  0  0  0  0  0  0  0  0
   43.7623   36.2275   44.5691 H   0  0  0  0  0  0  0  0  0  0  0  0
   45.0365   36.5704   42.4657 H   0  0  0  0  0  0  0  0  0  0  0  0
   46.0691   33.7966   40.5938 H   0  0  0  0  0  0  0  0  0  0  0  0
   47.0930   34.9491   39.7041 H   0  0  0  0  0  0  0  0  0  0  0  0
   47.6474   32.2191   40.4754 H   0  0  0  0  0  0  0  0  0  0  0  0
   48.6535   33.3731   39.4909 H   0  0  0  0  0  0  0  0  0  0  0  0
   48.6953   32.8974   42.4721 H   0  0  0  0  0  0  0  0  0  0  0  0
   50.0178   32.6869   41.2267 H   0  0  0  0  0  0  0  0  0  0  0  0
   50.1178   34.6979   42.8122 H   0  0  0  0  0  0  0  0  0  0  0  0
   50.3727   34.9233   41.0192 H   0  0  0  0  0  0  0  0  0  0  0  0
   48.6362   36.3151   40.8478 H   0  0  0  0  0  0  0  0  0  0  0  0
   48.6429   36.4277   42.6130 H   0  0  0  0  0  0  0  0  0  0  0  0
   44.7975   30.1994   50.1753 H   0  0  0  0  0  0  0  0  0  0  0  0
   44.3222   31.1662   48.6676 H   0  0  0  0  0  0  0  0  0  0  0  0
   45.2780   27.6696   49.7703 H   0  0  0  0  0  0  0  0  0  0  0  0
   44.2676   30.4382   46.6674 H   0  0  0  0  0  0  0  0  0  0  0  0
   43.5905   29.0627   44.2857 H   0  0  0  0  0  0  0  0  0  0  0  0
   43.4238   26.6346   43.5045 H   0  0  0  0  0  0  0  0  0  0  0  0
   44.1045   25.0725   45.6222 H   0  0  0  0  0  0  0  0  0  0  0  0
   44.7362   24.6483   47.6946 H   0  0  0  0  0  0  0  0  0  0  0  0
  1 19  1  0
  2  6  2  0
  3  2  1  0
  3  4  2  0
  4  5  1  0
  5  1  1  0
  6  5  1  0
  7 12  2  0
  8  7  1  0
  9  8  2  0
  9 10  1  0
 10 11  2  0
 11 12  1  0
 11  2  1  0
 13  9  1  0
 14 13  1  0
 15 14  1  0
 15 16  1  0
 16 17  1  0
 18 13  1  0
 18 17  1  0
 21 20  2  0
 21 19  1  0
 22 21  1  0
 23 27  1  0
 23 22  2  0
 24 23  1  0
 25 24  1  0
 25 26  2  0
 26 27  1  0
 27 28  2  0
 28 29  1  0
 28 20  1  0
 29 30  2  0
  1 31  1  0
  1 32  1  0
  3 33  1  0
  4 34  1  0
  7 35  1  0
  8 36  1  0
 14 37  1  0
 14 38  1  0
 15 39  1  0
 15 40  1  0
 16 41  1  0
 16 42  1  0
 17 43  1  0
 17 44  1  0
 18 45  1  0
 18 46  1  0
 19 47  1  0
 19 48  1  0
 20 49  1  0
 22 50  1  0
 24 51  1  0
 25 52  1  0
 26 53  1  0
 29 54  1  0
M  ISO  8  31   8  32   8  33  14  34  14  35  14  36  14  37  13  38  13
M  ISO  8  39  13  40  13  41  13  42  13  43  13  44  13  45  13  46  13
M  ISO  8  47   8  48   8  49  14  50  14  51   9  52  14  53  14  54   6
M  END
>  <minimizedAffinity>  (1) 
-5.94676638

>  <minimizedRMSD>  (1) 
1.19417393

$$$$
