
     RDKit          3D

 49 52  0  0  1  0  0  0  0  0999 V2000
   42.6030   34.6920   40.4960 C   0  0  0  0  0  0  0  0  0  0  0  0
   42.3140   35.2340   39.2600 C   0  0  0  0  0  0  0  0  0  0  0  0
   41.0800   35.1160   38.6620 C   0  0  0  0  0  0  0  0  0  0  0  0
   40.1330   34.4390   39.3330 N   0  0  0  0  0  0  0  0  0  0  0  0
   40.4040   33.8990   40.5520 C   0  0  0  0  0  0  0  0  0  0  0  0
   41.6120   34.0240   41.1200 N   0  0  0  0  0  0  0  0  0  0  0  0
   44.0130   34.6840   42.5340 C   0  0  1  0  0  0  0  0  0  0  0  0
   44.2510   36.0960   41.9010 C   0  0  0  0  0  0  0  0  0  0  0  0
   43.9850   34.8220   41.1060 C   0  0  2  0  0  0  0  0  0  0  0  0
   45.1720   34.1690   43.2890 C   0  0  0  0  0  0  0  0  0  0  0  0
   46.4250   34.1760   42.6530 C   0  0  0  0  0  0  0  0  0  0  0  0
   47.5250   33.6910   43.3570 C   0  0  0  0  0  0  0  0  0  0  0  0
   47.3260   33.2350   44.6280 N   0  0  0  0  0  0  0  0  0  0  0  0
   46.1190   33.2470   45.1940 C   0  0  0  0  0  0  0  0  0  0  0  0
   45.0600   33.7120   44.5190 N   0  0  0  0  0  0  0  0  0  0  0  0
   46.1080   32.7090   46.6030 C   0  0  0  0  0  0  0  0  0  0  0  0
   45.1320   33.3210   47.3730 F   0  0  0  0  0  0  0  0  0  0  0  0
   47.3380   33.0270   47.2200 F   0  0  0  0  0  0  0  0  0  0  0  0
   46.0240   31.3460   46.5760 F   0  0  0  0  0  0  0  0  0  0  0  0
   39.3820   33.1340   41.3180 C   0  0  0  0  0  0  0  0  0  0  0  0
   38.4800   32.3750   40.3760 C   0  0  0  0  0  0  0  0  0  0  0  0
   38.0530   31.0910   40.8310 N   0  0  0  0  0  0  0  0  0  0  0  0
   39.1420   30.5240   41.6200 C   0  0  0  0  0  0  0  0  0  0  0  0
   38.6260   29.2930   42.3700 C   0  0  0  0  0  0  0  0  0  0  0  0
   38.3070   28.2890   41.2810 C   0  0  0  0  0  0  0  0  0  0  0  0
   37.2760   28.8830   40.3760 C   0  0  0  0  0  0  0  0  0  0  0  0
   37.6800   30.1940   39.7550 C   0  0  0  0  0  0  0  0  0  0  0  0
   43.1048   35.7846   38.7295 H   0  0  0  0  0  0  0  0  0  0  0  0
   40.8773   35.5578   37.6752 H   0  0  0  0  0  0  0  0  0  0  0  0
   43.3083   34.1855   43.2158 H   0  0  0  0  0  0  0  0  0  0  0  0
   43.4855   36.8824   41.9760 H   0  0  0  0  0  0  0  0  0  0  0  0
   45.0284   36.8734   41.9381 H   0  0  0  0  0  0  0  0  0  0  0  0
   44.5192   34.3355   40.2766 H   0  0  0  0  0  0  0  0  0  0  0  0
   46.5345   34.5546   41.6260 H   0  0  0  0  0  0  0  0  0  0  0  0
   48.5260   33.6760   42.9012 H   0  0  0  0  0  0  0  0  0  0  0  0
   39.8878   32.4229   41.9877 H   0  0  0  0  0  0  0  0  0  0  0  0
   38.7743   33.8382   41.9052 H   0  0  0  0  0  0  0  0  0  0  0  0
   39.0209   32.2355   39.4284 H   0  0  0  0  0  0  0  0  0  0  0  0
   37.5661   32.9800   40.2818 H   0  0  0  0  0  0  0  0  0  0  0  0
   39.9665   30.2309   40.9535 H   0  0  0  0  0  0  0  0  0  0  0  0
   39.5076   31.2713   42.3396 H   0  0  0  0  0  0  0  0  0  0  0  0
   39.3979   28.8991   43.0476 H   0  0  0  0  0  0  0  0  0  0  0  0
   37.7510   29.5219   42.9961 H   0  0  0  0  0  0  0  0  0  0  0  0
   39.2177   28.0617   40.7074 H   0  0  0  0  0  0  0  0  0  0  0  0
   37.9265   27.3579   41.7263 H   0  0  0  0  0  0  0  0  0  0  0  0
   37.0734   28.1661   39.5667 H   0  0  0  0  0  0  0  0  0  0  0  0
   36.3911   29.0871   40.9967 H   0  0  0  0  0  0  0  0  0  0  0  0
   38.5350   30.0418   39.0799 H   0  0  0  0  0  0  0  0  0  0  0  0
   36.8503   30.6165   39.1693 H   0  0  0  0  0  0  0  0  0  0  0  0
  1  9  1  0
  1  6  1  0
  2  1  2  0
  3  2  1  0
  3  4  2  0
  4  5  1  0
  5  6  2  0
  5 20  1  0
  7 10  1  0
  8  7  1  0
  9  8  1  0
  9  7  1  0
 10 15  1  0
 11 10  2  0
 11 12  1  0
 12 13  2  0
 13 14  1  0
 14 16  1  0
 15 14  2  0
 16 18  1  0
 16 17  1  0
 19 16  1  0
 21 22  1  0
 21 20  1  0
 22 23  1  0
 23 24  1  0
 25 24  1  0
 26 25  1  0
 27 26  1  0
 27 22  1  0
  2 28  1  0
  3 29  1  0
  7 30  1  1
  8 31  1  0
  8 32  1  0
  9 33  1  6
 11 34  1  0
 12 35  1  0
 20 36  1  0
 20 37  1  0
 21 38  1  0
 21 39  1  0
 23 40  1  0
 23 41  1  0
 24 42  1  0
 24 43  1  0
 25 44  1  0
 25 45  1  0
 26 46  1  0
 26 47  1  0
 27 48  1  0
 27 49  1  0
M  ISO  8  28  14  29  14  30  13  31  13  32  13  33  13  34  14  35  14
M  ISO  8  36   8  37   8  38   8  39   8  40  13  41  13  42  13  43  13
M  ISO  6  44  13  45  13  46  13  47  13  48  13  49  13
M  END
>  <minimizedAffinity>  (1) 
-5.78610039

>  <minimizedRMSD>  (1) 
1.1146723

$$$$
