
     RDKit          3D

 29 30  0  0  0  0  0  0  0  0999 V2000
   43.7470   35.4580   41.5410 S   0  0  0  0  0  0  0  0  0  0  0  0
   44.2480   35.7450   44.2500 C   0  0  0  0  0  0  0  0  0  0  0  0
   44.4030   34.9100   43.1330 C   0  0  0  0  0  0  0  0  0  0  0  0
   45.0440   33.6900   43.2340 C   0  0  0  0  0  0  0  0  0  0  0  0
   45.5150   33.3460   44.4780 N   0  0  0  0  0  0  0  0  0  0  0  0
   45.3530   34.1660   45.5370 C   0  0  0  0  0  0  0  0  0  0  0  0
   44.7410   35.3390   45.4580 N   0  0  0  0  0  0  0  0  0  0  0  0
   42.1590   34.6690   41.2560 C   0  0  0  0  0  0  0  0  0  0  0  0
   41.4680   35.4020   40.2110 N   0  0  0  0  0  0  0  0  0  0  0  0
   40.0890   35.6290   40.4490 C   0  0  0  0  0  0  0  0  0  0  0  0
   39.1260   34.7770   39.6740 C   0  0  0  0  0  0  0  0  0  0  0  0
   39.5720   34.5260   38.2550 C   0  0  0  0  0  0  0  0  0  0  0  0
   40.8040   35.3140   37.8940 C   0  0  0  0  0  0  0  0  0  0  0  0
   41.8530   34.9820   38.9100 C   0  0  0  0  0  0  0  0  0  0  0  0
   43.7362   36.7140   44.1544 H   0  0  0  0  0  0  0  0  0  0  0  0
   45.1705   33.0289   42.3640 H   0  0  0  0  0  0  0  0  0  0  0  0
   45.7477   33.8458   46.5126 H   0  0  0  0  0  0  0  0  0  0  0  0
   42.3127   33.6266   40.9401 H   0  0  0  0  0  0  0  0  0  0  0  0
   41.5623   34.6726   42.1801 H   0  0  0  0  0  0  0  0  0  0  0  0
   39.9017   35.4561   41.5191 H   0  0  0  0  0  0  0  0  0  0  0  0
   39.9015   36.6594   40.1128 H   0  0  0  0  0  0  0  0  0  0  0  0
   39.0240   33.8088   40.1860 H   0  0  0  0  0  0  0  0  0  0  0  0
   38.1701   35.3194   39.6277 H   0  0  0  0  0  0  0  0  0  0  0  0
   39.7907   33.4544   38.1375 H   0  0  0  0  0  0  0  0  0  0  0  0
   38.7600   34.8466   37.5858 H   0  0  0  0  0  0  0  0  0  0  0  0
   41.1504   35.0330   36.8885 H   0  0  0  0  0  0  0  0  0  0  0  0
   40.5910   36.3932   37.8897 H   0  0  0  0  0  0  0  0  0  0  0  0
   42.0113   33.8935   38.9179 H   0  0  0  0  0  0  0  0  0  0  0  0
   42.7784   35.5100   38.6363 H   0  0  0  0  0  0  0  0  0  0  0  0
  1  3  1  0
  2  7  2  0
  3  4  2  0
  3  2  1  0
  4  5  1  0
  5  6  2  0
  7  6  1  0
  8  1  1  0
  9 10  1  0
  9  8  1  0
 11 10  1  0
 12 11  1  0
 13 12  1  0
 13 14  1  0
 14  9  1  0
  2 15  1  0
  4 16  1  0
  6 17  1  0
  8 18  1  0
  8 19  1  0
 10 20  1  0
 10 21  1  0
 11 22  1  0
 11 23  1  0
 12 24  1  0
 12 25  1  0
 13 26  1  0
 13 27  1  0
 14 28  1  0
 14 29  1  0
M  ISO  8  15  14  16  14  17  14  18   8  19   8  20  13  21  13  22  13
M  ISO  7  23  13  24  13  25  13  26  13  27  13  28  13  29  13
M  END
>  <minimizedAffinity>  (1) 
-4.66588211

>  <minimizedRMSD>  (1) 
3.33143854

$$$$
