
     RDKit          3D

 41 43  0  0  0  0  0  0  0  0999 V2000
   46.2760   32.0010   47.2280 C   0  0  0  0  0  0  0  0  0  0  0  0
   45.2460   32.2880   48.1050 C   0  0  0  0  0  0  0  0  0  0  0  0
   44.6830   31.3790   48.9640 C   0  0  0  0  0  0  0  0  0  0  0  0
   45.1880   30.1060   48.9330 C   0  0  0  0  0  0  0  0  0  0  0  0
   46.2290   29.7880   48.0590 C   0  0  0  0  0  0  0  0  0  0  0  0
   46.7830   30.7310   47.2010 C   0  0  0  0  0  0  0  0  0  0  0  0
   47.8210   29.9210   46.5880 N   0  0  0  0  0  0  0  0  0  0  0  0
   47.9090   29.3880   45.2140 C   0  0  0  0  0  0  0  0  0  0  0  0
   49.3600   29.3380   44.8160 C   0  0  0  0  0  0  0  0  0  0  0  0
   50.0220   28.3990   45.8260 C   0  0  0  0  0  0  0  0  0  0  0  0
   50.1390   29.1770   47.0920 C   0  0  0  0  0  0  0  0  0  0  0  0
   48.8240   29.6350   47.6060 C   0  0  0  0  0  0  0  0  0  0  0  0
   46.9350   32.8700   46.2420 C   0  0  0  0  0  0  0  0  0  0  0  0
   46.3650   32.6940   44.8600 C   0  0  0  0  0  0  0  0  0  0  0  0
   44.5340   35.8910   44.7640 C   0  0  0  0  0  0  0  0  0  0  0  0
   44.9080   36.4050   43.4920 C   0  0  0  0  0  0  0  0  0  0  0  0
   45.7790   35.6390   42.7400 C   0  0  0  0  0  0  0  0  0  0  0  0
   46.2320   34.4750   43.2120 N   0  0  0  0  0  0  0  0  0  0  0  0
   45.8360   34.0320   44.4380 C   0  0  0  0  0  0  0  0  0  0  0  0
   45.0110   34.7160   45.2020 N   0  0  0  0  0  0  0  0  0  0  0  0
   44.8515   33.3148   48.1143 H   0  0  0  0  0  0  0  0  0  0  0  0
   43.8655   31.6586   49.6449 H   0  0  0  0  0  0  0  0  0  0  0  0
   44.7729   29.3338   49.5973 H   0  0  0  0  0  0  0  0  0  0  0  0
   46.6225   28.7609   48.0489 H   0  0  0  0  0  0  0  0  0  0  0  0
   47.4793   28.3760   45.1798 H   0  0  0  0  0  0  0  0  0  0  0  0
   47.3491   30.0337   44.5215 H   0  0  0  0  0  0  0  0  0  0  0  0
   49.4663   28.9428   43.7950 H   0  0  0  0  0  0  0  0  0  0  0  0
   49.8215   30.3365   44.8198 H   0  0  0  0  0  0  0  0  0  0  0  0
   49.3999   27.5053   45.9823 H   0  0  0  0  0  0  0  0  0  0  0  0
   51.0046   28.0535   45.4722 H   0  0  0  0  0  0  0  0  0  0  0  0
   50.6124   28.5403   47.8539 H   0  0  0  0  0  0  0  0  0  0  0  0
   50.7421   30.0716   46.8779 H   0  0  0  0  0  0  0  0  0  0  0  0
   48.9883   30.5537   48.1883 H   0  0  0  0  0  0  0  0  0  0  0  0
   48.4234   28.8009   48.2008 H   0  0  0  0  0  0  0  0  0  0  0  0
   46.8032   33.9180   46.5490 H   0  0  0  0  0  0  0  0  0  0  0  0
   47.9994   32.5948   46.2065 H   0  0  0  0  0  0  0  0  0  0  0  0
   47.1504   32.3608   44.1657 H   0  0  0  0  0  0  0  0  0  0  0  0
   45.5694   31.9344   44.8541 H   0  0  0  0  0  0  0  0  0  0  0  0
   43.8431   36.4655   45.3985 H   0  0  0  0  0  0  0  0  0  0  0  0
   44.5223   37.3671   43.1237 H   0  0  0  0  0  0  0  0  0  0  0  0
   46.1004   35.9900   41.7483 H   0  0  0  0  0  0  0  0  0  0  0  0
  1  2  2  0
  2  3  1  0
  4  3  2  0
  5  4  1  0
  6  1  1  0
  6  5  2  0
  7  6  1  0
  7 12  1  0
  8  7  1  0
  9  8  1  0
  9 10  1  0
 10 11  1  0
 11 12  1  0
 13  1  1  0
 14 13  1  0
 15 20  2  0
 16 15  1  0
 17 18  1  0
 17 16  2  0
 18 19  2  0
 19 14  1  0
 19 20  1  0
  2 21  1  0
  3 22  1  0
  4 23  1  0
  5 24  1  0
  8 25  1  0
  8 26  1  0
  9 27  1  0
  9 28  1  0
 10 29  1  0
 10 30  1  0
 11 31  1  0
 11 32  1  0
 12 33  1  0
 12 34  1  0
 13 35  1  0
 13 36  1  0
 14 37  1  0
 14 38  1  0
 15 39  1  0
 16 40  1  0
 17 41  1  0
M  ISO  8  21  14  22  14  23  14  24  14  25  13  26  13  27  13  28  13
M  ISO  8  29  13  30  13  31  13  32  13  33  13  34  13  35   8  36   8
M  ISO  5  37   8  38   8  39  14  40  14  41  14
M  END
>  <minimizedAffinity>  (1) 
-4.89682007

>  <minimizedRMSD>  (1) 
1.79191971

$$$$
