
     RDKit          3D

 33 34  0  0  0  0  0  0  0  0999 V2000
   45.3350   30.8120   47.3970 O   0  0  0  0  0  0  0  0  0  0  0  0
   45.8330   32.0500   48.1640 P   0  0  2  0  0  0  0  0  0  0  0  0
   45.2680   31.8610   49.7420 O   0  0  0  0  0  0  0  0  0  0  0  0
   45.1310   33.4220   47.4650 O   0  0  0  0  0  0  0  0  0  0  0  0
   46.8340   33.4720   44.2520 C   0  0  0  0  0  0  0  0  0  0  0  0
   46.4700   33.1150   45.5650 C   0  0  0  0  0  0  0  0  0  0  0  0
   45.4540   33.8040   46.1810 C   0  0  0  0  0  0  0  0  0  0  0  0
   44.8350   34.8110   45.4950 N   0  0  0  0  0  0  0  0  0  0  0  0
   45.2010   35.1350   44.2390 C   0  0  0  0  0  0  0  0  0  0  0  0
   46.1930   34.4740   43.6190 N   0  0  0  0  0  0  0  0  0  0  0  0
   47.4810   32.1450   48.0990 O   0  0  0  0  0  0  0  0  0  0  0  0
   48.4350   31.5690   48.8660 C   0  0  0  0  0  0  0  0  0  0  0  0
   47.9930   30.6940   49.6880 O   0  0  0  0  0  0  0  0  0  0  0  0
   49.7670   31.3650   49.3180 N   0  0  0  0  0  0  0  0  0  0  0  0
   50.3710   30.3210   48.5200 C   0  0  0  0  0  0  0  0  0  0  0  0
   51.7840   30.0810   48.9480 C   0  0  0  0  0  0  0  0  0  0  0  0
   51.9780   29.9700   50.4310 C   0  0  0  0  0  0  0  0  0  0  0  0
   51.1470   30.9050   51.2450 C   0  0  0  0  0  0  0  0  0  0  0  0
   50.5250   31.9990   50.3680 C   0  0  0  0  0  0  0  0  0  0  0  0
   45.9856   32.1010   50.3804 H   0  0  0  0  0  0  0  0  0  0  0  0
   47.6444   32.9309   43.7416 H   0  0  0  0  0  0  0  0  0  0  0  0
   46.9902   32.2989   46.0878 H   0  0  0  0  0  0  0  0  0  0  0  0
   44.6812   35.9506   43.7150 H   0  0  0  0  0  0  0  0  0  0  0  0
   50.3601   30.6226   47.4622 H   0  0  0  0  0  0  0  0  0  0  0  0
   49.7967   29.3929   48.6574 H   0  0  0  0  0  0  0  0  0  0  0  0
   52.1277   29.1437   48.4861 H   0  0  0  0  0  0  0  0  0  0  0  0
   52.3610   30.9595   48.6235 H   0  0  0  0  0  0  0  0  0  0  0  0
   51.7296   28.9416   50.7321 H   0  0  0  0  0  0  0  0  0  0  0  0
   53.0265   30.2395   50.6261 H   0  0  0  0  0  0  0  0  0  0  0  0
   50.3425   30.3367   51.7347 H   0  0  0  0  0  0  0  0  0  0  0  0
   51.7939   31.3844   51.9944 H   0  0  0  0  0  0  0  0  0  0  0  0
   51.3199   32.6200   49.9292 H   0  0  0  0  0  0  0  0  0  0  0  0
   49.8681   32.6406   50.9736 H   0  0  0  0  0  0  0  0  0  0  0  0
  2  1  2  0
  2  3  1  0
  4  2  1  0
  5  6  2  0
  6  7  1  0
  7  4  1  0
  8  7  2  0
  9  8  1  0
 10  9  2  0
 10  5  1  0
 11  2  1  0
 11 12  1  0
 12 14  1  0
 12 13  2  0
 14 19  1  0
 15 16  1  0
 15 14  1  0
 16 17  1  0
 17 18  1  0
 19 18  1  0
  3 20  1  0
  5 21  1  0
  6 22  1  0
  9 23  1  0
 15 24  1  0
 15 25  1  0
 16 26  1  0
 16 27  1  0
 17 28  1  0
 17 29  1  0
 18 30  1  0
 18 31  1  0
 19 32  1  0
 19 33  1  0
M  ISO  8  20   3  21  14  22  14  23  14  24  13  25  13  26  13  27  13
M  ISO  6  28  13  29  13  30  13  31  13  32  13  33  13
M  END
>  <minimizedAffinity>  (1) 
-5.09095764

>  <minimizedRMSD>  (1) 
1.57335126

$$$$
