
     RDKit          3D

 34 35  0  0  0  0  0  0  0  0999 V2000
   48.6290   33.6240   42.9190 C   0  0  0  0  0  0  0  0  0  0  0  0
   47.1290   33.7540   42.8680 C   0  0  0  0  0  0  0  0  0  0  0  0
   45.1210   34.2930   46.0140 C   0  0  0  0  0  0  0  0  0  0  0  0
   45.6340   34.4600   44.7030 C   0  0  0  0  0  0  0  0  0  0  0  0
   46.6040   33.5620   44.2470 C   0  0  0  0  0  0  0  0  0  0  0  0
   47.0160   32.5700   45.0720 N   0  0  0  0  0  0  0  0  0  0  0  0
   46.4960   32.4510   46.3160 C   0  0  0  0  0  0  0  0  0  0  0  0
   45.5660   33.2930   46.7860 N   0  0  0  0  0  0  0  0  0  0  0  0
   44.1500   35.1700   46.5070 N   0  0  0  0  0  0  0  0  0  0  0  0
   48.9910   32.2990   42.9140 O   0  0  0  0  0  0  0  0  0  0  0  0
   49.7180   30.2870   41.4180 O   0  0  0  0  0  0  0  0  0  0  0  0
   49.4740   31.7810   41.3740 P   0  0  2  0  0  0  0  0  0  0  0  0
   50.8550   32.6440   40.9760 O   0  0  0  0  0  0  0  0  0  0  0  0
   48.2800   32.1520   40.2520 O   0  0  0  0  0  0  0  0  0  0  0  0
   48.0190   34.7800   39.7580 F   0  0  0  0  0  0  0  0  0  0  0  0
   48.2480   33.8500   38.7730 C   0  0  0  0  0  0  0  0  0  0  0  0
   48.3980   32.4640   38.9330 C   0  0  0  0  0  0  0  0  0  0  0  0
   48.6230   31.7360   37.7840 C   0  0  0  0  0  0  0  0  0  0  0  0
   48.6980   32.3250   36.5540 C   0  0  0  0  0  0  0  0  0  0  0  0
   48.5540   33.6780   36.3800 C   0  0  0  0  0  0  0  0  0  0  0  0
   48.3270   34.4430   37.5060 C   0  0  0  0  0  0  0  0  0  0  0  0
   49.0670   34.1236   42.0423 H   0  0  0  0  0  0  0  0  0  0  0  0
   48.9986   34.0935   43.8426 H   0  0  0  0  0  0  0  0  0  0  0  0
   46.8531   34.7529   42.4992 H   0  0  0  0  0  0  0  0  0  0  0  0
   46.7029   33.0012   42.1885 H   0  0  0  0  0  0  0  0  0  0  0  0
   45.2771   35.2774   44.0592 H   0  0  0  0  0  0  0  0  0  0  0  0
   46.8492   31.6348   46.9634 H   0  0  0  0  0  0  0  0  0  0  0  0
   43.8047   35.9405   45.9170 H   0  0  0  0  0  0  0  0  0  0  0  0
   43.7800   35.0456   47.4601 H   0  0  0  0  0  0  0  0  0  0  0  0
   51.3148   32.9313   41.8044 H   0  0  0  0  0  0  0  0  0  0  0  0
   48.7461   30.6456   37.8604 H   0  0  0  0  0  0  0  0  0  0  0  0
   48.8801   31.6926   35.6726 H   0  0  0  0  0  0  0  0  0  0  0  0
   48.6170   34.1355   35.3816 H   0  0  0  0  0  0  0  0  0  0  0  0
   48.2066   35.5319   37.4076 H   0  0  0  0  0  0  0  0  0  0  0  0
  2  1  1  0
  2  5  1  0
  3  9  1  0
  3  8  2  0
  4  3  1  0
  5  4  2  0
  5  6  1  0
  6  7  2  0
  7  8  1  0
 10  1  1  0
 12 11  2  0
 12 10  1  0
 13 12  1  0
 14 12  1  0
 16 17  2  0
 16 15  1  0
 17 14  1  0
 18 17  1  0
 19 18  2  0
 20 19  1  0
 20 21  2  0
 21 16  1  0
  1 22  1  0
  1 23  1  0
  2 24  1  0
  2 25  1  0
  4 26  1  0
  7 27  1  0
  9 28  1  0
  9 29  1  0
 13 30  1  0
 18 31  1  0
 19 32  1  0
 20 33  1  0
 21 34  1  0
M  ISO  8  22   8  23   8  24   8  25   8  26  14  27  14  30   3  31  14
M  ISO  3  32  14  33  14  34  14
M  END
>  <minimizedAffinity>  (1) 
-4.83109808

>  <minimizedRMSD>  (1) 
2.08810472

$$$$
