
     RDKit          3D

 51 53  0  0  0  0  0  0  0  0999 V2000
   46.1650   34.5710   43.5980 C   0  0  0  0  0  0  0  0  0  0  0  0
   46.1720   33.7970   44.7340 C   0  0  0  0  0  0  0  0  0  0  0  0
   45.3380   34.1850   45.7500 C   0  0  0  0  0  0  0  0  0  0  0  0
   44.5620   35.2800   45.6040 N   0  0  0  0  0  0  0  0  0  0  0  0
   44.5560   36.0240   44.5050 C   0  0  0  0  0  0  0  0  0  0  0  0
   45.3600   35.6520   43.5250 N   0  0  0  0  0  0  0  0  0  0  0  0
   47.0070   34.1200   42.4830 C   0  0  0  0  0  0  0  0  0  0  0  0
   48.3890   34.6980   42.5730 C   0  0  0  0  0  0  0  0  0  0  0  0
   48.7030   35.5810   41.4510 C   0  0  0  0  0  0  0  0  0  0  0  0
   48.5100   34.8920   40.1170 C   0  0  0  0  0  0  0  0  0  0  0  0
   47.2630   34.1030   40.0340 C   0  0  0  0  0  0  0  0  0  0  0  0
   46.3290   34.3990   41.1880 C   0  0  0  0  0  0  0  0  0  0  0  0
   46.8550   32.7010   45.0620 O   0  0  0  0  0  0  0  0  0  0  0  0
   47.2770   32.1640   46.2480 C   0  0  0  0  0  0  0  0  0  0  0  0
   47.1600   30.6500   46.3020 C   0  0  0  0  0  0  0  0  0  0  0  0
   45.9940   30.1600   45.6000 N   0  0  0  0  0  0  0  0  0  0  0  0
   44.8180   29.7130   46.8070 S   0  0  0  0  0  0  0  0  0  0  0  0
   43.5970   29.1170   46.1760 O   0  0  0  0  0  0  0  0  0  0  0  0
   44.4630   30.9600   47.5620 O   0  0  0  0  0  0  0  0  0  0  0  0
   45.4740   28.6330   47.9050 O   0  0  0  0  0  0  0  0  0  0  0  0
   44.0950   27.1690   49.7120 F   0  0  0  0  0  0  0  0  0  0  0  0
   44.6140   26.5850   48.5970 C   0  0  0  0  0  0  0  0  0  0  0  0
   45.3340   27.2800   47.6280 C   0  0  0  0  0  0  0  0  0  0  0  0
   45.8220   26.6000   46.5300 C   0  0  0  0  0  0  0  0  0  0  0  0
   45.5990   25.2450   46.3930 C   0  0  0  0  0  0  0  0  0  0  0  0
   44.8830   24.5080   47.3390 C   0  0  0  0  0  0  0  0  0  0  0  0
   44.4130   25.2260   48.4200 C   0  0  0  0  0  0  0  0  0  0  0  0
   45.3009   33.6046   46.6837 H   0  0  0  0  0  0  0  0  0  0  0  0
   43.9108   36.9103   44.4142 H   0  0  0  0  0  0  0  0  0  0  0  0
   47.1410   33.0300   42.5459 H   0  0  0  0  0  0  0  0  0  0  0  0
   48.4703   35.2729   43.5073 H   0  0  0  0  0  0  0  0  0  0  0  0
   49.1025   33.8611   42.5483 H   0  0  0  0  0  0  0  0  0  0  0  0
   48.0435   36.4603   41.4955 H   0  0  0  0  0  0  0  0  0  0  0  0
   49.7604   35.8727   41.5333 H   0  0  0  0  0  0  0  0  0  0  0  0
   48.4893   35.6592   39.3290 H   0  0  0  0  0  0  0  0  0  0  0  0
   49.3462   34.1881   39.9933 H   0  0  0  0  0  0  0  0  0  0  0  0
   46.7510   34.3455   39.0911 H   0  0  0  0  0  0  0  0  0  0  0  0
   47.5309   33.0370   40.0775 H   0  0  0  0  0  0  0  0  0  0  0  0
   46.0332   35.4579   41.1535 H   0  0  0  0  0  0  0  0  0  0  0  0
   45.4395   33.7575   41.1032 H   0  0  0  0  0  0  0  0  0  0  0  0
   48.3317   32.4375   46.3986 H   0  0  0  0  0  0  0  0  0  0  0  0
   46.6253   32.5678   47.0368 H   0  0  0  0  0  0  0  0  0  0  0  0
   48.0583   30.2100   45.8443 H   0  0  0  0  0  0  0  0  0  0  0  0
   47.0613   30.3595   47.3583 H   0  0  0  0  0  0  0  0  0  0  0  0
   45.6123   30.8979   44.9912 H   0  0  0  0  0  0  0  0  0  0  0  0
   42.9747   28.8133   46.8835 H   0  0  0  0  0  0  0  0  0  0  0  0
   44.5135   30.7825   48.5347 H   0  0  0  0  0  0  0  0  0  0  0  0
   46.3917   27.1412   45.7602 H   0  0  0  0  0  0  0  0  0  0  0  0
   45.9989   24.7277   45.5084 H   0  0  0  0  0  0  0  0  0  0  0  0
   44.7056   23.4279   47.2298 H   0  0  0  0  0  0  0  0  0  0  0  0
   43.8428   24.6849   49.1895 H   0  0  0  0  0  0  0  0  0  0  0  0
  1  2  1  0
  2 13  1  0
  2  3  2  0
  4  3  1  0
  5  4  2  0
  6  1  2  0
  6  5  1  0
  7  8  1  0
  7  1  1  0
  9  8  1  0
 10  9  1  0
 11 10  1  0
 11 12  1  0
 12  7  1  0
 13 14  1  0
 14 15  1  0
 16 15  1  0
 16 17  1  0
 17 19  1  0
 17 20  1  0
 18 17  1  0
 22 21  1  0
 23 20  1  0
 23 22  2  0
 24 23  1  0
 25 24  2  0
 25 26  1  0
 26 27  2  0
 27 22  1  0
  3 28  1  0
  5 29  1  0
  7 30  1  0
  8 31  1  0
  8 32  1  0
  9 33  1  0
  9 34  1  0
 10 35  1  0
 10 36  1  0
 11 37  1  0
 11 38  1  0
 12 39  1  0
 12 40  1  0
 14 41  1  0
 14 42  1  0
 15 43  1  0
 15 44  1  0
 16 45  1  0
 18 46  1  0
 19 47  1  0
 24 48  1  0
 25 49  1  0
 26 50  1  0
 27 51  1  0
M  ISO  8  28  14  29  14  30  13  31  13  32  13  33  13  34  13  35  13
M  ISO  8  36  13  37  13  38  13  39  13  40  13  41   8  42   8  43   8
M  ISO  8  44   8  45   5  46   3  47   3  48  14  49  14  50  14  51  14
M  END
>  <minimizedAffinity>  (1) 
-5.96756029

>  <minimizedRMSD>  (1) 
1.14166021

$$$$
