
     RDKit          3D

 50 52  0  0  1  0  0  0  0  0999 V2000
   46.7300   34.4180   43.3110 N   0  0  0  0  0  0  0  0  0  0  0  0
   46.4800   34.8520   41.9920 C   0  0  0  0  0  0  0  0  0  0  0  0
   45.0310   34.7650   41.5600 C   0  0  0  0  0  0  0  0  0  0  0  0
   44.0310   34.9780   42.6750 C   0  0  0  0  0  0  0  0  0  0  0  0
   44.7300   35.3810   43.9640 C   0  0  0  0  0  0  0  0  0  0  0  0
   45.7230   34.1800   44.2120 C   0  0  2  0  0  0  0  0  0  0  0  0
   47.9710   33.6840   43.4600 C   0  0  0  0  0  0  0  0  0  0  0  0
   47.8010   32.3390   42.8350 C   0  0  0  0  0  0  0  0  0  0  0  0
   51.2520   32.1120   41.3580 C   0  0  0  0  0  0  0  0  0  0  0  0
   50.1990   32.3280   42.2650 C   0  0  0  0  0  0  0  0  0  0  0  0
   48.9080   32.1060   41.8670 C   0  0  0  0  0  0  0  0  0  0  0  0
   48.7180   31.6860   40.6100 N   0  0  0  0  0  0  0  0  0  0  0  0
   49.7200   31.4810   39.7480 C   0  0  0  0  0  0  0  0  0  0  0  0
   50.9960   31.6880   40.1050 N   0  0  0  0  0  0  0  0  0  0  0  0
   46.1040   34.4100   45.5240 O   0  0  0  0  0  0  0  0  0  0  0  0
   45.6010   31.8000   45.6600 O   0  0  0  0  0  0  0  0  0  0  0  0
   46.0080   33.0260   46.4860 P   0  0  2  0  0  0  0  0  0  0  0  0
   44.7310   33.3010   47.5710 O   0  0  0  0  0  0  0  0  0  0  0  0
   47.4070   32.7720   47.3670 O   0  0  0  0  0  0  0  0  0  0  0  0
   47.0790   31.9620   48.4640 C   0  0  0  0  0  0  0  0  0  0  0  0
   47.1800   29.4990   47.2730 F   0  0  0  0  0  0  0  0  0  0  0  0
   48.2110   29.8730   48.0830 C   0  0  0  0  0  0  0  0  0  0  0  0
   48.2630   31.1110   48.7390 C   0  0  0  0  0  0  0  0  0  0  0  0
   49.3570   31.3770   49.5310 C   0  0  0  0  0  0  0  0  0  0  0  0
   50.3740   30.4580   49.6780 C   0  0  0  0  0  0  0  0  0  0  0  0
   50.3470   29.2220   49.0390 C   0  0  0  0  0  0  0  0  0  0  0  0
   49.2480   28.9740   48.2530 C   0  0  0  0  0  0  0  0  0  0  0  0
   46.7992   35.9015   41.9105 H   0  0  0  0  0  0  0  0  0  0  0  0
   47.0419   34.1756   41.3311 H   0  0  0  0  0  0  0  0  0  0  0  0
   44.8554   35.5305   40.7899 H   0  0  0  0  0  0  0  0  0  0  0  0
   44.8751   33.7406   41.1909 H   0  0  0  0  0  0  0  0  0  0  0  0
   43.3297   35.7733   42.3822 H   0  0  0  0  0  0  0  0  0  0  0  0
   43.4929   34.0344   42.8483 H   0  0  0  0  0  0  0  0  0  0  0  0
   45.2761   36.3277   43.8395 H   0  0  0  0  0  0  0  0  0  0  0  0
   44.0367   35.5532   44.8004 H   0  0  0  0  0  0  0  0  0  0  0  0
   45.3666   33.1469   44.0870 H   0  0  0  0  0  0  0  0  0  0  0  0
   48.7859   34.2264   42.9584 H   0  0  0  0  0  0  0  0  0  0  0  0
   48.2209   33.5766   44.5258 H   0  0  0  0  0  0  0  0  0  0  0  0
   47.8258   31.5646   43.6158 H   0  0  0  0  0  0  0  0  0  0  0  0
   46.8353   32.2946   42.3101 H   0  0  0  0  0  0  0  0  0  0  0  0
   52.2906   32.2903   41.6734 H   0  0  0  0  0  0  0  0  0  0  0  0
   50.4114   32.6731   43.2876 H   0  0  0  0  0  0  0  0  0  0  0  0
   49.4934   31.1365   38.7282 H   0  0  0  0  0  0  0  0  0  0  0  0
   45.0659   33.2289   48.4999 H   0  0  0  0  0  0  0  0  0  0  0  0
   46.8498   32.5862   49.3403 H   0  0  0  0  0  0  0  0  0  0  0  0
   46.1927   31.3469   48.2490 H   0  0  0  0  0  0  0  0  0  0  0  0
   49.4209   32.3412   50.0566 H   0  0  0  0  0  0  0  0  0  0  0  0
   51.2319   30.7090   50.3191 H   0  0  0  0  0  0  0  0  0  0  0  0
   51.1573   28.4874   49.1563 H   0  0  0  0  0  0  0  0  0  0  0  0
   49.1897   28.0078   47.7304 H   0  0  0  0  0  0  0  0  0  0  0  0
  1  7  1  0
  1  6  1  0
  2  1  1  0
  3  2  1  0
  3  4  1  0
  4  5  1  0
  5  6  1  0
  6 15  1  0
  8  7  1  0
  9 10  2  0
 11 10  1  0
 11  8  1  0
 12 11  2  0
 13 14  2  0
 13 12  1  0
 14  9  1  0
 15 17  1  0
 17 16  2  0
 17 19  1  0
 17 18  1  0
 19 20  1  0
 20 23  1  0
 21 22  1  0
 22 27  2  0
 22 23  1  0
 23 24  2  0
 24 25  1  0
 26 25  2  0
 27 26  1  0
  2 28  1  0
  2 29  1  0
  3 30  1  0
  3 31  1  0
  4 32  1  0
  4 33  1  0
  5 34  1  0
  5 35  1  0
  6 36  1  1
  7 37  1  0
  7 38  1  0
  8 39  1  0
  8 40  1  0
  9 41  1  0
 10 42  1  0
 13 43  1  0
 18 44  1  0
 20 45  1  0
 20 46  1  0
 24 47  1  0
 25 48  1  0
 26 49  1  0
 27 50  1  0
M  ISO  8  28  13  29  13  30  13  31  13  32  13  33  13  34  13  35  13
M  ISO  8  36  13  37   8  38   8  39   8  40   8  41  14  42  14  43  14
M  ISO  7  44   3  45   8  46   8  47  14  48  14  49  14  50  14
M  END
>  <minimizedAffinity>  (1) 
-5.22605038

>  <minimizedRMSD>  (1) 
3.08404112

$$$$
