
     RDKit          3D

 42 46  0  0  1  0  0  0  0  0999 V2000
   47.2040   33.9040   40.5710 C   0  0  1  0  0  0  0  0  0  0  0  0
   48.2620   34.8450   40.2650 C   0  0  0  0  0  0  0  0  0  0  0  0
   48.4450   33.3960   39.8950 C   0  0  2  0  0  0  0  0  0  0  0  0
   48.2860   33.0720   38.4550 C   0  0  0  0  0  0  0  0  0  0  0  0
   49.3570   32.8620   37.5870 C   0  0  0  0  0  0  0  0  0  0  0  0
   49.1560   32.5520   36.2580 C   0  0  0  0  0  0  0  0  0  0  0  0
   47.8740   32.4420   35.7620 C   0  0  0  0  0  0  0  0  0  0  0  0
   47.6190   32.1330   34.4590 N   0  0  0  0  0  0  0  0  0  0  0  0
   46.3530   32.0260   33.9970 C   0  0  0  0  0  0  0  0  0  0  0  0
   45.2220   32.2210   34.8090 C   0  0  0  0  0  0  0  0  0  0  0  0
   45.4460   32.5350   36.1340 C   0  0  0  0  0  0  0  0  0  0  0  0
   46.7660   32.6410   36.5890 C   0  0  0  0  0  0  0  0  0  0  0  0
   47.0280   32.9520   37.9130 C   0  0  0  0  0  0  0  0  0  0  0  0
   45.6260   33.1060   42.3710 C   0  0  0  0  0  0  0  0  0  0  0  0
   46.9380   33.4720   41.9680 C   0  0  0  0  0  0  0  0  0  0  0  0
   47.9460   33.4110   42.9100 C   0  0  0  0  0  0  0  0  0  0  0  0
   47.6120   33.0030   44.1690 N   0  0  0  0  0  0  0  0  0  0  0  0
   46.3660   32.6620   44.5320 C   0  0  0  0  0  0  0  0  0  0  0  0
   45.3640   32.7150   43.6260 N   0  0  0  0  0  0  0  0  0  0  0  0
   45.1020   34.3520   46.4440 F   0  0  0  0  0  0  0  0  0  0  0  0
   45.4300   33.0740   46.7870 C   0  0  0  0  0  0  0  0  0  0  0  0
   46.0420   32.2310   45.8870 C   0  0  0  0  0  0  0  0  0  0  0  0
   46.3310   30.9550   46.3330 C   0  0  0  0  0  0  0  0  0  0  0  0
   46.0150   30.5670   47.6210 C   0  0  0  0  0  0  0  0  0  0  0  0
   45.4040   31.4260   48.5040 C   0  0  0  0  0  0  0  0  0  0  0  0
   45.1030   32.7100   48.0810 C   0  0  0  0  0  0  0  0  0  0  0  0
   46.1259   33.8878   40.3530 H   0  0  0  0  0  0  0  0  0  0  0  0
   48.1142   35.5967   39.4757 H   0  0  0  0  0  0  0  0  0  0  0  0
   48.8432   35.5706   40.8530 H   0  0  0  0  0  0  0  0  0  0  0  0
   49.2007   32.6211   40.0915 H   0  0  0  0  0  0  0  0  0  0  0  0
   50.3846   32.9454   37.9705 H   0  0  0  0  0  0  0  0  0  0  0  0
   50.0183   32.3925   35.5939 H   0  0  0  0  0  0  0  0  0  0  0  0
   46.2008   31.7748   32.9369 H   0  0  0  0  0  0  0  0  0  0  0  0
   44.2029   32.1274   34.4057 H   0  0  0  0  0  0  0  0  0  0  0  0
   44.6024   32.6991   36.8206 H   0  0  0  0  0  0  0  0  0  0  0  0
   46.1677   33.1147   38.5789 H   0  0  0  0  0  0  0  0  0  0  0  0
   44.8073   33.1443   41.6373 H   0  0  0  0  0  0  0  0  0  0  0  0
   48.9812   33.6816   42.6548 H   0  0  0  0  0  0  0  0  0  0  0  0
   46.8185   30.2397   45.6543 H   0  0  0  0  0  0  0  0  0  0  0  0
   46.2583   29.5454   47.9482 H   0  0  0  0  0  0  0  0  0  0  0  0
   45.1592   31.0999   49.5257 H   0  0  0  0  0  0  0  0  0  0  0  0
   44.6144   33.4250   48.7593 H   0  0  0  0  0  0  0  0  0  0  0  0
  1 15  1  0
  2  1  1  0
  3  2  1  0
  3  1  1  0
  4  3  1  0
  5  4  2  0
  6  5  1  0
  7  6  2  0
  7 12  1  0
  8  7  1  0
  9  8  2  0
  9 10  1  0
 10 11  2  0
 11 12  1  0
 12 13  2  0
 13  4  1  0
 14 19  2  0
 15 14  1  0
 15 16  2  0
 16 17  1  0
 17 18  2  0
 18 22  1  0
 19 18  1  0
 20 21  1  0
 21 26  2  0
 22 23  2  0
 22 21  1  0
 23 24  1  0
 24 25  2  0
 26 25  1  0
  1 27  1  6
  2 28  1  0
  2 29  1  0
  3 30  1  1
  5 31  1  0
  6 32  1  0
  9 33  1  0
 10 34  1  0
 11 35  1  0
 13 36  1  0
 14 37  1  0
 16 38  1  0
 23 39  1  0
 24 40  1  0
 25 41  1  0
 26 42  1  0
M  ISO  8  27  13  28  13  29  13  30  13  31  14  32  14  33  14  34  14
M  ISO  8  35  14  36  14  37  14  38  14  39  14  40  14  41  14  42  14
M  END
>  <minimizedAffinity>  (1) 
-5.66977787

>  <minimizedRMSD>  (1) 
4.47208309

$$$$
