
     RDKit          3D

 48 52  0  0  0  0  0  0  0  0999 V2000
   49.7930   30.2120   49.5650 C   0  0  0  0  0  0  0  0  0  0  0  0
   50.0190   31.4480   50.1140 N   0  0  0  0  0  0  0  0  0  0  0  0
   50.7330   31.6440   51.2180 C   0  0  0  0  0  0  0  0  0  0  0  0
   51.2540   30.5630   51.8150 N   0  0  0  0  0  0  0  0  0  0  0  0
   51.0800   29.3320   51.3480 C   0  0  0  0  0  0  0  0  0  0  0  0
   51.6290   28.2140   51.9620 C   0  0  0  0  0  0  0  0  0  0  0  0
   51.4440   26.9610   51.4540 C   0  0  0  0  0  0  0  0  0  0  0  0
   50.7070   26.7770   50.3250 C   0  0  0  0  0  0  0  0  0  0  0  0
   50.1310   27.8700   49.6670 C   0  0  0  0  0  0  0  0  0  0  0  0
   50.3270   29.1240   50.1850 C   0  0  0  0  0  0  0  0  0  0  0  0
   49.3220   27.5580   48.4790 C   0  0  0  0  0  0  0  0  0  0  0  0
   51.0400   25.7690   47.0900 F   0  0  0  0  0  0  0  0  0  0  0  0
   49.9320   25.2400   47.7100 C   0  0  0  0  0  0  0  0  0  0  0  0
   49.0630   26.0600   48.3980 C   0  0  0  0  0  0  0  0  0  0  0  0
   47.9850   25.3880   48.9750 C   0  0  0  0  0  0  0  0  0  0  0  0
   47.7930   24.0310   48.8780 C   0  0  0  0  0  0  0  0  0  0  0  0
   48.7110   23.2800   48.1700 C   0  0  0  0  0  0  0  0  0  0  0  0
   49.7990   23.8770   47.5740 C   0  0  0  0  0  0  0  0  0  0  0  0
   48.9010   30.0240   48.1030 S   0  0  0  0  0  0  0  0  0  0  0  0
   46.1170   32.6510   46.9310 C   0  0  0  0  0  0  0  0  0  0  0  0
   47.2450   31.8450   46.9950 C   0  0  0  0  0  0  0  0  0  0  0  0
   47.4470   31.0030   48.0570 C   0  0  0  0  0  0  0  0  0  0  0  0
   46.5330   30.9410   49.0830 C   0  0  0  0  0  0  0  0  0  0  0  0
   45.4090   31.7120   49.0680 C   0  0  0  0  0  0  0  0  0  0  0  0
   45.2240   32.5540   47.9890 C   0  0  0  0  0  0  0  0  0  0  0  0
   44.7100   35.3470   44.9130 C   0  0  0  0  0  0  0  0  0  0  0  0
   45.4480   35.2790   43.7110 C   0  0  0  0  0  0  0  0  0  0  0  0
   46.4350   34.3010   43.5950 C   0  0  0  0  0  0  0  0  0  0  0  0
   46.6650   33.4360   44.6350 N   0  0  0  0  0  0  0  0  0  0  0  0
   45.9170   33.5450   45.7860 C   0  0  0  0  0  0  0  0  0  0  0  0
   44.9510   34.4890   45.9230 N   0  0  0  0  0  0  0  0  0  0  0  0
   50.8901   32.6536   51.6255 H   0  0  0  0  0  0  0  0  0  0  0  0
   52.2257   28.3411   52.8773 H   0  0  0  0  0  0  0  0  0  0  0  0
   51.8935   26.0942   51.9604 H   0  0  0  0  0  0  0  0  0  0  0  0
   50.5628   25.7619   49.9265 H   0  0  0  0  0  0  0  0  0  0  0  0
   48.3613   28.0899   48.5437 H   0  0  0  0  0  0  0  0  0  0  0  0
   49.8680   27.8771   47.5790 H   0  0  0  0  0  0  0  0  0  0  0  0
   47.2475   25.9777   49.5392 H   0  0  0  0  0  0  0  0  0  0  0  0
   46.9252   23.5520   49.3549 H   0  0  0  0  0  0  0  0  0  0  0  0
   48.5711   22.1925   48.0814 H   0  0  0  0  0  0  0  0  0  0  0  0
   50.5353   23.2860   47.0096 H   0  0  0  0  0  0  0  0  0  0  0  0
   47.9862   31.8826   46.1830 H   0  0  0  0  0  0  0  0  0  0  0  0
   46.7117   30.2595   49.9277 H   0  0  0  0  0  0  0  0  0  0  0  0
   44.6753   31.6652   49.8863 H   0  0  0  0  0  0  0  0  0  0  0  0
   44.3206   33.1813   47.9670 H   0  0  0  0  0  0  0  0  0  0  0  0
   43.9272   36.1115   45.0261 H   0  0  0  0  0  0  0  0  0  0  0  0
   45.2492   35.9800   42.8869 H   0  0  0  0  0  0  0  0  0  0  0  0
   47.0280   34.2231   42.6718 H   0  0  0  0  0  0  0  0  0  0  0  0
  1  2  2  0
  1 10  1  0
  2  3  1  0
  3  4  2  0
  5  4  1  0
  5  6  2  0
  7  6  1  0
  8  7  2  0
  9 10  2  0
  9  8  1  0
 10  5  1  0
 11  9  1  0
 12 13  1  0
 13 14  2  0
 14 11  1  0
 14 15  1  0
 16 15  2  0
 17 16  1  0
 18 13  1  0
 18 17  2  0
 19  1  1  0
 20 21  2  0
 20 25  1  0
 21 22  1  0
 22 19  1  0
 22 23  2  0
 24 23  1  0
 25 24  2  0
 26 31  2  0
 27 26  1  0
 28 27  2  0
 28 29  1  0
 29 30  2  0
 30 31  1  0
 30 20  1  0
  3 32  1  0
  6 33  1  0
  7 34  1  0
  8 35  1  0
 11 36  1  0
 11 37  1  0
 15 38  1  0
 16 39  1  0
 17 40  1  0
 18 41  1  0
 21 42  1  0
 23 43  1  0
 24 44  1  0
 25 45  1  0
 26 46  1  0
 27 47  1  0
 28 48  1  0
M  ISO  8  32  14  33  14  34  14  35  14  36   8  37   8  38  14  39  14
M  ISO  8  40  14  41  14  42  14  43  14  44  14  45  14  46  14  47  14
M  ISO  1  48  14
M  END
>  <minimizedAffinity>  (1) 
-6.63756943

>  <minimizedRMSD>  (1) 
0.643707216

$$$$
