
     RDKit          3D

 38 41  0  0  0  0  0  0  0  0999 V2000
   45.1650   32.9390   41.2320 Cl  0  0  0  0  0  0  0  0  0  0  0  0
   46.5710   33.9650   41.0690 C   0  0  0  0  0  0  0  0  0  0  0  0
   46.9990   34.7790   42.0750 C   0  0  0  0  0  0  0  0  0  0  0  0
   48.1080   35.5290   41.8250 C   0  0  0  0  0  0  0  0  0  0  0  0
   48.7720   35.4930   40.6480 C   0  0  0  0  0  0  0  0  0  0  0  0
   48.3480   34.6780   39.6310 C   0  0  0  0  0  0  0  0  0  0  0  0
   47.2160   33.8990   39.8630 C   0  0  0  0  0  0  0  0  0  0  0  0
   44.5450   35.6760   44.8160 C   0  0  0  0  0  0  0  0  0  0  0  0
   45.2540   35.6960   43.6100 C   0  0  0  0  0  0  0  0  0  0  0  0
   46.2560   34.7800   43.3100 C   0  0  0  0  0  0  0  0  0  0  0  0
   46.4780   33.8670   44.2990 N   0  0  0  0  0  0  0  0  0  0  0  0
   45.7970   33.8540   45.4520 C   0  0  0  0  0  0  0  0  0  0  0  0
   44.8390   34.7500   45.7060 N   0  0  0  0  0  0  0  0  0  0  0  0
   46.7450   33.0110   38.7710 C   0  0  0  0  0  0  0  0  0  0  0  0
   47.5900   32.0790   38.1430 C   0  0  0  0  0  0  0  0  0  0  0  0
   46.5180   31.2870   36.9180 S   0  0  0  0  0  0  0  0  0  0  0  0
   45.0350   32.3770   37.4660 C   0  0  0  0  0  0  0  0  0  0  0  0
   45.5410   32.9750   38.2720 N   0  0  0  0  0  0  0  0  0  0  0  0
   43.7180   32.3390   36.9210 N   0  0  0  0  0  0  0  0  0  0  0  0
   48.2470   30.7100   40.4260 F   0  0  0  0  0  0  0  0  0  0  0  0
   49.2240   31.0640   39.5460 C   0  0  0  0  0  0  0  0  0  0  0  0
   48.9910   31.7630   38.3550 C   0  0  0  0  0  0  0  0  0  0  0  0
   50.0780   32.0690   37.5340 C   0  0  0  0  0  0  0  0  0  0  0  0
   51.3470   31.6790   37.9110 C   0  0  0  0  0  0  0  0  0  0  0  0
   51.5480   30.9890   39.0930 C   0  0  0  0  0  0  0  0  0  0  0  0
   50.4860   30.6810   39.9110 C   0  0  0  0  0  0  0  0  0  0  0  0
   48.4806   36.1948   42.6174 H   0  0  0  0  0  0  0  0  0  0  0  0
   49.6615   36.1242   40.5051 H   0  0  0  0  0  0  0  0  0  0  0  0
   48.8804   34.6402   38.6692 H   0  0  0  0  0  0  0  0  0  0  0  0
   43.7583   36.4181   45.0170 H   0  0  0  0  0  0  0  0  0  0  0  0
   45.0082   36.4695   42.8675 H   0  0  0  0  0  0  0  0  0  0  0  0
   46.0315   33.0888   46.2066 H   0  0  0  0  0  0  0  0  0  0  0  0
   42.9905   32.9692   37.2877 H   0  0  0  0  0  0  0  0  0  0  0  0
   43.4941   31.6814   36.1606 H   0  0  0  0  0  0  0  0  0  0  0  0
   49.9240   32.6173   36.5929 H   0  0  0  0  0  0  0  0  0  0  0  0
   52.2055   31.9187   37.2664 H   0  0  0  0  0  0  0  0  0  0  0  0
   52.5650   30.6843   39.3809 H   0  0  0  0  0  0  0  0  0  0  0  0
   50.6496   30.1319   40.8500 H   0  0  0  0  0  0  0  0  0  0  0  0
  2  1  1  0
  2  3  2  0
  3 10  1  0
  4  3  1  0
  5  4  2  0
  6  7  2  0
  6  5  1  0
  7  2  1  0
  8 13  2  0
  9  8  1  0
 10  9  2  0
 10 11  1  0
 11 12  2  0
 12 13  1  0
 14  7  1  0
 15 22  1  0
 15 14  2  0
 16 17  1  0
 16 15  1  0
 17 18  2  0
 18 14  1  0
 19 17  1  0
 21 26  2  0
 21 20  1  0
 22 21  1  0
 23 24  1  0
 23 22  2  0
 24 25  2  0
 25 26  1  0
  4 27  1  0
  5 28  1  0
  6 29  1  0
  8 30  1  0
  9 31  1  0
 12 32  1  0
 19 33  1  0
 19 34  1  0
 23 35  1  0
 24 36  1  0
 25 37  1  0
 26 38  1  0
M  ISO  8  27  14  28  14  29  14  30  14  31  14  32  14  35  14  36  14
M  ISO  2  37  14  38  14
M  END
>  <minimizedAffinity>  (1) 
-6.28945589

>  <minimizedRMSD>  (1) 
2.07742834

$$$$
