
     RDKit          3D

 28 30  0  0  0  0  0  0  0  0999 V2000
   45.3550   34.0420   45.0150 C   0  0  0  0  0  0  0  0  0  0  0  0
   45.2150   33.3800   43.7860 C   0  0  0  0  0  0  0  0  0  0  0  0
   45.7550   32.1130   43.5850 C   0  0  0  0  0  0  0  0  0  0  0  0
   46.4160   31.5850   44.6560 N   0  0  0  0  0  0  0  0  0  0  0  0
   46.5480   32.2200   45.8280 C   0  0  0  0  0  0  0  0  0  0  0  0
   46.0250   33.4360   46.0090 N   0  0  0  0  0  0  0  0  0  0  0  0
   47.2710   31.5910   46.9300 C   0  0  0  0  0  0  0  0  0  0  0  0
   47.5590   30.2540   46.9300 C   0  0  0  0  0  0  0  0  0  0  0  0
   48.2330   29.6210   47.9390 C   0  0  0  0  0  0  0  0  0  0  0  0
   48.6200   30.4030   48.9850 N   0  0  0  0  0  0  0  0  0  0  0  0
   48.3440   31.7120   48.9920 C   0  0  0  0  0  0  0  0  0  0  0  0
   47.6730   32.3590   47.9960 N   0  0  0  0  0  0  0  0  0  0  0  0
   45.4300   36.1520   43.1770 F   0  0  0  0  0  0  0  0  0  0  0  0
   44.5980   35.3950   42.4200 C   0  0  0  0  0  0  0  0  0  0  0  0
   44.4840   34.0440   42.7070 C   0  0  0  0  0  0  0  0  0  0  0  0
   43.6650   33.1870   41.9980 C   0  0  0  0  0  0  0  0  0  0  0  0
   42.9100   33.6860   40.9420 C   0  0  0  0  0  0  0  0  0  0  0  0
   43.0330   35.0380   40.6650 C   0  0  0  0  0  0  0  0  0  0  0  0
   43.8530   35.8980   41.3740 C   0  0  0  0  0  0  0  0  0  0  0  0
   44.9224   35.0426   45.1624 H   0  0  0  0  0  0  0  0  0  0  0  0
   45.6560   31.5753   42.6305 H   0  0  0  0  0  0  0  0  0  0  0  0
   47.2300   29.6529   46.0695 H   0  0  0  0  0  0  0  0  0  0  0  0
   48.4497   28.5430   47.9071 H   0  0  0  0  0  0  0  0  0  0  0  0
   48.6795   32.3044   49.8560 H   0  0  0  0  0  0  0  0  0  0  0  0
   43.6105   32.1215   42.2657 H   0  0  0  0  0  0  0  0  0  0  0  0
   42.2453   33.0367   40.3533 H   0  0  0  0  0  0  0  0  0  0  0  0
   42.4445   35.4518   39.8329 H   0  0  0  0  0  0  0  0  0  0  0  0
   43.9097   36.9639   41.1081 H   0  0  0  0  0  0  0  0  0  0  0  0
  1  6  2  0
  2  1  1  0
  3  2  2  0
  3  4  1  0
  4  5  2  0
  5  6  1  0
  5  7  1  0
  7 12  1  0
  8  7  2  0
  8  9  1  0
  9 10  2  0
 10 11  1  0
 12 11  2  0
 14 15  2  0
 14 13  1  0
 15  2  1  0
 16 15  1  0
 17 16  2  0
 18 17  1  0
 18 19  2  0
 19 14  1  0
  1 20  1  0
  3 21  1  0
  8 22  1  0
  9 23  1  0
 11 24  1  0
 16 25  1  0
 17 26  1  0
 18 27  1  0
 19 28  1  0
M  ISO  8  20  14  21  14  22  14  23  14  24  14  25  14  26  14  27  14
M  ISO  1  28  14
M  END
>  <minimizedAffinity>  (1) 
-4.82880402

>  <minimizedRMSD>  (1) 
2.63158393

$$$$
