
     RDKit          3D

 41 44  0  0  1  0  0  0  0  0999 V2000
   45.8090   33.1540   46.0600 C   0  0  0  0  0  0  0  0  0  0  0  0
   46.0990   31.9820   45.6500 C   0  0  0  0  0  0  0  0  0  0  0  0
   44.5830   36.1940   44.3850 C   0  0  0  0  0  0  0  0  0  0  0  0
   45.1670   36.1150   43.1130 C   0  0  0  0  0  0  0  0  0  0  0  0
   45.9660   35.0370   42.8820 C   0  0  0  0  0  0  0  0  0  0  0  0
   46.1270   34.1440   43.8830 N   0  0  0  0  0  0  0  0  0  0  0  0
   45.5750   34.2150   45.0850 C   0  0  0  0  0  0  0  0  0  0  0  0
   44.8020   35.2570   45.3140 N   0  0  0  0  0  0  0  0  0  0  0  0
   48.5460   36.0370   42.0700 F   0  0  0  0  0  0  0  0  0  0  0  0
   47.8960   35.1920   41.2450 C   0  0  0  0  0  0  0  0  0  0  0  0
   46.6790   34.7350   41.6520 C   0  0  0  0  0  0  0  0  0  0  0  0
   46.1080   33.8740   40.7220 C   0  0  0  0  0  0  0  0  0  0  0  0
   46.6960   33.5250   39.5370 C   0  0  0  0  0  0  0  0  0  0  0  0
   47.9290   34.0290   39.1970 C   0  0  0  0  0  0  0  0  0  0  0  0
   48.5350   34.8770   40.0700 C   0  0  0  0  0  0  0  0  0  0  0  0
   46.3150   30.9470   46.7480 C   0  0  0  0  0  0  0  0  0  0  0  0
   46.0700   31.5780   48.0900 C   0  0  1  0  0  0  0  0  0  0  0  0
   45.8100   30.6440   49.2290 C   0  0  0  0  0  0  0  0  0  0  0  0
   47.0580   31.3810   49.1830 C   0  0  1  0  0  0  0  0  0  0  0  0
   48.3710   30.8000   48.8350 C   0  0  0  0  0  0  0  0  0  0  0  0
   49.2380   30.4180   50.0670 C   0  0  0  0  0  0  0  0  0  0  0  0
   49.6110   31.6210   49.2700 C   0  0  0  0  0  0  0  0  0  0  0  0
   45.7359   33.3635   47.1374 H   0  0  0  0  0  0  0  0  0  0  0  0
   46.1869   31.7357   44.5815 H   0  0  0  0  0  0  0  0  0  0  0  0
   43.9298   37.0460   44.6245 H   0  0  0  0  0  0  0  0  0  0  0  0
   44.9896   36.8814   42.3442 H   0  0  0  0  0  0  0  0  0  0  0  0
   45.1213   33.4464   40.9534 H   0  0  0  0  0  0  0  0  0  0  0  0
   46.1790   32.8369   38.8521 H   0  0  0  0  0  0  0  0  0  0  0  0
   48.4109   33.7544   38.2471 H   0  0  0  0  0  0  0  0  0  0  0  0
   49.5219   35.3045   39.8392 H   0  0  0  0  0  0  0  0  0  0  0  0
   45.6166   30.1094   46.6042 H   0  0  0  0  0  0  0  0  0  0  0  0
   47.3494   30.5756   46.7020 H   0  0  0  0  0  0  0  0  0  0  0  0
   45.5826   32.4553   47.6398 H   0  0  0  0  0  0  0  0  0  0  0  0
   45.0510   30.8975   49.9837 H   0  0  0  0  0  0  0  0  0  0  0  0
   45.5413   29.5806   49.3126 H   0  0  0  0  0  0  0  0  0  0  0  0
   47.5689   31.9982   49.9367 H   0  0  0  0  0  0  0  0  0  0  0  0
   48.0372   30.3183   47.9041 H   0  0  0  0  0  0  0  0  0  0  0  0
   48.8301   30.5390   51.0814 H   0  0  0  0  0  0  0  0  0  0  0  0
   49.7688   29.5082   50.3841 H   0  0  0  0  0  0  0  0  0  0  0  0
   50.5204   31.6055   48.6514 H   0  0  0  0  0  0  0  0  0  0  0  0
   49.7864   32.6797   49.5117 H   0  0  0  0  0  0  0  0  0  0  0  0
  2  1  2  0
  2 16  1  0
  3  8  2  0
  4  3  1  0
  5  4  2  0
  5  6  1  0
  6  7  2  0
  7  8  1  0
  7  1  1  0
 10 11  2  0
 10  9  1  0
 11  5  1  0
 12 11  1  0
 13 12  2  0
 14 13  1  0
 14 15  2  0
 15 10  1  0
 16 17  1  0
 17 19  1  0
 17 18  1  0
 19 18  1  0
 20 19  1  0
 20 22  1  0
 20 21  1  0
 22 21  1  0
  1 23  1  0
  2 24  1  0
  3 25  1  0
  4 26  1  0
 12 27  1  0
 13 28  1  0
 14 29  1  0
 15 30  1  0
 16 31  1  0
 16 32  1  0
 17 33  1  6
 18 34  1  0
 18 35  1  0
 19 36  1  1
 20 37  1  0
 21 38  1  0
 21 39  1  0
 22 40  1  0
 22 41  1  0
M  ISO  8  25  14  26  14  27  14  28  14  29  14  30  14  31   8  32   8
M  ISO  8  33  13  34  13  35  13  36  13  37  13  38  13  39  13  40  13
M  ISO  1  41  13
M  END
>  <minimizedAffinity>  (1) 
-6.36250353

>  <minimizedRMSD>  (1) 
1.09470117

$$$$
