
     RDKit          3D

 32 34  0  0  0  0  0  0  0  0999 V2000
   46.4680   34.7080   42.1800 C   0  0  0  0  0  0  0  0  0  0  0  0
   47.7260   35.2280   41.9940 C   0  0  0  0  0  0  0  0  0  0  0  0
   48.4710   35.0710   40.8370 C   0  0  0  0  0  0  0  0  0  0  0  0
   47.9150   34.3380   39.7860 C   0  0  0  0  0  0  0  0  0  0  0  0
   46.6610   33.8210   39.9730 C   0  0  0  0  0  0  0  0  0  0  0  0
   45.9440   33.9940   41.1380 C   0  0  0  0  0  0  0  0  0  0  0  0
   44.4090   36.1740   44.9530 C   0  0  0  0  0  0  0  0  0  0  0  0
   45.0080   36.0570   43.6890 C   0  0  0  0  0  0  0  0  0  0  0  0
   45.8020   34.9410   43.4250 C   0  0  0  0  0  0  0  0  0  0  0  0
   45.9510   34.0270   44.4120 N   0  0  0  0  0  0  0  0  0  0  0  0
   45.3560   34.1790   45.6180 C   0  0  0  0  0  0  0  0  0  0  0  0
   44.5880   35.2480   45.8860 N   0  0  0  0  0  0  0  0  0  0  0  0
   45.5220   33.2060   46.6530 N   0  0  0  0  0  0  0  0  0  0  0  0
   43.8630   35.5960   40.3960 F   0  0  0  0  0  0  0  0  0  0  0  0
   43.6420   34.3250   40.8340 C   0  0  0  0  0  0  0  0  0  0  0  0
   44.6140   33.4050   41.2400 C   0  0  0  0  0  0  0  0  0  0  0  0
   44.2150   32.1520   41.6590 C   0  0  0  0  0  0  0  0  0  0  0  0
   42.8750   31.8350   41.6670 C   0  0  0  0  0  0  0  0  0  0  0  0
   41.9050   32.7220   41.2720 C   0  0  0  0  0  0  0  0  0  0  0  0
   42.2950   33.9940   40.8470 C   0  0  0  0  0  0  0  0  0  0  0  0
   48.1703   35.8065   42.8173 H   0  0  0  0  0  0  0  0  0  0  0  0
   49.4747   35.5122   40.7481 H   0  0  0  0  0  0  0  0  0  0  0  0
   48.4630   34.1822   38.8451 H   0  0  0  0  0  0  0  0  0  0  0  0
   46.2049   33.2414   39.1569 H   0  0  0  0  0  0  0  0  0  0  0  0
   43.7800   37.0490   45.1739 H   0  0  0  0  0  0  0  0  0  0  0  0
   44.8543   36.8301   42.9218 H   0  0  0  0  0  0  0  0  0  0  0  0
   45.0609   33.3397   47.5643 H   0  0  0  0  0  0  0  0  0  0  0  0
   46.1027   32.3716   46.4871 H   0  0  0  0  0  0  0  0  0  0  0  0
   44.9615   31.4124   41.9840 H   0  0  0  0  0  0  0  0  0  0  0  0
   42.5704   30.8328   42.0027 H   0  0  0  0  0  0  0  0  0  0  0  0
   40.8427   32.4371   41.2898 H   0  0  0  0  0  0  0  0  0  0  0  0
   41.5405   34.7270   40.5254 H   0  0  0  0  0  0  0  0  0  0  0  0
  1  9  1  0
  2  1  2  0
  3  2  1  0
  4  5  1  0
  4  3  2  0
  5  6  2  0
  6 16  1  0
  6  1  1  0
  7 12  2  0
  8  7  1  0
  9  8  2  0
  9 10  1  0
 10 11  2  0
 11 12  1  0
 11 13  1  0
 14 15  1  0
 15 20  2  0
 15 16  1  0
 16 17  2  0
 17 18  1  0
 19 18  2  0
 20 19  1  0
  2 21  1  0
  3 22  1  0
  4 23  1  0
  5 24  1  0
  7 25  1  0
  8 26  1  0
 13 27  1  0
 13 28  1  0
 17 29  1  0
 18 30  1  0
 19 31  1  0
 20 32  1  0
M  ISO  8  21  14  22  14  23  14  24  14  25  14  26  14  29  14  30  14
M  ISO  2  31  14  32  14
M  END
>  <minimizedAffinity>  (1) 
-6.41956329

>  <minimizedRMSD>  (1) 
0.909869313

$$$$
