
     RDKit          3D

 46 49  0  0  1  0  0  0  0  0999 V2000
   44.7020   35.0840   45.2480 C   0  0  0  0  0  0  0  0  0  0  0  0
   45.4790   34.9600   44.0900 C   0  0  0  0  0  0  0  0  0  0  0  0
   46.4670   33.9750   44.0540 C   0  0  0  0  0  0  0  0  0  0  0  0
   46.5990   33.1990   45.1710 N   0  0  0  0  0  0  0  0  0  0  0  0
   45.8360   33.3410   46.2720 C   0  0  0  0  0  0  0  0  0  0  0  0
   44.8780   34.3030   46.2940 N   0  0  0  0  0  0  0  0  0  0  0  0
   47.3310   33.7320   42.9520 N   0  0  0  0  0  0  0  0  0  0  0  0
   46.8810   32.9090   41.8410 C   0  0  0  0  0  0  0  0  0  0  0  0
   48.0320   32.3610   41.0430 C   0  0  0  0  0  0  0  0  0  0  0  0
   49.0020   33.3050   40.6690 N   0  0  0  0  0  0  0  0  0  0  0  0
   49.2720   34.3570   41.5810 C   0  0  2  0  0  0  0  0  0  0  0  0
   48.6500   34.2900   42.9190 C   0  0  0  0  0  0  0  0  0  0  0  0
   48.8410   35.6700   40.9400 C   0  0  0  0  0  0  0  0  0  0  0  0
   49.6640   36.7080   41.3720 F   0  0  0  0  0  0  0  0  0  0  0  0
   47.5910   35.9530   41.4480 F   0  0  0  0  0  0  0  0  0  0  0  0
   48.8680   35.6430   39.5800 F   0  0  0  0  0  0  0  0  0  0  0  0
   46.0290   32.4820   47.4230 C   0  0  0  0  0  0  0  0  0  0  0  0
   44.9590   32.0850   48.1800 C   0  0  0  0  0  0  0  0  0  0  0  0
   45.2150   31.2560   49.2770 C   0  0  0  0  0  0  0  0  0  0  0  0
   46.5330   30.9100   49.5030 C   0  0  0  0  0  0  0  0  0  0  0  0
   47.6090   31.3000   48.7560 C   0  0  0  0  0  0  0  0  0  0  0  0
   47.2960   32.1040   47.7030 N   0  0  0  0  0  0  0  0  0  0  0  0
   48.6010   28.9180   47.8390 F   0  0  0  0  0  0  0  0  0  0  0  0
   49.4520   29.7240   48.5440 C   0  0  0  0  0  0  0  0  0  0  0  0
   48.9740   30.9240   49.0130 C   0  0  0  0  0  0  0  0  0  0  0  0
   49.8550   31.7160   49.7200 C   0  0  0  0  0  0  0  0  0  0  0  0
   51.1650   31.3370   49.9580 C   0  0  0  0  0  0  0  0  0  0  0  0
   51.6290   30.1370   49.4850 C   0  0  0  0  0  0  0  0  0  0  0  0
   50.7550   29.3500   48.7820 C   0  0  0  0  0  0  0  0  0  0  0  0
   43.9206   35.8573   45.2855 H   0  0  0  0  0  0  0  0  0  0  0  0
   45.3145   35.6237   43.2283 H   0  0  0  0  0  0  0  0  0  0  0  0
   46.2918   32.0689   42.2373 H   0  0  0  0  0  0  0  0  0  0  0  0
   46.2754   33.5403   41.1741 H   0  0  0  0  0  0  0  0  0  0  0  0
   48.5264   31.5857   41.6467 H   0  0  0  0  0  0  0  0  0  0  0  0
   47.6001   31.9788   40.1063 H   0  0  0  0  0  0  0  0  0  0  0  0
   49.8842   32.7968   40.5130 H   0  0  0  0  0  0  0  0  0  0  0  0
   50.3516   34.2667   41.7717 H   0  0  0  0  0  0  0  0  0  0  0  0
   49.2955   33.6756   43.5638 H   0  0  0  0  0  0  0  0  0  0  0  0
   48.5495   35.3306   43.2610 H   0  0  0  0  0  0  0  0  0  0  0  0
   43.9360   32.4062   47.9343 H   0  0  0  0  0  0  0  0  0  0  0  0
   44.4051   30.8966   49.9289 H   0  0  0  0  0  0  0  0  0  0  0  0
   46.7358   30.2588   50.3660 H   0  0  0  0  0  0  0  0  0  0  0  0
   49.5039   32.6834   50.1085 H   0  0  0  0  0  0  0  0  0  0  0  0
   51.8340   31.9992   50.5271 H   0  0  0  0  0  0  0  0  0  0  0  0
   52.6662   29.8172   49.6635 H   0  0  0  0  0  0  0  0  0  0  0  0
   51.1079   28.3833   48.3934 H   0  0  0  0  0  0  0  0  0  0  0  0
  1  6  2  0
  2  1  1  0
  3  2  2  0
  3  4  1  0
  4  5  2  0
  5  6  1  0
  5 17  1  0
  7  3  1  0
  8  7  1  0
  9  8  1  0
 10  9  1  0
 10 11  1  0
 11 12  1  0
 12  7  1  0
 13 14  1  0
 13 15  1  0
 13 11  1  0
 16 13  1  0
 17 22  1  0
 17 18  2  0
 18 19  1  0
 19 20  2  0
 21 25  1  0
 21 20  1  0
 22 21  2  0
 23 24  1  0
 24 29  2  0
 24 25  1  0
 25 26  2  0
 26 27  1  0
 28 27  2  0
 29 28  1  0
  1 30  1  0
  2 31  1  0
  8 32  1  0
  8 33  1  0
  9 34  1  0
  9 35  1  0
 10 36  1  0
 11 37  1  1
 12 38  1  0
 12 39  1  0
 18 40  1  0
 19 41  1  0
 20 42  1  0
 26 43  1  0
 27 44  1  0
 28 45  1  0
 29 46  1  0
M  ISO  8  30  14  31  14  32  13  33  13  34  13  35  13  36   5  37  13
M  ISO  8  38  13  39  13  40  14  41  14  42  14  43  14  44  14  45  14
M  ISO  1  46  14
M  END
>  <minimizedAffinity>  (1) 
-7.54130745

>  <minimizedRMSD>  (1) 
0.574018061

$$$$
