
     RDKit          3D

 47 50  0  0  0  0  0  0  0  0999 V2000
   44.4320   33.6360   41.4230 C   0  0  0  0  0  0  0  0  0  0  0  0
   43.6780   33.1170   42.3260 O   0  0  0  0  0  0  0  0  0  0  0  0
   45.5460   34.3290   41.9800 N   0  0  0  0  0  0  0  0  0  0  0  0
   45.4590   34.2880   43.4260 C   0  0  0  0  0  0  0  0  0  0  0  0
   44.7840   35.1610   44.2200 C   0  0  0  0  0  0  0  0  0  0  0  0
   44.8240   34.9490   45.5720 C   0  0  0  0  0  0  0  0  0  0  0  0
   45.5360   33.8850   46.0210 N   0  0  0  0  0  0  0  0  0  0  0  0
   46.1950   33.0380   45.2100 C   0  0  0  0  0  0  0  0  0  0  0  0
   46.1630   33.2340   43.8750 N   0  0  0  0  0  0  0  0  0  0  0  0
   46.6340   32.9290   47.9440 F   0  0  0  0  0  0  0  0  0  0  0  0
   47.1230   31.9110   47.1870 C   0  0  0  0  0  0  0  0  0  0  0  0
   46.9330   31.9150   45.8180 C   0  0  0  0  0  0  0  0  0  0  0  0
   47.3860   30.9370   44.9630 C   0  0  0  0  0  0  0  0  0  0  0  0
   48.0880   29.8640   45.5160 C   0  0  0  0  0  0  0  0  0  0  0  0
   48.2800   29.8590   46.8920 C   0  0  0  0  0  0  0  0  0  0  0  0
   47.8190   30.8500   47.7370 C   0  0  0  0  0  0  0  0  0  0  0  0
   44.0960   36.2140   43.5850 N   0  0  0  0  0  0  0  0  0  0  0  0
   44.2530   33.5740   40.0370 O   0  0  0  0  0  0  0  0  0  0  0  0
   42.6350   31.1000   39.7280 Cl  0  0  0  0  0  0  0  0  0  0  0  0
   42.1360   32.7400   39.3520 C   0  0  0  0  0  0  0  0  0  0  0  0
   42.9680   33.8430   39.5320 C   0  0  0  0  0  0  0  0  0  0  0  0
   42.5320   35.0990   39.2230 C   0  0  0  0  0  0  0  0  0  0  0  0
   41.2710   35.3590   38.7270 C   0  0  0  0  0  0  0  0  0  0  0  0
   40.4080   34.2610   38.5360 C   0  0  0  0  0  0  0  0  0  0  0  0
   38.7850   34.4930   37.9090 Cl  0  0  0  0  0  0  0  0  0  0  0  0
   40.8810   33.0060   38.8570 C   0  0  0  0  0  0  0  0  0  0  0  0
   39.2050   32.2360   40.8600 F   0  0  0  0  0  0  0  0  0  0  0  0
   39.1560   31.4960   39.7000 C   0  0  0  0  0  0  0  0  0  0  0  0
   39.9970   31.8640   38.6630 C   0  0  0  0  0  0  0  0  0  0  0  0
   39.9150   31.0860   37.5050 C   0  0  0  0  0  0  0  0  0  0  0  0
   39.0300   30.0260   37.4520 C   0  0  0  0  0  0  0  0  0  0  0  0
   38.2070   29.7080   38.5400 C   0  0  0  0  0  0  0  0  0  0  0  0
   38.2580   30.4580   39.7120 C   0  0  0  0  0  0  0  0  0  0  0  0
   46.2944   34.7865   41.4402 H   0  0  0  0  0  0  0  0  0  0  0  0
   44.2977   35.6174   46.2693 H   0  0  0  0  0  0  0  0  0  0  0  0
   47.2014   30.9982   43.8803 H   0  0  0  0  0  0  0  0  0  0  0  0
   48.4754   29.0511   44.8843 H   0  0  0  0  0  0  0  0  0  0  0  0
   48.8315   29.0164   47.3347 H   0  0  0  0  0  0  0  0  0  0  0  0
   48.0010   30.7965   48.8205 H   0  0  0  0  0  0  0  0  0  0  0  0
   43.5711   36.8991   44.1471 H   0  0  0  0  0  0  0  0  0  0  0  0
   44.1180   36.2986   42.5587 H   0  0  0  0  0  0  0  0  0  0  0  0
   43.2188   35.9444   39.3768 H   0  0  0  0  0  0  0  0  0  0  0  0
   40.9512   36.3844   38.4896 H   0  0  0  0  0  0  0  0  0  0  0  0
   40.5526   31.3166   36.6388 H   0  0  0  0  0  0  0  0  0  0  0  0
   38.9706   29.4193   36.5364 H   0  0  0  0  0  0  0  0  0  0  0  0
   37.5135   28.8572   38.4677 H   0  0  0  0  0  0  0  0  0  0  0  0
   37.6251   30.2350   40.5836 H   0  0  0  0  0  0  0  0  0  0  0  0
  1  3  1  0
  1  2  2  0
  3  4  1  0
  4  9  1  0
  4  5  2  0
  5  6  1  0
  6  7  2  0
  8 12  1  0
  8  7  1  0
  9  8  2  0
 11 16  2  0
 11 10  1  0
 12 11  1  0
 13 14  1  0
 13 12  2  0
 14 15  2  0
 15 16  1  0
 17  5  1  0
 18  1  1  0
 20 21  2  0
 20 19  1  0
 21 18  1  0
 22 21  1  0
 23 22  2  0
 24 23  1  0
 24 26  2  0
 25 24  1  0
 26 20  1  0
 28 33  2  0
 28 27  1  0
 29 26  1  0
 29 28  1  0
 30 29  2  0
 31 30  1  0
 31 32  2  0
 32 33  1  0
  3 34  1  0
  6 35  1  0
 13 36  1  0
 14 37  1  0
 15 38  1  0
 16 39  1  0
 17 40  1  0
 17 41  1  0
 22 42  1  0
 23 43  1  0
 30 44  1  0
 31 45  1  0
 32 46  1  0
 33 47  1  0
M  END
>  <minimizedAffinity>  (1) 
-7.08808804

>  <minimizedRMSD>  (1) 
1.5935365

$$$$
