
     RDKit          3D

 32 34  0  0  0  0  0  0  0  0999 V2000
   45.7910   33.9470   44.5220 C   0  0  0  0  0  0  0  0  0  0  0  0
   46.9330   33.7590   43.7900 C   0  0  0  0  0  0  0  0  0  0  0  0
   46.5350   33.7120   42.4500 C   0  0  0  0  0  0  0  0  0  0  0  0
   45.1650   33.8760   42.4650 C   0  0  0  0  0  0  0  0  0  0  0  0
   44.8040   34.0050   43.6910 O   0  0  0  0  0  0  0  0  0  0  0  0
   43.7550   36.1910   41.5330 F   0  0  0  0  0  0  0  0  0  0  0  0
   43.5850   35.0180   40.8830 C   0  0  0  0  0  0  0  0  0  0  0  0
   44.2580   33.9040   41.3250 C   0  0  0  0  0  0  0  0  0  0  0  0
   44.0040   32.7700   40.5840 C   0  0  0  0  0  0  0  0  0  0  0  0
   43.1750   32.6870   39.5020 C   0  0  0  0  0  0  0  0  0  0  0  0
   42.5200   33.8230   39.0920 C   0  0  0  0  0  0  0  0  0  0  0  0
   42.7360   34.9880   39.7950 C   0  0  0  0  0  0  0  0  0  0  0  0
   45.7540   34.0560   46.0280 C   0  0  0  0  0  0  0  0  0  0  0  0
   45.8860   30.4200   46.4270 C   0  0  0  0  0  0  0  0  0  0  0  0
   45.4140   30.1930   47.7370 C   0  0  0  0  0  0  0  0  0  0  0  0
   45.0550   31.3040   48.4660 C   0  0  0  0  0  0  0  0  0  0  0  0
   45.1670   32.5420   47.9110 N   0  0  0  0  0  0  0  0  0  0  0  0
   45.6260   32.7120   46.6510 C   0  0  0  0  0  0  0  0  0  0  0  0
   45.9880   31.6280   45.9040 N   0  0  0  0  0  0  0  0  0  0  0  0
   45.3670   28.8490   48.1400 N   0  0  0  0  0  0  0  0  0  0  0  0
   47.9579   33.6640   44.1781 H   0  0  0  0  0  0  0  0  0  0  0  0
   47.1790   33.5734   41.5690 H   0  0  0  0  0  0  0  0  0  0  0  0
   44.5162   31.8467   40.8926 H   0  0  0  0  0  0  0  0  0  0  0  0
   43.0350   31.7336   38.9715 H   0  0  0  0  0  0  0  0  0  0  0  0
   41.8417   33.8029   38.2262 H   0  0  0  0  0  0  0  0  0  0  0  0
   42.2231   35.9101   39.4840 H   0  0  0  0  0  0  0  0  0  0  0  0
   46.6832   34.5290   46.3784 H   0  0  0  0  0  0  0  0  0  0  0  0
   44.8833   34.6631   46.3166 H   0  0  0  0  0  0  0  0  0  0  0  0
   46.1814   29.5544   45.8158 H   0  0  0  0  0  0  0  0  0  0  0  0
   44.6789   31.1919   49.4936 H   0  0  0  0  0  0  0  0  0  0  0  0
   45.0332   28.6056   49.0835 H   0  0  0  0  0  0  0  0  0  0  0  0
   45.6663   28.1063   47.4921 H   0  0  0  0  0  0  0  0  0  0  0  0
  1 13  1  0
  2  1  2  0
  3  4  2  0
  3  2  1  0
  4  5  1  0
  5  1  1  0
  7  8  2  0
  7  6  1  0
  8  4  1  0
  9  8  1  0
 10  9  2  0
 11 10  1  0
 11 12  2  0
 12  7  1  0
 13 18  1  0
 14 15  2  0
 15 20  1  0
 15 16  1  0
 17 16  2  0
 18 17  1  0
 19 14  1  0
 19 18  2  0
  2 21  1  0
  3 22  1  0
  9 23  1  0
 10 24  1  0
 11 25  1  0
 12 26  1  0
 13 27  1  0
 13 28  1  0
 14 29  1  0
 16 30  1  0
 20 31  1  0
 20 32  1  0
M  ISO  8  21  14  22  14  23  14  24  14  25  14  26  14  27   8  28   8
M  ISO  2  29  14  30  14
M  END
>  <minimizedAffinity>  (1) 
-4.884655

>  <minimizedRMSD>  (1) 
7.90053177

$$$$
