
     RDKit          3D

 23 24  0  0  0  0  0  0  0  0999 V2000
   44.4100   35.1530   43.0440 C   0  0  0  0  0  0  0  0  0  0  0  0
   43.4990   35.4650   42.0400 C   0  0  0  0  0  0  0  0  0  0  0  0
   43.0080   34.4340   41.2350 C   0  0  0  0  0  0  0  0  0  0  0  0
   43.4530   33.1860   41.4850 N   0  0  0  0  0  0  0  0  0  0  0  0
   44.3380   32.9150   42.4670 C   0  0  0  0  0  0  0  0  0  0  0  0
   44.8150   33.9050   43.2480 N   0  0  0  0  0  0  0  0  0  0  0  0
   40.3420   34.0520   41.6680 F   0  0  0  0  0  0  0  0  0  0  0  0
   40.7110   34.4960   40.4240 C   0  0  0  0  0  0  0  0  0  0  0  0
   42.0510   34.7000   40.1670 C   0  0  0  0  0  0  0  0  0  0  0  0
   42.3720   35.1470   38.9030 C   0  0  0  0  0  0  0  0  0  0  0  0
   41.3990   35.3730   37.9540 C   0  0  0  0  0  0  0  0  0  0  0  0
   40.0700   35.1550   38.2550 C   0  0  0  0  0  0  0  0  0  0  0  0
   39.6950   34.7050   39.5150 C   0  0  0  0  0  0  0  0  0  0  0  0
   44.9170   36.2770   43.8880 C   0  0  0  0  0  0  0  0  0  0  0  0
   43.1716   36.5033   41.8829 H   0  0  0  0  0  0  0  0  0  0  0  0
   44.6723   31.8800   42.6313 H   0  0  0  0  0  0  0  0  0  0  0  0
   43.4265   35.3269   38.6468 H   0  0  0  0  0  0  0  0  0  0  0  0
   41.6827   35.7286   36.9525 H   0  0  0  0  0  0  0  0  0  0  0  0
   39.3007   35.3391   37.4907 H   0  0  0  0  0  0  0  0  0  0  0  0
   38.6413   34.5246   39.7743 H   0  0  0  0  0  0  0  0  0  0  0  0
   44.8005   36.0188   44.9509 H   0  0  0  0  0  0  0  0  0  0  0  0
   45.9806   36.4505   43.6672 H   0  0  0  0  0  0  0  0  0  0  0  0
   44.3431   37.1891   43.6672 H   0  0  0  0  0  0  0  0  0  0  0  0
  1  6  2  0
  1 14  1  0
  2  1  1  0
  3  4  1  0
  3  2  2  0
  4  5  2  0
  5  6  1  0
  8  7  1  0
  9  8  2  0
  9  3  1  0
 10  9  1  0
 11 12  1  0
 11 10  2  0
 12 13  2  0
 13  8  1  0
  2 15  1  0
  5 16  1  0
 10 17  1  0
 11 18  1  0
 12 19  1  0
 13 20  1  0
 14 21  1  0
 14 22  1  0
 14 23  1  0
M  ISO  8  15  14  16  14  17  14  18  14  19  14  20  14  21   8  22   8
M  ISO  1  23   8
M  END
>  <minimizedAffinity>  (1) 
-4.51629639

>  <minimizedRMSD>  (1) 
7.1824398

$$$$
