
     RDKit          3D

 49 52  0  0  0  0  0  0  0  0999 V2000
   45.9410   32.3250   48.3290 C   0  0  0  0  0  0  0  0  0  0  0  0
   45.5500   31.4420   49.2930 C   0  0  0  0  0  0  0  0  0  0  0  0
   46.6350   30.7430   49.6230 N   0  0  0  0  0  0  0  0  0  0  0  0
   47.7100   31.1390   48.9130 C   0  0  0  0  0  0  0  0  0  0  0  0
   47.2520   32.1300   48.1070 N   0  0  0  0  0  0  0  0  0  0  0  0
   49.0520   30.6980   48.9170 N   0  0  0  0  0  0  0  0  0  0  0  0
   49.9860   31.3500   49.8520 C   0  0  0  0  0  0  0  0  0  0  0  0
   50.1850   30.3190   50.9610 C   0  0  0  0  0  0  0  0  0  0  0  0
   50.4760   28.9580   50.3780 C   0  0  0  0  0  0  0  0  0  0  0  0
   50.8730   29.0950   48.9240 C   0  0  0  0  0  0  0  0  0  0  0  0
   49.7090   29.6730   48.1340 C   0  0  0  0  0  0  0  0  0  0  0  0
   45.0820   33.3340   47.6330 C   0  0  0  0  0  0  0  0  0  0  0  0
   45.0710   34.5050   45.4730 C   0  0  0  0  0  0  0  0  0  0  0  0
   45.5160   33.5340   46.2410 C   0  0  0  0  0  0  0  0  0  0  0  0
   45.5880   34.5800   44.1060 C   0  0  0  0  0  0  0  0  0  0  0  0
   44.8520   35.2220   43.0700 C   0  0  0  0  0  0  0  0  0  0  0  0
   45.4120   35.2450   41.8090 C   0  0  0  0  0  0  0  0  0  0  0  0
   46.6100   34.6720   41.6030 N   0  0  0  0  0  0  0  0  0  0  0  0
   47.2930   34.0690   42.5940 C   0  0  0  0  0  0  0  0  0  0  0  0
   46.7950   34.0240   43.8150 N   0  0  0  0  0  0  0  0  0  0  0  0
   47.5140   31.7410   41.0640 F   0  0  0  0  0  0  0  0  0  0  0  0
   48.6680   32.3300   41.4790 C   0  0  0  0  0  0  0  0  0  0  0  0
   48.5840   33.4840   42.2400 C   0  0  0  0  0  0  0  0  0  0  0  0
   49.7460   34.0920   42.6680 C   0  0  0  0  0  0  0  0  0  0  0  0
   50.9500   33.5140   42.3150 C   0  0  0  0  0  0  0  0  0  0  0  0
   51.0220   32.3700   41.5620 C   0  0  0  0  0  0  0  0  0  0  0  0
   49.8770   31.7370   41.1170 C   0  0  0  0  0  0  0  0  0  0  0  0
   44.5399   31.3297   49.7139 H   0  0  0  0  0  0  0  0  0  0  0  0
   46.6504   29.9949   50.3308 H   0  0  0  0  0  0  0  0  0  0  0  0
   50.9405   31.5777   49.3549 H   0  0  0  0  0  0  0  0  0  0  0  0
   49.6025   32.3087   50.2313 H   0  0  0  0  0  0  0  0  0  0  0  0
   51.0293   30.6285   51.5945 H   0  0  0  0  0  0  0  0  0  0  0  0
   49.2626   30.2585   51.5573 H   0  0  0  0  0  0  0  0  0  0  0  0
   51.2986   28.4895   50.9382 H   0  0  0  0  0  0  0  0  0  0  0  0
   49.5739   28.3327   50.4499 H   0  0  0  0  0  0  0  0  0  0  0  0
   51.7409   29.7659   48.8423 H   0  0  0  0  0  0  0  0  0  0  0  0
   51.1355   28.1060   48.5204 H   0  0  0  0  0  0  0  0  0  0  0  0
   48.9907   28.8728   47.9021 H   0  0  0  0  0  0  0  0  0  0  0  0
   50.0850   30.1128   47.1985 H   0  0  0  0  0  0  0  0  0  0  0  0
   44.0400   32.9815   47.6367 H   0  0  0  0  0  0  0  0  0  0  0  0
   45.1696   34.2923   48.1659 H   0  0  0  0  0  0  0  0  0  0  0  0
   44.3365   35.2345   45.8451 H   0  0  0  0  0  0  0  0  0  0  0  0
   46.2524   32.8336   45.8200 H   0  0  0  0  0  0  0  0  0  0  0  0
   43.8729   35.6828   43.2675 H   0  0  0  0  0  0  0  0  0  0  0  0
   44.8806   35.7298   40.9768 H   0  0  0  0  0  0  0  0  0  0  0  0
   49.7147   35.0103   43.2728 H   0  0  0  0  0  0  0  0  0  0  0  0
   51.8843   33.9882   42.6498 H   0  0  0  0  0  0  0  0  0  0  0  0
   52.0064   31.9498   41.3083 H   0  0  0  0  0  0  0  0  0  0  0  0
   49.9170   30.8189   40.5125 H   0  0  0  0  0  0  0  0  0  0  0  0
  1  2  2  0
  2  3  1  0
  4  6  1  0
  4  3  1  0
  5  1  1  0
  5  4  2  0
  6  7  1  0
  7  8  1  0
  9  8  1  0
 10  9  1  0
 11  6  1  0
 11 10  1  0
 12  1  1  0
 13 14  2  0
 14 12  1  0
 15 13  1  0
 16 15  2  0
 17 16  1  0
 18 17  2  0
 18 19  1  0
 19 20  2  0
 20 15  1  0
 21 22  1  0
 22 23  2  0
 23 19  1  0
 23 24  1  0
 25 24  2  0
 26 25  1  0
 27 22  1  0
 27 26  2  0
  2 28  1  0
  3 29  1  0
  7 30  1  0
  7 31  1  0
  8 32  1  0
  8 33  1  0
  9 34  1  0
  9 35  1  0
 10 36  1  0
 10 37  1  0
 11 38  1  0
 11 39  1  0
 12 40  1  0
 12 41  1  0
 13 42  1  0
 14 43  1  0
 16 44  1  0
 17 45  1  0
 24 46  1  0
 25 47  1  0
 26 48  1  0
 27 49  1  0
M  ISO  8  28  14  29   9  30  13  31  13  32  13  33  13  34  13  35  13
M  ISO  8  36  13  37  13  38  13  39  13  40   8  41   8  44  14  45  14
M  ISO  4  46  14  47  14  48  14  49  14
M  END
>  <minimizedAffinity>  (1) 
-6.98058796

>  <minimizedRMSD>  (1) 
1.61555147

$$$$
