
     RDKit          3D

 26 27  0  0  0  0  0  0  0  0999 V2000
   44.5450   36.0260   44.4490 C   0  0  0  0  0  0  0  0  0  0  0  0
   45.1840   35.9740   43.1870 C   0  0  0  0  0  0  0  0  0  0  0  0
   46.0810   34.9290   42.9720 C   0  0  0  0  0  0  0  0  0  0  0  0
   46.3000   34.0270   43.9580 N   0  0  0  0  0  0  0  0  0  0  0  0
   45.6790   34.1010   45.1480 C   0  0  0  0  0  0  0  0  0  0  0  0
   44.8040   35.0920   45.4040 N   0  0  0  0  0  0  0  0  0  0  0  0
   44.3590   33.9490   47.6640 F   0  0  0  0  0  0  0  0  0  0  0  0
   45.3260   33.0280   47.3600 C   0  0  0  0  0  0  0  0  0  0  0  0
   45.9890   33.0760   46.1380 C   0  0  0  0  0  0  0  0  0  0  0  0
   46.9620   32.1480   45.8330 C   0  0  0  0  0  0  0  0  0  0  0  0
   47.2910   31.1520   46.7470 C   0  0  0  0  0  0  0  0  0  0  0  0
   46.6410   31.0870   47.9720 C   0  0  0  0  0  0  0  0  0  0  0  0
   45.6550   32.0300   48.2790 C   0  0  0  0  0  0  0  0  0  0  0  0
   46.7100   34.8800   41.7250 O   0  0  0  0  0  0  0  0  0  0  0  0
   48.6970   33.2790   41.0370 O   0  0  0  0  0  0  0  0  0  0  0  0
   48.4090   34.6430   41.6540 P   0  0  0  0  0  0  0  0  0  0  0  0
   49.1040   35.8880   40.7850 O   0  0  0  0  0  0  0  0  0  0  0  0
   48.9860   34.5920   43.2560 O   0  0  0  0  0  0  0  0  0  0  0  0
   43.8285   36.8333   44.6608 H   0  0  0  0  0  0  0  0  0  0  0  0
   44.9815   36.7256   42.4098 H   0  0  0  0  0  0  0  0  0  0  0  0
   47.4799   32.1953   44.8637 H   0  0  0  0  0  0  0  0  0  0  0  0
   48.0681   30.4142   46.4984 H   0  0  0  0  0  0  0  0  0  0  0  0
   46.8995   30.2998   48.6955 H   0  0  0  0  0  0  0  0  0  0  0  0
   45.1367   31.9852   49.2482 H   0  0  0  0  0  0  0  0  0  0  0  0
   49.4781   36.5582   41.4103 H   0  0  0  0  0  0  0  0  0  0  0  0
   48.2234   34.6594   43.8837 H   0  0  0  0  0  0  0  0  0  0  0  0
  1  6  2  0
  2  1  1  0
  3  2  2  0
  3  4  1  0
  4  5  2  0
  5  6  1  0
  5  9  1  0
  8  7  1  0
  8 13  2  0
  9  8  1  0
 10  9  2  0
 10 11  1  0
 11 12  2  0
 12 13  1  0
 14  3  1  0
 15 16  2  0
 16 14  1  0
 16 18  1  0
 17 16  1  0
  1 19  1  0
  2 20  1  0
 10 21  1  0
 11 22  1  0
 12 23  1  0
 13 24  1  0
 17 25  1  0
 18 26  1  0
M  ISO  8  19  14  20  14  21  14  22  14  23  14  24  14  25   3  26   3
M  END
>  <minimizedAffinity>  (1) 
-6.14101267

>  <minimizedRMSD>  (1) 
0.498634189

$$$$
