
     RDKit          3D

 33 35  0  0  0  0  0  0  0  0999 V2000
   46.2170   29.6700   44.6950 Br  0  0  0  0  0  0  0  0  0  0  0  0
   45.8690   30.5130   46.3820 C   0  0  0  0  0  0  0  0  0  0  0  0
   46.3010   31.8120   46.5290 C   0  0  0  0  0  0  0  0  0  0  0  0
   46.0260   32.3780   47.7670 C   0  0  0  0  0  0  0  0  0  0  0  0
   45.3730   31.7140   48.7890 C   0  0  0  0  0  0  0  0  0  0  0  0
   44.9710   30.4210   48.5740 C   0  0  0  0  0  0  0  0  0  0  0  0
   45.2110   29.7810   47.3540 C   0  0  0  0  0  0  0  0  0  0  0  0
   42.9390   29.0050   45.8240 F   0  0  0  0  0  0  0  0  0  0  0  0
   43.7090   28.0000   46.3320 C   0  0  0  0  0  0  0  0  0  0  0  0
   44.8050   28.4070   47.0710 C   0  0  0  0  0  0  0  0  0  0  0  0
   45.6600   27.4540   47.6370 C   0  0  0  0  0  0  0  0  0  0  0  0
   45.4110   26.0930   47.4600 C   0  0  0  0  0  0  0  0  0  0  0  0
   44.3070   25.7340   46.7150 C   0  0  0  0  0  0  0  0  0  0  0  0
   43.4500   26.6580   46.1480 C   0  0  0  0  0  0  0  0  0  0  0  0
   46.9970   32.6090   45.5240 C   0  0  0  0  0  0  0  0  0  0  0  0
   44.5460   35.4040   45.2140 C   0  0  0  0  0  0  0  0  0  0  0  0
   44.7850   35.8470   43.9090 C   0  0  0  0  0  0  0  0  0  0  0  0
   45.7590   35.1990   43.1720 C   0  0  0  0  0  0  0  0  0  0  0  0
   46.4400   34.1710   43.7270 N   0  0  0  0  0  0  0  0  0  0  0  0
   46.1920   33.7470   45.0110 C   0  0  0  0  0  0  0  0  0  0  0  0
   45.2400   34.3890   45.7180 N   0  0  0  0  0  0  0  0  0  0  0  0
   46.3464   33.4152   47.9449 H   0  0  0  0  0  0  0  0  0  0  0  0
   45.1807   32.2111   49.7512 H   0  0  0  0  0  0  0  0  0  0  0  0
   44.4502   29.8771   49.3758 H   0  0  0  0  0  0  0  0  0  0  0  0
   46.5316   27.7797   48.2236 H   0  0  0  0  0  0  0  0  0  0  0  0
   46.0725   25.3319   47.8995 H   0  0  0  0  0  0  0  0  0  0  0  0
   44.0995   24.6642   46.5655 H   0  0  0  0  0  0  0  0  0  0  0  0
   42.5790   26.3298   45.5618 H   0  0  0  0  0  0  0  0  0  0  0  0
   47.9185   33.0083   45.9728 H   0  0  0  0  0  0  0  0  0  0  0  0
   47.2029   31.9465   44.6703 H   0  0  0  0  0  0  0  0  0  0  0  0
   43.7785   35.8990   45.8271 H   0  0  0  0  0  0  0  0  0  0  0  0
   44.2153   36.6855   43.4820 H   0  0  0  0  0  0  0  0  0  0  0  0
   45.9782   35.5173   42.1421 H   0  0  0  0  0  0  0  0  0  0  0  0
  1  2  1  0
  2  3  2  0
  2  7  1  0
  3  4  1  0
  4  5  2  0
  6  5  1  0
  7  6  2  0
  8  9  1  0
  9 10  2  0
 10  7  1  0
 10 11  1  0
 12 11  2  0
 13 12  1  0
 14  9  1  0
 14 13  2  0
 15  3  1  0
 16 21  2  0
 17 16  1  0
 18 19  1  0
 18 17  2  0
 19 20  2  0
 20 15  1  0
 20 21  1  0
  4 22  1  0
  5 23  1  0
  6 24  1  0
 11 25  1  0
 12 26  1  0
 13 27  1  0
 14 28  1  0
 15 29  1  0
 15 30  1  0
 16 31  1  0
 17 32  1  0
 18 33  1  0
M  ISO  8  22  14  23  14  24  14  25  14  26  14  27  14  28  14  29   8
M  ISO  4  30   8  31  14  32  14  33  14
M  END
>  <minimizedAffinity>  (1) 
-5.47473621

>  <minimizedRMSD>  (1) 
0.932460666

$$$$
