
     RDKit          3D

 21 22  0  0  0  0  0  0  0  0999 V2000
   44.8310   35.0060   45.5780 C   0  0  0  0  0  0  0  0  0  0  0  0
   44.4260   36.0530   44.7360 C   0  0  0  0  0  0  0  0  0  0  0  0
   44.9990   36.0950   43.4410 C   0  0  0  0  0  0  0  0  0  0  0  0
   45.8970   35.1270   43.1030 N   0  0  0  0  0  0  0  0  0  0  0  0
   46.2480   34.1480   43.9500 C   0  0  0  0  0  0  0  0  0  0  0  0
   45.7180   34.0870   45.1810 N   0  0  0  0  0  0  0  0  0  0  0  0
   45.7510   31.3970   44.1750 F   0  0  0  0  0  0  0  0  0  0  0  0
   46.9390   31.7960   43.6460 C   0  0  0  0  0  0  0  0  0  0  0  0
   47.2200   33.1380   43.5200 C   0  0  0  0  0  0  0  0  0  0  0  0
   48.4280   33.5550   42.9830 C   0  0  0  0  0  0  0  0  0  0  0  0
   49.3430   32.5960   42.5770 C   0  0  0  0  0  0  0  0  0  0  0  0
   49.0860   31.2480   42.6930 C   0  0  0  0  0  0  0  0  0  0  0  0
   47.8750   30.8670   43.2310 C   0  0  0  0  0  0  0  0  0  0  0  0
   44.2710   34.9710   46.8320 O   0  0  0  0  0  0  0  0  0  0  0  0
   43.6965   36.8071   45.0665 H   0  0  0  0  0  0  0  0  0  0  0  0
   44.7266   36.8871   42.7279 H   0  0  0  0  0  0  0  0  0  0  0  0
   48.6562   34.6262   42.8810 H   0  0  0  0  0  0  0  0  0  0  0  0
   50.3029   32.9214   42.1495 H   0  0  0  0  0  0  0  0  0  0  0  0
   49.8231   30.4994   42.3670 H   0  0  0  0  0  0  0  0  0  0  0  0
   47.6476   29.7956   43.3327 H   0  0  0  0  0  0  0  0  0  0  0  0
   44.5218   34.2534   47.4663 H   0  0  0  0  0  0  0  0  0  0  0  0
  1 14  1  0
  2  1  2  0
  3  2  1  0
  4  3  2  0
  4  5  1  0
  5  6  2  0
  6  1  1  0
  8  7  1  0
  9  8  2  0
  9  5  1  0
 10  9  1  0
 11 12  1  0
 11 10  2  0
 12 13  2  0
 13  8  1  0
  2 15  1  0
  3 16  1  0
 10 17  1  0
 11 18  1  0
 12 19  1  0
 13 20  1  0
 14 21  1  0
M  ISO  7  15  14  16  14  17  14  18  14  19  14  20  14  21   3
M  END
>  <minimizedAffinity>  (1) 
-4.74567604

>  <minimizedRMSD>  (1) 
4.76887465

$$$$
