
     RDKit          3D

 44 47  0  0  1  0  0  0  0  0999 V2000
   48.3150   34.2290   40.9370 C   0  0  0  0  0  0  0  0  0  0  0  0
   47.8020   34.3350   39.6700 C   0  0  0  0  0  0  0  0  0  0  0  0
   48.1420   33.4790   38.6270 C   0  0  0  0  0  0  0  0  0  0  0  0
   49.0360   32.5060   38.9460 N   0  0  0  0  0  0  0  0  0  0  0  0
   49.5430   32.3950   40.1800 C   0  0  0  0  0  0  0  0  0  0  0  0
   49.1840   33.2440   41.1510 N   0  0  0  0  0  0  0  0  0  0  0  0
   50.5050   31.3090   40.5500 C   0  0  2  0  0  0  0  0  0  0  0  0
   51.2040   31.3960   41.8720 C   0  0  0  0  0  0  0  0  0  0  0  0
   51.9470   31.6840   40.5640 C   0  0  1  0  0  0  0  0  0  0  0  0
   53.7630   31.6410   38.2870 F   0  0  0  0  0  0  0  0  0  0  0  0
   53.9180   30.6840   39.2160 C   0  0  0  0  0  0  0  0  0  0  0  0
   53.0270   30.7560   40.2580 C   0  0  0  0  0  0  0  0  0  0  0  0
   53.1430   29.7730   41.2480 C   0  0  0  0  0  0  0  0  0  0  0  0
   54.1140   28.7710   41.1840 C   0  0  0  0  0  0  0  0  0  0  0  0
   55.0010   28.7280   40.1170 C   0  0  0  0  0  0  0  0  0  0  0  0
   54.8770   29.7020   39.1450 C   0  0  0  0  0  0  0  0  0  0  0  0
   47.9350   35.1250   42.0130 C   0  0  0  0  0  0  0  0  0  0  0  0
   46.4830   34.9550   42.3240 C   0  0  0  0  0  0  0  0  0  0  0  0
   44.5460   36.4220   44.0570 Cl  0  0  0  0  0  0  0  0  0  0  0  0
   45.3740   34.9720   44.5780 C   0  0  0  0  0  0  0  0  0  0  0  0
   46.2430   34.3900   43.6780 C   0  0  0  0  0  0  0  0  0  0  0  0
   46.9010   33.2370   44.0840 C   0  0  0  0  0  0  0  0  0  0  0  0
   46.6950   32.6950   45.3380 C   0  0  0  0  0  0  0  0  0  0  0  0
   45.8020   33.3110   46.2350 C   0  0  0  0  0  0  0  0  0  0  0  0
   45.1560   34.4450   45.8330 C   0  0  0  0  0  0  0  0  0  0  0  0
   44.2590   35.1210   46.6500 O   0  0  0  0  0  0  0  0  0  0  0  0
   47.0819   35.1413   39.4668 H   0  0  0  0  0  0  0  0  0  0  0  0
   47.7180   33.5822   37.6173 H   0  0  0  0  0  0  0  0  0  0  0  0
   49.9059   30.5260   40.0622 H   0  0  0  0  0  0  0  0  0  0  0  0
   50.9712   32.2156   42.5678 H   0  0  0  0  0  0  0  0  0  0  0  0
   51.3534   30.7191   42.7261 H   0  0  0  0  0  0  0  0  0  0  0  0
   52.4911   32.5077   40.0787 H   0  0  0  0  0  0  0  0  0  0  0  0
   52.4491   29.7902   42.1013 H   0  0  0  0  0  0  0  0  0  0  0  0
   54.1759   28.0147   41.9804 H   0  0  0  0  0  0  0  0  0  0  0  0
   55.7734   27.9479   40.0480 H   0  0  0  0  0  0  0  0  0  0  0  0
   55.5668   29.6912   38.2882 H   0  0  0  0  0  0  0  0  0  0  0  0
   48.5300   34.8931   42.9087 H   0  0  0  0  0  0  0  0  0  0  0  0
   48.1210   36.1640   41.7034 H   0  0  0  0  0  0  0  0  0  0  0  0
   45.9935   35.9381   42.2622 H   0  0  0  0  0  0  0  0  0  0  0  0
   46.0699   34.2450   41.5924 H   0  0  0  0  0  0  0  0  0  0  0  0
   47.6010   32.7447   43.3929 H   0  0  0  0  0  0  0  0  0  0  0  0
   47.2295   31.7809   45.6359 H   0  0  0  0  0  0  0  0  0  0  0  0
   45.6287   32.8890   47.2359 H   0  0  0  0  0  0  0  0  0  0  0  0
   44.0676   34.7834   47.5607 H   0  0  0  0  0  0  0  0  0  0  0  0
  1  6  1  0
  1 17  1  0
  2  1  2  0
  3  4  2  0
  3  2  1  0
  4  5  1  0
  5  7  1  0
  5  6  2  0
  7  9  1  0
  7  8  1  0
  9  8  1  0
 10 11  1  0
 11 12  2  0
 12  9  1  0
 12 13  1  0
 14 13  2  0
 15 14  1  0
 16 11  1  0
 16 15  2  0
 17 18  1  0
 18 21  1  0
 19 20  1  0
 20 25  2  0
 21 22  2  0
 21 20  1  0
 22 23  1  0
 23 24  2  0
 25 24  1  0
 25 26  1  0
  2 27  1  0
  3 28  1  0
  7 29  1  6
  8 30  1  0
  8 31  1  0
  9 32  1  1
 13 33  1  0
 14 34  1  0
 15 35  1  0
 16 36  1  0
 17 37  1  0
 17 38  1  0
 18 39  1  0
 18 40  1  0
 22 41  1  0
 23 42  1  0
 24 43  1  0
 26 44  1  0
M  ISO  8  27  14  28  14  29  13  30  13  31  13  32  13  33  14  34  14
M  ISO  8  35  14  36  14  37   8  38   8  39   8  40   8  41  14  42  14
M  ISO  2  43  14  44   3
M  END
>  <minimizedAffinity>  (1) 
-6.10773706

>  <minimizedRMSD>  (1) 
0.129733652

$$$$
