
     RDKit          3D

 36 38  0  0  1  0  0  0  0  0999 V2000
   45.2010   33.3730   41.7980 C   0  0  2  0  0  0  0  0  0  0  0  0
   44.0370   32.5520   41.4050 C   0  0  0  0  0  0  0  0  0  0  0  0
   44.3840   31.2540   40.7640 C   0  0  0  0  0  0  0  0  0  0  0  0
   45.3520   31.3940   39.6050 C   0  0  0  0  0  0  0  0  0  0  0  0
   46.4150   32.4410   39.8240 C   0  0  0  0  0  0  0  0  0  0  0  0
   46.5130   32.7850   41.2900 C   0  0  1  0  0  0  0  0  0  0  0  0
   45.3260   33.4880   43.2650 C   0  0  0  0  0  0  0  0  0  0  0  0
   45.7130   32.3170   43.9460 C   0  0  0  0  0  0  0  0  0  0  0  0
   45.8630   32.3300   45.3380 C   0  0  0  0  0  0  0  0  0  0  0  0
   45.6120   33.5320   45.9650 N   0  0  0  0  0  0  0  0  0  0  0  0
   45.2410   34.6420   45.2860 C   0  0  0  0  0  0  0  0  0  0  0  0
   45.1010   34.6120   43.9440 N   0  0  0  0  0  0  0  0  0  0  0  0
   48.7610   31.8320   42.7870 F   0  0  0  0  0  0  0  0  0  0  0  0
   48.7800   33.1240   42.3900 C   0  0  0  0  0  0  0  0  0  0  0  0
   47.6800   33.5610   41.6660 C   0  0  0  0  0  0  0  0  0  0  0  0
   47.7630   34.9080   41.2860 C   0  0  0  0  0  0  0  0  0  0  0  0
   48.7910   35.7650   41.5640 C   0  0  0  0  0  0  0  0  0  0  0  0
   49.8450   35.2750   42.2790 C   0  0  0  0  0  0  0  0  0  0  0  0
   49.8390   33.9590   42.6910 C   0  0  0  0  0  0  0  0  0  0  0  0
   45.0211   34.3601   41.3472 H   0  0  0  0  0  0  0  0  0  0  0  0
   43.4447   32.3417   42.3077 H   0  0  0  0  0  0  0  0  0  0  0  0
   43.4840   33.1338   40.6529 H   0  0  0  0  0  0  0  0  0  0  0  0
   44.8407   30.6016   41.5228 H   0  0  0  0  0  0  0  0  0  0  0  0
   43.4520   30.8324   40.3594 H   0  0  0  0  0  0  0  0  0  0  0  0
   44.7794   31.6638   38.7054 H   0  0  0  0  0  0  0  0  0  0  0  0
   45.8692   30.4288   39.5006 H   0  0  0  0  0  0  0  0  0  0  0  0
   47.3839   32.0535   39.4761 H   0  0  0  0  0  0  0  0  0  0  0  0
   46.1485   33.3468   39.2597 H   0  0  0  0  0  0  0  0  0  0  0  0
   46.6798   31.8314   41.8123 H   0  0  0  0  0  0  0  0  0  0  0  0
   45.8977   31.3903   43.3828 H   0  0  0  0  0  0  0  0  0  0  0  0
   46.1638   31.4329   45.8991 H   0  0  0  0  0  0  0  0  0  0  0  0
   45.0517   35.5775   45.8328 H   0  0  0  0  0  0  0  0  0  0  0  0
   46.9196   35.3143   40.7085 H   0  0  0  0  0  0  0  0  0  0  0  0
   48.7694   36.8109   41.2240 H   0  0  0  0  0  0  0  0  0  0  0  0
   50.6959   35.9271   42.5257 H   0  0  0  0  0  0  0  0  0  0  0  0
   50.6901   33.5681   43.2679 H   0  0  0  0  0  0  0  0  0  0  0  0
  1  7  1  0
  2  1  1  0
  3  2  1  0
  4  5  1  0
  4  3  1  0
  5  6  1  0
  6 15  1  0
  6  1  1  0
  7 12  1  0
  7  8  2  0
  8  9  1  0
  9 10  2  0
 11 10  1  0
 12 11  2  0
 14 19  2  0
 14 13  1  0
 15 14  1  0
 16 17  1  0
 16 15  2  0
 17 18  2  0
 18 19  1  0
  1 20  1  6
  2 21  1  0
  2 22  1  0
  3 23  1  0
  3 24  1  0
  4 25  1  0
  4 26  1  0
  5 27  1  0
  5 28  1  0
  6 29  1  1
  8 30  1  0
  9 31  1  0
 11 32  1  0
 16 33  1  0
 17 34  1  0
 18 35  1  0
 19 36  1  0
M  ISO  8  20  13  21  13  22  13  23  13  24  13  25  13  26  13  27  13
M  ISO  8  28  13  29  13  30  14  31  14  32  14  33  14  34  14  35  14
M  ISO  1  36  14
M  END
>  <minimizedAffinity>  (1) 
-4.69504642

>  <minimizedRMSD>  (1) 
4.79849291

$$$$
