
     RDKit          3D

 31 33  0  0  1  0  0  0  0  0999 V2000
   45.5840   36.2170   43.2320 C   0  0  0  0  0  0  0  0  0  0  0  0
   46.2220   34.9680   43.0180 C   0  0  0  0  0  0  0  0  0  0  0  0
   45.9480   34.0050   43.9640 C   0  0  0  0  0  0  0  0  0  0  0  0
   45.1330   34.2170   45.0190 N   0  0  0  0  0  0  0  0  0  0  0  0
   44.5350   35.4400   45.1860 C   0  0  0  0  0  0  0  0  0  0  0  0
   44.7680   36.4310   44.2880 N   0  0  0  0  0  0  0  0  0  0  0  0
   46.5350   32.7500   43.8190 C   0  0  0  0  0  0  0  0  0  0  0  0
   47.7940   32.2460   44.0380 C   0  0  0  0  0  0  0  0  0  0  0  0
   48.1250   30.9860   43.7920 C   0  0  0  0  0  0  0  0  0  0  0  0
   47.1370   30.1690   43.2960 C   0  0  0  0  0  0  0  0  0  0  0  0
   45.6820   31.3120   43.1950 S   0  0  0  0  0  0  0  0  0  0  0  0
   47.0290   34.8340   41.8720 C   0  0  0  0  0  0  0  0  0  0  0  0
   48.2280   35.3910   41.9960 O   0  0  0  0  0  0  0  0  0  0  0  0
   44.6790   33.3630   40.6150 F   0  0  0  0  0  0  0  0  0  0  0  0
   45.8050   33.4900   39.9020 C   0  0  0  0  0  0  0  0  0  0  0  0
   46.7730   34.2030   40.5470 C   0  0  0  0  0  0  0  0  0  0  0  0
   47.8900   34.3520   39.6870 C   0  0  0  0  0  0  0  0  0  0  0  0
   48.0400   33.8780   38.3970 C   0  0  0  0  0  0  0  0  0  0  0  0
   46.9690   33.1760   37.8980 C   0  0  0  0  0  0  0  0  0  0  0  0
   45.8360   32.9730   38.6430 C   0  0  0  0  0  0  0  0  0  0  0  0
   45.7585   37.0351   42.5177 H   0  0  0  0  0  0  0  0  0  0  0  0
   43.8695   35.6170   46.0438 H   0  0  0  0  0  0  0  0  0  0  0  0
   48.5654   32.9210   44.4371 H   0  0  0  0  0  0  0  0  0  0  0  0
   49.1428   30.6118   43.9762 H   0  0  0  0  0  0  0  0  0  0  0  0
   47.1954   29.1041   43.0267 H   0  0  0  0  0  0  0  0  0  0  0  0
   47.4284   33.8870   42.2640 H   0  0  0  0  0  0  0  0  0  0  0  0
   48.4469   35.4927   42.9561 H   0  0  0  0  0  0  0  0  0  0  0  0
   48.7424   34.9140   40.0965 H   0  0  0  0  0  0  0  0  0  0  0  0
   48.9541   34.0509   37.8101 H   0  0  0  0  0  0  0  0  0  0  0  0
   47.0220   32.7678   36.8779 H   0  0  0  0  0  0  0  0  0  0  0  0
   44.9814   32.4117   38.2373 H   0  0  0  0  0  0  0  0  0  0  0  0
  1  6  2  0
  2  1  1  0
  2  3  2  0
  3  4  1  0
  4  5  2  0
  6  5  1  0
  7  3  1  0
  7  8  2  0
  9  8  1  0
 10  9  2  0
 11 10  1  0
 11  7  1  0
 12 13  1  0
 12  2  1  0
 15 16  2  0
 15 14  1  0
 16 12  1  0
 17 16  1  0
 18 17  2  0
 19 18  1  0
 19 20  2  0
 20 15  1  0
  1 21  1  0
  5 22  1  0
  8 23  1  0
  9 24  1  0
 10 25  1  0
 12 26  1  0
 13 27  1  0
 17 28  1  0
 18 29  1  0
 19 30  1  0
 20 31  1  0
M  ISO  8  21  14  22  14  23  14  24  14  25  14  26   8  27   3  28  14
M  ISO  3  29  14  30  14  31  14
M  END
>  <minimizedAffinity>  (1) 
-4.80814457

>  <minimizedRMSD>  (1) 
1.28519475

$$$$
