
     RDKit          3D

 29 30  0  0  0  0  0  0  0  0999 V2000
   48.4230   32.9280   41.3100 O   0  0  0  0  0  0  0  0  0  0  0  0
   47.3140   33.9710   41.2200 P   0  0  2  0  0  0  0  0  0  0  0  0
   45.9340   33.3800   42.0700 O   0  0  0  0  0  0  0  0  0  0  0  0
   44.4090   35.8410   44.3070 C   0  0  0  0  0  0  0  0  0  0  0  0
   44.8230   35.2070   43.1100 C   0  0  0  0  0  0  0  0  0  0  0  0
   45.5250   34.0080   43.2430 C   0  0  0  0  0  0  0  0  0  0  0  0
   45.7830   33.5050   44.4710 N   0  0  0  0  0  0  0  0  0  0  0  0
   45.3670   34.1490   45.5940 C   0  0  0  0  0  0  0  0  0  0  0  0
   44.6850   35.3090   45.5090 N   0  0  0  0  0  0  0  0  0  0  0  0
   46.8700   34.3100   39.6560 O   0  0  0  0  0  0  0  0  0  0  0  0
   48.5580   35.0250   37.5700 F   0  0  0  0  0  0  0  0  0  0  0  0
   48.0250   33.8010   37.6040 C   0  0  0  0  0  0  0  0  0  0  0  0
   47.1820   33.4190   38.6300 C   0  0  0  0  0  0  0  0  0  0  0  0
   46.6690   32.1390   38.6000 C   0  0  0  0  0  0  0  0  0  0  0  0
   46.9760   31.2500   37.5820 C   0  0  0  0  0  0  0  0  0  0  0  0
   47.8100   31.6150   36.5600 C   0  0  0  0  0  0  0  0  0  0  0  0
   48.3130   32.8870   36.6000 C   0  0  0  0  0  0  0  0  0  0  0  0
   47.8400   35.3460   42.0400 O   0  0  0  0  0  0  0  0  0  0  0  0
   49.0540   35.8130   41.5770 C   0  0  0  0  0  0  0  0  0  0  0  0
   49.3270   37.1190   41.9400 F   0  0  0  0  0  0  0  0  0  0  0  0
   50.0570   34.9250   41.9400 F   0  0  0  0  0  0  0  0  0  0  0  0
   48.9790   35.7960   40.1780 F   0  0  0  0  0  0  0  0  0  0  0  0
   43.8508   36.7872   44.2511 H   0  0  0  0  0  0  0  0  0  0  0  0
   44.6018   35.6389   42.1228 H   0  0  0  0  0  0  0  0  0  0  0  0
   45.5891   33.7192   46.5819 H   0  0  0  0  0  0  0  0  0  0  0  0
   45.9965   31.8143   39.4077 H   0  0  0  0  0  0  0  0  0  0  0  0
   46.5440   30.2385   37.5956 H   0  0  0  0  0  0  0  0  0  0  0  0
   48.0636   30.9198   35.7462 H   0  0  0  0  0  0  0  0  0  0  0  0
   48.9851   33.2037   35.7888 H   0  0  0  0  0  0  0  0  0  0  0  0
  2  1  2  0
  2 18  1  0
  2  3  1  0
  3  6  1  0
  4  9  2  0
  5  6  2  0
  5  4  1  0
  6  7  1  0
  7  8  2  0
  9  8  1  0
 10  2  1  0
 11 12  1  0
 12 13  2  0
 13 10  1  0
 14 13  1  0
 15 14  2  0
 16 17  2  0
 16 15  1  0
 17 12  1  0
 19 20  1  0
 19 21  1  0
 19 18  1  0
 22 19  1  0
  4 23  1  0
  5 24  1  0
  8 25  1  0
 14 26  1  0
 15 27  1  0
 16 28  1  0
 17 29  1  0
M  ISO  7  23  14  24  14  25  14  26  14  27  14  28  14  29  14
M  END
>  <minimizedAffinity>  (1) 
-5.43069839

>  <minimizedRMSD>  (1) 
1.27044523

$$$$
