
     RDKit          3D

 47 49  0  0  1  0  0  0  0  0999 V2000
   47.3270   33.8720   42.7470 N   0  0  0  0  0  0  0  0  0  0  0  0
   46.9620   35.2170   42.4970 C   0  0  0  0  0  0  0  0  0  0  0  0
   45.5320   35.5660   42.8660 C   0  0  0  0  0  0  0  0  0  0  0  0
   45.0230   34.8440   44.0920 C   0  0  0  0  0  0  0  0  0  0  0  0
   46.0790   33.9610   44.7060 C   0  0  0  0  0  0  0  0  0  0  0  0
   46.5270   33.0400   43.5140 C   0  0  2  0  0  0  0  0  0  0  0  0
   48.1520   33.2910   41.7300 C   0  0  0  0  0  0  0  0  0  0  0  0
   47.2830   32.6950   40.6760 C   0  0  0  0  0  0  0  0  0  0  0  0
   48.8650   32.2580   37.2950 C   0  0  0  0  0  0  0  0  0  0  0  0
   48.3260   31.9750   38.5660 C   0  0  0  0  0  0  0  0  0  0  0  0
   47.8480   33.0070   39.3380 C   0  0  0  0  0  0  0  0  0  0  0  0
   47.9180   34.2510   38.8370 N   0  0  0  0  0  0  0  0  0  0  0  0
   48.4370   34.5060   37.6160 C   0  0  0  0  0  0  0  0  0  0  0  0
   48.9130   33.5140   36.8390 N   0  0  0  0  0  0  0  0  0  0  0  0
   47.2720   32.0720   44.1750 O   0  0  0  0  0  0  0  0  0  0  0  0
   46.9510   29.6770   43.0860 O   0  0  0  0  0  0  0  0  0  0  0  0
   46.4990   30.5810   44.2140 P   0  0  2  0  0  0  0  0  0  0  0  0
   44.8400   30.8920   43.9280 O   0  0  0  0  0  0  0  0  0  0  0  0
   46.6350   29.8240   45.7060 O   0  0  0  0  0  0  0  0  0  0  0  0
   44.2600   29.4510   46.9170 F   0  0  0  0  0  0  0  0  0  0  0  0
   45.2240   30.2530   47.4680 C   0  0  0  0  0  0  0  0  0  0  0  0
   46.4640   30.4910   46.9060 C   0  0  0  0  0  0  0  0  0  0  0  0
   47.3410   31.3260   47.5770 C   0  0  0  0  0  0  0  0  0  0  0  0
   46.9880   31.9020   48.7690 C   0  0  0  0  0  0  0  0  0  0  0  0
   45.7570   31.6790   49.3490 C   0  0  0  0  0  0  0  0  0  0  0  0
   44.8620   30.8380   48.6810 C   0  0  0  0  0  0  0  0  0  0  0  0
   47.6337   35.8675   43.0764 H   0  0  0  0  0  0  0  0  0  0  0  0
   47.0469   35.3647   41.4103 H   0  0  0  0  0  0  0  0  0  0  0  0
   45.4769   36.6485   43.0536 H   0  0  0  0  0  0  0  0  0  0  0  0
   44.8986   35.2509   42.0236 H   0  0  0  0  0  0  0  0  0  0  0  0
   44.7058   35.5888   44.8367 H   0  0  0  0  0  0  0  0  0  0  0  0
   44.1818   34.2050   43.7854 H   0  0  0  0  0  0  0  0  0  0  0  0
   46.9233   34.5593   45.0792 H   0  0  0  0  0  0  0  0  0  0  0  0
   45.7103   33.3915   45.5719 H   0  0  0  0  0  0  0  0  0  0  0  0
   45.7539   32.5833   42.8786 H   0  0  0  0  0  0  0  0  0  0  0  0
   48.7899   34.0687   41.2847 H   0  0  0  0  0  0  0  0  0  0  0  0
   48.7874   32.5090   42.1713 H   0  0  0  0  0  0  0  0  0  0  0  0
   47.2382   31.6042   40.8105 H   0  0  0  0  0  0  0  0  0  0  0  0
   46.2691   33.1145   40.7543 H   0  0  0  0  0  0  0  0  0  0  0  0
   49.2501   31.4374   36.6718 H   0  0  0  0  0  0  0  0  0  0  0  0
   48.2882   30.9398   38.9361 H   0  0  0  0  0  0  0  0  0  0  0  0
   48.4715   35.5426   37.2497 H   0  0  0  0  0  0  0  0  0  0  0  0
   44.3670   30.9807   44.7931 H   0  0  0  0  0  0  0  0  0  0  0  0
   48.3332   31.5295   47.1480 H   0  0  0  0  0  0  0  0  0  0  0  0
   47.7070   32.5610   49.2777 H   0  0  0  0  0  0  0  0  0  0  0  0
   45.4877   32.1480   50.3069 H   0  0  0  0  0  0  0  0  0  0  0  0
   43.8705   30.6374   49.1130 H   0  0  0  0  0  0  0  0  0  0  0  0
  1  6  1  0
  2  1  1  0
  2  3  1  0
  3  4  1  0
  4  5  1  0
  6 15  1  0
  6  5  1  0
  7  1  1  0
  8  7  1  0
  9 10  2  0
 10 11  1  0
 11  8  1  0
 12 11  2  0
 13 12  1  0
 14  9  1  0
 14 13  2  0
 15 17  1  0
 17 16  2  0
 17 19  1  0
 18 17  1  0
 19 22  1  0
 20 21  1  0
 21 26  2  0
 22 21  1  0
 22 23  2  0
 23 24  1  0
 24 25  2  0
 26 25  1  0
  2 27  1  0
  2 28  1  0
  3 29  1  0
  3 30  1  0
  4 31  1  0
  4 32  1  0
  5 33  1  0
  5 34  1  0
  6 35  1  6
  7 36  1  0
  7 37  1  0
  8 38  1  0
  8 39  1  0
  9 40  1  0
 10 41  1  0
 13 42  1  0
 18 43  1  0
 23 44  1  0
 24 45  1  0
 25 46  1  0
 26 47  1  0
M  ISO  8  27  13  28  13  29  13  30  13  31  13  32  13  33  13  34  13
M  ISO  8  35  13  36   8  37   8  38   8  39   8  40  14  41  14  42  14
M  ISO  5  43   3  44  14  45  14  46  14  47  14
M  END
>  <minimizedAffinity>  (1) 
-5.14780569

>  <minimizedRMSD>  (1) 
2.20207882

$$$$
