
     RDKit          3D

 45 48  0  0  1  0  0  0  0  0999 V2000
   42.8060   34.4390   38.7310 C   0  0  1  0  0  0  0  0  0  0  0  0
   42.9960   35.1500   40.0700 C   0  0  1  0  0  0  0  0  0  0  0  0
   41.7320   35.5040   40.5830 O   0  0  0  0  0  0  0  0  0  0  0  0
   40.8230   35.8570   39.5900 C   0  0  0  0  0  0  0  0  0  0  0  0
   40.4120   34.6390   38.7750 C   0  0  2  0  0  0  0  0  0  0  0  0
   41.5500   33.6020   38.9070 C   0  0  1  0  0  0  0  0  0  0  0  0
   42.6190   35.3670   37.7080 O   0  0  0  0  0  0  0  0  0  0  0  0
   40.4270   35.0000   37.4250 O   0  0  0  0  0  0  0  0  0  0  0  0
   43.4740   34.1800   40.9600 O   0  0  0  0  0  0  0  0  0  0  0  0
   44.5800   34.2950   41.7030 C   0  0  0  0  0  0  0  0  0  0  0  0
   45.8310   34.4320   41.1060 C   0  0  0  0  0  0  0  0  0  0  0  0
   46.9510   34.5510   41.9140 C   0  0  0  0  0  0  0  0  0  0  0  0
   46.7990   34.5290   43.2930 N   0  0  0  0  0  0  0  0  0  0  0  0
   45.5750   34.3940   43.8310 C   0  0  0  0  0  0  0  0  0  0  0  0
   44.4700   34.2770   43.0540 N   0  0  0  0  0  0  0  0  0  0  0  0
   48.3250   34.6850   41.3220 C   0  0  0  0  0  0  0  0  0  0  0  0
   49.0440   35.9990   41.5200 C   0  0  0  0  0  0  0  0  0  0  0  0
   49.4790   34.6850   42.1800 C   0  0  0  0  0  0  0  0  0  0  0  0
   41.4150   32.6020   37.9680 O   0  0  0  0  0  0  0  0  0  0  0  0
   41.9780   30.5540   36.3140 F   0  0  0  0  0  0  0  0  0  0  0  0
   40.8480   30.5820   37.0710 C   0  0  0  0  0  0  0  0  0  0  0  0
   40.4770   31.6000   37.9540 C   0  0  0  0  0  0  0  0  0  0  0  0
   39.2890   31.4590   38.6420 C   0  0  0  0  0  0  0  0  0  0  0  0
   38.5050   30.3400   38.4520 C   0  0  0  0  0  0  0  0  0  0  0  0
   38.8730   29.3340   37.5800 C   0  0  0  0  0  0  0  0  0  0  0  0
   40.0570   29.4530   36.8800 C   0  0  0  0  0  0  0  0  0  0  0  0
   43.6820   33.8312   38.4605 H   0  0  0  0  0  0  0  0  0  0  0  0
   43.6521   36.0249   39.9512 H   0  0  0  0  0  0  0  0  0  0  0  0
   39.9296   36.2956   40.0584 H   0  0  0  0  0  0  0  0  0  0  0  0
   41.3003   36.5857   38.9183 H   0  0  0  0  0  0  0  0  0  0  0  0
   39.4321   34.2658   39.1075 H   0  0  0  0  0  0  0  0  0  0  0  0
   41.5585   33.0627   39.8657 H   0  0  0  0  0  0  0  0  0  0  0  0
   42.4394   36.2583   38.0997 H   0  0  0  0  0  0  0  0  0  0  0  0
   40.4680   35.9861   37.3475 H   0  0  0  0  0  0  0  0  0  0  0  0
   45.9286   34.4455   40.0104 H   0  0  0  0  0  0  0  0  0  0  0  0
   45.4672   34.3781   44.9256 H   0  0  0  0  0  0  0  0  0  0  0  0
   48.0421   34.0779   40.4494 H   0  0  0  0  0  0  0  0  0  0  0  0
   49.6382   36.4402   40.7062 H   0  0  0  0  0  0  0  0  0  0  0  0
   48.7781   37.0119   41.8566 H   0  0  0  0  0  0  0  0  0  0  0  0
   49.3544   34.5500   43.2646 H   0  0  0  0  0  0  0  0  0  0  0  0
   50.4168   34.1110   42.2121 H   0  0  0  0  0  0  0  0  0  0  0  0
   38.9661   32.2416   39.3443 H   0  0  0  0  0  0  0  0  0  0  0  0
   37.5616   30.2464   39.0098 H   0  0  0  0  0  0  0  0  0  0  0  0
   38.2317   28.4505   37.4452 H   0  0  0  0  0  0  0  0  0  0  0  0
   40.3713   28.6650   36.1798 H   0  0  0  0  0  0  0  0  0  0  0  0
  1  6  1  0
  1  2  1  0
  2  3  1  0
  2  9  1  0
  4  3  1  0
  5  6  1  0
  5  4  1  0
  7  1  1  0
  8  5  1  0
  9 10  1  0
 10 15  1  0
 11 10  2  0
 11 12  1  0
 12 13  2  0
 13 14  1  0
 15 14  2  0
 16 17  1  0
 16 12  1  0
 16 18  1  0
 17 18  1  0
 19  6  1  0
 20 21  1  0
 21 22  2  0
 22 19  1  0
 22 23  1  0
 24 23  2  0
 25 24  1  0
 26 21  1  0
 26 25  2  0
  1 27  1  6
  2 28  1  6
  4 29  1  0
  4 30  1  0
  5 31  1  1
  6 32  1  1
  7 33  1  0
  8 34  1  0
 11 35  1  0
 14 36  1  0
 16 37  1  0
 17 38  1  0
 17 39  1  0
 18 40  1  0
 18 41  1  0
 23 42  1  0
 24 43  1  0
 25 44  1  0
 26 45  1  0
M  ISO  8  27  13  28  13  29  13  30  13  31  13  32  13  33   3  34   3
M  ISO  8  35  14  36  14  37  13  38  13  39  13  40  13  41  13  42  14
M  ISO  3  43  14  44  14  45  14
M  END
>  <minimizedAffinity>  (1) 
-6.30901051

>  <minimizedRMSD>  (1) 
1.18553984

$$$$
