
     RDKit          3D

 46 49  0  0  1  0  0  0  0  0999 V2000
   44.5070   35.5290   45.1280 C   0  0  0  0  0  0  0  0  0  0  0  0
   45.1530   35.5030   43.8780 C   0  0  0  0  0  0  0  0  0  0  0  0
   46.0630   34.5370   43.6220 C   0  0  0  0  0  0  0  0  0  0  0  0
   46.3040   33.6330   44.6030 N   0  0  0  0  0  0  0  0  0  0  0  0
   45.6940   33.6600   45.7780 C   0  0  0  0  0  0  0  0  0  0  0  0
   44.7910   34.6030   46.0580 N   0  0  0  0  0  0  0  0  0  0  0  0
   46.0240   32.6560   46.7530 N   0  0  0  0  0  0  0  0  0  0  0  0
   45.2850   32.4270   47.9480 C   0  0  0  0  0  0  0  0  0  0  0  0
   46.3660   32.0600   48.9500 C   0  0  0  0  0  0  0  0  0  0  0  0
   47.6370   31.9580   48.1840 C   0  0  0  0  0  0  0  0  0  0  0  0
   47.1370   31.7370   46.7540 C   0  0  1  0  0  0  0  0  0  0  0  0
   44.8040   36.5240   42.9260 N   0  0  0  0  0  0  0  0  0  0  0  0
   46.6170   30.0450   46.5800 S   0  0  0  0  0  0  0  0  0  0  0  0
   45.6640   30.1990   43.3870 O   0  0  0  0  0  0  0  0  0  0  0  0
   44.9910   29.8170   44.3600 C   0  0  0  0  0  0  0  0  0  0  0  0
   45.0620   29.7640   45.8360 C   0  0  1  0  0  0  0  0  0  0  0  0
   44.4310   28.4250   46.1270 C   0  0  0  0  0  0  0  0  0  0  0  0
   43.1400   28.6260   45.3230 C   0  0  0  0  0  0  0  0  0  0  0  0
   43.7080   29.2110   44.1140 N   0  0  0  0  0  0  0  0  0  0  0  0
   42.4760   31.3470   42.7290 F   0  0  0  0  0  0  0  0  0  0  0  0
   42.3660   30.1230   42.1850 C   0  0  0  0  0  0  0  0  0  0  0  0
   42.9720   29.1250   42.8810 C   0  0  0  0  0  0  0  0  0  0  0  0
   42.9130   27.8140   42.3940 C   0  0  0  0  0  0  0  0  0  0  0  0
   42.2430   27.5110   41.2040 C   0  0  0  0  0  0  0  0  0  0  0  0
   41.6220   28.5460   40.4950 C   0  0  0  0  0  0  0  0  0  0  0  0
   41.7140   29.8220   41.0250 C   0  0  0  0  0  0  0  0  0  0  0  0
   43.7654   36.3121   45.3444 H   0  0  0  0  0  0  0  0  0  0  0  0
   46.5871   34.4864   42.6562 H   0  0  0  0  0  0  0  0  0  0  0  0
   44.7470   33.3341   48.2606 H   0  0  0  0  0  0  0  0  0  0  0  0
   44.5121   31.6519   47.8392 H   0  0  0  0  0  0  0  0  0  0  0  0
   46.4491   32.8396   49.7215 H   0  0  0  0  0  0  0  0  0  0  0  0
   46.1315   31.1130   49.4582 H   0  0  0  0  0  0  0  0  0  0  0  0
   48.2250   32.8844   48.2621 H   0  0  0  0  0  0  0  0  0  0  0  0
   48.3071   31.1637   48.5448 H   0  0  0  0  0  0  0  0  0  0  0  0
   47.8562   31.9032   45.9385 H   0  0  0  0  0  0  0  0  0  0  0  0
   45.2542   36.5400   41.9997 H   0  0  0  0  0  0  0  0  0  0  0  0
   44.1040   37.2388   43.1708 H   0  0  0  0  0  0  0  0  0  0  0  0
   44.5408   30.6131   46.3022 H   0  0  0  0  0  0  0  0  0  0  0  0
   45.0340   27.5874   45.7464 H   0  0  0  0  0  0  0  0  0  0  0  0
   44.3061   28.1680   47.1892 H   0  0  0  0  0  0  0  0  0  0  0  0
   42.6295   27.6733   45.1188 H   0  0  0  0  0  0  0  0  0  0  0  0
   42.3647   29.2285   45.8189 H   0  0  0  0  0  0  0  0  0  0  0  0
   43.4029   27.0065   42.9579 H   0  0  0  0  0  0  0  0  0  0  0  0
   42.2048   26.4767   40.8316 H   0  0  0  0  0  0  0  0  0  0  0  0
   41.0831   28.3536   39.5555 H   0  0  0  0  0  0  0  0  0  0  0  0
   41.2313   30.6443   40.4765 H   0  0  0  0  0  0  0  0  0  0  0  0
  1  6  2  0
  2  1  1  0
  3  2  2  0
  3  4  1  0
  4  5  2  0
  5  6  1  0
  5  7  1  0
  7 11  1  0
  7  8  1  0
  8  9  1  0
 10  9  1  0
 11 10  1  0
 12  2  1  0
 13 11  1  0
 14 15  2  0
 15 16  1  0
 16 17  1  0
 16 13  1  0
 18 17  1  0
 19 15  1  0
 19 18  1  0
 21 20  1  0
 21 22  2  0
 22 19  1  0
 23 22  1  0
 24 23  2  0
 25 26  2  0
 25 24  1  0
 26 21  1  0
  1 27  1  0
  3 28  1  0
  8 29  1  0
  8 30  1  0
  9 31  1  0
  9 32  1  0
 10 33  1  0
 10 34  1  0
 11 35  1  6
 12 36  1  0
 12 37  1  0
 16 38  1  1
 17 39  1  0
 17 40  1  0
 18 41  1  0
 18 42  1  0
 23 43  1  0
 24 44  1  0
 25 45  1  0
 26 46  1  0
M  ISO  8  27  14  28  14  29  13  30  13  31  13  32  13  33  13  34  13
M  ISO  8  35  13  38  13  39  13  40  13  41  13  42  13  43  14  44  14
M  ISO  2  45  14  46  14
M  END
>  <minimizedAffinity>  (1) 
-5.43599224

>  <minimizedRMSD>  (1) 
0.706263602

$$$$
