
     RDKit          3D

 46 49  0  0  1  0  0  0  0  0999 V2000
   44.5700   35.5860   44.5970 C   0  0  0  0  0  0  0  0  0  0  0  0
   45.2340   35.6020   43.3500 C   0  0  0  0  0  0  0  0  0  0  0  0
   46.3170   34.7120   43.1680 C   0  0  0  0  0  0  0  0  0  0  0  0
   46.6630   33.8900   44.1990 N   0  0  0  0  0  0  0  0  0  0  0  0
   46.0090   33.9020   45.3650 C   0  0  0  0  0  0  0  0  0  0  0  0
   44.9590   34.7480   45.5770 N   0  0  0  0  0  0  0  0  0  0  0  0
   46.4270   32.9860   46.4600 C   0  0  2  0  0  0  0  0  0  0  0  0
   46.9480   31.7530   45.7540 C   0  0  0  0  0  0  0  0  0  0  0  0
   46.0760   30.5710   45.7840 C   0  0  0  0  0  0  0  0  0  0  0  0
   45.7990   30.3050   47.2620 C   0  0  0  0  0  0  0  0  0  0  0  0
   45.0080   31.3750   47.8630 C   0  0  0  0  0  0  0  0  0  0  0  0
   45.3790   32.7410   47.4100 C   0  0  0  0  0  0  0  0  0  0  0  0
   44.6840   33.8760   47.9200 N   0  0  0  0  0  0  0  0  0  0  0  0
   47.0200   34.7020   41.8970 C   0  0  0  0  0  0  0  0  0  0  0  0
   48.1770   35.4280   41.8070 C   0  0  0  0  0  0  0  0  0  0  0  0
   48.8080   35.3720   40.5400 C   0  0  0  0  0  0  0  0  0  0  0  0
   48.2000   34.6080   39.5600 C   0  0  0  0  0  0  0  0  0  0  0  0
   47.0550   33.8910   39.6540 C   0  0  0  0  0  0  0  0  0  0  0  0
   46.4710   33.9700   40.8960 N   0  0  0  0  0  0  0  0  0  0  0  0
   46.5250   33.1600   38.6560 O   0  0  0  0  0  0  0  0  0  0  0  0
   44.3470   32.8350   37.2410 F   0  0  0  0  0  0  0  0  0  0  0  0
   45.6380   32.6870   36.8120 C   0  0  0  0  0  0  0  0  0  0  0  0
   46.8990   32.8260   37.4500 C   0  0  0  0  0  0  0  0  0  0  0  0
   47.9390   32.5720   36.6070 C   0  0  0  0  0  0  0  0  0  0  0  0
   47.9090   32.2170   35.2820 C   0  0  0  0  0  0  0  0  0  0  0  0
   46.6690   32.0970   34.7210 C   0  0  0  0  0  0  0  0  0  0  0  0
   45.4990   32.3250   35.4550 C   0  0  0  0  0  0  0  0  0  0  0  0
   43.7238   36.2672   44.7698 H   0  0  0  0  0  0  0  0  0  0  0  0
   44.9186   36.2846   42.5472 H   0  0  0  0  0  0  0  0  0  0  0  0
   47.2116   33.4210   47.0965 H   0  0  0  0  0  0  0  0  0  0  0  0
   47.9040   31.4767   46.2227 H   0  0  0  0  0  0  0  0  0  0  0  0
   47.0278   32.0329   44.6932 H   0  0  0  0  0  0  0  0  0  0  0  0
   45.1372   30.7723   45.2472 H   0  0  0  0  0  0  0  0  0  0  0  0
   46.5459   29.7050   45.2948 H   0  0  0  0  0  0  0  0  0  0  0  0
   45.2480   29.3577   47.3568 H   0  0  0  0  0  0  0  0  0  0  0  0
   46.7635   30.2537   47.7884 H   0  0  0  0  0  0  0  0  0  0  0  0
   44.2047   31.1859   48.5902 H   0  0  0  0  0  0  0  0  0  0  0  0
   43.9242   33.7501   48.6039 H   0  0  0  0  0  0  0  0  0  0  0  0
   44.9415   34.8221   47.6046 H   0  0  0  0  0  0  0  0  0  0  0  0
   48.5833   36.0072   42.6493 H   0  0  0  0  0  0  0  0  0  0  0  0
   49.7444   35.9146   40.3432 H   0  0  0  0  0  0  0  0  0  0  0  0
   48.7088   34.5794   38.5852 H   0  0  0  0  0  0  0  0  0  0  0  0
   48.9415   32.6644   37.0502 H   0  0  0  0  0  0  0  0  0  0  0  0
   48.8289   32.0395   34.7055 H   0  0  0  0  0  0  0  0  0  0  0  0
   46.5876   31.8129   33.6614 H   0  0  0  0  0  0  0  0  0  0  0  0
   44.5068   32.2256   34.9907 H   0  0  0  0  0  0  0  0  0  0  0  0
  1  6  2  0
  2  1  1  0
  3  2  2  0
  3  4  1  0
  4  5  2  0
  5  6  1  0
  5  7  1  0
  7 12  1  0
  8  9  1  0
  8  7  1  0
  9 10  1  0
 10 11  1  0
 12 11  2  0
 12 13  1  0
 14  3  1  0
 15 14  2  0
 16 15  1  0
 17 18  1  0
 17 16  2  0
 18 19  2  0
 19 14  1  0
 20 18  1  0
 22 21  1  0
 22 23  2  0
 23 20  1  0
 24 23  1  0
 25 24  2  0
 26 25  1  0
 26 27  2  0
 27 22  1  0
  1 28  1  0
  2 29  1  0
  7 30  1  1
  8 31  1  0
  8 32  1  0
  9 33  1  0
  9 34  1  0
 10 35  1  0
 10 36  1  0
 11 37  1  0
 13 38  1  0
 13 39  1  0
 15 40  1  0
 16 41  1  0
 17 42  1  0
 24 43  1  0
 25 44  1  0
 26 45  1  0
 27 46  1  0
M  ISO  8  28  14  29  14  30  13  31  13  32  13  33  13  34  13  35  13
M  ISO  8  36  13  37  13  40  14  41  14  42  14  43  14  44  14  45  14
M  ISO  1  46  14
M  END
>  <minimizedAffinity>  (1) 
-7.4938755

>  <minimizedRMSD>  (1) 
0.416585803

$$$$
