
     RDKit          3D

 55 58  0  0  1  0  0  0  0  0999 V2000
   38.8930   25.9250   34.8950 C   0  0  2  0  0  0  0  0  0  0  0  0
   38.9660   22.9760   37.1020 C   0  0  0  0  0  0  0  0  0  0  0  0
   38.3520   23.4030   38.2620 C   0  0  0  0  0  0  0  0  0  0  0  0
   37.9170   24.7080   38.2660 C   0  0  0  0  0  0  0  0  0  0  0  0
   38.1040   25.4850   37.1720 N   0  0  0  0  0  0  0  0  0  0  0  0
   38.7070   25.0410   36.0510 C   0  0  0  0  0  0  0  0  0  0  0  0
   39.1410   23.7510   36.0400 N   0  0  0  0  0  0  0  0  0  0  0  0
   38.2260   22.4840   39.3260 N   0  0  0  0  0  0  0  0  0  0  0  0
   39.1220   27.3320   35.3510 C   0  0  0  0  0  0  0  0  0  0  0  0
   37.6350   25.8320   34.0710 C   0  0  0  0  0  0  0  0  0  0  0  0
   37.1850   27.0380   33.4540 N   0  0  0  0  0  0  0  0  0  0  0  0
   36.5170   27.8920   34.2600 C   0  0  0  0  0  0  0  0  0  0  0  0
   36.0220   29.1070   33.8070 C   0  0  0  0  0  0  0  0  0  0  0  0
   36.2300   29.4300   32.4860 C   0  0  0  0  0  0  0  0  0  0  0  0
   35.7150   30.6810   32.0460 N   0  0  0  0  0  0  0  0  0  0  0  0
   36.8960   28.5740   31.6870 N   0  0  0  0  0  0  0  0  0  0  0  0
   37.3470   27.4200   32.1830 C   0  0  0  0  0  0  0  0  0  0  0  0
   37.9600   26.6250   31.4490 O   0  0  0  0  0  0  0  0  0  0  0  0
   35.2960   29.9950   34.7270 C   0  0  0  0  0  0  0  0  0  0  0  0
   35.9510   30.9250   35.4870 C   0  0  0  0  0  0  0  0  0  0  0  0
   35.2550   31.7530   36.3550 C   0  0  0  0  0  0  0  0  0  0  0  0
   33.9090   31.5930   36.4070 C   0  0  0  0  0  0  0  0  0  0  0  0
   33.1960   30.6740   35.6660 C   0  0  0  0  0  0  0  0  0  0  0  0
   33.9090   29.8500   34.8000 C   0  0  0  0  0  0  0  0  0  0  0  0
   40.0540   25.4560   34.0310 C   0  0  0  0  0  0  0  0  0  0  0  0
   41.3350   26.0170   34.1800 N   0  0  0  0  0  0  0  0  0  0  0  0
   42.1040   25.2000   34.9760 C   0  0  0  0  0  0  0  0  0  0  0  0
   43.4540   25.4790   35.2380 C   0  0  0  0  0  0  0  0  0  0  0  0
   44.0610   26.6140   34.6850 C   0  0  0  0  0  0  0  0  0  0  0  0
   45.2430   26.9580   34.8450 O   0  0  0  0  0  0  0  0  0  0  0  0
   43.2880   27.4000   33.9110 N   0  0  0  0  0  0  0  0  0  0  0  0
   42.0210   27.0630   33.7170 C   0  0  0  0  0  0  0  0  0  0  0  0
   41.2910   27.7980   33.0110 O   0  0  0  0  0  0  0  0  0  0  0  0
   39.3292   21.9387   37.0559 H   0  0  0  0  0  0  0  0  0  0  0  0
   37.4183   25.1199   39.1557 H   0  0  0  0  0  0  0  0  0  0  0  0
   37.7726   22.7725   40.2047 H   0  0  0  0  0  0  0  0  0  0  0  0
   38.5875   21.5250   39.2237 H   0  0  0  0  0  0  0  0  0  0  0  0
   39.1273   27.3648   36.4505 H   0  0  0  0  0  0  0  0  0  0  0  0
   40.0900   27.6884   34.9688 H   0  0  0  0  0  0  0  0  0  0  0  0
   38.3170   27.9769   34.9688 H   0  0  0  0  0  0  0  0  0  0  0  0
   37.8119   25.0950   33.2738 H   0  0  0  0  0  0  0  0  0  0  0  0
   36.8421   25.5563   34.7819 H   0  0  0  0  0  0  0  0  0  0  0  0
   36.3598   27.6145   35.3128 H   0  0  0  0  0  0  0  0  0  0  0  0
   35.8416   30.9744   31.0668 H   0  0  0  0  0  0  0  0  0  0  0  0
   35.2155   31.2934   32.7066 H   0  0  0  0  0  0  0  0  0  0  0  0
   37.0443   31.0173   35.4086 H   0  0  0  0  0  0  0  0  0  0  0  0
   35.7701   32.5039   36.9721 H   0  0  0  0  0  0  0  0  0  0  0  0
   33.3446   32.2443   37.0906 H   0  0  0  0  0  0  0  0  0  0  0  0
   32.1026   30.5950   35.7562 H   0  0  0  0  0  0  0  0  0  0  0  0
   33.3903   29.0996   34.1854 H   0  0  0  0  0  0  0  0  0  0  0  0
   40.1618   24.3760   34.2097 H   0  0  0  0  0  0  0  0  0  0  0  0
   39.7583   25.7866   33.0244 H   0  0  0  0  0  0  0  0  0  0  0  0
   41.6478   24.3027   35.4196 H   0  0  0  0  0  0  0  0  0  0  0  0
   44.0382   24.8036   35.8804 H   0  0  0  0  0  0  0  0  0  0  0  0
   43.6756   28.2497   33.4767 H   0  0  0  0  0  0  0  0  0  0  0  0
  1 25  1  6
  1  9  1  0
  1  6  1  0
  2  3  2  0
  3  4  1  0
  3  8  1  0
  5  4  2  0
  6  5  1  0
  7  6  2  0
  7  2  1  0
 10  1  1  0
 11 10  1  0
 11 12  1  0
 13 12  2  0
 13 19  1  0
 14 13  1  0
 15 14  1  0
 16 17  1  0
 16 14  2  0
 17 11  1  0
 18 17  2  0
 19 24  1  0
 19 20  2  0
 20 21  1  0
 21 22  2  0
 23 22  1  0
 24 23  2  0
 25 26  1  0
 26 27  1  0
 27 28  2  0
 29 30  2  0
 29 28  1  0
 31 29  1  0
 32 31  1  0
 32 26  1  0
 33 32  2  0
  2 34  1  0
  4 35  1  0
  8 36  1  0
  8 37  1  0
  9 38  1  0
  9 39  1  0
  9 40  1  0
 10 41  1  0
 10 42  1  0
 12 43  1  0
 15 44  1  0
 15 45  1  0
 20 46  1  0
 21 47  1  0
 22 48  1  0
 23 49  1  0
 24 50  1  0
 25 51  1  0
 25 52  1  0
 27 53  1  0
 28 54  1  0
 31 55  1  0
M  END
>  <minimizedAffinity>  (1) 
-7.2520113

>  <minimizedRMSD>  (1) 
1.16875136

$$$$
