
     RDKit          3D

 30 32  0  0  1  0  0  0  0  0999 V2000
   38.0850   23.4530   34.6430 C   0  0  2  0  0  0  0  0  0  0  0  0
   39.2490   23.6670   33.7170 C   0  0  0  0  0  0  0  0  0  0  0  0
   38.1920   24.7290   33.8940 C   0  0  2  0  0  0  0  0  0  0  0  0
   39.8470   22.8040   37.8000 C   0  0  0  0  0  0  0  0  0  0  0  0
   38.9730   23.3370   38.7920 C   0  0  0  0  0  0  0  0  0  0  0  0
   37.7640   23.9160   38.3060 C   0  0  0  0  0  0  0  0  0  0  0  0
   37.5190   23.9290   36.9880 N   0  0  0  0  0  0  0  0  0  0  0  0
   38.4000   23.3990   36.0690 C   0  0  0  0  0  0  0  0  0  0  0  0
   39.5590   22.8380   36.4830 N   0  0  0  0  0  0  0  0  0  0  0  0
   38.7170   25.9920   34.4450 C   0  0  0  0  0  0  0  0  0  0  0  0
   40.0040   26.4350   34.0090 N   0  0  0  0  0  0  0  0  0  0  0  0
   41.2500   26.3690   34.5080 C   0  0  0  0  0  0  0  0  0  0  0  0
   42.3650   26.8890   33.9100 C   0  0  0  0  0  0  0  0  0  0  0  0
   42.2490   27.5380   32.7050 C   0  0  0  0  0  0  0  0  0  0  0  0
   43.3290   27.9790   32.2390 O   0  0  0  0  0  0  0  0  0  0  0  0
   41.0230   27.6200   32.1830 N   0  0  0  0  0  0  0  0  0  0  0  0
   39.9540   27.0930   32.8070 C   0  0  0  0  0  0  0  0  0  0  0  0
   38.8700   27.2720   32.1530 O   0  0  0  0  0  0  0  0  0  0  0  0
   37.2752   22.7169   34.7538 H   0  0  0  0  0  0  0  0  0  0  0  0
   39.3154   23.1051   32.7737 H   0  0  0  0  0  0  0  0  0  0  0  0
   40.3441   23.6278   33.8130 H   0  0  0  0  0  0  0  0  0  0  0  0
   37.4355   25.2727   33.3090 H   0  0  0  0  0  0  0  0  0  0  0  0
   40.7943   22.3467   38.1217 H   0  0  0  0  0  0  0  0  0  0  0  0
   39.2158   23.3037   39.8643 H   0  0  0  0  0  0  0  0  0  0  0  0
   37.0367   24.3494   39.0083 H   0  0  0  0  0  0  0  0  0  0  0  0
   37.9963   26.7833   34.1911 H   0  0  0  0  0  0  0  0  0  0  0  0
   38.8477   25.7881   35.5180 H   0  0  0  0  0  0  0  0  0  0  0  0
   41.3837   25.8570   35.4724 H   0  0  0  0  0  0  0  0  0  0  0  0
   43.3489   26.7880   34.3914 H   0  0  0  0  0  0  0  0  0  0  0  0
   40.8923   28.0985   31.2803 H   0  0  0  0  0  0  0  0  0  0  0  0
  1  8  1  0
  2  3  1  0
  2  1  1  0
  3 10  1  0
  3  1  1  0
  4  5  2  0
  6  5  1  0
  7  6  2  0
  8  9  2  0
  8  7  1  0
  9  4  1  0
 11 10  1  0
 11 12  1  0
 13 12  2  0
 14 13  1  0
 15 14  2  0
 16 14  1  0
 16 17  1  0
 17 11  1  0
 18 17  2  0
  1 19  1  6
  2 20  1  0
  2 21  1  0
  3 22  1  6
  4 23  1  0
  5 24  1  0
  6 25  1  0
 10 26  1  0
 10 27  1  0
 12 28  1  0
 13 29  1  0
 16 30  1  0
M  ISO  8  19  13  20  13  21  13  22  13  23  14  24  14  25  14  26   8
M  ISO  4  27   8  28  14  29  14  30   9
M  END
>  <minimizedAffinity>  (1) 
-3.98858118

>  <minimizedRMSD>  (1) 
2.3234694

$$$$
