
     RDKit          3D

 41 45  0  0  0  0  0  0  0  0999 V2000
   35.4790   18.8460   32.8520 C   0  0  0  0  0  0  0  0  0  0  0  0
   36.0800   18.4180   31.5880 C   0  0  0  0  0  0  0  0  0  0  0  0
   36.7090   17.2500   31.3460 N   0  0  0  0  0  0  0  0  0  0  0  0
   37.1170   17.2190   30.0960 O   0  0  0  0  0  0  0  0  0  0  0  0
   36.7780   18.3390   29.4920 C   0  0  0  0  0  0  0  0  0  0  0  0
   36.1330   19.0840   30.4170 N   0  0  0  0  0  0  0  0  0  0  0  0
   37.0350   18.7090   28.1150 C   0  0  0  0  0  0  0  0  0  0  0  0
   36.2850   18.3860   27.0300 C   0  0  0  0  0  0  0  0  0  0  0  0
   36.9230   18.9610   25.9310 C   0  0  0  0  0  0  0  0  0  0  0  0
   38.0130   19.6050   26.3440 N   0  0  0  0  0  0  0  0  0  0  0  0
   38.0590   19.4380   27.6650 N   0  0  0  0  0  0  0  0  0  0  0  0
   39.0670   20.3730   25.7450 C   0  0  0  0  0  0  0  0  0  0  0  0
   40.5380   20.1060   25.9330 C   0  0  0  0  0  0  0  0  0  0  0  0
   41.1860   21.4550   24.8930 S   0  0  0  0  0  0  0  0  0  0  0  0
   39.4690   22.1140   24.4060 C   0  0  0  0  0  0  0  0  0  0  0  0
   38.5320   21.3340   25.0140 N   0  0  0  0  0  0  0  0  0  0  0  0
   35.1300   20.3490   32.8130 C   0  0  0  0  0  0  0  0  0  0  0  0
   37.6660   22.1620   34.8040 C   0  0  0  0  0  0  0  0  0  0  0  0
   36.6100   21.2860   34.7240 C   0  0  0  0  0  0  0  0  0  0  0  0
   36.2080   21.1580   33.4160 C   0  0  0  0  0  0  0  0  0  0  0  0
   37.0820   22.0030   32.7300 C   0  0  0  0  0  0  0  0  0  0  0  0
   37.9320   22.5800   33.5920 O   0  0  0  0  0  0  0  0  0  0  0  0
   38.3110   22.5010   36.0620 C   0  0  0  0  0  0  0  0  0  0  0  0
   39.6270   22.2800   36.3640 C   0  0  0  0  0  0  0  0  0  0  0  0
   40.1260   22.6510   37.6060 C   0  0  0  0  0  0  0  0  0  0  0  0
   39.2890   23.2250   38.4850 N   0  0  0  0  0  0  0  0  0  0  0  0
   37.9890   23.4410   38.1820 C   0  0  0  0  0  0  0  0  0  0  0  0
   37.4800   23.0890   36.9800 N   0  0  0  0  0  0  0  0  0  0  0  0
   34.5604   18.2671   33.0286 H   0  0  0  0  0  0  0  0  0  0  0  0
   36.2027   18.6734   33.6623 H   0  0  0  0  0  0  0  0  0  0  0  0
   35.3602   17.7905   27.0199 H   0  0  0  0  0  0  0  0  0  0  0  0
   36.5800   18.8932   24.8880 H   0  0  0  0  0  0  0  0  0  0  0  0
   41.0600   19.3344   26.5179 H   0  0  0  0  0  0  0  0  0  0  0  0
   39.2682   22.9733   23.7493 H   0  0  0  0  0  0  0  0  0  0  0  0
   34.9899   20.6588   31.7669 H   0  0  0  0  0  0  0  0  0  0  0  0
   34.2069   20.5097   33.3892 H   0  0  0  0  0  0  0  0  0  0  0  0
   36.1546   20.7651   35.5791 H   0  0  0  0  0  0  0  0  0  0  0  0
   37.0746   22.1708   31.6429 H   0  0  0  0  0  0  0  0  0  0  0  0
   40.2897   21.8086   35.6233 H   0  0  0  0  0  0  0  0  0  0  0  0
   41.1815   22.4787   37.8633 H   0  0  0  0  0  0  0  0  0  0  0  0
   37.3326   23.9124   38.9283 H   0  0  0  0  0  0  0  0  0  0  0  0
  2  1  1  0
  3  2  2  0
  4  3  1  0
  5  4  1  0
  5  6  2  0
  6  2  1  0
  7  5  1  0
  8  7  1  0
  9 10  1  0
  9  8  2  0
 10 11  1  0
 11  7  2  0
 12 13  2  0
 12 10  1  0
 14 13  1  0
 15 14  1  0
 15 16  2  0
 16 12  1  0
 17  1  1  0
 17 20  1  0
 18 23  1  0
 19 18  2  0
 20 19  1  0
 21 20  2  0
 21 22  1  0
 22 18  1  0
 23 24  2  0
 23 28  1  0
 24 25  1  0
 25 26  2  0
 27 26  1  0
 28 27  2  0
  1 29  1  0
  1 30  1  0
  8 31  1  0
  9 32  1  0
 13 33  1  0
 15 34  1  0
 17 35  1  0
 17 36  1  0
 19 37  1  0
 21 38  1  0
 24 39  1  0
 25 40  1  0
 27 41  1  0
M  ISO  8  29   8  30   8  31  14  32  14  33  14  34  14  35   8  36   8
M  ISO  5  37  14  38  14  39  14  40  14  41  14
M  END
>  <minimizedAffinity>  (1) 
-5.17499781

>  <minimizedRMSD>  (1) 
0.267052948

$$$$
