
     RDKit          3D

 33 35  0  0  0  0  0  0  0  0999 V2000
   37.8712   23.6973   33.5009 C   0  0  0  0  0  0  0  0  0  0  0  0
   37.4641   22.6568   32.6667 C   0  0  0  0  0  0  0  0  0  0  0  0
   37.4832   21.5633   33.4843 N   0  0  0  0  0  0  0  0  0  0  0  0
   37.8744   21.9649   34.6934 C   0  0  0  0  0  0  0  0  0  0  0  0
   38.1183   23.2709   34.7297 N   0  0  0  0  0  0  0  0  0  0  0  0
   38.0157   25.0797   33.0765 C   0  0  0  0  0  0  0  0  0  0  0  0
   39.2959   25.5842   32.7670 C   0  0  0  0  0  0  0  0  0  0  0  0
   39.3875   26.9332   32.3573 C   0  0  0  0  0  0  0  0  0  0  0  0
   38.2375   27.6555   32.2883 N   0  0  0  0  0  0  0  0  0  0  0  0
   37.0253   27.1265   32.5965 C   0  0  0  0  0  0  0  0  0  0  0  0
   36.9150   25.8542   32.9859 N   0  0  0  0  0  0  0  0  0  0  0  0
   38.5471   23.9482   35.8985 C   0  0  1  0  0  0  0  0  0  0  0  0
   38.0815   25.2275   36.3631 C   0  0  0  0  0  0  0  0  0  0  0  0
   37.5484   23.9228   37.0267 C   0  0  2  0  0  0  0  0  0  0  0  0
   38.1134   23.7653   38.4253 C   0  0  0  0  0  0  0  0  0  0  0  0
   37.5118   22.7044   39.0660 F   0  0  0  0  0  0  0  0  0  0  0  0
   39.5054   23.3432   38.3096 F   0  0  0  0  0  0  0  0  0  0  0  0
   38.1511   24.9000   39.1414 F   0  0  0  0  0  0  0  0  0  0  0  0
   37.1961   22.7072   31.6171 H   0  0  0  0  0  0  0  0  0  0  0  0
   37.9595   21.2463   35.5048 H   0  0  0  0  0  0  0  0  0  0  0  0
   40.1747   24.9795   32.8353 H   0  0  0  0  0  0  0  0  0  0  0  0
   40.3498   27.3783   32.1053 H   0  0  0  0  0  0  0  0  0  0  0  0
   36.1071   27.6889   32.5456 H   0  0  0  0  0  0  0  0  0  0  0  0
   39.6100   23.6370   36.1891 H   0  0  0  0  0  0  0  0  0  0  0  0
   38.7823   25.8381   36.9827 H   0  0  0  0  0  0  0  0  0  0  0  0
   37.3768   25.8781   35.8163 H   0  0  0  0  0  0  0  0  0  0  0  0
   36.0490   23.9881   36.8688 C   0  0  0  0  0  0  0  0  0  0  0  0
   35.7043   25.0714   35.8766 C   0  0  0  0  0  0  0  0  0  0  0  0
   34.6789   24.8275   35.4459 H   0  0  0  0  0  0  0  0  0  0  0  0
   35.5487   24.2754   37.8265 H   0  0  0  0  0  0  0  0  0  0  0  0
   35.6482   23.0331   36.5044 H   0  0  0  0  0  0  0  0  0  0  0  0
   35.6841   26.0880   36.3275 H   0  0  0  0  0  0  0  0  0  0  0  0
   36.3761   24.9875   35.0058 H   0  0  0  0  0  0  0  0  0  0  0  0
  1  5  1  0
  2  3  1  0
  2  1  2  0
  3  4  2  0
  4  5  1  0
  5 12  1  0
  6  1  1  0
  7  6  2  0
  8  7  1  0
  9  8  2  0
  9 10  1  0
 10 11  2  0
 11  6  1  0
 12 13  1  0
 12 14  1  0
 13 14  1  0
 14 15  1  1
 15 16  1  0
 15 18  1  0
 17 15  1  0
  2 19  1  0
  4 20  1  0
  7 21  1  0
  8 22  1  0
 10 23  1  0
 12 24  1  1
 13 25  1  0
 13 26  1  0
 27 28  1  0
 28 29  1  0
 27 30  1  0
 27 31  1  0
 28 32  1  0
 28 33  1  0
 14 27  1  0
M  ISO  8  19  14  20  14  21  14  22  14  23  14  24  13  25  13  26  13
M  ISO  1  29   8
M  END
>  <DihAtoms>  (1) 
11,13,26,27

>  <DihDeg>  (1) 
179.7581712122049

$$$$
