
     RDKit          3D

 32 33  0  0  1  0  0  0  0  0999 V2000
   40.2720   23.8480   34.7100 C   0  0  0  0  0  0  0  0  0  0  0  0
   43.1920   23.2540   36.6840 C   0  0  0  0  0  0  0  0  0  0  0  0
   41.9030   23.0000   36.1510 C   0  0  0  0  0  0  0  0  0  0  0  0
   41.5290   23.9930   35.3370 C   0  0  0  0  0  0  0  0  0  0  0  0
   42.3210   25.1030   35.0750 N   0  0  0  0  0  0  0  0  0  0  0  0
   43.5210   25.2740   35.6110 C   0  0  0  0  0  0  0  0  0  0  0  0
   43.9600   24.3400   36.4230 N   0  0  0  0  0  0  0  0  0  0  0  0
   41.3050   21.7890   36.5720 C   0  0  0  0  0  0  0  0  0  0  0  0
   41.2340   21.7050   37.9860 F   0  0  0  0  0  0  0  0  0  0  0  0
   41.9600   20.6160   36.5310 F   0  0  0  0  0  0  0  0  0  0  0  0
   39.9140   21.6480   36.4940 F   0  0  0  0  0  0  0  0  0  0  0  0
   39.6130   25.1080   34.4080 C   0  0  0  0  0  0  0  0  0  0  0  0
   38.3050   25.2050   35.2110 C   0  0  2  0  0  0  0  0  0  0  0  0
   38.2450   26.1100   36.2970 C   0  0  0  0  0  0  0  0  0  0  0  0
   38.2120   24.6460   36.5430 C   0  0  1  0  0  0  0  0  0  0  0  0
   37.8940   24.5970   37.9330 C   0  0  0  0  0  0  0  0  0  0  0  0
   38.5870   23.4920   38.7670 C   0  0  0  0  0  0  0  0  0  0  0  0
   40.4167   23.2988   33.7679 H   0  0  0  0  0  0  0  0  0  0  0  0
   39.6233   23.3113   35.4179 H   0  0  0  0  0  0  0  0  0  0  0  0
   43.6063   22.5018   37.3714 H   0  0  0  0  0  0  0  0  0  0  0  0
   44.1261   26.1642   35.3844 H   0  0  0  0  0  0  0  0  0  0  0  0
   40.2746   25.9431   34.6817 H   0  0  0  0  0  0  0  0  0  0  0  0
   39.3885   25.1569   33.3323 H   0  0  0  0  0  0  0  0  0  0  0  0
   37.7188   25.0550   34.2924 H   0  0  0  0  0  0  0  0  0  0  0  0
   39.1338   26.6951   36.5757 H   0  0  0  0  0  0  0  0  0  0  0  0
   37.6014   26.9599   36.5678 H   0  0  0  0  0  0  0  0  0  0  0  0
   38.3232   23.5554   36.6340 H   0  0  0  0  0  0  0  0  0  0  0  0
   38.1687   25.5675   38.3720 H   0  0  0  0  0  0  0  0  0  0  0  0
   36.8206   24.3604   37.9755 H   0  0  0  0  0  0  0  0  0  0  0  0
   38.4543   23.7036   39.8383 H   0  0  0  0  0  0  0  0  0  0  0  0
   38.1387   22.5164   38.5277 H   0  0  0  0  0  0  0  0  0  0  0  0
   39.6604   23.4708   38.5277 H   0  0  0  0  0  0  0  0  0  0  0  0
  1  4  1  0
  3  8  1  0
  3  2  2  0
  4  3  1  0
  5  4  2  0
  5  6  1  0
  6  7  2  0
  7  2  1  0
  8  9  1  0
 10  8  1  0
 11  8  1  0
 12  1  1  0
 12 13  1  0
 13 14  1  0
 13 15  1  0
 14 15  1  0
 15 16  1  0
 16 17  1  0
  1 18  1  0
  1 19  1  0
  2 20  1  0
  6 21  1  0
 12 22  1  0
 12 23  1  0
 13 24  1  6
 14 25  1  0
 14 26  1  0
 15 27  1  6
 16 28  1  0
 16 29  1  0
 17 30  1  0
 17 31  1  0
 17 32  1  0
M  ISO  8  18   8  19   8  20  14  21  14  22   8  23   8  24  13  25  13
M  ISO  7  26  13  27  13  28   8  29   8  30   8  31   8  32   8
M  END
>  <minimizedAffinity>  (1) 
-4.08474493

>  <minimizedRMSD>  (1) 
1.2679112

$$$$
