
     RDKit          3D

 44 49  0  0  0  0  0  0  0  0999 V2000
   37.2370   22.0060   33.8230 C   0  0  0  0  0  0  0  0  0  0  0  0
   37.9030   23.2300   33.8590 C   0  0  0  0  0  0  0  0  0  0  0  0
   38.1600   23.7880   35.1020 C   0  0  0  0  0  0  0  0  0  0  0  0
   37.7440   23.1010   36.2190 N   0  0  0  0  0  0  0  0  0  0  0  0
   37.1080   21.9290   36.1560 C   0  0  0  0  0  0  0  0  0  0  0  0
   36.8550   21.3830   34.9720 N   0  0  0  0  0  0  0  0  0  0  0  0
   38.8590   25.0740   35.1450 C   0  0  0  0  0  0  0  0  0  0  0  0
   38.2030   26.2890   35.4210 C   0  0  0  0  0  0  0  0  0  0  0  0
   39.1670   27.2290   35.3720 N   0  0  0  0  0  0  0  0  0  0  0  0
   40.3200   26.6030   35.0830 C   0  0  0  0  0  0  0  0  0  0  0  0
   40.1690   25.3080   34.9400 N   0  0  0  0  0  0  0  0  0  0  0  0
   41.1560   24.3220   34.6350 C   0  0  0  0  0  0  0  0  0  0  0  0
   41.8750   24.3860   33.5160 N   0  0  0  0  0  0  0  0  0  0  0  0
   42.8100   23.4580   33.2210 C   0  0  0  0  0  0  0  0  0  0  0  0
   43.0890   22.3950   34.0310 N   0  0  0  0  0  0  0  0  0  0  0  0
   42.3790   22.2970   35.1790 C   0  0  0  0  0  0  0  0  0  0  0  0
   42.6260   21.2520   36.0150 C   0  0  0  0  0  0  0  0  0  0  0  0
   41.9460   21.0820   37.1990 C   0  0  0  0  0  0  0  0  0  0  0  0
   40.9990   22.0390   37.4800 C   0  0  0  0  0  0  0  0  0  0  0  0
   40.7010   23.1230   36.6700 C   0  0  0  0  0  0  0  0  0  0  0  0
   41.4150   23.2500   35.4870 C   0  0  0  0  0  0  0  0  0  0  0  0
   36.9170   21.3370   32.6170 N   0  0  0  0  0  0  0  0  0  0  0  0
   35.7570   21.6130   31.9360 C   0  0  0  0  0  0  0  0  0  0  0  0
   35.6550   20.8630   30.8200 N   0  0  0  0  0  0  0  0  0  0  0  0
   36.7390   20.0960   30.7610 C   0  0  0  0  0  0  0  0  0  0  0  0
   37.2610   19.1200   29.9010 C   0  0  0  0  0  0  0  0  0  0  0  0
   38.4350   18.5180   30.1500 N   0  0  0  0  0  0  0  0  0  0  0  0
   39.1310   18.8590   31.2520 C   0  0  0  0  0  0  0  0  0  0  0  0
   38.6760   19.8020   32.1250 N   0  0  0  0  0  0  0  0  0  0  0  0
   37.4960   20.4040   31.8700 C   0  0  0  0  0  0  0  0  0  0  0  0
   36.4030   18.8590   28.7800 N   0  0  0  0  0  0  0  0  0  0  0  0
   38.2140   23.7359   32.9331 H   0  0  0  0  0  0  0  0  0  0  0  0
   36.7954   21.4186   37.0789 H   0  0  0  0  0  0  0  0  0  0  0  0
   37.1337   26.4385   35.6313 H   0  0  0  0  0  0  0  0  0  0  0  0
   41.2852   27.1200   34.9778 H   0  0  0  0  0  0  0  0  0  0  0  0
   43.3743   23.5634   32.2827 H   0  0  0  0  0  0  0  0  0  0  0  0
   43.3958   20.5180   35.7345 H   0  0  0  0  0  0  0  0  0  0  0  0
   42.1462   20.2378   37.8751 H   0  0  0  0  0  0  0  0  0  0  0  0
   40.4354   21.9360   38.4190 H   0  0  0  0  0  0  0  0  0  0  0  0
   39.9292   23.8537   36.9535 H   0  0  0  0  0  0  0  0  0  0  0  0
   35.0077   22.3507   32.2591 H   0  0  0  0  0  0  0  0  0  0  0  0
   40.0922   18.3632   31.4527 H   0  0  0  0  0  0  0  0  0  0  0  0
   35.5182   19.3761   28.6773 H   0  0  0  0  0  0  0  0  0  0  0  0
   36.6722   18.1546   28.0784 H   0  0  0  0  0  0  0  0  0  0  0  0
  1  2  2  0
  1  6  1  0
  2  3  1  0
  3  7  1  0
  3  4  2  0
  5  4  1  0
  6  5  2  0
  7  8  2  0
  9  8  1  0
 10  9  2  0
 11 10  1  0
 11  7  1  0
 12 11  1  0
 12 21  1  0
 13 12  2  0
 14 13  1  0
 14 15  2  0
 15 16  1  0
 16 21  2  0
 16 17  1  0
 17 18  2  0
 18 19  1  0
 20 19  2  0
 21 20  1  0
 22  1  1  0
 23 22  1  0
 24 23  2  0
 25 24  1  0
 25 30  2  0
 26 27  2  0
 26 25  1  0
 27 28  1  0
 28 29  2  0
 30 29  1  0
 30 22  1  0
 31 26  1  0
  2 32  1  0
  5 33  1  0
  8 34  1  0
 10 35  1  0
 14 36  1  0
 17 37  1  0
 18 38  1  0
 19 39  1  0
 20 40  1  0
 23 41  1  0
 28 42  1  0
 31 43  1  0
 31 44  1  0
M  ISO  8  32  14  33  14  34  14  35  14  36  14  37  14  38  14  39  14
M  ISO  3  40  14  41  14  42  14
M  END
>  <minimizedAffinity>  (1) 
-6.33757257

>  <minimizedRMSD>  (1) 
3.62153816

$$$$
