
     RDKit          3D

 50 53  0  0  0  0  0  0  0  0999 V2000
   37.8750   26.5850   31.3230 N   0  0  0  0  0  0  0  0  0  0  0  0
   36.6530   27.1310   31.0140 C   0  0  0  0  0  0  0  0  0  0  0  0
   36.8960   28.1290   30.0700 C   0  0  0  0  0  0  0  0  0  0  0  0
   38.2170   28.1710   29.8310 N   0  0  0  0  0  0  0  0  0  0  0  0
   38.8360   27.2210   30.6000 C   0  0  0  0  0  0  0  0  0  0  0  0
   38.7630   24.2900   33.8990 N   0  0  0  0  0  0  0  0  0  0  0  0
   38.8840   23.5700   32.7840 N   0  0  0  0  0  0  0  0  0  0  0  0
   38.5810   24.3080   31.7210 C   0  0  0  0  0  0  0  0  0  0  0  0
   38.2510   25.5570   32.1990 C   0  0  0  0  0  0  0  0  0  0  0  0
   38.3640   25.5550   33.5910 C   0  0  0  0  0  0  0  0  0  0  0  0
   37.9190   23.6370   36.0790 C   0  0  0  0  0  0  0  0  0  0  0  0
   39.0090   23.8080   35.2110 C   0  0  0  0  0  0  0  0  0  0  0  0
   40.2960   23.5160   35.6230 C   0  0  0  0  0  0  0  0  0  0  0  0
   40.4380   23.0560   36.9030 N   0  0  0  0  0  0  0  0  0  0  0  0
   39.4000   22.8900   37.7370 C   0  0  0  0  0  0  0  0  0  0  0  0
   38.1440   23.1790   37.3280 N   0  0  0  0  0  0  0  0  0  0  0  0
   38.1080   26.6520   34.4280 N   0  0  0  0  0  0  0  0  0  0  0  0
   39.0450   27.1310   35.3880 C   0  0  0  0  0  0  0  0  0  0  0  0
   40.3150   27.0800   35.0070 N   0  0  0  0  0  0  0  0  0  0  0  0
   38.5540   27.6070   36.6380 N   0  0  0  0  0  0  0  0  0  0  0  0
   40.9870   27.4460   35.7120 H   0  0  0  0  0  0  0  0  0  0  0  0
   40.3170   27.1290   30.4600 C   0  0  0  0  0  0  0  0  0  0  0  0
   40.7170   26.0420   29.4670 C   0  0  0  0  0  0  0  0  0  0  0  0
   41.0620   26.8430   31.6970 C   0  0  0  0  0  0  0  0  0  0  0  0
   40.7600   28.4350   29.8030 C   0  0  0  0  0  0  0  0  0  0  0  0
   42.1440   28.7470   30.0150 N   0  0  0  0  0  0  0  0  0  0  0  0
   42.8740   29.2720   31.0140 C   0  0  0  0  0  0  0  0  0  0  0  0
   44.2140   29.3960   30.7300 C   0  0  0  0  0  0  0  0  0  0  0  0
   44.3410   28.9180   29.4740 N   0  0  0  0  0  0  0  0  0  0  0  0
   43.1020   28.5360   29.0610 C   0  0  0  0  0  0  0  0  0  0  0  0
   35.6768   26.8393   31.4285 H   0  0  0  0  0  0  0  0  0  0  0  0
   36.1359   28.7715   29.6016 H   0  0  0  0  0  0  0  0  0  0  0  0
   38.5916   23.9857   30.6693 H   0  0  0  0  0  0  0  0  0  0  0  0
   36.8974   23.8727   35.7460 H   0  0  0  0  0  0  0  0  0  0  0  0
   41.1608   23.6469   34.9559 H   0  0  0  0  0  0  0  0  0  0  0  0
   39.5716   22.5173   38.7576 H   0  0  0  0  0  0  0  0  0  0  0  0
   37.2010   27.1328   34.3443 H   0  0  0  0  0  0  0  0  0  0  0  0
   39.2109   27.9586   37.3492 H   0  0  0  0  0  0  0  0  0  0  0  0
   37.5422   27.5995   36.8305 H   0  0  0  0  0  0  0  0  0  0  0  0
   41.0462   25.1473   30.0157 H   0  0  0  0  0  0  0  0  0  0  0  0
   39.8537   25.7873   28.8347 H   0  0  0  0  0  0  0  0  0  0  0  0
   41.5395   26.4077   28.8347 H   0  0  0  0  0  0  0  0  0  0  0  0
   40.4340   27.0841   32.5673 H   0  0  0  0  0  0  0  0  0  0  0  0
   41.3325   25.7771   31.7240 H   0  0  0  0  0  0  0  0  0  0  0  0
   41.9762   27.4541   31.7240 H   0  0  0  0  0  0  0  0  0  0  0  0
   40.1524   29.2543   30.2147 H   0  0  0  0  0  0  0  0  0  0  0  0
   40.6206   28.3127   28.7187 H   0  0  0  0  0  0  0  0  0  0  0  0
   42.4371   29.5765   31.9765 H   0  0  0  0  0  0  0  0  0  0  0  0
   45.0055   29.7955   31.3810 H   0  0  0  0  0  0  0  0  0  0  0  0
   42.8937   28.1055   28.0704 H   0  0  0  0  0  0  0  0  0  0  0  0
  1  9  1  0
  2  1  1  0
  3  2  2  0
  4  3  1  0
  4  5  2  0
  5  1  1  0
  6 12  1  0
  7  6  1  0
  8  9  1  0
  8  7  2  0
  9 10  2  0
 10  6  1  0
 10 17  1  0
 11 16  2  0
 12 13  2  0
 12 11  1  0
 13 14  1  0
 14 15  2  0
 16 15  1  0
 17 18  1  0
 18 20  1  0
 19 18  2  0
 19 21  1  0
 22  5  1  0
 22 24  1  0
 23 22  1  0
 25 26  1  0
 25 22  1  0
 26 27  1  0
 28 27  2  0
 29 28  1  0
 30 29  2  0
 30 26  1  0
  2 31  1  0
  3 32  1  0
  8 33  1  0
 11 34  1  0
 13 35  1  0
 15 36  1  0
 17 37  1  0
 20 38  1  0
 20 39  1  0
 23 40  1  0
 23 41  1  0
 23 42  1  0
 24 43  1  0
 24 44  1  0
 24 45  1  0
 25 46  1  0
 25 47  1  0
 27 48  1  0
 28 49  1  0
 30 50  1  0
M  ISO  8  31  14  32  14  33  14  34  14  35  14  36  14  40   8  41   8
M  ISO  8  42   8  43   8  44   8  45   8  46   8  47   8  48  14  49  14
M  ISO  1  50  14
M  END
>  <minimizedAffinity>  (1) 
-4.76367188

>  <minimizedRMSD>  (1) 
0.477554858

$$$$
