
     RDKit          3D

 29 30  0  0  1  0  0  0  0  0999 V2000
   37.9650   23.7840   32.9840 C   0  0  1  0  0  0  0  0  0  0  0  0
   36.2790   26.9010   31.6660 C   0  0  0  0  0  0  0  0  0  0  0  0
   37.2210   26.1020   32.3240 C   0  0  0  0  0  0  0  0  0  0  0  0
   37.0190   24.6850   32.2970 C   0  0  0  0  0  0  0  0  0  0  0  0
   35.9240   24.2020   31.6340 N   0  0  0  0  0  0  0  0  0  0  0  0
   35.0510   24.9880   31.0210 C   0  0  0  0  0  0  0  0  0  0  0  0
   35.2300   26.3510   31.0360 N   0  0  0  0  0  0  0  0  0  0  0  0
   38.8340   23.0330   32.0100 C   0  0  0  0  0  0  0  0  0  0  0  0
   38.8060   24.5100   33.9930 C   0  0  0  0  0  0  0  0  0  0  0  0
   38.4760   24.2020   35.3240 N   0  0  0  0  0  0  0  0  0  0  0  0
   38.2960   23.0470   36.0010 C   0  0  0  0  0  0  0  0  0  0  0  0
   37.9680   23.2100   37.3290 C   0  0  0  0  0  0  0  0  0  0  0  0
   37.9420   24.5260   37.4890 N   0  0  0  0  0  0  0  0  0  0  0  0
   38.2480   25.1290   36.2870 C   0  0  0  0  0  0  0  0  0  0  0  0
   38.3140   26.6140   36.0850 C   0  0  0  0  0  0  0  0  0  0  0  0
   38.2780   27.2410   37.3170 F   0  0  0  0  0  0  0  0  0  0  0  0
   37.2360   26.9970   35.3470 F   0  0  0  0  0  0  0  0  0  0  0  0
   39.5190   27.0120   35.5540 F   0  0  0  0  0  0  0  0  0  0  0  0
   37.3523   23.0492   33.5268 H   0  0  0  0  0  0  0  0  0  0  0  0
   36.4003   27.9943   31.6654 H   0  0  0  0  0  0  0  0  0  0  0  0
   38.0838   26.5459   32.8422 H   0  0  0  0  0  0  0  0  0  0  0  0
   34.1854   24.5511   30.5015 H   0  0  0  0  0  0  0  0  0  0  0  0
   39.5531   22.4116   32.5638 H   0  0  0  0  0  0  0  0  0  0  0  0
   38.2046   22.3899   31.3774 H   0  0  0  0  0  0  0  0  0  0  0  0
   39.3791   23.7490   31.3774 H   0  0  0  0  0  0  0  0  0  0  0  0
   39.8597   24.2428   33.8248 H   0  0  0  0  0  0  0  0  0  0  0  0
   38.6209   25.5854   33.8545 H   0  0  0  0  0  0  0  0  0  0  0  0
   38.4025   22.0583   35.5308 H   0  0  0  0  0  0  0  0  0  0  0  0
   37.7733   22.4308   38.0807 H   0  0  0  0  0  0  0  0  0  0  0  0
  1  9  1  0
  2  3  2  0
  4  3  1  0
  4  1  1  0
  5  4  2  0
  6  7  2  0
  6  5  1  0
  7  2  1  0
  8  1  1  0
  9 10  1  0
 10 11  1  0
 10 14  1  0
 11 12  2  0
 12 13  1  0
 14 13  2  0
 15 14  1  0
 15 16  1  0
 17 15  1  0
 18 15  1  0
  1 19  1  1
  2 20  1  0
  3 21  1  0
  6 22  1  0
  8 23  1  0
  8 24  1  0
  8 25  1  0
  9 26  1  0
  9 27  1  0
 11 28  1  0
 12 29  1  0
M  ISO  8  19   8  20  14  21  14  22  14  23   8  24   8  25   8  26   8
M  ISO  3  27   8  28  14  29  14
M  END
>  <minimizedAffinity>  (1) 
-4.39375496

>  <minimizedRMSD>  (1) 
5.25358438

$$$$
