
     RDKit          3D

 38 40  0  0  1  0  0  0  0  0999 V2000
   39.1890   26.0880   35.3590 C   0  0  2  0  0  0  0  0  0  0  0  0
   38.6790   27.2180   36.1780 C   0  0  0  0  0  0  0  0  0  0  0  0
   38.3810   27.1510   34.7080 C   0  0  2  0  0  0  0  0  0  0  0  0
   37.5160   23.2790   37.0170 C   0  0  0  0  0  0  0  0  0  0  0  0
   37.4610   22.2660   36.0330 C   0  0  0  0  0  0  0  0  0  0  0  0
   38.0310   22.6100   34.7610 C   0  0  0  0  0  0  0  0  0  0  0  0
   38.5660   23.8450   34.5940 N   0  0  0  0  0  0  0  0  0  0  0  0
   38.5790   24.7720   35.6000 C   0  0  0  0  0  0  0  0  0  0  0  0
   38.0470   24.4840   36.8290 N   0  0  0  0  0  0  0  0  0  0  0  0
   36.9470   27.0740   34.3800 C   0  0  0  0  0  0  0  0  0  0  0  0
   36.4540   28.1090   33.4480 C   0  0  0  0  0  0  0  0  0  0  0  0
   35.5880   29.1430   33.6240 C   0  0  0  0  0  0  0  0  0  0  0  0
   35.2070   30.0460   32.6650 C   0  0  0  0  0  0  0  0  0  0  0  0
   35.7640   29.8740   31.4120 C   0  0  0  0  0  0  0  0  0  0  0  0
   36.6430   28.8230   31.2390 C   0  0  0  0  0  0  0  0  0  0  0  0
   36.9930   27.9550   32.2060 N   0  0  0  0  0  0  0  0  0  0  0  0
   37.1930   28.7190   29.8530 C   0  0  0  0  0  0  0  0  0  0  0  0
   37.3140   30.0820   29.2080 C   0  0  0  0  0  0  0  0  0  0  0  0
   38.4640   27.9310   29.7900 C   0  0  0  0  0  0  0  0  0  0  0  0
   40.1751   25.6479   35.1493 H   0  0  0  0  0  0  0  0  0  0  0  0
   37.8766   27.0490   36.9112 H   0  0  0  0  0  0  0  0  0  0  0  0
   39.1330   27.9624   36.8486 H   0  0  0  0  0  0  0  0  0  0  0  0
   38.5606   27.7130   33.7796 H   0  0  0  0  0  0  0  0  0  0  0  0
   37.0904   23.0556   38.0064 H   0  0  0  0  0  0  0  0  0  0  0  0
   37.0120   21.2810   36.2284 H   0  0  0  0  0  0  0  0  0  0  0  0
   38.0338   21.8835   33.9351 H   0  0  0  0  0  0  0  0  0  0  0  0
   36.7547   26.0901   33.9272 H   0  0  0  0  0  0  0  0  0  0  0  0
   36.4103   27.2375   35.3262 H   0  0  0  0  0  0  0  0  0  0  0  0
   35.1537   29.2660   34.6271 H   0  0  0  0  0  0  0  0  0  0  0  0
   34.4992   30.8600   32.8805 H   0  0  0  0  0  0  0  0  0  0  0  0
   35.5158   30.5508   30.5812 H   0  0  0  0  0  0  0  0  0  0  0  0
   36.4668   28.1443   29.2594 H   0  0  0  0  0  0  0  0  0  0  0  0
   37.3824   30.8528   29.9898 H   0  0  0  0  0  0  0  0  0  0  0  0
   38.2184   30.1127   28.5826 H   0  0  0  0  0  0  0  0  0  0  0  0
   36.4292   30.2716   28.5826 H   0  0  0  0  0  0  0  0  0  0  0  0
   38.8125   27.7150   30.8107 H   0  0  0  0  0  0  0  0  0  0  0  0
   38.2835   26.9861   29.2565 H   0  0  0  0  0  0  0  0  0  0  0  0
   39.2301   28.5128   29.2565 H   0  0  0  0  0  0  0  0  0  0  0  0
  1  8  1  0
  1  2  1  0
  3  1  1  0
  3  2  1  0
  5  4  2  0
  6  5  1  0
  7  6  2  0
  7  8  1  0
  8  9  2  0
  9  4  1  0
 10  3  1  0
 11 12  2  0
 11 10  1  0
 13 12  1  0
 14 13  2  0
 15 14  1  0
 15 16  2  0
 16 11  1  0
 17 15  1  0
 18 17  1  0
 19 17  1  0
  1 20  1  6
  2 21  1  0
  2 22  1  0
  3 23  1  6
  4 24  1  0
  5 25  1  0
  6 26  1  0
 10 27  1  0
 10 28  1  0
 12 29  1  0
 13 30  1  0
 14 31  1  0
 17 32  1  0
 18 33  1  0
 18 34  1  0
 18 35  1  0
 19 36  1  0
 19 37  1  0
 19 38  1  0
M  ISO  8  20  13  21  13  22  13  23  13  24  14  25  14  26  14  27   8
M  ISO  8  28   8  29  14  30  14  31  14  32   8  33   8  34   8  35   8
M  ISO  3  36   8  37   8  38   8
M  END
>  <minimizedAffinity>  (1) 
-4.82867479

>  <minimizedRMSD>  (1) 
3.43136573

$$$$
