
     RDKit          3D

 42 44  0  0  1  0  0  0  0  0999 V2000
   38.5750   25.7130   34.0440 C   0  0  0  0  0  0  0  0  0  0  0  0
   37.5810   25.4510   33.0710 N   0  0  0  0  0  0  0  0  0  0  0  0
   37.1220   24.3550   32.4690 C   0  0  0  0  0  0  0  0  0  0  0  0
   36.1070   24.5920   31.5720 C   0  0  0  0  0  0  0  0  0  0  0  0
   35.9330   25.9090   31.6280 N   0  0  0  0  0  0  0  0  0  0  0  0
   36.8220   26.4340   32.5300 C   0  0  0  0  0  0  0  0  0  0  0  0
   36.8550   27.9290   32.7580 C   0  0  1  0  0  0  0  0  0  0  0  0
   36.4010   28.7480   31.6100 C   0  0  0  0  0  0  0  0  0  0  0  0
   35.5250   28.6240   32.8390 C   0  0  2  0  0  0  0  0  0  0  0  0
   35.2990   29.9520   33.4390 C   0  0  0  0  0  0  0  0  0  0  0  0
   33.7820   30.2150   33.3840 C   0  0  0  0  0  0  0  0  0  0  0  0
   35.7560   30.1890   34.8260 C   0  0  0  0  0  0  0  0  0  0  0  0
   38.0480   25.7500   35.4310 C   0  0  1  0  0  0  0  0  0  0  0  0
   38.6610   23.4030   38.3350 C   0  0  0  0  0  0  0  0  0  0  0  0
   38.0530   24.4270   37.5890 C   0  0  0  0  0  0  0  0  0  0  0  0
   38.6210   24.7030   36.3020 C   0  0  0  0  0  0  0  0  0  0  0  0
   39.7090   23.9650   35.8740 N   0  0  0  0  0  0  0  0  0  0  0  0
   40.2490   23.0080   36.6100 C   0  0  0  0  0  0  0  0  0  0  0  0
   39.7230   22.7180   37.8600 N   0  0  0  0  0  0  0  0  0  0  0  0
   38.2810   27.1210   36.0460 C   0  0  0  0  0  0  0  0  0  0  0  0
   39.0343   26.6870   33.8196 H   0  0  0  0  0  0  0  0  0  0  0  0
   39.3020   24.8889   33.9951 H   0  0  0  0  0  0  0  0  0  0  0  0
   37.5196   23.3495   32.6714 H   0  0  0  0  0  0  0  0  0  0  0  0
   35.5653   23.8621   30.9525 H   0  0  0  0  0  0  0  0  0  0  0  0
   37.7482   27.9092   33.3997 H   0  0  0  0  0  0  0  0  0  0  0  0
   36.8995   29.7023   31.3846 H   0  0  0  0  0  0  0  0  0  0  0  0
   36.2599   28.5667   30.5343 H   0  0  0  0  0  0  0  0  0  0  0  0
   34.5527   28.2382   33.1793 H   0  0  0  0  0  0  0  0  0  0  0  0
   35.9252   30.6347   32.8458 H   0  0  0  0  0  0  0  0  0  0  0  0
   33.3845   30.2839   34.4073 H   0  0  0  0  0  0  0  0  0  0  0  0
   33.5926   31.1594   32.8527 H   0  0  0  0  0  0  0  0  0  0  0  0
   33.2858   29.3895   32.8527 H   0  0  0  0  0  0  0  0  0  0  0  0
   35.0061   29.8001   35.5306 H   0  0  0  0  0  0  0  0  0  0  0  0
   36.7143   29.6742   34.9893 H   0  0  0  0  0  0  0  0  0  0  0  0
   35.8873   31.2689   34.9893 H   0  0  0  0  0  0  0  0  0  0  0  0
   36.9691   25.5476   35.3594 H   0  0  0  0  0  0  0  0  0  0  0  0
   38.2622   23.1537   39.3294 H   0  0  0  0  0  0  0  0  0  0  0  0
   37.1872   24.9870   37.9722 H   0  0  0  0  0  0  0  0  0  0  0  0
   41.1137   22.4432   36.2314 H   0  0  0  0  0  0  0  0  0  0  0  0
   38.2669   27.0381   37.1428 H   0  0  0  0  0  0  0  0  0  0  0  0
   39.2578   27.5079   35.7201 H   0  0  0  0  0  0  0  0  0  0  0  0
   37.4869   27.8088   35.7201 H   0  0  0  0  0  0  0  0  0  0  0  0
  1 13  1  0
  2  1  1  0
  3  2  1  0
  4  5  1  0
  4  3  2  0
  5  6  2  0
  6  7  1  0
  6  2  1  0
  7  9  1  0
  8  7  1  0
  8  9  1  0
  9 10  1  0
 10 12  1  0
 11 10  1  0
 13 20  1  0
 13 16  1  0
 15 14  2  0
 16 15  1  0
 17 16  2  0
 17 18  1  0
 18 19  2  0
 19 14  1  0
  1 21  1  0
  1 22  1  0
  3 23  1  0
  4 24  1  0
  7 25  1  1
  8 26  1  0
  8 27  1  0
  9 28  1  6
 10 29  1  0
 11 30  1  0
 11 31  1  0
 11 32  1  0
 12 33  1  0
 12 34  1  0
 12 35  1  0
 13 36  1  6
 14 37  1  0
 15 38  1  0
 18 39  1  0
 20 40  1  0
 20 41  1  0
 20 42  1  0
M  ISO  8  21   8  22   8  23  14  24  14  25  13  26  13  27  13  28  13
M  ISO  8  29   8  30   8  31   8  32   8  33   8  34   8  35   8  36   8
M  ISO  6  37  14  38  14  39  14  40   8  41   8  42   8
M  END
>  <minimizedAffinity>  (1) 
-5.04686499

>  <minimizedRMSD>  (1) 
0.646735847

$$$$
