
     RDKit          3D

 36 38  0  0  0  0  0  0  0  0999 V2000
   38.0299   23.4733   34.6101 C   0  0  0  0  0  0  0  0  0  0  0  0
   38.2634   24.5697   33.7987 C   0  0  0  0  0  0  0  0  0  0  0  0
   37.7626   24.1813   32.5853 N   0  0  0  0  0  0  0  0  0  0  0  0
   37.2817   22.9487   32.7131 C   0  0  0  0  0  0  0  0  0  0  0  0
   37.4343   22.4748   33.9737 N   0  0  0  0  0  0  0  0  0  0  0  0
   38.3950   23.3998   36.0312 C   0  0  0  0  0  0  0  0  0  0  0  0
   39.5930   22.8044   36.4235 C   0  0  0  0  0  0  0  0  0  0  0  0
   39.9019   22.7566   37.7994 C   0  0  0  0  0  0  0  0  0  0  0  0
   39.0061   23.2972   38.6571 N   0  0  0  0  0  0  0  0  0  0  0  0
   37.8539   23.8678   38.2551 C   0  0  0  0  0  0  0  0  0  0  0  0
   37.5411   23.9228   36.9412 N   0  0  0  0  0  0  0  0  0  0  0  0
   37.0049   21.1751   34.3879 C   0  0  1  0  0  0  0  0  0  0  0  0
   35.8420   20.9662   35.2543 C   0  0  0  0  0  0  0  0  0  0  0  0
   35.6651   20.7673   33.7734 C   0  0  2  0  0  0  0  0  0  0  0  0
   38.7351   25.5079   34.0809 H   0  0  0  0  0  0  0  0  0  0  0  0
   36.8198   22.3990   31.8818 H   0  0  0  0  0  0  0  0  0  0  0  0
   40.2701   22.3885   35.6867 H   0  0  0  0  0  0  0  0  0  0  0  0
   40.8301   22.2973   38.1280 H   0  0  0  0  0  0  0  0  0  0  0  0
   37.1444   24.2983   38.9631 H   0  0  0  0  0  0  0  0  0  0  0  0
   37.7947   20.3954   34.2281 H   0  0  0  0  0  0  0  0  0  0  0  0
   35.3965   21.9091   35.6709 H   0  0  0  0  0  0  0  0  0  0  0  0
   35.8216   20.1474   35.9697 H   0  0  0  0  0  0  0  0  0  0  0  0
   35.0855   21.5095   33.2230 H   0  0  0  0  0  0  0  0  0  0  0  0
   35.4389   19.3429   33.3692 C   0  0  0  0  0  0  0  0  0  0  0  0
   36.5963   18.7445   32.6189 C   0  0  0  0  0  0  0  0  0  0  0  0
   34.1583   19.1255   32.5897 C   0  0  0  0  0  0  0  0  0  0  0  0
   35.3089   18.5369   34.6485 C   0  0  0  0  0  0  0  0  0  0  0  0
   36.9277   19.3232   31.7378 H   0  0  0  0  0  0  0  0  0  0  0  0
   36.2782   17.7570   32.2237 H   0  0  0  0  0  0  0  0  0  0  0  0
   37.4873   18.5774   33.2564 H   0  0  0  0  0  0  0  0  0  0  0  0
   33.8754   18.0430   32.7158 H   0  0  0  0  0  0  0  0  0  0  0  0
   33.3332   19.7421   32.9418 H   0  0  0  0  0  0  0  0  0  0  0  0
   34.3212   19.2160   31.4795 H   0  0  0  0  0  0  0  0  0  0  0  0
   35.1806   17.4670   34.4100 H   0  0  0  0  0  0  0  0  0  0  0  0
   34.4388   18.9615   35.2068 H   0  0  0  0  0  0  0  0  0  0  0  0
   36.2053   18.7543   35.2633 H   0  0  0  0  0  0  0  0  0  0  0  0
  1  6  1  0
  2  1  2  0
  3  4  2  0
  3  2  1  0
  4  5  1  0
  5 12  1  0
  5  1  1  0
  6  7  2  0
  6 11  1  0
  7  8  1  0
  8  9  2  0
 10  9  1  0
 11 10  2  0
 12 13  1  0
 14 12  1  0
 14 13  1  0
  2 15  1  0
  4 16  1  0
  7 17  1  0
  8 18  1  0
 10 19  1  0
 12 20  1  1
 13 21  1  0
 13 22  1  0
 14 23  1  6
 24 25  1  0
 24 26  1  0
 24 27  1  0
 25 28  1  0
 25 29  1  0
 25 30  1  0
 26 31  1  0
 26 32  1  0
 26 33  1  0
 27 34  1  0
 27 35  1  0
 27 36  1  0
 14 24  1  0
M  ISO  8  15  14  16  14  17  14  18  14  19  14  20  13  21  13  22  13
M  ISO  1  23  13
M  END
>  <DihAtoms>  (1) 
11,13,23,24

>  <DihDeg>  (1) 
59.97379437074165

$$$$
