
     RDKit          3D

 31 33  0  0  0  0  0  0  0  0999 V2000
   36.6240   25.7780   32.1280 C   0  0  0  0  0  0  0  0  0  0  0  0
   37.4140   24.9700   32.9020 C   0  0  0  0  0  0  0  0  0  0  0  0
   37.2020   23.6100   32.7840 C   0  0  0  0  0  0  0  0  0  0  0  0
   36.2750   23.0380   31.9620 C   0  0  0  0  0  0  0  0  0  0  0  0
   35.4880   23.8970   31.1880 C   0  0  0  0  0  0  0  0  0  0  0  0
   35.6470   25.2830   31.2570 C   0  0  0  0  0  0  0  0  0  0  0  0
   34.7880   19.6870   31.9800 C   0  0  0  0  0  0  0  0  0  0  0  0
   35.8780   18.8630   31.6920 C   0  0  0  0  0  0  0  0  0  0  0  0
   37.1220   19.4780   31.4980 C   0  0  0  0  0  0  0  0  0  0  0  0
   37.2130   20.8320   31.5940 N   0  0  0  0  0  0  0  0  0  0  0  0
   36.1100   21.5920   31.8790 C   0  0  0  0  0  0  0  0  0  0  0  0
   34.9260   21.0260   32.0660 N   0  0  0  0  0  0  0  0  0  0  0  0
   36.8400   27.4850   32.2260 S   0  0  0  0  0  0  0  0  0  0  0  0
   37.8030   28.0200   31.1920 O   0  0  0  0  0  0  0  0  0  0  0  0
   35.4950   28.1190   32.1380 O   0  0  0  0  0  0  0  0  0  0  0  0
   38.6550   25.5560   33.9990 S   0  0  0  0  0  0  0  0  0  0  0  0
   39.6330   23.1450   36.8490 N   0  0  0  0  0  0  0  0  0  0  0  0
   39.8200   23.7120   35.6650 N   0  0  0  0  0  0  0  0  0  0  0  0
   38.8010   24.5710   35.4760 C   0  0  0  0  0  0  0  0  0  0  0  0
   37.9740   24.5360   36.5560 C   0  0  0  0  0  0  0  0  0  0  0  0
   38.5150   23.6140   37.4400 C   0  0  0  0  0  0  0  0  0  0  0  0
   37.8245   22.9408   33.3960 H   0  0  0  0  0  0  0  0  0  0  0  0
   34.7301   23.4734   30.5127 H   0  0  0  0  0  0  0  0  0  0  0  0
   35.0278   25.9596   30.6498 H   0  0  0  0  0  0  0  0  0  0  0  0
   33.7978   19.2354   32.1398 H   0  0  0  0  0  0  0  0  0  0  0  0
   35.7642   17.7713   31.6201 H   0  0  0  0  0  0  0  0  0  0  0  0
   38.0130   18.8741   31.2711 H   0  0  0  0  0  0  0  0  0  0  0  0
   37.4251   27.8005   33.4239 H   0  0  0  0  0  0  0  0  0  0  0  0
   40.2590   22.4394   37.2628 H   0  0  0  0  0  0  0  0  0  0  0  0
   37.0556   25.1241   36.7000 H   0  0  0  0  0  0  0  0  0  0  0  0
   38.1140   23.3244   38.4225 H   0  0  0  0  0  0  0  0  0  0  0  0
  1 13  1  0
  1  2  2  0
  2 16  1  0
  3  2  1  0
  4  3  2  0
  5  6  2  0
  5  4  1  0
  6  1  1  0
  7 12  2  0
  8  7  1  0
  9 10  1  0
  9  8  2  0
 10 11  2  0
 11  4  1  0
 11 12  1  0
 14 13  2  0
 15 13  2  0
 16 19  1  0
 17 21  1  0
 18 17  1  0
 19 18  2  0
 19 20  1  0
 20 21  2  0
  3 22  1  0
  5 23  1  0
  6 24  1  0
  7 25  1  0
  8 26  1  0
  9 27  1  0
 13 28  1  0
 17 29  1  0
 20 30  1  0
 21 31  1  0
M  ISO  8  22  14  23  14  24  14  25  14  26  14  27  14  28  11  29   9
M  ISO  2  30  14  31  14
M  END
>  <minimizedAffinity>  (1) 
-4.96008444

>  <minimizedRMSD>  (1) 
6.86355114

$$$$
