
     RDKit          3D

 40 44  0  0  0  0  0  0  0  0999 V2000
   39.6560   24.1420   35.5880 C   0  0  0  0  0  0  0  0  0  0  0  0
   39.8460   25.4340   35.0380 C   0  0  0  0  0  0  0  0  0  0  0  0
   41.1160   25.8570   34.6950 C   0  0  0  0  0  0  0  0  0  0  0  0
   42.1190   24.9680   34.9180 N   0  0  0  0  0  0  0  0  0  0  0  0
   41.9210   23.7210   35.4490 C   0  0  0  0  0  0  0  0  0  0  0  0
   40.6820   23.3370   35.7740 N   0  0  0  0  0  0  0  0  0  0  0  0
   43.1120   22.8790   35.6190 C   0  0  0  0  0  0  0  0  0  0  0  0
   44.3170   23.5060   35.4990 C   0  0  0  0  0  0  0  0  0  0  0  0
   45.5570   22.1320   35.7660 S   0  0  0  0  0  0  0  0  0  0  0  0
   44.1010   20.9120   36.0010 C   0  0  0  0  0  0  0  0  0  0  0  0
   43.2230   21.5990   35.8660 N   0  0  0  0  0  0  0  0  0  0  0  0
   44.0500   19.4470   36.2850 N   0  0  0  0  0  0  0  0  0  0  0  0
   43.1590   18.8810   37.0830 C   0  0  0  0  0  0  0  0  0  0  0  0
   43.4480   17.5740   37.0710 N   0  0  0  0  0  0  0  0  0  0  0  0
   44.4930   17.4000   36.2740 C   0  0  0  0  0  0  0  0  0  0  0  0
   45.1310   16.1910   35.9710 C   0  0  0  0  0  0  0  0  0  0  0  0
   46.1840   16.2760   35.1240 N   0  0  0  0  0  0  0  0  0  0  0  0
   46.6010   17.4590   34.5980 C   0  0  0  0  0  0  0  0  0  0  0  0
   45.9640   18.6260   34.9080 N   0  0  0  0  0  0  0  0  0  0  0  0
   44.9200   18.5950   35.7390 C   0  0  0  0  0  0  0  0  0  0  0  0
   44.7140   14.9380   36.5080 N   0  0  0  0  0  0  0  0  0  0  0  0
   38.7720   26.3750   34.8020 C   0  0  0  0  0  0  0  0  0  0  0  0
   38.3470   27.3330   35.7120 C   0  0  0  0  0  0  0  0  0  0  0  0
   37.3180   28.1330   35.3210 C   0  0  0  0  0  0  0  0  0  0  0  0
   36.7680   27.9480   34.0590 C   0  0  0  0  0  0  0  0  0  0  0  0
   37.7610   26.5370   33.3470 S   0  0  0  0  0  0  0  0  0  0  0  0
   35.7320   28.5490   33.3110 C   0  0  0  0  0  0  0  0  0  0  0  0
   35.4340   28.1270   32.1870 O   0  0  0  0  0  0  0  0  0  0  0  0
   34.9930   29.6650   33.8320 N   0  0  0  0  0  0  0  0  0  0  0  0
   38.6441   23.8087   35.8617 H   0  0  0  0  0  0  0  0  0  0  0  0
   41.3036   26.8530   34.2674 H   0  0  0  0  0  0  0  0  0  0  0  0
   44.5132   24.5687   35.2937 H   0  0  0  0  0  0  0  0  0  0  0  0
   42.3512   19.3794   37.6390 H   0  0  0  0  0  0  0  0  0  0  0  0
   47.4624   17.4756   33.9141 H   0  0  0  0  0  0  0  0  0  0  0  0
   45.2170   14.0758   36.2540 H   0  0  0  0  0  0  0  0  0  0  0  0
   43.9097   14.8949   37.1500 H   0  0  0  0  0  0  0  0  0  0  0  0
   38.8185   27.4402   36.7000 H   0  0  0  0  0  0  0  0  0  0  0  0
   36.9286   28.9124   35.9925 H   0  0  0  0  0  0  0  0  0  0  0  0
   34.2405   30.0908   33.2723 H   0  0  0  0  0  0  0  0  0  0  0  0
   35.2156   30.0395   34.7654 H   0  0  0  0  0  0  0  0  0  0  0  0
  1  6  2  0
  2  1  1  0
  3  4  1  0
  3  2  2  0
  4  5  2  0
  5  7  1  0
  5  6  1  0
  7 11  1  0
  8  7  2  0
  8  9  1  0
  9 10  1  0
 10 12  1  0
 11 10  2  0
 12 13  1  0
 14 13  2  0
 15 14  1  0
 16 15  2  0
 16 21  1  0
 17 16  1  0
 18 19  1  0
 18 17  2  0
 19 20  2  0
 20 15  1  0
 20 12  1  0
 22  2  1  0
 22 23  2  0
 24 23  1  0
 25 24  2  0
 26 25  1  0
 26 22  1  0
 27 29  1  0
 27 25  1  0
 28 27  2  0
  1 30  1  0
  3 31  1  0
  8 32  1  0
 13 33  1  0
 18 34  1  0
 21 35  1  0
 21 36  1  0
 23 37  1  0
 24 38  1  0
 29 39  1  0
 29 40  1  0
M  ISO  7  30  14  31  14  32  14  33  14  34  14  37  14  38  14
M  END
>  <minimizedAffinity>  (1) 
-4.49012852

>  <minimizedRMSD>  (1) 
2.65430975

$$$$
