
     RDKit          3D

 40 44  0  0  0  0  0  0  0  0999 V2000
   37.8680   23.6984   33.5016 C   0  0  0  0  0  0  0  0  0  0  0  0
   37.4652   22.6577   32.6674 C   0  0  0  0  0  0  0  0  0  0  0  0
   37.4865   21.5630   33.4861 N   0  0  0  0  0  0  0  0  0  0  0  0
   37.8740   21.9664   34.6924 C   0  0  0  0  0  0  0  0  0  0  0  0
   38.1140   23.2730   34.7296 N   0  0  0  0  0  0  0  0  0  0  0  0
   38.0131   25.0827   33.0776 C   0  0  0  0  0  0  0  0  0  0  0  0
   39.2959   25.5842   32.7686 C   0  0  0  0  0  0  0  0  0  0  0  0
   39.3915   26.9320   32.3561 C   0  0  0  0  0  0  0  0  0  0  0  0
   38.2396   27.6511   32.2862 N   0  0  0  0  0  0  0  0  0  0  0  0
   37.0295   27.1303   32.5921 C   0  0  0  0  0  0  0  0  0  0  0  0
   36.9111   25.8527   32.9865 N   0  0  0  0  0  0  0  0  0  0  0  0
   38.5366   23.9488   35.8995 C   0  0  1  0  0  0  0  0  0  0  0  0
   38.0774   25.2290   36.3643 C   0  0  0  0  0  0  0  0  0  0  0  0
   37.5578   23.9182   37.0288 C   0  0  2  0  0  0  0  0  0  0  0  0
   38.1217   23.7660   38.4268 C   0  0  0  0  0  0  0  0  0  0  0  0
   37.5131   22.7034   39.0648 F   0  0  0  0  0  0  0  0  0  0  0  0
   39.5116   23.3411   38.3062 F   0  0  0  0  0  0  0  0  0  0  0  0
   38.1402   24.8997   39.1425 F   0  0  0  0  0  0  0  0  0  0  0  0
   37.2119   22.7670   31.6280 H   0  0  0  0  0  0  0  0  0  0  0  0
   37.9219   21.1570   35.4188 H   0  0  0  0  0  0  0  0  0  0  0  0
   40.1195   24.8939   32.8710 H   0  0  0  0  0  0  0  0  0  0  0  0
   40.3660   27.2905   32.1278 H   0  0  0  0  0  0  0  0  0  0  0  0
   36.2179   27.8319   32.4849 H   0  0  0  0  0  0  0  0  0  0  0  0
   39.6157   23.6987   36.1756 H   0  0  0  0  0  0  0  0  0  0  0  0
   38.6858   25.8994   36.9934 H   0  0  0  0  0  0  0  0  0  0  0  0
   37.2972   25.7766   35.8143 H   0  0  0  0  0  0  0  0  0  0  0  0
   36.1002   23.9603   36.9559 N   0  0  0  0  0  0  0  0  0  0  0  0
   35.4213   24.1535   35.7875 C   0  0  0  0  0  0  0  0  0  0  0  0
   34.0832   24.1456   36.0255 N   0  0  0  0  0  0  0  0  0  0  0  0
   33.9463   23.9473   37.3409 C   0  0  0  0  0  0  0  0  0  0  0  0
   32.8738   23.8368   38.2125 C   0  0  0  0  0  0  0  0  0  0  0  0
   31.5410   23.9420   37.7096 N   0  0  0  0  0  0  0  0  0  0  0  0
   33.0131   23.6317   39.5336 N   0  0  0  0  0  0  0  0  0  0  0  0
   34.2626   23.5233   40.0680 C   0  0  0  0  0  0  0  0  0  0  0  0
   35.3156   23.6276   39.2398 N   0  0  0  0  0  0  0  0  0  0  0  0
   35.1708   23.8323   37.9221 C   0  0  0  0  0  0  0  0  0  0  0  0
   35.8564   24.2947   34.8042 H   0  0  0  0  0  0  0  0  0  0  0  0
   31.2320   23.1389   37.1237 H   0  0  0  0  0  0  0  0  0  0  0  0
   30.8100   24.6784   37.8186 H   0  0  0  0  0  0  0  0  0  0  0  0
   34.2856   23.3594   41.1364 H   0  0  0  0  0  0  0  0  0  0  0  0
  1  5  1  0
  2  3  1  0
  2  1  2  0
  3  4  2  0
  4  5  1  0
  5 12  1  0
  6  1  1  0
  7  6  2  0
  8  7  1  0
  9  8  2  0
  9 10  1  0
 10 11  2  0
 11  6  1  0
 12 13  1  0
 12 14  1  0
 13 14  1  0
 14 15  1  1
 15 16  1  0
 15 18  1  0
 17 15  1  0
  2 19  1  0
  4 20  1  0
  7 21  1  0
  8 22  1  0
 10 23  1  0
 12 24  1  1
 13 25  1  0
 13 26  1  0
 27 28  1  0
 28 29  2  0
 29 30  1  0
 30 31  2  0
 31 32  1  0
 31 33  1  0
 33 34  2  0
 34 35  1  0
 35 36  2  0
 36 27  1  0
 36 30  1  0
 28 37  1  0
 32 38  1  0
 32 39  1  0
 34 40  1  0
 14 27  1  0
M  ISO  8  19  14  20  14  21  14  22  14  23  14  24  13  25  13  26  13
M  END
>  <DihAtoms>  (1) 
11,13,26,27

>  <DihDeg>  (1) 
84.15236182007223

$$$$
