
     RDKit          3D

 28 30  0  0  0  0  0  0  0  0999 V2000
   43.5980   19.7200   37.0660 C   0  0  0  0  0  0  0  0  0  0  0  0
   42.5050   20.5750   37.2770 C   0  0  0  0  0  0  0  0  0  0  0  0
   41.8930   21.1810   36.1950 C   0  0  0  0  0  0  0  0  0  0  0  0
   42.4130   20.8910   34.9710 N   0  0  0  0  0  0  0  0  0  0  0  0
   43.4510   20.0790   34.7630 C   0  0  0  0  0  0  0  0  0  0  0  0
   44.0470   19.4890   35.8330 N   0  0  0  0  0  0  0  0  0  0  0  0
   43.9450   19.8210   33.4520 N   0  0  0  0  0  0  0  0  0  0  0  0
   45.0900   20.4100   33.0660 C   0  0  0  0  0  0  0  0  0  0  0  0
   45.6070   20.1840   31.7940 C   0  0  0  0  0  0  0  0  0  0  0  0
   44.8960   19.3390   30.9590 C   0  0  0  0  0  0  0  0  0  0  0  0
   45.3740   19.1370   29.7970 O   0  0  0  0  0  0  0  0  0  0  0  0
   43.7480   18.7630   31.3810 N   0  0  0  0  0  0  0  0  0  0  0  0
   43.2690   19.0040   32.6300 C   0  0  0  0  0  0  0  0  0  0  0  0
   42.1890   18.4330   32.9590 O   0  0  0  0  0  0  0  0  0  0  0  0
   40.7610   22.0710   36.3640 C   0  0  0  0  0  0  0  0  0  0  0  0
   39.9810   22.7790   35.5010 N   0  0  0  0  0  0  0  0  0  0  0  0
   39.0820   23.4340   36.1850 O   0  0  0  0  0  0  0  0  0  0  0  0
   39.2300   23.1910   37.4800 C   0  0  0  0  0  0  0  0  0  0  0  0
   40.2710   22.3480   37.5780 N   0  0  0  0  0  0  0  0  0  0  0  0
   38.4280   23.7270   38.5890 C   0  0  0  0  0  0  0  0  0  0  0  0
   39.2390   23.8800   39.6990 F   0  0  0  0  0  0  0  0  0  0  0  0
   37.4110   22.8460   38.9580 F   0  0  0  0  0  0  0  0  0  0  0  0
   37.9120   24.9460   38.2540 F   0  0  0  0  0  0  0  0  0  0  0  0
   44.0874   19.2372   37.9247 H   0  0  0  0  0  0  0  0  0  0  0  0
   42.1375   20.7619   38.2968 H   0  0  0  0  0  0  0  0  0  0  0  0
   45.6224   21.0759   33.7611 H   0  0  0  0  0  0  0  0  0  0  0  0
   46.5435   20.6580   31.4649 H   0  0  0  0  0  0  0  0  0  0  0  0
   43.2309   18.1349   30.7494 H   0  0  0  0  0  0  0  0  0  0  0  0
  1  2  2  0
  3 15  1  0
  3  2  1  0
  4  3  2  0
  5  4  1  0
  5  6  2  0
  6  1  1  0
  7  5  1  0
  8  7  1  0
  9  8  2  0
 10 12  1  0
 10  9  1  0
 11 10  2  0
 12 13  1  0
 13 14  2  0
 13  7  1  0
 15 19  1  0
 16 17  1  0
 16 15  2  0
 17 18  1  0
 18 19  2  0
 18 20  1  0
 20 22  1  0
 20 21  1  0
 23 20  1  0
  1 24  1  0
  2 25  1  0
  8 26  1  0
  9 27  1  0
 12 28  1  0
M  ISO  5  24  14  25  14  26  14  27  14  28   9
M  END
>  <minimizedAffinity>  (1) 
-4.35326958

>  <minimizedRMSD>  (1) 
0.553867221

$$$$
