
     RDKit          3D

 34 37  0  0  1  0  0  0  0  0999 V2000
   38.6170   23.4870   34.7140 C   0  0  0  0  0  0  0  0  0  0  0  0
   37.6590   22.7800   34.0030 C   0  0  0  0  0  0  0  0  0  0  0  0
   37.9560   23.0630   32.7000 N   0  0  0  0  0  0  0  0  0  0  0  0
   38.9970   23.8660   32.6770 C   0  0  0  0  0  0  0  0  0  0  0  0
   39.4420   24.1550   33.9190 N   0  0  0  0  0  0  0  0  0  0  0  0
   38.7170   23.5020   36.1780 C   0  0  0  0  0  0  0  0  0  0  0  0
   37.7780   24.2320   36.9290 C   0  0  0  0  0  0  0  0  0  0  0  0
   37.8990   24.2280   38.3350 C   0  0  0  0  0  0  0  0  0  0  0  0
   38.9070   23.5280   38.8680 N   0  0  0  0  0  0  0  0  0  0  0  0
   39.8020   22.8320   38.1210 C   0  0  0  0  0  0  0  0  0  0  0  0
   39.7100   22.8170   36.7690 N   0  0  0  0  0  0  0  0  0  0  0  0
   40.5700   25.0110   34.1940 C   0  0  1  0  0  0  0  0  0  0  0  0
   41.1210   25.9500   33.2480 C   0  0  0  0  0  0  0  0  0  0  0  0
   40.2000   26.4640   34.3310 C   0  0  1  0  0  0  0  0  0  0  0  0
   38.9480   26.9670   33.8720 N   0  0  0  0  0  0  0  0  0  0  0  0
   37.8600   27.0670   34.6460 C   0  0  0  0  0  0  0  0  0  0  0  0
   36.6410   27.5520   34.2160 C   0  0  0  0  0  0  0  0  0  0  0  0
   36.5380   27.9640   32.8850 C   0  0  0  0  0  0  0  0  0  0  0  0
   35.4860   28.4220   32.3760 O   0  0  0  0  0  0  0  0  0  0  0  0
   37.6280   27.8680   32.0910 N   0  0  0  0  0  0  0  0  0  0  0  0
   38.7980   27.3800   32.5820 C   0  0  0  0  0  0  0  0  0  0  0  0
   39.7710   27.3300   31.7540 O   0  0  0  0  0  0  0  0  0  0  0  0
   36.8523   22.1431   34.3949 H   0  0  0  0  0  0  0  0  0  0  0  0
   39.4519   24.2564   31.7547 H   0  0  0  0  0  0  0  0  0  0  0  0
   36.9707   24.7912   36.4334 H   0  0  0  0  0  0  0  0  0  0  0  0
   37.1904   24.7803   38.9697 H   0  0  0  0  0  0  0  0  0  0  0  0
   40.6097   22.2748   38.6181 H   0  0  0  0  0  0  0  0  0  0  0  0
   41.0681   24.2222   34.7768 H   0  0  0  0  0  0  0  0  0  0  0  0
   42.1931   26.1938   33.2811 H   0  0  0  0  0  0  0  0  0  0  0  0
   41.1340   26.0200   32.1503 H   0  0  0  0  0  0  0  0  0  0  0  0
   40.2175   27.1729   35.1719 H   0  0  0  0  0  0  0  0  0  0  0  0
   37.9429   26.7413   35.6934 H   0  0  0  0  0  0  0  0  0  0  0  0
   35.7801   27.6120   34.8981 H   0  0  0  0  0  0  0  0  0  0  0  0
   37.5716   28.1668   31.1069 H   0  0  0  0  0  0  0  0  0  0  0  0
  1  6  1  0
  2  1  2  0
  3  2  1  0
  4  3  2  0
  4  5  1  0
  5 12  1  0
  5  1  1  0
  6 11  1  0
  6  7  2  0
  7  8  1  0
  8  9  2  0
 10  9  1  0
 11 10  2  0
 12 14  1  0
 13 12  1  0
 13 14  1  0
 15 14  1  0
 15 16  1  0
 17 16  2  0
 18 17  1  0
 19 18  2  0
 20 21  1  0
 20 18  1  0
 21 15  1  0
 22 21  2  0
  2 23  1  0
  4 24  1  0
  7 25  1  0
  8 26  1  0
 10 27  1  0
 12 28  1  1
 13 29  1  0
 13 30  1  0
 14 31  1  1
 16 32  1  0
 17 33  1  0
 20 34  1  0
M  ISO  8  23  14  24  14  25  14  26  14  27  14  28  13  29  13  30  13
M  ISO  4  31  13  32  14  33  14  34   9
M  END
>  <minimizedAffinity>  (1) 
-4.82721615

>  <minimizedRMSD>  (1) 
4.85464668

$$$$
