
     RDKit          3D

 34 37  0  0  0  0  0  0  0  0999 V2000
   38.0225   23.4740   34.6146 C   0  0  0  0  0  0  0  0  0  0  0  0
   38.2690   24.5656   33.7971 C   0  0  0  0  0  0  0  0  0  0  0  0
   37.7763   24.1739   32.5851 N   0  0  0  0  0  0  0  0  0  0  0  0
   37.2905   22.9584   32.7082 C   0  0  0  0  0  0  0  0  0  0  0  0
   37.4257   22.4840   33.9659 N   0  0  0  0  0  0  0  0  0  0  0  0
   38.3769   23.4085   36.0380 C   0  0  0  0  0  0  0  0  0  0  0  0
   39.5862   22.8023   36.4234 C   0  0  0  0  0  0  0  0  0  0  0  0
   39.9003   22.7539   37.7982 C   0  0  0  0  0  0  0  0  0  0  0  0
   39.0222   23.2913   38.6540 N   0  0  0  0  0  0  0  0  0  0  0  0
   37.8609   23.8710   38.2556 C   0  0  0  0  0  0  0  0  0  0  0  0
   37.5328   23.9321   36.9426 N   0  0  0  0  0  0  0  0  0  0  0  0
   36.9818   21.1783   34.3884 C   0  0  1  0  0  0  0  0  0  0  0  0
   35.8572   20.9495   35.2611 C   0  0  0  0  0  0  0  0  0  0  0  0
   35.6727   20.7622   33.7717 C   0  0  1  0  0  0  0  0  0  0  0  0
   38.7454   25.4734   34.1282 H   0  0  0  0  0  0  0  0  0  0  0  0
   36.8577   22.5023   31.8214 H   0  0  0  0  0  0  0  0  0  0  0  0
   40.2593   22.3854   35.7082 H   0  0  0  0  0  0  0  0  0  0  0  0
   40.8206   22.2951   38.1202 H   0  0  0  0  0  0  0  0  0  0  0  0
   37.1392   24.3101   38.9306 H   0  0  0  0  0  0  0  0  0  0  0  0
   37.8278   20.4478   34.3854 H   0  0  0  0  0  0  0  0  0  0  0  0
   35.8480   19.9624   35.8089 H   0  0  0  0  0  0  0  0  0  0  0  0
   35.2767   21.6908   35.8249 H   0  0  0  0  0  0  0  0  0  0  0  0
   35.6872   19.7417   33.3378 H   0  0  0  0  0  0  0  0  0  0  0  0
   34.8050   21.7031   33.1457 N   0  0  0  0  0  0  0  0  0  0  0  0
   33.7484   21.3561   32.4004 C   0  0  0  0  0  0  0  0  0  0  0  0
   32.8999   22.2567   31.7884 C   0  0  0  0  0  0  0  0  0  0  0  0
   33.1619   23.6184   31.9586 C   0  0  0  0  0  0  0  0  0  0  0  0
   32.4654   24.5314   31.4542 O   0  0  0  0  0  0  0  0  0  0  0  0
   34.2257   23.9839   32.7087 N   0  0  0  0  0  0  0  0  0  0  0  0
   35.0206   23.0422   33.2832 C   0  0  0  0  0  0  0  0  0  0  0  0
   36.0005   23.4872   33.9731 O   0  0  0  0  0  0  0  0  0  0  0  0
   33.5032   20.3351   32.2383 H   0  0  0  0  0  0  0  0  0  0  0  0
   32.0474   21.9704   31.1872 H   0  0  0  0  0  0  0  0  0  0  0  0
   34.4431   25.0056   32.8513 H   0  0  0  0  0  0  0  0  0  0  0  0
  1  6  1  0
  2  1  2  0
  3  4  2  0
  3  2  1  0
  4  5  1  0
  5 12  1  0
  5  1  1  0
  6  7  2  0
  6 11  1  0
  7  8  1  0
  8  9  2  0
 10  9  1  0
 11 10  2  0
 12 13  1  0
 14 12  1  0
 14 13  1  0
  2 15  1  0
  4 16  1  0
  7 17  1  0
  8 18  1  0
 10 19  1  0
 12 20  1  1
 13 21  1  0
 13 22  1  0
 14 23  1  1
 24 25  1  0
 25 26  2  0
 26 27  1  0
 27 28  2  0
 27 29  1  0
 29 30  1  0
 30 31  2  0
 30 24  1  0
 25 32  1  0
 26 33  1  0
 29 34  1  0
 14 24  1  0
M  ISO  8  15  14  16  14  17  14  18  14  19  14  20  13  21  13  22  13
M  ISO  1  23  13
M  END
>  <DihAtoms>  (1) 
11,13,23,24

>  <DihDeg>  (1) 
-41.27889534751066

$$$$
