
     RDKit          3D

 24 26  0  0  0  0  0  0  0  0999 V2000
   37.7360   23.4380   33.6060 C   0  0  0  0  0  0  0  0  0  0  0  0
   38.6080   23.0950   34.7020 N   0  0  0  0  0  0  0  0  0  0  0  0
   39.7550   22.4080   34.4510 C   0  0  0  0  0  0  0  0  0  0  0  0
   40.4260   22.1860   35.5950 N   0  0  0  0  0  0  0  0  0  0  0  0
   39.7320   22.7220   36.6000 C   0  0  0  0  0  0  0  0  0  0  0  0
   39.8650   22.8390   37.9720 C   0  0  0  0  0  0  0  0  0  0  0  0
   38.9110   23.4810   38.6820 N   0  0  0  0  0  0  0  0  0  0  0  0
   37.8190   24.0180   38.0760 C   0  0  0  0  0  0  0  0  0  0  0  0
   37.6470   23.9270   36.7280 N   0  0  0  0  0  0  0  0  0  0  0  0
   38.6070   23.2830   36.0350 C   0  0  0  0  0  0  0  0  0  0  0  0
   39.0180   26.3450   31.7720 C   0  0  0  0  0  0  0  0  0  0  0  0
   38.3620   27.4360   32.3520 C   0  0  0  0  0  0  0  0  0  0  0  0
   37.4640   27.1600   33.3920 C   0  0  0  0  0  0  0  0  0  0  0  0
   37.2710   25.8540   33.7880 N   0  0  0  0  0  0  0  0  0  0  0  0
   37.9410   24.8550   33.1810 C   0  0  0  0  0  0  0  0  0  0  0  0
   38.8150   25.0640   32.1780 N   0  0  0  0  0  0  0  0  0  0  0  0
   37.9486   22.7733   32.7558 H   0  0  0  0  0  0  0  0  0  0  0  0
   36.6939   23.3192   33.9374 H   0  0  0  0  0  0  0  0  0  0  0  0
   40.0863   22.0808   33.4544 H   0  0  0  0  0  0  0  0  0  0  0  0
   40.7415   22.4123   38.4817 H   0  0  0  0  0  0  0  0  0  0  0  0
   37.0619   24.5345   38.6843 H   0  0  0  0  0  0  0  0  0  0  0  0
   39.7280   26.5318   30.9529 H   0  0  0  0  0  0  0  0  0  0  0  0
   38.5430   28.4647   32.0071 H   0  0  0  0  0  0  0  0  0  0  0  0
   36.9189   27.9772   33.8871 H   0  0  0  0  0  0  0  0  0  0  0  0
  1  2  1  0
  2 10  1  0
  3  2  1  0
  3  4  2  0
  4  5  1  0
  5  6  2  0
  6  7  1  0
  8  7  2  0
  9  8  1  0
 10  5  1  0
 10  9  2  0
 11 16  2  0
 11 12  1  0
 12 13  2  0
 13 14  1  0
 15  1  1  0
 15 14  2  0
 16 15  1  0
  1 17  1  0
  1 18  1  0
  3 19  1  0
  6 20  1  0
  8 21  1  0
 11 22  1  0
 12 23  1  0
 13 24  1  0
M  ISO  8  17   8  18   8  19  14  20  14  21  14  22  14  23  14  24  14
M  END
>  <minimizedAffinity>  (1) 
-3.95484877

>  <minimizedRMSD>  (1) 
5.68546104

$$$$
