
     RDKit          3D

 37 39  0  0  1  0  0  0  0  0999 V2000
   37.5810   27.6110   35.1080 C   0  0  0  0  0  0  0  0  0  0  0  0
   38.7610   26.7270   35.5710 C   0  0  2  0  0  0  0  0  0  0  0  0
   40.0410   26.9850   34.8930 C   0  0  0  0  0  0  0  0  0  0  0  0
   39.3100   25.6660   34.7790 C   0  0  1  0  0  0  0  0  0  0  0  0
   39.7720   24.5070   35.5720 N   0  0  0  0  0  0  0  0  0  0  0  0
   39.0950   24.0390   36.6410 C   0  0  0  0  0  0  0  0  0  0  0  0
   39.4790   22.9690   37.4110 C   0  0  0  0  0  0  0  0  0  0  0  0
   40.6440   22.3150   37.0760 C   0  0  0  0  0  0  0  0  0  0  0  0
   41.0140   21.2110   37.8930 N   0  0  0  0  0  0  0  0  0  0  0  0
   41.3180   22.7820   36.0110 N   0  0  0  0  0  0  0  0  0  0  0  0
   40.8910   23.8330   35.2960 C   0  0  0  0  0  0  0  0  0  0  0  0
   41.6190   24.1350   34.3540 O   0  0  0  0  0  0  0  0  0  0  0  0
   36.7400   26.8200   34.2260 C   0  0  0  0  0  0  0  0  0  0  0  0
   36.3450   27.1460   30.6820 C   0  0  0  0  0  0  0  0  0  0  0  0
   36.4740   26.4720   31.9330 C   0  0  0  0  0  0  0  0  0  0  0  0
   36.6290   27.3540   32.9240 C   0  0  0  0  0  0  0  0  0  0  0  0
   36.6540   28.7320   32.7090 N   0  0  0  0  0  0  0  0  0  0  0  0
   36.5270   29.2800   31.5240 C   0  0  0  0  0  0  0  0  0  0  0  0
   36.3710   28.4760   30.4960 N   0  0  0  0  0  0  0  0  0  0  0  0
   36.4010   25.0580   31.8660 C   0  0  0  0  0  0  0  0  0  0  0  0
   36.7260   24.5720   30.5750 F   0  0  0  0  0  0  0  0  0  0  0  0
   35.2270   24.4010   31.8270 F   0  0  0  0  0  0  0  0  0  0  0  0
   37.4260   24.3100   32.4400 F   0  0  0  0  0  0  0  0  0  0  0  0
   36.9984   27.9414   35.9806 H   0  0  0  0  0  0  0  0  0  0  0  0
   37.9565   28.4994   34.5791 H   0  0  0  0  0  0  0  0  0  0  0  0
   38.3768   26.7214   36.6017 H   0  0  0  0  0  0  0  0  0  0  0  0
   40.0884   27.6716   34.0349 H   0  0  0  0  0  0  0  0  0  0  0  0
   41.0472   27.3101   35.1961 H   0  0  0  0  0  0  0  0  0  0  0  0
   39.0047   25.0533   33.9179 H   0  0  0  0  0  0  0  0  0  0  0  0
   38.1633   24.5545   36.9171 H   0  0  0  0  0  0  0  0  0  0  0  0
   38.8740   22.6436   38.2702 H   0  0  0  0  0  0  0  0  0  0  0  0
   41.8757   20.6851   37.6887 H   0  0  0  0  0  0  0  0  0  0  0  0
   40.4202   20.9375   38.6889 H   0  0  0  0  0  0  0  0  0  0  0  0
   37.1671   25.8090   34.1522 H   0  0  0  0  0  0  0  0  0  0  0  0
   35.7296   26.8159   34.6608 H   0  0  0  0  0  0  0  0  0  0  0  0
   36.2121   26.5190   29.7880 H   0  0  0  0  0  0  0  0  0  0  0  0
   36.5502   30.3722   31.3954 H   0  0  0  0  0  0  0  0  0  0  0  0
  1  2  1  0
  3  2  1  0
  4  3  1  0
  4  2  1  0
  4  5  1  0
  5  6  1  0
  6  7  2  0
  8  7  1  0
  8  9  1  0
 10  8  2  0
 11  5  1  0
 11 10  1  0
 12 11  2  0
 13  1  1  0
 14 15  2  0
 15 16  1  0
 16 13  1  0
 17 16  2  0
 18 17  1  0
 19 14  1  0
 19 18  2  0
 20 15  1  0
 20 23  1  0
 21 20  1  0
 22 20  1  0
  1 24  1  0
  1 25  1  0
  2 26  1  1
  3 27  1  0
  3 28  1  0
  4 29  1  6
  6 30  1  0
  7 31  1  0
  9 32  1  0
  9 33  1  0
 13 34  1  0
 13 35  1  0
 14 36  1  0
 18 37  1  0
M  ISO  8  24   8  25   8  26  13  27  13  28  13  29  13  30  14  31  14
M  ISO  4  34   8  35   8  36  14  37  14
M  END
>  <minimizedAffinity>  (1) 
-5.50003767

>  <minimizedRMSD>  (1) 
6.86727715

$$$$
