
     RDKit          3D

 31 33  0  0  0  0  0  0  0  0999 V2000
   39.8690   22.7610   37.4150 C   0  0  0  0  0  0  0  0  0  0  0  0
   39.1050   23.2510   38.4970 C   0  0  0  0  0  0  0  0  0  0  0  0
   37.7010   23.3020   38.3110 C   0  0  0  0  0  0  0  0  0  0  0  0
   37.1860   22.8880   37.1300 N   0  0  0  0  0  0  0  0  0  0  0  0
   37.9760   22.4220   36.1150 C   0  0  0  0  0  0  0  0  0  0  0  0
   39.3080   22.3590   36.2540 N   0  0  0  0  0  0  0  0  0  0  0  0
   37.4260   21.9880   34.8740 N   0  0  0  0  0  0  0  0  0  0  0  0
   38.1070   22.3920   33.7540 C   0  0  0  0  0  0  0  0  0  0  0  0
   37.5960   21.9870   32.5310 C   0  0  0  0  0  0  0  0  0  0  0  0
   36.4340   21.2010   32.5110 C   0  0  0  0  0  0  0  0  0  0  0  0
   35.9750   20.8360   31.3880 O   0  0  0  0  0  0  0  0  0  0  0  0
   35.8250   20.8460   33.6490 N   0  0  0  0  0  0  0  0  0  0  0  0
   36.3230   21.2430   34.8480 C   0  0  0  0  0  0  0  0  0  0  0  0
   35.8070   20.9480   35.9360 O   0  0  0  0  0  0  0  0  0  0  0  0
   38.2140   22.3420   31.3000 N   0  0  0  0  0  0  0  0  0  0  0  0
   39.0820   21.4460   30.7950 C   0  0  0  0  0  0  0  0  0  0  0  0
   39.7030   21.7540   29.6010 C   0  0  0  0  0  0  0  0  0  0  0  0
   39.3710   22.9650   29.0300 C   0  0  0  0  0  0  0  0  0  0  0  0
   39.9200   23.4230   27.8100 N   0  0  0  0  0  0  0  0  0  0  0  0
   38.4840   23.8480   29.5730 N   0  0  0  0  0  0  0  0  0  0  0  0
   37.8880   23.5220   30.7470 C   0  0  0  0  0  0  0  0  0  0  0  0
   37.0610   24.2800   31.3100 O   0  0  0  0  0  0  0  0  0  0  0  0
   40.9623   22.7046   37.5218 H   0  0  0  0  0  0  0  0  0  0  0  0
   39.5758   23.5765   39.4364 H   0  0  0  0  0  0  0  0  0  0  0  0
   37.0425   23.6710   39.1112 H   0  0  0  0  0  0  0  0  0  0  0  0
   39.0156   23.0082   33.8232 H   0  0  0  0  0  0  0  0  0  0  0  0
   34.9732   20.2680   33.6148 H   0  0  0  0  0  0  0  0  0  0  0  0
   39.2897   20.4998   31.3162 H   0  0  0  0  0  0  0  0  0  0  0  0
   40.4243   21.0700   29.1300 H   0  0  0  0  0  0  0  0  0  0  0  0
   40.6037   22.8430   27.3030 H   0  0  0  0  0  0  0  0  0  0  0  0
   39.6362   24.3366   27.4284 H   0  0  0  0  0  0  0  0  0  0  0  0
  1  2  2  0
  3  2  1  0
  4  3  2  0
  5  6  2  0
  5  4  1  0
  6  1  1  0
  7  5  1  0
  8  7  1  0
  9  8  2  0
 10  9  1  0
 10 12  1  0
 11 10  2  0
 12 13  1  0
 13  7  1  0
 13 14  2  0
 15  9  1  0
 16 15  1  0
 17 16  2  0
 18 20  2  0
 18 17  1  0
 19 18  1  0
 20 21  1  0
 21 15  1  0
 21 22  2  0
  1 23  1  0
  2 24  1  0
  3 25  1  0
  8 26  1  0
 12 27  1  0
 16 28  1  0
 17 29  1  0
 19 30  1  0
 19 31  1  0
M  ISO  7  23  14  24  14  25  14  26  14  27   9  28  14  29  14
M  END
>  <minimizedAffinity>  (1) 
-5.18489742

>  <minimizedRMSD>  (1) 
1.56853747

$$$$
