
     RDKit          3D

 34 37  0  0  0  0  0  0  0  0999 V2000
   37.8724   23.6977   33.5024 C   0  0  0  0  0  0  0  0  0  0  0  0
   37.4686   22.6625   32.6644 C   0  0  0  0  0  0  0  0  0  0  0  0
   37.4813   21.5648   33.4875 N   0  0  0  0  0  0  0  0  0  0  0  0
   37.8649   21.9676   34.6928 C   0  0  0  0  0  0  0  0  0  0  0  0
   38.1110   23.2724   34.7306 N   0  0  0  0  0  0  0  0  0  0  0  0
   38.0212   25.0824   33.0776 C   0  0  0  0  0  0  0  0  0  0  0  0
   39.3027   25.5860   32.7731 C   0  0  0  0  0  0  0  0  0  0  0  0
   39.3896   26.9348   32.3599 C   0  0  0  0  0  0  0  0  0  0  0  0
   38.2377   27.6526   32.2843 N   0  0  0  0  0  0  0  0  0  0  0  0
   37.0272   27.1250   32.5878 C   0  0  0  0  0  0  0  0  0  0  0  0
   36.9090   25.8469   32.9835 N   0  0  0  0  0  0  0  0  0  0  0  0
   38.5291   23.9464   35.9000 C   0  0  1  0  0  0  0  0  0  0  0  0
   38.0766   25.2309   36.3642 C   0  0  0  0  0  0  0  0  0  0  0  0
   37.5592   23.9207   37.0302 C   0  0  2  0  0  0  0  0  0  0  0  0
   38.1273   23.7635   38.4266 C   0  0  0  0  0  0  0  0  0  0  0  0
   37.5157   22.7022   39.0651 F   0  0  0  0  0  0  0  0  0  0  0  0
   39.5145   23.3426   38.3048 F   0  0  0  0  0  0  0  0  0  0  0  0
   38.1391   24.8992   39.1422 F   0  0  0  0  0  0  0  0  0  0  0  0
   37.2196   22.7959   31.6038 H   0  0  0  0  0  0  0  0  0  0  0  0
   37.9258   21.1987   35.4690 H   0  0  0  0  0  0  0  0  0  0  0  0
   40.1477   24.9301   32.8672 H   0  0  0  0  0  0  0  0  0  0  0  0
   40.3608   27.3300   32.1249 H   0  0  0  0  0  0  0  0  0  0  0  0
   36.2185   27.8276   32.4755 H   0  0  0  0  0  0  0  0  0  0  0  0
   39.6099   23.6910   36.1777 H   0  0  0  0  0  0  0  0  0  0  0  0
   38.6855   25.8733   37.0158 H   0  0  0  0  0  0  0  0  0  0  0  0
   37.3194   25.7738   35.7936 H   0  0  0  0  0  0  0  0  0  0  0  0
   36.0879   23.9789   36.9487 N   0  0  0  0  0  0  0  0  0  0  0  0
   35.6072   23.5887   35.7426 C   0  0  0  0  0  0  0  0  0  0  0  0
   34.2176   23.7035   35.8383 C   0  0  0  0  0  0  0  0  0  0  0  0
   33.9462   24.1476   37.0723 N   0  0  0  0  0  0  0  0  0  0  0  0
   35.0708   24.3216   37.7642 C   0  0  0  0  0  0  0  0  0  0  0  0
   36.0123   23.2417   34.8112 H   0  0  0  0  0  0  0  0  0  0  0  0
   33.4432   23.4912   35.0949 H   0  0  0  0  0  0  0  0  0  0  0  0
   35.3374   24.6512   38.7595 H   0  0  0  0  0  0  0  0  0  0  0  0
  1  5  1  0
  2  3  1  0
  2  1  2  0
  3  4  2  0
  4  5  1  0
  5 12  1  0
  6  1  1  0
  7  6  2  0
  8  7  1  0
  9  8  2  0
  9 10  1  0
 10 11  2  0
 11  6  1  0
 12 13  1  0
 12 14  1  0
 13 14  1  0
 14 15  1  1
 15 16  1  0
 15 18  1  0
 17 15  1  0
  2 19  1  0
  4 20  1  0
  7 21  1  0
  8 22  1  0
 10 23  1  0
 12 24  1  1
 13 25  1  0
 13 26  1  0
 27 28  1  0
 28 29  2  0
 29 30  1  0
 30 31  2  0
 31 27  1  0
 28 32  1  0
 29 33  1  0
 31 34  1  0
 14 27  1  0
M  ISO  8  19  14  20  14  21  14  22  14  23  14  24  13  25  13  26  13
M  END
>  <DihAtoms>  (1) 
11,13,26,27

>  <DihDeg>  (1) 
97.2348969858949

$$$$
