
     RDKit          3D

 51 54  0  0  0  0  0  0  0  0999 V2000
   37.8060   26.6110   31.3510 N   0  0  0  0  0  0  0  0  0  0  0  0
   36.5750   27.1440   31.0670 C   0  0  0  0  0  0  0  0  0  0  0  0
   36.7940   28.1500   30.1230 C   0  0  0  0  0  0  0  0  0  0  0  0
   38.1070   28.2050   29.8640 N   0  0  0  0  0  0  0  0  0  0  0  0
   38.7470   27.2630   30.6120 C   0  0  0  0  0  0  0  0  0  0  0  0
   38.7590   24.2970   33.8950 N   0  0  0  0  0  0  0  0  0  0  0  0
   38.8770   23.5860   32.7760 N   0  0  0  0  0  0  0  0  0  0  0  0
   38.5500   24.3290   31.7170 C   0  0  0  0  0  0  0  0  0  0  0  0
   38.2060   25.5820   32.2170 C   0  0  0  0  0  0  0  0  0  0  0  0
   38.3390   25.5650   33.6020 C   0  0  0  0  0  0  0  0  0  0  0  0
   37.9650   23.6300   36.0900 C   0  0  0  0  0  0  0  0  0  0  0  0
   39.0290   23.8120   35.1990 C   0  0  0  0  0  0  0  0  0  0  0  0
   40.3200   23.5210   35.5870 C   0  0  0  0  0  0  0  0  0  0  0  0
   40.4880   23.0580   36.8620 N   0  0  0  0  0  0  0  0  0  0  0  0
   39.4730   22.8830   37.7150 C   0  0  0  0  0  0  0  0  0  0  0  0
   38.1940   23.1710   37.3270 N   0  0  0  0  0  0  0  0  0  0  0  0
   38.0800   26.6520   34.4460 N   0  0  0  0  0  0  0  0  0  0  0  0
   39.0280   27.1290   35.4020 C   0  0  0  0  0  0  0  0  0  0  0  0
   40.2950   27.0900   35.0080 N   0  0  0  0  0  0  0  0  0  0  0  0
   38.5480   27.5920   36.6580 N   0  0  0  0  0  0  0  0  0  0  0  0
   40.9680   27.4640   35.7120 H   0  0  0  0  0  0  0  0  0  0  0  0
   40.2300   27.1780   30.4540 C   0  0  0  0  0  0  0  0  0  0  0  0
   40.6160   26.0420   29.5110 C   0  0  0  0  0  0  0  0  0  0  0  0
   40.9990   26.9790   31.7040 C   0  0  0  0  0  0  0  0  0  0  0  0
   40.6340   28.4490   29.7100 C   0  0  0  0  0  0  0  0  0  0  0  0
   42.0510   28.7910   29.8300 C   0  0  0  0  0  0  0  0  0  0  0  0
   42.8020   28.5320   28.6750 C   0  0  0  0  0  0  0  0  0  0  0  0
   44.1540   28.7820   28.5720 C   0  0  0  0  0  0  0  0  0  0  0  0
   44.7620   29.3090   29.6750 N   0  0  0  0  0  0  0  0  0  0  0  0
   44.0380   29.5560   30.7830 C   0  0  0  0  0  0  0  0  0  0  0  0
   42.7190   29.3100   30.8750 N   0  0  0  0  0  0  0  0  0  0  0  0
   35.6089   26.8403   31.4964 H   0  0  0  0  0  0  0  0  0  0  0  0
   36.0207   28.7878   29.6699 H   0  0  0  0  0  0  0  0  0  0  0  0
   38.5518   24.0152   30.6627 H   0  0  0  0  0  0  0  0  0  0  0  0
   36.9380   23.8646   35.7733 H   0  0  0  0  0  0  0  0  0  0  0  0
   41.1721   23.6548   34.9044 H   0  0  0  0  0  0  0  0  0  0  0  0
   39.6674   22.5068   38.7302 H   0  0  0  0  0  0  0  0  0  0  0  0
   37.1688   27.1269   34.3745 H   0  0  0  0  0  0  0  0  0  0  0  0
   39.2102   27.9412   37.3654 H   0  0  0  0  0  0  0  0  0  0  0  0
   37.5382   27.5781   36.8603 H   0  0  0  0  0  0  0  0  0  0  0  0
   40.9149   25.1623   30.0998 H   0  0  0  0  0  0  0  0  0  0  0  0
   39.7553   25.7835   28.8767 H   0  0  0  0  0  0  0  0  0  0  0  0
   41.4561   26.3614   28.8767 H   0  0  0  0  0  0  0  0  0  0  0  0
   40.3420   27.1490   32.5697 H   0  0  0  0  0  0  0  0  0  0  0  0
   41.3881   25.9506   31.7354 H   0  0  0  0  0  0  0  0  0  0  0  0
   41.8381   27.6896   31.7354 H   0  0  0  0  0  0  0  0  0  0  0  0
   40.0424   29.2855   30.1104 H   0  0  0  0  0  0  0  0  0  0  0  0
   40.4436   28.2637   28.6426 H   0  0  0  0  0  0  0  0  0  0  0  0
   42.2842   28.1059   27.8030 H   0  0  0  0  0  0  0  0  0  0  0  0
   44.7135   28.5680   27.6494 H   0  0  0  0  0  0  0  0  0  0  0  0
   44.5517   29.9808   31.6580 H   0  0  0  0  0  0  0  0  0  0  0  0
  1  9  1  0
  2  1  1  0
  3  2  2  0
  4  3  1  0
  4  5  2  0
  5  1  1  0
  6 12  1  0
  7  6  1  0
  8  9  1  0
  8  7  2  0
  9 10  2  0
 10  6  1  0
 10 17  1  0
 11 16  2  0
 12 13  2  0
 12 11  1  0
 13 14  1  0
 14 15  2  0
 16 15  1  0
 17 18  1  0
 18 20  1  0
 19 18  2  0
 19 21  1  0
 22  5  1  0
 22 24  1  0
 23 22  1  0
 25 26  1  0
 25 22  1  0
 26 31  1  0
 27 26  2  0
 28 27  1  0
 28 29  2  0
 29 30  1  0
 30 31  2  0
  2 32  1  0
  3 33  1  0
  8 34  1  0
 11 35  1  0
 13 36  1  0
 15 37  1  0
 17 38  1  0
 20 39  1  0
 20 40  1  0
 23 41  1  0
 23 42  1  0
 23 43  1  0
 24 44  1  0
 24 45  1  0
 24 46  1  0
 25 47  1  0
 25 48  1  0
 27 49  1  0
 28 50  1  0
 30 51  1  0
M  ISO  8  32  14  33  14  34  14  35  14  36  14  37  14  41   8  42   8
M  ISO  8  43   8  44   8  45   8  46   8  47   8  48   8  49  14  50  14
M  ISO  1  51  14
M  END
>  <minimizedAffinity>  (1) 
-4.87381411

>  <minimizedRMSD>  (1) 
0.598954737

$$$$
