
     RDKit          3D

 37 40  0  0  0  0  0  0  0  0999 V2000
   38.0193   23.4654   34.6263 C   0  0  0  0  0  0  0  0  0  0  0  0
   38.2583   24.5738   33.8059 C   0  0  0  0  0  0  0  0  0  0  0  0
   37.7665   24.1689   32.5873 N   0  0  0  0  0  0  0  0  0  0  0  0
   37.2963   22.9480   32.7136 C   0  0  0  0  0  0  0  0  0  0  0  0
   37.4351   22.4818   33.9599 N   0  0  0  0  0  0  0  0  0  0  0  0
   38.3776   23.4021   36.0438 C   0  0  0  0  0  0  0  0  0  0  0  0
   39.5919   22.7930   36.4147 C   0  0  0  0  0  0  0  0  0  0  0  0
   39.9044   22.7510   37.7895 C   0  0  0  0  0  0  0  0  0  0  0  0
   39.0180   23.2978   38.6561 N   0  0  0  0  0  0  0  0  0  0  0  0
   37.8555   23.8765   38.2523 C   0  0  0  0  0  0  0  0  0  0  0  0
   37.5341   23.9291   36.9446 N   0  0  0  0  0  0  0  0  0  0  0  0
   36.9992   21.1872   34.3739 C   0  0  1  0  0  0  0  0  0  0  0  0
   35.8390   20.9745   35.2533 C   0  0  0  0  0  0  0  0  0  0  0  0
   35.6797   20.7559   33.7826 C   0  0  1  0  0  0  0  0  0  0  0  0
   38.7169   25.5256   34.0522 H   0  0  0  0  0  0  0  0  0  0  0  0
   36.8868   22.5447   31.7937 H   0  0  0  0  0  0  0  0  0  0  0  0
   40.2521   22.3766   35.6675 H   0  0  0  0  0  0  0  0  0  0  0  0
   40.8259   22.2923   38.1105 H   0  0  0  0  0  0  0  0  0  0  0  0
   37.2462   24.2707   39.0521 H   0  0  0  0  0  0  0  0  0  0  0  0
   37.7866   20.4069   34.3632 H   0  0  0  0  0  0  0  0  0  0  0  0
   35.8639   20.0921   35.9382 H   0  0  0  0  0  0  0  0  0  0  0  0
   35.5274   21.8900   35.7820 H   0  0  0  0  0  0  0  0  0  0  0  0
   35.5629   19.6561   33.5380 H   0  0  0  0  0  0  0  0  0  0  0  0
   34.8031   21.5762   33.0441 N   0  0  0  0  0  0  0  0  0  0  0  0
   33.9030   20.9600   32.2045 C   0  0  0  0  0  0  0  0  0  0  0  0
   32.9566   21.5413   31.3906 C   0  0  0  0  0  0  0  0  0  0  0  0
   32.0589   20.7506   30.5434 C   0  0  0  0  0  0  0  0  0  0  0  0
   32.8991   22.9165   31.4162 C   0  0  0  0  0  0  0  0  0  0  0  0
   32.0797   23.5643   30.7197 O   0  0  0  0  0  0  0  0  0  0  0  0
   33.7516   23.5693   32.2153 N   0  0  0  0  0  0  0  0  0  0  0  0
   34.6404   22.9090   32.9733 C   0  0  0  0  0  0  0  0  0  0  0  0
   35.3968   23.6093   33.6891 O   0  0  0  0  0  0  0  0  0  0  0  0
   33.9164   19.8575   32.1546 H   0  0  0  0  0  0  0  0  0  0  0  0
   31.9071   21.2029   29.5416 H   0  0  0  0  0  0  0  0  0  0  0  0
   32.3947   19.7106   30.4311 H   0  0  0  0  0  0  0  0  0  0  0  0
   31.0533   20.7148   31.0390 H   0  0  0  0  0  0  0  0  0  0  0  0
   33.7172   24.6107   32.2430 H   0  0  0  0  0  0  0  0  0  0  0  0
  1  6  1  0
  2  1  2  0
  3  4  2  0
  3  2  1  0
  4  5  1  0
  5 12  1  0
  5  1  1  0
  6  7  2  0
  6 11  1  0
  7  8  1  0
  8  9  2  0
 10  9  1  0
 11 10  2  0
 12 13  1  0
 14 12  1  0
 14 13  1  0
  2 15  1  0
  4 16  1  0
  7 17  1  0
  8 18  1  0
 10 19  1  0
 12 20  1  1
 13 21  1  0
 13 22  1  0
 14 23  1  1
 24 25  1  0
 25 26  2  0
 26 27  1  0
 26 28  1  0
 28 29  2  0
 28 30  1  0
 30 31  1  0
 31 32  2  0
 31 24  1  0
 25 33  1  0
 27 34  1  0
 27 35  1  0
 27 36  1  0
 30 37  1  0
 14 24  1  0
M  ISO  8  15  14  16  14  17  14  18  14  19  14  20  13  21  13  22  13
M  ISO  1  23  13
M  END
>  <DihAtoms>  (1) 
11,13,23,24

>  <DihDeg>  (1) 
128.13575861841247

$$$$
