
     RDKit          3D

 42 44  0  0  1  0  0  0  0  0999 V2000
   39.2980   24.7750   34.9050 N   0  0  0  0  0  0  0  0  0  0  0  0
   40.0470   25.9360   34.4740 C   0  0  1  0  0  0  0  0  0  0  0  0
   39.3050   27.2180   34.8650 C   0  0  0  0  0  0  0  0  0  0  0  0
   38.0030   26.8840   35.2300 O   0  0  0  0  0  0  0  0  0  0  0  0
   37.4030   26.1210   34.2260 C   0  0  0  0  0  0  0  0  0  0  0  0
   38.0060   24.7270   34.2830 C   0  0  0  0  0  0  0  0  0  0  0  0
   39.8670   22.5880   37.8910 C   0  0  0  0  0  0  0  0  0  0  0  0
   39.2760   23.5630   37.0760 C   0  0  0  0  0  0  0  0  0  0  0  0
   39.7800   23.8340   35.8180 C   0  0  0  0  0  0  0  0  0  0  0  0
   40.8380   23.1010   35.4830 N   0  0  0  0  0  0  0  0  0  0  0  0
   41.4380   22.1800   36.1930 C   0  0  0  0  0  0  0  0  0  0  0  0
   40.9330   21.9120   37.4450 N   0  0  0  0  0  0  0  0  0  0  0  0
   42.5770   21.4470   35.7410 N   0  0  0  0  0  0  0  0  0  0  0  0
   42.9840   20.5010   36.6170 C   0  0  0  0  0  0  0  0  0  0  0  0
   44.0610   19.6890   36.3700 C   0  0  0  0  0  0  0  0  0  0  0  0
   44.5360   18.6420   37.3080 C   0  0  0  0  0  0  0  0  0  0  0  0
   44.7300   19.8810   35.1580 C   0  0  0  0  0  0  0  0  0  0  0  0
   45.7370   19.1810   34.8360 O   0  0  0  0  0  0  0  0  0  0  0  0
   44.3040   20.8230   34.3120 N   0  0  0  0  0  0  0  0  0  0  0  0
   43.2450   21.6110   34.5710 C   0  0  0  0  0  0  0  0  0  0  0  0
   42.7800   22.5180   33.8330 O   0  0  0  0  0  0  0  0  0  0  0  0
   41.2620   25.9850   35.2390 N   0  0  0  0  0  0  0  0  0  0  0  0
   42.5040   25.9510   34.5350 C   0  0  0  0  0  0  0  0  0  0  0  0
   42.4070   26.1200   33.2430 N   0  0  0  0  0  0  0  0  0  0  0  0
   43.6570   25.7650   35.0600 O   0  0  0  0  0  0  0  0  0  0  0  0
   40.2033   25.8672   33.3873 H   0  0  0  0  0  0  0  0  0  0  0  0
   39.8159   27.6981   35.7126 H   0  0  0  0  0  0  0  0  0  0  0  0
   39.2897   27.9172   34.0160 H   0  0  0  0  0  0  0  0  0  0  0  0
   37.5992   26.5742   33.2431 H   0  0  0  0  0  0  0  0  0  0  0  0
   36.3140   26.0763   34.3746 H   0  0  0  0  0  0  0  0  0  0  0  0
   37.3456   24.0682   34.8660 H   0  0  0  0  0  0  0  0  0  0  0  0
   38.1128   24.3382   33.2595 H   0  0  0  0  0  0  0  0  0  0  0  0
   39.4577   22.3796   38.8905 H   0  0  0  0  0  0  0  0  0  0  0  0
   38.4004   24.1193   37.4420 H   0  0  0  0  0  0  0  0  0  0  0  0
   42.4320   20.3785   37.5606 H   0  0  0  0  0  0  0  0  0  0  0  0
   44.3825   18.9803   38.3434 H   0  0  0  0  0  0  0  0  0  0  0  0
   43.9709   17.7137   37.1380 H   0  0  0  0  0  0  0  0  0  0  0  0
   45.6067   18.4558   37.1380 H   0  0  0  0  0  0  0  0  0  0  0  0
   44.8082   20.9515   33.4231 H   0  0  0  0  0  0  0  0  0  0  0  0
   41.2380   26.0431   36.2671 H   0  0  0  0  0  0  0  0  0  0  0  0
   41.4841   26.2703   32.8111 H   0  0  0  0  0  0  0  0  0  0  0  0
   43.2535   26.1029   32.6564 H   0  0  0  0  0  0  0  0  0  0  0  0
  1  9  1  0
  2  3  1  0
  2  1  1  0
  2 22  1  0
  3  4  1  0
  5  6  1  0
  5  4  1  0
  6  1  1  0
  8  7  2  0
  9  8  1  0
 10  9  2  0
 10 11  1  0
 11 12  2  0
 12  7  1  0
 13 11  1  0
 13 14  1  0
 15 14  2  0
 15 16  1  0
 17 15  1  0
 18 17  2  0
 19 20  1  0
 19 17  1  0
 20 13  1  0
 21 20  2  0
 23 25  2  0
 23 22  1  0
 24 23  1  0
  2 26  1  6
  3 27  1  0
  3 28  1  0
  5 29  1  0
  5 30  1  0
  6 31  1  0
  6 32  1  0
  7 33  1  0
  8 34  1  0
 14 35  1  0
 16 36  1  0
 16 37  1  0
 16 38  1  0
 19 39  1  0
 22 40  1  0
 24 41  1  0
 24 42  1  0
M  ISO  8  26  13  27  13  28  13  29  13  30  13  31  13  32  13  33  14
M  ISO  6  34  14  35  14  36   8  37   8  38   8  39   9
M  END
>  <minimizedAffinity>  (1) 
-4.42552948

>  <minimizedRMSD>  (1) 
2.40623474

$$$$
