
     RDKit          3D

 17 18  0  0  0  0  0  0  0  0999 V2000
   40.0150   22.6250   37.5110 C   0  0  0  0  0  0  0  0  0  0  0  0
   39.1810   23.2840   38.4470 C   0  0  0  0  0  0  0  0  0  0  0  0
   37.8360   23.5020   38.1020 C   0  0  0  0  0  0  0  0  0  0  0  0
   37.3900   23.0740   36.8910 N   0  0  0  0  0  0  0  0  0  0  0  0
   38.2140   22.4480   36.0210 C   0  0  0  0  0  0  0  0  0  0  0  0
   39.5020   22.2350   36.3420 N   0  0  0  0  0  0  0  0  0  0  0  0
   37.7920   21.9830   34.7440 N   0  0  0  0  0  0  0  0  0  0  0  0
   38.2570   21.9760   33.4650 C   0  0  0  0  0  0  0  0  0  0  0  0
   37.3640   21.3640   32.6860 N   0  0  0  0  0  0  0  0  0  0  0  0
   36.3240   20.9780   33.4740 C   0  0  0  0  0  0  0  0  0  0  0  0
   36.6180   21.3670   34.7010 N   0  0  0  0  0  0  0  0  0  0  0  0
   35.1580   20.2970   33.0720 O   0  0  0  0  0  0  0  0  0  0  0  0
   41.0733   22.4367   37.7447 H   0  0  0  0  0  0  0  0  0  0  0  0
   39.5755   23.6165   39.4185 H   0  0  0  0  0  0  0  0  0  0  0  0
   37.1552   24.0107   38.8004 H   0  0  0  0  0  0  0  0  0  0  0  0
   39.2126   22.4048   33.1288 H   0  0  0  0  0  0  0  0  0  0  0  0
   34.4641   20.0669   33.7396 H   0  0  0  0  0  0  0  0  0  0  0  0
  1  2  2  0
  3  2  1  0
  4  3  2  0
  5  6  2  0
  5  4  1  0
  6  1  1  0
  7  5  1  0
  8  7  1  0
  9  8  2  0
  9 10  1  0
 10 11  2  0
 11  7  1  0
 12 10  1  0
  1 13  1  0
  2 14  1  0
  3 15  1  0
  8 16  1  0
 12 17  1  0
M  ISO  5  13  14  14  14  15  14  16  14  17   3
M  END
>  <minimizedAffinity>  (1) 
-3.82735729

>  <minimizedRMSD>  (1) 
0.705400348

$$$$
