
     RDKit          3D

 43 46  0  0  0  0  0  0  0  0999 V2000
   37.8240   27.4000   35.1120 C   0  0  0  0  0  0  0  0  0  0  0  0
   38.9990   26.5450   35.0750 C   0  0  0  0  0  0  0  0  0  0  0  0
   40.1710   26.9840   34.4640 C   0  0  0  0  0  0  0  0  0  0  0  0
   41.2890   26.1920   34.4320 C   0  0  0  0  0  0  0  0  0  0  0  0
   41.2960   24.9190   35.0100 C   0  0  0  0  0  0  0  0  0  0  0  0
   40.1240   24.4800   35.6210 C   0  0  0  0  0  0  0  0  0  0  0  0
   40.1100   23.2290   36.1940 C   0  0  0  0  0  0  0  0  0  0  0  0
   38.9740   22.7480   36.8120 C   0  0  0  0  0  0  0  0  0  0  0  0
   37.8330   23.5470   36.8470 C   0  0  0  0  0  0  0  0  0  0  0  0
   37.8850   24.8070   36.2550 C   0  0  0  0  0  0  0  0  0  0  0  0
   39.0020   25.3150   35.6320 C   0  0  0  0  0  0  0  0  0  0  0  0
   36.0590   28.7450   32.1920 C   0  0  0  0  0  0  0  0  0  0  0  0
   35.6740   27.6350   31.4720 C   0  0  0  0  0  0  0  0  0  0  0  0
   36.0230   26.3650   31.9960 C   0  0  0  0  0  0  0  0  0  0  0  0
   36.7140   26.3070   33.1720 N   0  0  0  0  0  0  0  0  0  0  0  0
   37.0580   27.4130   33.8180 C   0  0  0  0  0  0  0  0  0  0  0  0
   36.7360   28.6280   33.3370 N   0  0  0  0  0  0  0  0  0  0  0  0
   35.6480   25.1560   31.2940 C   0  0  0  0  0  0  0  0  0  0  0  0
   34.6850   25.1960   30.4820 O   0  0  0  0  0  0  0  0  0  0  0  0
   36.2690   23.8820   31.4230 N   0  0  0  0  0  0  0  0  0  0  0  0
   37.6800   23.7730   31.7520 C   0  0  0  0  0  0  0  0  0  0  0  0
   37.5940   22.7710   32.9110 C   0  0  0  0  0  0  0  0  0  0  0  0
   36.3940   21.8980   32.5590 C   0  0  0  0  0  0  0  0  0  0  0  0
   35.7980   22.5140   31.2970 C   0  0  0  0  0  0  0  0  0  0  0  0
   37.1564   27.0419   35.9095 H   0  0  0  0  0  0  0  0  0  0  0  0
   38.1734   28.4269   35.2946 H   0  0  0  0  0  0  0  0  0  0  0  0
   40.1998   27.9811   34.0003 H   0  0  0  0  0  0  0  0  0  0  0  0
   42.1998   26.5657   33.9413 H   0  0  0  0  0  0  0  0  0  0  0  0
   42.1955   24.2864   34.9831 H   0  0  0  0  0  0  0  0  0  0  0  0
   41.0152   22.6050   36.1589 H   0  0  0  0  0  0  0  0  0  0  0  0
   38.9692   21.7481   37.2705 H   0  0  0  0  0  0  0  0  0  0  0  0
   36.9118   23.1908   37.3312 H   0  0  0  0  0  0  0  0  0  0  0  0
   36.9806   25.4323   36.2874 H   0  0  0  0  0  0  0  0  0  0  0  0
   35.8037   29.7468   31.8163 H   0  0  0  0  0  0  0  0  0  0  0  0
   35.1178   27.7307   30.5278 H   0  0  0  0  0  0  0  0  0  0  0  0
   38.2680   23.3776   30.9107 H   0  0  0  0  0  0  0  0  0  0  0  0
   38.1794   24.7234   31.9913 H   0  0  0  0  0  0  0  0  0  0  0  0
   38.5112   22.1671   32.9741 H   0  0  0  0  0  0  0  0  0  0  0  0
   37.4855   23.2639   33.8884 H   0  0  0  0  0  0  0  0  0  0  0  0
   36.7144   20.8633   32.3673 H   0  0  0  0  0  0  0  0  0  0  0  0
   35.6622   21.8602   33.3794 H   0  0  0  0  0  0  0  0  0  0  0  0
   34.6993   22.4609   31.2989 H   0  0  0  0  0  0  0  0  0  0  0  0
   36.0880   22.0135   30.3614 H   0  0  0  0  0  0  0  0  0  0  0  0
  2  1  1  0
  2 11  1  0
  3  2  2  0
  4  3  1  0
  4  5  2  0
  5  6  1  0
  6 11  2  0
  6  7  1  0
  7  8  2  0
  8  9  1  0
 10  9  2  0
 11 10  1  0
 12 17  2  0
 13 14  2  0
 13 12  1  0
 14 15  1  0
 15 16  2  0
 16  1  1  0
 17 16  1  0
 18 20  1  0
 18 14  1  0
 19 18  2  0
 20 21  1  0
 21 22  1  0
 23 22  1  0
 24 20  1  0
 24 23  1  0
  1 25  1  0
  1 26  1  0
  3 27  1  0
  4 28  1  0
  5 29  1  0
  7 30  1  0
  8 31  1  0
  9 32  1  0
 10 33  1  0
 12 34  1  0
 13 35  1  0
 21 36  1  0
 21 37  1  0
 22 38  1  0
 22 39  1  0
 23 40  1  0
 23 41  1  0
 24 42  1  0
 24 43  1  0
M  ISO  8  25   8  26   8  27  14  28  14  29  14  30  14  31  14  32  14
M  ISO  8  33  14  34  14  35  14  36  13  37  13  38  13  39  13  40  13
M  ISO  3  41  13  42  13  43  13
M  END
>  <minimizedAffinity>  (1) 
-6.08037329

>  <minimizedRMSD>  (1) 
1.99951982

$$$$
