
     RDKit          3D

 30 31  0  0  0  0  0  0  0  0999 V2000
   37.2360   21.9700   34.7120 C   0  0  0  0  0  0  0  0  0  0  0  0
   36.3070   20.9230   34.8780 C   0  0  0  0  0  0  0  0  0  0  0  0
   35.5390   20.6190   33.7750 C   0  0  0  0  0  0  0  0  0  0  0  0
   35.6500   21.2640   32.6050 N   0  0  0  0  0  0  0  0  0  0  0  0
   36.5660   22.2830   32.4740 C   0  0  0  0  0  0  0  0  0  0  0  0
   37.3490   22.6110   33.5580 N   0  0  0  0  0  0  0  0  0  0  0  0
   40.1530   22.3390   36.8980 C   0  0  0  0  0  0  0  0  0  0  0  0
   39.6210   23.0380   38.0270 C   0  0  0  0  0  0  0  0  0  0  0  0
   38.2670   23.3470   37.9700 C   0  0  0  0  0  0  0  0  0  0  0  0
   37.5170   22.9890   36.8840 N   0  0  0  0  0  0  0  0  0  0  0  0
   38.0700   22.3300   35.8460 C   0  0  0  0  0  0  0  0  0  0  0  0
   39.3490   22.0310   35.8850 N   0  0  0  0  0  0  0  0  0  0  0  0
   36.7160   23.0170   31.1980 C   0  0  0  0  0  0  0  0  0  0  0  0
   35.8420   24.2600   31.2410 C   0  0  0  0  0  0  0  0  0  0  0  0
   36.6070   25.3320   30.6320 N   0  0  0  0  0  0  0  0  0  0  0  0
   36.1870   26.6840   30.8020 C   0  0  0  0  0  0  0  0  0  0  0  0
   36.4770   27.6340   29.7620 N   0  0  0  0  0  0  0  0  0  0  0  0
   35.5730   27.1250   31.8010 O   0  0  0  0  0  0  0  0  0  0  0  0
   36.2015   20.3817   35.8298 H   0  0  0  0  0  0  0  0  0  0  0  0
   34.7998   19.8087   33.8585 H   0  0  0  0  0  0  0  0  0  0  0  0
   41.2164   22.0592   36.8683 H   0  0  0  0  0  0  0  0  0  0  0  0
   40.2461   23.3145   38.8888 H   0  0  0  0  0  0  0  0  0  0  0  0
   37.7947   23.8842   38.8057 H   0  0  0  0  0  0  0  0  0  0  0  0
   36.4026   22.3737   30.3626 H   0  0  0  0  0  0  0  0  0  0  0  0
   37.7679   23.3050   31.0544 H   0  0  0  0  0  0  0  0  0  0  0  0
   34.9133   24.0896   30.6766 H   0  0  0  0  0  0  0  0  0  0  0  0
   35.5644   24.5116   32.2752 H   0  0  0  0  0  0  0  0  0  0  0  0
   37.4494   25.1174   30.0795 H   0  0  0  0  0  0  0  0  0  0  0  0
   36.1826   28.6157   29.8645 H   0  0  0  0  0  0  0  0  0  0  0  0
   36.9791   27.3327   28.9146 H   0  0  0  0  0  0  0  0  0  0  0  0
  1  2  2  0
  1 11  1  0
  3  2  1  0
  4  3  2  0
  5  4  1  0
  5  6  2  0
  6  1  1  0
  7  8  2  0
  9  8  1  0
 10  9  2  0
 11 12  2  0
 11 10  1  0
 12  7  1  0
 13 14  1  0
 13  5  1  0
 15 16  1  0
 15 14  1  0
 16 18  2  0
 17 16  1  0
  2 19  1  0
  3 20  1  0
  7 21  1  0
  8 22  1  0
  9 23  1  0
 13 24  1  0
 13 25  1  0
 14 26  1  0
 14 27  1  0
 15 28  1  0
 17 29  1  0
 17 30  1  0
M  ISO  8  19  14  20  14  21  14  22  14  23  14  24   8  25   8  26   8
M  ISO  1  27   8
M  END
>  <minimizedAffinity>  (1) 
-5.01924372

>  <minimizedRMSD>  (1) 
0.766006351

$$$$
