
     RDKit          3D

 44 46  0  0  0  0  0  0  0  0999 V2000
   38.5460   24.1750   33.9320 N   0  0  0  0  0  0  0  0  0  0  0  0
   38.5750   23.4120   32.8340 N   0  0  0  0  0  0  0  0  0  0  0  0
   38.2340   24.1240   31.7560 C   0  0  0  0  0  0  0  0  0  0  0  0
   37.9840   25.3930   32.2300 C   0  0  0  0  0  0  0  0  0  0  0  0
   38.1780   25.4380   33.6000 C   0  0  0  0  0  0  0  0  0  0  0  0
   37.8180   23.6000   36.1780 C   0  0  0  0  0  0  0  0  0  0  0  0
   38.8540   23.7300   35.2400 C   0  0  0  0  0  0  0  0  0  0  0  0
   40.1510   23.4280   35.5940 C   0  0  0  0  0  0  0  0  0  0  0  0
   40.3500   23.0070   36.8780 N   0  0  0  0  0  0  0  0  0  0  0  0
   39.3680   22.8820   37.7710 C   0  0  0  0  0  0  0  0  0  0  0  0
   38.0930   23.1810   37.4180 N   0  0  0  0  0  0  0  0  0  0  0  0
   38.0090   26.5910   34.4130 N   0  0  0  0  0  0  0  0  0  0  0  0
   39.0440   27.0740   35.2760 C   0  0  0  0  0  0  0  0  0  0  0  0
   40.2750   26.9700   34.7930 N   0  0  0  0  0  0  0  0  0  0  0  0
   38.6650   27.6090   36.5400 N   0  0  0  0  0  0  0  0  0  0  0  0
   41.0110   27.3360   35.4300 H   0  0  0  0  0  0  0  0  0  0  0  0
   37.5900   26.4230   31.3310 N   0  0  0  0  0  0  0  0  0  0  0  0
   36.3840   27.0320   31.1110 C   0  0  0  0  0  0  0  0  0  0  0  0
   36.6000   27.9710   30.1080 C   0  0  0  0  0  0  0  0  0  0  0  0
   37.8860   27.9160   29.7530 N   0  0  0  0  0  0  0  0  0  0  0  0
   38.5210   26.9580   30.5030 C   0  0  0  0  0  0  0  0  0  0  0  0
   39.9580   26.7620   30.2400 C   0  0  0  0  0  0  0  0  0  0  0  0
   40.2360   25.4230   29.5390 C   0  0  0  0  0  0  0  0  0  0  0  0
   40.8530   26.7930   31.4170 C   0  0  0  0  0  0  0  0  0  0  0  0
   40.3600   27.7920   29.1770 C   0  0  0  0  0  0  0  0  0  0  0  0
   40.7340   28.9860   29.8070 O   0  0  0  0  0  0  0  0  0  0  0  0
   38.1674   23.7729   30.7157 H   0  0  0  0  0  0  0  0  0  0  0  0
   36.7832   23.8420   35.8942 H   0  0  0  0  0  0  0  0  0  0  0  0
   40.9825   23.5211   34.8799 H   0  0  0  0  0  0  0  0  0  0  0  0
   39.5912   22.5373   38.7915 H   0  0  0  0  0  0  0  0  0  0  0  0
   37.1119   27.0961   34.3803 H   0  0  0  0  0  0  0  0  0  0  0  0
   39.3846   27.9652   37.1852 H   0  0  0  0  0  0  0  0  0  0  0  0
   37.6713   27.6398   36.8091 H   0  0  0  0  0  0  0  0  0  0  0  0
   35.4344   26.8210   31.6245 H   0  0  0  0  0  0  0  0  0  0  0  0
   35.8416   28.6435   29.6806 H   0  0  0  0  0  0  0  0  0  0  0  0
   40.3985   24.6403   30.2947 H   0  0  0  0  0  0  0  0  0  0  0  0
   39.3749   25.1525   28.9103 H   0  0  0  0  0  0  0  0  0  0  0  0
   41.1336   25.5177   28.9103 H   0  0  0  0  0  0  0  0  0  0  0  0
   40.2500   26.7721   32.3368 H   0  0  0  0  0  0  0  0  0  0  0  0
   41.5184   25.9174   31.3948 H   0  0  0  0  0  0  0  0  0  0  0  0
   41.4562   27.7126   31.3948 H   0  0  0  0  0  0  0  0  0  0  0  0
   39.5077   27.9810   28.5077 H   0  0  0  0  0  0  0  0  0  0  0  0
   41.2058   27.4046   28.5900 H   0  0  0  0  0  0  0  0  0  0  0  0
   40.6966   28.8667   30.7891 H   0  0  0  0  0  0  0  0  0  0  0  0
  1  7  1  0
  2  1  1  0
  3  4  1  0
  3  2  2  0
  4  5  2  0
  5  1  1  0
  5 12  1  0
  6 11  2  0
  7  8  2  0
  7  6  1  0
  8  9  1  0
  9 10  2  0
 11 10  1  0
 12 13  1  0
 13 15  1  0
 14 13  2  0
 14 16  1  0
 17  4  1  0
 18 17  1  0
 19 18  2  0
 20 19  1  0
 20 21  2  0
 21 17  1  0
 22 21  1  0
 22 24  1  0
 23 22  1  0
 25 26  1  0
 25 22  1  0
  3 27  1  0
  6 28  1  0
  8 29  1  0
 10 30  1  0
 12 31  1  0
 15 32  1  0
 15 33  1  0
 18 34  1  0
 19 35  1  0
 23 36  1  0
 23 37  1  0
 23 38  1  0
 24 39  1  0
 24 40  1  0
 24 41  1  0
 25 42  1  0
 25 43  1  0
 26 44  1  0
M  ISO  8  27  14  28  14  29  14  30  14  34  14  35  14  36   8  37   8
M  ISO  7  38   8  39   8  40   8  41   8  42   8  43   8  44   3
M  END
>  <minimizedAffinity>  (1) 
-4.66301584

>  <minimizedRMSD>  (1) 
0.502116263

$$$$
