
     RDKit          3D

 41 45  0  0  0  0  0  0  0  0999 V2000
   37.8691   23.6995   33.5032 C   0  0  0  0  0  0  0  0  0  0  0  0
   37.4626   22.6599   32.6683 C   0  0  0  0  0  0  0  0  0  0  0  0
   37.4844   21.5636   33.4884 N   0  0  0  0  0  0  0  0  0  0  0  0
   37.8750   21.9667   34.6924 C   0  0  0  0  0  0  0  0  0  0  0  0
   38.1168   23.2727   34.7292 N   0  0  0  0  0  0  0  0  0  0  0  0
   38.0136   25.0835   33.0783 C   0  0  0  0  0  0  0  0  0  0  0  0
   39.2961   25.5835   32.7677 C   0  0  0  0  0  0  0  0  0  0  0  0
   39.3905   26.9312   32.3534 C   0  0  0  0  0  0  0  0  0  0  0  0
   38.2392   27.6510   32.2837 N   0  0  0  0  0  0  0  0  0  0  0  0
   37.0293   27.1305   32.5915 C   0  0  0  0  0  0  0  0  0  0  0  0
   36.9099   25.8516   32.9882 N   0  0  0  0  0  0  0  0  0  0  0  0
   38.5410   23.9503   35.8992 C   0  0  1  0  0  0  0  0  0  0  0  0
   38.0799   25.2303   36.3647 C   0  0  0  0  0  0  0  0  0  0  0  0
   37.5607   23.9193   37.0281 C   0  0  2  0  0  0  0  0  0  0  0  0
   38.1219   23.7640   38.4267 C   0  0  0  0  0  0  0  0  0  0  0  0
   37.5112   22.7021   39.0633 F   0  0  0  0  0  0  0  0  0  0  0  0
   39.5108   23.3414   38.3072 F   0  0  0  0  0  0  0  0  0  0  0  0
   38.1350   24.8969   39.1437 F   0  0  0  0  0  0  0  0  0  0  0  0
   37.2051   22.7889   31.6092 H   0  0  0  0  0  0  0  0  0  0  0  0
   37.9414   21.1947   35.4609 H   0  0  0  0  0  0  0  0  0  0  0  0
   40.1601   24.9538   32.8470 H   0  0  0  0  0  0  0  0  0  0  0  0
   40.3535   27.3552   32.1055 H   0  0  0  0  0  0  0  0  0  0  0  0
   36.2146   27.8314   32.4849 H   0  0  0  0  0  0  0  0  0  0  0  0
   39.6160   23.6706   36.1657 H   0  0  0  0  0  0  0  0  0  0  0  0
   38.7411   25.8549   37.0130 H   0  0  0  0  0  0  0  0  0  0  0  0
   37.3340   25.8057   35.8185 H   0  0  0  0  0  0  0  0  0  0  0  0
   36.0961   23.9708   36.9201 N   0  0  0  0  0  0  0  0  0  0  0  0
   35.4986   24.4735   35.8069 C   0  0  0  0  0  0  0  0  0  0  0  0
   34.1490   24.4029   35.9697 N   0  0  0  0  0  0  0  0  0  0  0  0
   33.9329   23.8629   37.1691 C   0  0  0  0  0  0  0  0  0  0  0  0
   32.7868   23.5483   37.8722 C   0  0  0  0  0  0  0  0  0  0  0  0
   31.6418   23.7635   37.3993 O   0  0  0  0  0  0  0  0  0  0  0  0
   32.9199   22.9979   39.0933 N   0  0  0  0  0  0  0  0  0  0  0  0
   34.1207   22.7363   39.6688 C   0  0  0  0  0  0  0  0  0  0  0  0
   34.2212   22.1516   40.9661 N   0  0  0  0  0  0  0  0  0  0  0  0
   35.2572   23.0331   39.0049 N   0  0  0  0  0  0  0  0  0  0  0  0
   35.1392   23.5837   37.7836 C   0  0  0  0  0  0  0  0  0  0  0  0
   35.8691   24.8914   34.8778 H   0  0  0  0  0  0  0  0  0  0  0  0
   32.0410   22.7532   39.6401 H   0  0  0  0  0  0  0  0  0  0  0  0
   33.5115   21.5017   41.3401 H   0  0  0  0  0  0  0  0  0  0  0  0
   35.0591   22.4017   41.5564 H   0  0  0  0  0  0  0  0  0  0  0  0
  1  5  1  0
  2  3  1  0
  2  1  2  0
  3  4  2  0
  4  5  1  0
  5 12  1  0
  6  1  1  0
  7  6  2  0
  8  7  1  0
  9  8  2  0
  9 10  1  0
 10 11  2  0
 11  6  1  0
 12 13  1  0
 12 14  1  0
 13 14  1  0
 14 15  1  1
 15 16  1  0
 15 18  1  0
 17 15  1  0
  2 19  1  0
  4 20  1  0
  7 21  1  0
  8 22  1  0
 10 23  1  0
 12 24  1  1
 13 25  1  0
 13 26  1  0
 27 28  1  0
 28 29  2  0
 29 30  1  0
 30 31  1  0
 31 32  2  0
 31 33  1  0
 33 34  1  0
 34 35  1  0
 34 36  2  0
 36 37  1  0
 37 27  1  0
 37 30  2  0
 28 38  1  0
 33 39  1  0
 35 40  1  0
 35 41  1  0
 14 27  1  0
M  ISO  8  19  14  20  14  21  14  22  14  23  14  24  13  25  13  26  13
M  END
>  <DihAtoms>  (1) 
11,13,26,27

>  <DihDeg>  (1) 
83.80101330556086

$$$$
