
     RDKit          3D

 33 35  0  0  1  0  0  0  0  0999 V2000
   39.8270   24.9110   35.2600 C   0  0  0  0  0  0  0  0  0  0  0  0
   38.5500   24.1040   35.4900 C   0  0  2  0  0  0  0  0  0  0  0  0
   37.7750   24.5820   36.7000 C   0  0  0  0  0  0  0  0  0  0  0  0
   38.3370   23.2290   36.5960 C   0  0  1  0  0  0  0  0  0  0  0  0
   37.2170   22.2730   36.2980 N   0  0  0  0  0  0  0  0  0  0  0  0
   36.2500   21.8840   37.0820 N   0  0  0  0  0  0  0  0  0  0  0  0
   35.4680   21.0190   36.4070 C   0  0  0  0  0  0  0  0  0  0  0  0
   35.9610   20.8480   35.1260 C   0  0  0  0  0  0  0  0  0  0  0  0
   37.0900   21.6760   35.0990 C   0  0  0  0  0  0  0  0  0  0  0  0
   40.8540   24.0130   34.7700 C   0  0  0  0  0  0  0  0  0  0  0  0
   43.8390   23.5920   36.6980 C   0  0  0  0  0  0  0  0  0  0  0  0
   42.5420   23.2820   36.2080 C   0  0  0  0  0  0  0  0  0  0  0  0
   42.1210   24.2210   35.3570 C   0  0  0  0  0  0  0  0  0  0  0  0
   42.8870   25.3370   35.0240 N   0  0  0  0  0  0  0  0  0  0  0  0
   44.0840   25.5560   35.5210 C   0  0  0  0  0  0  0  0  0  0  0  0
   44.5730   24.6820   36.3640 N   0  0  0  0  0  0  0  0  0  0  0  0
   41.9900   22.0740   36.7080 C   0  0  0  0  0  0  0  0  0  0  0  0
   41.1200   22.3030   37.8060 F   0  0  0  0  0  0  0  0  0  0  0  0
   42.7120   21.2120   37.4490 F   0  0  0  0  0  0  0  0  0  0  0  0
   40.9630   21.4690   36.0060 F   0  0  0  0  0  0  0  0  0  0  0  0
   39.6388   25.7005   34.5175 H   0  0  0  0  0  0  0  0  0  0  0  0
   40.1523   25.3798   36.2005 H   0  0  0  0  0  0  0  0  0  0  0  0
   38.4178   23.9297   34.4120 H   0  0  0  0  0  0  0  0  0  0  0  0
   38.2151   25.3174   37.3896 H   0  0  0  0  0  0  0  0  0  0  0  0
   36.7823   25.0178   36.8863 H   0  0  0  0  0  0  0  0  0  0  0  0
   39.0072   22.6138   37.2143 H   0  0  0  0  0  0  0  0  0  0  0  0
   34.5735   20.5240   36.8129 H   0  0  0  0  0  0  0  0  0  0  0  0
   35.5617   20.2134   34.3211 H   0  0  0  0  0  0  0  0  0  0  0  0
   37.7621   21.8153   34.2394 H   0  0  0  0  0  0  0  0  0  0  0  0
   40.5401   22.9798   34.9799 H   0  0  0  0  0  0  0  0  0  0  0  0
   40.9639   24.2095   33.6933 H   0  0  0  0  0  0  0  0  0  0  0  0
   44.2875   22.8851   37.4116 H   0  0  0  0  0  0  0  0  0  0  0  0
   44.6592   26.4494   35.2363 H   0  0  0  0  0  0  0  0  0  0  0  0
  1  2  1  0
  2  4  1  0
  2  3  1  0
  4  3  1  0
  5  4  1  0
  5  6  1  0
  7  6  2  0
  8  7  1  0
  9  8  2  0
  9  5  1  0
 10  1  1  0
 10 13  1  0
 12 11  2  0
 12 17  1  0
 13 12  1  0
 14 13  2  0
 14 15  1  0
 15 16  2  0
 16 11  1  0
 17 19  1  0
 17 18  1  0
 20 17  1  0
  1 21  1  0
  1 22  1  0
  2 23  1  6
  3 24  1  0
  3 25  1  0
  4 26  1  1
  7 27  1  0
  8 28  1  0
  9 29  1  0
 10 30  1  0
 10 31  1  0
 11 32  1  0
 15 33  1  0
M  ISO  8  21   8  22   8  23  13  24  13  25  13  26  13  27  14  28  14
M  ISO  5  29  14  30   8  31   8  32  14  33  14
M  END
>  <minimizedAffinity>  (1) 
-4.24653339

>  <minimizedRMSD>  (1) 
1.59646654

$$$$
