
     RDKit          3D

 25 27  0  0  0  0  0  0  0  0999 V2000
   43.6320   19.7140   37.0790 C   0  0  0  0  0  0  0  0  0  0  0  0
   42.4840   20.4870   37.2970 C   0  0  0  0  0  0  0  0  0  0  0  0
   41.9780   21.2230   36.2400 C   0  0  0  0  0  0  0  0  0  0  0  0
   42.6440   21.1430   35.0390 N   0  0  0  0  0  0  0  0  0  0  0  0
   43.7350   20.4030   34.8470 C   0  0  0  0  0  0  0  0  0  0  0  0
   44.2330   19.6800   35.8860 N   0  0  0  0  0  0  0  0  0  0  0  0
   44.2830   20.4490   33.5350 N   0  0  0  0  0  0  0  0  0  0  0  0
   44.5820   21.5220   32.8350 N   0  0  0  0  0  0  0  0  0  0  0  0
   45.0810   21.1380   31.6330 C   0  0  0  0  0  0  0  0  0  0  0  0
   45.0700   19.7600   31.6360 C   0  0  0  0  0  0  0  0  0  0  0  0
   44.5620   19.3340   32.8450 C   0  0  0  0  0  0  0  0  0  0  0  0
   40.7920   22.0430   36.3990 C   0  0  0  0  0  0  0  0  0  0  0  0
   39.9210   22.6260   35.5070 N   0  0  0  0  0  0  0  0  0  0  0  0
   39.0070   23.2700   36.1720 O   0  0  0  0  0  0  0  0  0  0  0  0
   39.2220   23.1460   37.4650 C   0  0  0  0  0  0  0  0  0  0  0  0
   40.3250   22.3890   37.6050 N   0  0  0  0  0  0  0  0  0  0  0  0
   38.4310   23.7140   38.5740 C   0  0  0  0  0  0  0  0  0  0  0  0
   39.2420   23.8720   39.6720 F   0  0  0  0  0  0  0  0  0  0  0  0
   37.3910   22.8530   38.9430 F   0  0  0  0  0  0  0  0  0  0  0  0
   37.9390   24.9350   38.2250 F   0  0  0  0  0  0  0  0  0  0  0  0
   44.0476   19.1222   37.9079 H   0  0  0  0  0  0  0  0  0  0  0  0
   41.9973   20.5083   38.2832 H   0  0  0  0  0  0  0  0  0  0  0  0
   45.4250   21.7944   30.8201 H   0  0  0  0  0  0  0  0  0  0  0  0
   45.4084   19.1112   30.8147 H   0  0  0  0  0  0  0  0  0  0  0  0
   44.4160   18.2948   33.1749 H   0  0  0  0  0  0  0  0  0  0  0  0
  1  2  2  0
  3 12  1  0
  3  2  1  0
  4  3  2  0
  5  4  1  0
  5  6  2  0
  6  1  1  0
  7  5  1  0
  8  7  1  0
  9 10  1  0
  9  8  2  0
 10 11  2  0
 11  7  1  0
 12 16  1  0
 13 14  1  0
 13 12  2  0
 14 15  1  0
 15 16  2  0
 15 17  1  0
 17 19  1  0
 17 18  1  0
 20 17  1  0
  1 21  1  0
  2 22  1  0
  9 23  1  0
 10 24  1  0
 11 25  1  0
M  ISO  5  21  14  22  14  23  14  24  14  25  14
M  END
>  <minimizedAffinity>  (1) 
-4.31313181

>  <minimizedRMSD>  (1) 
0.0399840586

$$$$
