
     RDKit          3D

 23 24  0  0  0  0  0  0  0  0999 V2000
   38.0620   24.7950   36.9260 C   0  0  0  0  0  0  0  0  0  0  0  0
   39.1280   24.4050   36.0690 C   0  0  0  0  0  0  0  0  0  0  0  0
   39.8730   23.4200   36.6140 C   0  0  0  0  0  0  0  0  0  0  0  0
   39.6220   22.8660   37.8540 N   0  0  0  0  0  0  0  0  0  0  0  0
   38.5980   23.2900   38.6000 C   0  0  0  0  0  0  0  0  0  0  0  0
   37.8100   24.2540   38.1470 N   0  0  0  0  0  0  0  0  0  0  0  0
   39.1140   25.1350   34.8870 N   0  0  0  0  0  0  0  0  0  0  0  0
   39.7370   26.3290   35.0360 N   0  0  0  0  0  0  0  0  0  0  0  0
   39.6980   26.9900   33.8410 C   0  0  0  0  0  0  0  0  0  0  0  0
   39.0340   26.1820   32.9390 C   0  0  0  0  0  0  0  0  0  0  0  0
   38.6760   25.0270   33.6070 C   0  0  0  0  0  0  0  0  0  0  0  0
   40.9730   22.9650   35.7660 C   0  0  0  0  0  0  0  0  0  0  0  0
   42.2730   23.0480   36.4800 C   0  0  0  0  0  0  0  0  0  0  0  0
   37.3920   25.5935   36.5746 H   0  0  0  0  0  0  0  0  0  0  0  0
   38.4099   22.8406   39.5862 H   0  0  0  0  0  0  0  0  0  0  0  0
   40.1190   27.9851   33.6347 H   0  0  0  0  0  0  0  0  0  0  0  0
   38.8283   26.4150   31.8838 H   0  0  0  0  0  0  0  0  0  0  0  0
   38.1328   24.1721   33.1779 H   0  0  0  0  0  0  0  0  0  0  0  0
   41.0171   23.5964   34.8663 H   0  0  0  0  0  0  0  0  0  0  0  0
   40.7916   21.9145   35.4948 H   0  0  0  0  0  0  0  0  0  0  0  0
   42.0964   23.0367   37.5657 H   0  0  0  0  0  0  0  0  0  0  0  0
   42.8998   22.1880   36.2015 H   0  0  0  0  0  0  0  0  0  0  0  0
   42.7854   23.9807   36.2015 H   0  0  0  0  0  0  0  0  0  0  0  0
  1  6  2  0
  2  3  2  0
  2  1  1  0
  3  4  1  0
  4  5  2  0
  6  5  1  0
  7  8  1  0
  7  2  1  0
  9  8  2  0
 10 11  2  0
 10  9  1  0
 11  7  1  0
 12 13  1  0
 12  3  1  0
  1 14  1  0
  5 15  1  0
  9 16  1  0
 10 17  1  0
 11 18  1  0
 12 19  1  0
 12 20  1  0
 13 21  1  0
 13 22  1  0
 13 23  1  0
M  ISO  8  14  14  15  14  16  14  17  14  18  14  19   8  20   8  21   8
M  ISO  2  22   8  23   8
M  END
>  <minimizedAffinity>  (1) 
-3.4549017

>  <minimizedRMSD>  (1) 
5.29423952

$$$$
