
     RDKit          3D

 34 37  0  0  0  0  0  0  0  0999 V2000
   37.8711   23.6971   33.5022 C   0  0  0  0  0  0  0  0  0  0  0  0
   37.4667   22.6576   32.6673 C   0  0  0  0  0  0  0  0  0  0  0  0
   37.4827   21.5642   33.4836 N   0  0  0  0  0  0  0  0  0  0  0  0
   37.8699   21.9658   34.6942 C   0  0  0  0  0  0  0  0  0  0  0  0
   38.1136   23.2718   34.7298 N   0  0  0  0  0  0  0  0  0  0  0  0
   38.0179   25.0845   33.0766 C   0  0  0  0  0  0  0  0  0  0  0  0
   39.3021   25.5825   32.7694 C   0  0  0  0  0  0  0  0  0  0  0  0
   39.3874   26.9337   32.3573 C   0  0  0  0  0  0  0  0  0  0  0  0
   38.2346   27.6514   32.2870 N   0  0  0  0  0  0  0  0  0  0  0  0
   37.0255   27.1292   32.5922 C   0  0  0  0  0  0  0  0  0  0  0  0
   36.9100   25.8515   32.9862 N   0  0  0  0  0  0  0  0  0  0  0  0
   38.5387   23.9462   35.8987 C   0  0  1  0  0  0  0  0  0  0  0  0
   38.0867   25.2304   36.3631 C   0  0  0  0  0  0  0  0  0  0  0  0
   37.5593   23.9231   37.0275 C   0  0  2  0  0  0  0  0  0  0  0  0
   38.1207   23.7647   38.4263 C   0  0  0  0  0  0  0  0  0  0  0  0
   37.5110   22.7037   39.0650 F   0  0  0  0  0  0  0  0  0  0  0  0
   39.5106   23.3412   38.3078 F   0  0  0  0  0  0  0  0  0  0  0  0
   38.1383   24.8994   39.1427 F   0  0  0  0  0  0  0  0  0  0  0  0
   37.2179   22.7997   31.6132 H   0  0  0  0  0  0  0  0  0  0  0  0
   37.9329   21.1996   35.4643 H   0  0  0  0  0  0  0  0  0  0  0  0
   40.1708   24.9775   32.8415 H   0  0  0  0  0  0  0  0  0  0  0  0
   40.3345   27.3781   32.1078 H   0  0  0  0  0  0  0  0  0  0  0  0
   36.2209   27.8308   32.4835 H   0  0  0  0  0  0  0  0  0  0  0  0
   39.6165   23.6855   36.1713 H   0  0  0  0  0  0  0  0  0  0  0  0
   38.7044   25.8677   37.0140 H   0  0  0  0  0  0  0  0  0  0  0  0
   37.3340   25.7866   35.8064 H   0  0  0  0  0  0  0  0  0  0  0  0
   36.0931   23.9783   36.9251 N   0  0  0  0  0  0  0  0  0  0  0  0
   35.6738   25.2238   36.7409 N   0  0  0  0  0  0  0  0  0  0  0  0
   34.3140   25.2332   36.6512 C   0  0  0  0  0  0  0  0  0  0  0  0
   33.5821   26.0168   36.5048 H   0  0  0  0  0  0  0  0  0  0  0  0
   33.9152   23.9120   36.7916 C   0  0  0  0  0  0  0  0  0  0  0  0
   35.0439   23.1368   36.9627 C   0  0  0  0  0  0  0  0  0  0  0  0
   35.3001   22.0960   37.1105 H   0  0  0  0  0  0  0  0  0  0  0  0
   32.9610   23.3987   36.7941 H   0  0  0  0  0  0  0  0  0  0  0  0
  1  5  1  0
  2  3  1  0
  2  1  2  0
  3  4  2  0
  4  5  1  0
  5 12  1  0
  6  1  1  0
  7  6  2  0
  8  7  1  0
  9  8  2  0
  9 10  1  0
 10 11  2  0
 11  6  1  0
 12 13  1  0
 12 14  1  0
 13 14  1  0
 14 15  1  1
 15 16  1  0
 15 18  1  0
 17 15  1  0
  2 19  1  0
  4 20  1  0
  7 21  1  0
  8 22  1  0
 10 23  1  0
 12 24  1  1
 13 25  1  0
 13 26  1  0
 27 28  1  0
 28 29  2  0
 29 30  1  0
 29 31  1  0
 31 32  2  0
 32 33  1  0
 32 27  1  0
 31 34  1  0
 14 27  1  0
M  ISO  8  19  14  20  14  21  14  22  14  23  14  24  13  25  13  26  13
M  ISO  2  30  14  33  14
M  END
>  <DihAtoms>  (1) 
11,13,26,27

>  <DihDeg>  (1) 
99.89466046367151

$$$$
