
     RDKit          3D

 23 25  0  0  0  0  0  0  0  0999 V2000
   42.5300   20.8100   37.0140 C   0  0  0  0  0  0  0  0  0  0  0  0
   41.4470   21.4840   37.5890 C   0  0  0  0  0  0  0  0  0  0  0  0
   40.5840   22.1770   36.7350 C   0  0  0  0  0  0  0  0  0  0  0  0
   40.8510   22.1560   35.3780 N   0  0  0  0  0  0  0  0  0  0  0  0
   41.8980   21.4980   34.8750 C   0  0  0  0  0  0  0  0  0  0  0  0
   42.7310   20.8320   35.6740 N   0  0  0  0  0  0  0  0  0  0  0  0
   42.0180   21.5850   33.4590 N   0  0  0  0  0  0  0  0  0  0  0  0
   41.3730   20.6720   32.6920 C   0  0  0  0  0  0  0  0  0  0  0  0
   41.6290   20.9470   31.3870 N   0  0  0  0  0  0  0  0  0  0  0  0
   42.4260   22.0230   31.3520 C   0  0  0  0  0  0  0  0  0  0  0  0
   42.6500   22.3950   32.6310 N   0  0  0  0  0  0  0  0  0  0  0  0
   39.4540   22.8820   37.3100 C   0  0  0  0  0  0  0  0  0  0  0  0
   38.6120   23.7220   36.5750 C   0  0  0  0  0  0  0  0  0  0  0  0
   37.6860   24.1880   37.4600 N   0  0  0  0  0  0  0  0  0  0  0  0
   37.9790   23.6400   38.6630 C   0  0  0  0  0  0  0  0  0  0  0  0
   39.0350   22.8570   38.5870 N   0  0  0  0  0  0  0  0  0  0  0  0
   43.2276   20.2548   37.6583 H   0  0  0  0  0  0  0  0  0  0  0  0
   41.2803   21.4691   38.6762 H   0  0  0  0  0  0  0  0  0  0  0  0
   40.7475   19.8472   33.0641 H   0  0  0  0  0  0  0  0  0  0  0  0
   42.8236   22.5121   30.4505 H   0  0  0  0  0  0  0  0  0  0  0  0
   38.6824   23.9582   35.5030 H   0  0  0  0  0  0  0  0  0  0  0  0
   37.4084   23.8251   39.5850 H   0  0  0  0  0  0  0  0  0  0  0  0
   39.4599   22.3256   39.3603 H   0  0  0  0  0  0  0  0  0  0  0  0
  1  2  2  0
  3 12  1  0
  3  2  1  0
  4  3  2  0
  5  4  1  0
  5  6  2  0
  6  1  1  0
  7  5  1  0
  8  7  1  0
  9  8  2  0
 10  9  1  0
 10 11  2  0
 11  7  1  0
 12 16  1  0
 13 12  2  0
 13 14  1  0
 14 15  2  0
 16 15  1  0
  1 17  1  0
  2 18  1  0
  8 19  1  0
 10 20  1  0
 13 21  1  0
 15 22  1  0
 16 23  1  0
M  ISO  7  17  14  18  14  19  14  20  14  21  14  22  14  23   9
M  END
>  <minimizedAffinity>  (1) 
-3.93040299

>  <minimizedRMSD>  (1) 
0.109054729

$$$$
