
     RDKit          3D

 20 21  0  0  0  0  0  0  0  0999 V2000
   38.1290   25.6910   35.4470 C   0  0  0  0  0  0  0  0  0  0  0  0
   37.8760   27.0210   35.7820 C   0  0  0  0  0  0  0  0  0  0  0  0
   37.3580   27.8300   34.8370 C   0  0  0  0  0  0  0  0  0  0  0  0
   37.1030   27.2840   33.5620 C   0  0  0  0  0  0  0  0  0  0  0  0
   37.6350   25.5130   33.7300 S   0  0  0  0  0  0  0  0  0  0  0  0
   38.1420   24.3330   37.5550 C   0  0  0  0  0  0  0  0  0  0  0  0
   38.6740   24.6620   36.2870 C   0  0  0  0  0  0  0  0  0  0  0  0
   39.7650   23.9750   35.8220 C   0  0  0  0  0  0  0  0  0  0  0  0
   40.2800   23.0010   36.6210 N   0  0  0  0  0  0  0  0  0  0  0  0
   39.7560   22.6970   37.8370 C   0  0  0  0  0  0  0  0  0  0  0  0
   38.6860   23.3740   38.2900 N   0  0  0  0  0  0  0  0  0  0  0  0
   36.5890   27.7880   32.3670 C   0  0  0  0  0  0  0  0  0  0  0  0
   35.6830   27.1940   31.7640 O   0  0  0  0  0  0  0  0  0  0  0  0
   36.9280   28.9500   31.6430 O   0  0  0  0  0  0  0  0  0  0  0  0
   38.0937   27.3998   36.7915 H   0  0  0  0  0  0  0  0  0  0  0  0
   37.1403   28.8862   35.0539 H   0  0  0  0  0  0  0  0  0  0  0  0
   37.2665   24.8794   37.9357 H   0  0  0  0  0  0  0  0  0  0  0  0
   40.2073   24.2021   34.8408 H   0  0  0  0  0  0  0  0  0  0  0  0
   40.2051   21.9005   38.4484 H   0  0  0  0  0  0  0  0  0  0  0  0
   36.4562   29.1626   30.7990 H   0  0  0  0  0  0  0  0  0  0  0  0
  1  2  2  0
  1  7  1  0
  3  2  1  0
  4  5  1  0
  4  3  2  0
  5  1  1  0
  6 11  2  0
  7  6  1  0
  8  7  2  0
  8  9  1  0
  9 10  2  0
 10 11  1  0
 12  4  1  0
 13 12  2  0
 14 12  1  0
  2 15  1  0
  3 16  1  0
  6 17  1  0
  8 18  1  0
 10 19  1  0
 14 20  1  0
M  ISO  6  15  14  16  14  17  14  18  14  19  14  20   3
M  END
>  <minimizedAffinity>  (1) 
-4.00820541

>  <minimizedRMSD>  (1) 
0.178679109

$$$$
