
     RDKit          3D

 40 44  0  0  1  0  0  0  0  0999 V2000
   37.3850   26.5540   33.8870 C   0  0  0  0  0  0  0  0  0  0  0  0
   36.7350   27.7850   33.3980 C   0  0  0  0  0  0  0  0  0  0  0  0
   36.5180   28.2450   32.1240 C   0  0  0  0  0  0  0  0  0  0  0  0
   35.8950   29.4250   31.8010 C   0  0  0  0  0  0  0  0  0  0  0  0
   35.4620   30.1950   32.8540 C   0  0  0  0  0  0  0  0  0  0  0  0
   35.6850   29.7270   34.1410 C   0  0  0  0  0  0  0  0  0  0  0  0
   36.2950   28.5700   34.4230 N   0  0  0  0  0  0  0  0  0  0  0  0
   35.2000   30.5940   35.1640 N   0  0  0  0  0  0  0  0  0  0  0  0
   36.0130   31.3920   35.8800 C   0  0  0  0  0  0  0  0  0  0  0  0
   35.2280   32.0730   36.7570 N   0  0  0  0  0  0  0  0  0  0  0  0
   33.9490   31.6580   36.5380 C   0  0  0  0  0  0  0  0  0  0  0  0
   32.7580   32.0150   37.1380 C   0  0  0  0  0  0  0  0  0  0  0  0
   31.5650   31.4690   36.7620 N   0  0  0  0  0  0  0  0  0  0  0  0
   31.5960   30.5540   35.7690 C   0  0  0  0  0  0  0  0  0  0  0  0
   32.7580   30.1820   35.1580 N   0  0  0  0  0  0  0  0  0  0  0  0
   33.9150   30.7240   35.5350 C   0  0  0  0  0  0  0  0  0  0  0  0
   37.8700   24.0500   33.2090 C   0  0  2  0  0  0  0  0  0  0  0  0
   38.5770   25.0150   32.3240 C   0  0  0  0  0  0  0  0  0  0  0  0
   37.2840   25.3950   32.9830 C   0  0  2  0  0  0  0  0  0  0  0  0
   40.4090   23.6490   35.8260 C   0  0  0  0  0  0  0  0  0  0  0  0
   39.6880   23.1740   36.9450 C   0  0  0  0  0  0  0  0  0  0  0  0
   38.2760   23.0070   36.7500 C   0  0  0  0  0  0  0  0  0  0  0  0
   37.7460   23.3040   35.5440 N   0  0  0  0  0  0  0  0  0  0  0  0
   38.5250   23.7630   34.5010 C   0  0  0  0  0  0  0  0  0  0  0  0
   39.8750   23.9390   34.6410 N   0  0  0  0  0  0  0  0  0  0  0  0
   38.4516   26.7712   34.0454 H   0  0  0  0  0  0  0  0  0  0  0  0
   36.8550   26.2719   34.8087 H   0  0  0  0  0  0  0  0  0  0  0  0
   36.8721   27.6170   31.2932 H   0  0  0  0  0  0  0  0  0  0  0  0
   35.7502   29.7373   30.7562 H   0  0  0  0  0  0  0  0  0  0  0  0
   34.9532   31.1548   32.6813 H   0  0  0  0  0  0  0  0  0  0  0  0
   37.1047   31.4773   35.7758 H   0  0  0  0  0  0  0  0  0  0  0  0
   32.7710   32.7630   37.9444 H   0  0  0  0  0  0  0  0  0  0  0  0
   30.6524   30.0930   35.4417 H   0  0  0  0  0  0  0  0  0  0  0  0
   37.4761   23.0274   33.1128 H   0  0  0  0  0  0  0  0  0  0  0  0
   38.6125   24.8430   31.2381 H   0  0  0  0  0  0  0  0  0  0  0  0
   39.5896   25.4431   32.2876 H   0  0  0  0  0  0  0  0  0  0  0  0
   36.2537   25.6848   32.7291 H   0  0  0  0  0  0  0  0  0  0  0  0
   41.4937   23.7898   35.9428 H   0  0  0  0  0  0  0  0  0  0  0  0
   40.1775   22.9470   37.9035 H   0  0  0  0  0  0  0  0  0  0  0  0
   37.6369   22.6436   37.5682 H   0  0  0  0  0  0  0  0  0  0  0  0
  2  1  1  0
  2  7  1  0
  3  2  2  0
  4  3  1  0
  4  5  2  0
  5  6  1  0
  6  7  2  0
  6  8  1  0
  8 16  1  0
  8  9  1  0
  9 10  2  0
 11 10  1  0
 11 12  2  0
 13 12  1  0
 14 13  2  0
 15 16  2  0
 15 14  1  0
 16 11  1  0
 17 24  1  0
 18 19  1  0
 18 17  1  0
 19 17  1  0
 19  1  1  0
 20 21  2  0
 22 21  1  0
 23 22  2  0
 24 25  2  0
 24 23  1  0
 25 20  1  0
  1 26  1  0
  1 27  1  0
  3 28  1  0
  4 29  1  0
  5 30  1  0
  9 31  1  0
 12 32  1  0
 14 33  1  0
 17 34  1  6
 18 35  1  0
 18 36  1  0
 19 37  1  6
 20 38  1  0
 21 39  1  0
 22 40  1  0
M  ISO  8  26   8  27   8  28  14  29  14  30  14  31  14  32  14  33  14
M  ISO  7  34  13  35  13  36  13  37  13  38  14  39  14  40  14
M  END
>  <minimizedAffinity>  (1) 
-5.76241398

>  <minimizedRMSD>  (1) 
6.57647371

$$$$
