
     RDKit          3D

 45 50  0  0  0  0  0  0  0  0999 V2000
   37.5610   21.8320   34.9790 C   0  0  0  0  0  0  0  0  0  0  0  0
   36.3550   21.2750   34.9280 C   0  0  0  0  0  0  0  0  0  0  0  0
   35.9310   20.5590   33.8520 C   0  0  0  0  0  0  0  0  0  0  0  0
   36.8300   20.4500   32.8220 C   0  0  0  0  0  0  0  0  0  0  0  0
   38.3280   21.3890   33.3890 S   0  0  0  0  0  0  0  0  0  0  0  0
   36.6770   19.7430   31.5190 C   0  0  0  0  0  0  0  0  0  0  0  0
   36.3170   20.3640   30.3460 C   0  0  0  0  0  0  0  0  0  0  0  0
   36.3100   19.3400   29.4610 N   0  0  0  0  0  0  0  0  0  0  0  0
   36.6390   18.1580   30.0280 C   0  0  0  0  0  0  0  0  0  0  0  0
   36.7300   16.9060   29.4160 C   0  0  0  0  0  0  0  0  0  0  0  0
   37.0920   15.8450   30.2300 C   0  0  0  0  0  0  0  0  0  0  0  0
   37.3390   16.0570   31.5700 C   0  0  0  0  0  0  0  0  0  0  0  0
   37.2310   17.3250   32.1140 C   0  0  0  0  0  0  0  0  0  0  0  0
   36.8790   18.4040   31.3620 C   0  0  0  0  0  0  0  0  0  0  0  0
   38.2270   22.5810   35.9060 O   0  0  0  0  0  0  0  0  0  0  0  0
   37.9620   23.9110   36.1750 C   0  0  0  0  0  0  0  0  0  0  0  0
   37.2840   24.0360   37.1880 O   0  0  0  0  0  0  0  0  0  0  0  0
   40.3070   26.2410   34.7010 C   0  0  0  0  0  0  0  0  0  0  0  0
   39.5320   27.0300   33.8260 C   0  0  0  0  0  0  0  0  0  0  0  0
   38.1430   26.7260   33.7590 C   0  0  0  0  0  0  0  0  0  0  0  0
   37.6560   25.7240   34.5180 N   0  0  0  0  0  0  0  0  0  0  0  0
   38.4440   25.0000   35.3390 C   0  0  0  0  0  0  0  0  0  0  0  0
   39.7770   25.2620   35.4290 N   0  0  0  0  0  0  0  0  0  0  0  0
   37.2180   27.4200   32.9310 N   0  0  0  0  0  0  0  0  0  0  0  0
   37.1790   27.1570   31.5910 C   0  0  0  0  0  0  0  0  0  0  0  0
   36.2220   27.9350   31.0060 N   0  0  0  0  0  0  0  0  0  0  0  0
   35.6540   28.6900   31.9680 C   0  0  0  0  0  0  0  0  0  0  0  0
   34.6570   29.6620   32.0830 C   0  0  0  0  0  0  0  0  0  0  0  0
   34.3610   30.2090   33.2770 N   0  0  0  0  0  0  0  0  0  0  0  0
   34.9970   29.8600   34.4160 C   0  0  0  0  0  0  0  0  0  0  0  0
   35.9790   28.9160   34.3630 N   0  0  0  0  0  0  0  0  0  0  0  0
   36.2800   28.3600   33.1540 C   0  0  0  0  0  0  0  0  0  0  0  0
   35.6767   21.3973   35.7853 H   0  0  0  0  0  0  0  0  0  0  0  0
   34.9331   20.0979   33.8107 H   0  0  0  0  0  0  0  0  0  0  0  0
   36.0914   21.4263   30.1709 H   0  0  0  0  0  0  0  0  0  0  0  0
   36.0789   19.4496   28.4633 H   0  0  0  0  0  0  0  0  0  0  0  0
   36.5250   16.7694   28.3439 H   0  0  0  0  0  0  0  0  0  0  0  0
   37.1824   14.8335   29.8074 H   0  0  0  0  0  0  0  0  0  0  0  0
   37.6244   15.2108   32.2122 H   0  0  0  0  0  0  0  0  0  0  0  0
   37.4356   17.4652   33.1857 H   0  0  0  0  0  0  0  0  0  0  0  0
   41.3853   26.4418   34.7842 H   0  0  0  0  0  0  0  0  0  0  0  0
   39.9774   27.8378   33.2268 H   0  0  0  0  0  0  0  0  0  0  0  0
   37.8184   26.4321   31.0659 H   0  0  0  0  0  0  0  0  0  0  0  0
   34.1069   29.9844   31.1866 H   0  0  0  0  0  0  0  0  0  0  0  0
   34.7266   30.3307   35.3727 H   0  0  0  0  0  0  0  0  0  0  0  0
  1 15  1  0
  2  1  2  0
  3  2  1  0
  4  5  1  0
  4  3  2  0
  5  1  1  0
  6  4  1  0
  7  6  2  0
  8  9  1  0
  8  7  1  0
  9 14  2  0
 10  9  1  0
 10 11  2  0
 11 12  1  0
 12 13  2  0
 14  6  1  0
 14 13  1  0
 15 16  1  0
 16 17  2  0
 18 23  2  0
 19 18  1  0
 20 19  2  0
 20 21  1  0
 21 22  2  0
 22 23  1  0
 22 16  1  0
 24 32  1  0
 24 20  1  0
 25 24  1  0
 26 25  2  0
 26 27  1  0
 27 28  2  0
 27 32  1  0
 28 29  1  0
 29 30  2  0
 31 30  1  0
 32 31  2  0
  2 33  1  0
  3 34  1  0
  7 35  1  0
  8 36  1  0
 10 37  1  0
 11 38  1  0
 12 39  1  0
 13 40  1  0
 18 41  1  0
 19 42  1  0
 25 43  1  0
 28 44  1  0
 30 45  1  0
M  ISO  8  33  14  34  14  35  14  36   9  37  14  38  14  39  14  40  14
M  ISO  5  41  14  42  14  43  14  44  14  45  14
M  END
>  <minimizedAffinity>  (1) 
-6.06756639

>  <minimizedRMSD>  (1) 
5.78539419

$$$$
