
     RDKit          3D

 37 40  0  0  0  0  0  0  0  0999 V2000
   35.1050   20.1120   32.3140 C   0  0  0  0  0  0  0  0  0  0  0  0
   37.5930   22.5160   33.6300 C   0  0  0  0  0  0  0  0  0  0  0  0
   36.9870   21.2610   33.6610 C   0  0  0  0  0  0  0  0  0  0  0  0
   36.0250   21.2070   32.6920 C   0  0  0  0  0  0  0  0  0  0  0  0
   36.0790   22.4550   32.0950 C   0  0  0  0  0  0  0  0  0  0  0  0
   37.0320   23.2030   32.6880 O   0  0  0  0  0  0  0  0  0  0  0  0
   38.6630   22.8620   34.5580 C   0  0  0  0  0  0  0  0  0  0  0  0
   39.5570   23.9070   34.3840 C   0  0  0  0  0  0  0  0  0  0  0  0
   40.5270   24.1350   35.3320 C   0  0  0  0  0  0  0  0  0  0  0  0
   40.5810   23.3300   36.4140 N   0  0  0  0  0  0  0  0  0  0  0  0
   39.7000   22.3000   36.5880 C   0  0  0  0  0  0  0  0  0  0  0  0
   38.7450   22.0710   35.6600 N   0  0  0  0  0  0  0  0  0  0  0  0
   35.6870   19.2360   31.2090 C   0  0  0  0  0  0  0  0  0  0  0  0
   36.1010   17.9090   31.7010 C   0  0  0  0  0  0  0  0  0  0  0  0
   35.2510   16.8990   32.0440 N   0  0  0  0  0  0  0  0  0  0  0  0
   35.6500   15.7010   32.4720 C   0  0  0  0  0  0  0  0  0  0  0  0
   36.9610   15.4050   32.5950 N   0  0  0  0  0  0  0  0  0  0  0  0
   37.8770   16.3360   32.2800 C   0  0  0  0  0  0  0  0  0  0  0  0
   39.2180   16.0260   32.4120 C   0  0  0  0  0  0  0  0  0  0  0  0
   40.1520   16.9970   32.0890 C   0  0  0  0  0  0  0  0  0  0  0  0
   39.7750   18.2650   31.6390 C   0  0  0  0  0  0  0  0  0  0  0  0
   38.4100   18.5250   31.5220 C   0  0  0  0  0  0  0  0  0  0  0  0
   37.4560   17.5820   31.8360 C   0  0  0  0  0  0  0  0  0  0  0  0
   34.9129   19.4875   33.1989 H   0  0  0  0  0  0  0  0  0  0  0  0
   34.1750   20.5628   31.9374 H   0  0  0  0  0  0  0  0  0  0  0  0
   37.2421   20.4456   34.3538 H   0  0  0  0  0  0  0  0  0  0  0  0
   35.4409   22.7866   31.2626 H   0  0  0  0  0  0  0  0  0  0  0  0
   39.4911   24.5496   33.4937 H   0  0  0  0  0  0  0  0  0  0  0  0
   41.2459   24.9587   35.2106 H   0  0  0  0  0  0  0  0  0  0  0  0
   39.7680   21.6599   37.4800 H   0  0  0  0  0  0  0  0  0  0  0  0
   36.5644   19.7435   30.7815 H   0  0  0  0  0  0  0  0  0  0  0  0
   34.9014   19.0831   30.4544 H   0  0  0  0  0  0  0  0  0  0  0  0
   34.8977   14.9408   32.7293 H   0  0  0  0  0  0  0  0  0  0  0  0
   39.5353   15.0335   32.7646 H   0  0  0  0  0  0  0  0  0  0  0  0
   41.2220   16.7628   32.1898 H   0  0  0  0  0  0  0  0  0  0  0  0
   40.5258   19.0284   31.3869 H   0  0  0  0  0  0  0  0  0  0  0  0
   38.0847   19.5143   31.1678 H   0  0  0  0  0  0  0  0  0  0  0  0
  1  4  1  0
  2  3  2  0
  2  7  1  0
  4  3  1  0
  5  6  1  0
  5  4  2  0
  6  2  1  0
  7 12  1  0
  8  7  2  0
  8  9  1  0
  9 10  2  0
 10 11  1  0
 12 11  2  0
 13 14  1  0
 13  1  1  0
 14 23  1  0
 14 15  2  0
 15 16  1  0
 16 17  2  0
 18 19  2  0
 18 17  1  0
 20 19  1  0
 21 20  2  0
 22 21  1  0
 22 23  2  0
 23 18  1  0
  1 24  1  0
  1 25  1  0
  3 26  1  0
  5 27  1  0
  8 28  1  0
  9 29  1  0
 11 30  1  0
 13 31  1  0
 13 32  1  0
 16 33  1  0
 19 34  1  0
 20 35  1  0
 21 36  1  0
 22 37  1  0
M  ISO  8  24   8  25   8  26  14  27  14  28  14  29  14  30  14  31   8
M  ISO  6  32   8  33  14  34  14  35  14  36  14  37  14
M  END
>  <minimizedAffinity>  (1) 
-4.3315177

>  <minimizedRMSD>  (1) 
3.31600356

$$$$
