
     RDKit          3D

 48 51  0  0  0  0  0  0  0  0999 V2000
   37.2670   26.6180   34.6190 C   0  0  0  0  0  0  0  0  0  0  0  0
   37.4070   25.7720   33.5100 C   0  0  0  0  0  0  0  0  0  0  0  0
   36.8660   26.1920   32.2840 C   0  0  0  0  0  0  0  0  0  0  0  0
   36.2430   27.3890   32.2490 N   0  0  0  0  0  0  0  0  0  0  0  0
   36.1200   28.1870   33.3280 C   0  0  0  0  0  0  0  0  0  0  0  0
   36.6350   27.7980   34.5160 N   0  0  0  0  0  0  0  0  0  0  0  0
   37.8330   26.1730   35.8930 C   0  0  0  0  0  0  0  0  0  0  0  0
   38.5590   26.9590   36.5450 O   0  0  0  0  0  0  0  0  0  0  0  0
   37.5500   24.8940   36.3370 O   0  0  0  0  0  0  0  0  0  0  0  0
   39.6230   22.6920   38.1650 N   0  0  0  0  0  0  0  0  0  0  0  0
   38.5320   23.4450   37.9960 N   0  0  0  0  0  0  0  0  0  0  0  0
   38.5950   24.0350   36.7690 C   0  0  0  0  0  0  0  0  0  0  0  0
   39.7470   23.6470   36.1520 C   0  0  0  0  0  0  0  0  0  0  0  0
   40.3640   22.8130   37.0440 C   0  0  0  0  0  0  0  0  0  0  0  0
   41.6700   22.1430   36.7970 C   0  0  0  0  0  0  0  0  0  0  0  0
   42.6920   22.8480   36.2020 C   0  0  0  0  0  0  0  0  0  0  0  0
   43.8510   22.1400   36.0190 C   0  0  0  0  0  0  0  0  0  0  0  0
   44.0640   20.8500   36.3640 N   0  0  0  0  0  0  0  0  0  0  0  0
   43.0120   20.1970   36.9530 C   0  0  0  0  0  0  0  0  0  0  0  0
   41.8540   20.8430   37.1550 N   0  0  0  0  0  0  0  0  0  0  0  0
   35.4200   29.4790   33.1860 C   0  0  0  0  0  0  0  0  0  0  0  0
   35.5200   30.1870   34.5310 C   0  0  0  0  0  0  0  0  0  0  0  0
   33.9780   29.1850   32.8840 C   0  0  0  0  0  0  0  0  0  0  0  0
   36.0360   30.3280   32.0890 C   0  0  0  0  0  0  0  0  0  0  0  0
   36.1960   31.6180   32.6330 O   0  0  0  0  0  0  0  0  0  0  0  0
   36.2440   32.5150   31.5650 C   0  0  0  0  0  0  0  0  0  0  0  0
   37.2080   33.6580   31.8320 C   0  0  0  0  0  0  0  0  0  0  0  0
   37.4260   32.6840   30.7130 C   0  0  0  0  0  0  0  0  0  0  0  0
   37.9261   24.8062   33.5977 H   0  0  0  0  0  0  0  0  0  0  0  0
   36.9472   25.5667   31.3827 H   0  0  0  0  0  0  0  0  0  0  0  0
   39.8544   22.1263   38.9941 H   0  0  0  0  0  0  0  0  0  0  0  0
   40.1032   23.9407   35.1536 H   0  0  0  0  0  0  0  0  0  0  0  0
   42.5863   23.8995   35.8968 H   0  0  0  0  0  0  0  0  0  0  0  0
   44.6891   22.6726   35.5457 H   0  0  0  0  0  0  0  0  0  0  0  0
   43.1175   19.1457   37.2592 H   0  0  0  0  0  0  0  0  0  0  0  0
   35.4160   29.4507   35.3416 H   0  0  0  0  0  0  0  0  0  0  0  0
   36.4974   30.6852   34.6114 H   0  0  0  0  0  0  0  0  0  0  0  0
   34.7188   30.9364   34.6114 H   0  0  0  0  0  0  0  0  0  0  0  0
   33.4218   29.0716   33.8262 H   0  0  0  0  0  0  0  0  0  0  0  0
   33.5488   30.0141   32.3023 H   0  0  0  0  0  0  0  0  0  0  0  0
   33.9076   28.2540   32.3023 H   0  0  0  0  0  0  0  0  0  0  0  0
   35.3698   30.3630   31.2144 H   0  0  0  0  0  0  0  0  0  0  0  0
   36.9976   29.9127   31.7530 H   0  0  0  0  0  0  0  0  0  0  0  0
   35.1910   32.3465   31.2952 H   0  0  0  0  0  0  0  0  0  0  0  0
   36.9127   34.6952   31.6154 H   0  0  0  0  0  0  0  0  0  0  0  0
   37.7920   34.0119   32.6944 H   0  0  0  0  0  0  0  0  0  0  0  0
   38.2507   31.9586   30.7740 H   0  0  0  0  0  0  0  0  0  0  0  0
   37.5840   32.7821   29.6288 H   0  0  0  0  0  0  0  0  0  0  0  0
  1  7  1  0
  2  1  2  0
  3  2  1  0
  4  3  2  0
  4  5  1  0
  5  6  2  0
  6  1  1  0
  7  9  1  0
  7  8  2  0
  9 12  1  0
 11 10  1  0
 12 11  2  0
 13 12  1  0
 13 14  2  0
 14 10  1  0
 15 14  1  0
 15 20  1  0
 16 15  2  0
 17 16  1  0
 17 18  2  0
 18 19  1  0
 19 20  2  0
 21  5  1  0
 21 22  1  0
 23 21  1  0
 24 25  1  0
 24 21  1  0
 26 27  1  0
 26 25  1  0
 28 26  1  0
 28 27  1  0
  2 29  1  0
  3 30  1  0
 10 31  1  0
 13 32  1  0
 16 33  1  0
 17 34  1  0
 19 35  1  0
 22 36  1  0
 22 37  1  0
 22 38  1  0
 23 39  1  0
 23 40  1  0
 23 41  1  0
 24 42  1  0
 24 43  1  0
 26 44  1  0
 27 45  1  0
 27 46  1  0
 28 47  1  0
 28 48  1  0
M  ISO  8  29  14  30  14  31   9  32  14  33  14  34  14  35  14  36   8
M  ISO  8  37   8  38   8  39   8  40   8  41   8  42   8  43   8  44  13
M  ISO  4  45  13  46  13  47  13  48  13
M  END
>  <minimizedAffinity>  (1) 
-5.48719358

>  <minimizedRMSD>  (1) 
0.987386286

$$$$
