
     RDKit          3D

 38 42  0  0  0  0  0  0  0  0999 V2000
   35.4790   23.4020   31.5190 C   0  0  0  0  0  0  0  0  0  0  0  0
   36.7260   22.7800   31.2730 C   0  0  0  0  0  0  0  0  0  0  0  0
   37.8450   23.5570   31.0190 C   0  0  0  0  0  0  0  0  0  0  0  0
   37.6710   24.9000   31.0220 N   0  0  0  0  0  0  0  0  0  0  0  0
   36.4340   25.4840   31.2660 C   0  0  0  0  0  0  0  0  0  0  0  0
   35.3750   24.7160   31.5080 N   0  0  0  0  0  0  0  0  0  0  0  0
   36.3840   26.9540   31.2280 C   0  0  0  0  0  0  0  0  0  0  0  0
   37.3230   27.5710   30.4500 C   0  0  0  0  0  0  0  0  0  0  0  0
   36.9170   29.3890   30.6760 S   0  0  0  0  0  0  0  0  0  0  0  0
   35.4810   28.9130   31.8420 C   0  0  0  0  0  0  0  0  0  0  0  0
   35.5760   27.7950   31.8260 N   0  0  0  0  0  0  0  0  0  0  0  0
   34.5140   29.7270   32.5680 N   0  0  0  0  0  0  0  0  0  0  0  0
   33.3480   29.3620   33.1060 C   0  0  0  0  0  0  0  0  0  0  0  0
   32.8610   30.4710   33.6460 N   0  0  0  0  0  0  0  0  0  0  0  0
   33.6730   31.5040   33.4670 C   0  0  0  0  0  0  0  0  0  0  0  0
   33.6450   32.8480   33.8180 C   0  0  0  0  0  0  0  0  0  0  0  0
   34.6690   33.6630   33.4700 N   0  0  0  0  0  0  0  0  0  0  0  0
   35.7310   33.1830   32.7760 C   0  0  0  0  0  0  0  0  0  0  0  0
   35.7850   31.8670   32.4180 N   0  0  0  0  0  0  0  0  0  0  0  0
   34.7720   31.0340   32.7560 C   0  0  0  0  0  0  0  0  0  0  0  0
   36.9340   21.3470   31.2540 C   0  0  0  0  0  0  0  0  0  0  0  0
   36.0990   20.4380   30.6140 C   0  0  0  0  0  0  0  0  0  0  0  0
   36.4430   19.1220   30.6960 C   0  0  0  0  0  0  0  0  0  0  0  0
   37.5890   18.7830   31.4020 C   0  0  0  0  0  0  0  0  0  0  0  0
   38.2280   20.4110   31.9920 S   0  0  0  0  0  0  0  0  0  0  0  0
   38.2510   17.5810   31.7020 C   0  0  0  0  0  0  0  0  0  0  0  0
   39.4790   17.4800   31.5790 O   0  0  0  0  0  0  0  0  0  0  0  0
   37.5190   16.4180   32.1630 N   0  0  0  0  0  0  0  0  0  0  0  0
   34.5909   22.7851   31.7207 H   0  0  0  0  0  0  0  0  0  0  0  0
   38.8283   23.1042   30.8241 H   0  0  0  0  0  0  0  0  0  0  0  0
   38.1188   27.1153   29.8425 H   0  0  0  0  0  0  0  0  0  0  0  0
   32.8915   28.3612   33.1022 H   0  0  0  0  0  0  0  0  0  0  0  0
   32.7893   33.2509   34.3797 H   0  0  0  0  0  0  0  0  0  0  0  0
   36.5540   33.8587   32.5000 H   0  0  0  0  0  0  0  0  0  0  0  0
   35.2027   20.7658   30.0671 H   0  0  0  0  0  0  0  0  0  0  0  0
   35.8278   18.3475   30.2146 H   0  0  0  0  0  0  0  0  0  0  0  0
   38.0216   15.5451   32.3781 H   0  0  0  0  0  0  0  0  0  0  0  0
   36.4962   16.4645   32.2754 H   0  0  0  0  0  0  0  0  0  0  0  0
  2  1  2  0
  3  4  2  0
  3  2  1  0
  4  5  1  0
  5  6  2  0
  6  1  1  0
  7  5  1  0
  7 11  1  0
  8  9  1  0
  8  7  2  0
  9 10  1  0
 10 12  1  0
 11 10  2  0
 12 20  1  0
 12 13  1  0
 13 14  2  0
 15 14  1  0
 15 16  2  0
 17 16  1  0
 18 17  2  0
 19 20  2  0
 19 18  1  0
 20 15  1  0
 21  2  1  0
 21 25  1  0
 22 23  1  0
 22 21  2  0
 23 24  2  0
 24 26  1  0
 24 25  1  0
 26 28  1  0
 27 26  2  0
  1 29  1  0
  3 30  1  0
  8 31  1  0
 13 32  1  0
 16 33  1  0
 18 34  1  0
 22 35  1  0
 23 36  1  0
 28 37  1  0
 28 38  1  0
M  ISO  8  29  14  30  14  31  14  32  14  33  14  34  14  35  14  36  14
M  END
>  <minimizedAffinity>  (1) 
-5.20387983

>  <minimizedRMSD>  (1) 
12.5665693

$$$$
