
     RDKit          3D

 44 48  0  0  1  0  0  0  0  0999 V2000
   37.2950   25.9480   32.8230 N   0  0  0  0  0  0  0  0  0  0  0  0
   36.8740   24.8720   32.1590 C   0  0  0  0  0  0  0  0  0  0  0  0
   35.8040   25.1090   31.3310 C   0  0  0  0  0  0  0  0  0  0  0  0
   35.5470   26.4080   31.4910 N   0  0  0  0  0  0  0  0  0  0  0  0
   36.4390   26.9130   32.3840 C   0  0  0  0  0  0  0  0  0  0  0  0
   36.3860   28.3800   32.7240 C   0  0  1  0  0  0  0  0  0  0  0  0
   35.8610   29.3080   31.7010 C   0  0  0  0  0  0  0  0  0  0  0  0
   34.9960   28.9800   32.8910 C   0  0  2  0  0  0  0  0  0  0  0  0
   34.9440   30.0290   33.8910 N   0  0  0  0  0  0  0  0  0  0  0  0
   35.7020   31.1140   34.1310 C   0  0  0  0  0  0  0  0  0  0  0  0
   35.2410   31.7910   35.1930 N   0  0  0  0  0  0  0  0  0  0  0  0
   34.1680   31.1490   35.6610 C   0  0  0  0  0  0  0  0  0  0  0  0
   33.3720   31.4660   36.7270 C   0  0  0  0  0  0  0  0  0  0  0  0
   32.3330   30.6280   36.9840 N   0  0  0  0  0  0  0  0  0  0  0  0
   32.1420   29.5490   36.1950 C   0  0  0  0  0  0  0  0  0  0  0  0
   32.9370   29.2560   35.1540 N   0  0  0  0  0  0  0  0  0  0  0  0
   33.9820   30.0480   34.8480 C   0  0  0  0  0  0  0  0  0  0  0  0
   38.3110   26.2160   33.7710 C   0  0  0  0  0  0  0  0  0  0  0  0
   37.8440   26.1260   35.1760 C   0  0  1  0  0  0  0  0  0  0  0  0
   38.4050   23.4050   37.7480 C   0  0  0  0  0  0  0  0  0  0  0  0
   37.7920   24.5180   37.1410 C   0  0  0  0  0  0  0  0  0  0  0  0
   38.4090   24.9700   35.9170 C   0  0  0  0  0  0  0  0  0  0  0  0
   39.5250   24.3250   35.4110 N   0  0  0  0  0  0  0  0  0  0  0  0
   40.0410   23.2760   36.0530 C   0  0  0  0  0  0  0  0  0  0  0  0
   39.4820   22.8090   37.2300 N   0  0  0  0  0  0  0  0  0  0  0  0
   38.1460   27.4250   35.9170 C   0  0  0  0  0  0  0  0  0  0  0  0
   37.3418   23.8820   32.2646 H   0  0  0  0  0  0  0  0  0  0  0  0
   35.2789   24.3913   30.6836 H   0  0  0  0  0  0  0  0  0  0  0  0
   37.3054   28.3439   33.3269 H   0  0  0  0  0  0  0  0  0  0  0  0
   36.2950   30.3139   31.6019 H   0  0  0  0  0  0  0  0  0  0  0  0
   35.7232   29.2541   30.6110 H   0  0  0  0  0  0  0  0  0  0  0  0
   33.9760   28.5954   33.0384 H   0  0  0  0  0  0  0  0  0  0  0  0
   36.5805   31.4063   33.5370 H   0  0  0  0  0  0  0  0  0  0  0  0
   33.5631   32.3551   37.3458 H   0  0  0  0  0  0  0  0  0  0  0  0
   31.2970   28.8801   36.4153 H   0  0  0  0  0  0  0  0  0  0  0  0
   39.1235   25.4888   33.6263 H   0  0  0  0  0  0  0  0  0  0  0  0
   38.6450   27.2509   33.6054 H   0  0  0  0  0  0  0  0  0  0  0  0
   36.7570   25.9635   35.1303 H   0  0  0  0  0  0  0  0  0  0  0  0
   37.9809   23.0118   38.6837 H   0  0  0  0  0  0  0  0  0  0  0  0
   36.9055   25.0083   37.5695 H   0  0  0  0  0  0  0  0  0  0  0  0
   40.9273   22.7726   35.6394 H   0  0  0  0  0  0  0  0  0  0  0  0
   38.1045   27.2466   37.0016 H   0  0  0  0  0  0  0  0  0  0  0  0
   39.1504   27.7791   35.6418 H   0  0  0  0  0  0  0  0  0  0  0  0
   37.4008   28.1859   35.6418 H   0  0  0  0  0  0  0  0  0  0  0  0
  1 18  1  0
  2  1  1  0
  3  4  1  0
  3  2  2  0
  4  5  2  0
  5  6  1  0
  5  1  1  0
  6  8  1  0
  7  6  1  0
  7  8  1  0
  8  9  1  0
  9 10  1  0
  9 17  1  0
 10 11  2  0
 11 12  1  0
 12 13  2  0
 13 14  1  0
 15 14  2  0
 16 15  1  0
 17 16  2  0
 17 12  1  0
 18 19  1  0
 19 22  1  0
 19 26  1  0
 21 20  2  0
 22 21  1  0
 23 22  2  0
 23 24  1  0
 24 25  2  0
 25 20  1  0
  2 27  1  0
  3 28  1  0
  6 29  1  1
  7 30  1  0
  7 31  1  0
  8 32  1  6
 10 33  1  0
 13 34  1  0
 15 35  1  0
 18 36  1  0
 18 37  1  0
 19 38  1  6
 20 39  1  0
 21 40  1  0
 24 41  1  0
 26 42  1  0
 26 43  1  0
 26 44  1  0
M  ISO  8  27  14  28  14  29  13  30  13  31  13  32  13  33  14  34  14
M  ISO  8  35  14  36   8  37   8  38   8  39  14  40  14  41  14  42   8
M  ISO  2  43   8  44   8
M  END
>  <minimizedAffinity>  (1) 
-5.78797245

>  <minimizedRMSD>  (1) 
1.69934332

$$$$
