
     RDKit          3D

 40 44  0  0  0  0  0  0  0  0999 V2000
   37.5700   22.0510   34.2750 C   0  0  0  0  0  0  0  0  0  0  0  0
   38.5030   23.0840   34.0860 C   0  0  0  0  0  0  0  0  0  0  0  0
   38.8900   23.8300   35.1790 C   0  0  0  0  0  0  0  0  0  0  0  0
   38.3250   23.5050   36.3970 N   0  0  0  0  0  0  0  0  0  0  0  0
   37.4400   22.5220   36.5560 C   0  0  0  0  0  0  0  0  0  0  0  0
   37.0620   21.7970   35.5020 N   0  0  0  0  0  0  0  0  0  0  0  0
   37.1060   21.2290   33.2290 N   0  0  0  0  0  0  0  0  0  0  0  0
   35.7800   21.1380   32.9250 C   0  0  0  0  0  0  0  0  0  0  0  0
   35.5650   20.2960   31.8900 N   0  0  0  0  0  0  0  0  0  0  0  0
   36.7660   19.8220   31.5040 C   0  0  0  0  0  0  0  0  0  0  0  0
   37.2340   18.9430   30.5260 C   0  0  0  0  0  0  0  0  0  0  0  0
   38.5510   18.6890   30.4200 N   0  0  0  0  0  0  0  0  0  0  0  0
   39.4220   19.2890   31.2610 C   0  0  0  0  0  0  0  0  0  0  0  0
   39.0100   20.1500   32.2260 N   0  0  0  0  0  0  0  0  0  0  0  0
   37.6840   20.4110   32.3400 C   0  0  0  0  0  0  0  0  0  0  0  0
   36.2070   18.3940   29.7220 N   0  0  0  0  0  0  0  0  0  0  0  0
   39.8600   24.9030   34.9850 C   0  0  0  0  0  0  0  0  0  0  0  0
   39.4790   26.2310   34.7180 C   0  0  0  0  0  0  0  0  0  0  0  0
   40.6460   26.9180   34.6020 N   0  0  0  0  0  0  0  0  0  0  0  0
   41.6540   26.0340   34.7940 C   0  0  0  0  0  0  0  0  0  0  0  0
   41.1870   24.8190   35.0240 N   0  0  0  0  0  0  0  0  0  0  0  0
   41.9820   23.6640   35.2650 C   0  0  0  0  0  0  0  0  0  0  0  0
   42.5290   23.0980   34.1130 C   0  0  0  0  0  0  0  0  0  0  0  0
   43.3280   21.9610   34.2200 C   0  0  0  0  0  0  0  0  0  0  0  0
   43.6000   21.3670   35.4580 C   0  0  0  0  0  0  0  0  0  0  0  0
   43.0390   21.9570   36.5830 C   0  0  0  0  0  0  0  0  0  0  0  0
   42.2460   23.0820   36.4990 C   0  0  0  0  0  0  0  0  0  0  0  0
   38.9157   23.2931   33.0880 H   0  0  0  0  0  0  0  0  0  0  0  0
   37.0231   22.3093   37.5514 H   0  0  0  0  0  0  0  0  0  0  0  0
   34.9847   21.6819   33.4558 H   0  0  0  0  0  0  0  0  0  0  0  0
   40.4960   19.0734   31.1607 H   0  0  0  0  0  0  0  0  0  0  0  0
   36.4412   17.7322   28.9683 H   0  0  0  0  0  0  0  0  0  0  0  0
   35.2253   18.6562   29.8905 H   0  0  0  0  0  0  0  0  0  0  0  0
   38.4573   26.6275   34.6236 H   0  0  0  0  0  0  0  0  0  0  0  0
   42.7225   26.2934   34.7626 H   0  0  0  0  0  0  0  0  0  0  0  0
   42.3312   23.5457   33.1279 H   0  0  0  0  0  0  0  0  0  0  0  0
   43.7559   21.5190   33.3081 H   0  0  0  0  0  0  0  0  0  0  0  0
   44.2319   20.4701   35.5365 H   0  0  0  0  0  0  0  0  0  0  0  0
   43.2330   21.5136   37.5708 H   0  0  0  0  0  0  0  0  0  0  0  0
   41.8203   23.5209   37.4134 H   0  0  0  0  0  0  0  0  0  0  0  0
  1  6  1  0
  2  1  2  0
  2  3  1  0
  3  4  2  0
  4  5  1  0
  6  5  2  0
  7  1  1  0
  8  7  1  0
  9  8  2  0
 10  9  1  0
 10 15  2  0
 11 10  1  0
 12 11  2  0
 12 13  1  0
 13 14  2  0
 14 15  1  0
 15  7  1  0
 16 11  1  0
 17 21  1  0
 17  3  1  0
 18 17  2  0
 19 18  1  0
 19 20  2  0
 20 21  1  0
 21 22  1  0
 22 27  2  0
 23 24  2  0
 23 22  1  0
 24 25  1  0
 25 26  2  0
 27 26  1  0
  2 28  1  0
  5 29  1  0
  8 30  1  0
 13 31  1  0
 16 32  1  0
 16 33  1  0
 18 34  1  0
 20 35  1  0
 23 36  1  0
 24 37  1  0
 25 38  1  0
 26 39  1  0
 27 40  1  0
M  ISO  8  28  14  29  14  30  14  31  14  34  14  35  14  36  14  37  14
M  ISO  3  38  14  39  14  40  14
M  END
>  <minimizedAffinity>  (1) 
-5.14134169

>  <minimizedRMSD>  (1) 
3.93535399

$$$$
