
     RDKit          3D

 59 63  0  0  1  0  0  0  0  0999 V2000
   38.4560   25.7540   33.6410 C   0  0  2  0  0  0  0  0  0  0  0  0
   39.7220   23.5550   36.3250 C   0  0  0  0  0  0  0  0  0  0  0  0
   38.7300   23.5950   37.2850 C   0  0  0  0  0  0  0  0  0  0  0  0
   37.6350   24.3850   36.9930 C   0  0  0  0  0  0  0  0  0  0  0  0
   37.5900   25.0590   35.8130 N   0  0  0  0  0  0  0  0  0  0  0  0
   38.5900   24.9940   34.8920 C   0  0  0  0  0  0  0  0  0  0  0  0
   39.6830   24.2170   35.1620 N   0  0  0  0  0  0  0  0  0  0  0  0
   38.9060   22.8400   38.4650 N   0  0  0  0  0  0  0  0  0  0  0  0
   39.3020   26.9960   33.6820 C   0  0  0  0  0  0  0  0  0  0  0  0
   37.0240   26.0690   33.4410 C   0  0  0  0  0  0  0  0  0  0  0  0
   36.7150   27.4050   33.0270 N   0  0  0  0  0  0  0  0  0  0  0  0
   36.1790   28.2030   33.9800 C   0  0  0  0  0  0  0  0  0  0  0  0
   35.8280   29.5170   33.7250 C   0  0  0  0  0  0  0  0  0  0  0  0
   36.0410   30.0060   32.4540 C   0  0  0  0  0  0  0  0  0  0  0  0
   35.6730   31.3570   32.2180 N   0  0  0  0  0  0  0  0  0  0  0  0
   36.5700   29.2140   31.5170 N   0  0  0  0  0  0  0  0  0  0  0  0
   36.8940   27.9430   31.8180 C   0  0  0  0  0  0  0  0  0  0  0  0
   37.3930   27.1760   30.9550 O   0  0  0  0  0  0  0  0  0  0  0  0
   35.2470   30.3370   34.8030 C   0  0  0  0  0  0  0  0  0  0  0  0
   36.0210   31.1780   35.5570 C   0  0  0  0  0  0  0  0  0  0  0  0
   35.4390   31.9300   36.5610 C   0  0  0  0  0  0  0  0  0  0  0  0
   34.1030   31.8030   36.7620 C   0  0  0  0  0  0  0  0  0  0  0  0
   33.2940   30.9750   36.0320 C   0  0  0  0  0  0  0  0  0  0  0  0
   33.8720   30.2170   35.0220 C   0  0  0  0  0  0  0  0  0  0  0  0
   38.9360   24.8720   32.4700 C   0  0  0  0  0  0  0  0  0  0  0  0
   37.9130   23.9020   32.0500 C   0  0  0  0  0  0  0  0  0  0  0  0
   36.6370   24.1090   31.6760 N   0  0  0  0  0  0  0  0  0  0  0  0
   35.8050   23.1230   31.3160 C   0  0  0  0  0  0  0  0  0  0  0  0
   36.2060   21.8380   31.3090 N   0  0  0  0  0  0  0  0  0  0  0  0
   37.4880   21.5500   31.6780 C   0  0  0  0  0  0  0  0  0  0  0  0
   37.8140   20.2240   31.6420 C   0  0  0  0  0  0  0  0  0  0  0  0
   39.0890   19.8650   32.0020 C   0  0  0  0  0  0  0  0  0  0  0  0
   39.9870   20.8450   32.3810 C   0  0  0  0  0  0  0  0  0  0  0  0
   39.5940   22.1670   32.3950 C   0  0  0  0  0  0  0  0  0  0  0  0
   38.3270   22.5820   32.0440 C   0  0  0  0  0  0  0  0  0  0  0  0
   40.6071   22.9351   36.5306 H   0  0  0  0  0  0  0  0  0  0  0  0
   36.8052   24.4682   37.7102 H   0  0  0  0  0  0  0  0  0  0  0  0
   38.1815   22.8521   39.1970 H   0  0  0  0  0  0  0  0  0  0  0  0
   39.7589   22.2771   38.5938 H   0  0  0  0  0  0  0  0  0  0  0  0
   39.4924   27.2756   34.7287 H   0  0  0  0  0  0  0  0  0  0  0  0
   40.2586   26.8050   33.1736 H   0  0  0  0  0  0  0  0  0  0  0  0
   38.7740   27.8162   33.1736 H   0  0  0  0  0  0  0  0  0  0  0  0
   36.6349   25.3831   32.6741 H   0  0  0  0  0  0  0  0  0  0  0  0
   36.5602   25.9569   34.4321 H   0  0  0  0  0  0  0  0  0  0  0  0
   36.0174   27.7943   34.9884 H   0  0  0  0  0  0  0  0  0  0  0  0
   35.8107   31.7730   31.2858 H   0  0  0  0  0  0  0  0  0  0  0  0
   35.2684   31.9210   32.9790 H   0  0  0  0  0  0  0  0  0  0  0  0
   37.1013   31.2551   35.3649 H   0  0  0  0  0  0  0  0  0  0  0  0
   36.0418   32.6117   37.1790 H   0  0  0  0  0  0  0  0  0  0  0  0
   33.6419   32.4024   37.5608 H   0  0  0  0  0  0  0  0  0  0  0  0
   32.2156   30.9116   36.2395 H   0  0  0  0  0  0  0  0  0  0  0  0
   33.2616   29.5379   34.4086 H   0  0  0  0  0  0  0  0  0  0  0  0
   39.1817   25.5201   31.6158 H   0  0  0  0  0  0  0  0  0  0  0  0
   39.8168   24.3080   32.8107 H   0  0  0  0  0  0  0  0  0  0  0  0
   34.7742   23.3680   31.0204 H   0  0  0  0  0  0  0  0  0  0  0  0
   37.0775   19.4672   31.3340 H   0  0  0  0  0  0  0  0  0  0  0  0
   39.3931   18.8079   31.9890 H   0  0  0  0  0  0  0  0  0  0  0  0
   41.0123   20.5713   32.6707 H   0  0  0  0  0  0  0  0  0  0  0  0
   40.3274   22.9275   32.7012 H   0  0  0  0  0  0  0  0  0  0  0  0
  1 25  1  6
  1  9  1  0
  1  6  1  0
  2  3  2  0
  3  8  1  0
  4  3  1  0
  5  4  2  0
  6  7  2  0
  6  5  1  0
  7  2  1  0
 10  1  1  0
 11 10  1  0
 11 12  1  0
 13 12  2  0
 13 19  1  0
 14 13  1  0
 15 14  1  0
 16 17  1  0
 16 14  2  0
 17 11  1  0
 18 17  2  0
 19 24  1  0
 19 20  2  0
 20 21  1  0
 21 22  2  0
 23 22  1  0
 24 23  2  0
 26 25  1  0
 27 26  2  0
 28 27  1  0
 29 28  2  0
 29 30  1  0
 30 35  2  0
 31 30  1  0
 31 32  2  0
 32 33  1  0
 33 34  2  0
 35 26  1  0
 35 34  1  0
  2 36  1  0
  4 37  1  0
  8 38  1  0
  8 39  1  0
  9 40  1  0
  9 41  1  0
  9 42  1  0
 10 43  1  0
 10 44  1  0
 12 45  1  0
 15 46  1  0
 15 47  1  0
 20 48  1  0
 21 49  1  0
 22 50  1  0
 23 51  1  0
 24 52  1  0
 25 53  1  0
 25 54  1  0
 28 55  1  0
 31 56  1  0
 32 57  1  0
 33 58  1  0
 34 59  1  0
M  END
>  <minimizedAffinity>  (1) 
-7.11734438

>  <minimizedRMSD>  (1) 
1.62600803

$$$$
