
     RDKit          3D

 39 42  0  0  1  0  0  0  0  0999 V2000
   39.4090   24.6120   33.7050 N   0  0  0  0  0  0  0  0  0  0  0  0
   40.5920   24.3310   33.1680 N   0  0  0  0  0  0  0  0  0  0  0  0
   40.7580   24.9840   32.0250 C   0  0  0  0  0  0  0  0  0  0  0  0
   39.6460   25.7200   31.8040 C   0  0  0  0  0  0  0  0  0  0  0  0
   38.7910   25.4920   32.8540 C   0  0  0  0  0  0  0  0  0  0  0  0
   37.4160   22.5870   36.0360 C   0  0  0  0  0  0  0  0  0  0  0  0
   38.0750   23.0040   34.8680 C   0  0  0  0  0  0  0  0  0  0  0  0
   38.7440   24.1980   34.8970 C   0  0  0  0  0  0  0  0  0  0  0  0
   38.7440   24.9320   36.0600 N   0  0  0  0  0  0  0  0  0  0  0  0
   38.1080   24.5070   37.1550 C   0  0  0  0  0  0  0  0  0  0  0  0
   37.4430   23.3350   37.1470 N   0  0  0  0  0  0  0  0  0  0  0  0
   37.9840   22.1420   33.7590 N   0  0  0  0  0  0  0  0  0  0  0  0
   36.9710   21.9210   32.8650 C   0  0  0  0  0  0  0  0  0  0  0  0
   37.3930   20.9800   31.9760 N   0  0  0  0  0  0  0  0  0  0  0  0
   38.6530   20.6290   32.3200 C   0  0  0  0  0  0  0  0  0  0  0  0
   38.9890   21.3550   33.4170 N   0  0  0  0  0  0  0  0  0  0  0  0
   37.4370   26.1200   32.9760 C   0  0  2  0  0  0  0  0  0  0  0  0
   36.4140   25.4170   32.1290 C   0  0  0  0  0  0  0  0  0  0  0  0
   37.5810   27.5860   32.6350 C   0  0  0  0  0  0  0  0  0  0  0  0
   36.2520   28.2170   32.8310 C   0  0  0  0  0  0  0  0  0  0  0  0
   36.1040   28.6030   34.1730 C   0  0  0  0  0  0  0  0  0  0  0  0
   34.8760   29.1830   34.3120 N   0  0  0  0  0  0  0  0  0  0  0  0
   34.2780   29.1580   33.1040 C   0  0  0  0  0  0  0  0  0  0  0  0
   35.1240   28.5740   32.2350 N   0  0  0  0  0  0  0  0  0  0  0  0
   41.6429   24.9351   31.3734 H   0  0  0  0  0  0  0  0  0  0  0  0
   39.4605   26.3791   30.9431 H   0  0  0  0  0  0  0  0  0  0  0  0
   36.8697   21.6322   36.0386 H   0  0  0  0  0  0  0  0  0  0  0  0
   38.1272   25.1179   38.0696 H   0  0  0  0  0  0  0  0  0  0  0  0
   35.9889   22.4165   32.8649 H   0  0  0  0  0  0  0  0  0  0  0  0
   39.2878   19.8920   31.8063 H   0  0  0  0  0  0  0  0  0  0  0  0
   37.0604   26.0226   34.0049 H   0  0  0  0  0  0  0  0  0  0  0  0
   35.6826   24.9144   32.7790 H   0  0  0  0  0  0  0  0  0  0  0  0
   35.8966   26.1512   31.4940 H   0  0  0  0  0  0  0  0  0  0  0  0
   36.9139   24.6708   31.4940 H   0  0  0  0  0  0  0  0  0  0  0  0
   37.9010   27.6995   31.5887 H   0  0  0  0  0  0  0  0  0  0  0  0
   38.3370   28.0627   33.2763 H   0  0  0  0  0  0  0  0  0  0  0  0
   36.8470   28.4627   34.9719 H   0  0  0  0  0  0  0  0  0  0  0  0
   33.2758   29.5462   32.8699 H   0  0  0  0  0  0  0  0  0  0  0  0
   34.9208   28.4242   31.2364 H   0  0  0  0  0  0  0  0  0  0  0  0
  1  8  1  0
  2  1  1  0
  3  2  2  0
  4  3  1  0
  4  5  2  0
  5 17  1  0
  5  1  1  0
  6 11  2  0
  7  8  2  0
  7  6  1  0
  8  9  1  0
  9 10  2  0
 11 10  1  0
 12  7  1  0
 13 12  1  0
 14 15  1  0
 14 13  2  0
 15 16  2  0
 16 12  1  0
 18 17  1  0
 19 20  1  0
 19 17  1  0
 20 21  2  0
 21 22  1  0
 23 22  2  0
 24 20  1  0
 24 23  1  0
  3 25  1  0
  4 26  1  0
  6 27  1  0
 10 28  1  0
 13 29  1  0
 15 30  1  0
 17 31  1  1
 18 32  1  0
 18 33  1  0
 18 34  1  0
 19 35  1  0
 19 36  1  0
 21 37  1  0
 23 38  1  0
 24 39  1  0
M  ISO  8  25  14  26  14  27  14  28  14  29  14  30  14  31   8  32   8
M  ISO  7  33   8  34   8  35   8  36   8  37  14  38  14  39   9
M  END
>  <minimizedAffinity>  (1) 
-4.36483574

>  <minimizedRMSD>  (1) 
1.03016496

$$$$
