
     RDKit          3D

 30 33  0  0  0  0  0  0  0  0999 V2000
   37.4860   23.1240   36.7810 C   0  0  0  0  0  0  0  0  0  0  0  0
   38.3830   22.7810   35.7520 C   0  0  0  0  0  0  0  0  0  0  0  0
   39.7320   22.6810   36.0800 C   0  0  0  0  0  0  0  0  0  0  0  0
   40.1220   22.9190   37.3770 N   0  0  0  0  0  0  0  0  0  0  0  0
   39.2280   23.2430   38.3200 C   0  0  0  0  0  0  0  0  0  0  0  0
   37.9200   23.3450   38.0250 N   0  0  0  0  0  0  0  0  0  0  0  0
   37.8310   22.5640   34.4840 N   0  0  0  0  0  0  0  0  0  0  0  0
   37.7050   23.3890   33.4050 C   0  0  0  0  0  0  0  0  0  0  0  0
   37.0910   22.6940   32.4060 N   0  0  0  0  0  0  0  0  0  0  0  0
   36.8440   21.4570   32.8760 C   0  0  0  0  0  0  0  0  0  0  0  0
   37.3050   21.4030   34.1460 N   0  0  0  0  0  0  0  0  0  0  0  0
   40.6370   22.3370   35.0300 N   0  0  0  0  0  0  0  0  0  0  0  0
   41.0990   21.1530   34.6020 N   0  0  0  0  0  0  0  0  0  0  0  0
   41.9380   21.3400   33.5860 C   0  0  0  0  0  0  0  0  0  0  0  0
   42.0210   22.6720   33.3530 C   0  0  0  0  0  0  0  0  0  0  0  0
   41.1910   23.2890   34.2760 C   0  0  0  0  0  0  0  0  0  0  0  0
   41.0750   24.7600   34.2560 C   0  0  0  0  0  0  0  0  0  0  0  0
   40.2420   25.6320   34.9450 C   0  0  0  0  0  0  0  0  0  0  0  0
   40.4110   26.9500   34.6620 C   0  0  0  0  0  0  0  0  0  0  0  0
   41.3140   27.4340   33.7770 C   0  0  0  0  0  0  0  0  0  0  0  0
   42.0770   25.8210   33.2250 S   0  0  0  0  0  0  0  0  0  0  0  0
   36.4124   23.2113   36.5577 H   0  0  0  0  0  0  0  0  0  0  0  0
   39.5682   23.4282   39.3496 H   0  0  0  0  0  0  0  0  0  0  0  0
   38.0410   24.4350   33.3505 H   0  0  0  0  0  0  0  0  0  0  0  0
   36.3557   20.6386   32.3266 H   0  0  0  0  0  0  0  0  0  0  0  0
   42.4702   20.5520   33.0330 H   0  0  0  0  0  0  0  0  0  0  0  0
   42.6287   23.1675   32.5815 H   0  0  0  0  0  0  0  0  0  0  0  0
   39.4952   25.2790   35.6714 H   0  0  0  0  0  0  0  0  0  0  0  0
   39.7704   27.6733   35.1878 H   0  0  0  0  0  0  0  0  0  0  0  0
   41.5330   28.4684   33.4736 H   0  0  0  0  0  0  0  0  0  0  0  0
  1  6  2  0
  2  3  2  0
  2  1  1  0
  3  4  1  0
  4  5  2  0
  6  5  1  0
  7  2  1  0
  8  7  1  0
  9 10  1  0
  9  8  2  0
 10 11  2  0
 11  7  1  0
 12  3  1  0
 13 12  1  0
 14 13  2  0
 15 14  1  0
 15 16  2  0
 16 12  1  0
 17 16  1  0
 17 18  2  0
 19 18  1  0
 20 19  2  0
 21 20  1  0
 21 17  1  0
  1 22  1  0
  5 23  1  0
  8 24  1  0
 10 25  1  0
 14 26  1  0
 15 27  1  0
 18 28  1  0
 19 29  1  0
 20 30  1  0
M  ISO  8  22  14  23  14  24  14  25  14  26  14  27  14  28  14  29  14
M  ISO  1  30  14
M  END
>  <minimizedAffinity>  (1) 
-3.93186021

>  <minimizedRMSD>  (1) 
1.12359202

$$$$
