
     RDKit          3D

 42 46  0  0  1  0  0  0  0  0999 V2000
   40.5890   27.0440   31.8850 C   0  0  0  0  0  0  0  0  0  0  0  0
   40.9100   27.4530   33.1010 N   0  0  0  0  0  0  0  0  0  0  0  0
   40.9730   26.4550   33.9120 O   0  0  0  0  0  0  0  0  0  0  0  0
   40.6840   25.3640   33.2070 C   0  0  0  0  0  0  0  0  0  0  0  0
   40.4370   25.6870   31.9390 N   0  0  0  0  0  0  0  0  0  0  0  0
   35.9270   26.6080   31.2090 C   0  0  0  0  0  0  0  0  0  0  0  0
   35.3770   27.6750   31.9570 C   0  0  0  0  0  0  0  0  0  0  0  0
   36.1060   28.8350   32.1210 C   0  0  0  0  0  0  0  0  0  0  0  0
   37.3410   28.8880   31.5410 N   0  0  0  0  0  0  0  0  0  0  0  0
   37.8360   27.8570   30.8360 C   0  0  0  0  0  0  0  0  0  0  0  0
   37.1450   26.7320   30.6680 N   0  0  0  0  0  0  0  0  0  0  0  0
   39.1320   28.0320   30.2800 N   0  0  0  0  0  0  0  0  0  0  0  0
   39.1350   28.6480   29.1210 N   0  0  0  0  0  0  0  0  0  0  0  0
   40.4040   28.7630   28.6830 C   0  0  0  0  0  0  0  0  0  0  0  0
   41.2150   28.1970   29.6050 C   0  0  0  0  0  0  0  0  0  0  0  0
   40.3860   27.7390   30.6140 C   0  0  0  0  0  0  0  0  0  0  0  0
   35.1760   25.4060   31.0370 N   0  0  0  0  0  0  0  0  0  0  0  0
   40.6340   23.9720   33.7290 C   0  0  2  0  0  0  0  0  0  0  0  0
   40.9320   22.8250   32.8310 C   0  0  0  0  0  0  0  0  0  0  0  0
   39.5000   23.0670   33.3490 C   0  0  1  0  0  0  0  0  0  0  0  0
   39.0200   22.0070   34.2810 C   0  0  0  0  0  0  0  0  0  0  0  0
   37.8200   22.4100   35.1110 C   0  0  0  0  0  0  0  0  0  0  0  0
   38.3540   22.7590   36.4720 C   0  0  0  0  0  0  0  0  0  0  0  0
   39.6040   22.5650   36.9210 N   0  0  0  0  0  0  0  0  0  0  0  0
   39.7150   22.9870   38.1460 O   0  0  0  0  0  0  0  0  0  0  0  0
   38.5650   23.4680   38.5550 C   0  0  0  0  0  0  0  0  0  0  0  0
   37.7230   23.3260   37.5150 N   0  0  0  0  0  0  0  0  0  0  0  0
   34.3765   27.5809   32.4043 H   0  0  0  0  0  0  0  0  0  0  0  0
   35.7079   29.6838   32.6964 H   0  0  0  0  0  0  0  0  0  0  0  0
   40.7237   29.2341   27.7418 H   0  0  0  0  0  0  0  0  0  0  0  0
   42.3112   28.1169   29.5618 H   0  0  0  0  0  0  0  0  0  0  0  0
   35.5709   24.6253   30.4934 H   0  0  0  0  0  0  0  0  0  0  0  0
   34.2393   25.3195   31.4565 H   0  0  0  0  0  0  0  0  0  0  0  0
   41.0479   24.3201   34.6869 H   0  0  0  0  0  0  0  0  0  0  0  0
   41.5163   21.9704   33.2028 H   0  0  0  0  0  0  0  0  0  0  0  0
   41.3956   22.7076   31.8404 H   0  0  0  0  0  0  0  0  0  0  0  0
   38.4942   23.2622   32.9486 H   0  0  0  0  0  0  0  0  0  0  0  0
   38.7475   21.1223   33.6868 H   0  0  0  0  0  0  0  0  0  0  0  0
   39.8410   21.8094   34.9860 H   0  0  0  0  0  0  0  0  0  0  0  0
   37.3201   23.2809   34.6620 H   0  0  0  0  0  0  0  0  0  0  0  0
   37.0782   21.5996   35.1656 H   0  0  0  0  0  0  0  0  0  0  0  0
   38.3368   23.8975   39.5416 H   0  0  0  0  0  0  0  0  0  0  0  0
  1  5  1  0
  1  2  2  0
  2  3  1  0
  4 18  1  0
  4  3  1  0
  5  4  2  0
  6  7  2  0
  7  8  1  0
  9  8  2  0
 10  9  1  0
 11 10  2  0
 11  6  1  0
 12 16  1  0
 12 10  1  0
 13 12  1  0
 14 13  2  0
 14 15  1  0
 15 16  2  0
 16  1  1  0
 17  6  1  0
 19 20  1  0
 19 18  1  0
 20 18  1  0
 20 21  1  0
 21 22  1  0
 22 23  1  0
 23 24  2  0
 23 27  1  0
 24 25  1  0
 25 26  1  0
 27 26  2  0
  7 28  1  0
  8 29  1  0
 14 30  1  0
 15 31  1  0
 17 32  1  0
 17 33  1  0
 18 34  1  1
 19 35  1  0
 19 36  1  0
 20 37  1  6
 21 38  1  0
 21 39  1  0
 22 40  1  0
 22 41  1  0
 26 42  1  0
M  ISO  8  28  14  29  14  30  14  31  14  34  13  35  13  36  13  37  13
M  ISO  5  38   8  39   8  40   8  41   8  42  14
M  END
>  <minimizedAffinity>  (1) 
-4.6527586

>  <minimizedRMSD>  (1) 
3.11390257

$$$$
