
     RDKit          3D

 36 38  0  0  1  0  0  0  0  0999 V2000
   38.3220   25.4750   34.5380 N   0  0  0  0  0  0  0  0  0  0  0  0
   37.2870   26.4200   34.7500 C   0  0  0  0  0  0  0  0  0  0  0  0
   37.2260   27.2470   33.4990 C   0  0  0  0  0  0  0  0  0  0  0  0
   38.2870   26.6490   32.5940 C   0  0  0  0  0  0  0  0  0  0  0  0
   38.2460   25.1870   33.1080 C   0  0  2  0  0  0  0  0  0  0  0  0
   38.1310   24.2240   35.2060 C   0  0  0  0  0  0  0  0  0  0  0  0
   41.7900   23.5080   35.8990 C   0  0  0  0  0  0  0  0  0  0  0  0
   40.6450   24.0110   35.2890 C   0  0  0  0  0  0  0  0  0  0  0  0
   39.4000   23.7080   35.8240 C   0  0  0  0  0  0  0  0  0  0  0  0
   39.3630   22.9160   36.9480 N   0  0  0  0  0  0  0  0  0  0  0  0
   40.4970   22.4500   37.5060 C   0  0  0  0  0  0  0  0  0  0  0  0
   41.6910   22.7450   36.9860 N   0  0  0  0  0  0  0  0  0  0  0  0
   37.1040   24.5550   32.7470 O   0  0  0  0  0  0  0  0  0  0  0  0
   37.0720   23.3260   32.1400 C   0  0  0  0  0  0  0  0  0  0  0  0
   35.7690   22.9900   31.7920 C   0  0  0  0  0  0  0  0  0  0  0  0
   35.4550   21.7910   31.1600 C   0  0  0  0  0  0  0  0  0  0  0  0
   36.4670   20.8870   30.8590 C   0  0  0  0  0  0  0  0  0  0  0  0
   37.7620   21.2310   31.2110 C   0  0  0  0  0  0  0  0  0  0  0  0
   38.0630   22.4220   31.8370 C   0  0  0  0  0  0  0  0  0  0  0  0
   36.3284   25.9071   34.9173 H   0  0  0  0  0  0  0  0  0  0  0  0
   37.4812   27.0411   35.6369 H   0  0  0  0  0  0  0  0  0  0  0  0
   36.2321   27.1742   33.0333 H   0  0  0  0  0  0  0  0  0  0  0  0
   37.3989   28.3153   33.6958 H   0  0  0  0  0  0  0  0  0  0  0  0
   39.2718   27.1137   32.7496 H   0  0  0  0  0  0  0  0  0  0  0  0
   38.1159   26.7767   31.5149 H   0  0  0  0  0  0  0  0  0  0  0  0
   39.0193   24.5060   32.7229 H   0  0  0  0  0  0  0  0  0  0  0  0
   37.3802   24.3573   35.9988 H   0  0  0  0  0  0  0  0  0  0  0  0
   37.7986   23.4899   34.4572 H   0  0  0  0  0  0  0  0  0  0  0  0
   42.7807   23.7415   35.4818 H   0  0  0  0  0  0  0  0  0  0  0  0
   40.7253   24.6424   34.3919 H   0  0  0  0  0  0  0  0  0  0  0  0
   40.4386   21.8169   38.4036 H   0  0  0  0  0  0  0  0  0  0  0  0
   34.9583   23.6963   32.0242 H   0  0  0  0  0  0  0  0  0  0  0  0
   34.4115   21.5597   30.8999 H   0  0  0  0  0  0  0  0  0  0  0  0
   36.2474   19.9322   30.3590 H   0  0  0  0  0  0  0  0  0  0  0  0
   38.5783   20.5297   30.9832 H   0  0  0  0  0  0  0  0  0  0  0  0
   39.1069   22.6515   32.0968 H   0  0  0  0  0  0  0  0  0  0  0  0
  1  2  1  0
  1  6  1  0
  3  2  1  0
  4  5  1  0
  4  3  1  0
  5  1  1  0
  6  9  1  0
  7 12  2  0
  8  9  2  0
  8  7  1  0
  9 10  1  0
 10 11  2  0
 12 11  1  0
 13  5  1  0
 14 13  1  0
 15 14  2  0
 16 15  1  0
 17 16  2  0
 17 18  1  0
 18 19  2  0
 19 14  1  0
  2 20  1  0
  2 21  1  0
  3 22  1  0
  3 23  1  0
  4 24  1  0
  4 25  1  0
  5 26  1  6
  6 27  1  0
  6 28  1  0
  7 29  1  0
  8 30  1  0
 11 31  1  0
 15 32  1  0
 16 33  1  0
 17 34  1  0
 18 35  1  0
 19 36  1  0
M  ISO  8  20  13  21  13  22  13  23  13  24  13  25  13  26  13  27   8
M  ISO  8  28   8  29  14  30  14  31  14  32  14  33  14  34  14  35  14
M  ISO  1  36  14
M  END
>  <minimizedAffinity>  (1) 
-4.36013126

>  <minimizedRMSD>  (1) 
5.25323391

$$$$
