
     RDKit          3D

 46 50  0  0  0  0  0  0  0  0999 V2000
   36.3470   28.3020   33.6880 C   0  0  0  0  0  0  0  0  0  0  0  0
   35.5950   29.1410   34.5330 C   0  0  0  0  0  0  0  0  0  0  0  0
   34.8220   30.0620   33.8960 C   0  0  0  0  0  0  0  0  0  0  0  0
   34.8320   30.0970   32.5190 C   0  0  0  0  0  0  0  0  0  0  0  0
   36.0130   28.7470   32.0350 S   0  0  0  0  0  0  0  0  0  0  0  0
   37.0520   26.5230   35.3520 C   0  0  0  0  0  0  0  0  0  0  0  0
   37.2410   27.2700   34.2040 C   0  0  0  0  0  0  0  0  0  0  0  0
   38.3990   27.0660   33.4180 C   0  0  0  0  0  0  0  0  0  0  0  0
   39.2740   26.1250   33.8550 N   0  0  0  0  0  0  0  0  0  0  0  0
   39.0560   25.4030   34.9980 C   0  0  0  0  0  0  0  0  0  0  0  0
   37.9540   25.6200   35.7150 N   0  0  0  0  0  0  0  0  0  0  0  0
   40.0690   24.4200   35.3810 C   0  0  0  0  0  0  0  0  0  0  0  0
   41.2910   24.5830   34.8070 C   0  0  0  0  0  0  0  0  0  0  0  0
   42.2970   23.1660   35.5150 S   0  0  0  0  0  0  0  0  0  0  0  0
   40.7390   22.6070   36.5150 C   0  0  0  0  0  0  0  0  0  0  0  0
   40.0390   23.3970   36.1710 N   0  0  0  0  0  0  0  0  0  0  0  0
   40.7560   21.4800   37.3620 N   0  0  0  0  0  0  0  0  0  0  0  0
   34.1840   30.8730   31.5220 C   0  0  0  0  0  0  0  0  0  0  0  0
   34.7880   31.6460   30.8070 O   0  0  0  0  0  0  0  0  0  0  0  0
   32.7450   30.7500   31.3380 N   0  0  0  0  0  0  0  0  0  0  0  0
   33.7620   31.2710   34.7010 S   0  0  0  0  0  0  0  0  0  0  0  0
   34.7890   32.6580   35.1410 C   0  0  0  0  0  0  0  0  0  0  0  0
   35.9990   32.6300   34.4370 C   0  0  0  0  0  0  0  0  0  0  0  0
   36.9610   33.6250   34.6260 C   0  0  0  0  0  0  0  0  0  0  0  0
   36.7050   34.6330   35.5140 C   0  0  0  0  0  0  0  0  0  0  0  0
   35.5250   34.6760   36.2150 C   0  0  0  0  0  0  0  0  0  0  0  0
   35.1730   35.6310   37.1340 C   0  0  0  0  0  0  0  0  0  0  0  0
   33.9660   35.6000   37.8110 C   0  0  0  0  0  0  0  0  0  0  0  0
   33.0370   34.5780   37.5850 C   0  0  0  0  0  0  0  0  0  0  0  0
   33.3680   33.6050   36.6640 C   0  0  0  0  0  0  0  0  0  0  0  0
   34.5810   33.6930   36.0240 C   0  0  0  0  0  0  0  0  0  0  0  0
   35.6300   29.0577   35.6293 H   0  0  0  0  0  0  0  0  0  0  0  0
   36.1522   26.6775   35.9656 H   0  0  0  0  0  0  0  0  0  0  0  0
   38.5814   27.6413   32.4984 H   0  0  0  0  0  0  0  0  0  0  0  0
   41.6127   25.3596   34.0975 H   0  0  0  0  0  0  0  0  0  0  0  0
   39.9068   21.2118   37.8794 H   0  0  0  0  0  0  0  0  0  0  0  0
   41.6177   20.9249   37.4633 H   0  0  0  0  0  0  0  0  0  0  0  0
   32.2683   31.3098   30.6167 H   0  0  0  0  0  0  0  0  0  0  0  0
   32.2036   30.1032   31.9291 H   0  0  0  0  0  0  0  0  0  0  0  0
   36.1946   31.8139   33.7259 H   0  0  0  0  0  0  0  0  0  0  0  0
   37.9094   33.5982   34.0694 H   0  0  0  0  0  0  0  0  0  0  0  0
   37.4560   35.4216   35.6692 H   0  0  0  0  0  0  0  0  0  0  0  0
   35.8755   36.4518   37.3408 H   0  0  0  0  0  0  0  0  0  0  0  0
   33.7332   36.3916   38.5385 H   0  0  0  0  0  0  0  0  0  0  0  0
   32.0775   34.5512   38.1222 H   0  0  0  0  0  0  0  0  0  0  0  0
   32.6764   32.7776   36.4470 H   0  0  0  0  0  0  0  0  0  0  0  0
  1  7  1  0
  1  2  2  0
  3  2  1  0
  3 21  1  0
  4  3  2  0
  5  4  1  0
  5  1  1  0
  6 11  2  0
  7  6  1  0
  8  9  1  0
  8  7  2  0
  9 10  2  0
 10 12  1  0
 10 11  1  0
 12 16  1  0
 13 12  2  0
 13 14  1  0
 14 15  1  0
 15 17  1  0
 16 15  2  0
 18  4  1  0
 19 18  2  0
 20 18  1  0
 21 22  1  0
 22 31  2  0
 23 24  2  0
 23 22  1  0
 24 25  1  0
 25 26  2  0
 26 27  1  0
 27 28  2  0
 29 28  1  0
 30 29  2  0
 31 26  1  0
 31 30  1  0
  2 32  1  0
  6 33  1  0
  8 34  1  0
 13 35  1  0
 17 36  1  0
 17 37  1  0
 20 38  1  0
 20 39  1  0
 23 40  1  0
 24 41  1  0
 25 42  1  0
 27 43  1  0
 28 44  1  0
 29 45  1  0
 30 46  1  0
M  ISO  8  32  14  33  14  34  14  35  14  40  14  41  14  42  14  43  14
M  ISO  3  44  14  45  14  46  14
M  END
>  <minimizedAffinity>  (1) 
-5.89582586

>  <minimizedRMSD>  (1) 
2.4806459

$$$$
