
     RDKit          3D

 32 35  0  0  1  0  0  0  0  0999 V2000
   38.1520   23.9410   34.5420 C   0  0  0  0  0  0  0  0  0  0  0  0
   38.3080   25.1880   33.9390 C   0  0  0  0  0  0  0  0  0  0  0  0
   37.8990   24.9640   32.6480 N   0  0  0  0  0  0  0  0  0  0  0  0
   37.5450   23.7050   32.5400 C   0  0  0  0  0  0  0  0  0  0  0  0
   37.6860   23.0220   33.7010 N   0  0  0  0  0  0  0  0  0  0  0  0
   38.4590   23.6620   35.9380 C   0  0  0  0  0  0  0  0  0  0  0  0
   39.6770   23.0620   36.2900 C   0  0  0  0  0  0  0  0  0  0  0  0
   39.9230   22.8140   37.6550 C   0  0  0  0  0  0  0  0  0  0  0  0
   38.9810   23.1640   38.5480 N   0  0  0  0  0  0  0  0  0  0  0  0
   37.8060   23.7450   38.1770 C   0  0  0  0  0  0  0  0  0  0  0  0
   37.5420   23.9940   36.8880 N   0  0  0  0  0  0  0  0  0  0  0  0
   37.3750   21.6340   33.8760 C   0  0  1  0  0  0  0  0  0  0  0  0
   36.2010   21.1700   34.5930 C   0  0  0  0  0  0  0  0  0  0  0  0
   36.1360   21.2140   33.0900 C   0  0  2  0  0  0  0  0  0  0  0  0
   36.1730   19.8730   32.4310 C   0  0  0  0  0  0  0  0  0  0  0  0
   35.4090   18.8720   33.0040 C   0  0  0  0  0  0  0  0  0  0  0  0
   35.4920   17.6590   32.3400 C   0  0  0  0  0  0  0  0  0  0  0  0
   36.2340   17.4640   31.2530 N   0  0  0  0  0  0  0  0  0  0  0  0
   36.9620   18.4650   30.7240 C   0  0  0  0  0  0  0  0  0  0  0  0
   36.9240   19.6860   31.3320 N   0  0  0  0  0  0  0  0  0  0  0  0
   38.6707   26.1241   34.3885 H   0  0  0  0  0  0  0  0  0  0  0  0
   37.1741   23.2535   31.6080 H   0  0  0  0  0  0  0  0  0  0  0  0
   40.4182   22.7930   35.5230 H   0  0  0  0  0  0  0  0  0  0  0  0
   40.8629   22.3454   37.9820 H   0  0  0  0  0  0  0  0  0  0  0  0
   37.0655   24.0127   38.9451 H   0  0  0  0  0  0  0  0  0  0  0  0
   38.4328   21.3523   33.9840 H   0  0  0  0  0  0  0  0  0  0  0  0
   36.2269   20.1985   35.1082 H   0  0  0  0  0  0  0  0  0  0  0  0
   35.5806   21.5902   35.3983 H   0  0  0  0  0  0  0  0  0  0  0  0
   35.5046   21.6814   32.3201 H   0  0  0  0  0  0  0  0  0  0  0  0
   34.7933   19.0249   33.9026 H   0  0  0  0  0  0  0  0  0  0  0  0
   34.9127   16.8105   32.7330 H   0  0  0  0  0  0  0  0  0  0  0  0
   37.5726   18.3027   29.8236 H   0  0  0  0  0  0  0  0  0  0  0  0
  1  6  1  0
  2  1  2  0
  3  2  1  0
  4  3  2  0
  4  5  1  0
  5 12  1  0
  5  1  1  0
  6  7  2  0
  6 11  1  0
  7  8  1  0
  8  9  2  0
 10  9  1  0
 11 10  2  0
 12 13  1  0
 14 12  1  0
 14 13  1  0
 15 16  2  0
 15 14  1  0
 17 16  1  0
 18 17  2  0
 19 18  1  0
 19 20  2  0
 20 15  1  0
  2 21  1  0
  4 22  1  0
  7 23  1  0
  8 24  1  0
 10 25  1  0
 12 26  1  6
 13 27  1  0
 13 28  1  0
 14 29  1  1
 16 30  1  0
 17 31  1  0
 19 32  1  0
M  ISO  8  21  14  22  14  23  14  24  14  25  14  26  13  27  13  28  13
M  ISO  4  29  13  30  14  31  14  32  14
M  END
>  <minimizedAffinity>  (1) 
-4.8623538

>  <minimizedRMSD>  (1) 
0.980487525

$$$$
