
     RDKit          3D

 35 37  0  0  1  0  0  0  0  0999 V2000
   40.2190   25.0390   35.2640 C   0  0  0  0  0  0  0  0  0  0  0  0
   38.9210   24.2170   35.1490 C   0  0  2  0  0  0  0  0  0  0  0  0
   38.0260   24.3520   36.3530 C   0  0  0  0  0  0  0  0  0  0  0  0
   38.6450   23.0590   35.9130 C   0  0  1  0  0  0  0  0  0  0  0  0
   37.5600   22.1770   35.2860 C   0  0  0  0  0  0  0  0  0  0  0  0
   36.6160   21.5560   36.0500 C   0  0  0  0  0  0  0  0  0  0  0  0
   35.6340   20.7400   35.5660 C   0  0  0  0  0  0  0  0  0  0  0  0
   35.5730   20.5160   34.2040 C   0  0  0  0  0  0  0  0  0  0  0  0
   36.5280   21.1490   33.4590 C   0  0  0  0  0  0  0  0  0  0  0  0
   37.4830   21.9450   33.9560 N   0  0  0  0  0  0  0  0  0  0  0  0
   41.2920   24.2750   34.6580 C   0  0  0  0  0  0  0  0  0  0  0  0
   44.1920   23.7120   36.6840 C   0  0  0  0  0  0  0  0  0  0  0  0
   42.9160   23.4430   36.1210 C   0  0  0  0  0  0  0  0  0  0  0  0
   42.5350   24.4360   35.3120 C   0  0  0  0  0  0  0  0  0  0  0  0
   43.3220   25.5630   35.0860 N   0  0  0  0  0  0  0  0  0  0  0  0
   44.5030   25.7460   35.6460 C   0  0  0  0  0  0  0  0  0  0  0  0
   44.9360   24.8080   36.4520 N   0  0  0  0  0  0  0  0  0  0  0  0
   42.3360   22.2090   36.5160 C   0  0  0  0  0  0  0  0  0  0  0  0
   41.3130   22.3790   37.4830 F   0  0  0  0  0  0  0  0  0  0  0  0
   42.9750   21.3480   37.3290 F   0  0  0  0  0  0  0  0  0  0  0  0
   41.4350   21.5930   35.6570 F   0  0  0  0  0  0  0  0  0  0  0  0
   40.1009   25.9978   34.7379 H   0  0  0  0  0  0  0  0  0  0  0  0
   40.4473   25.2445   36.3203 H   0  0  0  0  0  0  0  0  0  0  0  0
   38.8800   24.3675   34.0601 H   0  0  0  0  0  0  0  0  0  0  0  0
   38.3806   24.8629   37.2604 H   0  0  0  0  0  0  0  0  0  0  0  0
   37.0113   24.7241   36.5575 H   0  0  0  0  0  0  0  0  0  0  0  0
   39.2879   22.2914   36.3685 H   0  0  0  0  0  0  0  0  0  0  0  0
   36.6482   21.7251   37.1365 H   0  0  0  0  0  0  0  0  0  0  0  0
   34.9072   20.2711   36.2457 H   0  0  0  0  0  0  0  0  0  0  0  0
   34.8066   19.8710   33.7494 H   0  0  0  0  0  0  0  0  0  0  0  0
   36.5108   20.9929   32.3703 H   0  0  0  0  0  0  0  0  0  0  0  0
   41.0195   23.2096   34.6845 H   0  0  0  0  0  0  0  0  0  0  0  0
   41.4153   24.6473   33.6303 H   0  0  0  0  0  0  0  0  0  0  0  0
   44.6077   22.9585   37.3692 H   0  0  0  0  0  0  0  0  0  0  0  0
   45.0990   26.6483   35.4445 H   0  0  0  0  0  0  0  0  0  0  0  0
  2  1  1  0
  2  4  1  0
  2  3  1  0
  4  3  1  0
  5  4  1  0
  5  6  2  0
  7  6  1  0
  8  7  2  0
  9 10  2  0
  9  8  1  0
 10  5  1  0
 11  1  1  0
 11 14  1  0
 13 18  1  0
 13 12  2  0
 14 13  1  0
 15 14  2  0
 15 16  1  0
 16 17  2  0
 17 12  1  0
 18 20  1  0
 18 19  1  0
 21 18  1  0
  1 22  1  0
  1 23  1  0
  2 24  1  6
  3 25  1  0
  3 26  1  0
  4 27  1  1
  6 28  1  0
  7 29  1  0
  8 30  1  0
  9 31  1  0
 11 32  1  0
 11 33  1  0
 12 34  1  0
 16 35  1  0
M  ISO  8  22   8  23   8  24  13  25  13  26  13  27  13  28  14  29  14
M  ISO  6  30  14  31  14  32   8  33   8  34  14  35  14
M  END
>  <minimizedAffinity>  (1) 
-4.56120825

>  <minimizedRMSD>  (1) 
2.33583546

$$$$
