
     RDKit          3D

 34 36  0  0  1  0  0  0  0  0999 V2000
   37.6900   25.4860   34.3610 N   0  0  0  0  0  0  0  0  0  0  0  0
   37.1750   25.4260   33.0350 C   0  0  0  0  0  0  0  0  0  0  0  0
   36.7540   26.8450   32.7140 C   0  0  0  0  0  0  0  0  0  0  0  0
   37.1080   27.6500   33.9800 C   0  0  0  0  0  0  0  0  0  0  0  0
   38.2780   26.7880   34.4550 C   0  0  2  0  0  0  0  0  0  0  0  0
   39.4850   26.9940   33.6390 C   0  0  0  0  0  0  0  0  0  0  0  0
   40.7380   27.0230   34.2650 C   0  0  0  0  0  0  0  0  0  0  0  0
   41.9500   27.2070   33.6310 C   0  0  0  0  0  0  0  0  0  0  0  0
   41.9090   27.3750   32.2630 C   0  0  0  0  0  0  0  0  0  0  0  0
   40.6620   27.3460   31.6470 C   0  0  0  0  0  0  0  0  0  0  0  0
   39.5120   27.1620   32.3280 N   0  0  0  0  0  0  0  0  0  0  0  0
   38.7310   24.5100   34.6130 C   0  0  0  0  0  0  0  0  0  0  0  0
   37.9240   24.1650   38.3000 C   0  0  0  0  0  0  0  0  0  0  0  0
   37.8450   24.5790   36.9740 C   0  0  0  0  0  0  0  0  0  0  0  0
   38.7730   24.0970   36.0490 C   0  0  0  0  0  0  0  0  0  0  0  0
   39.7310   23.2220   36.5080 N   0  0  0  0  0  0  0  0  0  0  0  0
   39.7850   22.8370   37.7990 C   0  0  0  0  0  0  0  0  0  0  0  0
   38.8890   23.3060   38.6800 N   0  0  0  0  0  0  0  0  0  0  0  0
   37.9509   25.0848   32.3339 H   0  0  0  0  0  0  0  0  0  0  0  0
   36.3385   24.7169   32.9481 H   0  0  0  0  0  0  0  0  0  0  0  0
   37.3073   27.2269   31.8434 H   0  0  0  0  0  0  0  0  0  0  0  0
   35.6864   26.9163   32.4586 H   0  0  0  0  0  0  0  0  0  0  0  0
   37.4161   28.6800   33.7471 H   0  0  0  0  0  0  0  0  0  0  0  0
   36.2922   27.7997   34.7025 H   0  0  0  0  0  0  0  0  0  0  0  0
   38.6625   27.0103   35.4614 H   0  0  0  0  0  0  0  0  0  0  0  0
   40.7575   26.8874   35.3564 H   0  0  0  0  0  0  0  0  0  0  0  0
   42.8987   27.2190   34.1876 H   0  0  0  0  0  0  0  0  0  0  0  0
   42.8292   27.5265   31.6797 H   0  0  0  0  0  0  0  0  0  0  0  0
   40.6114   27.4790   30.5562 H   0  0  0  0  0  0  0  0  0  0  0  0
   38.5427   23.6212   33.9928 H   0  0  0  0  0  0  0  0  0  0  0  0
   39.6979   24.9710   34.3627 H   0  0  0  0  0  0  0  0  0  0  0  0
   37.1986   24.5391   39.0375 H   0  0  0  0  0  0  0  0  0  0  0  0
   37.0585   25.2798   36.6573 H   0  0  0  0  0  0  0  0  0  0  0  0
   40.5657   22.1366   38.1305 H   0  0  0  0  0  0  0  0  0  0  0  0
  1  5  1  0
  1 12  1  0
  2  1  1  0
  3  2  1  0
  3  4  1  0
  4  5  1  0
  6  7  2  0
  6  5  1  0
  8  7  1  0
  9  8  2  0
 10  9  1  0
 10 11  2  0
 11  6  1  0
 12 15  1  0
 13 18  2  0
 14 13  1  0
 15 16  1  0
 15 14  2  0
 16 17  2  0
 17 18  1  0
  2 19  1  0
  2 20  1  0
  3 21  1  0
  3 22  1  0
  4 23  1  0
  4 24  1  0
  5 25  1  1
  7 26  1  0
  8 27  1  0
  9 28  1  0
 10 29  1  0
 12 30  1  0
 12 31  1  0
 13 32  1  0
 14 33  1  0
 17 34  1  0
M  ISO  8  19  13  20  13  21  13  22  13  23  13  24  13  25  13  26  14
M  ISO  8  27  14  28  14  29  14  30   8  31   8  32  14  33  14  34  14
M  END
>  <minimizedAffinity>  (1) 
-4.75599146

>  <minimizedRMSD>  (1) 
0.378500342

$$$$
