
     RDKit          3D

 33 36  0  0  0  0  0  0  0  0999 V2000
   37.8679   23.6952   33.5017 C   0  0  0  0  0  0  0  0  0  0  0  0
   37.4645   22.6562   32.6677 C   0  0  0  0  0  0  0  0  0  0  0  0
   37.4848   21.5631   33.4851 N   0  0  0  0  0  0  0  0  0  0  0  0
   37.8729   21.9655   34.6929 C   0  0  0  0  0  0  0  0  0  0  0  0
   38.1138   23.2718   34.7290 N   0  0  0  0  0  0  0  0  0  0  0  0
   38.0119   25.0836   33.0755 C   0  0  0  0  0  0  0  0  0  0  0  0
   39.2947   25.5849   32.7680 C   0  0  0  0  0  0  0  0  0  0  0  0
   39.3925   26.9336   32.3571 C   0  0  0  0  0  0  0  0  0  0  0  0
   38.2388   27.6496   32.2890 N   0  0  0  0  0  0  0  0  0  0  0  0
   37.0312   27.1333   32.5916 C   0  0  0  0  0  0  0  0  0  0  0  0
   36.9102   25.8517   32.9854 N   0  0  0  0  0  0  0  0  0  0  0  0
   38.5355   23.9467   35.8986 C   0  0  1  0  0  0  0  0  0  0  0  0
   38.0802   25.2289   36.3636 C   0  0  0  0  0  0  0  0  0  0  0  0
   37.5670   23.9235   37.0291 C   0  0  2  0  0  0  0  0  0  0  0  0
   38.1223   23.7649   38.4274 C   0  0  0  0  0  0  0  0  0  0  0  0
   37.5133   22.7020   39.0641 F   0  0  0  0  0  0  0  0  0  0  0  0
   39.5116   23.3444   38.3078 F   0  0  0  0  0  0  0  0  0  0  0  0
   38.1338   24.8990   39.1434 F   0  0  0  0  0  0  0  0  0  0  0  0
   37.2090   22.7568   31.6255 H   0  0  0  0  0  0  0  0  0  0  0  0
   37.9215   21.1644   35.4190 H   0  0  0  0  0  0  0  0  0  0  0  0
   40.1257   24.9037   32.8661 H   0  0  0  0  0  0  0  0  0  0  0  0
   40.3669   27.3020   32.1270 H   0  0  0  0  0  0  0  0  0  0  0  0
   36.2086   27.8263   32.4889 H   0  0  0  0  0  0  0  0  0  0  0  0
   39.6135   23.6860   36.1648 H   0  0  0  0  0  0  0  0  0  0  0  0
   38.7006   25.8675   37.0129 H   0  0  0  0  0  0  0  0  0  0  0  0
   37.3407   25.7840   35.7994 H   0  0  0  0  0  0  0  0  0  0  0  0
   36.0558   23.9742   36.9263 C   0  0  0  0  0  0  0  0  0  0  0  0
   35.4920   22.6356   37.1856 C   0  0  0  0  0  0  0  0  0  0  0  0
   33.7165   22.9160   37.0175 S   0  0  0  0  0  0  0  0  0  0  0  0
   33.9886   24.7779   36.6263 C   0  0  0  0  0  0  0  0  0  0  0  0
   33.1910   25.4939   36.4216 H   0  0  0  0  0  0  0  0  0  0  0  0
   35.1179   24.8934   36.6687 N   0  0  0  0  0  0  0  0  0  0  0  0
   35.8632   21.6988   37.4130 H   0  0  0  0  0  0  0  0  0  0  0  0
  1  5  1  0
  2  3  1  0
  2  1  2  0
  3  4  2  0
  4  5  1  0
  5 12  1  0
  6  1  1  0
  7  6  2  0
  8  7  1  0
  9  8  2  0
  9 10  1  0
 10 11  2  0
 11  6  1  0
 12 13  1  0
 12 14  1  0
 13 14  1  0
 14 15  1  1
 15 16  1  0
 15 18  1  0
 17 15  1  0
  2 19  1  0
  4 20  1  0
  7 21  1  0
  8 22  1  0
 10 23  1  0
 12 24  1  1
 13 25  1  0
 13 26  1  0
 27 28  2  0
 28 29  1  0
 29 30  1  0
 30 31  1  0
 30 32  2  0
 32 27  1  0
 28 33  1  0
 14 27  1  0
M  ISO  8  19  14  20  14  21  14  22  14  23  14  24  13  25  13  26  13
M  ISO  1  31  14
M  END
>  <DihAtoms>  (1) 
11,13,26,27

>  <DihDeg>  (1) 
89.89052731415296

$$$$
