
     RDKit          3D

 31 32  0  0  0  0  0  0  0  0999 V2000
   38.3970   25.9220   34.1820 C   0  0  0  0  0  0  0  0  0  0  0  0
   37.9220   24.3940   37.4880 C   0  0  0  0  0  0  0  0  0  0  0  0
   38.8890   23.3950   37.5370 C   0  0  0  0  0  0  0  0  0  0  0  0
   39.7000   23.2640   36.4210 C   0  0  0  0  0  0  0  0  0  0  0  0
   39.5030   24.1030   35.3660 N   0  0  0  0  0  0  0  0  0  0  0  0
   38.5530   25.0520   35.3650 C   0  0  0  0  0  0  0  0  0  0  0  0
   37.7440   25.2000   36.4520 N   0  0  0  0  0  0  0  0  0  0  0  0
   38.9900   22.5790   38.7020 N   0  0  0  0  0  0  0  0  0  0  0  0
   37.1530   26.7870   34.3040 C   0  0  0  0  0  0  0  0  0  0  0  0
   39.6350   26.7850   34.0040 C   0  0  0  0  0  0  0  0  0  0  0  0
   38.3220   25.0280   32.9610 C   0  0  0  0  0  0  0  0  0  0  0  0
   36.9420   24.8880   32.3920 C   0  0  0  0  0  0  0  0  0  0  0  0
   36.8940   24.4480   30.9080 C   0  0  0  0  0  0  0  0  0  0  0  0
   36.5470   23.4520   31.9990 C   0  0  0  0  0  0  0  0  0  0  0  0
   37.2661   24.5222   38.3617 H   0  0  0  0  0  0  0  0  0  0  0  0
   40.4879   22.4971   36.3877 H   0  0  0  0  0  0  0  0  0  0  0  0
   39.7018   21.8361   38.7503 H   0  0  0  0  0  0  0  0  0  0  0  0
   38.3511   22.7325   39.4952 H   0  0  0  0  0  0  0  0  0  0  0  0
   36.9213   26.9481   35.3672 H   0  0  0  0  0  0  0  0  0  0  0  0
   37.3315   27.7568   33.8166 H   0  0  0  0  0  0  0  0  0  0  0  0
   36.3060   26.2820   33.8166 H   0  0  0  0  0  0  0  0  0  0  0  0
   40.0334   27.0627   34.9910 H   0  0  0  0  0  0  0  0  0  0  0  0
   40.3975   26.2217   33.4461 H   0  0  0  0  0  0  0  0  0  0  0  0
   39.3703   27.6953   33.4461 H   0  0  0  0  0  0  0  0  0  0  0  0
   38.9759   25.4492   32.1831 H   0  0  0  0  0  0  0  0  0  0  0  0
   38.6376   24.0242   33.2815 H   0  0  0  0  0  0  0  0  0  0  0  0
   36.4885   25.6926   32.9895 H   0  0  0  0  0  0  0  0  0  0  0  0
   37.8281   24.3351   30.3382 H   0  0  0  0  0  0  0  0  0  0  0  0
   36.3865   24.8179   30.0049 H   0  0  0  0  0  0  0  0  0  0  0  0
   35.5068   23.1166   32.1237 H   0  0  0  0  0  0  0  0  0  0  0  0
   36.9067   22.4492   32.2728 H   0  0  0  0  0  0  0  0  0  0  0  0
  1  9  1  0
  1  6  1  0
  2  3  2  0
  3  8  1  0
  4  3  1  0
  5  4  2  0
  6  5  1  0
  6  7  2  0
  7  2  1  0
 10  1  1  0
 11  1  1  0
 12 11  1  0
 13 14  1  0
 13 12  1  0
 14 12  1  0
  2 15  1  0
  4 16  1  0
  8 17  1  0
  8 18  1  0
  9 19  1  0
  9 20  1  0
  9 21  1  0
 10 22  1  0
 10 23  1  0
 10 24  1  0
 11 25  1  0
 11 26  1  0
 12 27  1  0
 13 28  1  0
 13 29  1  0
 14 30  1  0
 14 31  1  0
M  ISO  8  15  14  16  14  19   8  20   8  21   8  22   8  23   8  24   8
M  ISO  7  25   8  26   8  27  13  28  13  29  13  30  13  31  13
M  END
>  <minimizedAffinity>  (1) 
-3.94733

>  <minimizedRMSD>  (1) 
3.92582607

$$$$
