
     RDKit          3D

 55 59  0  0  0  0  0  0  0  0999 V2000
   37.3860   26.3160   34.6600 C   0  0  0  0  0  0  0  0  0  0  0  0
   37.5860   25.4120   33.6070 C   0  0  0  0  0  0  0  0  0  0  0  0
   37.1420   25.7850   32.3280 C   0  0  0  0  0  0  0  0  0  0  0  0
   36.5560   26.9870   32.1990 N   0  0  0  0  0  0  0  0  0  0  0  0
   36.3710   27.8370   33.2040 C   0  0  0  0  0  0  0  0  0  0  0  0
   36.7870   27.5100   34.4590 N   0  0  0  0  0  0  0  0  0  0  0  0
   37.8480   25.9270   35.9910 C   0  0  0  0  0  0  0  0  0  0  0  0
   38.4310   26.7720   36.7040 O   0  0  0  0  0  0  0  0  0  0  0  0
   37.6330   24.6500   36.4330 O   0  0  0  0  0  0  0  0  0  0  0  0
   39.8120   22.5180   38.2240 N   0  0  0  0  0  0  0  0  0  0  0  0
   38.7010   23.2470   38.0780 N   0  0  0  0  0  0  0  0  0  0  0  0
   38.7030   23.8220   36.8420 C   0  0  0  0  0  0  0  0  0  0  0  0
   39.8360   23.4450   36.2000 C   0  0  0  0  0  0  0  0  0  0  0  0
   40.5100   22.6390   37.0700 C   0  0  0  0  0  0  0  0  0  0  0  0
   41.8130   21.9890   36.7940 C   0  0  0  0  0  0  0  0  0  0  0  0
   42.8130   22.7230   36.1860 C   0  0  0  0  0  0  0  0  0  0  0  0
   43.9870   22.0400   35.9700 C   0  0  0  0  0  0  0  0  0  0  0  0
   44.2230   20.7470   36.2990 N   0  0  0  0  0  0  0  0  0  0  0  0
   43.2010   20.0690   36.8980 C   0  0  0  0  0  0  0  0  0  0  0  0
   42.0420   20.7030   37.1240 N   0  0  0  0  0  0  0  0  0  0  0  0
   35.7110   29.1430   32.9590 C   0  0  0  0  0  0  0  0  0  0  0  0
   34.2800   28.8630   32.5680 C   0  0  0  0  0  0  0  0  0  0  0  0
   36.4310   29.8060   31.8150 C   0  0  0  0  0  0  0  0  0  0  0  0
   35.7630   30.0260   34.2120 C   0  0  0  0  0  0  0  0  0  0  0  0
   35.5140   31.3250   33.7750 O   0  0  0  0  0  0  0  0  0  0  0  0
   35.7320   32.4420   34.5560 C   0  0  0  0  0  0  0  0  0  0  0  0
   36.7080   33.4160   34.5470 C   0  0  0  0  0  0  0  0  0  0  0  0
   36.4860   34.3220   35.5330 N   0  0  0  0  0  0  0  0  0  0  0  0
   35.3620   33.9610   36.2060 C   0  0  0  0  0  0  0  0  0  0  0  0
   34.6690   34.5020   37.2880 C   0  0  0  0  0  0  0  0  0  0  0  0
   33.5190   33.8840   37.7620 C   0  0  0  0  0  0  0  0  0  0  0  0
   33.0310   32.7290   37.1840 C   0  0  0  0  0  0  0  0  0  0  0  0
   33.7580   32.2300   36.1100 C   0  0  0  0  0  0  0  0  0  0  0  0
   34.9080   32.8120   35.6050 C   0  0  0  0  0  0  0  0  0  0  0  0
   38.0751   24.4416   33.7773 H   0  0  0  0  0  0  0  0  0  0  0  0
   37.2694   25.1172   31.4632 H   0  0  0  0  0  0  0  0  0  0  0  0
   40.0841   21.9707   39.0530 H   0  0  0  0  0  0  0  0  0  0  0  0
   40.1481   23.7308   35.1847 H   0  0  0  0  0  0  0  0  0  0  0  0
   42.6801   23.7758   35.8961 H   0  0  0  0  0  0  0  0  0  0  0  0
   44.8069   22.5923   35.4875 H   0  0  0  0  0  0  0  0  0  0  0  0
   43.3269   19.0163   37.1913 H   0  0  0  0  0  0  0  0  0  0  0  0
   33.6688   28.7434   33.4747 H   0  0  0  0  0  0  0  0  0  0  0  0
   33.8918   29.7022   31.9722 H   0  0  0  0  0  0  0  0  0  0  0  0
   34.2367   27.9394   31.9722 H   0  0  0  0  0  0  0  0  0  0  0  0
   37.1860   30.5013   32.2106 H   0  0  0  0  0  0  0  0  0  0  0  0
   36.9249   29.0399   31.1993 H   0  0  0  0  0  0  0  0  0  0  0  0
   35.7081   30.3613   31.1993 H   0  0  0  0  0  0  0  0  0  0  0  0
   34.9948   29.7114   34.9338 H   0  0  0  0  0  0  0  0  0  0  0  0
   36.7363   29.9503   34.7190 H   0  0  0  0  0  0  0  0  0  0  0  0
   37.5493   33.4535   33.8393 H   0  0  0  0  0  0  0  0  0  0  0  0
   37.0711   35.1448   35.7368 H   0  0  0  0  0  0  0  0  0  0  0  0
   35.0344   35.4218   37.7681 H   0  0  0  0  0  0  0  0  0  0  0  0
   32.9851   34.3246   38.6169 H   0  0  0  0  0  0  0  0  0  0  0  0
   32.1206   32.2332   37.5519 H   0  0  0  0  0  0  0  0  0  0  0  0
   33.3950   31.3100   35.6284 H   0  0  0  0  0  0  0  0  0  0  0  0
  1  7  1  0
  2  1  2  0
  3  2  1  0
  4  3  2  0
  4  5  1  0
  5  6  2  0
  6  1  1  0
  7  9  1  0
  7  8  2  0
  9 12  1  0
 11 10  1  0
 12 11  2  0
 13 12  1  0
 13 14  2  0
 14 10  1  0
 15 14  1  0
 15 20  1  0
 16 15  2  0
 17 16  1  0
 17 18  2  0
 18 19  1  0
 19 20  2  0
 21  5  1  0
 21 24  1  0
 22 21  1  0
 23 21  1  0
 25 24  1  0
 25 26  1  0
 26 34  1  0
 27 26  2  0
 27 28  1  0
 28 29  1  0
 29 30  2  0
 30 31  1  0
 32 31  2  0
 33 32  1  0
 34 33  2  0
 34 29  1  0
  2 35  1  0
  3 36  1  0
 10 37  1  0
 13 38  1  0
 16 39  1  0
 17 40  1  0
 19 41  1  0
 22 42  1  0
 22 43  1  0
 22 44  1  0
 23 45  1  0
 23 46  1  0
 23 47  1  0
 24 48  1  0
 24 49  1  0
 27 50  1  0
 28 51  1  0
 30 52  1  0
 31 53  1  0
 32 54  1  0
 33 55  1  0
M  ISO  8  35  14  36  14  37   9  38  14  39  14  40  14  41  14  42   8
M  ISO  8  43   8  44   8  45   8  46   8  47   8  48   8  49   8  50  14
M  ISO  5  51   9  52  14  53  14  54  14  55  14
M  END
>  <minimizedAffinity>  (1) 
-6.37977695

>  <minimizedRMSD>  (1) 
4.75168562

$$$$
