
     RDKit          3D

 35 38  0  0  0  0  0  0  0  0999 V2000
   37.6020   24.8540   36.4640 O   0  0  0  0  0  0  0  0  0  0  0  0
   39.6700   22.6200   38.2480 N   0  0  0  0  0  0  0  0  0  0  0  0
   38.5870   23.3870   38.0920 N   0  0  0  0  0  0  0  0  0  0  0  0
   38.6410   23.9850   36.8700 C   0  0  0  0  0  0  0  0  0  0  0  0
   39.7910   23.5860   36.2350 C   0  0  0  0  0  0  0  0  0  0  0  0
   40.4060   22.7420   37.1120 C   0  0  0  0  0  0  0  0  0  0  0  0
   41.6900   22.0580   36.8630 C   0  0  0  0  0  0  0  0  0  0  0  0
   42.6990   22.7420   36.2350 C   0  0  0  0  0  0  0  0  0  0  0  0
   43.8650   22.0470   36.0340 C   0  0  0  0  0  0  0  0  0  0  0  0
   44.0780   20.7620   36.4060 N   0  0  0  0  0  0  0  0  0  0  0  0
   43.0570   20.1270   37.0210 C   0  0  0  0  0  0  0  0  0  0  0  0
   41.9070   20.7900   37.2270 N   0  0  0  0  0  0  0  0  0  0  0  0
   37.8780   26.0170   35.7610 C   0  0  0  0  0  0  0  0  0  0  0  0
   38.4910   26.9700   36.2960 O   0  0  0  0  0  0  0  0  0  0  0  0
   37.4390   26.1340   34.3620 C   0  0  0  0  0  0  0  0  0  0  0  0
   37.6350   25.0510   33.5320 C   0  0  0  0  0  0  0  0  0  0  0  0
   37.2200   25.1470   32.1870 C   0  0  0  0  0  0  0  0  0  0  0  0
   36.6570   26.3160   31.8240 N   0  0  0  0  0  0  0  0  0  0  0  0
   36.4800   27.3450   32.6480 C   0  0  0  0  0  0  0  0  0  0  0  0
   36.8660   27.2810   33.9370 N   0  0  0  0  0  0  0  0  0  0  0  0
   35.8590   28.5770   32.1740 C   0  0  0  0  0  0  0  0  0  0  0  0
   36.5440   29.2940   31.1860 C   0  0  0  0  0  0  0  0  0  0  0  0
   35.7690   30.4000   30.9090 C   0  0  0  0  0  0  0  0  0  0  0  0
   34.6540   30.3080   31.7350 C   0  0  0  0  0  0  0  0  0  0  0  0
   34.7590   29.2270   32.4490 O   0  0  0  0  0  0  0  0  0  0  0  0
   39.9024   22.0463   39.0713 H   0  0  0  0  0  0  0  0  0  0  0  0
   40.1406   23.8829   35.2352 H   0  0  0  0  0  0  0  0  0  0  0  0
   42.5807   23.7866   35.9113 H   0  0  0  0  0  0  0  0  0  0  0  0
   44.6901   22.5738   35.5323 H   0  0  0  0  0  0  0  0  0  0  0  0
   43.1655   19.0825   37.3484 H   0  0  0  0  0  0  0  0  0  0  0  0
   38.1051   24.1313   33.9104 H   0  0  0  0  0  0  0  0  0  0  0  0
   37.3484   24.3168   31.4769 H   0  0  0  0  0  0  0  0  0  0  0  0
   37.5063   29.0286   30.7239 H   0  0  0  0  0  0  0  0  0  0  0  0
   35.9884   31.1951   30.1812 H   0  0  0  0  0  0  0  0  0  0  0  0
   33.8237   31.0282   31.7770 H   0  0  0  0  0  0  0  0  0  0  0  0
  1  4  1  0
  3  2  1  0
  4  3  2  0
  5  4  1  0
  5  6  2  0
  6  2  1  0
  7  6  1  0
  7 12  1  0
  8  7  2  0
  9  8  1  0
  9 10  2  0
 10 11  1  0
 11 12  2  0
 13 14  2  0
 13  1  1  0
 15 13  1  0
 16 15  2  0
 17 16  1  0
 18 17  2  0
 18 19  1  0
 19 20  2  0
 20 15  1  0
 21 25  1  0
 21 19  1  0
 22 21  2  0
 23 22  1  0
 23 24  2  0
 24 25  1  0
  2 26  1  0
  5 27  1  0
  8 28  1  0
  9 29  1  0
 11 30  1  0
 16 31  1  0
 17 32  1  0
 22 33  1  0
 23 34  1  0
 24 35  1  0
M  ISO  8  26   9  27  14  28  14  29  14  30  14  31  14  32  14  33  14
M  ISO  2  34  14  35  14
M  END
>  <minimizedAffinity>  (1) 
-5.73742676

>  <minimizedRMSD>  (1) 
0.876663923

$$$$
