
     RDKit          3D

 40 43  0  0  1  0  0  0  0  0999 V2000
   38.3760   25.9960   34.5050 N   0  0  0  0  0  0  0  0  0  0  0  0
   37.7710   27.2050   33.9820 C   0  0  0  0  0  0  0  0  0  0  0  0
   38.2580   27.3160   32.5770 C   0  0  0  0  0  0  0  0  0  0  0  0
   39.1090   26.0760   32.3760 C   0  0  0  0  0  0  0  0  0  0  0  0
   38.4010   25.1200   33.3820 C   0  0  2  0  0  0  0  0  0  0  0  0
   37.5480   25.3860   35.5050 C   0  0  0  0  0  0  0  0  0  0  0  0
   38.7340   23.4130   38.5180 C   0  0  0  0  0  0  0  0  0  0  0  0
   37.9540   24.2650   37.7380 C   0  0  0  0  0  0  0  0  0  0  0  0
   38.3410   24.4850   36.4000 C   0  0  0  0  0  0  0  0  0  0  0  0
   39.4610   23.8430   35.9530 N   0  0  0  0  0  0  0  0  0  0  0  0
   40.1740   23.0300   36.7570 C   0  0  0  0  0  0  0  0  0  0  0  0
   39.8030   22.8250   38.0280 N   0  0  0  0  0  0  0  0  0  0  0  0
   37.1570   24.7600   32.9490 O   0  0  0  0  0  0  0  0  0  0  0  0
   37.1050   23.5420   32.3260 C   0  0  2  0  0  0  0  0  0  0  0  0
   36.5820   23.5380   30.9210 C   0  0  0  0  0  0  0  0  0  0  0  0
   35.7930   22.8880   32.0240 C   0  0  1  0  0  0  0  0  0  0  0  0
   35.8020   21.4050   32.0060 C   0  0  0  0  0  0  0  0  0  0  0  0
   34.6150   20.6690   32.1030 C   0  0  0  0  0  0  0  0  0  0  0  0
   35.0190   19.3300   32.0510 C   0  0  0  0  0  0  0  0  0  0  0  0
   36.4090   19.3170   31.9270 C   0  0  0  0  0  0  0  0  0  0  0  0
   36.8080   20.5820   31.9060 O   0  0  0  0  0  0  0  0  0  0  0  0
   36.6740   27.1269   34.0040 H   0  0  0  0  0  0  0  0  0  0  0  0
   38.0405   28.0886   34.5793 H   0  0  0  0  0  0  0  0  0  0  0  0
   37.4139   27.3278   31.8718 H   0  0  0  0  0  0  0  0  0  0  0  0
   38.8200   28.2447   32.3992 H   0  0  0  0  0  0  0  0  0  0  0  0
   39.0526   25.7014   31.3433 H   0  0  0  0  0  0  0  0  0  0  0  0
   40.1881   26.2146   32.5385 H   0  0  0  0  0  0  0  0  0  0  0  0
   38.8798   24.1455   33.5582 H   0  0  0  0  0  0  0  0  0  0  0  0
   37.0829   26.1753   36.1139 H   0  0  0  0  0  0  0  0  0  0  0  0
   36.7828   24.7808   34.9969 H   0  0  0  0  0  0  0  0  0  0  0  0
   38.4495   23.2289   39.5645 H   0  0  0  0  0  0  0  0  0  0  0  0
   37.0605   24.7527   38.1550 H   0  0  0  0  0  0  0  0  0  0  0  0
   41.0713   22.5287   36.3652 H   0  0  0  0  0  0  0  0  0  0  0  0
   38.0106   23.1988   32.8476 H   0  0  0  0  0  0  0  0  0  0  0  0
   37.0694   22.9184   30.1538 H   0  0  0  0  0  0  0  0  0  0  0  0
   36.3743   24.3094   30.1648 H   0  0  0  0  0  0  0  0  0  0  0  0
   34.7708   22.9830   32.4190 H   0  0  0  0  0  0  0  0  0  0  0  0
   33.5904   21.0576   32.1990 H   0  0  0  0  0  0  0  0  0  0  0  0
   34.3615   18.4494   32.0991 H   0  0  0  0  0  0  0  0  0  0  0  0
   37.0517   18.4269   31.8595 H   0  0  0  0  0  0  0  0  0  0  0  0
  1  6  1  0
  2  1  1  0
  3  2  1  0
  4  3  1  0
  4  5  1  0
  5  1  1  0
  6  9  1  0
  8  7  2  0
  9  8  1  0
 10  9  2  0
 10 11  1  0
 11 12  2  0
 12  7  1  0
 13  5  1  0
 14 13  1  0
 15 16  1  0
 15 14  1  0
 16 14  1  0
 17 16  1  0
 17 18  2  0
 19 18  1  0
 20 19  2  0
 21 20  1  0
 21 17  1  0
  2 22  1  0
  2 23  1  0
  3 24  1  0
  3 25  1  0
  4 26  1  0
  4 27  1  0
  5 28  1  1
  6 29  1  0
  6 30  1  0
  7 31  1  0
  8 32  1  0
 11 33  1  0
 14 34  1  6
 15 35  1  0
 15 36  1  0
 16 37  1  1
 18 38  1  0
 19 39  1  0
 20 40  1  0
M  ISO  8  22  13  23  13  24  13  25  13  26  13  27  13  28  13  29   8
M  ISO  8  30   8  31  14  32  14  33  14  34  13  35  13  36  13  37  13
M  ISO  3  38  14  39  14  40  14
M  END
>  <minimizedAffinity>  (1) 
-4.92846203

>  <minimizedRMSD>  (1) 
6.21142244

$$$$
