
     RDKit          3D

 34 37  0  0  0  0  0  0  0  0999 V2000
   37.8732   23.6983   33.5024 C   0  0  0  0  0  0  0  0  0  0  0  0
   37.4695   22.6620   32.6648 C   0  0  0  0  0  0  0  0  0  0  0  0
   37.4806   21.5636   33.4843 N   0  0  0  0  0  0  0  0  0  0  0  0
   37.8646   21.9672   34.6918 C   0  0  0  0  0  0  0  0  0  0  0  0
   38.1110   23.2719   34.7298 N   0  0  0  0  0  0  0  0  0  0  0  0
   38.0221   25.0832   33.0805 C   0  0  0  0  0  0  0  0  0  0  0  0
   39.3013   25.5879   32.7763 C   0  0  0  0  0  0  0  0  0  0  0  0
   39.3911   26.9384   32.3595 C   0  0  0  0  0  0  0  0  0  0  0  0
   38.2356   27.6513   32.2834 N   0  0  0  0  0  0  0  0  0  0  0  0
   37.0278   27.1232   32.5866 C   0  0  0  0  0  0  0  0  0  0  0  0
   36.9073   25.8457   32.9848 N   0  0  0  0  0  0  0  0  0  0  0  0
   38.5339   23.9464   35.8991 C   0  0  1  0  0  0  0  0  0  0  0  0
   38.0780   25.2277   36.3647 C   0  0  0  0  0  0  0  0  0  0  0  0
   37.5573   23.9184   37.0303 C   0  0  2  0  0  0  0  0  0  0  0  0
   38.1218   23.7668   38.4272 C   0  0  0  0  0  0  0  0  0  0  0  0
   37.5159   22.7056   39.0668 F   0  0  0  0  0  0  0  0  0  0  0  0
   39.5114   23.3388   38.3036 F   0  0  0  0  0  0  0  0  0  0  0  0
   38.1449   24.9015   39.1408 F   0  0  0  0  0  0  0  0  0  0  0  0
   37.2224   22.7858   31.6168 H   0  0  0  0  0  0  0  0  0  0  0  0
   37.9086   21.1683   35.4260 H   0  0  0  0  0  0  0  0  0  0  0  0
   40.1164   24.9117   32.8825 H   0  0  0  0  0  0  0  0  0  0  0  0
   40.3630   27.3047   32.1332 H   0  0  0  0  0  0  0  0  0  0  0  0
   36.2147   27.8257   32.4728 H   0  0  0  0  0  0  0  0  0  0  0  0
   39.6129   23.6609   36.1701 H   0  0  0  0  0  0  0  0  0  0  0  0
   38.7018   25.8674   37.0110 H   0  0  0  0  0  0  0  0  0  0  0  0
   37.3139   25.7845   35.8164 H   0  0  0  0  0  0  0  0  0  0  0  0
   36.0534   23.9568   36.9241 C   0  0  0  0  0  0  0  0  0  0  0  0
   35.2468   23.3349   37.8802 C   0  0  0  0  0  0  0  0  0  0  0  0
   33.9269   23.5616   37.4820 C   0  0  0  0  0  0  0  0  0  0  0  0
   34.0217   24.3087   36.3064 C   0  0  0  0  0  0  0  0  0  0  0  0
   33.2054   24.6747   35.7039 H   0  0  0  0  0  0  0  0  0  0  0  0
   35.2622   24.5198   36.0116 O   0  0  0  0  0  0  0  0  0  0  0  0
   35.5373   22.7810   38.7632 H   0  0  0  0  0  0  0  0  0  0  0  0
   33.0297   23.2271   37.9821 H   0  0  0  0  0  0  0  0  0  0  0  0
  1  5  1  0
  2  3  1  0
  2  1  2  0
  3  4  2  0
  4  5  1  0
  5 12  1  0
  6  1  1  0
  7  6  2  0
  8  7  1  0
  9  8  2  0
  9 10  1  0
 10 11  2  0
 11  6  1  0
 12 13  1  0
 12 14  1  0
 13 14  1  0
 14 15  1  1
 15 16  1  0
 15 18  1  0
 17 15  1  0
  2 19  1  0
  4 20  1  0
  7 21  1  0
  8 22  1  0
 10 23  1  0
 12 24  1  1
 13 25  1  0
 13 26  1  0
 27 28  2  0
 28 29  1  0
 29 30  2  0
 30 31  1  0
 30 32  1  0
 32 27  1  0
 28 33  1  0
 29 34  1  0
 14 27  1  0
M  ISO  8  19  14  20  14  21  14  22  14  23  14  24  13  25  13  26  13
M  ISO  1  31  14
M  END
>  <DihAtoms>  (1) 
11,13,26,27

>  <DihDeg>  (1) 
90.06301118103099

$$$$
