
     RDKit          3D

 26 28  0  0  1  0  0  0  0  0999 V2000
   38.1130   23.6990   34.4420 C   0  0  0  0  0  0  0  0  0  0  0  0
   38.2920   24.8810   33.7520 C   0  0  0  0  0  0  0  0  0  0  0  0
   37.8670   24.5750   32.4830 N   0  0  0  0  0  0  0  0  0  0  0  0
   37.4810   23.3180   32.4650 C   0  0  0  0  0  0  0  0  0  0  0  0
   37.6130   22.7220   33.6670 N   0  0  0  0  0  0  0  0  0  0  0  0
   38.4240   23.5100   35.8490 C   0  0  0  0  0  0  0  0  0  0  0  0
   39.6260   22.9270   36.2520 C   0  0  0  0  0  0  0  0  0  0  0  0
   39.8820   22.7660   37.6280 C   0  0  0  0  0  0  0  0  0  0  0  0
   38.9350   23.1920   38.4920 N   0  0  0  0  0  0  0  0  0  0  0  0
   37.7790   23.7530   38.0870 C   0  0  0  0  0  0  0  0  0  0  0  0
   37.5170   23.9150   36.7740 N   0  0  0  0  0  0  0  0  0  0  0  0
   37.2710   21.3550   33.9480 C   0  0  1  0  0  0  0  0  0  0  0  0
   36.0600   20.9730   34.6640 C   0  0  0  0  0  0  0  0  0  0  0  0
   36.0550   20.9050   33.1590 C   0  0  1  0  0  0  0  0  0  0  0  0
   35.2080   21.8870   32.5200 N   0  0  0  0  0  0  0  0  0  0  0  0
   38.6816   25.8383   34.1285 H   0  0  0  0  0  0  0  0  0  0  0  0
   37.0938   22.8098   31.5695 H   0  0  0  0  0  0  0  0  0  0  0  0
   40.3637   22.5976   35.5055 H   0  0  0  0  0  0  0  0  0  0  0  0
   40.8175   22.3107   37.9852 H   0  0  0  0  0  0  0  0  0  0  0  0
   37.0419   24.0820   38.8343 H   0  0  0  0  0  0  0  0  0  0  0  0
   38.3173   21.0601   34.1163 H   0  0  0  0  0  0  0  0  0  0  0  0
   36.0442   20.0436   35.2522 H   0  0  0  0  0  0  0  0  0  0  0  0
   35.4225   21.4654   35.4131 H   0  0  0  0  0  0  0  0  0  0  0  0
   35.8947   20.1563   32.3693 H   0  0  0  0  0  0  0  0  0  0  0  0
   34.7265   22.4452   33.2393 H   0  0  0  0  0  0  0  0  0  0  0  0
   35.7839   22.5070   31.9327 H   0  0  0  0  0  0  0  0  0  0  0  0
  1  6  1  0
  2  1  2  0
  3  2  1  0
  4  3  2  0
  4  5  1  0
  5 12  1  0
  5  1  1  0
  6  7  2  0
  6 11  1  0
  7  8  1  0
  8  9  2  0
 10  9  1  0
 11 10  2  0
 12 13  1  0
 14 12  1  0
 14 13  1  0
 15 14  1  0
  2 16  1  0
  4 17  1  0
  7 18  1  0
  8 19  1  0
 10 20  1  0
 12 21  1  1
 13 22  1  0
 13 23  1  0
 14 24  1  1
 15 25  1  0
 15 26  1  0
M  ISO  8  16  14  17  14  18  14  19  14  20  14  21  13  22  13  23  13
M  ISO  3  24  13  25   5  26   5
M  END
>  <minimizedAffinity>  (1) 
-3.89866853

>  <minimizedRMSD>  (1) 
0.430973232

$$$$
