
     RDKit          3D

 27 28  0  0  0  0  0  0  0  0999 V2000
   38.0170   24.3970   34.7660 C   0  0  0  0  0  0  0  0  0  0  0  0
   38.0830   23.4590   33.7220 C   0  0  0  0  0  0  0  0  0  0  0  0
   37.7450   23.8300   32.4480 C   0  0  0  0  0  0  0  0  0  0  0  0
   37.3500   25.1100   32.2220 N   0  0  0  0  0  0  0  0  0  0  0  0
   37.2920   26.0020   33.2460 C   0  0  0  0  0  0  0  0  0  0  0  0
   37.6210   25.6590   34.5100 N   0  0  0  0  0  0  0  0  0  0  0  0
   38.3660   24.0020   36.1090 C   0  0  0  0  0  0  0  0  0  0  0  0
   39.3560   23.0660   36.2780 C   0  0  0  0  0  0  0  0  0  0  0  0
   39.6910   22.6810   37.5760 C   0  0  0  0  0  0  0  0  0  0  0  0
   39.0220   23.2540   38.6020 N   0  0  0  0  0  0  0  0  0  0  0  0
   38.0440   24.1800   38.4290 C   0  0  0  0  0  0  0  0  0  0  0  0
   37.7470   24.5260   37.1880 N   0  0  0  0  0  0  0  0  0  0  0  0
   40.6890   21.7280   37.9030 N   0  0  0  0  0  0  0  0  0  0  0  0
   36.7540   27.6600   32.8920 S   0  0  0  0  0  0  0  0  0  0  0  0
   36.2130   28.4940   34.3850 C   0  0  0  0  0  0  0  0  0  0  0  0
   35.4140   29.7620   34.0470 C   0  0  0  0  0  0  0  0  0  0  0  0
   38.4058   22.4278   33.9279 H   0  0  0  0  0  0  0  0  0  0  0  0
   37.7925   23.1046   31.6224 H   0  0  0  0  0  0  0  0  0  0  0  0
   39.8728   22.6300   35.4103 H   0  0  0  0  0  0  0  0  0  0  0  0
   37.5195   24.6247   39.2876 H   0  0  0  0  0  0  0  0  0  0  0  0
   40.8775   21.4974   38.8890 H   0  0  0  0  0  0  0  0  0  0  0  0
   41.2253   21.2665   37.1545 H   0  0  0  0  0  0  0  0  0  0  0  0
   35.5764   27.8120   34.9677 H   0  0  0  0  0  0  0  0  0  0  0  0
   37.1006   28.7831   34.9669 H   0  0  0  0  0  0  0  0  0  0  0  0
   35.1017   30.2576   34.9780 H   0  0  0  0  0  0  0  0  0  0  0  0
   36.0440   30.4469   33.4605 H   0  0  0  0  0  0  0  0  0  0  0  0
   34.5243   29.4893   33.4605 H   0  0  0  0  0  0  0  0  0  0  0  0
  1  7  1  0
  2  1  2  0
  3  2  1  0
  4  3  2  0
  4  5  1  0
  5  6  2  0
  6  1  1  0
  7  8  2  0
  7 12  1  0
  8  9  1  0
  9 13  1  0
  9 10  2  0
 11 10  1  0
 12 11  2  0
 14  5  1  0
 14 15  1  0
 16 15  1  0
  2 17  1  0
  3 18  1  0
  8 19  1  0
 11 20  1  0
 13 21  1  0
 13 22  1  0
 15 23  1  0
 15 24  1  0
 16 25  1  0
 16 26  1  0
 16 27  1  0
M  ISO  8  17  14  18  14  19  14  20  14  23   8  24   8  25   8  26   8
M  ISO  1  27   8
M  END
>  <minimizedAffinity>  (1) 
-4.6668582

>  <minimizedRMSD>  (1) 
0.991210222

$$$$
