
     RDKit          3D

 29 31  0  0  0  0  0  0  0  0999 V2000
   37.8714   23.6963   33.5015 C   0  0  0  0  0  0  0  0  0  0  0  0
   37.4692   22.6565   32.6663 C   0  0  0  0  0  0  0  0  0  0  0  0
   37.4822   21.5658   33.4816 N   0  0  0  0  0  0  0  0  0  0  0  0
   37.8676   21.9668   34.7000 C   0  0  0  0  0  0  0  0  0  0  0  0
   38.1101   23.2727   34.7287 N   0  0  0  0  0  0  0  0  0  0  0  0
   38.0195   25.0854   33.0773 C   0  0  0  0  0  0  0  0  0  0  0  0
   39.3037   25.5801   32.7699 C   0  0  0  0  0  0  0  0  0  0  0  0
   39.3920   26.9329   32.3562 C   0  0  0  0  0  0  0  0  0  0  0  0
   38.2384   27.6497   32.2871 N   0  0  0  0  0  0  0  0  0  0  0  0
   37.0309   27.1305   32.5925 C   0  0  0  0  0  0  0  0  0  0  0  0
   36.9055   25.8537   32.9880 N   0  0  0  0  0  0  0  0  0  0  0  0
   38.5337   23.9493   35.8989 C   0  0  1  0  0  0  0  0  0  0  0  0
   38.0718   25.2298   36.3633 C   0  0  0  0  0  0  0  0  0  0  0  0
   37.5559   23.9152   37.0287 C   0  0  2  0  0  0  0  0  0  0  0  0
   38.1183   23.7670   38.4258 C   0  0  0  0  0  0  0  0  0  0  0  0
   37.5240   22.6992   39.0660 F   0  0  0  0  0  0  0  0  0  0  0  0
   39.5140   23.3478   38.3030 F   0  0  0  0  0  0  0  0  0  0  0  0
   38.1387   24.8993   39.1422 F   0  0  0  0  0  0  0  0  0  0  0  0
   37.2094   22.7339   31.6020 H   0  0  0  0  0  0  0  0  0  0  0  0
   37.9445   21.2386   35.5093 H   0  0  0  0  0  0  0  0  0  0  0  0
   40.1336   24.9091   32.8661 H   0  0  0  0  0  0  0  0  0  0  0  0
   40.3657   27.3072   32.1230 H   0  0  0  0  0  0  0  0  0  0  0  0
   36.2441   27.8365   32.4807 H   0  0  0  0  0  0  0  0  0  0  0  0
   39.6288   23.7293   36.1710 H   0  0  0  0  0  0  0  0  0  0  0  0
   38.7125   25.8922   36.9901 H   0  0  0  0  0  0  0  0  0  0  0  0
   37.2787   25.7795   35.8359 H   0  0  0  0  0  0  0  0  0  0  0  0
   36.0988   23.9346   36.9558 N   0  0  0  0  0  0  0  0  0  0  0  0
   35.8662   23.9026   35.9407 H   0  0  0  0  0  0  0  0  0  0  0  0
   35.7631   23.0441   37.3872 H   0  0  0  0  0  0  0  0  0  0  0  0
  1  5  1  0
  2  3  1  0
  2  1  2  0
  3  4  2  0
  4  5  1  0
  5 12  1  0
  6  1  1  0
  7  6  2  0
  8  7  1  0
  9  8  2  0
  9 10  1  0
 10 11  2  0
 11  6  1  0
 12 13  1  0
 12 14  1  0
 13 14  1  0
 14 15  1  0
 15 16  1  0
 15 18  1  0
 17 15  1  0
  2 19  1  0
  4 20  1  0
  7 21  1  0
  8 22  1  0
 10 23  1  0
 12 24  1  1
 13 25  1  0
 13 26  1  0
 27 28  1  0
 27 29  1  0
 14 27  1  6
M  ISO  8  19  14  20  14  21  14  22  14  23  14  24  13  25  13  26  13
M  ISO  2  28   5  29   5
M  END
>  <DihAtoms>  (1) 
11,13,26,27

>  <DihDeg>  (1) 
109.29619610169392

$$$$
