
     RDKit          3D

 41 43  0  0  1  0  0  0  0  0999 V2000
   38.4500   23.4810   32.4340 C   0  0  1  0  0  0  0  0  0  0  0  0
   34.8250   20.2330   32.5010 C   0  0  0  0  0  0  0  0  0  0  0  0
   35.5430   19.4180   31.5820 C   0  0  0  0  0  0  0  0  0  0  0  0
   36.4070   20.0400   30.6930 C   0  0  0  0  0  0  0  0  0  0  0  0
   36.5140   21.3860   30.7570 N   0  0  0  0  0  0  0  0  0  0  0  0
   35.8180   22.1480   31.6440 C   0  0  0  0  0  0  0  0  0  0  0  0
   34.9740   21.5740   32.5160 N   0  0  0  0  0  0  0  0  0  0  0  0
   37.1700   19.3640   29.7420 N   0  0  0  0  0  0  0  0  0  0  0  0
   36.0380   23.5580   31.5850 N   0  0  0  0  0  0  0  0  0  0  0  0
   35.1870   24.4890   31.2030 N   0  0  0  0  0  0  0  0  0  0  0  0
   35.7470   25.7160   31.2690 C   0  0  0  0  0  0  0  0  0  0  0  0
   37.0520   25.5110   31.7320 C   0  0  0  0  0  0  0  0  0  0  0  0
   37.2040   24.1280   31.9240 C   0  0  0  0  0  0  0  0  0  0  0  0
   39.4040   23.2660   31.2410 C   0  0  0  0  0  0  0  0  0  0  0  0
   39.1150   24.3710   33.4320 C   0  0  0  0  0  0  0  0  0  0  0  0
   38.6100   24.0740   34.8180 C   0  0  0  0  0  0  0  0  0  0  0  0
   38.7830   22.8660   35.4790 C   0  0  0  0  0  0  0  0  0  0  0  0
   38.2070   22.9600   36.6820 N   0  0  0  0  0  0  0  0  0  0  0  0
   37.6680   24.2020   36.8090 C   0  0  0  0  0  0  0  0  0  0  0  0
   37.9160   24.8740   35.6750 N   0  0  0  0  0  0  0  0  0  0  0  0
   37.5200   26.2220   35.3900 C   0  0  0  0  0  0  0  0  0  0  0  0
   38.6260   27.1570   35.8930 C   0  0  0  0  0  0  0  0  0  0  0  0
   38.2028   22.5230   32.9148 H   0  0  0  0  0  0  0  0  0  0  0  0
   34.1339   19.7600   33.2142 H   0  0  0  0  0  0  0  0  0  0  0  0
   35.4164   18.3253   31.5767 H   0  0  0  0  0  0  0  0  0  0  0  0
   37.1105   18.3384   29.6684 H   0  0  0  0  0  0  0  0  0  0  0  0
   37.7932   19.8902   29.1130 H   0  0  0  0  0  0  0  0  0  0  0  0
   35.2759   26.6763   31.0124 H   0  0  0  0  0  0  0  0  0  0  0  0
   37.8129   26.2849   31.9112 H   0  0  0  0  0  0  0  0  0  0  0  0
   40.4132   23.0386   31.6149 H   0  0  0  0  0  0  0  0  0  0  0  0
   39.0421   22.4269   30.6287 H   0  0  0  0  0  0  0  0  0  0  0  0
   39.4370   24.1792   30.6287 H   0  0  0  0  0  0  0  0  0  0  0  0
   40.2018   24.2045   33.3988 H   0  0  0  0  0  0  0  0  0  0  0  0
   38.8854   25.4181   33.1853 H   0  0  0  0  0  0  0  0  0  0  0  0
   39.3045   21.9828   35.0815 H   0  0  0  0  0  0  0  0  0  0  0  0
   37.1255   24.5868   37.6852 H   0  0  0  0  0  0  0  0  0  0  0  0
   37.3869   26.3507   34.3057 H   0  0  0  0  0  0  0  0  0  0  0  0
   36.5674   26.4540   35.8886 H   0  0  0  0  0  0  0  0  0  0  0  0
   38.6307   27.1609   36.9930 H   0  0  0  0  0  0  0  0  0  0  0  0
   39.6003   26.8046   35.5235 H   0  0  0  0  0  0  0  0  0  0  0  0
   38.4406   28.1763   35.5235 H   0  0  0  0  0  0  0  0  0  0  0  0
  1 15  1  0
  2  7  2  0
  3  2  1  0
  4  5  1  0
  4  3  2  0
  5  6  2  0
  6  7  1  0
  8  4  1  0
  9  6  1  0
  9 13  1  0
 10 11  2  0
 10  9  1  0
 11 12  1  0
 12 13  2  0
 13  1  1  0
 14  1  1  0
 15 16  1  0
 16 17  2  0
 16 20  1  0
 17 18  1  0
 18 19  2  0
 20 19  1  0
 21 20  1  0
 21 22  1  0
  1 23  1  1
  2 24  1  0
  3 25  1  0
  8 26  1  0
  8 27  1  0
 11 28  1  0
 12 29  1  0
 14 30  1  0
 14 31  1  0
 14 32  1  0
 15 33  1  0
 15 34  1  0
 17 35  1  0
 19 36  1  0
 21 37  1  0
 21 38  1  0
 22 39  1  0
 22 40  1  0
 22 41  1  0
M  ISO  8  23   8  24  14  25  14  28  14  29  14  30   8  31   8  32   8
M  ISO  8  33   8  34   8  35  14  36  14  37   8  38   8  39   8  40   8
M  ISO  1  41   8
M  END
>  <minimizedAffinity>  (1) 
-5.11994028

>  <minimizedRMSD>  (1) 
6.13580894

$$$$
