
     RDKit          3D

 41 45  0  0  0  0  0  0  0  0999 V2000
   37.8692   23.6991   33.5029 C   0  0  0  0  0  0  0  0  0  0  0  0
   37.4737   22.6550   32.6704 C   0  0  0  0  0  0  0  0  0  0  0  0
   37.5009   21.5640   33.4871 N   0  0  0  0  0  0  0  0  0  0  0  0
   37.8828   21.9633   34.6900 C   0  0  0  0  0  0  0  0  0  0  0  0
   38.1179   23.2827   34.7330 N   0  0  0  0  0  0  0  0  0  0  0  0
   38.0123   25.0812   33.0781 C   0  0  0  0  0  0  0  0  0  0  0  0
   39.2968   25.5883   32.7764 C   0  0  0  0  0  0  0  0  0  0  0  0
   39.3944   26.9340   32.3619 C   0  0  0  0  0  0  0  0  0  0  0  0
   38.2414   27.6485   32.2823 N   0  0  0  0  0  0  0  0  0  0  0  0
   37.0297   27.1252   32.5805 C   0  0  0  0  0  0  0  0  0  0  0  0
   36.9042   25.8500   32.9771 N   0  0  0  0  0  0  0  0  0  0  0  0
   38.5306   23.9458   35.9085 C   0  0  1  0  0  0  0  0  0  0  0  0
   38.0651   25.2304   36.3626 C   0  0  0  0  0  0  0  0  0  0  0  0
   37.5162   23.9449   37.0360 C   0  0  2  0  0  0  0  0  0  0  0  0
   38.0464   23.7774   38.4245 C   0  0  0  0  0  0  0  0  0  0  0  0
   37.5443   22.6848   39.0646 F   0  0  0  0  0  0  0  0  0  0  0  0
   39.4883   23.3338   38.2953 F   0  0  0  0  0  0  0  0  0  0  0  0
   38.2327   24.8896   39.1459 F   0  0  0  0  0  0  0  0  0  0  0  0
   37.2057   22.6955   31.6171 H   0  0  0  0  0  0  0  0  0  0  0  0
   37.9725   21.2349   35.5061 H   0  0  0  0  0  0  0  0  0  0  0  0
   40.1862   24.9805   32.8548 H   0  0  0  0  0  0  0  0  0  0  0  0
   40.3444   27.3853   32.1158 H   0  0  0  0  0  0  0  0  0  0  0  0
   36.2136   27.8253   32.4661 H   0  0  0  0  0  0  0  0  0  0  0  0
   39.5725   23.6311   36.2349 H   0  0  0  0  0  0  0  0  0  0  0  0
   38.7408   25.8431   36.9918 H   0  0  0  0  0  0  0  0  0  0  0  0
   37.3917   25.8457   35.7646 H   0  0  0  0  0  0  0  0  0  0  0  0
   36.0394   23.8756   36.7610 C   0  0  0  0  0  0  0  0  0  0  0  0
   35.3899   23.4471   37.9049 N   0  0  0  0  0  0  0  0  0  0  0  0
   34.0925   23.3490   38.0710 C   0  0  0  0  0  0  0  0  0  0  0  0
   33.2288   23.6706   37.0980 N   0  0  0  0  0  0  0  0  0  0  0  0
   33.7495   24.0962   35.9421 C   0  0  0  0  0  0  0  0  0  0  0  0
   33.0580   24.4470   34.8048 C   0  0  0  0  0  0  0  0  0  0  0  0
   33.6572   24.8502   33.6208 C   0  0  0  0  0  0  0  0  0  0  0  0
   32.9806   25.0928   32.8191 H   0  0  0  0  0  0  0  0  0  0  0  0
   35.0592   24.9138   33.5471 C   0  0  0  0  0  0  0  0  0  0  0  0
   35.4700   25.2312   32.6051 H   0  0  0  0  0  0  0  0  0  0  0  0
   35.7393   24.5629   34.6876 C   0  0  0  0  0  0  0  0  0  0  0  0
   35.1039   24.1761   35.8293 C   0  0  0  0  0  0  0  0  0  0  0  0
   33.6318   23.0013   39.0059 H   0  0  0  0  0  0  0  0  0  0  0  0
   31.9609   24.3864   34.8935 H   0  0  0  0  0  0  0  0  0  0  0  0
   36.7732   24.6018   34.5183 H   0  0  0  0  0  0  0  0  0  0  0  0
  1  5  1  0
  2  3  1  0
  2  1  2  0
  3  4  2  0
  4  5  1  0
  5 12  1  0
  6  1  1  0
  7  6  2  0
  8  7  1  0
  9  8  2  0
  9 10  1  0
 10 11  2  0
 11  6  1  0
 12 13  1  0
 12 14  1  0
 13 14  1  0
 14 15  1  1
 15 16  1  0
 15 18  1  0
 17 15  1  0
  2 19  1  0
  4 20  1  0
  7 21  1  0
  8 22  1  0
 10 23  1  0
 12 24  1  1
 13 25  1  0
 13 26  1  0
 27 28  2  0
 28 29  1  0
 29 30  2  0
 30 31  1  0
 31 32  2  0
 32 33  1  0
 33 34  1  0
 33 35  2  0
 35 36  1  0
 35 37  1  0
 37 38  2  0
 38 27  1  0
 38 31  1  0
 29 39  1  0
 32 40  1  0
 37 41  1  0
 14 27  1  0
M  ISO  8  19  14  20  14  21  14  22  14  23  14  24  13  25  13  26  13
M  ISO  2  34  16  36  16
M  END
>  <DihAtoms>  (1) 
11,13,26,27

>  <DihDeg>  (1) 
10.24973873567172

$$$$
