
     RDKit          3D

 41 45  0  0  0  0  0  0  0  0999 V2000
   37.8692   23.6991   33.5029 C   0  0  0  0  0  0  0  0  0  0  0  0
   37.4737   22.6550   32.6704 C   0  0  0  0  0  0  0  0  0  0  0  0
   37.5009   21.5640   33.4871 N   0  0  0  0  0  0  0  0  0  0  0  0
   37.8828   21.9633   34.6900 C   0  0  0  0  0  0  0  0  0  0  0  0
   38.1179   23.2827   34.7330 N   0  0  0  0  0  0  0  0  0  0  0  0
   38.0123   25.0812   33.0781 C   0  0  0  0  0  0  0  0  0  0  0  0
   39.2968   25.5883   32.7764 C   0  0  0  0  0  0  0  0  0  0  0  0
   39.3944   26.9340   32.3619 C   0  0  0  0  0  0  0  0  0  0  0  0
   38.2414   27.6485   32.2823 N   0  0  0  0  0  0  0  0  0  0  0  0
   37.0297   27.1252   32.5805 C   0  0  0  0  0  0  0  0  0  0  0  0
   36.9042   25.8500   32.9771 N   0  0  0  0  0  0  0  0  0  0  0  0
   38.5306   23.9458   35.9085 C   0  0  1  0  0  0  0  0  0  0  0  0
   38.0651   25.2304   36.3626 C   0  0  0  0  0  0  0  0  0  0  0  0
   37.5162   23.9449   37.0360 C   0  0  2  0  0  0  0  0  0  0  0  0
   38.0464   23.7774   38.4245 C   0  0  0  0  0  0  0  0  0  0  0  0
   37.5443   22.6848   39.0646 F   0  0  0  0  0  0  0  0  0  0  0  0
   39.4883   23.3338   38.2953 F   0  0  0  0  0  0  0  0  0  0  0  0
   38.2327   24.8896   39.1459 F   0  0  0  0  0  0  0  0  0  0  0  0
   37.2057   22.6955   31.6171 H   0  0  0  0  0  0  0  0  0  0  0  0
   37.9725   21.2349   35.5061 H   0  0  0  0  0  0  0  0  0  0  0  0
   40.1862   24.9805   32.8548 H   0  0  0  0  0  0  0  0  0  0  0  0
   40.3444   27.3853   32.1158 H   0  0  0  0  0  0  0  0  0  0  0  0
   36.2136   27.8253   32.4661 H   0  0  0  0  0  0  0  0  0  0  0  0
   39.5725   23.6311   36.2349 H   0  0  0  0  0  0  0  0  0  0  0  0
   38.7408   25.8431   36.9918 H   0  0  0  0  0  0  0  0  0  0  0  0
   37.3917   25.8457   35.7646 H   0  0  0  0  0  0  0  0  0  0  0  0
   36.0394   23.8756   36.7610 C   0  0  0  0  0  0  0  0  0  0  0  0
   35.5266   25.1603   36.7393 N   0  0  0  0  0  0  0  0  0  0  0  0
   34.2945   25.5000   36.4442 C   0  0  0  0  0  0  0  0  0  0  0  0
   33.3680   24.5877   36.1198 N   0  0  0  0  0  0  0  0  0  0  0  0
   33.7548   23.3077   36.1119 C   0  0  0  0  0  0  0  0  0  0  0  0
   32.9698   22.2096   35.8423 C   0  0  0  0  0  0  0  0  0  0  0  0
   33.4214   20.8989   35.8828 C   0  0  0  0  0  0  0  0  0  0  0  0
   32.6862   20.1488   35.6459 H   0  0  0  0  0  0  0  0  0  0  0  0
   34.7621   20.6442   36.2185 C   0  0  0  0  0  0  0  0  0  0  0  0
   35.0576   19.6102   36.2360 H   0  0  0  0  0  0  0  0  0  0  0  0
   35.5369   21.7466   36.4844 C   0  0  0  0  0  0  0  0  0  0  0  0
   35.0468   23.0169   36.4279 C   0  0  0  0  0  0  0  0  0  0  0  0
   33.9429   26.5409   36.4431 H   0  0  0  0  0  0  0  0  0  0  0  0
   31.9237   22.4415   35.5830 H   0  0  0  0  0  0  0  0  0  0  0  0
   36.5028   21.4505   36.7644 H   0  0  0  0  0  0  0  0  0  0  0  0
  1  5  1  0
  2  3  1  0
  2  1  2  0
  3  4  2  0
  4  5  1  0
  5 12  1  0
  6  1  1  0
  7  6  2  0
  8  7  1  0
  9  8  2  0
  9 10  1  0
 10 11  2  0
 11  6  1  0
 12 13  1  0
 12 14  1  0
 13 14  1  0
 14 15  1  1
 15 16  1  0
 15 18  1  0
 17 15  1  0
  2 19  1  0
  4 20  1  0
  7 21  1  0
  8 22  1  0
 10 23  1  0
 12 24  1  1
 13 25  1  0
 13 26  1  0
 27 28  2  0
 28 29  1  0
 29 30  2  0
 30 31  1  0
 31 32  2  0
 32 33  1  0
 33 34  1  0
 33 35  2  0
 35 36  1  0
 35 37  1  0
 37 38  2  0
 38 27  1  0
 38 31  1  0
 29 39  1  0
 32 40  1  0
 37 41  1  0
 14 27  1  0
M  ISO  8  19  14  20  14  21  14  22  14  23  14  24  13  25  13  26  13
M  ISO  2  34  16  36  16
M  END
>  <DihAtoms>  (1) 
11,13,26,27

>  <DihDeg>  (1) 
10.24973873567172

$$$$
