
     RDKit          3D

 50 54  0  0  1  0  0  0  0  0999 V2000
   40.4140   26.8260   32.4750 C   0  0  0  0  0  0  0  0  0  0  0  0
   39.8440   27.3740   33.5550 N   0  0  0  0  0  0  0  0  0  0  0  0
   40.2080   26.7270   34.6190 O   0  0  0  0  0  0  0  0  0  0  0  0
   41.0320   25.7440   34.1900 C   0  0  0  0  0  0  0  0  0  0  0  0
   41.1940   25.7600   32.8670 N   0  0  0  0  0  0  0  0  0  0  0  0
   36.8220   24.1100   31.0380 C   0  0  0  0  0  0  0  0  0  0  0  0
   35.6640   24.8740   31.3490 C   0  0  0  0  0  0  0  0  0  0  0  0
   35.7470   26.2490   31.3290 C   0  0  0  0  0  0  0  0  0  0  0  0
   36.9590   26.7960   31.0050 N   0  0  0  0  0  0  0  0  0  0  0  0
   38.0390   26.0290   30.7140 C   0  0  0  0  0  0  0  0  0  0  0  0
   37.9830   24.7130   30.7270 N   0  0  0  0  0  0  0  0  0  0  0  0
   39.2370   26.7430   30.3940 N   0  0  0  0  0  0  0  0  0  0  0  0
   39.3200   27.1110   29.1440 N   0  0  0  0  0  0  0  0  0  0  0  0
   40.4840   27.7740   28.9590 C   0  0  0  0  0  0  0  0  0  0  0  0
   41.1430   27.8140   30.1470 C   0  0  0  0  0  0  0  0  0  0  0  0
   40.3410   27.1550   31.0570 C   0  0  0  0  0  0  0  0  0  0  0  0
   36.7400   22.6860   31.0580 N   0  0  0  0  0  0  0  0  0  0  0  0
   41.6880   24.7500   35.1030 C   0  0  2  0  0  0  0  0  0  0  0  0
   42.4900   23.6270   34.4900 C   0  0  0  0  0  0  0  0  0  0  0  0
   41.1790   23.3690   35.2120 C   0  0  1  0  0  0  0  0  0  0  0  0
   41.2910   22.5600   36.4470 C   0  0  0  0  0  0  0  0  0  0  0  0
   39.9820   22.4320   37.1990 C   0  0  0  0  0  0  0  0  0  0  0  0
   39.2370   23.7200   37.3030 C   0  0  0  0  0  0  0  0  0  0  0  0
   38.0280   23.7760   36.4240 C   0  0  0  0  0  0  0  0  0  0  0  0
   37.1510   22.6800   37.0200 C   0  0  0  0  0  0  0  0  0  0  0  0
   37.4040   22.7790   38.5090 C   0  0  0  0  0  0  0  0  0  0  0  0
   38.5820   23.7240   38.6900 C   0  0  0  0  0  0  0  0  0  0  0  0
   34.7167   24.3751   31.6016 H   0  0  0  0  0  0  0  0  0  0  0  0
   34.8769   26.8799   31.5633 H   0  0  0  0  0  0  0  0  0  0  0  0
   40.8365   28.2062   28.0109 H   0  0  0  0  0  0  0  0  0  0  0  0
   42.1203   28.2787   30.3440 H   0  0  0  0  0  0  0  0  0  0  0  0
   37.5705   22.1191   30.8349 H   0  0  0  0  0  0  0  0  0  0  0  0
   35.8502   22.2247   31.2955 H   0  0  0  0  0  0  0  0  0  0  0  0
   41.8840   25.5447   35.8379 H   0  0  0  0  0  0  0  0  0  0  0  0
   42.5511   23.5217   33.3968 H   0  0  0  0  0  0  0  0  0  0  0  0
   43.5227   23.2582   34.5768 H   0  0  0  0  0  0  0  0  0  0  0  0
   40.1908   22.9385   34.9927 H   0  0  0  0  0  0  0  0  0  0  0  0
   41.6372   21.5522   36.1742 H   0  0  0  0  0  0  0  0  0  0  0  0
   42.0000   23.0755   37.1115 H   0  0  0  0  0  0  0  0  0  0  0  0
   39.3474   21.7022   36.6749 H   0  0  0  0  0  0  0  0  0  0  0  0
   40.2227   22.1095   38.2227 H   0  0  0  0  0  0  0  0  0  0  0  0
   39.9523   24.5205   37.0630 H   0  0  0  0  0  0  0  0  0  0  0  0
   38.2847   23.5572   35.3770 H   0  0  0  0  0  0  0  0  0  0  0  0
   37.5453   24.7641   36.3964 H   0  0  0  0  0  0  0  0  0  0  0  0
   36.0903   22.8598   36.7907 H   0  0  0  0  0  0  0  0  0  0  0  0
   37.3844   21.6839   36.6159 H   0  0  0  0  0  0  0  0  0  0  0  0
   36.5152   23.1791   39.0188 H   0  0  0  0  0  0  0  0  0  0  0  0
   37.6198   21.7904   38.9404 H   0  0  0  0  0  0  0  0  0  0  0  0
   39.2760   23.3497   39.4570 H   0  0  0  0  0  0  0  0  0  0  0  0
   38.2869   24.7279   39.0294 H   0  0  0  0  0  0  0  0  0  0  0  0
  1  5  1  0
  1  2  2  0
  2  3  1  0
  4  3  1  0
  4 18  1  0
  5  4  2  0
  6 17  1  0
  6  7  2  0
  8  7  1  0
  9  8  2  0
 10 11  2  0
 10  9  1  0
 11  6  1  0
 12 10  1  0
 12 16  1  0
 13 12  1  0
 14 13  2  0
 14 15  1  0
 15 16  2  0
 16  1  1  0
 18 20  1  0
 19 18  1  0
 19 20  1  0
 20 21  1  0
 21 22  1  0
 22 23  1  0
 23 27  1  0
 24 25  1  0
 24 23  1  0
 25 26  1  0
 26 27  1  0
  7 28  1  0
  8 29  1  0
 14 30  1  0
 15 31  1  0
 17 32  1  0
 17 33  1  0
 18 34  1  1
 19 35  1  0
 19 36  1  0
 20 37  1  6
 21 38  1  0
 21 39  1  0
 22 40  1  0
 22 41  1  0
 23 42  1  0
 24 43  1  0
 24 44  1  0
 25 45  1  0
 25 46  1  0
 26 47  1  0
 26 48  1  0
 27 49  1  0
 27 50  1  0
M  ISO  8  28  14  29  14  30  14  31  14  34  13  35  13  36  13  37  13
M  ISO  8  38   8  39   8  40   8  41   8  42  13  43  13  44  13  45  13
M  ISO  5  46  13  47  13  48  13  49  13  50  13
M  END
>  <minimizedAffinity>  (1) 
-4.89845943

>  <minimizedRMSD>  (1) 
2.27922153

$$$$
