
     RDKit          3D

 51 57  0  0  0  0  0  0  0  0999 V2000
   37.4020   24.0670   31.5930 C   0  0  0  0  0  0  0  0  0  0  0  0
   36.8310   25.3290   31.5490 C   0  0  0  0  0  0  0  0  0  0  0  0
   37.1890   26.1660   32.6030 C   0  0  0  0  0  0  0  0  0  0  0  0
   38.0110   25.7090   33.5230 N   0  0  0  0  0  0  0  0  0  0  0  0
   38.5640   24.5140   33.5850 C   0  0  0  0  0  0  0  0  0  0  0  0
   38.2270   23.7230   32.5900 N   0  0  0  0  0  0  0  0  0  0  0  0
   36.6830   27.4940   32.6970 N   0  0  0  0  0  0  0  0  0  0  0  0
   36.7800   28.4600   31.7690 C   0  0  0  0  0  0  0  0  0  0  0  0
   36.1980   29.5660   32.1830 N   0  0  0  0  0  0  0  0  0  0  0  0
   35.7100   29.3110   33.4150 C   0  0  0  0  0  0  0  0  0  0  0  0
   36.0220   28.0240   33.7080 N   0  0  0  0  0  0  0  0  0  0  0  0
   39.4720   23.8970   34.5280 C   0  0  0  0  0  0  0  0  0  0  0  0
   40.7180   23.4260   34.1400 C   0  0  0  0  0  0  0  0  0  0  0  0
   41.6170   22.8320   34.9950 C   0  0  0  0  0  0  0  0  0  0  0  0
   41.2980   22.6750   36.3310 C   0  0  0  0  0  0  0  0  0  0  0  0
   40.0820   23.1230   36.7540 C   0  0  0  0  0  0  0  0  0  0  0  0
   39.7650   22.9630   38.0910 C   0  0  0  0  0  0  0  0  0  0  0  0
   38.5690   23.3820   38.6050 C   0  0  0  0  0  0  0  0  0  0  0  0
   37.6700   23.9820   37.7250 C   0  0  0  0  0  0  0  0  0  0  0  0
   38.0280   24.1190   36.4080 C   0  0  0  0  0  0  0  0  0  0  0  0
   39.2060   23.7120   35.8780 C   0  0  0  0  0  0  0  0  0  0  0  0
   34.9740   30.1010   34.3920 C   0  0  0  0  0  0  0  0  0  0  0  0
   33.8530   29.9850   35.0940 N   0  0  0  0  0  0  0  0  0  0  0  0
   33.6710   31.0230   35.8370 O   0  0  0  0  0  0  0  0  0  0  0  0
   34.6780   31.8780   35.6540 C   0  0  0  0  0  0  0  0  0  0  0  0
   35.4690   31.2890   34.7590 N   0  0  0  0  0  0  0  0  0  0  0  0
   34.6490   33.1360   36.4240 C   0  0  0  0  0  0  0  0  0  0  0  0
   33.7980   33.3330   37.4460 N   0  0  0  0  0  0  0  0  0  0  0  0
   33.8180   34.4910   38.1050 C   0  0  0  0  0  0  0  0  0  0  0  0
   34.6520   35.5310   37.8260 N   0  0  0  0  0  0  0  0  0  0  0  0
   35.5380   35.3880   36.7970 C   0  0  0  0  0  0  0  0  0  0  0  0
   36.3900   36.4250   36.4960 C   0  0  0  0  0  0  0  0  0  0  0  0
   37.2900   36.2950   35.4610 C   0  0  0  0  0  0  0  0  0  0  0  0
   37.2910   35.1040   34.7600 C   0  0  0  0  0  0  0  0  0  0  0  0
   36.4120   34.1030   35.1120 C   0  0  0  0  0  0  0  0  0  0  0  0
   35.5010   34.1790   36.1260 C   0  0  0  0  0  0  0  0  0  0  0  0
   37.1749   23.3395   30.7998 H   0  0  0  0  0  0  0  0  0  0  0  0
   36.1492   25.6445   30.7455 H   0  0  0  0  0  0  0  0  0  0  0  0
   37.2781   28.3430   30.7952 H   0  0  0  0  0  0  0  0  0  0  0  0
   41.0046   23.5343   33.0835 H   0  0  0  0  0  0  0  0  0  0  0  0
   42.5887   22.4823   34.6162 H   0  0  0  0  0  0  0  0  0  0  0  0
   42.0034   22.2033   37.0309 H   0  0  0  0  0  0  0  0  0  0  0  0
   40.4959   22.4851   38.7599 H   0  0  0  0  0  0  0  0  0  0  0  0
   38.3263   23.2508   39.6698 H   0  0  0  0  0  0  0  0  0  0  0  0
   36.6919   24.3389   38.0799 H   0  0  0  0  0  0  0  0  0  0  0  0
   37.3036   24.5955   35.7311 H   0  0  0  0  0  0  0  0  0  0  0  0
   33.1083   34.6163   38.9360 H   0  0  0  0  0  0  0  0  0  0  0  0
   36.3529   37.3562   37.0804 H   0  0  0  0  0  0  0  0  0  0  0  0
   37.9825   37.1095   35.2021 H   0  0  0  0  0  0  0  0  0  0  0  0
   37.9908   34.9557   33.9243 H   0  0  0  0  0  0  0  0  0  0  0  0
   36.4470   33.1698   34.5307 H   0  0  0  0  0  0  0  0  0  0  0  0
  1  6  2  0
  2  1  1  0
  2  3  2  0
  3  7  1  0
  3  4  1  0
  4  5  2  0
  5 12  1  0
  6  5  1  0
  7 11  1  0
  8  9  2  0
  8  7  1  0
  9 10  1  0
 10 11  2  0
 10 22  1  0
 12 21  1  0
 13 12  2  0
 13 14  1  0
 14 15  2  0
 15 16  1  0
 16 17  2  0
 17 18  1  0
 19 18  2  0
 20 19  1  0
 21 20  2  0
 21 16  1  0
 22 26  1  0
 22 23  2  0
 23 24  1  0
 25 24  1  0
 25 27  1  0
 26 25  2  0
 27 28  2  0
 28 29  1  0
 30 29  2  0
 31 30  1  0
 32 31  2  0
 33 32  1  0
 34 35  1  0
 34 33  2  0
 35 36  2  0
 36 27  1  0
 36 31  1  0
  1 37  1  0
  2 38  1  0
  8 39  1  0
 13 40  1  0
 14 41  1  0
 15 42  1  0
 17 43  1  0
 18 44  1  0
 19 45  1  0
 20 46  1  0
 29 47  1  0
 32 48  1  0
 33 49  1  0
 34 50  1  0
 35 51  1  0
M  END
>  <minimizedAffinity>  (1) 
-7.59537029

>  <minimizedRMSD>  (1) 
1.20301378

$$$$
