
     RDKit          3D

 34 37  0  0  0  0  0  0  0  0999 V2000
   37.8691   23.6975   33.5019 C   0  0  0  0  0  0  0  0  0  0  0  0
   37.4674   22.6575   32.6670 C   0  0  0  0  0  0  0  0  0  0  0  0
   37.4863   21.5624   33.4856 N   0  0  0  0  0  0  0  0  0  0  0  0
   37.8722   21.9665   34.6931 C   0  0  0  0  0  0  0  0  0  0  0  0
   38.1127   23.2729   34.7294 N   0  0  0  0  0  0  0  0  0  0  0  0
   38.0137   25.0828   33.0767 C   0  0  0  0  0  0  0  0  0  0  0  0
   39.2957   25.5858   32.7690 C   0  0  0  0  0  0  0  0  0  0  0  0
   39.3912   26.9329   32.3577 C   0  0  0  0  0  0  0  0  0  0  0  0
   38.2390   27.6514   32.2870 N   0  0  0  0  0  0  0  0  0  0  0  0
   37.0297   27.1305   32.5910 C   0  0  0  0  0  0  0  0  0  0  0  0
   36.9103   25.8507   32.9854 N   0  0  0  0  0  0  0  0  0  0  0  0
   38.5319   23.9467   35.8994 C   0  0  1  0  0  0  0  0  0  0  0  0
   38.0816   25.2299   36.3639 C   0  0  0  0  0  0  0  0  0  0  0  0
   37.5587   23.9206   37.0296 C   0  0  2  0  0  0  0  0  0  0  0  0
   38.1231   23.7660   38.4274 C   0  0  0  0  0  0  0  0  0  0  0  0
   37.5131   22.7031   39.0649 F   0  0  0  0  0  0  0  0  0  0  0  0
   39.5108   23.3409   38.3053 F   0  0  0  0  0  0  0  0  0  0  0  0
   38.1404   24.8998   39.1427 F   0  0  0  0  0  0  0  0  0  0  0  0
   37.2153   22.7715   31.6215 H   0  0  0  0  0  0  0  0  0  0  0  0
   37.9205   21.1534   35.4307 H   0  0  0  0  0  0  0  0  0  0  0  0
   40.1585   24.9446   32.8526 H   0  0  0  0  0  0  0  0  0  0  0  0
   40.3604   27.3468   32.1152 H   0  0  0  0  0  0  0  0  0  0  0  0
   36.2110   27.8281   32.4852 H   0  0  0  0  0  0  0  0  0  0  0  0
   39.6108   23.6771   36.1788 H   0  0  0  0  0  0  0  0  0  0  0  0
   37.3132   25.7866   35.8141 H   0  0  0  0  0  0  0  0  0  0  0  0
   38.7017   25.8888   36.9956 H   0  0  0  0  0  0  0  0  0  0  0  0
   36.0534   23.9677   36.9410 C   0  0  0  0  0  0  0  0  0  0  0  0
   35.1345   23.5400   36.0012 C   0  0  0  0  0  0  0  0  0  0  0  0
   33.9280   23.8718   36.5007 N   0  0  0  0  0  0  0  0  0  0  0  0
   34.1008   24.4753   37.6924 C   0  0  0  0  0  0  0  0  0  0  0  0
   35.4326   24.5388   37.9749 N   0  0  0  0  0  0  0  0  0  0  0  0
   35.4860   23.0535   35.0990 H   0  0  0  0  0  0  0  0  0  0  0  0
   33.2769   24.8495   38.3200 H   0  0  0  0  0  0  0  0  0  0  0  0
   35.7468   24.9829   38.8743 H   0  0  0  0  0  0  0  0  0  0  0  0
  1  5  1  0
  2  3  1  0
  2  1  2  0
  3  4  2  0
  4  5  1  0
  5 12  1  0
  6  1  1  0
  7  6  2  0
  8  7  1  0
  9  8  2  0
  9 10  1  0
 10 11  2  0
 11  6  1  0
 12 13  1  0
 12 14  1  0
 13 14  1  0
 14 15  1  1
 15 16  1  0
 15 18  1  0
 17 15  1  0
  2 19  1  0
  4 20  1  0
  7 21  1  0
  8 22  1  0
 10 23  1  0
 12 24  1  1
 13 25  1  0
 13 26  1  0
 27 28  2  0
 28 29  1  0
 29 30  2  0
 30 31  1  0
 31 27  1  0
 28 32  1  0
 30 33  1  0
 31 34  1  0
 14 27  1  0
M  ISO  8  19  14  20  14  21  14  22  14  23  14  24  13  25  13  26  13
M  END
>  <DihAtoms>  (1) 
11,13,26,27

>  <DihDeg>  (1) 
-90.00041651098563

$$$$
