
     RDKit          3D

 40 43  0  0  1  0  0  0  0  0999 V2000
   37.2150   26.1300   32.4550 N   0  0  0  0  0  0  0  0  0  0  0  0
   36.3740   25.1100   32.2740 C   0  0  0  0  0  0  0  0  0  0  0  0
   35.4990   25.2870   31.2230 C   0  0  0  0  0  0  0  0  0  0  0  0
   35.8210   26.4850   30.7300 N   0  0  0  0  0  0  0  0  0  0  0  0
   36.8440   26.9830   31.4670 C   0  0  0  0  0  0  0  0  0  0  0  0
   37.4140   28.3200   31.0980 C   0  0  1  0  0  0  0  0  0  0  0  0
   36.5930   29.2440   30.2860 C   0  0  0  0  0  0  0  0  0  0  0  0
   36.7800   29.5470   31.7350 C   0  0  1  0  0  0  0  0  0  0  0  0
   35.6860   29.4200   32.7080 C   0  0  0  0  0  0  0  0  0  0  0  0
   35.5770   29.2200   34.0690 C   0  0  0  0  0  0  0  0  0  0  0  0
   34.2820   29.1920   34.4470 N   0  0  0  0  0  0  0  0  0  0  0  0
   33.5530   29.3740   33.3340 C   0  0  0  0  0  0  0  0  0  0  0  0
   34.3800   29.5070   32.3140 N   0  0  0  0  0  0  0  0  0  0  0  0
   38.2520   26.4130   33.3680 C   0  0  0  0  0  0  0  0  0  0  0  0
   37.8450   26.2770   34.7870 C   0  0  1  0  0  0  0  0  0  0  0  0
   38.2940   23.3930   37.1980 C   0  0  0  0  0  0  0  0  0  0  0  0
   37.8630   24.6410   36.7210 C   0  0  0  0  0  0  0  0  0  0  0  0
   38.2630   24.9860   35.3890 C   0  0  0  0  0  0  0  0  0  0  0  0
   39.0320   24.1010   34.6530 N   0  0  0  0  0  0  0  0  0  0  0  0
   39.4120   22.9320   35.1530 C   0  0  0  0  0  0  0  0  0  0  0  0
   39.0390   22.5720   36.4410 N   0  0  0  0  0  0  0  0  0  0  0  0
   38.4120   27.4370   35.6040 C   0  0  0  0  0  0  0  0  0  0  0  0
   36.3783   24.2096   32.9059 H   0  0  0  0  0  0  0  0  0  0  0  0
   34.7158   24.5992   30.8717 H   0  0  0  0  0  0  0  0  0  0  0  0
   38.4323   27.9134   31.0108 H   0  0  0  0  0  0  0  0  0  0  0  0
   37.0749   29.8801   29.5290 H   0  0  0  0  0  0  0  0  0  0  0  0
   35.7159   29.1212   29.6336 H   0  0  0  0  0  0  0  0  0  0  0  0
   37.1380   30.4135   32.3103 H   0  0  0  0  0  0  0  0  0  0  0  0
   36.4301   29.0997   34.7530 H   0  0  0  0  0  0  0  0  0  0  0  0
   32.4547   29.4066   33.2814 H   0  0  0  0  0  0  0  0  0  0  0  0
   34.0784   29.6578   31.3408 H   0  0  0  0  0  0  0  0  0  0  0  0
   39.0835   25.7188   33.1764 H   0  0  0  0  0  0  0  0  0  0  0  0
   38.5408   27.4632   33.2138 H   0  0  0  0  0  0  0  0  0  0  0  0
   36.7454   26.2992   34.8071 H   0  0  0  0  0  0  0  0  0  0  0  0
   38.0149   23.0808   38.2152 H   0  0  0  0  0  0  0  0  0  0  0  0
   37.2514   25.3173   37.3363 H   0  0  0  0  0  0  0  0  0  0  0  0
   40.0231   22.2475   34.5464 H   0  0  0  0  0  0  0  0  0  0  0  0
   38.3045   27.2172   36.6764 H   0  0  0  0  0  0  0  0  0  0  0  0
   39.4767   27.5701   35.3619 H   0  0  0  0  0  0  0  0  0  0  0  0
   37.8629   28.3589   35.3619 H   0  0  0  0  0  0  0  0  0  0  0  0
  1 14  1  0
  2  1  1  0
  3  2  2  0
  4  3  1  0
  4  5  2  0
  5  1  1  0
  6  5  1  0
  6  8  1  0
  7  6  1  0
  7  8  1  0
  8  9  1  0
  9 10  2  0
 10 11  1  0
 12 11  2  0
 13  9  1  0
 13 12  1  0
 14 15  1  0
 15 18  1  0
 15 22  1  0
 17 16  2  0
 18 17  1  0
 19 20  1  0
 19 18  2  0
 20 21  2  0
 21 16  1  0
  2 23  1  0
  3 24  1  0
  6 25  1  6
  7 26  1  0
  7 27  1  0
  8 28  1  6
 10 29  1  0
 12 30  1  0
 13 31  1  0
 14 32  1  0
 14 33  1  0
 15 34  1  6
 16 35  1  0
 17 36  1  0
 20 37  1  0
 22 38  1  0
 22 39  1  0
 22 40  1  0
M  ISO  8  23  14  24  14  25  13  26  13  27  13  28  13  29  14  30  14
M  ISO  8  31   9  32   8  33   8  34   8  35  14  36  14  37  14  38   8
M  ISO  2  39   8  40   8
M  END
>  <minimizedAffinity>  (1) 
-4.7607646

>  <minimizedRMSD>  (1) 
1.74503171

$$$$
