
     RDKit          3D

 36 39  0  0  0  0  0  0  0  0999 V2000
   36.4440   22.0040   31.8900 C   0  0  0  0  0  0  0  0  0  0  0  0
   37.6630   22.5780   32.3370 C   0  0  0  0  0  0  0  0  0  0  0  0
   38.8850   22.0290   31.9870 C   0  0  0  0  0  0  0  0  0  0  0  0
   38.7990   20.9180   31.1960 N   0  0  0  0  0  0  0  0  0  0  0  0
   37.6340   20.3670   30.7670 C   0  0  0  0  0  0  0  0  0  0  0  0
   36.4790   20.9240   31.1260 N   0  0  0  0  0  0  0  0  0  0  0  0
   37.7360   19.1770   29.9100 C   0  0  0  0  0  0  0  0  0  0  0  0
   38.9720   18.8820   29.4430 C   0  0  0  0  0  0  0  0  0  0  0  0
   38.6960   17.3450   28.4020 S   0  0  0  0  0  0  0  0  0  0  0  0
   36.8250   17.4250   28.8480 C   0  0  0  0  0  0  0  0  0  0  0  0
   36.8370   18.3380   29.4970 N   0  0  0  0  0  0  0  0  0  0  0  0
   35.8490   16.4970   28.3820 N   0  0  0  0  0  0  0  0  0  0  0  0
   37.7300   23.7510   33.1930 C   0  0  0  0  0  0  0  0  0  0  0  0
   37.3550   25.0370   32.8060 C   0  0  0  0  0  0  0  0  0  0  0  0
   37.4910   26.0330   33.7140 C   0  0  0  0  0  0  0  0  0  0  0  0
   37.9880   25.7020   34.9490 C   0  0  0  0  0  0  0  0  0  0  0  0
   38.2950   23.8550   34.8520 S   0  0  0  0  0  0  0  0  0  0  0  0
   37.0260   27.3280   33.2490 C   0  0  0  0  0  0  0  0  0  0  0  0
   37.1850   28.0350   32.0960 C   0  0  0  0  0  0  0  0  0  0  0  0
   36.4870   29.1800   32.0520 N   0  0  0  0  0  0  0  0  0  0  0  0
   35.8100   29.2800   33.2170 C   0  0  0  0  0  0  0  0  0  0  0  0
   36.1570   28.1760   33.8820 N   0  0  0  0  0  0  0  0  0  0  0  0
   38.2520   26.3940   36.1520 C   0  0  0  0  0  0  0  0  0  0  0  0
   38.1350   25.8690   37.2510 O   0  0  0  0  0  0  0  0  0  0  0  0
   38.6640   27.7240   36.2140 N   0  0  0  0  0  0  0  0  0  0  0  0
   35.4808   22.4521   32.1756 H   0  0  0  0  0  0  0  0  0  0  0  0
   39.8450   22.4519   32.3181 H   0  0  0  0  0  0  0  0  0  0  0  0
   39.9150   19.4167   29.6296 H   0  0  0  0  0  0  0  0  0  0  0  0
   34.8634   16.6020   28.6622 H   0  0  0  0  0  0  0  0  0  0  0  0
   36.1292   15.7213   27.7650 H   0  0  0  0  0  0  0  0  0  0  0  0
   36.9622   25.2359   31.7980 H   0  0  0  0  0  0  0  0  0  0  0  0
   37.8301   27.6965   31.2718 H   0  0  0  0  0  0  0  0  0  0  0  0
   35.1318   30.0830   33.5414 H   0  0  0  0  0  0  0  0  0  0  0  0
   35.7901   27.9724   34.8227 H   0  0  0  0  0  0  0  0  0  0  0  0
   38.8390   28.1669   37.1273 H   0  0  0  0  0  0  0  0  0  0  0  0
   38.7934   28.2640   35.3465 H   0  0  0  0  0  0  0  0  0  0  0  0
  1  2  2  0
  2 13  1  0
  3  2  1  0
  4  3  2  0
  5  6  2  0
  5  4  1  0
  6  1  1  0
  7  5  1  0
  8  7  2  0
  9 10  1  0
  9  8  1  0
 10 11  2  0
 11  7  1  0
 12 10  1  0
 13 17  1  0
 14 13  2  0
 14 15  1  0
 15 16  2  0
 16 23  1  0
 17 16  1  0
 18 15  1  0
 18 22  1  0
 19 18  2  0
 20 19  1  0
 20 21  2  0
 21 22  1  0
 23 25  1  0
 23 24  2  0
  1 26  1  0
  3 27  1  0
  8 28  1  0
 12 29  1  0
 12 30  1  0
 14 31  1  0
 19 32  1  0
 21 33  1  0
 22 34  1  0
 25 35  1  0
 25 36  1  0
M  ISO  7  26  14  27  14  28  14  31  14  32  14  33  14  34   9
M  END
>  <minimizedAffinity>  (1) 
-4.8326664

>  <minimizedRMSD>  (1) 
6.29713964

$$$$
