
     RDKit          3D

 47 49  0  0  0  0  0  0  0  0999 V2000
   37.8380   23.0540   33.7990 C   0  0  0  0  0  0  0  0  0  0  0  0
   37.9430   24.4080   33.9520 C   0  0  0  0  0  0  0  0  0  0  0  0
   38.7730   25.0040   34.8420 C   0  0  0  0  0  0  0  0  0  0  0  0
   39.5320   24.1610   35.6130 N   0  0  0  0  0  0  0  0  0  0  0  0
   39.4560   22.8160   35.4910 C   0  0  0  0  0  0  0  0  0  0  0  0
   38.6210   22.2450   34.5960 N   0  0  0  0  0  0  0  0  0  0  0  0
   36.9870   22.3410   32.8820 C   0  0  0  0  0  0  0  0  0  0  0  0
   36.2950   21.1920   33.2430 C   0  0  0  0  0  0  0  0  0  0  0  0
   35.5720   20.7450   32.1560 C   0  0  0  0  0  0  0  0  0  0  0  0
   35.8650   21.6630   31.1660 C   0  0  0  0  0  0  0  0  0  0  0  0
   36.7050   22.5850   31.6460 O   0  0  0  0  0  0  0  0  0  0  0  0
   34.6900   19.5810   32.0340 C   0  0  0  0  0  0  0  0  0  0  0  0
   35.2730   18.3170   32.6580 C   0  0  0  0  0  0  0  0  0  0  0  0
   36.3670   17.7940   31.8980 N   0  0  0  0  0  0  0  0  0  0  0  0
   38.8960   26.4380   35.0170 C   0  0  0  0  0  0  0  0  0  0  0  0
   38.3760   26.9090   36.3520 C   0  0  0  0  0  0  0  0  0  0  0  0
   38.1050   27.1690   33.9190 C   0  0  0  0  0  0  0  0  0  0  0  0
   40.3420   26.8390   34.8470 C   0  0  0  0  0  0  0  0  0  0  0  0
   40.6800   27.1700   33.4420 C   0  0  0  0  0  0  0  0  0  0  0  0
   41.8990   27.6400   33.0000 C   0  0  0  0  0  0  0  0  0  0  0  0
   42.1940   27.9390   31.7060 C   0  0  0  0  0  0  0  0  0  0  0  0
   41.2470   27.7780   30.7360 C   0  0  0  0  0  0  0  0  0  0  0  0
   40.0130   27.3140   31.0930 C   0  0  0  0  0  0  0  0  0  0  0  0
   39.7450   27.0200   32.4130 C   0  0  0  0  0  0  0  0  0  0  0  0
   37.3174   25.0513   33.3158 H   0  0  0  0  0  0  0  0  0  0  0  0
   40.0836   22.1777   36.1303 H   0  0  0  0  0  0  0  0  0  0  0  0
   36.3194   20.7158   34.2343 H   0  0  0  0  0  0  0  0  0  0  0  0
   35.4680   21.6388   30.1404 H   0  0  0  0  0  0  0  0  0  0  0  0
   33.7374   19.8103   32.5340 H   0  0  0  0  0  0  0  0  0  0  0  0
   34.5561   19.3835   30.9602 H   0  0  0  0  0  0  0  0  0  0  0  0
   35.6272   18.5535   33.6722 H   0  0  0  0  0  0  0  0  0  0  0  0
   34.4808   17.5541   32.6784 H   0  0  0  0  0  0  0  0  0  0  0  0
   37.0947   17.4461   32.5385 H   0  0  0  0  0  0  0  0  0  0  0  0
   36.0341   17.0210   31.3042 H   0  0  0  0  0  0  0  0  0  0  0  0
   38.9300   26.4072   37.1590 H   0  0  0  0  0  0  0  0  0  0  0  0
   38.5123   27.9973   36.4353 H   0  0  0  0  0  0  0  0  0  0  0  0
   37.3064   26.6660   36.4353 H   0  0  0  0  0  0  0  0  0  0  0  0
   37.3727   27.8458   34.3835 H   0  0  0  0  0  0  0  0  0  0  0  0
   38.7979   27.7516   33.2941 H   0  0  0  0  0  0  0  0  0  0  0  0
   37.5787   26.4324   33.2941 H   0  0  0  0  0  0  0  0  0  0  0  0
   40.5391   27.7210   35.4740 H   0  0  0  0  0  0  0  0  0  0  0  0
   40.9630   25.9818   35.1462 H   0  0  0  0  0  0  0  0  0  0  0  0
   42.6914   27.7837   33.7493 H   0  0  0  0  0  0  0  0  0  0  0  0
   43.1951   28.3103   31.4415 H   0  0  0  0  0  0  0  0  0  0  0  0
   41.4735   28.0175   29.6866 H   0  0  0  0  0  0  0  0  0  0  0  0
   39.2343   27.1751   30.3286 H   0  0  0  0  0  0  0  0  0  0  0  0
   38.7425   26.6477   32.6705 H   0  0  0  0  0  0  0  0  0  0  0  0
  1  2  2  0
  1  6  1  0
  2  3  1  0
  3 15  1  0
  3  4  2  0
  5  4  1  0
  6  5  2  0
  7  8  2  0
  7  1  1  0
  9  8  1  0
 10 11  1  0
 10  9  2  0
 11  7  1  0
 12  9  1  0
 12 13  1  0
 14 13  1  0
 15 16  1  0
 17 15  1  0
 18 15  1  0
 19 18  1  0
 20 19  2  0
 21 20  1  0
 22 23  1  0
 22 21  2  0
 23 24  2  0
 24 19  1  0
  2 25  1  0
  5 26  1  0
  8 27  1  0
 10 28  1  0
 12 29  1  0
 12 30  1  0
 13 31  1  0
 13 32  1  0
 14 33  1  0
 14 34  1  0
 16 35  1  0
 16 36  1  0
 16 37  1  0
 17 38  1  0
 17 39  1  0
 17 40  1  0
 18 41  1  0
 18 42  1  0
 20 43  1  0
 21 44  1  0
 22 45  1  0
 23 46  1  0
 24 47  1  0
M  ISO  8  25  14  26  14  27  14  28  14  29   8  30   8  31   8  32   8
M  ISO  8  33   5  34   5  35   8  36   8  37   8  38   8  39   8  40   8
M  ISO  7  41   8  42   8  43  14  44  14  45  14  46  14  47  14
M  END
>  <minimizedAffinity>  (1) 
-5.3088398

>  <minimizedRMSD>  (1) 
1.31926203

$$$$
