
     RDKit          3D

 30 33  0  0  0  0  0  0  0  0999 V2000
   39.7140   22.7940   37.9000 C   0  0  0  0  0  0  0  0  0  0  0  0
   38.7810   23.5130   38.6480 C   0  0  0  0  0  0  0  0  0  0  0  0
   37.7750   24.2140   37.9490 C   0  0  0  0  0  0  0  0  0  0  0  0
   37.8050   24.1250   36.5760 N   0  0  0  0  0  0  0  0  0  0  0  0
   38.7240   23.4190   35.8930 C   0  0  0  0  0  0  0  0  0  0  0  0
   39.6690   22.7610   36.5700 N   0  0  0  0  0  0  0  0  0  0  0  0
   38.5920   23.4460   34.4790 N   0  0  0  0  0  0  0  0  0  0  0  0
   39.0110   22.4020   33.6940 C   0  0  0  0  0  0  0  0  0  0  0  0
   38.7650   22.6950   32.3940 N   0  0  0  0  0  0  0  0  0  0  0  0
   38.1900   23.9190   32.3270 C   0  0  0  0  0  0  0  0  0  0  0  0
   37.7100   24.7700   31.3240 C   0  0  0  0  0  0  0  0  0  0  0  0
   37.1820   25.9590   31.6220 N   0  0  0  0  0  0  0  0  0  0  0  0
   37.1090   26.3470   32.8960 C   0  0  0  0  0  0  0  0  0  0  0  0
   37.5610   25.5540   33.8930 N   0  0  0  0  0  0  0  0  0  0  0  0
   38.0950   24.3590   33.6330 C   0  0  0  0  0  0  0  0  0  0  0  0
   37.8660   24.1940   30.0200 N   0  0  0  0  0  0  0  0  0  0  0  0
   36.5350   27.6450   33.2390 C   0  0  0  0  0  0  0  0  0  0  0  0
   36.0360   28.5930   32.3810 C   0  0  0  0  0  0  0  0  0  0  0  0
   35.5930   29.6630   33.1010 N   0  0  0  0  0  0  0  0  0  0  0  0
   35.8150   29.3850   34.4180 C   0  0  0  0  0  0  0  0  0  0  0  0
   36.3820   28.1650   34.4780 N   0  0  0  0  0  0  0  0  0  0  0  0
   40.5074   22.2400   38.4230 H   0  0  0  0  0  0  0  0  0  0  0  0
   38.8280   23.5328   39.7468 H   0  0  0  0  0  0  0  0  0  0  0  0
   37.0071   24.8008   38.4742 H   0  0  0  0  0  0  0  0  0  0  0  0
   39.4734   21.4740   34.0615 H   0  0  0  0  0  0  0  0  0  0  0  0
   38.2912   23.2616   29.9164 H   0  0  0  0  0  0  0  0  0  0  0  0
   37.5528   24.7127   29.1871 H   0  0  0  0  0  0  0  0  0  0  0  0
   35.9992   28.5037   31.2852 H   0  0  0  0  0  0  0  0  0  0  0  0
   35.5755   30.0360   35.2717 H   0  0  0  0  0  0  0  0  0  0  0  0
   36.6613   27.6921   35.3493 H   0  0  0  0  0  0  0  0  0  0  0  0
  1  2  2  0
  3  2  1  0
  4  3  2  0
  5  6  2  0
  5  4  1  0
  6  1  1  0
  7  5  1  0
  8  7  1  0
  9  8  2  0
 10  9  1  0
 10 15  2  0
 11 12  2  0
 11 10  1  0
 12 13  1  0
 13 17  1  0
 13 14  2  0
 15 14  1  0
 15  7  1  0
 16 11  1  0
 17 21  1  0
 18 19  1  0
 18 17  2  0
 19 20  2  0
 20 21  1  0
  1 22  1  0
  2 23  1  0
  3 24  1  0
  8 25  1  0
 16 26  1  0
 16 27  1  0
 18 28  1  0
 20 29  1  0
 21 30  1  0
M  ISO  7  22  14  23  14  24  14  25  14  28  14  29  14  30   9
M  END
>  <minimizedAffinity>  (1) 
-5.51800013

>  <minimizedRMSD>  (1) 
1.70014918

$$$$
