
     RDKit          3D

 23 24  0  0  0  0  0  0  0  0999 V2000
   37.8590   25.9680   34.1820 C   0  0  0  0  0  0  0  0  0  0  0  0
   37.3530   25.7430   32.8380 C   0  0  0  0  0  0  0  0  0  0  0  0
   37.3080   24.4260   32.4920 C   0  0  0  0  0  0  0  0  0  0  0  0
   37.7140   23.4350   33.3900 N   0  0  0  0  0  0  0  0  0  0  0  0
   38.1620   23.7150   34.6060 C   0  0  0  0  0  0  0  0  0  0  0  0
   38.2420   24.9730   35.0130 N   0  0  0  0  0  0  0  0  0  0  0  0
   36.9980   27.0280   32.2990 C   0  0  0  0  0  0  0  0  0  0  0  0
   37.8100   27.9590   31.6630 C   0  0  0  0  0  0  0  0  0  0  0  0
   37.0980   29.0090   31.2390 N   0  0  0  0  0  0  0  0  0  0  0  0
   35.8180   28.8090   31.5750 C   0  0  0  0  0  0  0  0  0  0  0  0
   35.8130   27.6420   32.1910 N   0  0  0  0  0  0  0  0  0  0  0  0
   36.8610   24.2600   31.0730 C   0  0  0  0  0  0  0  0  0  0  0  0
   38.1120   23.9090   30.2460 C   0  0  0  0  0  0  0  0  0  0  0  0
   37.9344   27.0045   34.5425 H   0  0  0  0  0  0  0  0  0  0  0  0
   38.4681   22.9004   35.2788 H   0  0  0  0  0  0  0  0  0  0  0  0
   38.8957   27.8473   31.5262 H   0  0  0  0  0  0  0  0  0  0  0  0
   34.9607   29.4704   31.3808 H   0  0  0  0  0  0  0  0  0  0  0  0
   34.9481   27.2277   32.5668 H   0  0  0  0  0  0  0  0  0  0  0  0
   36.1213   23.4489   31.0022 H   0  0  0  0  0  0  0  0  0  0  0  0
   36.3886   25.1805   30.6996 H   0  0  0  0  0  0  0  0  0  0  0  0
   38.9460   23.6750   30.9240 H   0  0  0  0  0  0  0  0  0  0  0  0
   37.8991   23.0359   29.6117 H   0  0  0  0  0  0  0  0  0  0  0  0
   38.3844   24.7654   29.6117 H   0  0  0  0  0  0  0  0  0  0  0  0
  1  6  2  0
  2  1  1  0
  3  2  2  0
  3  4  1  0
  4  5  2  0
  5  6  1  0
  7  2  1  0
  8  7  2  0
  9 10  2  0
  9  8  1  0
 10 11  1  0
 11  7  1  0
 12  3  1  0
 13 12  1  0
  1 14  1  0
  5 15  1  0
  8 16  1  0
 10 17  1  0
 11 18  1  0
 12 19  1  0
 12 20  1  0
 13 21  1  0
 13 22  1  0
 13 23  1  0
M  ISO  8  14  14  15  14  16  14  17  14  18   9  19   8  20   8  21   8
M  ISO  2  22   8  23   8
M  END
>  <minimizedAffinity>  (1) 
-2.91773224

>  <minimizedRMSD>  (1) 
7.99359608

$$$$
