
     RDKit          3D

 35 38  0  0  0  0  0  0  0  0999 V2000
   37.5970   24.8500   36.4590 O   0  0  0  0  0  0  0  0  0  0  0  0
   39.6700   22.6230   38.2490 N   0  0  0  0  0  0  0  0  0  0  0  0
   38.5890   23.3820   38.0950 N   0  0  0  0  0  0  0  0  0  0  0  0
   38.6400   23.9850   36.8660 C   0  0  0  0  0  0  0  0  0  0  0  0
   39.7990   23.5870   36.2280 C   0  0  0  0  0  0  0  0  0  0  0  0
   40.4030   22.7420   37.1300 C   0  0  0  0  0  0  0  0  0  0  0  0
   41.6960   22.0670   36.8660 C   0  0  0  0  0  0  0  0  0  0  0  0
   42.7110   22.7450   36.2360 C   0  0  0  0  0  0  0  0  0  0  0  0
   43.8680   22.0380   36.0350 C   0  0  0  0  0  0  0  0  0  0  0  0
   44.0670   20.7530   36.4090 N   0  0  0  0  0  0  0  0  0  0  0  0
   43.0530   20.1150   37.0250 C   0  0  0  0  0  0  0  0  0  0  0  0
   41.9090   20.7990   37.2280 N   0  0  0  0  0  0  0  0  0  0  0  0
   37.8800   26.0050   35.7500 C   0  0  0  0  0  0  0  0  0  0  0  0
   38.5150   26.9640   36.2710 O   0  0  0  0  0  0  0  0  0  0  0  0
   37.4390   26.1290   34.3610 C   0  0  0  0  0  0  0  0  0  0  0  0
   37.6730   25.0550   33.5170 C   0  0  0  0  0  0  0  0  0  0  0  0
   37.2540   25.1610   32.1830 C   0  0  0  0  0  0  0  0  0  0  0  0
   36.6470   26.3150   31.8160 N   0  0  0  0  0  0  0  0  0  0  0  0
   36.4410   27.3150   32.6480 C   0  0  0  0  0  0  0  0  0  0  0  0
   36.8270   27.2520   33.9340 N   0  0  0  0  0  0  0  0  0  0  0  0
   35.7810   28.5360   32.1990 C   0  0  0  0  0  0  0  0  0  0  0  0
   36.1110   29.3510   31.1360 C   0  0  0  0  0  0  0  0  0  0  0  0
   35.2320   30.3740   31.0830 N   0  0  0  0  0  0  0  0  0  0  0  0
   34.3330   30.2370   32.0970 C   0  0  0  0  0  0  0  0  0  0  0  0
   34.7100   29.1190   32.7350 N   0  0  0  0  0  0  0  0  0  0  0  0
   39.9020   22.0504   39.0731 H   0  0  0  0  0  0  0  0  0  0  0  0
   40.1563   23.8785   35.2293 H   0  0  0  0  0  0  0  0  0  0  0  0
   42.6021   23.7908   35.9127 H   0  0  0  0  0  0  0  0  0  0  0  0
   44.6981   22.5548   35.5312 H   0  0  0  0  0  0  0  0  0  0  0  0
   43.1551   19.0697   37.3519 H   0  0  0  0  0  0  0  0  0  0  0  0
   38.1728   24.1460   33.8828 H   0  0  0  0  0  0  0  0  0  0  0  0
   37.4115   24.3423   31.4655 H   0  0  0  0  0  0  0  0  0  0  0  0
   36.9523   29.1931   30.4451 H   0  0  0  0  0  0  0  0  0  0  0  0
   33.4864   30.8964   32.3388 H   0  0  0  0  0  0  0  0  0  0  0  0
   34.2185   28.7470   33.5602 H   0  0  0  0  0  0  0  0  0  0  0  0
  1  4  1  0
  3  2  1  0
  4  3  2  0
  5  4  1  0
  5  6  2  0
  6  2  1  0
  7  6  1  0
  7 12  1  0
  8  7  2  0
  9  8  1  0
  9 10  2  0
 10 11  1  0
 11 12  2  0
 13 14  2  0
 13  1  1  0
 15 13  1  0
 16 15  2  0
 17 16  1  0
 18 17  2  0
 18 19  1  0
 19 20  2  0
 20 15  1  0
 21 19  1  0
 21 25  1  0
 22 21  2  0
 23 22  1  0
 23 24  2  0
 24 25  1  0
  2 26  1  0
  5 27  1  0
  8 28  1  0
  9 29  1  0
 11 30  1  0
 16 31  1  0
 17 32  1  0
 22 33  1  0
 24 34  1  0
 25 35  1  0
M  ISO  8  26   9  27  14  28  14  29  14  30  14  31  14  32  14  33  14
M  ISO  2  34  14  35   9
M  END
>  <minimizedAffinity>  (1) 
-5.68385553

>  <minimizedRMSD>  (1) 
0.842696071

$$$$
