
     RDKit          3D

 40 44  0  0  0  0  0  0  0  0999 V2000
   41.5110   21.9950   36.7030 O   0  0  0  0  0  0  0  0  0  0  0  0
   40.1690   22.2900   36.8050 C   0  0  0  0  0  0  0  0  0  0  0  0
   39.7660   23.0090   37.9300 C   0  0  0  0  0  0  0  0  0  0  0  0
   38.3950   23.3140   38.0410 C   0  0  0  0  0  0  0  0  0  0  0  0
   37.5560   22.9090   37.0820 N   0  0  0  0  0  0  0  0  0  0  0  0
   37.9980   22.2090   36.0030 C   0  0  0  0  0  0  0  0  0  0  0  0
   39.2850   21.9110   35.8790 N   0  0  0  0  0  0  0  0  0  0  0  0
   37.1670   21.7400   34.9390 N   0  0  0  0  0  0  0  0  0  0  0  0
   37.4660   22.0330   33.6470 C   0  0  0  0  0  0  0  0  0  0  0  0
   36.6190   21.5480   32.6550 C   0  0  0  0  0  0  0  0  0  0  0  0
   35.5020   20.7880   32.9680 C   0  0  0  0  0  0  0  0  0  0  0  0
   34.7180   20.3370   32.0830 O   0  0  0  0  0  0  0  0  0  0  0  0
   35.2430   20.5220   34.2630 N   0  0  0  0  0  0  0  0  0  0  0  0
   36.0700   20.9960   35.2210 C   0  0  0  0  0  0  0  0  0  0  0  0
   35.8430   20.7570   36.4290 O   0  0  0  0  0  0  0  0  0  0  0  0
   42.4840   22.8470   36.2420 C   0  0  0  0  0  0  0  0  0  0  0  0
   42.3660   24.2260   36.0940 C   0  0  0  0  0  0  0  0  0  0  0  0
   43.5160   24.7350   35.6180 N   0  0  0  0  0  0  0  0  0  0  0  0
   44.4270   23.7320   35.4320 C   0  0  0  0  0  0  0  0  0  0  0  0
   45.7110   23.7340   34.9760 C   0  0  0  0  0  0  0  0  0  0  0  0
   46.4120   22.5580   34.8870 C   0  0  0  0  0  0  0  0  0  0  0  0
   45.7750   21.3720   35.2750 C   0  0  0  0  0  0  0  0  0  0  0  0
   44.4610   21.3790   35.7410 C   0  0  0  0  0  0  0  0  0  0  0  0
   43.7750   22.5640   35.8220 C   0  0  0  0  0  0  0  0  0  0  0  0
   43.8960   20.0910   36.1220 C   0  0  0  0  0  0  0  0  0  0  0  0
   43.4050   19.2220   35.2170 N   0  0  0  0  0  0  0  0  0  0  0  0
   42.9600   18.1490   35.7930 O   0  0  0  0  0  0  0  0  0  0  0  0
   43.1250   18.2390   37.0880 C   0  0  0  0  0  0  0  0  0  0  0  0
   43.7000   19.4350   37.2700 N   0  0  0  0  0  0  0  0  0  0  0  0
   40.4877   23.3245   38.6979 H   0  0  0  0  0  0  0  0  0  0  0  0
   38.0191   23.8789   38.9068 H   0  0  0  0  0  0  0  0  0  0  0  0
   38.3506   22.6352   33.3925 H   0  0  0  0  0  0  0  0  0  0  0  0
   36.8400   21.7721   31.6010 H   0  0  0  0  0  0  0  0  0  0  0  0
   34.4192   19.9604   34.5216 H   0  0  0  0  0  0  0  0  0  0  0  0
   41.4659   24.8122   36.3311 H   0  0  0  0  0  0  0  0  0  0  0  0
   43.6856   25.7320   35.4225 H   0  0  0  0  0  0  0  0  0  0  0  0
   46.1865   24.6803   34.6787 H   0  0  0  0  0  0  0  0  0  0  0  0
   47.4489   22.5466   34.5200 H   0  0  0  0  0  0  0  0  0  0  0  0
   46.3209   20.4191   35.2109 H   0  0  0  0  0  0  0  0  0  0  0  0
   42.8527   17.4988   37.8548 H   0  0  0  0  0  0  0  0  0  0  0  0
  1  2  1  0
  2  3  2  0
  3  4  1  0
  5  4  2  0
  6  5  1  0
  7  6  2  0
  7  2  1  0
  8 14  1  0
  8  6  1  0
  9  8  1  0
 10 11  1  0
 10  9  2  0
 11 13  1  0
 12 11  2  0
 13 14  1  0
 14 15  2  0
 16  1  1  0
 17 16  2  0
 18 17  1  0
 19 18  1  0
 19 24  2  0
 20 19  1  0
 21 20  2  0
 21 22  1  0
 22 23  2  0
 23 24  1  0
 23 25  1  0
 24 16  1  0
 25 29  1  0
 26 27  1  0
 26 25  2  0
 27 28  1  0
 28 29  2  0
  3 30  1  0
  4 31  1  0
  9 32  1  0
 10 33  1  0
 13 34  1  0
 17 35  1  0
 18 36  1  0
 20 37  1  0
 21 38  1  0
 22 39  1  0
 28 40  1  0
M  ISO  8  30  14  31  14  32  14  33  14  34   9  35  14  36   9  37  14
M  ISO  3  38  14  39  14  40  14
M  END
>  <minimizedAffinity>  (1) 
-5.71245098

>  <minimizedRMSD>  (1) 
2.08143568

$$$$
