
     RDKit          3D

 34 37  0  0  0  0  0  0  0  0999 V2000
   38.3670   25.3320   35.3300 C   0  0  0  0  0  0  0  0  0  0  0  0
   38.6930   26.0360   34.1710 C   0  0  0  0  0  0  0  0  0  0  0  0
   39.9210   25.8160   33.5220 C   0  0  0  0  0  0  0  0  0  0  0  0
   40.7180   24.8870   34.1190 N   0  0  0  0  0  0  0  0  0  0  0  0
   40.3860   24.2070   35.2480 C   0  0  0  0  0  0  0  0  0  0  0  0
   39.2080   24.4480   35.8330 N   0  0  0  0  0  0  0  0  0  0  0  0
   41.3510   23.2360   35.7580 C   0  0  0  0  0  0  0  0  0  0  0  0
   42.5680   23.2360   35.1750 C   0  0  0  0  0  0  0  0  0  0  0  0
   43.5040   21.8920   36.0870 S   0  0  0  0  0  0  0  0  0  0  0  0
   41.9380   21.5750   37.1590 C   0  0  0  0  0  0  0  0  0  0  0  0
   41.2850   22.3450   36.6910 N   0  0  0  0  0  0  0  0  0  0  0  0
   41.8960   20.5980   38.1760 N   0  0  0  0  0  0  0  0  0  0  0  0
   37.8430   27.0360   33.5360 C   0  0  0  0  0  0  0  0  0  0  0  0
   36.8720   27.7730   34.1840 C   0  0  0  0  0  0  0  0  0  0  0  0
   36.1740   28.6630   33.4530 C   0  0  0  0  0  0  0  0  0  0  0  0
   36.4650   28.7850   32.1130 C   0  0  0  0  0  0  0  0  0  0  0  0
   37.8410   27.5440   31.8530 S   0  0  0  0  0  0  0  0  0  0  0  0
   35.1340   29.4930   34.1230 C   0  0  0  0  0  0  0  0  0  0  0  0
   33.8190   29.4210   34.0170 N   0  0  0  0  0  0  0  0  0  0  0  0
   33.2480   30.2990   34.7490 O   0  0  0  0  0  0  0  0  0  0  0  0
   34.1380   30.9990   35.3800 C   0  0  0  0  0  0  0  0  0  0  0  0
   35.3090   30.4990   34.9910 N   0  0  0  0  0  0  0  0  0  0  0  0
   35.9800   29.5400   31.0240 C   0  0  0  0  0  0  0  0  0  0  0  0
   36.5700   29.5370   29.9270 O   0  0  0  0  0  0  0  0  0  0  0  0
   34.7960   30.3350   31.1240 N   0  0  0  0  0  0  0  0  0  0  0  0
   37.4032   25.5146   35.8278 H   0  0  0  0  0  0  0  0  0  0  0  0
   40.2140   26.3508   32.6065 H   0  0  0  0  0  0  0  0  0  0  0  0
   42.9272   23.8757   34.3554 H   0  0  0  0  0  0  0  0  0  0  0  0
   41.0352   20.4630   38.7252 H   0  0  0  0  0  0  0  0  0  0  0  0
   42.7262   20.0197   38.3692 H   0  0  0  0  0  0  0  0  0  0  0  0
   36.6757   27.6382   35.2579 H   0  0  0  0  0  0  0  0  0  0  0  0
   33.9637   31.8262   36.0838 H   0  0  0  0  0  0  0  0  0  0  0  0
   34.4680   30.8749   30.3105 H   0  0  0  0  0  0  0  0  0  0  0  0
   34.2710   30.3679   32.0096 H   0  0  0  0  0  0  0  0  0  0  0  0
  1  6  2  0
  2  1  1  0
  3  4  1  0
  3  2  2  0
  4  5  2  0
  5  7  1  0
  5  6  1  0
  7 11  1  0
  8  7  2  0
  8  9  1  0
  9 10  1  0
 10 12  1  0
 11 10  2  0
 13  2  1  0
 13 14  2  0
 15 18  1  0
 15 14  1  0
 16 15  2  0
 17 16  1  0
 17 13  1  0
 18 22  1  0
 19 18  2  0
 19 20  1  0
 20 21  1  0
 22 21  2  0
 23 25  1  0
 23 16  1  0
 24 23  2  0
  1 26  1  0
  3 27  1  0
  8 28  1  0
 12 29  1  0
 12 30  1  0
 14 31  1  0
 21 32  1  0
 25 33  1  0
 25 34  1  0
M  ISO  5  26  14  27  14  28  14  31  14  32  14
M  END
>  <minimizedAffinity>  (1) 
-5.36445189

>  <minimizedRMSD>  (1) 
2.84997129

$$$$
