
     RDKit          3D

 58 61  0  0  1  0  0  0  0  0999 V2000
   38.6300   25.9780   34.8040 C   0  0  2  0  0  0  0  0  0  0  0  0
   38.6710   22.9720   36.9450 C   0  0  0  0  0  0  0  0  0  0  0  0
   38.3000   23.4330   38.1850 C   0  0  0  0  0  0  0  0  0  0  0  0
   38.0340   24.7810   38.2710 C   0  0  0  0  0  0  0  0  0  0  0  0
   38.1450   25.5680   37.1690 N   0  0  0  0  0  0  0  0  0  0  0  0
   38.5150   25.0760   35.9560 C   0  0  0  0  0  0  0  0  0  0  0  0
   38.7770   23.7450   35.8720 N   0  0  0  0  0  0  0  0  0  0  0  0
   38.2290   22.5230   39.2590 N   0  0  0  0  0  0  0  0  0  0  0  0
   39.0610   27.3390   35.2300 C   0  0  0  0  0  0  0  0  0  0  0  0
   37.2770   26.0240   34.1450 C   0  0  0  0  0  0  0  0  0  0  0  0
   36.8920   27.2720   33.5660 N   0  0  0  0  0  0  0  0  0  0  0  0
   36.2850   28.1430   34.4070 C   0  0  0  0  0  0  0  0  0  0  0  0
   35.8580   29.3950   33.9940 C   0  0  0  0  0  0  0  0  0  0  0  0
   36.0710   29.7400   32.6770 C   0  0  0  0  0  0  0  0  0  0  0  0
   35.6260   31.0310   32.2750 N   0  0  0  0  0  0  0  0  0  0  0  0
   36.6750   28.8690   31.8460 N   0  0  0  0  0  0  0  0  0  0  0  0
   37.0630   27.6770   32.3050 C   0  0  0  0  0  0  0  0  0  0  0  0
   37.6210   26.8620   31.5460 O   0  0  0  0  0  0  0  0  0  0  0  0
   35.2040   30.3000   34.9500 C   0  0  0  0  0  0  0  0  0  0  0  0
   35.9250   31.1940   35.6940 C   0  0  0  0  0  0  0  0  0  0  0  0
   35.3050   32.0380   36.5900 C   0  0  0  0  0  0  0  0  0  0  0  0
   33.9570   31.9430   36.7010 C   0  0  0  0  0  0  0  0  0  0  0  0
   33.1890   31.0680   35.9820 C   0  0  0  0  0  0  0  0  0  0  0  0
   33.8250   30.2190   35.0790 C   0  0  0  0  0  0  0  0  0  0  0  0
   39.6290   25.4220   33.7930 C   0  0  0  0  0  0  0  0  0  0  0  0
   43.7700   26.4490   34.3710 C   0  0  0  0  0  0  0  0  0  0  0  0
   43.2340   25.4240   35.1310 C   0  0  0  0  0  0  0  0  0  0  0  0
   41.9350   25.0930   34.9440 C   0  0  0  0  0  0  0  0  0  0  0  0
   41.0430   25.6620   34.0680 C   0  0  0  0  0  0  0  0  0  0  0  0
   41.5940   26.7000   33.3000 C   0  0  0  0  0  0  0  0  0  0  0  0
   42.9310   27.0870   33.4490 C   0  0  0  0  0  0  0  0  0  0  0  0
   45.4350   26.8660   34.6210 S   0  0  0  0  0  0  0  0  0  0  0  0
   45.7870   26.4220   36.0260 O   0  0  0  0  0  0  0  0  0  0  0  0
   45.7190   28.3180   34.4530 O   0  0  0  0  0  0  0  0  0  0  0  0
   38.8929   21.9002   36.8356 H   0  0  0  0  0  0  0  0  0  0  0  0
   37.7314   25.2212   39.2326 H   0  0  0  0  0  0  0  0  0  0  0  0
   37.9526   22.8518   40.1952 H   0  0  0  0  0  0  0  0  0  0  0  0
   38.4535   21.5292   39.1077 H   0  0  0  0  0  0  0  0  0  0  0  0
   39.0775   27.3912   36.3286 H   0  0  0  0  0  0  0  0  0  0  0  0
   40.0681   27.5442   34.8380 H   0  0  0  0  0  0  0  0  0  0  0  0
   38.3556   28.0865   34.8380 H   0  0  0  0  0  0  0  0  0  0  0  0
   37.2686   25.2681   33.3459 H   0  0  0  0  0  0  0  0  0  0  0  0
   36.5533   25.8425   34.9532 H   0  0  0  0  0  0  0  0  0  0  0  0
   36.1254   27.8463   35.4541 H   0  0  0  0  0  0  0  0  0  0  0  0
   35.7593   31.3418   31.3021 H   0  0  0  0  0  0  0  0  0  0  0  0
   35.1707   31.6543   32.9570 H   0  0  0  0  0  0  0  0  0  0  0  0
   37.0176   31.2398   35.5750 H   0  0  0  0  0  0  0  0  0  0  0  0
   35.8799   32.7587   37.1901 H   0  0  0  0  0  0  0  0  0  0  0  0
   33.4495   32.6105   37.4130 H   0  0  0  0  0  0  0  0  0  0  0  0
   32.0974   31.0358   36.1137 H   0  0  0  0  0  0  0  0  0  0  0  0
   33.2462   29.4997   34.4810 H   0  0  0  0  0  0  0  0  0  0  0  0
   39.4797   24.3334   33.7410 H   0  0  0  0  0  0  0  0  0  0  0  0
   39.4215   25.9596   32.8560 H   0  0  0  0  0  0  0  0  0  0  0  0
   43.8497   24.8905   35.8702 H   0  0  0  0  0  0  0  0  0  0  0  0
   41.5484   24.2724   35.5663 H   0  0  0  0  0  0  0  0  0  0  0  0
   40.9617   27.2203   32.5655 H   0  0  0  0  0  0  0  0  0  0  0  0
   43.3292   27.9058   32.8317 H   0  0  0  0  0  0  0  0  0  0  0  0
   46.1965   26.2395   33.6699 H   0  0  0  0  0  0  0  0  0  0  0  0
  1 25  1  6
  1  9  1  0
  1  6  1  0
  2  3  2  0
  3  4  1  0
  3  8  1  0
  5  4  2  0
  6  5  1  0
  7  6  2  0
  7  2  1  0
 10  1  1  0
 11 10  1  0
 11 12  1  0
 13 12  2  0
 13 19  1  0
 14 13  1  0
 15 14  1  0
 16 17  1  0
 16 14  2  0
 17 11  1  0
 18 17  2  0
 19 24  1  0
 19 20  2  0
 20 21  1  0
 21 22  2  0
 23 22  1  0
 24 23  2  0
 25 29  1  0
 26 32  1  0
 26 27  2  0
 28 27  1  0
 29 28  2  0
 30 31  2  0
 30 29  1  0
 31 26  1  0
 32 33  2  0
 34 32  2  0
  2 35  1  0
  4 36  1  0
  8 37  1  0
  8 38  1  0
  9 39  1  0
  9 40  1  0
  9 41  1  0
 10 42  1  0
 10 43  1  0
 12 44  1  0
 15 45  1  0
 15 46  1  0
 20 47  1  0
 21 48  1  0
 22 49  1  0
 23 50  1  0
 24 51  1  0
 25 52  1  0
 25 53  1  0
 27 54  1  0
 28 55  1  0
 30 56  1  0
 31 57  1  0
 32 58  1  0
M  END
>  <minimizedAffinity>  (1) 
-7.05023098

>  <minimizedRMSD>  (1) 
1.38367701

$$$$
