
     RDKit          3D

 35 38  0  0  0  0  0  0  0  0999 V2000
   37.8689   23.6977   33.5015 C   0  0  0  0  0  0  0  0  0  0  0  0
   37.4644   22.6569   32.6687 C   0  0  0  0  0  0  0  0  0  0  0  0
   37.4823   21.5646   33.4835 N   0  0  0  0  0  0  0  0  0  0  0  0
   37.8706   21.9668   34.6919 C   0  0  0  0  0  0  0  0  0  0  0  0
   38.1131   23.2718   34.7283 N   0  0  0  0  0  0  0  0  0  0  0  0
   38.0174   25.0822   33.0781 C   0  0  0  0  0  0  0  0  0  0  0  0
   39.3001   25.5840   32.7706 C   0  0  0  0  0  0  0  0  0  0  0  0
   39.3939   26.9322   32.3587 C   0  0  0  0  0  0  0  0  0  0  0  0
   38.2420   27.6518   32.2876 N   0  0  0  0  0  0  0  0  0  0  0  0
   37.0318   27.1293   32.5925 C   0  0  0  0  0  0  0  0  0  0  0  0
   36.9084   25.8511   32.9873 N   0  0  0  0  0  0  0  0  0  0  0  0
   38.5341   23.9504   35.8987 C   0  0  1  0  0  0  0  0  0  0  0  0
   38.0655   25.2266   36.3629 C   0  0  0  0  0  0  0  0  0  0  0  0
   37.5593   23.9133   37.0292 C   0  0  2  0  0  0  0  0  0  0  0  0
   38.1165   23.7687   38.4268 C   0  0  0  0  0  0  0  0  0  0  0  0
   37.5254   22.7004   39.0664 F   0  0  0  0  0  0  0  0  0  0  0  0
   39.5131   23.3481   38.3036 F   0  0  0  0  0  0  0  0  0  0  0  0
   38.1402   24.9020   39.1406 F   0  0  0  0  0  0  0  0  0  0  0  0
   37.2147   22.7818   31.6307 H   0  0  0  0  0  0  0  0  0  0  0  0
   37.9181   21.1600   35.4231 H   0  0  0  0  0  0  0  0  0  0  0  0
   40.1351   24.9154   32.8658 H   0  0  0  0  0  0  0  0  0  0  0  0
   40.3653   27.3142   32.1252 H   0  0  0  0  0  0  0  0  0  0  0  0
   36.1194   27.7033   32.5351 H   0  0  0  0  0  0  0  0  0  0  0  0
   39.6209   23.7265   36.1519 H   0  0  0  0  0  0  0  0  0  0  0  0
   37.2717   25.7928   35.8558 H   0  0  0  0  0  0  0  0  0  0  0  0
   38.7094   25.8944   36.9789 H   0  0  0  0  0  0  0  0  0  0  0  0
   36.0595   23.9191   36.9511 C   0  0  0  0  0  0  0  0  0  0  0  0
   35.1887   23.4622   35.9856 C   0  0  0  0  0  0  0  0  0  0  0  0
   33.8376   23.6103   36.2087 C   0  0  0  0  0  0  0  0  0  0  0  0
   33.2263   23.2164   35.3846 H   0  0  0  0  0  0  0  0  0  0  0  0
   33.3696   24.1817   37.3301 N   0  0  0  0  0  0  0  0  0  0  0  0
   34.2175   24.6187   38.2540 C   0  0  0  0  0  0  0  0  0  0  0  0
   35.5508   24.4955   38.0802 N   0  0  0  0  0  0  0  0  0  0  0  0
   35.7296   23.0357   35.1552 H   0  0  0  0  0  0  0  0  0  0  0  0
   33.7746   25.0718   39.1391 H   0  0  0  0  0  0  0  0  0  0  0  0
  1  5  1  0
  2  3  1  0
  2  1  2  0
  3  4  2  0
  4  5  1  0
  5 12  1  0
  6  1  1  0
  7  6  2  0
  8  7  1  0
  9  8  2  0
  9 10  1  0
 10 11  2  0
 11  6  1  0
 12 13  1  0
 12 14  1  0
 13 14  1  0
 14 15  1  1
 15 16  1  0
 15 18  1  0
 17 15  1  0
  2 19  1  0
  4 20  1  0
  7 21  1  0
  8 22  1  0
 10 23  1  0
 12 24  1  1
 13 25  1  0
 13 26  1  0
 27 28  2  0
 28 29  1  0
 29 30  1  0
 29 31  2  0
 31 32  1  0
 32 33  2  0
 33 27  1  0
 28 34  1  0
 32 35  1  0
 14 27  1  0
M  ISO  8  19  14  20  14  21  14  22  14  23  14  24  13  25  13  26  13
M  ISO  1  30  14
M  END
>  <DihAtoms>  (1) 
11,13,26,27

>  <DihDeg>  (1) 
-91.41164768081153

$$$$
