
     RDKit          3D

 29 32  0  0  0  0  0  0  0  0999 V2000
   37.7430   25.0050   33.7080 C   0  0  0  0  0  0  0  0  0  0  0  0
   37.8780   25.3890   35.0330 C   0  0  0  0  0  0  0  0  0  0  0  0
   37.6140   26.7270   35.3590 C   0  0  0  0  0  0  0  0  0  0  0  0
   37.2420   27.6020   34.3960 N   0  0  0  0  0  0  0  0  0  0  0  0
   37.1210   27.1890   33.1000 C   0  0  0  0  0  0  0  0  0  0  0  0
   37.3670   25.9270   32.7810 N   0  0  0  0  0  0  0  0  0  0  0  0
   38.2760   24.4780   36.0040 N   0  0  0  0  0  0  0  0  0  0  0  0
   37.5120   23.9610   36.9780 C   0  0  0  0  0  0  0  0  0  0  0  0
   38.1920   23.1000   37.7530 N   0  0  0  0  0  0  0  0  0  0  0  0
   39.4330   23.0600   37.2640 C   0  0  0  0  0  0  0  0  0  0  0  0
   40.5980   22.3850   37.5930 C   0  0  0  0  0  0  0  0  0  0  0  0
   41.7600   22.4990   36.9460 N   0  0  0  0  0  0  0  0  0  0  0  0
   41.7610   23.3520   35.8890 C   0  0  0  0  0  0  0  0  0  0  0  0
   40.6600   24.0060   35.5570 N   0  0  0  0  0  0  0  0  0  0  0  0
   39.4820   23.9210   36.1720 C   0  0  0  0  0  0  0  0  0  0  0  0
   37.9410   23.6510   33.2250 C   0  0  0  0  0  0  0  0  0  0  0  0
   39.0120   23.3480   32.4130 C   0  0  0  0  0  0  0  0  0  0  0  0
   39.3150   22.1150   31.8890 C   0  0  0  0  0  0  0  0  0  0  0  0
   38.5050   21.0880   32.1800 N   0  0  0  0  0  0  0  0  0  0  0  0
   37.4460   21.3330   32.9690 C   0  0  0  0  0  0  0  0  0  0  0  0
   37.2030   22.5580   33.4500 N   0  0  0  0  0  0  0  0  0  0  0  0
   37.7096   27.0665   36.4009 H   0  0  0  0  0  0  0  0  0  0  0  0
   36.8192   27.9044   32.3208 H   0  0  0  0  0  0  0  0  0  0  0  0
   36.4514   24.2130   37.1250 H   0  0  0  0  0  0  0  0  0  0  0  0
   40.5622   21.7020   38.4545 H   0  0  0  0  0  0  0  0  0  0  0  0
   42.6820   23.4998   35.3060 H   0  0  0  0  0  0  0  0  0  0  0  0
   39.6914   24.1751   32.1593 H   0  0  0  0  0  0  0  0  0  0  0  0
   40.1980   21.9746   31.2483 H   0  0  0  0  0  0  0  0  0  0  0  0
   36.7638   20.5091   33.2253 H   0  0  0  0  0  0  0  0  0  0  0  0
  1  2  1  0
  2  3  2  0
  2  7  1  0
  4  3  1  0
  5  4  2  0
  6  5  1  0
  6  1  2  0
  7 15  1  0
  7  8  1  0
  8  9  2  0
 10 11  2  0
 10  9  1  0
 12 11  1  0
 13 12  2  0
 14 13  1  0
 14 15  2  0
 15 10  1  0
 16 21  1  0
 16  1  1  0
 17 16  2  0
 18 19  2  0
 18 17  1  0
 19 20  1  0
 20 21  2  0
  3 22  1  0
  5 23  1  0
  8 24  1  0
 11 25  1  0
 13 26  1  0
 17 27  1  0
 18 28  1  0
 20 29  1  0
M  ISO  8  22  14  23  14  24  14  25  14  26  14  27  14  28  14  29  14
M  END
>  <minimizedAffinity>  (1) 
-4.73253441

>  <minimizedRMSD>  (1) 
0.987575412

$$$$
