
     RDKit          3D

 33 36  0  0  0  0  0  0  0  0999 V2000
   40.5240   21.9510   37.2400 O   0  0  0  0  0  0  0  0  0  0  0  0
   41.7930   22.0780   36.7600 C   0  0  0  0  0  0  0  0  0  0  0  0
   42.3510   23.2240   36.1950 C   0  0  0  0  0  0  0  0  0  0  0  0
   43.6210   23.0190   35.8220 N   0  0  0  0  0  0  0  0  0  0  0  0
   43.9690   21.7540   36.1130 C   0  0  0  0  0  0  0  0  0  0  0  0
   45.1290   21.0090   35.9530 C   0  0  0  0  0  0  0  0  0  0  0  0
   45.1800   19.6890   36.3640 C   0  0  0  0  0  0  0  0  0  0  0  0
   44.0480   19.1040   36.9450 C   0  0  0  0  0  0  0  0  0  0  0  0
   42.8960   19.8530   37.1000 C   0  0  0  0  0  0  0  0  0  0  0  0
   42.8410   21.1780   36.6900 C   0  0  0  0  0  0  0  0  0  0  0  0
   39.5760   22.9410   37.3090 C   0  0  0  0  0  0  0  0  0  0  0  0
   39.0570   23.2190   38.5810 C   0  0  0  0  0  0  0  0  0  0  0  0
   38.0880   24.2310   38.6510 C   0  0  0  0  0  0  0  0  0  0  0  0
   37.7100   24.8710   37.5270 N   0  0  0  0  0  0  0  0  0  0  0  0
   38.2470   24.5600   36.3210 C   0  0  0  0  0  0  0  0  0  0  0  0
   39.1690   23.6060   36.2130 N   0  0  0  0  0  0  0  0  0  0  0  0
   37.8330   25.2580   35.1070 C   0  0  0  0  0  0  0  0  0  0  0  0
   37.4050   26.5740   35.1140 C   0  0  0  0  0  0  0  0  0  0  0  0
   37.0020   27.2860   34.0100 C   0  0  0  0  0  0  0  0  0  0  0  0
   37.0350   26.6300   32.8200 N   0  0  0  0  0  0  0  0  0  0  0  0
   37.4480   25.3510   32.7870 C   0  0  0  0  0  0  0  0  0  0  0  0
   37.8470   24.6460   33.8870 N   0  0  0  0  0  0  0  0  0  0  0  0
   41.8155   24.1768   36.0711 H   0  0  0  0  0  0  0  0  0  0  0  0
   44.2339   23.7200   35.3818 H   0  0  0  0  0  0  0  0  0  0  0  0
   46.0156   21.4721   35.4954 H   0  0  0  0  0  0  0  0  0  0  0  0
   46.1024   19.1036   36.2355 H   0  0  0  0  0  0  0  0  0  0  0  0
   44.0751   18.0553   37.2760 H   0  0  0  0  0  0  0  0  0  0  0  0
   42.0080   19.3909   37.5560 H   0  0  0  0  0  0  0  0  0  0  0  0
   39.3913   22.6733   39.4757 H   0  0  0  0  0  0  0  0  0  0  0  0
   37.6391   24.5007   39.6184 H   0  0  0  0  0  0  0  0  0  0  0  0
   37.3858   27.0931   36.0836 H   0  0  0  0  0  0  0  0  0  0  0  0
   36.6701   28.3320   34.0853 H   0  0  0  0  0  0  0  0  0  0  0  0
   37.4657   24.8401   31.8130 H   0  0  0  0  0  0  0  0  0  0  0  0
  1 11  1  0
  2  1  1  0
  3  2  2  0
  4  5  1  0
  4  3  1  0
  5 10  2  0
  6  5  1  0
  6  7  2  0
  7  8  1  0
  8  9  2  0
 10  2  1  0
 10  9  1  0
 11 12  2  0
 12 13  1  0
 14 13  2  0
 15 14  1  0
 16 15  2  0
 16 11  1  0
 17 18  2  0
 17 15  1  0
 19 18  1  0
 20 19  2  0
 21 20  1  0
 21 22  2  0
 22 17  1  0
  3 23  1  0
  4 24  1  0
  6 25  1  0
  7 26  1  0
  8 27  1  0
  9 28  1  0
 12 29  1  0
 13 30  1  0
 18 31  1  0
 19 32  1  0
 21 33  1  0
M  ISO  8  23  14  24   9  25  14  26  14  27  14  28  14  29  14  30  14
M  ISO  3  31  14  32  14  33  14
M  END
>  <minimizedAffinity>  (1) 
-5.29313755

>  <minimizedRMSD>  (1) 
1.36528599

$$$$
