
     RDKit          3D

 34 37  0  0  0  0  0  0  0  0999 V2000
   37.8686   23.6984   33.5040 C   0  0  0  0  0  0  0  0  0  0  0  0
   37.4668   22.6574   32.6677 C   0  0  0  0  0  0  0  0  0  0  0  0
   37.4869   21.5652   33.4818 N   0  0  0  0  0  0  0  0  0  0  0  0
   37.8735   21.9661   34.6927 C   0  0  0  0  0  0  0  0  0  0  0  0
   38.1127   23.2728   34.7294 N   0  0  0  0  0  0  0  0  0  0  0  0
   38.0129   25.0833   33.0785 C   0  0  0  0  0  0  0  0  0  0  0  0
   39.2966   25.5821   32.7694 C   0  0  0  0  0  0  0  0  0  0  0  0
   39.3920   26.9302   32.3562 C   0  0  0  0  0  0  0  0  0  0  0  0
   38.2410   27.6501   32.2860 N   0  0  0  0  0  0  0  0  0  0  0  0
   37.0303   27.1310   32.5921 C   0  0  0  0  0  0  0  0  0  0  0  0
   36.9092   25.8555   32.9869 N   0  0  0  0  0  0  0  0  0  0  0  0
   38.5340   23.9480   35.8986 C   0  0  1  0  0  0  0  0  0  0  0  0
   38.0710   25.2275   36.3637 C   0  0  0  0  0  0  0  0  0  0  0  0
   37.5635   23.9164   37.0296 C   0  0  2  0  0  0  0  0  0  0  0  0
   38.1199   23.7665   38.4280 C   0  0  0  0  0  0  0  0  0  0  0  0
   37.5161   22.7033   39.0656 F   0  0  0  0  0  0  0  0  0  0  0  0
   39.5116   23.3433   38.3049 F   0  0  0  0  0  0  0  0  0  0  0  0
   38.1405   24.9012   39.1418 F   0  0  0  0  0  0  0  0  0  0  0  0
   37.2142   22.7875   31.6127 H   0  0  0  0  0  0  0  0  0  0  0  0
   37.9227   21.1655   35.4203 H   0  0  0  0  0  0  0  0  0  0  0  0
   40.1392   24.9200   32.8611 H   0  0  0  0  0  0  0  0  0  0  0  0
   40.3635   27.3189   32.1189 H   0  0  0  0  0  0  0  0  0  0  0  0
   36.2180   27.8314   32.4853 H   0  0  0  0  0  0  0  0  0  0  0  0
   39.6197   23.7125   36.1751 H   0  0  0  0  0  0  0  0  0  0  0  0
   38.6710   25.8845   37.0111 H   0  0  0  0  0  0  0  0  0  0  0  0
   37.2975   25.7730   35.8067 H   0  0  0  0  0  0  0  0  0  0  0  0
   36.0553   23.9487   36.9348 C   0  0  0  0  0  0  0  0  0  0  0  0
   35.0356   23.5639   36.0881 C   0  0  0  0  0  0  0  0  0  0  0  0
   33.8655   23.9496   36.7084 C   0  0  0  0  0  0  0  0  0  0  0  0
   32.9421   23.7137   36.1581 H   0  0  0  0  0  0  0  0  0  0  0  0
   34.1622   24.5434   37.8819 N   0  0  0  0  0  0  0  0  0  0  0  0
   35.4850   24.5448   38.0223 N   0  0  0  0  0  0  0  0  0  0  0  0
   35.3928   23.0779   35.1901 H   0  0  0  0  0  0  0  0  0  0  0  0
   33.3908   24.9003   38.4882 H   0  0  0  0  0  0  0  0  0  0  0  0
  1  5  1  0
  2  3  1  0
  2  1  2  0
  3  4  2  0
  4  5  1  0
  5 12  1  0
  6  1  1  0
  7  6  2  0
  8  7  1  0
  9  8  2  0
  9 10  1  0
 10 11  2  0
 11  6  1  0
 12 13  1  0
 12 14  1  0
 13 14  1  0
 14 15  1  1
 15 16  1  0
 15 18  1  0
 17 15  1  0
  2 19  1  0
  4 20  1  0
  7 21  1  0
  8 22  1  0
 10 23  1  0
 12 24  1  1
 13 25  1  0
 13 26  1  0
 27 28  1  0
 28 29  2  0
 29 30  1  0
 29 31  1  0
 31 32  1  0
 32 27  2  0
 28 33  1  0
 31 34  1  0
 14 27  1  0
M  ISO  8  19  14  20  14  21  14  22  14  23  14  24  13  25  13  26  13
M  ISO  1  30  14
M  END
>  <DihAtoms>  (1) 
11,13,26,27

>  <DihDeg>  (1) 
-90.00097378503446

$$$$
