
     RDKit          3D

 42 45  0  0  0  0  0  0  0  0999 V2000
   39.9120   22.2880   34.5600 C   0  0  0  0  0  0  0  0  0  0  0  0
   38.6860   22.0990   33.9610 C   0  0  0  0  0  0  0  0  0  0  0  0
   38.5740   21.2610   32.8700 C   0  0  0  0  0  0  0  0  0  0  0  0
   39.6930   20.6440   32.4170 N   0  0  0  0  0  0  0  0  0  0  0  0
   40.8740   20.8440   33.0160 C   0  0  0  0  0  0  0  0  0  0  0  0
   40.9960   21.6490   34.0690 N   0  0  0  0  0  0  0  0  0  0  0  0
   37.3990   20.9540   32.1390 N   0  0  0  0  0  0  0  0  0  0  0  0
   36.9030   21.6690   30.9940 C   0  0  0  0  0  0  0  0  0  0  0  0
   35.5220   22.2150   31.2960 C   0  0  0  0  0  0  0  0  0  0  0  0
   35.0080   21.6290   32.4650 O   0  0  0  0  0  0  0  0  0  0  0  0
   35.0570   20.2600   32.3400 C   0  0  0  0  0  0  0  0  0  0  0  0
   36.5070   19.8310   32.4650 C   0  0  0  0  0  0  0  0  0  0  0  0
   39.9800   23.1640   35.6820 C   0  0  0  0  0  0  0  0  0  0  0  0
   40.4070   22.8300   36.8440 O   0  0  0  0  0  0  0  0  0  0  0  0
   39.5650   24.5640   35.6430 C   0  0  0  0  0  0  0  0  0  0  0  0
   38.3660   24.9670   36.2050 C   0  0  0  0  0  0  0  0  0  0  0  0
   38.0010   26.3060   36.1530 C   0  0  0  0  0  0  0  0  0  0  0  0
   38.8060   27.2550   35.5540 C   0  0  0  0  0  0  0  0  0  0  0  0
   39.9880   26.8490   35.0020 C   0  0  0  0  0  0  0  0  0  0  0  0
   40.3560   25.5110   35.0510 C   0  0  0  0  0  0  0  0  0  0  0  0
   41.6730   25.2100   34.3990 C   0  0  0  0  0  0  0  0  0  0  0  0
   42.9390   25.2630   35.1880 C   0  0  0  0  0  0  0  0  0  0  0  0
   42.6360   26.3290   34.2190 C   0  0  0  0  0  0  0  0  0  0  0  0
   37.7969   22.6155   34.3519 H   0  0  0  0  0  0  0  0  0  0  0  0
   41.7658   20.3300   32.6280 H   0  0  0  0  0  0  0  0  0  0  0  0
   36.8470   20.9873   30.1325 H   0  0  0  0  0  0  0  0  0  0  0  0
   37.5825   22.5018   30.7603 H   0  0  0  0  0  0  0  0  0  0  0  0
   35.5854   23.3044   31.4344 H   0  0  0  0  0  0  0  0  0  0  0  0
   34.8534   21.9789   30.4550 H   0  0  0  0  0  0  0  0  0  0  0  0
   34.4587   19.7906   33.1348 H   0  0  0  0  0  0  0  0  0  0  0  0
   34.6485   19.9496   31.3670 H   0  0  0  0  0  0  0  0  0  0  0  0
   36.7010   18.9997   31.7713 H   0  0  0  0  0  0  0  0  0  0  0  0
   36.6982   19.5094   33.4994 H   0  0  0  0  0  0  0  0  0  0  0  0
   37.7067   24.2317   36.6895 H   0  0  0  0  0  0  0  0  0  0  0  0
   37.0460   26.6188   36.6005 H   0  0  0  0  0  0  0  0  0  0  0  0
   38.5029   28.3119   35.5221 H   0  0  0  0  0  0  0  0  0  0  0  0
   40.6490   27.5831   34.5181 H   0  0  0  0  0  0  0  0  0  0  0  0
   41.2005   24.4538   33.7548 H   0  0  0  0  0  0  0  0  0  0  0  0
   42.9056   25.4754   36.2668 H   0  0  0  0  0  0  0  0  0  0  0  0
   43.7833   24.5765   35.3485 H   0  0  0  0  0  0  0  0  0  0  0  0
   43.2187   26.4068   33.2893 H   0  0  0  0  0  0  0  0  0  0  0  0
   42.5673   27.4256   34.2704 H   0  0  0  0  0  0  0  0  0  0  0  0
  1 13  1  0
  2  1  2  0
  3  2  1  0
  4  3  2  0
  4  5  1  0
  5  6  2  0
  6  1  1  0
  7 12  1  0
  7  3  1  0
  8  9  1  0
  8  7  1  0
  9 10  1  0
 11 10  1  0
 11 12  1  0
 13 14  2  0
 15 13  1  0
 15 16  2  0
 17 16  1  0
 18 17  2  0
 19 20  2  0
 19 18  1  0
 20 15  1  0
 21 20  1  0
 21 22  1  0
 23 21  1  0
 23 22  1  0
  2 24  1  0
  5 25  1  0
  8 26  1  0
  8 27  1  0
  9 28  1  0
  9 29  1  0
 11 30  1  0
 11 31  1  0
 12 32  1  0
 12 33  1  0
 16 34  1  0
 17 35  1  0
 18 36  1  0
 19 37  1  0
 21 38  1  0
 22 39  1  0
 22 40  1  0
 23 41  1  0
 23 42  1  0
M  ISO  8  24  14  25  14  26  13  27  13  28  13  29  13  30  13  31  13
M  ISO  8  32  13  33  13  34  14  35  14  36  14  37  14  38  13  39  13
M  ISO  3  40  13  41  13  42  13
M  END
>  <minimizedAffinity>  (1) 
-5.20521355

>  <minimizedRMSD>  (1) 
0.278427809

$$$$
