
     RDKit          3D

 34 37  0  0  0  0  0  0  0  0999 V2000
   37.8675   23.6986   33.5007 C   0  0  0  0  0  0  0  0  0  0  0  0
   37.4661   22.6557   32.6673 C   0  0  0  0  0  0  0  0  0  0  0  0
   37.4827   21.5619   33.4864 N   0  0  0  0  0  0  0  0  0  0  0  0
   37.8662   21.9660   34.6919 C   0  0  0  0  0  0  0  0  0  0  0  0
   38.1085   23.2717   34.7306 N   0  0  0  0  0  0  0  0  0  0  0  0
   38.0147   25.0811   33.0774 C   0  0  0  0  0  0  0  0  0  0  0  0
   39.2971   25.5840   32.7722 C   0  0  0  0  0  0  0  0  0  0  0  0
   39.3953   26.9307   32.3615 C   0  0  0  0  0  0  0  0  0  0  0  0
   38.2469   27.6550   32.2869 N   0  0  0  0  0  0  0  0  0  0  0  0
   37.0333   27.1298   32.5904 C   0  0  0  0  0  0  0  0  0  0  0  0
   36.9157   25.8503   32.9837 N   0  0  0  0  0  0  0  0  0  0  0  0
   38.5258   23.9496   35.9006 C   0  0  1  0  0  0  0  0  0  0  0  0
   38.0605   25.2301   36.3636 C   0  0  0  0  0  0  0  0  0  0  0  0
   37.5519   23.9216   37.0279 C   0  0  2  0  0  0  0  0  0  0  0  0
   38.1323   23.7625   38.4267 C   0  0  0  0  0  0  0  0  0  0  0  0
   37.5313   22.6951   39.0655 F   0  0  0  0  0  0  0  0  0  0  0  0
   39.5209   23.3562   38.3009 F   0  0  0  0  0  0  0  0  0  0  0  0
   38.1302   24.8980   39.1424 F   0  0  0  0  0  0  0  0  0  0  0  0
   37.2199   22.7811   31.6284 H   0  0  0  0  0  0  0  0  0  0  0  0
   37.9168   21.1710   35.4341 H   0  0  0  0  0  0  0  0  0  0  0  0
   40.1831   24.9747   32.8446 H   0  0  0  0  0  0  0  0  0  0  0  0
   40.3542   27.3781   32.1122 H   0  0  0  0  0  0  0  0  0  0  0  0
   36.1414   27.7315   32.5210 H   0  0  0  0  0  0  0  0  0  0  0  0
   39.6042   23.6907   36.1784 H   0  0  0  0  0  0  0  0  0  0  0  0
   38.7363   25.8542   36.9966 H   0  0  0  0  0  0  0  0  0  0  0  0
   37.3372   25.8604   35.8251 H   0  0  0  0  0  0  0  0  0  0  0  0
   36.0586   23.9654   37.0210 C   0  0  0  0  0  0  0  0  0  0  0  0
   35.1232   23.3776   37.9431 C   0  0  0  0  0  0  0  0  0  0  0  0
   35.4125   22.6274   36.6322 C   0  0  0  0  0  0  0  0  0  0  0  0
   35.6762   24.8207   36.3861 H   0  0  0  0  0  0  0  0  0  0  0  0
   34.0891   23.8496   37.9857 H   0  0  0  0  0  0  0  0  0  0  0  0
   35.2948   22.7693   38.8249 H   0  0  0  0  0  0  0  0  0  0  0  0
   35.9992   21.7043   36.6912 H   0  0  0  0  0  0  0  0  0  0  0  0
   34.6416   22.6215   35.8428 H   0  0  0  0  0  0  0  0  0  0  0  0
  1  5  1  0
  2  3  1  0
  2  1  2  0
  3  4  2  0
  4  5  1  0
  5 12  1  0
  6  1  1  0
  7  6  2  0
  8  7  1  0
  9  8  2  0
  9 10  1  0
 10 11  2  0
 11  6  1  0
 12 13  1  0
 12 14  1  0
 13 14  1  0
 14 15  1  1
 15 16  1  0
 15 18  1  0
 17 15  1  0
  2 19  1  0
  4 20  1  0
  7 21  1  0
  8 22  1  0
 10 23  1  0
 12 24  1  1
 13 25  1  0
 13 26  1  0
 27 28  1  0
 28 29  1  0
 29 27  1  0
 27 30  1  0
 28 31  1  0
 28 32  1  0
 29 33  1  0
 29 34  1  0
 14 27  1  0
M  ISO  8  19  14  20  14  21  14  22  14  23  14  24  13  25  13  26  13
M  END
>  <DihAtoms>  (1) 
11,13,26,27

>  <DihDeg>  (1) 
-60.72080596584417

$$$$
