
     RDKit          3D

 36 39  0  0  0  0  0  0  0  0999 V2000
   37.1660   26.4080   35.2960 C   0  0  0  0  0  0  0  0  0  0  0  0
   37.4140   27.0910   34.1040 C   0  0  0  0  0  0  0  0  0  0  0  0
   38.4570   26.6680   33.2590 C   0  0  0  0  0  0  0  0  0  0  0  0
   39.1560   25.5920   33.6960 N   0  0  0  0  0  0  0  0  0  0  0  0
   38.9000   24.9400   34.8610 C   0  0  0  0  0  0  0  0  0  0  0  0
   37.9000   25.3690   35.6410 N   0  0  0  0  0  0  0  0  0  0  0  0
   39.7520   23.7920   35.1930 C   0  0  0  0  0  0  0  0  0  0  0  0
   40.4980   23.2950   34.1770 C   0  0  0  0  0  0  0  0  0  0  0  0
   41.4180   21.8710   34.9980 S   0  0  0  0  0  0  0  0  0  0  0  0
   40.5450   22.2720   36.6450 C   0  0  0  0  0  0  0  0  0  0  0  0
   39.9350   23.1390   36.3000 N   0  0  0  0  0  0  0  0  0  0  0  0
   40.7600   21.5440   37.8390 N   0  0  0  0  0  0  0  0  0  0  0  0
   36.6690   28.2520   33.6350 C   0  0  0  0  0  0  0  0  0  0  0  0
   36.0950   29.1910   34.4770 C   0  0  0  0  0  0  0  0  0  0  0  0
   35.4380   30.2090   33.8620 C   0  0  0  0  0  0  0  0  0  0  0  0
   35.3870   30.2420   32.4840 C   0  0  0  0  0  0  0  0  0  0  0  0
   36.3280   28.7330   31.9820 S   0  0  0  0  0  0  0  0  0  0  0  0
   34.8230   31.1030   31.5150 C   0  0  0  0  0  0  0  0  0  0  0  0
   35.4700   32.0140   31.0100 O   0  0  0  0  0  0  0  0  0  0  0  0
   33.4390   30.9170   31.0980 N   0  0  0  0  0  0  0  0  0  0  0  0
   34.7330   31.3490   34.5390 C   0  0  0  0  0  0  0  0  0  0  0  0
   35.3360   31.6660   35.9460 C   0  0  0  0  0  0  0  0  0  0  0  0
   35.5620   32.5880   34.8320 C   0  0  0  0  0  0  0  0  0  0  0  0
   36.3496   26.7403   35.9541 H   0  0  0  0  0  0  0  0  0  0  0  0
   38.6886   27.1749   32.3106 H   0  0  0  0  0  0  0  0  0  0  0  0
   40.5527   23.6376   33.1331 H   0  0  0  0  0  0  0  0  0  0  0  0
   40.2593   21.8070   38.6998 H   0  0  0  0  0  0  0  0  0  0  0  0
   41.4173   20.7510   37.8474 H   0  0  0  0  0  0  0  0  0  0  0  0
   36.1666   29.1171   35.5722 H   0  0  0  0  0  0  0  0  0  0  0  0
   33.0253   31.5427   30.3922 H   0  0  0  0  0  0  0  0  0  0  0  0
   32.8746   30.1598   31.5091 H   0  0  0  0  0  0  0  0  0  0  0  0
   33.7469   31.1666   34.0870 H   0  0  0  0  0  0  0  0  0  0  0  0
   34.6739   31.9572   36.7748 H   0  0  0  0  0  0  0  0  0  0  0  0
   35.9846   31.1274   36.6526 H   0  0  0  0  0  0  0  0  0  0  0  0
   36.5699   32.6789   34.4010 H   0  0  0  0  0  0  0  0  0  0  0  0
   35.3910   33.6656   34.6925 H   0  0  0  0  0  0  0  0  0  0  0  0
  1  6  2  0
  2  1  1  0
  3  4  1  0
  3  2  2  0
  4  5  2  0
  5  7  1  0
  5  6  1  0
  7 11  1  0
  8  9  1  0
  8  7  2  0
  9 10  1  0
 10 12  1  0
 11 10  2  0
 13  2  1  0
 13 14  2  0
 15 14  1  0
 15 21  1  0
 16 15  2  0
 17 16  1  0
 17 13  1  0
 18 16  1  0
 19 18  2  0
 20 18  1  0
 21 23  1  0
 21 22  1  0
 23 22  1  0
  1 24  1  0
  3 25  1  0
  8 26  1  0
 12 27  1  0
 12 28  1  0
 14 29  1  0
 20 30  1  0
 20 31  1  0
 21 32  1  0
 22 33  1  0
 22 34  1  0
 23 35  1  0
 23 36  1  0
M  ISO  8  24  14  25  14  26  14  29  14  32  13  33  13  34  13  35  13
M  ISO  1  36  13
M  END
>  <minimizedAffinity>  (1) 
-5.13210869

>  <minimizedRMSD>  (1) 
3.67345023

$$$$
