
     RDKit          3D

 34 37  0  0  0  0  0  0  0  0999 V2000
   39.4310   23.5140   36.2110 C   0  0  0  0  0  0  0  0  0  0  0  0
   39.7490   24.6430   35.4560 C   0  0  0  0  0  0  0  0  0  0  0  0
   41.0270   24.7570   34.8870 C   0  0  0  0  0  0  0  0  0  0  0  0
   41.8870   23.7300   35.1200 N   0  0  0  0  0  0  0  0  0  0  0  0
   41.5400   22.6370   35.8660 C   0  0  0  0  0  0  0  0  0  0  0  0
   40.3140   22.5530   36.3980 N   0  0  0  0  0  0  0  0  0  0  0  0
   38.8570   25.7530   35.1930 C   0  0  0  0  0  0  0  0  0  0  0  0
   38.7550   26.8880   35.9850 C   0  0  0  0  0  0  0  0  0  0  0  0
   37.8610   27.8300   35.5800 C   0  0  0  0  0  0  0  0  0  0  0  0
   37.1230   27.6050   34.4270 C   0  0  0  0  0  0  0  0  0  0  0  0
   37.7120   25.9400   33.8430 S   0  0  0  0  0  0  0  0  0  0  0  0
   36.1370   28.3170   33.7210 C   0  0  0  0  0  0  0  0  0  0  0  0
   35.8750   28.0400   32.5430 O   0  0  0  0  0  0  0  0  0  0  0  0
   35.3990   29.3960   34.3510 N   0  0  0  0  0  0  0  0  0  0  0  0
   42.5550   21.5840   36.0500 C   0  0  0  0  0  0  0  0  0  0  0  0
   43.8220   21.9280   35.6750 C   0  0  0  0  0  0  0  0  0  0  0  0
   44.8000   20.3630   36.0480 S   0  0  0  0  0  0  0  0  0  0  0  0
   43.1900   19.5300   36.6670 C   0  0  0  0  0  0  0  0  0  0  0  0
   42.4540   20.3620   36.5110 N   0  0  0  0  0  0  0  0  0  0  0  0
   43.1380   18.1400   37.1790 C   0  0  0  0  0  0  0  0  0  0  0  0
   43.5330   17.0670   36.2130 C   0  0  0  0  0  0  0  0  0  0  0  0
   44.3940   17.3790   37.4050 C   0  0  0  0  0  0  0  0  0  0  0  0
   38.4293   23.4242   36.6567 H   0  0  0  0  0  0  0  0  0  0  0  0
   41.3173   25.6305   34.2848 H   0  0  0  0  0  0  0  0  0  0  0  0
   39.3642   27.0189   36.8915 H   0  0  0  0  0  0  0  0  0  0  0  0
   37.7253   28.7560   36.1580 H   0  0  0  0  0  0  0  0  0  0  0  0
   34.6800   29.9073   33.8194 H   0  0  0  0  0  0  0  0  0  0  0  0
   35.5941   29.6506   35.3298 H   0  0  0  0  0  0  0  0  0  0  0  0
   44.1814   22.8808   35.2591 H   0  0  0  0  0  0  0  0  0  0  0  0
   42.2689   18.3612   37.8160 H   0  0  0  0  0  0  0  0  0  0  0  0
   42.9666   16.1249   36.1730 H   0  0  0  0  0  0  0  0  0  0  0  0
   43.6927   17.0143   35.1259 H   0  0  0  0  0  0  0  0  0  0  0  0
   45.3677   17.8715   37.2660 H   0  0  0  0  0  0  0  0  0  0  0  0
   44.8087   16.7935   38.2388 H   0  0  0  0  0  0  0  0  0  0  0  0
  1  6  2  0
  2  1  1  0
  3  4  1  0
  3  2  2  0
  4  5  2  0
  5 15  1  0
  5  6  1  0
  7  2  1  0
  7  8  2  0
  9  8  1  0
 10  9  2  0
 11 10  1  0
 11  7  1  0
 12 14  1  0
 12 10  1  0
 13 12  2  0
 15 19  1  0
 16 17  1  0
 16 15  2  0
 17 18  1  0
 18 20  1  0
 19 18  2  0
 20 22  1  0
 21 20  1  0
 21 22  1  0
  1 23  1  0
  3 24  1  0
  8 25  1  0
  9 26  1  0
 14 27  1  0
 14 28  1  0
 16 29  1  0
 20 30  1  0
 21 31  1  0
 21 32  1  0
 22 33  1  0
 22 34  1  0
M  ISO  8  23  14  24  14  25  14  26  14  29  14  30  13  31  13  32  13
M  ISO  2  33  13  34  13
M  END
>  <minimizedAffinity>  (1) 
-4.25546598

>  <minimizedRMSD>  (1) 
1.17573667

$$$$
