
     RDKit          3D

 38 42  0  0  1  0  0  0  0  0999 V2000
   39.4610   26.8710   34.0120 C   0  0  0  0  0  0  0  0  0  0  0  0
   38.2690   27.4720   33.5540 C   0  0  0  0  0  0  0  0  0  0  0  0
   37.0670   27.1200   34.1470 C   0  0  0  0  0  0  0  0  0  0  0  0
   37.1090   26.2020   35.1520 N   0  0  0  0  0  0  0  0  0  0  0  0
   38.2600   25.6540   35.5590 C   0  0  0  0  0  0  0  0  0  0  0  0
   39.4350   25.9720   35.0080 N   0  0  0  0  0  0  0  0  0  0  0  0
   38.1670   24.7010   36.6250 N   0  0  0  0  0  0  0  0  0  0  0  0
   38.1570   25.2380   37.8120 N   0  0  0  0  0  0  0  0  0  0  0  0
   38.0670   24.2590   38.7420 C   0  0  0  0  0  0  0  0  0  0  0  0
   38.0200   23.0700   38.0930 C   0  0  0  0  0  0  0  0  0  0  0  0
   38.0850   23.3620   36.7440 C   0  0  0  0  0  0  0  0  0  0  0  0
   38.0840   22.5980   35.5090 C   0  0  0  0  0  0  0  0  0  0  0  0
   39.0740   22.1290   34.7450 N   0  0  0  0  0  0  0  0  0  0  0  0
   38.5940   21.4910   33.7230 O   0  0  0  0  0  0  0  0  0  0  0  0
   37.2590   21.5590   33.8400 C   0  0  0  0  0  0  0  0  0  0  0  0
   36.8930   22.2360   34.9350 N   0  0  0  0  0  0  0  0  0  0  0  0
   36.2890   20.9550   32.8800 C   0  0  2  0  0  0  0  0  0  0  0  0
   35.5610   19.6980   33.2490 C   0  0  0  0  0  0  0  0  0  0  0  0
   36.6280   19.7000   32.1610 C   0  0  1  0  0  0  0  0  0  0  0  0
   36.2170   19.4290   30.7450 C   0  0  0  0  0  0  0  0  0  0  0  0
   37.3060   19.6170   29.7120 C   0  0  0  0  0  0  0  0  0  0  0  0
   36.9510   18.2240   30.1370 C   0  0  0  0  0  0  0  0  0  0  0  0
   40.6980   27.2290   33.4050 N   0  0  0  0  0  0  0  0  0  0  0  0
   38.2937   28.2093   32.7380 H   0  0  0  0  0  0  0  0  0  0  0  0
   36.1160   27.5648   33.8187 H   0  0  0  0  0  0  0  0  0  0  0  0
   38.0372   24.4028   39.8322 H   0  0  0  0  0  0  0  0  0  0  0  0
   37.9451   22.0718   38.5492 H   0  0  0  0  0  0  0  0  0  0  0  0
   35.9802   21.9614   32.5609 H   0  0  0  0  0  0  0  0  0  0  0  0
   35.7566   19.2087   34.2146 H   0  0  0  0  0  0  0  0  0  0  0  0
   34.5062   19.3923   33.3127 H   0  0  0  0  0  0  0  0  0  0  0  0
   37.5754   19.1779   31.9614 H   0  0  0  0  0  0  0  0  0  0  0  0
   35.1750   19.7683   30.8399 H   0  0  0  0  0  0  0  0  0  0  0  0
   38.2726   20.0493   30.0098 H   0  0  0  0  0  0  0  0  0  0  0  0
   37.3670   20.1343   28.7431 H   0  0  0  0  0  0  0  0  0  0  0  0
   36.4258   17.5530   29.4413 H   0  0  0  0  0  0  0  0  0  0  0  0
   37.5091   17.3666   30.5412 H   0  0  0  0  0  0  0  0  0  0  0  0
   40.7159   27.9192   32.6407 H   0  0  0  0  0  0  0  0  0  0  0  0
   41.5751   26.7978   33.7302 H   0  0  0  0  0  0  0  0  0  0  0  0
  1  6  2  0
  2  1  1  0
  2  3  2  0
  3  4  1  0
  4  5  2  0
  5  7  1  0
  6  5  1  0
  7 11  1  0
  7  8  1  0
  8  9  2  0
 10  9  1  0
 11 10  2  0
 12 11  1  0
 13 12  2  0
 14 15  1  0
 14 13  1  0
 15 16  2  0
 16 12  1  0
 17 18  1  0
 17 15  1  0
 19 17  1  0
 19 18  1  0
 20 19  1  0
 21 22  1  0
 21 20  1  0
 22 20  1  0
 23  1  1  0
  2 24  1  0
  3 25  1  0
  9 26  1  0
 10 27  1  0
 17 28  1  6
 18 29  1  0
 18 30  1  0
 19 31  1  1
 20 32  1  0
 21 33  1  0
 21 34  1  0
 22 35  1  0
 22 36  1  0
 23 37  1  0
 23 38  1  0
M  ISO  8  24  14  25  14  26  14  27  14  28  13  29  13  30  13  31  13
M  ISO  5  32  13  33  13  34  13  35  13  36  13
M  END
>  <minimizedAffinity>  (1) 
-5.17652702

>  <minimizedRMSD>  (1) 
6.01210117

$$$$
