
     RDKit          3D

 38 40  0  0  1  0  0  0  0  0999 V2000
   39.2070   22.7280   36.8520 C   0  0  0  0  0  0  0  0  0  0  0  0
   39.4200   23.5830   35.7720 C   0  0  0  0  0  0  0  0  0  0  0  0
   40.7350   23.9090   35.4430 C   0  0  0  0  0  0  0  0  0  0  0  0
   41.7580   23.3680   36.2030 N   0  0  0  0  0  0  0  0  0  0  0  0
   41.5080   22.5390   37.2450 C   0  0  0  0  0  0  0  0  0  0  0  0
   40.2490   22.2230   37.5650 N   0  0  0  0  0  0  0  0  0  0  0  0
   41.0810   24.7550   34.3820 N   0  0  0  0  0  0  0  0  0  0  0  0
   41.8220   26.0170   34.3530 C   0  0  0  0  0  0  0  0  0  0  0  0
   41.0030   26.7680   33.3440 C   0  0  1  0  0  0  0  0  0  0  0  0
   40.9790   25.7420   32.2220 C   0  0  0  0  0  0  0  0  0  0  0  0
   40.7210   24.4790   33.0010 C   0  0  0  0  0  0  0  0  0  0  0  0
   39.6710   27.2220   33.7760 C   0  0  0  0  0  0  0  0  0  0  0  0
   38.6220   26.3600   33.1210 C   0  0  0  0  0  0  0  0  0  0  0  0
   37.2620   26.9410   33.4850 C   0  0  0  0  0  0  0  0  0  0  0  0
   37.0650   26.7260   34.9520 C   0  0  0  0  0  0  0  0  0  0  0  0
   38.1550   27.3490   35.7870 C   0  0  0  0  0  0  0  0  0  0  0  0
   39.5240   27.1020   35.2720 C   0  0  0  0  0  0  0  0  0  0  0  0
   38.1784   22.4571   37.1324 H   0  0  0  0  0  0  0  0  0  0  0  0
   38.5752   23.9887   35.1961 H   0  0  0  0  0  0  0  0  0  0  0  0
   42.3430   22.1249   37.8292 H   0  0  0  0  0  0  0  0  0  0  0  0
   41.8210   26.5151   35.3338 H   0  0  0  0  0  0  0  0  0  0  0  0
   42.8909   25.9246   34.1102 H   0  0  0  0  0  0  0  0  0  0  0  0
   41.4276   27.7494   33.0860 H   0  0  0  0  0  0  0  0  0  0  0  0
   41.9412   25.7006   31.6905 H   0  0  0  0  0  0  0  0  0  0  0  0
   40.2425   25.9483   31.4315 H   0  0  0  0  0  0  0  0  0  0  0  0
   39.6580   24.2039   32.9347 H   0  0  0  0  0  0  0  0  0  0  0  0
   41.3102   23.6412   32.5999 H   0  0  0  0  0  0  0  0  0  0  0  0
   39.5486   28.2760   33.4860 H   0  0  0  0  0  0  0  0  0  0  0  0
   38.7004   25.3268   33.4902 H   0  0  0  0  0  0  0  0  0  0  0  0
   38.7581   26.3449   32.0296 H   0  0  0  0  0  0  0  0  0  0  0  0
   37.2385   28.0166   33.2556 H   0  0  0  0  0  0  0  0  0  0  0  0
   36.4627   26.4520   32.9088 H   0  0  0  0  0  0  0  0  0  0  0  0
   36.1016   27.1684   35.2455 H   0  0  0  0  0  0  0  0  0  0  0  0
   37.0890   25.6413   35.1332 H   0  0  0  0  0  0  0  0  0  0  0  0
   37.9881   28.4358   35.8189 H   0  0  0  0  0  0  0  0  0  0  0  0
   38.0999   26.8831   36.7819 H   0  0  0  0  0  0  0  0  0  0  0  0
   39.8203   26.0836   35.5638 H   0  0  0  0  0  0  0  0  0  0  0  0
   40.1634   27.8835   35.7084 H   0  0  0  0  0  0  0  0  0  0  0  0
  1  6  2  0
  2  1  1  0
  3  2  2  0
  3  4  1  0
  4  5  2  0
  5  6  1  0
  7  3  1  0
  8  7  1  0
  9 12  1  0
  9  8  1  0
 10 11  1  0
 10  9  1  0
 11  7  1  0
 12 17  1  0
 13 14  1  0
 13 12  1  0
 14 15  1  0
 15 16  1  0
 17 16  1  0
  1 18  1  0
  2 19  1  0
  5 20  1  0
  8 21  1  0
  8 22  1  0
  9 23  1  6
 10 24  1  0
 10 25  1  0
 11 26  1  0
 11 27  1  0
 12 28  1  0
 13 29  1  0
 13 30  1  0
 14 31  1  0
 14 32  1  0
 15 33  1  0
 15 34  1  0
 16 35  1  0
 16 36  1  0
 17 37  1  0
 17 38  1  0
M  ISO  8  18  14  19  14  20  14  21  13  22  13  23  13  24  13  25  13
M  ISO  8  26  13  27  13  28  13  29  13  30  13  31  13  32  13  33  13
M  ISO  5  34  13  35  13  36  13  37  13  38  13
M  END
>  <minimizedAffinity>  (1) 
-4.66231632

>  <minimizedRMSD>  (1) 
3.27557588

$$$$
