
     RDKit          3D

 43 46  0  0  0  0  0  0  0  0999 V2000
   37.8718   23.6985   33.4974 C   0  0  0  0  0  0  0  0  0  0  0  0
   37.4797   22.6494   32.6666 C   0  0  0  0  0  0  0  0  0  0  0  0
   37.5007   21.5607   33.4892 N   0  0  0  0  0  0  0  0  0  0  0  0
   37.8767   21.9665   34.6936 C   0  0  0  0  0  0  0  0  0  0  0  0
   38.1100   23.2708   34.7297 N   0  0  0  0  0  0  0  0  0  0  0  0
   38.0179   25.0751   33.0807 C   0  0  0  0  0  0  0  0  0  0  0  0
   39.2972   25.5862   32.7745 C   0  0  0  0  0  0  0  0  0  0  0  0
   39.3771   26.9385   32.3633 C   0  0  0  0  0  0  0  0  0  0  0  0
   38.2224   27.6530   32.2909 N   0  0  0  0  0  0  0  0  0  0  0  0
   37.0135   27.1270   32.5935 C   0  0  0  0  0  0  0  0  0  0  0  0
   36.9304   25.8497   32.9826 N   0  0  0  0  0  0  0  0  0  0  0  0
   38.5169   23.9311   35.9040 C   0  0  1  0  0  0  0  0  0  0  0  0
   38.1160   25.2320   36.3573 C   0  0  0  0  0  0  0  0  0  0  0  0
   37.5329   23.9776   37.0344 C   0  0  2  0  0  0  0  0  0  0  0  0
   38.1082   23.7611   38.4216 C   0  0  0  0  0  0  0  0  0  0  0  0
   37.5023   22.7104   39.0604 F   0  0  0  0  0  0  0  0  0  0  0  0
   39.4937   23.3149   38.2975 F   0  0  0  0  0  0  0  0  0  0  0  0
   38.1794   24.8956   39.1398 F   0  0  0  0  0  0  0  0  0  0  0  0
   37.2286   22.7531   31.6075 H   0  0  0  0  0  0  0  0  0  0  0  0
   37.9405   21.1920   35.4681 H   0  0  0  0  0  0  0  0  0  0  0  0
   40.1799   24.9983   32.8426 H   0  0  0  0  0  0  0  0  0  0  0  0
   40.3169   27.4017   32.1121 H   0  0  0  0  0  0  0  0  0  0  0  0
   36.2188   27.8308   32.4809 H   0  0  0  0  0  0  0  0  0  0  0  0
   39.5585   23.5842   36.2127 H   0  0  0  0  0  0  0  0  0  0  0  0
   38.8522   25.8208   36.9827 H   0  0  0  0  0  0  0  0  0  0  0  0
   37.5277   25.9088   35.7534 H   0  0  0  0  0  0  0  0  0  0  0  0
   36.0585   24.1044   36.9958 C   0  0  0  0  0  0  0  0  0  0  0  0
   35.2395   23.3707   38.0203 C   0  0  0  0  0  0  0  0  0  0  0  0
   33.7695   23.4581   37.5582 C   0  0  0  0  0  0  0  0  0  0  0  0
   33.5085   24.6195   36.6677 C   0  0  0  0  0  0  0  0  0  0  0  0
   34.2047   24.3626   35.3476 C   0  0  0  0  0  0  0  0  0  0  0  0
   35.5035   23.5947   35.6876 C   0  0  0  0  0  0  0  0  0  0  0  0
   35.8150   25.1804   37.0679 H   0  0  0  0  0  0  0  0  0  0  0  0
   35.2219   23.8773   39.0004 H   0  0  0  0  0  0  0  0  0  0  0  0
   35.3880   22.2990   38.0872 H   0  0  0  0  0  0  0  0  0  0  0  0
   33.4731   22.5211   37.0388 H   0  0  0  0  0  0  0  0  0  0  0  0
   33.0900   23.5577   38.4403 H   0  0  0  0  0  0  0  0  0  0  0  0
   33.8580   25.5678   37.0698 H   0  0  0  0  0  0  0  0  0  0  0  0
   32.4078   24.6384   36.4824 H   0  0  0  0  0  0  0  0  0  0  0  0
   34.4818   25.2702   34.8136 H   0  0  0  0  0  0  0  0  0  0  0  0
   33.6214   23.6966   34.6793 H   0  0  0  0  0  0  0  0  0  0  0  0
   35.2154   22.4963   35.8394 H   0  0  0  0  0  0  0  0  0  0  0  0
   36.0799   23.6192   34.8062 H   0  0  0  0  0  0  0  0  0  0  0  0
  1  5  1  0
  2  3  1  0
  2  1  2  0
  3  4  2  0
  4  5  1  0
  5 12  1  0
  6  1  1  0
  7  6  2  0
  8  7  1  0
  9  8  2  0
  9 10  1  0
 10 11  2  0
 11  6  1  0
 12 13  1  0
 12 14  1  0
 13 14  1  0
 14 15  1  1
 15 16  1  0
 15 18  1  0
 17 15  1  0
  2 19  1  0
  4 20  1  0
  7 21  1  0
  8 22  1  0
 10 23  1  0
 12 24  1  1
 13 25  1  0
 13 26  1  0
 27 28  1  0
 28 29  1  0
 29 30  1  0
 30 31  1  0
 31 32  1  0
 32 27  1  0
 27 33  1  0
 28 34  1  0
 28 35  1  0
 29 36  1  0
 29 37  1  0
 30 38  1  0
 30 39  1  0
 31 40  1  0
 31 41  1  0
 32 42  1  0
 32 43  1  0
 14 27  1  0
M  ISO  8  19  14  20  14  21  14  22  14  23  14  24  13  25  13  26  13
M  END
>  <DihAtoms>  (1) 
11,13,26,27

>  <DihDeg>  (1) 
-50.62397668945274

$$$$
