
     RDKit          3D

 36 38  0  0  0  0  0  0  0  0999 V2000
   39.8860   22.7000   37.2550 C   0  0  0  0  0  0  0  0  0  0  0  0
   39.2550   23.3990   38.3220 C   0  0  0  0  0  0  0  0  0  0  0  0
   37.8590   23.4980   38.2800 C   0  0  0  0  0  0  0  0  0  0  0  0
   37.1630   22.9370   37.2450 N   0  0  0  0  0  0  0  0  0  0  0  0
   37.8280   22.2790   36.2490 C   0  0  0  0  0  0  0  0  0  0  0  0
   39.1630   22.1610   36.2520 N   0  0  0  0  0  0  0  0  0  0  0  0
   37.1250   21.6840   35.1580 N   0  0  0  0  0  0  0  0  0  0  0  0
   37.6800   21.8620   33.9200 C   0  0  0  0  0  0  0  0  0  0  0  0
   37.0250   21.2990   32.8420 C   0  0  0  0  0  0  0  0  0  0  0  0
   35.8440   20.5850   33.0650 C   0  0  0  0  0  0  0  0  0  0  0  0
   35.2510   20.0740   32.0720 O   0  0  0  0  0  0  0  0  0  0  0  0
   35.3520   20.4480   34.3070 N   0  0  0  0  0  0  0  0  0  0  0  0
   36.0000   21.0010   35.3540 C   0  0  0  0  0  0  0  0  0  0  0  0
   35.5960   20.9100   36.5370 O   0  0  0  0  0  0  0  0  0  0  0  0
   37.5480   21.4380   31.4670 C   0  0  0  0  0  0  0  0  0  0  0  0
   38.2820   22.7530   31.3070 C   0  0  0  0  0  0  0  0  0  0  0  0
   38.7540   22.9580   29.9120 C   0  0  0  0  0  0  0  0  0  0  0  0
   39.3190   21.7720   29.2170 C   0  0  0  0  0  0  0  0  0  0  0  0
   38.7560   20.4460   29.6360 C   0  0  0  0  0  0  0  0  0  0  0  0
   38.5590   20.3480   31.1350 C   0  0  0  0  0  0  0  0  0  0  0  0
   40.9812   22.5976   37.2481 H   0  0  0  0  0  0  0  0  0  0  0  0
   39.8380   23.8417   39.1431 H   0  0  0  0  0  0  0  0  0  0  0  0
   37.3215   24.0276   39.0804 H   0  0  0  0  0  0  0  0  0  0  0  0
   38.6118   22.4315   33.7883 H   0  0  0  0  0  0  0  0  0  0  0  0
   34.4804   19.9211   34.4606 H   0  0  0  0  0  0  0  0  0  0  0  0
   36.6754   21.3735   30.8003 H   0  0  0  0  0  0  0  0  0  0  0  0
   37.6024   23.5748   31.5769 H   0  0  0  0  0  0  0  0  0  0  0  0
   39.1627   22.7343   31.9658 H   0  0  0  0  0  0  0  0  0  0  0  0
   37.8985   23.3150   29.3198 H   0  0  0  0  0  0  0  0  0  0  0  0
   39.5879   23.6710   29.9910 H   0  0  0  0  0  0  0  0  0  0  0  0
   40.4027   21.7541   29.4048 H   0  0  0  0  0  0  0  0  0  0  0  0
   39.0534   21.8900   28.1561 H   0  0  0  0  0  0  0  0  0  0  0  0
   37.7835   20.3035   29.1421 H   0  0  0  0  0  0  0  0  0  0  0  0
   39.4763   19.6685   29.3416 H   0  0  0  0  0  0  0  0  0  0  0  0
   38.1660   19.3582   31.4102 H   0  0  0  0  0  0  0  0  0  0  0  0
   39.5021   20.4746   31.6868 H   0  0  0  0  0  0  0  0  0  0  0  0
  1  2  2  0
  3  2  1  0
  4  3  2  0
  5  6  2  0
  5  4  1  0
  6  1  1  0
  7 13  1  0
  7  5  1  0
  8  7  1  0
  9 10  1  0
  9  8  2  0
 10 12  1  0
 11 10  2  0
 12 13  1  0
 13 14  2  0
 15  9  1  0
 16 15  1  0
 17 16  1  0
 18 19  1  0
 18 17  1  0
 19 20  1  0
 20 15  1  0
  1 21  1  0
  2 22  1  0
  3 23  1  0
  8 24  1  0
 12 25  1  0
 15 26  1  0
 16 27  1  0
 16 28  1  0
 17 29  1  0
 17 30  1  0
 18 31  1  0
 18 32  1  0
 19 33  1  0
 19 34  1  0
 20 35  1  0
 20 36  1  0
M  ISO  8  21  14  22  14  23  14  24  14  25   9  26  13  27  13  28  13
M  ISO  8  29  13  30  13  31  13  32  13  33  13  34  13  35  13  36  13
M  END
>  <minimizedAffinity>  (1) 
-5.40400839

>  <minimizedRMSD>  (1) 
0.235897928

$$$$
