
     RDKit          3D

 40 43  0  0  0  0  0  0  0  0999 V2000
   37.8621   23.7021   33.5048 C   0  0  0  0  0  0  0  0  0  0  0  0
   37.4598   22.6543   32.6715 C   0  0  0  0  0  0  0  0  0  0  0  0
   37.4988   21.5606   33.4904 N   0  0  0  0  0  0  0  0  0  0  0  0
   37.8919   21.9686   34.6860 C   0  0  0  0  0  0  0  0  0  0  0  0
   38.1199   23.2716   34.7270 N   0  0  0  0  0  0  0  0  0  0  0  0
   38.0044   25.0830   33.0788 C   0  0  0  0  0  0  0  0  0  0  0  0
   39.2901   25.5847   32.7664 C   0  0  0  0  0  0  0  0  0  0  0  0
   39.3950   26.9279   32.3535 C   0  0  0  0  0  0  0  0  0  0  0  0
   38.2457   27.6502   32.2844 N   0  0  0  0  0  0  0  0  0  0  0  0
   37.0327   27.1340   32.5920 C   0  0  0  0  0  0  0  0  0  0  0  0
   36.9080   25.8538   32.9886 N   0  0  0  0  0  0  0  0  0  0  0  0
   38.5312   23.9421   35.9005 C   0  0  1  0  0  0  0  0  0  0  0  0
   38.0830   25.2274   36.3635 C   0  0  0  0  0  0  0  0  0  0  0  0
   37.5319   23.9399   37.0317 C   0  0  2  0  0  0  0  0  0  0  0  0
   38.1112   23.7622   38.4245 C   0  0  0  0  0  0  0  0  0  0  0  0
   37.5168   22.6968   39.0618 F   0  0  0  0  0  0  0  0  0  0  0  0
   39.5028   23.3462   38.3068 F   0  0  0  0  0  0  0  0  0  0  0  0
   38.1619   24.8927   39.1449 F   0  0  0  0  0  0  0  0  0  0  0  0
   37.1958   22.7622   31.6337 H   0  0  0  0  0  0  0  0  0  0  0  0
   37.9646   21.1834   35.4331 H   0  0  0  0  0  0  0  0  0  0  0  0
   40.1779   24.9804   32.8337 H   0  0  0  0  0  0  0  0  0  0  0  0
   40.3401   27.3824   32.0983 H   0  0  0  0  0  0  0  0  0  0  0  0
   36.1194   27.6966   32.5406 H   0  0  0  0  0  0  0  0  0  0  0  0
   39.5902   23.6253   36.2021 H   0  0  0  0  0  0  0  0  0  0  0  0
   38.8036   25.8378   36.9671 H   0  0  0  0  0  0  0  0  0  0  0  0
   37.4026   25.8824   35.7975 H   0  0  0  0  0  0  0  0  0  0  0  0
   36.0308   24.0223   36.8961 C   0  0  0  0  0  0  0  0  0  0  0  0
   35.6540   24.5601   35.5476 C   0  0  0  0  0  0  0  0  0  0  0  0
   34.6170   25.6449   35.7171 C   0  0  0  0  0  0  0  0  0  0  0  0
   34.1439   25.4948   37.1541 C   0  0  0  0  0  0  0  0  0  0  0  0
   35.4032   24.9981   37.8879 C   0  0  0  0  0  0  0  0  0  0  0  0
   35.5834   23.0358   37.0031 H   0  0  0  0  0  0  0  0  0  0  0  0
   35.0953   23.7482   34.9540 H   0  0  0  0  0  0  0  0  0  0  0  0
   36.4479   24.8854   34.8927 H   0  0  0  0  0  0  0  0  0  0  0  0
   35.0500   26.6670   35.6359 H   0  0  0  0  0  0  0  0  0  0  0  0
   33.7809   25.5781   35.0011 H   0  0  0  0  0  0  0  0  0  0  0  0
   33.7299   26.4047   37.5884 H   0  0  0  0  0  0  0  0  0  0  0  0
   33.3471   24.7258   37.1462 H   0  0  0  0  0  0  0  0  0  0  0  0
   35.0226   24.4090   38.7310 H   0  0  0  0  0  0  0  0  0  0  0  0
   36.0441   25.8347   38.1609 H   0  0  0  0  0  0  0  0  0  0  0  0
  1  5  1  0
  2  3  1  0
  2  1  2  0
  3  4  2  0
  4  5  1  0
  5 12  1  0
  6  1  1  0
  7  6  2  0
  8  7  1  0
  9  8  2  0
  9 10  1  0
 10 11  2  0
 11  6  1  0
 12 13  1  0
 12 14  1  0
 13 14  1  0
 14 15  1  1
 15 16  1  0
 15 18  1  0
 17 15  1  0
  2 19  1  0
  4 20  1  0
  7 21  1  0
  8 22  1  0
 10 23  1  0
 12 24  1  1
 13 25  1  0
 13 26  1  0
 27 28  1  0
 28 29  1  0
 29 30  1  0
 30 31  1  0
 31 27  1  0
 27 32  1  0
 28 33  1  0
 28 34  1  0
 29 35  1  0
 29 36  1  0
 30 37  1  0
 30 38  1  0
 31 39  1  0
 31 40  1  0
 14 27  1  0
M  ISO  8  19  14  20  14  21  14  22  14  23  14  24  13  25  13  26  13
M  END
>  <DihAtoms>  (1) 
11,13,26,27

>  <DihDeg>  (1) 
-168.87994964742944

$$$$
