
     RDKit          3D

 36 38  0  0  1  0  0  0  0  0999 V2000
   41.3120   22.9850   35.6560 C   0  0  1  0  0  0  0  0  0  0  0  0
   42.4770   23.8700   35.3240 C   0  0  0  0  0  0  0  0  0  0  0  0
   43.7040   23.1320   35.7730 C   0  0  2  0  0  0  0  0  0  0  0  0
   43.2070   21.8410   36.3810 C   0  0  0  0  0  0  0  0  0  0  0  0
   41.8590   22.3130   36.9200 C   0  0  0  0  0  0  0  0  0  0  0  0
   39.0740   23.2760   36.7680 C   0  0  0  0  0  0  0  0  0  0  0  0
   40.0600   23.7380   35.8960 C   0  0  0  0  0  0  0  0  0  0  0  0
   39.8600   24.9620   35.2010 C   0  0  0  0  0  0  0  0  0  0  0  0
   38.7110   25.6270   35.4230 N   0  0  0  0  0  0  0  0  0  0  0  0
   37.7620   25.1650   36.2750 C   0  0  0  0  0  0  0  0  0  0  0  0
   37.9590   23.9970   36.9340 N   0  0  0  0  0  0  0  0  0  0  0  0
   44.5340   23.8070   36.7950 C   0  0  0  0  0  0  0  0  0  0  0  0
   45.9900   23.6630   36.3850 C   0  0  0  0  0  0  0  0  0  0  0  0
   46.5440   25.0580   36.2580 C   0  0  0  0  0  0  0  0  0  0  0  0
   45.3710   25.9870   36.2190 C   0  0  0  0  0  0  0  0  0  0  0  0
   44.3530   25.2350   37.0490 C   0  0  0  0  0  0  0  0  0  0  0  0
   41.0107   22.2942   34.8547 H   0  0  0  0  0  0  0  0  0  0  0  0
   42.5185   24.0554   34.2405 H   0  0  0  0  0  0  0  0  0  0  0  0
   42.3925   24.8476   35.8212 H   0  0  0  0  0  0  0  0  0  0  0  0
   44.3540   23.0280   34.8917 H   0  0  0  0  0  0  0  0  0  0  0  0
   43.0917   21.0501   35.6252 H   0  0  0  0  0  0  0  0  0  0  0  0
   43.8760   21.3897   37.1285 H   0  0  0  0  0  0  0  0  0  0  0  0
   41.9742   23.0269   37.7489 H   0  0  0  0  0  0  0  0  0  0  0  0
   41.2213   21.5261   37.3490 H   0  0  0  0  0  0  0  0  0  0  0  0
   39.2114   22.3302   37.3127 H   0  0  0  0  0  0  0  0  0  0  0  0
   40.6180   25.3521   34.5059 H   0  0  0  0  0  0  0  0  0  0  0  0
   36.8352   25.7366   36.4307 H   0  0  0  0  0  0  0  0  0  0  0  0
   44.2125   23.3062   37.7201 H   0  0  0  0  0  0  0  0  0  0  0  0
   46.5459   23.1026   37.1511 H   0  0  0  0  0  0  0  0  0  0  0  0
   46.0815   23.1131   35.4367 H   0  0  0  0  0  0  0  0  0  0  0  0
   47.1836   25.2916   37.1219 H   0  0  0  0  0  0  0  0  0  0  0  0
   47.1573   25.1581   35.3503 H   0  0  0  0  0  0  0  0  0  0  0  0
   45.6155   26.9600   36.6701 H   0  0  0  0  0  0  0  0  0  0  0  0
   45.0268   26.2276   35.2023 H   0  0  0  0  0  0  0  0  0  0  0  0
   43.3364   25.5402   36.7604 H   0  0  0  0  0  0  0  0  0  0  0  0
   44.4917   25.4550   38.1178 H   0  0  0  0  0  0  0  0  0  0  0  0
  1  7  1  0
  1  5  1  0
  2  1  1  0
  2  3  1  0
  3  4  1  0
  3 12  1  0
  4  5  1  0
  6 11  2  0
  7  6  1  0
  8  9  1  0
  8  7  2  0
  9 10  2  0
 10 11  1  0
 12 16  1  0
 13 12  1  0
 14 13  1  0
 15 14  1  0
 15 16  1  0
  1 17  1  6
  2 18  1  0
  2 19  1  0
  3 20  1  6
  4 21  1  0
  4 22  1  0
  5 23  1  0
  5 24  1  0
  6 25  1  0
  8 26  1  0
 10 27  1  0
 12 28  1  0
 13 29  1  0
 13 30  1  0
 14 31  1  0
 14 32  1  0
 15 33  1  0
 15 34  1  0
 16 35  1  0
 16 36  1  0
M  ISO  8  17  13  18  13  19  13  20  13  21  13  22  13  23  13  24  13
M  ISO  8  25  14  26  14  27  14  28  13  29  13  30  13  31  13  32  13
M  ISO  4  33  13  34  13  35  13  36  13
M  END
>  <minimizedAffinity>  (1) 
-4.09080362

>  <minimizedRMSD>  (1) 
1.92345035

$$$$
