
     RDKit          3D

 42 46  0  0  0  0  0  0  0  0999 V2000
   36.7470   24.4440   31.8990 C   0  0  0  0  0  0  0  0  0  0  0  0
   36.2600   25.7470   31.8960 C   0  0  0  0  0  0  0  0  0  0  0  0
   36.8040   26.5630   32.8470 C   0  0  0  0  0  0  0  0  0  0  0  0
   37.7160   26.0700   33.6670 N   0  0  0  0  0  0  0  0  0  0  0  0
   38.1940   24.8470   33.6960 C   0  0  0  0  0  0  0  0  0  0  0  0
   37.6720   24.0600   32.7800 N   0  0  0  0  0  0  0  0  0  0  0  0
   39.1790   24.1880   34.5280 C   0  0  0  0  0  0  0  0  0  0  0  0
   40.3970   23.7760   34.0190 C   0  0  0  0  0  0  0  0  0  0  0  0
   41.3690   23.1460   34.7660 C   0  0  0  0  0  0  0  0  0  0  0  0
   41.1530   22.8920   36.1050 C   0  0  0  0  0  0  0  0  0  0  0  0
   39.9730   23.2800   36.6430 C   0  0  0  0  0  0  0  0  0  0  0  0
   39.7590   23.0250   37.9870 C   0  0  0  0  0  0  0  0  0  0  0  0
   38.6080   23.3770   38.6140 C   0  0  0  0  0  0  0  0  0  0  0  0
   37.6320   24.0130   37.8480 C   0  0  0  0  0  0  0  0  0  0  0  0
   37.8840   24.2490   36.5140 C   0  0  0  0  0  0  0  0  0  0  0  0
   39.0240   23.9070   35.8720 C   0  0  0  0  0  0  0  0  0  0  0  0
   36.4090   27.9300   32.9720 N   0  0  0  0  0  0  0  0  0  0  0  0
   36.4630   28.8710   32.0250 C   0  0  0  0  0  0  0  0  0  0  0  0
   36.0180   30.0290   32.4770 N   0  0  0  0  0  0  0  0  0  0  0  0
   35.6600   29.8390   33.7620 C   0  0  0  0  0  0  0  0  0  0  0  0
   35.9080   28.5520   34.0370 N   0  0  0  0  0  0  0  0  0  0  0  0
   35.1050   30.5710   34.9120 C   0  0  0  0  0  0  0  0  0  0  0  0
   33.7490   30.3330   35.0990 C   0  0  0  0  0  0  0  0  0  0  0  0
   33.0730   30.9450   36.1350 C   0  0  0  0  0  0  0  0  0  0  0  0
   33.8260   31.7780   36.9400 C   0  0  0  0  0  0  0  0  0  0  0  0
   35.1600   32.0200   36.7670 C   0  0  0  0  0  0  0  0  0  0  0  0
   35.8320   31.4090   35.7310 C   0  0  0  0  0  0  0  0  0  0  0  0
   36.3639   23.7202   31.1646 H   0  0  0  0  0  0  0  0  0  0  0  0
   35.4966   26.0932   31.1837 H   0  0  0  0  0  0  0  0  0  0  0  0
   40.6023   23.9622   32.9545 H   0  0  0  0  0  0  0  0  0  0  0  0
   42.3166   22.8458   34.2949 H   0  0  0  0  0  0  0  0  0  0  0  0
   41.9166   22.3894   36.7168 H   0  0  0  0  0  0  0  0  0  0  0  0
   40.5474   22.5208   38.5652 H   0  0  0  0  0  0  0  0  0  0  0  0
   38.4515   23.1690   39.6828 H   0  0  0  0  0  0  0  0  0  0  0  0
   36.6778   24.3209   38.3005 H   0  0  0  0  0  0  0  0  0  0  0  0
   37.1006   24.7524   35.9285 H   0  0  0  0  0  0  0  0  0  0  0  0
   36.8304   28.7028   31.0019 H   0  0  0  0  0  0  0  0  0  0  0  0
   33.2125   29.6547   34.4192 H   0  0  0  0  0  0  0  0  0  0  0  0
   31.9996   30.7796   36.3093 H   0  0  0  0  0  0  0  0  0  0  0  0
   33.3177   32.2802   37.7763 H   0  0  0  0  0  0  0  0  0  0  0  0
   35.6932   32.6977   37.4500 H   0  0  0  0  0  0  0  0  0  0  0  0
   36.9053   31.5827   35.5639 H   0  0  0  0  0  0  0  0  0  0  0  0
  1  6  2  0
  2  1  1  0
  2  3  2  0
  3 17  1  0
  3  4  1  0
  4  5  2  0
  5  7  1  0
  6  5  1  0
  7 16  1  0
  8  7  2  0
  8  9  1  0
  9 10  2  0
 10 11  1  0
 11 12  2  0
 12 13  1  0
 14 13  2  0
 15 14  1  0
 16 15  2  0
 16 11  1  0
 17 21  1  0
 18 19  2  0
 18 17  1  0
 19 20  1  0
 20 21  2  0
 20 22  1  0
 22 23  2  0
 22 27  1  0
 23 24  1  0
 24 25  2  0
 26 25  1  0
 27 26  2  0
  1 28  1  0
  2 29  1  0
  8 30  1  0
  9 31  1  0
 10 32  1  0
 12 33  1  0
 13 34  1  0
 14 35  1  0
 15 36  1  0
 18 37  1  0
 23 38  1  0
 24 39  1  0
 25 40  1  0
 26 41  1  0
 27 42  1  0
M  END
>  <minimizedAffinity>  (1) 
-7.29005575

>  <minimizedRMSD>  (1) 
1.90726876

$$$$
