
     RDKit          3D

 30 32  0  0  0  0  0  0  0  0999 V2000
   39.8650   22.6990   37.3300 C   0  0  0  0  0  0  0  0  0  0  0  0
   39.1240   23.2310   38.4150 C   0  0  0  0  0  0  0  0  0  0  0  0
   37.7300   23.3020   38.2570 C   0  0  0  0  0  0  0  0  0  0  0  0
   37.1660   22.8680   37.0980 N   0  0  0  0  0  0  0  0  0  0  0  0
   37.9320   22.3620   36.0830 C   0  0  0  0  0  0  0  0  0  0  0  0
   39.2790   22.2710   36.1820 N   0  0  0  0  0  0  0  0  0  0  0  0
   37.3550   21.9040   34.8650 N   0  0  0  0  0  0  0  0  0  0  0  0
   38.0170   22.2430   33.7190 C   0  0  0  0  0  0  0  0  0  0  0  0
   37.4970   21.8220   32.5180 C   0  0  0  0  0  0  0  0  0  0  0  0
   36.3110   21.0660   32.5310 C   0  0  0  0  0  0  0  0  0  0  0  0
   35.8140   20.6680   31.4430 O   0  0  0  0  0  0  0  0  0  0  0  0
   35.7060   20.7630   33.6840 N   0  0  0  0  0  0  0  0  0  0  0  0
   36.2260   21.1830   34.8680 C   0  0  0  0  0  0  0  0  0  0  0  0
   35.7190   20.9390   35.9810 O   0  0  0  0  0  0  0  0  0  0  0  0
   38.1770   22.1670   31.3000 C   0  0  0  0  0  0  0  0  0  0  0  0
   38.9540   21.2270   30.6510 C   0  0  0  0  0  0  0  0  0  0  0  0
   39.5710   21.6530   29.4820 C   0  0  0  0  0  0  0  0  0  0  0  0
   39.4200   22.9330   28.9950 C   0  0  0  0  0  0  0  0  0  0  0  0
   38.6380   23.8290   29.6740 C   0  0  0  0  0  0  0  0  0  0  0  0
   37.9960   23.4630   30.8480 C   0  0  0  0  0  0  0  0  0  0  0  0
   40.9590   22.6300   37.4216 H   0  0  0  0  0  0  0  0  0  0  0  0
   39.6173   23.5721   39.3371 H   0  0  0  0  0  0  0  0  0  0  0  0
   37.1000   23.7051   39.0636 H   0  0  0  0  0  0  0  0  0  0  0  0
   38.9419   22.8373   33.7563 H   0  0  0  0  0  0  0  0  0  0  0  0
   34.8390   20.2069   33.6753 H   0  0  0  0  0  0  0  0  0  0  0  0
   39.0764   20.2040   31.0364 H   0  0  0  0  0  0  0  0  0  0  0  0
   40.2020   20.9441   28.9258 H   0  0  0  0  0  0  0  0  0  0  0  0
   39.9251   23.2337   28.0653 H   0  0  0  0  0  0  0  0  0  0  0  0
   38.5176   24.8505   29.2841 H   0  0  0  0  0  0  0  0  0  0  0  0
   37.3661   24.1764   31.3996 H   0  0  0  0  0  0  0  0  0  0  0  0
  1  2  2  0
  3  2  1  0
  4  3  2  0
  5  6  2  0
  5  4  1  0
  6  1  1  0
  7 13  1  0
  7  5  1  0
  8  7  1  0
  9 10  1  0
  9  8  2  0
 10 12  1  0
 11 10  2  0
 12 13  1  0
 13 14  2  0
 15  9  1  0
 16 15  2  0
 17 16  1  0
 18 17  2  0
 18 19  1  0
 19 20  2  0
 20 15  1  0
  1 21  1  0
  2 22  1  0
  3 23  1  0
  8 24  1  0
 12 25  1  0
 16 26  1  0
 17 27  1  0
 18 28  1  0
 19 29  1  0
 20 30  1  0
M  ISO  8  21  14  22  14  23  14  24  14  25   9  26  14  27  14  28  14
M  ISO  2  29  14  30  14
M  END
>  <minimizedAffinity>  (1) 
-5.15222073

>  <minimizedRMSD>  (1) 
0.870524824

$$$$
