
     RDKit          3D

 30 32  0  0  0  0  0  0  0  0999 V2000
   38.1410   21.8700   34.7080 C   0  0  0  0  0  0  0  0  0  0  0  0
   36.8960   21.4840   34.4180 C   0  0  0  0  0  0  0  0  0  0  0  0
   36.4580   20.9510   33.2660 C   0  0  0  0  0  0  0  0  0  0  0  0
   37.5670   20.8360   32.3180 C   0  0  0  0  0  0  0  0  0  0  0  0
   39.0970   21.5100   33.1990 S   0  0  0  0  0  0  0  0  0  0  0  0
   39.9820   22.7320   37.6920 C   0  0  0  0  0  0  0  0  0  0  0  0
   39.0330   23.4620   38.4490 C   0  0  0  0  0  0  0  0  0  0  0  0
   37.7400   23.6640   37.9340 C   0  0  0  0  0  0  0  0  0  0  0  0
   37.4690   23.1340   36.7070 N   0  0  0  0  0  0  0  0  0  0  0  0
   38.4080   22.4360   36.0040 C   0  0  0  0  0  0  0  0  0  0  0  0
   39.6300   22.2450   36.4930 N   0  0  0  0  0  0  0  0  0  0  0  0
   37.5790   19.3000   28.3610 C   0  0  0  0  0  0  0  0  0  0  0  0
   38.6250   20.0620   28.8280 C   0  0  0  0  0  0  0  0  0  0  0  0
   38.6680   20.5840   30.1030 C   0  0  0  0  0  0  0  0  0  0  0  0
   37.6120   20.3290   30.9540 C   0  0  0  0  0  0  0  0  0  0  0  0
   36.5430   19.5730   30.5340 C   0  0  0  0  0  0  0  0  0  0  0  0
   36.5580   19.0830   29.2580 C   0  0  0  0  0  0  0  0  0  0  0  0
   37.5720   18.6670   26.7450 S   0  0  0  0  0  0  0  0  0  0  0  0
   36.1880   18.3670   26.2500 O   0  0  0  0  0  0  0  0  0  0  0  0
   38.2850   19.6460   25.8330 O   0  0  0  0  0  0  0  0  0  0  0  0
   36.1456   21.6175   35.2112 H   0  0  0  0  0  0  0  0  0  0  0  0
   35.4204   20.6463   33.0648 H   0  0  0  0  0  0  0  0  0  0  0  0
   40.9966   22.5664   38.0833 H   0  0  0  0  0  0  0  0  0  0  0  0
   39.3058   23.8686   39.4340 H   0  0  0  0  0  0  0  0  0  0  0  0
   36.9798   24.2255   38.4968 H   0  0  0  0  0  0  0  0  0  0  0  0
   39.4680   20.2645   28.1510 H   0  0  0  0  0  0  0  0  0  0  0  0
   39.5242   21.1898   30.4345 H   0  0  0  0  0  0  0  0  0  0  0  0
   35.6977   19.3679   31.2073 H   0  0  0  0  0  0  0  0  0  0  0  0
   35.7009   18.4778   28.9276 H   0  0  0  0  0  0  0  0  0  0  0  0
   38.2350   17.4681   26.7456 H   0  0  0  0  0  0  0  0  0  0  0  0
  1 10  1  0
  2  1  2  0
  3  2  1  0
  4  5  1  0
  4  3  2  0
  5  1  1  0
  6  7  2  0
  8  7  1  0
  9  8  2  0
 10 11  2  0
 10  9  1  0
 11  6  1  0
 12 13  2  0
 12 17  1  0
 13 14  1  0
 14 15  2  0
 15  4  1  0
 16 15  1  0
 17 16  2  0
 18 12  1  0
 19 18  2  0
 20 18  2  0
  2 21  1  0
  3 22  1  0
  6 23  1  0
  7 24  1  0
  8 25  1  0
 13 26  1  0
 14 27  1  0
 16 28  1  0
 17 29  1  0
 18 30  1  0
M  ISO  8  21  14  22  14  23  14  24  14  25  14  26  14  27  14  28  14
M  ISO  2  29  14  30  11
M  END
>  <minimizedAffinity>  (1) 
-4.45796919

>  <minimizedRMSD>  (1) 
1.94567966

$$$$
