
     RDKit          3D

 36 38  0  0  1  0  0  0  0  0999 V2000
   38.7050   25.2780   34.4970 C   0  0  1  0  0  0  0  0  0  0  0  0
   37.3590   25.7360   34.1170 C   0  0  0  0  0  0  0  0  0  0  0  0
   37.5880   26.9460   33.2340 C   0  0  0  0  0  0  0  0  0  0  0  0
   39.0750   27.2150   33.2550 C   0  0  0  0  0  0  0  0  0  0  0  0
   39.5310   26.5390   34.5430 C   0  0  2  0  0  0  0  0  0  0  0  0
   39.4380   22.7490   37.0790 C   0  0  0  0  0  0  0  0  0  0  0  0
   38.8150   23.3030   38.2390 C   0  0  0  0  0  0  0  0  0  0  0  0
   38.1410   24.5350   38.1330 C   0  0  0  0  0  0  0  0  0  0  0  0
   38.1300   25.1290   36.9080 N   0  0  0  0  0  0  0  0  0  0  0  0
   38.7370   24.5680   35.8230 C   0  0  0  0  0  0  0  0  0  0  0  0
   39.3840   23.3850   35.9190 N   0  0  0  0  0  0  0  0  0  0  0  0
   43.7970   26.0460   34.4660 C   0  0  0  0  0  0  0  0  0  0  0  0
   43.0070   25.2050   35.2220 C   0  0  0  0  0  0  0  0  0  0  0  0
   41.6580   25.3770   35.2340 C   0  0  0  0  0  0  0  0  0  0  0  0
   40.9750   26.3520   34.5340 C   0  0  0  0  0  0  0  0  0  0  0  0
   41.7960   27.1940   33.7730 C   0  0  0  0  0  0  0  0  0  0  0  0
   43.1680   27.0400   33.7440 C   0  0  0  0  0  0  0  0  0  0  0  0
   45.5320   26.0030   34.3080 S   0  0  0  0  0  0  0  0  0  0  0  0
   45.9080   25.6160   32.9060 O   0  0  0  0  0  0  0  0  0  0  0  0
   46.1230   24.9990   35.2510 O   0  0  0  0  0  0  0  0  0  0  0  0
   39.0846   24.5361   33.7790 H   0  0  0  0  0  0  0  0  0  0  0  0
   36.8255   24.9494   33.5633 H   0  0  0  0  0  0  0  0  0  0  0  0
   36.7428   25.9778   34.9955 H   0  0  0  0  0  0  0  0  0  0  0  0
   37.0389   27.8138   33.6281 H   0  0  0  0  0  0  0  0  0  0  0  0
   37.2301   26.7653   32.2097 H   0  0  0  0  0  0  0  0  0  0  0  0
   39.5692   26.7696   32.3790 H   0  0  0  0  0  0  0  0  0  0  0  0
   39.3209   28.2866   33.2188 H   0  0  0  0  0  0  0  0  0  0  0  0
   39.3769   27.0932   35.4806 H   0  0  0  0  0  0  0  0  0  0  0  0
   39.9665   21.7869   37.1500 H   0  0  0  0  0  0  0  0  0  0  0  0
   38.8611   22.7742   39.2025 H   0  0  0  0  0  0  0  0  0  0  0  0
   37.6461   24.9963   39.0003 H   0  0  0  0  0  0  0  0  0  0  0  0
   43.4662   24.3986   35.8127 H   0  0  0  0  0  0  0  0  0  0  0  0
   41.0643   24.6852   35.8496 H   0  0  0  0  0  0  0  0  0  0  0  0
   41.3354   27.9997   33.1825 H   0  0  0  0  0  0  0  0  0  0  0  0
   43.7731   27.7248   33.1318 H   0  0  0  0  0  0  0  0  0  0  0  0
   46.0168   27.2500   34.6028 H   0  0  0  0  0  0  0  0  0  0  0  0
  1  5  1  0
  1 10  1  0
  2  1  1  0
  3  4  1  0
  3  2  1  0
  4  5  1  0
  6  7  2  0
  8  7  1  0
  9  8  2  0
 10 11  2  0
 10  9  1  0
 11  6  1  0
 12 13  2  0
 13 14  1  0
 15  5  1  0
 15 14  2  0
 16 15  1  0
 17 16  2  0
 17 12  1  0
 18 12  1  0
 18 20  2  0
 19 18  2  0
  1 21  1  6
  2 22  1  0
  2 23  1  0
  3 24  1  0
  3 25  1  0
  4 26  1  0
  4 27  1  0
  5 28  1  1
  6 29  1  0
  7 30  1  0
  8 31  1  0
 13 32  1  0
 14 33  1  0
 16 34  1  0
 17 35  1  0
 18 36  1  0
M  ISO  8  21  13  22  13  23  13  24  13  25  13  26  13  27  13  28  13
M  ISO  8  29  14  30  14  31  14  32  14  33  14  34  14  35  14  36  11
M  END
>  <minimizedAffinity>  (1) 
-4.57051945

>  <minimizedRMSD>  (1) 
1.09028101

$$$$
