
     RDKit          3D

 34 37  0  0  0  0  0  0  0  0999 V2000
   37.8210   24.7610   33.2390 C   0  0  0  0  0  0  0  0  0  0  0  0
   38.1990   25.2630   34.5010 C   0  0  0  0  0  0  0  0  0  0  0  0
   38.3110   26.6280   34.6410 C   0  0  0  0  0  0  0  0  0  0  0  0
   38.0570   27.4360   33.5750 N   0  0  0  0  0  0  0  0  0  0  0  0
   37.6950   26.9310   32.3730 C   0  0  0  0  0  0  0  0  0  0  0  0
   37.5770   25.5970   32.2080 N   0  0  0  0  0  0  0  0  0  0  0  0
   38.4490   24.3920   35.5510 N   0  0  0  0  0  0  0  0  0  0  0  0
   37.5330   23.9200   36.4300 C   0  0  0  0  0  0  0  0  0  0  0  0
   38.0880   23.0890   37.3250 N   0  0  0  0  0  0  0  0  0  0  0  0
   39.4040   23.0220   37.0140 C   0  0  0  0  0  0  0  0  0  0  0  0
   40.4810   22.3530   37.5440 C   0  0  0  0  0  0  0  0  0  0  0  0
   41.7310   22.4370   37.0620 N   0  0  0  0  0  0  0  0  0  0  0  0
   41.8870   23.2420   35.9910 C   0  0  0  0  0  0  0  0  0  0  0  0
   40.8320   23.8840   35.4860 N   0  0  0  0  0  0  0  0  0  0  0  0
   39.5940   23.8330   35.9220 C   0  0  0  0  0  0  0  0  0  0  0  0
   36.9470   20.6860   32.3290 C   0  0  0  0  0  0  0  0  0  0  0  0
   36.0180   21.6820   32.2480 C   0  0  0  0  0  0  0  0  0  0  0  0
   36.3770   22.9840   32.5600 C   0  0  0  0  0  0  0  0  0  0  0  0
   37.6720   23.3360   32.9600 C   0  0  0  0  0  0  0  0  0  0  0  0
   38.5830   22.3090   33.0300 C   0  0  0  0  0  0  0  0  0  0  0  0
   38.2160   21.0340   32.7210 C   0  0  0  0  0  0  0  0  0  0  0  0
   36.5550   19.0310   31.9500 S   0  0  0  0  0  0  0  0  0  0  0  0
   36.2290   18.8380   30.5050 O   0  0  0  0  0  0  0  0  0  0  0  0
   35.3610   18.5760   32.7630 O   0  0  0  0  0  0  0  0  0  0  0  0
   38.6038   27.0631   35.6079 H   0  0  0  0  0  0  0  0  0  0  0  0
   37.4967   27.6086   31.5295 H   0  0  0  0  0  0  0  0  0  0  0  0
   36.4656   24.1853   36.4122 H   0  0  0  0  0  0  0  0  0  0  0  0
   40.3079   21.7081   38.4182 H   0  0  0  0  0  0  0  0  0  0  0  0
   42.8803   23.3687   35.5356 H   0  0  0  0  0  0  0  0  0  0  0  0
   34.9883   21.4527   31.9364 H   0  0  0  0  0  0  0  0  0  0  0  0
   35.6135   23.7728   32.4906 H   0  0  0  0  0  0  0  0  0  0  0  0
   39.6179   22.5186   33.3384 H   0  0  0  0  0  0  0  0  0  0  0  0
   38.9761   20.2418   32.7891 H   0  0  0  0  0  0  0  0  0  0  0  0
   37.6673   18.2908   32.2531 H   0  0  0  0  0  0  0  0  0  0  0  0
  1  2  1  0
  2  3  2  0
  2  7  1  0
  4  3  1  0
  5  4  2  0
  6  5  1  0
  6  1  2  0
  7 15  1  0
  7  8  1  0
  8  9  2  0
 10  9  1  0
 10 11  2  0
 12 11  1  0
 13 12  2  0
 14 15  2  0
 14 13  1  0
 15 10  1  0
 16 21  2  0
 17 16  1  0
 17 18  2  0
 18 19  1  0
 19 20  2  0
 19  1  1  0
 21 20  1  0
 22 16  1  0
 22 24  2  0
 23 22  2  0
  3 25  1  0
  5 26  1  0
  8 27  1  0
 11 28  1  0
 13 29  1  0
 17 30  1  0
 18 31  1  0
 20 32  1  0
 21 33  1  0
 22 34  1  0
M  ISO  8  25  14  26  14  27  14  28  14  29  14  30  14  31  14  32  14
M  ISO  2  33  14  34  11
M  END
>  <minimizedAffinity>  (1) 
-4.97331524

>  <minimizedRMSD>  (1) 
1.18672752

$$$$
