
     RDKit          3D

 27 28  0  0  0  0  0  0  0  0999 V2000
   38.5510   22.4730   34.4000 C   0  0  0  0  0  0  0  0  0  0  0  0
   40.0250   22.5080   37.7480 C   0  0  0  0  0  0  0  0  0  0  0  0
   39.2450   23.4360   38.4580 C   0  0  0  0  0  0  0  0  0  0  0  0
   38.1930   24.0540   37.7630 C   0  0  0  0  0  0  0  0  0  0  0  0
   37.9820   23.7320   36.4510 N   0  0  0  0  0  0  0  0  0  0  0  0
   38.7650   22.8350   35.8230 C   0  0  0  0  0  0  0  0  0  0  0  0
   39.7850   22.2190   36.4540 N   0  0  0  0  0  0  0  0  0  0  0  0
   37.3640   21.6590   34.2310 N   0  0  0  0  0  0  0  0  0  0  0  0
   36.6490   21.9540   33.0310 C   0  0  0  0  0  0  0  0  0  0  0  0
   35.4600   21.0260   32.9330 C   0  0  0  0  0  0  0  0  0  0  0  0
   35.5380   19.9750   33.9370 N   0  0  0  0  0  0  0  0  0  0  0  0
   35.5790   20.4830   35.2790 C   0  0  0  0  0  0  0  0  0  0  0  0
   36.5240   21.6680   35.3900 C   0  0  0  0  0  0  0  0  0  0  0  0
   38.4393   23.3945   33.8098 H   0  0  0  0  0  0  0  0  0  0  0  0
   39.4196   21.8912   34.0578 H   0  0  0  0  0  0  0  0  0  0  0  0
   40.8554   22.0029   38.2632 H   0  0  0  0  0  0  0  0  0  0  0  0
   39.4497   23.6686   39.5135 H   0  0  0  0  0  0  0  0  0  0  0  0
   37.5470   24.7876   38.2675 H   0  0  0  0  0  0  0  0  0  0  0  0
   36.3026   22.9978   33.0539 H   0  0  0  0  0  0  0  0  0  0  0  0
   37.3059   21.8137   32.1599 H   0  0  0  0  0  0  0  0  0  0  0  0
   34.5375   21.6048   33.0882 H   0  0  0  0  0  0  0  0  0  0  0  0
   35.4582   20.5608   31.9362 H   0  0  0  0  0  0  0  0  0  0  0  0
   34.7117   19.3676   33.8411 H   0  0  0  0  0  0  0  0  0  0  0  0
   34.5680   20.8016   35.5730 H   0  0  0  0  0  0  0  0  0  0  0  0
   35.9426   19.6845   35.9425 H   0  0  0  0  0  0  0  0  0  0  0  0
   37.1370   21.5756   36.2987 H   0  0  0  0  0  0  0  0  0  0  0  0
   35.9587   22.6097   35.4513 H   0  0  0  0  0  0  0  0  0  0  0  0
  1  6  1  0
  2  3  2  0
  4  3  1  0
  5  4  2  0
  6  5  1  0
  6  7  2  0
  7  2  1  0
  8  1  1  0
  8 13  1  0
  9  8  1  0
 10  9  1  0
 10 11  1  0
 11 12  1  0
 12 13  1  0
  1 14  1  0
  1 15  1  0
  2 16  1  0
  3 17  1  0
  4 18  1  0
  9 19  1  0
  9 20  1  0
 10 21  1  0
 10 22  1  0
 11 23  1  0
 12 24  1  0
 12 25  1  0
 13 26  1  0
 13 27  1  0
M  ISO  8  14   8  15   8  16  14  17  14  18  14  19  13  20  13  21  13
M  ISO  6  22  13  23   5  24  13  25  13  26  13  27  13
M  END
>  <minimizedAffinity>  (1) 
-3.35511017

>  <minimizedRMSD>  (1) 
1.4200455

$$$$
