
     RDKit          3D

 37 41  0  0  0  0  0  0  0  0999 V2000
   39.7160   22.8110   37.9450 C   0  0  0  0  0  0  0  0  0  0  0  0
   38.8220   23.5930   38.7000 C   0  0  0  0  0  0  0  0  0  0  0  0
   37.8370   24.3050   38.0200 C   0  0  0  0  0  0  0  0  0  0  0  0
   37.8100   24.1910   36.6520 N   0  0  0  0  0  0  0  0  0  0  0  0
   38.6720   23.4400   35.9610 C   0  0  0  0  0  0  0  0  0  0  0  0
   39.6190   22.7550   36.6130 N   0  0  0  0  0  0  0  0  0  0  0  0
   38.5190   23.4200   34.5390 N   0  0  0  0  0  0  0  0  0  0  0  0
   38.8630   22.3560   33.7690 C   0  0  0  0  0  0  0  0  0  0  0  0
   38.6060   22.6300   32.4760 N   0  0  0  0  0  0  0  0  0  0  0  0
   38.0860   23.8850   32.3820 C   0  0  0  0  0  0  0  0  0  0  0  0
   37.6320   24.7250   31.3720 C   0  0  0  0  0  0  0  0  0  0  0  0
   37.1700   25.9430   31.6560 N   0  0  0  0  0  0  0  0  0  0  0  0
   37.1460   26.3560   32.9260 C   0  0  0  0  0  0  0  0  0  0  0  0
   37.5750   25.5820   33.9410 N   0  0  0  0  0  0  0  0  0  0  0  0
   38.0460   24.3510   33.6890 C   0  0  0  0  0  0  0  0  0  0  0  0
   37.7350   24.1110   30.0850 N   0  0  0  0  0  0  0  0  0  0  0  0
   36.6460   27.6860   33.2610 C   0  0  0  0  0  0  0  0  0  0  0  0
   36.2430   28.1640   34.5130 C   0  0  0  0  0  0  0  0  0  0  0  0
   35.8530   29.4430   34.3650 N   0  0  0  0  0  0  0  0  0  0  0  0
   35.9780   29.8340   33.0760 C   0  0  0  0  0  0  0  0  0  0  0  0
   35.7070   31.0450   32.4380 C   0  0  0  0  0  0  0  0  0  0  0  0
   35.9540   31.1120   31.0730 C   0  0  0  0  0  0  0  0  0  0  0  0
   36.4470   30.0340   30.3570 C   0  0  0  0  0  0  0  0  0  0  0  0
   36.6910   28.8720   31.0510 C   0  0  0  0  0  0  0  0  0  0  0  0
   36.4740   28.7350   32.3840 C   0  0  0  0  0  0  0  0  0  0  0  0
   40.5039   22.2391   38.4571 H   0  0  0  0  0  0  0  0  0  0  0  0
   38.8991   23.6405   39.7963 H   0  0  0  0  0  0  0  0  0  0  0  0
   37.1106   24.9328   38.5568 H   0  0  0  0  0  0  0  0  0  0  0  0
   39.2873   21.4131   34.1445 H   0  0  0  0  0  0  0  0  0  0  0  0
   38.1125   23.1566   29.9985 H   0  0  0  0  0  0  0  0  0  0  0  0
   37.4317   24.6231   29.2443 H   0  0  0  0  0  0  0  0  0  0  0  0
   36.2448   27.5937   35.4536 H   0  0  0  0  0  0  0  0  0  0  0  0
   35.5069   30.0420   35.1281 H   0  0  0  0  0  0  0  0  0  0  0  0
   35.3144   31.9100   32.9927 H   0  0  0  0  0  0  0  0  0  0  0  0
   35.7510   32.0539   30.5422 H   0  0  0  0  0  0  0  0  0  0  0  0
   36.6360   30.1044   29.2756 H   0  0  0  0  0  0  0  0  0  0  0  0
   37.0831   28.0070   30.4960 H   0  0  0  0  0  0  0  0  0  0  0  0
  1  2  2  0
  3  2  1  0
  4  3  2  0
  5  6  2  0
  5  4  1  0
  6  1  1  0
  7  5  1  0
  8  7  1  0
  9  8  2  0
 10  9  1  0
 10 15  2  0
 11 12  2  0
 11 10  1  0
 12 13  1  0
 13 17  1  0
 13 14  2  0
 15 14  1  0
 15  7  1  0
 16 11  1  0
 17 18  2  0
 19 18  1  0
 20 19  1  0
 21 20  2  0
 22 21  1  0
 23 24  1  0
 23 22  2  0
 24 25  2  0
 25 20  1  0
 25 17  1  0
  1 26  1  0
  2 27  1  0
  3 28  1  0
  8 29  1  0
 16 30  1  0
 16 31  1  0
 18 32  1  0
 19 33  1  0
 21 34  1  0
 22 35  1  0
 23 36  1  0
 24 37  1  0
M  ISO  8  26  14  27  14  28  14  29  14  32  14  33   9  34  14  35  14
M  ISO  2  36  14  37  14
M  END
>  <minimizedAffinity>  (1) 
-6.58257437

>  <minimizedRMSD>  (1) 
1.98883617

$$$$
