
     RDKit          3D

 38 42  0  0  1  0  0  0  0  0999 V2000
   37.4140   21.6860   33.8710 C   0  0  1  0  0  0  0  0  0  0  0  0
   36.3060   21.1680   34.6760 C   0  0  0  0  0  0  0  0  0  0  0  0
   36.1200   21.2880   33.1720 C   0  0  2  0  0  0  0  0  0  0  0  0
   36.0440   19.9940   32.4560 C   0  0  0  0  0  0  0  0  0  0  0  0
   35.3300   18.8570   32.8040 C   0  0  0  0  0  0  0  0  0  0  0  0
   35.5260   17.8790   31.8800 N   0  0  0  0  0  0  0  0  0  0  0  0
   36.3520   18.3250   30.9180 C   0  0  0  0  0  0  0  0  0  0  0  0
   36.8760   17.7620   29.7640 C   0  0  0  0  0  0  0  0  0  0  0  0
   37.7230   18.4740   28.9410 C   0  0  0  0  0  0  0  0  0  0  0  0
   38.0490   19.7660   29.2780 C   0  0  0  0  0  0  0  0  0  0  0  0
   37.5250   20.3110   30.4200 C   0  0  0  0  0  0  0  0  0  0  0  0
   36.6650   19.6260   31.2790 C   0  0  0  0  0  0  0  0  0  0  0  0
   38.1310   23.9960   34.6160 C   0  0  0  0  0  0  0  0  0  0  0  0
   38.2370   25.2640   34.0510 C   0  0  0  0  0  0  0  0  0  0  0  0
   37.8170   25.0750   32.7670 N   0  0  0  0  0  0  0  0  0  0  0  0
   37.5010   23.8080   32.6200 C   0  0  0  0  0  0  0  0  0  0  0  0
   37.6820   23.1000   33.7480 N   0  0  0  0  0  0  0  0  0  0  0  0
   38.4720   23.6790   35.9990 C   0  0  0  0  0  0  0  0  0  0  0  0
   39.7100   23.0800   36.2920 C   0  0  0  0  0  0  0  0  0  0  0  0
   40.0010   22.7910   37.6440 C   0  0  0  0  0  0  0  0  0  0  0  0
   39.0660   23.1100   38.5650 N   0  0  0  0  0  0  0  0  0  0  0  0
   37.8810   23.6880   38.2520 C   0  0  0  0  0  0  0  0  0  0  0  0
   37.5930   23.9680   36.9710 N   0  0  0  0  0  0  0  0  0  0  0  0
   38.4796   21.4130   33.8666 H   0  0  0  0  0  0  0  0  0  0  0  0
   36.3855   20.1733   35.1389 H   0  0  0  0  0  0  0  0  0  0  0  0
   35.7525   21.5374   35.5519 H   0  0  0  0  0  0  0  0  0  0  0  0
   35.4460   21.7945   32.4655 H   0  0  0  0  0  0  0  0  0  0  0  0
   34.6967   18.7604   33.6982 H   0  0  0  0  0  0  0  0  0  0  0  0
   35.1055   16.9393   31.9123 H   0  0  0  0  0  0  0  0  0  0  0  0
   36.6109   16.7276   29.5001 H   0  0  0  0  0  0  0  0  0  0  0  0
   38.1315   18.0149   28.0287 H   0  0  0  0  0  0  0  0  0  0  0  0
   38.7226   20.3551   28.6383 H   0  0  0  0  0  0  0  0  0  0  0  0
   37.7972   21.3461   30.6740 H   0  0  0  0  0  0  0  0  0  0  0  0
   38.5779   26.1956   34.5264 H   0  0  0  0  0  0  0  0  0  0  0  0
   37.1299   23.3753   31.6792 H   0  0  0  0  0  0  0  0  0  0  0  0
   40.4291   22.8439   35.4938 H   0  0  0  0  0  0  0  0  0  0  0  0
   40.9532   22.3238   37.9356 H   0  0  0  0  0  0  0  0  0  0  0  0
   37.1572   23.9270   39.0451 H   0  0  0  0  0  0  0  0  0  0  0  0
  1  2  1  0
  3  1  1  0
  3  2  1  0
  4  5  2  0
  4  3  1  0
  6  5  1  0
  7 12  2  0
  7  6  1  0
  8  7  1  0
  9 10  1  0
  9  8  2  0
 10 11  2  0
 11 12  1  0
 12  4  1  0
 13 18  1  0
 14 13  2  0
 15 14  1  0
 16 15  2  0
 16 17  1  0
 17  1  1  0
 17 13  1  0
 18 19  2  0
 18 23  1  0
 19 20  1  0
 20 21  2  0
 22 21  1  0
 23 22  2  0
  1 24  1  6
  2 25  1  0
  2 26  1  0
  3 27  1  1
  5 28  1  0
  6 29  1  0
  8 30  1  0
  9 31  1  0
 10 32  1  0
 11 33  1  0
 14 34  1  0
 16 35  1  0
 19 36  1  0
 20 37  1  0
 22 38  1  0
M  ISO  8  24  13  25  13  26  13  27  13  28  14  29   9  30  14  31  14
M  ISO  7  32  14  33  14  34  14  35  14  36  14  37  14  38  14
M  END
>  <minimizedAffinity>  (1) 
-5.47220325

>  <minimizedRMSD>  (1) 
2.32097149

$$$$
