
     RDKit          3D

 41 45  0  0  0  0  0  0  0  0999 V2000
   37.8700   23.6976   33.5017 C   0  0  0  0  0  0  0  0  0  0  0  0
   37.4651   22.6575   32.6688 C   0  0  0  0  0  0  0  0  0  0  0  0
   37.4809   21.5653   33.4853 N   0  0  0  0  0  0  0  0  0  0  0  0
   37.8682   21.9661   34.6936 C   0  0  0  0  0  0  0  0  0  0  0  0
   38.1124   23.2722   34.7290 N   0  0  0  0  0  0  0  0  0  0  0  0
   38.0192   25.0836   33.0749 C   0  0  0  0  0  0  0  0  0  0  0  0
   39.3032   25.5822   32.7698 C   0  0  0  0  0  0  0  0  0  0  0  0
   39.3893   26.9339   32.3590 C   0  0  0  0  0  0  0  0  0  0  0  0
   38.2368   27.6514   32.2880 N   0  0  0  0  0  0  0  0  0  0  0  0
   37.0269   27.1281   32.5914 C   0  0  0  0  0  0  0  0  0  0  0  0
   36.9155   25.8528   32.9826 N   0  0  0  0  0  0  0  0  0  0  0  0
   38.5356   23.9483   35.9024 C   0  0  1  0  0  0  0  0  0  0  0  0
   38.0797   25.2266   36.3647 C   0  0  0  0  0  0  0  0  0  0  0  0
   37.5398   23.9214   37.0255 C   0  0  2  0  0  0  0  0  0  0  0  0
   38.1421   23.7673   38.4282 C   0  0  0  0  0  0  0  0  0  0  0  0
   37.5180   22.6998   39.0648 F   0  0  0  0  0  0  0  0  0  0  0  0
   39.5139   23.3458   38.3055 F   0  0  0  0  0  0  0  0  0  0  0  0
   38.1302   24.8982   39.1418 F   0  0  0  0  0  0  0  0  0  0  0  0
   37.2103   22.7606   31.6202 H   0  0  0  0  0  0  0  0  0  0  0  0
   37.9221   21.1703   35.4496 H   0  0  0  0  0  0  0  0  0  0  0  0
   40.1132   24.8963   32.8735 H   0  0  0  0  0  0  0  0  0  0  0  0
   40.3626   27.2930   32.1332 H   0  0  0  0  0  0  0  0  0  0  0  0
   36.2226   27.8322   32.4816 H   0  0  0  0  0  0  0  0  0  0  0  0
   39.6034   23.6524   36.1791 H   0  0  0  0  0  0  0  0  0  0  0  0
   38.7031   25.8541   37.0130 H   0  0  0  0  0  0  0  0  0  0  0  0
   37.4184   25.7748   35.7195 H   0  0  0  0  0  0  0  0  0  0  0  0
   36.0736   23.9621   37.0168 C   0  0  0  0  0  0  0  0  0  0  0  0
   35.7384   24.9424   36.0447 C   0  0  0  0  0  0  0  0  0  0  0  0
   34.3851   25.1510   35.9901 N   0  0  0  0  0  0  0  0  0  0  0  0
   33.8197   24.3383   36.8935 C   0  0  0  0  0  0  0  0  0  0  0  0
   32.5543   23.9898   37.3800 C   0  0  0  0  0  0  0  0  0  0  0  0
   32.3818   23.0340   38.3609 C   0  0  0  0  0  0  0  0  0  0  0  0
   33.4771   22.3712   38.9104 C   0  0  0  0  0  0  0  0  0  0  0  0
   34.7271   22.6907   38.4559 C   0  0  0  0  0  0  0  0  0  0  0  0
   34.8346   23.6443   37.4874 C   0  0  0  0  0  0  0  0  0  0  0  0
   36.1700   25.6289   35.2872 H   0  0  0  0  0  0  0  0  0  0  0  0
   33.6873   25.7314   35.4752 H   0  0  0  0  0  0  0  0  0  0  0  0
   31.7167   24.5236   36.9321 H   0  0  0  0  0  0  0  0  0  0  0  0
   31.3665   22.8056   38.7003 H   0  0  0  0  0  0  0  0  0  0  0  0
   33.2919   21.6304   39.6753 H   0  0  0  0  0  0  0  0  0  0  0  0
   35.4843   22.1063   38.9240 H   0  0  0  0  0  0  0  0  0  0  0  0
  1  5  1  0
  2  3  1  0
  2  1  2  0
  3  4  2  0
  4  5  1  0
  5 12  1  0
  6  1  1  0
  7  6  2  0
  8  7  1  0
  9  8  2  0
  9 10  1  0
 10 11  2  0
 11  6  1  0
 12 13  1  0
 12 14  1  0
 13 14  1  0
 14 15  1  1
 15 16  1  0
 15 18  1  0
 17 15  1  0
  2 19  1  0
  4 20  1  0
  7 21  1  0
  8 22  1  0
 10 23  1  0
 12 24  1  1
 13 25  1  0
 13 26  1  0
 27 28  2  0
 28 29  1  0
 29 30  1  0
 30 31  2  0
 31 32  1  0
 32 33  2  0
 33 34  1  0
 34 35  2  0
 35 27  1  0
 35 30  1  0
 28 36  1  0
 29 37  1  0
 31 38  1  0
 32 39  1  0
 33 40  1  0
 34 41  1  0
 14 27  1  0
M  ISO  8  19  14  20  14  21  14  22  14  23  14  24  13  25  13  26  13
M  END
>  <DihAtoms>  (1) 
11,13,26,27

>  <DihDeg>  (1) 
107.74341188665822

$$$$
