
     RDKit          3D

 36 39  0  0  0  0  0  0  0  0999 V2000
   37.0380   22.7970   32.6990 C   0  0  0  0  0  0  0  0  0  0  0  0
   35.8900   22.4410   32.1300 C   0  0  0  0  0  0  0  0  0  0  0  0
   35.6290   21.1770   31.7240 C   0  0  0  0  0  0  0  0  0  0  0  0
   36.6210   20.2420   31.9230 C   0  0  0  0  0  0  0  0  0  0  0  0
   37.9660   21.2320   32.7230 S   0  0  0  0  0  0  0  0  0  0  0  0
   36.4820   18.8460   31.5300 C   0  0  0  0  0  0  0  0  0  0  0  0
   36.1240   17.9140   32.4600 C   0  0  0  0  0  0  0  0  0  0  0  0
   35.9870   16.5980   32.1140 C   0  0  0  0  0  0  0  0  0  0  0  0
   36.1910   16.1160   30.8410 C   0  0  0  0  0  0  0  0  0  0  0  0
   36.5530   17.0640   29.9110 C   0  0  0  0  0  0  0  0  0  0  0  0
   36.7650   16.6180   28.6260 C   0  0  0  0  0  0  0  0  0  0  0  0
   37.1310   17.4760   27.6120 C   0  0  0  0  0  0  0  0  0  0  0  0
   37.2780   18.8270   27.9380 C   0  0  0  0  0  0  0  0  0  0  0  0
   37.0500   19.2020   29.2380 C   0  0  0  0  0  0  0  0  0  0  0  0
   36.6860   18.3870   30.2770 C   0  0  0  0  0  0  0  0  0  0  0  0
   37.5900   23.9310   33.1980 O   0  0  0  0  0  0  0  0  0  0  0  0
   38.7550   23.9240   34.0000 C   0  0  0  0  0  0  0  0  0  0  0  0
   39.7990   24.0760   33.3220 O   0  0  0  0  0  0  0  0  0  0  0  0
   39.7940   22.7620   37.2510 C   0  0  0  0  0  0  0  0  0  0  0  0
   38.8520   23.3090   38.1450 C   0  0  0  0  0  0  0  0  0  0  0  0
   37.8110   24.1200   37.5830 C   0  0  0  0  0  0  0  0  0  0  0  0
   37.7970   24.3060   36.2500 N   0  0  0  0  0  0  0  0  0  0  0  0
   38.7250   23.7570   35.4360 C   0  0  0  0  0  0  0  0  0  0  0  0
   39.7240   22.9840   35.9370 N   0  0  0  0  0  0  0  0  0  0  0  0
   35.1170   23.2096   31.9826 H   0  0  0  0  0  0  0  0  0  0  0  0
   34.6699   20.9086   31.2570 H   0  0  0  0  0  0  0  0  0  0  0  0
   35.9436   18.2246   33.4997 H   0  0  0  0  0  0  0  0  0  0  0  0
   35.6970   15.8834   32.8984 H   0  0  0  0  0  0  0  0  0  0  0  0
   36.0735   15.0525   30.5859 H   0  0  0  0  0  0  0  0  0  0  0  0
   36.6389   15.5483   28.4029 H   0  0  0  0  0  0  0  0  0  0  0  0
   37.3006   17.1125   26.5877 H   0  0  0  0  0  0  0  0  0  0  0  0
   37.5673   19.5663   27.1766 H   0  0  0  0  0  0  0  0  0  0  0  0
   37.1725   20.2702   29.4704 H   0  0  0  0  0  0  0  0  0  0  0  0
   40.6077   22.1361   37.6463 H   0  0  0  0  0  0  0  0  0  0  0  0
   38.9124   23.1221   39.2273 H   0  0  0  0  0  0  0  0  0  0  0  0
   37.0440   24.5781   38.2247 H   0  0  0  0  0  0  0  0  0  0  0  0
  1  5  1  0
  1 16  1  0
  2  1  2  0
  3  4  2  0
  3  2  1  0
  4  5  1  0
  6  4  1  0
  6  7  2  0
  8  7  1  0
  9  8  2  0
 10 15  2  0
 10  9  1  0
 11 10  1  0
 12 13  1  0
 12 11  2  0
 13 14  2  0
 14 15  1  0
 15  6  1  0
 16 17  1  0
 17 23  1  0
 18 17  2  0
 19 20  2  0
 21 20  1  0
 22 21  2  0
 23 24  2  0
 23 22  1  0
 24 19  1  0
  2 25  1  0
  3 26  1  0
  7 27  1  0
  8 28  1  0
  9 29  1  0
 11 30  1  0
 12 31  1  0
 13 32  1  0
 14 33  1  0
 19 34  1  0
 20 35  1  0
 21 36  1  0
M  ISO  8  25  14  26  14  27  14  28  14  29  14  30  14  31  14  32  14
M  ISO  4  33  14  34  14  35  14  36  14
M  END
>  <minimizedAffinity>  (1) 
-5.0498786

>  <minimizedRMSD>  (1) 
2.96619654

$$$$
