
     RDKit          3D

 43 47  0  0  0  0  0  0  0  0999 V2000
   45.1630   23.8790   36.1100 C   0  0  0  0  0  0  0  0  0  0  0  0
   41.7640   22.3360   36.7370 C   0  0  0  0  0  0  0  0  0  0  0  0
   42.7560   23.2910   36.5880 C   0  0  0  0  0  0  0  0  0  0  0  0
   44.0600   22.8730   36.2840 C   0  0  0  0  0  0  0  0  0  0  0  0
   44.2870   21.5240   36.1470 N   0  0  0  0  0  0  0  0  0  0  0  0
   43.2940   20.6140   36.2990 C   0  0  0  0  0  0  0  0  0  0  0  0
   42.0550   21.0560   36.5910 N   0  0  0  0  0  0  0  0  0  0  0  0
   40.4170   22.8040   37.0540 C   0  0  0  0  0  0  0  0  0  0  0  0
   39.4880   23.2350   36.1080 C   0  0  0  0  0  0  0  0  0  0  0  0
   38.3870   23.5700   36.8690 C   0  0  0  0  0  0  0  0  0  0  0  0
   38.6780   23.3380   38.2170 C   0  0  0  0  0  0  0  0  0  0  0  0
   39.9090   22.8790   38.2670 O   0  0  0  0  0  0  0  0  0  0  0  0
   45.2290   24.8030   37.2060 N   0  0  0  0  0  0  0  0  0  0  0  0
   44.2850   25.3540   37.9490 N   0  0  0  0  0  0  0  0  0  0  0  0
   44.7670   26.1500   38.8950 C   0  0  0  0  0  0  0  0  0  0  0  0
   46.1620   26.1340   38.7770 C   0  0  0  0  0  0  0  0  0  0  0  0
   46.3990   25.2730   37.6980 C   0  0  0  0  0  0  0  0  0  0  0  0
   47.8300   25.1270   37.4590 C   0  0  0  0  0  0  0  0  0  0  0  0
   48.3860   25.5460   36.2420 C   0  0  0  0  0  0  0  0  0  0  0  0
   49.7020   25.4580   35.8420 C   0  0  0  0  0  0  0  0  0  0  0  0
   50.5400   24.8880   36.7740 C   0  0  0  0  0  0  0  0  0  0  0  0
   50.1120   24.4370   38.0040 C   0  0  0  0  0  0  0  0  0  0  0  0
   50.9640   23.8470   38.9140 C   0  0  0  0  0  0  0  0  0  0  0  0
   50.5110   23.3740   40.1420 C   0  0  0  0  0  0  0  0  0  0  0  0
   49.1570   23.4970   40.4660 C   0  0  0  0  0  0  0  0  0  0  0  0
   48.3680   24.0960   39.5110 C   0  0  0  0  0  0  0  0  0  0  0  0
   48.7750   24.5750   38.2930 C   0  0  0  0  0  0  0  0  0  0  0  0
   46.1220   23.3450   36.0381 H   0  0  0  0  0  0  0  0  0  0  0  0
   44.9563   24.4533   35.1949 H   0  0  0  0  0  0  0  0  0  0  0  0
   42.5250   24.3600   36.7061 H   0  0  0  0  0  0  0  0  0  0  0  0
   43.4951   19.5384   36.1865 H   0  0  0  0  0  0  0  0  0  0  0  0
   39.6049   23.2939   35.0158 H   0  0  0  0  0  0  0  0  0  0  0  0
   37.4343   23.9570   36.4785 H   0  0  0  0  0  0  0  0  0  0  0  0
   38.0061   23.5071   39.0714 H   0  0  0  0  0  0  0  0  0  0  0  0
   44.1805   26.7163   39.6335 H   0  0  0  0  0  0  0  0  0  0  0  0
   46.9003   26.6725   39.3894 H   0  0  0  0  0  0  0  0  0  0  0  0
   47.6894   25.9986   35.5210 H   0  0  0  0  0  0  0  0  0  0  0  0
   50.0529   25.8129   34.8617 H   0  0  0  0  0  0  0  0  0  0  0  0
   51.6065   24.7874   36.5239 H   0  0  0  0  0  0  0  0  0  0  0  0
   52.0302   23.7476   38.6625 H   0  0  0  0  0  0  0  0  0  0  0  0
   51.2116   22.9080   40.8505 H   0  0  0  0  0  0  0  0  0  0  0  0
   48.7486   23.1383   41.4223 H   0  0  0  0  0  0  0  0  0  0  0  0
   47.2994   24.2014   39.7499 H   0  0  0  0  0  0  0  0  0  0  0  0
  1  4  1  0
  1 13  1  0
  2  8  1  0
  3  2  2  0
  4  3  1  0
  5  4  2  0
  5  6  1  0
  6  7  2  0
  7  2  1  0
  8 12  1  0
  9 10  1  0
  9  8  2  0
 10 11  2  0
 11 12  1  0
 13 17  1  0
 13 14  1  0
 14 15  2  0
 16 15  1  0
 17 16  2  0
 18 17  1  0
 18 27  1  0
 19 18  2  0
 20 19  1  0
 20 21  2  0
 21 22  1  0
 22 27  2  0
 22 23  1  0
 23 24  2  0
 24 25  1  0
 26 25  2  0
 27 26  1  0
  1 28  1  0
  1 29  1  0
  3 30  1  0
  6 31  1  0
  9 32  1  0
 10 33  1  0
 11 34  1  0
 15 35  1  0
 16 36  1  0
 19 37  1  0
 20 38  1  0
 21 39  1  0
 23 40  1  0
 24 41  1  0
 25 42  1  0
 26 43  1  0
M  ISO  8  28   8  29   8  30  14  31  14  32  14  33  14  34  14  35  14
M  ISO  8  36  14  37  14  38  14  39  14  40  14  41  14  42  14  43  14
M  END
>  <minimizedAffinity>  (1) 
-5.79711437

>  <minimizedRMSD>  (1) 
1.58506167

$$$$
