
     RDKit          3D

 40 44  0  0  0  0  0  0  0  0999 V2000
   38.0346   23.4679   34.6222 C   0  0  0  0  0  0  0  0  0  0  0  0
   38.2658   24.5584   33.7925 C   0  0  0  0  0  0  0  0  0  0  0  0
   37.7606   24.1744   32.5893 N   0  0  0  0  0  0  0  0  0  0  0  0
   37.2770   22.9579   32.7185 C   0  0  0  0  0  0  0  0  0  0  0  0
   37.4314   22.4876   33.9729 N   0  0  0  0  0  0  0  0  0  0  0  0
   38.4022   23.3948   36.0302 C   0  0  0  0  0  0  0  0  0  0  0  0
   39.5956   22.8061   36.4199 C   0  0  0  0  0  0  0  0  0  0  0  0
   39.9056   22.7605   37.7962 C   0  0  0  0  0  0  0  0  0  0  0  0
   39.0073   23.3006   38.6551 N   0  0  0  0  0  0  0  0  0  0  0  0
   37.8477   23.8706   38.2523 C   0  0  0  0  0  0  0  0  0  0  0  0
   37.5404   23.9206   36.9461 N   0  0  0  0  0  0  0  0  0  0  0  0
   36.9930   21.1782   34.4046 C   0  0  1  0  0  0  0  0  0  0  0  0
   35.8417   20.9636   35.2548 C   0  0  0  0  0  0  0  0  0  0  0  0
   35.6722   20.7638   33.7493 C   0  0  2  0  0  0  0  0  0  0  0  0
   38.7494   25.4976   34.0820 H   0  0  0  0  0  0  0  0  0  0  0  0
   36.8290   22.5000   31.8284 H   0  0  0  0  0  0  0  0  0  0  0  0
   40.2830   22.3875   35.7003 H   0  0  0  0  0  0  0  0  0  0  0  0
   40.8314   22.3080   38.1483 H   0  0  0  0  0  0  0  0  0  0  0  0
   37.1757   24.2826   38.9892 H   0  0  0  0  0  0  0  0  0  0  0  0
   37.8108   20.4414   34.4362 H   0  0  0  0  0  0  0  0  0  0  0  0
   35.8572   20.0822   35.9349 H   0  0  0  0  0  0  0  0  0  0  0  0
   35.1888   21.7633   35.6618 H   0  0  0  0  0  0  0  0  0  0  0  0
   35.0955   21.5239   33.1930 H   0  0  0  0  0  0  0  0  0  0  0  0
   35.4847   19.3310   33.4124 C   0  0  0  0  0  0  0  0  0  0  0  0
   34.3676   19.1740   32.5843 C   0  0  0  0  0  0  0  0  0  0  0  0
   34.0256   17.9057   32.1021 C   0  0  0  0  0  0  0  0  0  0  0  0
   34.8220   16.8184   32.4679 C   0  0  0  0  0  0  0  0  0  0  0  0
   35.9178   16.9833   33.2836 C   0  0  0  0  0  0  0  0  0  0  0  0
   36.7495   15.9597   33.7011 C   0  0  0  0  0  0  0  0  0  0  0  0
   37.8341   16.2024   34.5378 C   0  0  0  0  0  0  0  0  0  0  0  0
   38.1246   17.4957   34.9897 C   0  0  0  0  0  0  0  0  0  0  0  0
   37.2968   18.5185   34.5744 C   0  0  0  0  0  0  0  0  0  0  0  0
   36.2441   18.2379   33.7525 C   0  0  0  0  0  0  0  0  0  0  0  0
   33.6808   19.9297   32.2349 H   0  0  0  0  0  0  0  0  0  0  0  0
   33.1786   17.7103   31.4596 H   0  0  0  0  0  0  0  0  0  0  0  0
   34.6338   15.7997   32.1417 H   0  0  0  0  0  0  0  0  0  0  0  0
   36.5333   14.9574   33.3576 H   0  0  0  0  0  0  0  0  0  0  0  0
   38.4257   15.3196   34.8059 H   0  0  0  0  0  0  0  0  0  0  0  0
   38.9962   17.5228   35.6316 H   0  0  0  0  0  0  0  0  0  0  0  0
   37.5489   19.4724   34.9534 H   0  0  0  0  0  0  0  0  0  0  0  0
  1  6  1  0
  2  1  2  0
  3  4  2  0
  3  2  1  0
  4  5  1  0
  5 12  1  0
  5  1  1  0
  6  7  2  0
  6 11  1  0
  7  8  1  0
  8  9  2  0
 10  9  1  0
 11 10  2  0
 12 13  1  0
 14 12  1  0
 14 13  1  0
  2 15  1  0
  4 16  1  0
  7 17  1  0
  8 18  1  0
 10 19  1  0
 12 20  1  1
 13 21  1  0
 13 22  1  0
 14 23  1  6
 24 25  2  0
 25 26  1  0
 26 27  2  0
 27 28  1  0
 28 29  2  0
 29 30  1  0
 30 31  2  0
 31 32  1  0
 32 33  2  0
 33 24  1  0
 33 28  1  0
 25 34  1  0
 26 35  1  0
 27 36  1  0
 29 37  1  0
 30 38  1  0
 31 39  1  0
 32 40  1  0
 14 24  1  0
M  ISO  8  15  14  16  14  17  14  18  14  19  14  20  13  21  13  22  13
M  ISO  1  23  13
M  END
>  <DihAtoms>  (1) 
11,13,23,24

>  <DihDeg>  (1) 
-62.76764138318441

$$$$
