
     RDKit          3D

 40 44  0  0  0  0  0  0  0  0999 V2000
   38.0346   23.4679   34.6222 C   0  0  0  0  0  0  0  0  0  0  0  0
   38.2658   24.5584   33.7925 C   0  0  0  0  0  0  0  0  0  0  0  0
   37.7606   24.1744   32.5893 N   0  0  0  0  0  0  0  0  0  0  0  0
   37.2770   22.9579   32.7185 C   0  0  0  0  0  0  0  0  0  0  0  0
   37.4314   22.4876   33.9729 N   0  0  0  0  0  0  0  0  0  0  0  0
   38.4022   23.3948   36.0302 C   0  0  0  0  0  0  0  0  0  0  0  0
   39.5956   22.8061   36.4199 C   0  0  0  0  0  0  0  0  0  0  0  0
   39.9056   22.7605   37.7962 C   0  0  0  0  0  0  0  0  0  0  0  0
   39.0073   23.3006   38.6551 N   0  0  0  0  0  0  0  0  0  0  0  0
   37.8477   23.8706   38.2523 C   0  0  0  0  0  0  0  0  0  0  0  0
   37.5404   23.9206   36.9461 N   0  0  0  0  0  0  0  0  0  0  0  0
   36.9930   21.1782   34.4046 C   0  0  1  0  0  0  0  0  0  0  0  0
   35.8417   20.9636   35.2548 C   0  0  0  0  0  0  0  0  0  0  0  0
   35.6722   20.7638   33.7493 C   0  0  2  0  0  0  0  0  0  0  0  0
   38.7494   25.4976   34.0820 H   0  0  0  0  0  0  0  0  0  0  0  0
   36.8290   22.5000   31.8284 H   0  0  0  0  0  0  0  0  0  0  0  0
   40.2830   22.3875   35.7003 H   0  0  0  0  0  0  0  0  0  0  0  0
   40.8314   22.3080   38.1483 H   0  0  0  0  0  0  0  0  0  0  0  0
   37.1757   24.2826   38.9892 H   0  0  0  0  0  0  0  0  0  0  0  0
   37.8108   20.4414   34.4362 H   0  0  0  0  0  0  0  0  0  0  0  0
   35.8572   20.0822   35.9349 H   0  0  0  0  0  0  0  0  0  0  0  0
   35.1888   21.7633   35.6618 H   0  0  0  0  0  0  0  0  0  0  0  0
   35.0955   21.5239   33.1930 H   0  0  0  0  0  0  0  0  0  0  0  0
   35.4847   19.3310   33.4124 C   0  0  0  0  0  0  0  0  0  0  0  0
   36.6420   18.6085   33.7236 C   0  0  0  0  0  0  0  0  0  0  0  0
   36.6761   17.2229   33.5306 C   0  0  0  0  0  0  0  0  0  0  0  0
   35.5364   16.5940   33.0251 C   0  0  0  0  0  0  0  0  0  0  0  0
   34.4037   17.3136   32.7213 C   0  0  0  0  0  0  0  0  0  0  0  0
   33.2400   16.7703   32.2073 C   0  0  0  0  0  0  0  0  0  0  0  0
   32.1369   17.5652   31.9129 C   0  0  0  0  0  0  0  0  0  0  0  0
   32.1643   18.9490   32.1263 C   0  0  0  0  0  0  0  0  0  0  0  0
   33.3237   19.4934   32.6392 C   0  0  0  0  0  0  0  0  0  0  0  0
   34.3827   18.6783   32.9156 C   0  0  0  0  0  0  0  0  0  0  0  0
   37.5772   18.9775   34.1163 H   0  0  0  0  0  0  0  0  0  0  0  0
   37.5337   16.6021   33.7487 H   0  0  0  0  0  0  0  0  0  0  0  0
   35.4711   15.5251   32.8437 H   0  0  0  0  0  0  0  0  0  0  0  0
   33.2091   15.7025   32.0388 H   0  0  0  0  0  0  0  0  0  0  0  0
   31.2685   17.0311   31.5107 H   0  0  0  0  0  0  0  0  0  0  0  0
   31.2336   19.4280   31.8492 H   0  0  0  0  0  0  0  0  0  0  0  0
   33.2997   20.5421   32.7687 H   0  0  0  0  0  0  0  0  0  0  0  0
  1  6  1  0
  2  1  2  0
  3  4  2  0
  3  2  1  0
  4  5  1  0
  5 12  1  0
  5  1  1  0
  6  7  2  0
  6 11  1  0
  7  8  1  0
  8  9  2  0
 10  9  1  0
 11 10  2  0
 12 13  1  0
 14 12  1  0
 14 13  1  0
  2 15  1  0
  4 16  1  0
  7 17  1  0
  8 18  1  0
 10 19  1  0
 12 20  1  1
 13 21  1  0
 13 22  1  0
 14 23  1  6
 24 25  2  0
 25 26  1  0
 26 27  2  0
 27 28  1  0
 28 29  2  0
 29 30  1  0
 30 31  2  0
 31 32  1  0
 32 33  2  0
 33 24  1  0
 33 28  1  0
 25 34  1  0
 26 35  1  0
 27 36  1  0
 29 37  1  0
 30 38  1  0
 31 39  1  0
 32 40  1  0
 14 24  1  0
M  ISO  8  15  14  16  14  17  14  18  14  19  14  20  13  21  13  22  13
M  ISO  1  23  13
M  END
>  <DihAtoms>  (1) 
11,13,23,24

>  <DihDeg>  (1) 
-62.76764138318441

$$$$
