
     RDKit          3D

 37 40  0  0  0  0  0  0  0  0999 V2000
   39.5310   23.6380   36.0520 C   0  0  0  0  0  0  0  0  0  0  0  0
   39.7970   24.8200   35.3560 C   0  0  0  0  0  0  0  0  0  0  0  0
   41.0830   25.0370   34.8390 C   0  0  0  0  0  0  0  0  0  0  0  0
   42.0040   24.0590   35.0540 N   0  0  0  0  0  0  0  0  0  0  0  0
   41.7090   22.9130   35.7410 C   0  0  0  0  0  0  0  0  0  0  0  0
   40.4800   22.7320   36.2210 N   0  0  0  0  0  0  0  0  0  0  0  0
   38.8490   25.8860   35.1110 C   0  0  0  0  0  0  0  0  0  0  0  0
   38.7010   27.0020   35.9260 C   0  0  0  0  0  0  0  0  0  0  0  0
   37.7630   27.9100   35.5480 C   0  0  0  0  0  0  0  0  0  0  0  0
   37.0270   27.6720   34.3960 C   0  0  0  0  0  0  0  0  0  0  0  0
   37.6950   26.0570   33.7950 S   0  0  0  0  0  0  0  0  0  0  0  0
   36.0070   28.3420   33.7000 C   0  0  0  0  0  0  0  0  0  0  0  0
   35.7580   28.0820   32.5160 O   0  0  0  0  0  0  0  0  0  0  0  0
   35.2080   29.3630   34.3510 N   0  0  0  0  0  0  0  0  0  0  0  0
   42.7800   21.9270   35.9100 C   0  0  0  0  0  0  0  0  0  0  0  0
   44.0130   22.3190   35.4720 C   0  0  0  0  0  0  0  0  0  0  0  0
   45.0820   20.8150   35.8400 S   0  0  0  0  0  0  0  0  0  0  0  0
   43.5620   19.9420   36.5380 C   0  0  0  0  0  0  0  0  0  0  0  0
   42.7770   20.7230   36.3990 N   0  0  0  0  0  0  0  0  0  0  0  0
   43.7580   18.5520   37.0570 C   0  0  0  0  0  0  0  0  0  0  0  0
   42.7250   17.6600   37.1730 C   0  0  0  0  0  0  0  0  0  0  0  0
   43.0260   16.3930   37.6690 C   0  0  0  0  0  0  0  0  0  0  0  0
   44.3520   16.1340   38.0060 C   0  0  0  0  0  0  0  0  0  0  0  0
   45.3780   17.0540   37.8790 C   0  0  0  0  0  0  0  0  0  0  0  0
   45.0560   18.3210   37.3790 C   0  0  0  0  0  0  0  0  0  0  0  0
   38.5260   23.4597   36.4621 H   0  0  0  0  0  0  0  0  0  0  0  0
   41.3347   25.9541   34.2862 H   0  0  0  0  0  0  0  0  0  0  0  0
   39.3114   27.1431   36.8302 H   0  0  0  0  0  0  0  0  0  0  0  0
   37.5903   28.8177   36.1449 H   0  0  0  0  0  0  0  0  0  0  0  0
   34.4635   29.8457   33.8279 H   0  0  0  0  0  0  0  0  0  0  0  0
   35.3852   29.6052   35.3363 H   0  0  0  0  0  0  0  0  0  0  0  0
   44.3078   23.2762   35.0171 H   0  0  0  0  0  0  0  0  0  0  0  0
   41.6987   17.9329   36.8861 H   0  0  0  0  0  0  0  0  0  0  0  0
   42.2460   15.6268   37.7897 H   0  0  0  0  0  0  0  0  0  0  0  0
   44.5993   15.1362   38.3975 H   0  0  0  0  0  0  0  0  0  0  0  0
   46.4101   16.7985   38.1610 H   0  0  0  0  0  0  0  0  0  0  0  0
   45.8240   19.0982   37.2521 H   0  0  0  0  0  0  0  0  0  0  0  0
  1  6  2  0
  2  1  1  0
  3  4  1  0
  3  2  2  0
  4  5  2  0
  5 15  1  0
  5  6  1  0
  7  2  1  0
  7  8  2  0
  9  8  1  0
 10  9  2  0
 11 10  1  0
 11  7  1  0
 12 14  1  0
 12 10  1  0
 13 12  2  0
 15 19  1  0
 16 17  1  0
 16 15  2  0
 17 18  1  0
 18 20  1  0
 19 18  2  0
 20 21  2  0
 20 25  1  0
 21 22  1  0
 22 23  2  0
 24 23  1  0
 25 24  2  0
  1 26  1  0
  3 27  1  0
  8 28  1  0
  9 29  1  0
 14 30  1  0
 14 31  1  0
 16 32  1  0
 21 33  1  0
 22 34  1  0
 23 35  1  0
 24 36  1  0
 25 37  1  0
M  ISO  8  26  14  27  14  28  14  29  14  32  14  33  14  34  14  35  14
M  ISO  2  36  14  37  14
M  END
>  <minimizedAffinity>  (1) 
-4.56859207

>  <minimizedRMSD>  (1) 
1.38789737

$$$$
