
     RDKit          3D

 39 41  0  0  1  0  0  0  0  0999 V2000
   38.0230   25.2860   33.3460 N   0  0  0  0  0  0  0  0  0  0  0  0
   38.7890   26.3250   32.6960 C   0  0  1  0  0  0  0  0  0  0  0  0
   37.8730   27.4950   32.3360 C   0  0  0  0  0  0  0  0  0  0  0  0
   36.5460   27.1040   32.4780 O   0  0  0  0  0  0  0  0  0  0  0  0
   36.3210   25.9370   31.7460 C   0  0  0  0  0  0  0  0  0  0  0  0
   36.9790   24.7910   32.4950 C   0  0  0  0  0  0  0  0  0  0  0  0
   37.9620   24.6730   37.0420 C   0  0  0  0  0  0  0  0  0  0  0  0
   37.6020   25.2100   35.8000 C   0  0  0  0  0  0  0  0  0  0  0  0
   38.2710   24.8300   34.6440 C   0  0  0  0  0  0  0  0  0  0  0  0
   39.2470   23.9420   34.8320 N   0  0  0  0  0  0  0  0  0  0  0  0
   39.6240   23.4100   35.9710 C   0  0  0  0  0  0  0  0  0  0  0  0
   38.9640   23.7850   37.1070 N   0  0  0  0  0  0  0  0  0  0  0  0
   40.7150   22.4400   36.0640 C   0  0  0  0  0  0  0  0  0  0  0  0
   41.3480   22.0620   34.8970 C   0  0  0  0  0  0  0  0  0  0  0  0
   42.3770   21.1430   35.0130 C   0  0  0  0  0  0  0  0  0  0  0  0
   42.7540   20.6280   36.2360 C   0  0  0  0  0  0  0  0  0  0  0  0
   42.1060   21.0170   37.4140 C   0  0  0  0  0  0  0  0  0  0  0  0
   41.0810   21.9330   37.2930 C   0  0  0  0  0  0  0  0  0  0  0  0
   39.6960   26.8770   33.6720 N   0  0  0  0  0  0  0  0  0  0  0  0
   41.0790   26.9480   33.3260 C   0  0  0  0  0  0  0  0  0  0  0  0
   41.3540   26.7200   32.0690 N   0  0  0  0  0  0  0  0  0  0  0  0
   42.0350   27.2030   34.1430 O   0  0  0  0  0  0  0  0  0  0  0  0
   39.2855   25.8991   31.8116 H   0  0  0  0  0  0  0  0  0  0  0  0
   38.0568   27.7979   31.2946 H   0  0  0  0  0  0  0  0  0  0  0  0
   38.0797   28.3428   33.0058 H   0  0  0  0  0  0  0  0  0  0  0  0
   35.2402   25.7540   31.6548 H   0  0  0  0  0  0  0  0  0  0  0  0
   36.7415   26.0288   30.7337 H   0  0  0  0  0  0  0  0  0  0  0  0
   36.2239   24.2774   33.1083 H   0  0  0  0  0  0  0  0  0  0  0  0
   37.4133   24.0903   31.7667 H   0  0  0  0  0  0  0  0  0  0  0  0
   37.4282   24.9766   37.9546 H   0  0  0  0  0  0  0  0  0  0  0  0
   36.7813   25.9399   35.7394 H   0  0  0  0  0  0  0  0  0  0  0  0
   41.0490   22.4716   33.9209 H   0  0  0  0  0  0  0  0  0  0  0  0
   42.9075   20.8151   34.1069 H   0  0  0  0  0  0  0  0  0  0  0  0
   43.5771   19.9000   36.2862 H   0  0  0  0  0  0  0  0  0  0  0  0
   42.4007   20.6106   38.3928 H   0  0  0  0  0  0  0  0  0  0  0  0
   40.5455   22.2652   38.1946 H   0  0  0  0  0  0  0  0  0  0  0  0
   39.3577   27.2084   34.5867 H   0  0  0  0  0  0  0  0  0  0  0  0
   42.3299   26.7530   31.7411 H   0  0  0  0  0  0  0  0  0  0  0  0
   40.5949   26.5073   31.4061 H   0  0  0  0  0  0  0  0  0  0  0  0
  1  9  1  0
  2  1  1  0
  2 19  1  0
  3  4  1  0
  3  2  1  0
  5  4  1  0
  5  6  1  0
  6  1  1  0
  7 12  2  0
  8  7  1  0
  9 10  1  0
  9  8  2  0
 10 11  2  0
 11 13  1  0
 11 12  1  0
 13 18  2  0
 14 15  2  0
 14 13  1  0
 15 16  1  0
 16 17  2  0
 18 17  1  0
 20 19  1  0
 20 22  2  0
 21 20  1  0
  2 23  1  6
  3 24  1  0
  3 25  1  0
  5 26  1  0
  5 27  1  0
  6 28  1  0
  6 29  1  0
  7 30  1  0
  8 31  1  0
 14 32  1  0
 15 33  1  0
 16 34  1  0
 17 35  1  0
 18 36  1  0
 19 37  1  0
 21 38  1  0
 21 39  1  0
M  ISO  8  23  13  24  13  25  13  26  13  27  13  28  13  29  13  30  14
M  ISO  6  31  14  32  14  33  14  34  14  35  14  36  14
M  END
>  <minimizedAffinity>  (1) 
-4.7124958

>  <minimizedRMSD>  (1) 
1.84323418

$$$$
