
     RDKit          3D

 23 24  0  0  0  0  0  0  0  0999 V2000
   36.3720   22.1750   32.0330 C   0  0  0  0  0  0  0  0  0  0  0  0
   35.5400   23.0640   31.3570 C   0  0  0  0  0  0  0  0  0  0  0  0
   35.7610   24.4330   31.5020 C   0  0  0  0  0  0  0  0  0  0  0  0
   36.7950   24.8390   32.3110 N   0  0  0  0  0  0  0  0  0  0  0  0
   37.5760   23.9460   32.9480 C   0  0  0  0  0  0  0  0  0  0  0  0
   37.3570   22.6280   32.8030 N   0  0  0  0  0  0  0  0  0  0  0  0
   36.2080   20.7310   31.9340 C   0  0  0  0  0  0  0  0  0  0  0  0
   35.5650   20.0630   32.9350 C   0  0  0  0  0  0  0  0  0  0  0  0
   35.3600   18.6850   32.9310 C   0  0  0  0  0  0  0  0  0  0  0  0
   35.8290   17.9310   31.8550 C   0  0  0  0  0  0  0  0  0  0  0  0
   36.4800   18.5870   30.8370 C   0  0  0  0  0  0  0  0  0  0  0  0
   36.6550   19.9500   30.8930 C   0  0  0  0  0  0  0  0  0  0  0  0
   34.9130   25.4470   30.8090 C   0  0  0  0  0  0  0  0  0  0  0  0
   34.7234   22.6929   30.7203 H   0  0  0  0  0  0  0  0  0  0  0  0
   38.3972   24.2970   33.5902 H   0  0  0  0  0  0  0  0  0  0  0  0
   35.1886   20.6432   33.7904 H   0  0  0  0  0  0  0  0  0  0  0  0
   34.8349   18.1976   33.7657 H   0  0  0  0  0  0  0  0  0  0  0  0
   35.6820   16.8414   31.8219 H   0  0  0  0  0  0  0  0  0  0  0  0
   36.8620   18.0200   29.9752 H   0  0  0  0  0  0  0  0  0  0  0  0
   37.1803   20.4421   30.0612 H   0  0  0  0  0  0  0  0  0  0  0  0
   34.3957   26.0655   31.5573 H   0  0  0  0  0  0  0  0  0  0  0  0
   35.5481   26.0876   30.1795 H   0  0  0  0  0  0  0  0  0  0  0  0
   34.1702   24.9352   30.1795 H   0  0  0  0  0  0  0  0  0  0  0  0
  1  6  2  0
  2  3  2  0
  2  1  1  0
  3  4  1  0
  4  5  2  0
  6  5  1  0
  7  1  1  0
  7  8  2  0
  9  8  1  0
 10  9  2  0
 11 12  2  0
 11 10  1  0
 12  7  1  0
 13  3  1  0
  2 14  1  0
  5 15  1  0
  8 16  1  0
  9 17  1  0
 10 18  1  0
 11 19  1  0
 12 20  1  0
 13 21  1  0
 13 22  1  0
 13 23  1  0
M  ISO  8  14  14  15  14  16  14  17  14  18  14  19  14  20  14  21   8
M  ISO  2  22   8  23   8
M  END
>  <minimizedAffinity>  (1) 
-4.19916105

>  <minimizedRMSD>  (1) 
8.11895084

$$$$
