
     RDKit          3D

 45 49  0  0  0  0  0  0  0  0999 V2000
   42.2670   24.2870   35.5040 C   0  0  0  0  0  0  0  0  0  0  0  0
   43.5110   24.5640   34.9570 C   0  0  0  0  0  0  0  0  0  0  0  0
   44.3390   23.5160   35.1360 N   0  0  0  0  0  0  0  0  0  0  0  0
   43.7010   22.5240   35.7880 C   0  0  0  0  0  0  0  0  0  0  0  0
   44.0720   21.2700   36.2040 C   0  0  0  0  0  0  0  0  0  0  0  0
   43.1640   20.4590   36.8630 C   0  0  0  0  0  0  0  0  0  0  0  0
   41.8730   20.9380   37.0940 C   0  0  0  0  0  0  0  0  0  0  0  0
   41.4970   22.2180   36.6690 C   0  0  0  0  0  0  0  0  0  0  0  0
   42.4330   23.0030   36.0120 C   0  0  0  0  0  0  0  0  0  0  0  0
   40.1310   22.6060   36.9950 C   0  0  0  0  0  0  0  0  0  0  0  0
   39.2190   22.2320   35.9990 C   0  0  0  0  0  0  0  0  0  0  0  0
   37.8710   22.4820   36.0910 C   0  0  0  0  0  0  0  0  0  0  0  0
   37.3580   23.1220   37.1920 C   0  0  0  0  0  0  0  0  0  0  0  0
   38.2490   23.4840   38.1620 C   0  0  0  0  0  0  0  0  0  0  0  0
   39.5980   23.2470   38.0940 C   0  0  0  0  0  0  0  0  0  0  0  0
   41.1780   25.1240   35.5060 O   0  0  0  0  0  0  0  0  0  0  0  0
   40.4640   25.5180   34.4070 C   0  0  0  0  0  0  0  0  0  0  0  0
   40.7150   26.7970   33.9090 C   0  0  0  0  0  0  0  0  0  0  0  0
   39.9790   27.2040   32.7760 C   0  0  0  0  0  0  0  0  0  0  0  0
   39.0830   26.3560   32.2330 N   0  0  0  0  0  0  0  0  0  0  0  0
   38.8760   25.1170   32.7570 C   0  0  0  0  0  0  0  0  0  0  0  0
   39.5560   24.7130   33.8220 N   0  0  0  0  0  0  0  0  0  0  0  0
   37.9490   24.1640   32.2410 N   0  0  0  0  0  0  0  0  0  0  0  0
   38.3550   22.8980   31.9370 C   0  0  0  0  0  0  0  0  0  0  0  0
   37.3950   22.0170   31.4380 C   0  0  0  0  0  0  0  0  0  0  0  0
   36.0790   22.3930   31.2510 C   0  0  0  0  0  0  0  0  0  0  0  0
   35.2130   21.5960   30.7990 O   0  0  0  0  0  0  0  0  0  0  0  0
   35.7250   23.6630   31.5690 N   0  0  0  0  0  0  0  0  0  0  0  0
   36.6540   24.5160   32.0520 C   0  0  0  0  0  0  0  0  0  0  0  0
   36.3430   25.6940   32.3500 O   0  0  0  0  0  0  0  0  0  0  0  0
   43.7822   25.5022   34.4509 H   0  0  0  0  0  0  0  0  0  0  0  0
   45.3186   23.4785   34.8200 H   0  0  0  0  0  0  0  0  0  0  0  0
   45.0932   20.9084   36.0134 H   0  0  0  0  0  0  0  0  0  0  0  0
   43.4551   19.4530   37.1994 H   0  0  0  0  0  0  0  0  0  0  0  0
   41.1427   20.3023   37.6160 H   0  0  0  0  0  0  0  0  0  0  0  0
   39.5986   21.7160   35.1048 H   0  0  0  0  0  0  0  0  0  0  0  0
   37.1995   22.1678   35.2784 H   0  0  0  0  0  0  0  0  0  0  0  0
   36.2827   23.3328   37.2882 H   0  0  0  0  0  0  0  0  0  0  0  0
   37.8601   23.9978   39.0535 H   0  0  0  0  0  0  0  0  0  0  0  0
   40.2550   23.5680   38.9158 H   0  0  0  0  0  0  0  0  0  0  0  0
   41.4556   27.4602   34.3799 H   0  0  0  0  0  0  0  0  0  0  0  0
   40.1347   28.2022   32.3408 H   0  0  0  0  0  0  0  0  0  0  0  0
   39.3994   22.5835   32.0797 H   0  0  0  0  0  0  0  0  0  0  0  0
   37.6959   20.9896   31.1853 H   0  0  0  0  0  0  0  0  0  0  0  0
   34.7518   23.9756   31.4427 H   0  0  0  0  0  0  0  0  0  0  0  0
  1 16  1  0
  1  9  1  0
  2  3  1  0
  2  1  2  0
  3  4  1  0
  4  9  2  0
  4  5  1  0
  5  6  2  0
  6  7  1  0
  8 10  1  0
  8  7  2  0
  9  8  1  0
 10 15  2  0
 11 12  2  0
 11 10  1  0
 12 13  1  0
 13 14  2  0
 15 14  1  0
 17 16  1  0
 18 17  2  0
 19 18  1  0
 20 21  1  0
 20 19  2  0
 21 22  2  0
 22 17  1  0
 23 21  1  0
 24 23  1  0
 25 24  2  0
 26 25  1  0
 26 28  1  0
 27 26  2  0
 28 29  1  0
 29 23  1  0
 29 30  2  0
  2 31  1  0
  3 32  1  0
  5 33  1  0
  6 34  1  0
  7 35  1  0
 11 36  1  0
 12 37  1  0
 13 38  1  0
 14 39  1  0
 15 40  1  0
 18 41  1  0
 19 42  1  0
 24 43  1  0
 25 44  1  0
 28 45  1  0
M  ISO  8  31  14  32   9  33  14  34  14  35  14  36  14  37  14  38  14
M  ISO  7  39  14  40  14  41  14  42  14  43  14  44  14  45   9
M  END
>  <minimizedAffinity>  (1) 
-6.59841156

>  <minimizedRMSD>  (1) 
4.19959402

$$$$
