
     RDKit          3D

 40 43  0  0  0  0  0  0  0  0999 V2000
   40.6170   21.9390   37.3630 O   0  0  0  0  0  0  0  0  0  0  0  0
   41.8850   22.0480   36.8560 C   0  0  0  0  0  0  0  0  0  0  0  0
   42.4590   23.1890   36.3090 C   0  0  0  0  0  0  0  0  0  0  0  0
   43.7170   22.9460   35.9090 N   0  0  0  0  0  0  0  0  0  0  0  0
   44.0210   21.6540   36.1710 C   0  0  0  0  0  0  0  0  0  0  0  0
   45.1630   20.8890   35.9680 C   0  0  0  0  0  0  0  0  0  0  0  0
   45.1870   19.5590   36.3470 C   0  0  0  0  0  0  0  0  0  0  0  0
   44.0570   19.0090   36.9300 C   0  0  0  0  0  0  0  0  0  0  0  0
   42.9240   19.7770   37.1300 C   0  0  0  0  0  0  0  0  0  0  0  0
   42.8990   21.1070   36.7510 C   0  0  0  0  0  0  0  0  0  0  0  0
   39.6550   22.8930   37.3500 C   0  0  0  0  0  0  0  0  0  0  0  0
   39.0310   23.2010   38.5720 C   0  0  0  0  0  0  0  0  0  0  0  0
   38.0320   24.1930   38.5490 C   0  0  0  0  0  0  0  0  0  0  0  0
   37.7210   24.7990   37.3650 N   0  0  0  0  0  0  0  0  0  0  0  0
   38.3560   24.4590   36.2260 C   0  0  0  0  0  0  0  0  0  0  0  0
   39.3090   23.5220   36.2090 N   0  0  0  0  0  0  0  0  0  0  0  0
   37.9610   25.1470   35.0440 N   0  0  0  0  0  0  0  0  0  0  0  0
   38.3520   24.6180   33.7490 C   0  0  0  0  0  0  0  0  0  0  0  0
   38.4840   25.8000   32.7800 C   0  0  0  0  0  0  0  0  0  0  0  0
   39.0580   26.9860   33.5430 C   0  0  0  0  0  0  0  0  0  0  0  0
   38.1050   27.4630   34.5870 C   0  0  0  0  0  0  0  0  0  0  0  0
   37.1740   26.3680   35.0670 C   0  0  0  0  0  0  0  0  0  0  0  0
   41.9511   24.1603   36.2163 H   0  0  0  0  0  0  0  0  0  0  0  0
   44.3490   23.6325   35.4729 H   0  0  0  0  0  0  0  0  0  0  0  0
   46.0512   21.3428   35.5042 H   0  0  0  0  0  0  0  0  0  0  0  0
   46.0880   18.9483   36.1882 H   0  0  0  0  0  0  0  0  0  0  0  0
   44.0608   17.9526   37.2365 H   0  0  0  0  0  0  0  0  0  0  0  0
   42.0348   19.3259   37.5947 H   0  0  0  0  0  0  0  0  0  0  0  0
   39.3110   22.6895   39.5047 H   0  0  0  0  0  0  0  0  0  0  0  0
   37.5081   24.4767   39.4737 H   0  0  0  0  0  0  0  0  0  0  0  0
   39.3157   24.0945   33.8341 H   0  0  0  0  0  0  0  0  0  0  0  0
   37.6002   23.9033   33.3830 H   0  0  0  0  0  0  0  0  0  0  0  0
   37.4947   26.0616   32.3764 H   0  0  0  0  0  0  0  0  0  0  0  0
   39.1475   25.5314   31.9448 H   0  0  0  0  0  0  0  0  0  0  0  0
   39.9981   26.6817   34.0264 H   0  0  0  0  0  0  0  0  0  0  0  0
   39.2376   27.8059   32.8320 H   0  0  0  0  0  0  0  0  0  0  0  0
   38.6812   27.8377   35.4458 H   0  0  0  0  0  0  0  0  0  0  0  0
   37.4867   28.2545   34.1384 H   0  0  0  0  0  0  0  0  0  0  0  0
   36.3076   26.2789   34.3951 H   0  0  0  0  0  0  0  0  0  0  0  0
   36.7813   26.5798   36.0724 H   0  0  0  0  0  0  0  0  0  0  0  0
  2  1  1  0
  3  2  2  0
  4  5  1  0
  4  3  1  0
  5 10  2  0
  6  5  1  0
  6  7  2  0
  7  8  1  0
  8  9  2  0
 10  2  1  0
 10  9  1  0
 11  1  1  0
 11 12  2  0
 13 12  1  0
 14 13  2  0
 15 14  1  0
 16 15  2  0
 16 11  1  0
 17 22  1  0
 17 15  1  0
 18 17  1  0
 19 20  1  0
 19 18  1  0
 20 21  1  0
 21 22  1  0
  3 23  1  0
  4 24  1  0
  6 25  1  0
  7 26  1  0
  8 27  1  0
  9 28  1  0
 12 29  1  0
 13 30  1  0
 18 31  1  0
 18 32  1  0
 19 33  1  0
 19 34  1  0
 20 35  1  0
 20 36  1  0
 21 37  1  0
 21 38  1  0
 22 39  1  0
 22 40  1  0
M  ISO  8  23  14  24   9  25  14  26  14  27  14  28  14  29  14  30  14
M  ISO  8  31  13  32  13  33  13  34  13  35  13  36  13  37  13  38  13
M  ISO  2  39  13  40  13
M  END
>  <minimizedAffinity>  (1) 
-5.54129601

>  <minimizedRMSD>  (1) 
1.22825468

$$$$
