
     RDKit          3D

 45 49  0  0  0  0  0  0  0  0999 V2000
   36.8970   21.8810   35.7150 C   0  0  0  0  0  0  0  0  0  0  0  0
   35.8660   21.0710   35.5540 C   0  0  0  0  0  0  0  0  0  0  0  0
   35.6410   20.4150   34.3850 C   0  0  0  0  0  0  0  0  0  0  0  0
   36.5700   20.6650   33.3920 C   0  0  0  0  0  0  0  0  0  0  0  0
   37.7790   21.8510   34.1390 S   0  0  0  0  0  0  0  0  0  0  0  0
   36.6190   20.1170   32.0000 C   0  0  0  0  0  0  0  0  0  0  0  0
   35.5260   19.5140   31.3780 C   0  0  0  0  0  0  0  0  0  0  0  0
   36.0190   19.1900   30.1740 N   0  0  0  0  0  0  0  0  0  0  0  0
   37.2930   19.5430   30.0260 C   0  0  0  0  0  0  0  0  0  0  0  0
   38.1390   19.3700   28.9130 C   0  0  0  0  0  0  0  0  0  0  0  0
   39.4460   19.8390   29.0280 C   0  0  0  0  0  0  0  0  0  0  0  0
   39.8550   20.4390   30.1930 C   0  0  0  0  0  0  0  0  0  0  0  0
   38.9860   20.5860   31.2590 C   0  0  0  0  0  0  0  0  0  0  0  0
   37.7060   20.1510   31.2060 C   0  0  0  0  0  0  0  0  0  0  0  0
   37.3550   22.6490   36.7540 O   0  0  0  0  0  0  0  0  0  0  0  0
   38.3620   23.5840   36.6550 C   0  0  0  0  0  0  0  0  0  0  0  0
   39.3950   23.1810   37.2100 O   0  0  0  0  0  0  0  0  0  0  0  0
   38.2790   27.1570   36.2380 C   0  0  0  0  0  0  0  0  0  0  0  0
   37.9800   27.3640   34.8690 C   0  0  0  0  0  0  0  0  0  0  0  0
   37.8050   26.1900   34.0810 C   0  0  0  0  0  0  0  0  0  0  0  0
   37.9310   24.9790   34.6760 N   0  0  0  0  0  0  0  0  0  0  0  0
   38.2190   24.8540   35.9920 C   0  0  0  0  0  0  0  0  0  0  0  0
   38.3930   25.9570   36.7760 N   0  0  0  0  0  0  0  0  0  0  0  0
   37.5110   26.3370   32.6850 C   0  0  0  0  0  0  0  0  0  0  0  0
   36.6490   27.2120   32.3120 O   0  0  0  0  0  0  0  0  0  0  0  0
   38.0890   25.5950   31.5680 C   0  0  0  0  0  0  0  0  0  0  0  0
   37.5580   24.4250   31.1370 C   0  0  0  0  0  0  0  0  0  0  0  0
   38.0850   23.7320   30.0530 C   0  0  0  0  0  0  0  0  0  0  0  0
   39.1790   24.2300   29.3810 C   0  0  0  0  0  0  0  0  0  0  0  0
   39.6930   25.4400   29.8590 C   0  0  0  0  0  0  0  0  0  0  0  0
   39.1610   26.1050   30.9260 N   0  0  0  0  0  0  0  0  0  0  0  0
   35.1683   20.9229   36.3915 H   0  0  0  0  0  0  0  0  0  0  0  0
   34.7863   19.7379   34.2402 H   0  0  0  0  0  0  0  0  0  0  0  0
   34.5140   19.3464   31.7753 H   0  0  0  0  0  0  0  0  0  0  0  0
   35.4697   18.7180   29.4416 H   0  0  0  0  0  0  0  0  0  0  0  0
   37.7829   18.8852   27.9921 H   0  0  0  0  0  0  0  0  0  0  0  0
   40.1477   19.7288   28.1881 H   0  0  0  0  0  0  0  0  0  0  0  0
   40.8877   20.8078   30.2799 H   0  0  0  0  0  0  0  0  0  0  0  0
   39.3466   21.0714   32.1779 H   0  0  0  0  0  0  0  0  0  0  0  0
   38.4228   28.0368   36.8825 H   0  0  0  0  0  0  0  0  0  0  0  0
   37.8883   28.3724   34.4393 H   0  0  0  0  0  0  0  0  0  0  0  0
   36.6836   24.0111   31.6606 H   0  0  0  0  0  0  0  0  0  0  0  0
   37.6275   22.7847   29.7317 H   0  0  0  0  0  0  0  0  0  0  0  0
   39.6220   23.7077   28.5202 H   0  0  0  0  0  0  0  0  0  0  0  0
   40.5663   25.8759   29.3517 H   0  0  0  0  0  0  0  0  0  0  0  0
  1 15  1  0
  2  1  2  0
  3  2  1  0
  4  5  1  0
  4  3  2  0
  5  1  1  0
  6  4  1  0
  7  6  2  0
  8  7  1  0
  9  8  1  0
  9 14  2  0
 10 11  2  0
 10  9  1  0
 11 12  1  0
 12 13  2  0
 14 13  1  0
 14  6  1  0
 16 15  1  0
 16 17  2  0
 18 23  2  0
 19 18  1  0
 20 21  1  0
 20 19  2  0
 21 22  2  0
 22 16  1  0
 22 23  1  0
 24 20  1  0
 25 24  2  0
 26 24  1  0
 27 26  2  0
 28 27  1  0
 29 30  1  0
 29 28  2  0
 30 31  2  0
 31 26  1  0
  2 32  1  0
  3 33  1  0
  7 34  1  0
  8 35  1  0
 10 36  1  0
 11 37  1  0
 12 38  1  0
 13 39  1  0
 18 40  1  0
 19 41  1  0
 27 42  1  0
 28 43  1  0
 29 44  1  0
 30 45  1  0
M  ISO  8  32  14  33  14  34  14  35   9  36  14  37  14  38  14  39  14
M  ISO  6  40  14  41  14  42  14  43  14  44  14  45  14
M  END
>  <minimizedAffinity>  (1) 
-5.58312702

>  <minimizedRMSD>  (1) 
0.766957462

$$$$
