
     RDKit          3D

 39 42  0  0  0  0  0  0  0  0999 V2000
   38.0313   23.4698   34.6219 C   0  0  0  0  0  0  0  0  0  0  0  0
   38.2638   24.5675   33.7930 C   0  0  0  0  0  0  0  0  0  0  0  0
   37.7640   24.1776   32.5870 N   0  0  0  0  0  0  0  0  0  0  0  0
   37.2811   22.9497   32.7126 C   0  0  0  0  0  0  0  0  0  0  0  0
   37.4321   22.4818   33.9657 N   0  0  0  0  0  0  0  0  0  0  0  0
   38.3931   23.3993   36.0302 C   0  0  0  0  0  0  0  0  0  0  0  0
   39.5919   22.8052   36.4264 C   0  0  0  0  0  0  0  0  0  0  0  0
   39.8991   22.7602   37.7971 C   0  0  0  0  0  0  0  0  0  0  0  0
   39.0123   23.2971   38.6567 N   0  0  0  0  0  0  0  0  0  0  0  0
   37.8585   23.8671   38.2544 C   0  0  0  0  0  0  0  0  0  0  0  0
   37.5386   23.9241   36.9468 N   0  0  0  0  0  0  0  0  0  0  0  0
   36.9984   21.1752   34.3878 C   0  0  1  0  0  0  0  0  0  0  0  0
   35.8340   20.9638   35.2539 C   0  0  0  0  0  0  0  0  0  0  0  0
   35.6769   20.7665   33.7705 C   0  0  2  0  0  0  0  0  0  0  0  0
   38.7388   25.5073   34.0758 H   0  0  0  0  0  0  0  0  0  0  0  0
   36.8478   22.5131   31.8168 H   0  0  0  0  0  0  0  0  0  0  0  0
   40.2781   22.3835   35.6871 H   0  0  0  0  0  0  0  0  0  0  0  0
   40.8209   22.3072   38.1473 H   0  0  0  0  0  0  0  0  0  0  0  0
   37.2256   24.2653   39.0454 H   0  0  0  0  0  0  0  0  0  0  0  0
   37.8054   20.4056   34.3934 H   0  0  0  0  0  0  0  0  0  0  0  0
   35.8514   20.0929   35.9412 H   0  0  0  0  0  0  0  0  0  0  0  0
   35.2853   21.8192   35.7148 H   0  0  0  0  0  0  0  0  0  0  0  0
   35.0560   21.5419   33.2492 H   0  0  0  0  0  0  0  0  0  0  0  0
   35.5766   19.4847   33.2039 N   0  0  0  0  0  0  0  0  0  0  0  0
   36.0982   18.3920   33.9157 C   0  0  0  0  0  0  0  0  0  0  0  0
   36.4054   17.1936   33.0824 C   0  0  0  0  0  0  0  0  0  0  0  0
   35.4514   16.9755   31.9439 C   0  0  0  0  0  0  0  0  0  0  0  0
   35.8175   16.1583   31.3163 H   0  0  0  0  0  0  0  0  0  0  0  0
   35.2776   18.2637   31.1844 C   0  0  0  0  0  0  0  0  0  0  0  0
   34.6656   19.2627   32.1723 C   0  0  0  0  0  0  0  0  0  0  0  0
   35.4438   18.0931   34.7555 H   0  0  0  0  0  0  0  0  0  0  0  0
   37.0637   18.7198   34.3995 H   0  0  0  0  0  0  0  0  0  0  0  0
   36.4074   16.2553   33.7088 H   0  0  0  0  0  0  0  0  0  0  0  0
   37.4352   17.2571   32.6761 H   0  0  0  0  0  0  0  0  0  0  0  0
   34.4462   16.6898   32.3238 H   0  0  0  0  0  0  0  0  0  0  0  0
   36.2879   18.6491   30.9428 H   0  0  0  0  0  0  0  0  0  0  0  0
   34.6530   18.0908   30.3029 H   0  0  0  0  0  0  0  0  0  0  0  0
   34.4419   20.2266   31.6728 H   0  0  0  0  0  0  0  0  0  0  0  0
   33.7201   18.8372   32.5673 H   0  0  0  0  0  0  0  0  0  0  0  0
  1  6  1  0
  2  1  2  0
  3  4  2  0
  3  2  1  0
  4  5  1  0
  5 12  1  0
  5  1  1  0
  6  7  2  0
  6 11  1  0
  7  8  1  0
  8  9  2  0
 10  9  1  0
 11 10  2  0
 12 13  1  0
 14 12  1  0
 14 13  1  0
  2 15  1  0
  4 16  1  0
  7 17  1  0
  8 18  1  0
 10 19  1  0
 12 20  1  1
 13 21  1  0
 13 22  1  0
 14 23  1  6
 24 25  1  0
 25 26  1  0
 26 27  1  0
 27 28  1  0
 27 29  1  0
 29 30  1  0
 30 24  1  0
 25 31  1  0
 25 32  1  0
 26 33  1  0
 26 34  1  0
 27 35  1  0
 29 36  1  0
 29 37  1  0
 30 38  1  0
 30 39  1  0
 14 24  1  0
M  ISO  8  15  14  16  14  17  14  18  14  19  14  20  13  21  13  22  13
M  ISO  2  23  13  28  15
M  END
>  <DihAtoms>  (1) 
11,13,23,24

>  <DihDeg>  (1) 
60.000500236298905

$$$$
