
     RDKit          3D

 39 42  0  0  0  0  0  0  0  0999 V2000
   39.7880   23.0280   35.5370 C   0  0  0  0  0  0  0  0  0  0  0  0
   39.5010   24.3720   35.3090 C   0  0  0  0  0  0  0  0  0  0  0  0
   38.4440   24.6980   34.4670 C   0  0  0  0  0  0  0  0  0  0  0  0
   37.7480   23.6520   33.9120 N   0  0  0  0  0  0  0  0  0  0  0  0
   38.0570   22.3680   34.1570 C   0  0  0  0  0  0  0  0  0  0  0  0
   39.0680   22.0410   34.9620 N   0  0  0  0  0  0  0  0  0  0  0  0
   37.2450   21.3870   33.5100 N   0  0  0  0  0  0  0  0  0  0  0  0
   36.1540   21.1160   34.1500 N   0  0  0  0  0  0  0  0  0  0  0  0
   35.4570   20.1710   33.4470 C   0  0  0  0  0  0  0  0  0  0  0  0
   36.1760   19.8720   32.3360 C   0  0  0  0  0  0  0  0  0  0  0  0
   37.3010   20.6470   32.3900 C   0  0  0  0  0  0  0  0  0  0  0  0
   40.8740   22.6940   36.4010 N   0  0  0  0  0  0  0  0  0  0  0  0
   38.4890   20.8400   31.5430 C   0  0  0  0  0  0  0  0  0  0  0  0
   39.7230   20.3610   31.6000 N   0  0  0  0  0  0  0  0  0  0  0  0
   40.4390   20.8230   30.6140 O   0  0  0  0  0  0  0  0  0  0  0  0
   39.6410   21.6090   29.9230 C   0  0  0  0  0  0  0  0  0  0  0  0
   38.3990   21.6640   30.4530 N   0  0  0  0  0  0  0  0  0  0  0  0
   39.9790   22.3410   28.7500 N   0  0  0  0  0  0  0  0  0  0  0  0
   39.6380   23.7090   28.4910 C   0  0  0  0  0  0  0  0  0  0  0  0
   39.6070   24.1010   27.0690 C   0  0  0  0  0  0  0  0  0  0  0  0
   39.3910   23.0370   26.0590 C   0  0  0  0  0  0  0  0  0  0  0  0
   39.6970   21.6330   26.5370 C   0  0  0  0  0  0  0  0  0  0  0  0
   40.7300   21.7890   27.6350 C   0  0  0  0  0  0  0  0  0  0  0  0
   40.1001   25.1612   35.7867 H   0  0  0  0  0  0  0  0  0  0  0  0
   38.1776   25.7440   34.2553 H   0  0  0  0  0  0  0  0  0  0  0  0
   34.4888   19.7330   33.7313 H   0  0  0  0  0  0  0  0  0  0  0  0
   35.9077   19.1510   31.5498 H   0  0  0  0  0  0  0  0  0  0  0  0
   41.1026   21.7063   36.5826 H   0  0  0  0  0  0  0  0  0  0  0  0
   41.4290   23.4407   36.8428 H   0  0  0  0  0  0  0  0  0  0  0  0
   38.6402   23.8950   28.9149 H   0  0  0  0  0  0  0  0  0  0  0  0
   40.4363   24.3099   28.9510 H   0  0  0  0  0  0  0  0  0  0  0  0
   38.7965   24.8351   26.9495 H   0  0  0  0  0  0  0  0  0  0  0  0
   40.6217   24.4731   26.8640 H   0  0  0  0  0  0  0  0  0  0  0  0
   40.0353   23.2514   25.1936 H   0  0  0  0  0  0  0  0  0  0  0  0
   38.3180   23.0539   25.8176 H   0  0  0  0  0  0  0  0  0  0  0  0
   38.7878   21.1554   26.9310 H   0  0  0  0  0  0  0  0  0  0  0  0
   40.0671   20.9975   25.7190 H   0  0  0  0  0  0  0  0  0  0  0  0
   41.1668   20.8153   27.9019 H   0  0  0  0  0  0  0  0  0  0  0  0
   41.5729   22.4288   27.3348 H   0  0  0  0  0  0  0  0  0  0  0  0
  1 12  1  0
  2  1  2  0
  3  2  1  0
  4  5  1  0
  4  3  2  0
  5  6  2  0
  6  1  1  0
  7  8  1  0
  7  5  1  0
  9  8  2  0
 10 11  2  0
 10  9  1  0
 11  7  1  0
 13 14  2  0
 13 11  1  0
 15 14  1  0
 16 17  2  0
 16 15  1  0
 17 13  1  0
 18 16  1  0
 19 18  1  0
 20 19  1  0
 21 22  1  0
 21 20  1  0
 22 23  1  0
 23 18  1  0
  2 24  1  0
  3 25  1  0
  9 26  1  0
 10 27  1  0
 12 28  1  0
 12 29  1  0
 19 30  1  0
 19 31  1  0
 20 32  1  0
 20 33  1  0
 21 34  1  0
 21 35  1  0
 22 36  1  0
 22 37  1  0
 23 38  1  0
 23 39  1  0
M  ISO  8  24  14  25  14  26  14  27  14  30  13  31  13  32  13  33  13
M  ISO  6  34  13  35  13  36  13  37  13  38  13  39  13
M  END
>  <minimizedAffinity>  (1) 
-4.26748228

>  <minimizedRMSD>  (1) 
5.69146681

$$$$
