
     RDKit          3D

 39 42  0  0  1  0  0  0  0  0999 V2000
   38.1080   23.7230   34.5090 C   0  0  0  0  0  0  0  0  0  0  0  0
   38.2960   24.9130   33.8060 C   0  0  0  0  0  0  0  0  0  0  0  0
   37.8540   24.6240   32.5500 N   0  0  0  0  0  0  0  0  0  0  0  0
   37.4440   23.3640   32.5320 C   0  0  0  0  0  0  0  0  0  0  0  0
   37.5890   22.7760   33.7350 N   0  0  0  0  0  0  0  0  0  0  0  0
   38.4350   23.5260   35.9140 C   0  0  0  0  0  0  0  0  0  0  0  0
   39.6400   22.9280   36.2850 C   0  0  0  0  0  0  0  0  0  0  0  0
   39.9120   22.7590   37.6540 C   0  0  0  0  0  0  0  0  0  0  0  0
   38.9880   23.1870   38.5360 N   0  0  0  0  0  0  0  0  0  0  0  0
   37.8290   23.7640   38.1560 C   0  0  0  0  0  0  0  0  0  0  0  0
   37.5430   23.9380   36.8520 N   0  0  0  0  0  0  0  0  0  0  0  0
   37.2250   21.4090   34.0050 C   0  0  1  0  0  0  0  0  0  0  0  0
   35.9650   21.0340   34.6530 C   0  0  0  0  0  0  0  0  0  0  0  0
   36.0670   20.9310   33.1540 C   0  0  2  0  0  0  0  0  0  0  0  0
   36.1870   19.6890   32.5090 N   0  0  0  0  0  0  0  0  0  0  0  0
   35.1740   18.7320   32.6970 C   0  0  0  0  0  0  0  0  0  0  0  0
   35.5850   17.3270   32.4150 C   0  0  0  0  0  0  0  0  0  0  0  0
   36.5640   17.1860   31.2860 C   0  0  0  0  0  0  0  0  0  0  0  0
   37.6940   18.1620   31.4810 C   0  0  0  0  0  0  0  0  0  0  0  0
   37.0650   19.5590   31.4330 C   0  0  0  0  0  0  0  0  0  0  0  0
   38.7057   25.8634   34.1788 H   0  0  0  0  0  0  0  0  0  0  0  0
   37.0354   22.8602   31.6436 H   0  0  0  0  0  0  0  0  0  0  0  0
   40.3610   22.5962   35.5234 H   0  0  0  0  0  0  0  0  0  0  0  0
   40.8485   22.2926   37.9938 H   0  0  0  0  0  0  0  0  0  0  0  0
   37.1102   24.0957   38.9197 H   0  0  0  0  0  0  0  0  0  0  0  0
   38.2616   21.1235   34.2372 H   0  0  0  0  0  0  0  0  0  0  0  0
   35.9146   20.1190   35.2615 H   0  0  0  0  0  0  0  0  0  0  0  0
   35.2749   21.5384   35.3453 H   0  0  0  0  0  0  0  0  0  0  0  0
   35.4686   21.3136   32.3141 H   0  0  0  0  0  0  0  0  0  0  0  0
   34.8397   18.7878   33.7435 H   0  0  0  0  0  0  0  0  0  0  0  0
   34.3796   18.9743   31.9757 H   0  0  0  0  0  0  0  0  0  0  0  0
   36.0455   16.9134   33.3243 H   0  0  0  0  0  0  0  0  0  0  0  0
   34.6756   16.7866   32.1135 H   0  0  0  0  0  0  0  0  0  0  0  0
   36.0576   17.3962   30.3324 H   0  0  0  0  0  0  0  0  0  0  0  0
   36.9619   16.1606   31.2698 H   0  0  0  0  0  0  0  0  0  0  0  0
   38.1784   17.9951   32.4544 H   0  0  0  0  0  0  0  0  0  0  0  0
   38.4652   18.0426   30.7058 H   0  0  0  0  0  0  0  0  0  0  0  0
   37.8533   20.3229   31.5036 H   0  0  0  0  0  0  0  0  0  0  0  0
   36.5216   19.6941   30.4862 H   0  0  0  0  0  0  0  0  0  0  0  0
  1  6  1  0
  2  1  2  0
  3  2  1  0
  4  3  2  0
  4  5  1  0
  5 12  1  0
  5  1  1  0
  6  7  2  0
  6 11  1  0
  7  8  1  0
  8  9  2  0
 10  9  1  0
 11 10  2  0
 12 13  1  0
 14 12  1  0
 14 13  1  0
 15 16  1  0
 15 14  1  0
 17 16  1  0
 18 19  1  0
 18 17  1  0
 20 19  1  0
 20 15  1  0
  2 21  1  0
  4 22  1  0
  7 23  1  0
  8 24  1  0
 10 25  1  0
 12 26  1  1
 13 27  1  0
 13 28  1  0
 14 29  1  6
 16 30  1  0
 16 31  1  0
 17 32  1  0
 17 33  1  0
 18 34  1  0
 18 35  1  0
 19 36  1  0
 19 37  1  0
 20 38  1  0
 20 39  1  0
M  ISO  8  21  14  22  14  23  14  24  14  25  14  26  13  27  13  28  13
M  ISO  8  29  13  30  13  31  13  32  13  33  13  34  13  35  13  36  13
M  ISO  3  37  13  38  13  39  13
M  END
>  <minimizedAffinity>  (1) 
-4.84908628

>  <minimizedRMSD>  (1) 
0.762441695

$$$$
