
     RDKit          3D

 25 27  0  0  0  0  0  0  0  0999 V2000
   38.1040   25.7100   35.4220 C   0  0  0  0  0  0  0  0  0  0  0  0
   37.8800   27.0450   35.7630 C   0  0  0  0  0  0  0  0  0  0  0  0
   37.3470   27.8710   34.8320 C   0  0  0  0  0  0  0  0  0  0  0  0
   37.0460   27.3360   33.5590 C   0  0  0  0  0  0  0  0  0  0  0  0
   37.5600   25.5480   33.7250 S   0  0  0  0  0  0  0  0  0  0  0  0
   38.1220   24.3390   37.5260 C   0  0  0  0  0  0  0  0  0  0  0  0
   38.6540   24.6890   36.2550 C   0  0  0  0  0  0  0  0  0  0  0  0
   39.7540   24.0170   35.7910 C   0  0  0  0  0  0  0  0  0  0  0  0
   40.2750   23.0420   36.5930 N   0  0  0  0  0  0  0  0  0  0  0  0
   39.7610   22.7220   37.7960 C   0  0  0  0  0  0  0  0  0  0  0  0
   38.6960   23.3740   38.2390 N   0  0  0  0  0  0  0  0  0  0  0  0
   36.5100   27.8480   32.3900 C   0  0  0  0  0  0  0  0  0  0  0  0
   35.3130   28.1280   32.3030 O   0  0  0  0  0  0  0  0  0  0  0  0
   37.4570   28.0210   31.3020 C   0  0  0  0  0  0  0  0  0  0  0  0
   36.6910   28.6260   30.2320 C   0  0  0  0  0  0  0  0  0  0  0  0
   37.9670   28.8440   28.8100 S   0  0  0  0  0  0  0  0  0  0  0  0
   39.2600   28.0700   29.9690 C   0  0  0  0  0  0  0  0  0  0  0  0
   38.6960   27.8560   30.9060 N   0  0  0  0  0  0  0  0  0  0  0  0
   38.1312   27.4180   36.7669 H   0  0  0  0  0  0  0  0  0  0  0  0
   37.1535   28.9295   35.0602 H   0  0  0  0  0  0  0  0  0  0  0  0
   37.2388   24.8644   37.9184 H   0  0  0  0  0  0  0  0  0  0  0  0
   40.1991   24.2529   34.8131 H   0  0  0  0  0  0  0  0  0  0  0  0
   40.2201   21.9284   38.4038 H   0  0  0  0  0  0  0  0  0  0  0  0
   35.6252   28.8980   30.2326 H   0  0  0  0  0  0  0  0  0  0  0  0
   40.3230   27.8773   29.7618 H   0  0  0  0  0  0  0  0  0  0  0  0
  1  2  2  0
  1  7  1  0
  3  2  1  0
  4  5  1  0
  4  3  2  0
  5  1  1  0
  6 11  2  0
  7  6  1  0
  8  7  2  0
  8  9  1  0
  9 10  2  0
 10 11  1  0
 12  4  1  0
 13 12  2  0
 14 12  1  0
 15 14  2  0
 16 17  1  0
 16 15  1  0
 17 18  2  0
 18 14  1  0
  2 19  1  0
  3 20  1  0
  6 21  1  0
  8 22  1  0
 10 23  1  0
 15 24  1  0
 17 25  1  0
M  ISO  7  19  14  20  14  21  14  22  14  23  14  24  14  25  14
M  END
>  <minimizedAffinity>  (1) 
-4.63332462

>  <minimizedRMSD>  (1) 
1.38407099

$$$$
