
     RDKit          3D

 38 41  0  0  0  0  0  0  0  0999 V2000
   43.6140   19.7240   37.0870 C   0  0  0  0  0  0  0  0  0  0  0  0
   42.4870   20.4910   37.3160 C   0  0  0  0  0  0  0  0  0  0  0  0
   41.9620   21.2170   36.2430 C   0  0  0  0  0  0  0  0  0  0  0  0
   42.6090   21.1080   35.0480 N   0  0  0  0  0  0  0  0  0  0  0  0
   43.6870   20.3680   34.8510 C   0  0  0  0  0  0  0  0  0  0  0  0
   44.1990   19.6610   35.8960 N   0  0  0  0  0  0  0  0  0  0  0  0
   44.3420   20.2900   33.5250 C   0  0  0  0  0  0  0  0  0  0  0  0
   45.7180   20.0110   33.3720 C   0  0  0  0  0  0  0  0  0  0  0  0
   46.1970   19.9550   32.1060 C   0  0  0  0  0  0  0  0  0  0  0  0
   45.3820   20.1620   30.9930 C   0  0  0  0  0  0  0  0  0  0  0  0
   43.7480   20.4720   31.8280 S   0  0  0  0  0  0  0  0  0  0  0  0
   45.6980   20.1210   29.7090 N   0  0  0  0  0  0  0  0  0  0  0  0
   45.4300   19.0520   28.7790 C   0  0  0  0  0  0  0  0  0  0  0  0
   45.8890   19.5370   27.4020 C   0  0  0  0  0  0  0  0  0  0  0  0
   45.3170   20.7660   27.0610 O   0  0  0  0  0  0  0  0  0  0  0  0
   45.5460   21.7640   28.0000 C   0  0  0  0  0  0  0  0  0  0  0  0
   46.4100   21.2630   29.1440 C   0  0  0  0  0  0  0  0  0  0  0  0
   40.7650   22.0520   36.3810 C   0  0  0  0  0  0  0  0  0  0  0  0
   39.9220   22.6530   35.5030 N   0  0  0  0  0  0  0  0  0  0  0  0
   39.0080   23.2950   36.1670 O   0  0  0  0  0  0  0  0  0  0  0  0
   39.2240   23.1360   37.4660 C   0  0  0  0  0  0  0  0  0  0  0  0
   40.2990   22.3760   37.5980 N   0  0  0  0  0  0  0  0  0  0  0  0
   38.4230   23.6970   38.5730 C   0  0  0  0  0  0  0  0  0  0  0  0
   39.2470   23.8810   39.6780 F   0  0  0  0  0  0  0  0  0  0  0  0
   37.3840   22.8820   38.9220 F   0  0  0  0  0  0  0  0  0  0  0  0
   37.9450   24.9540   38.2250 F   0  0  0  0  0  0  0  0  0  0  0  0
   44.0411   19.1459   37.9197 H   0  0  0  0  0  0  0  0  0  0  0  0
   42.0184   20.5288   38.3105 H   0  0  0  0  0  0  0  0  0  0  0  0
   46.3713   19.8466   34.2416 H   0  0  0  0  0  0  0  0  0  0  0  0
   47.2643   19.7391   31.9505 H   0  0  0  0  0  0  0  0  0  0  0  0
   45.9889   18.1497   29.0682 H   0  0  0  0  0  0  0  0  0  0  0  0
   44.3603   18.7958   28.7704 H   0  0  0  0  0  0  0  0  0  0  0  0
   46.9836   19.6452   27.4105 H   0  0  0  0  0  0  0  0  0  0  0  0
   45.5677   18.7948   26.6565 H   0  0  0  0  0  0  0  0  0  0  0  0
   46.0555   22.6064   27.5094 H   0  0  0  0  0  0  0  0  0  0  0  0
   44.5762   22.0798   28.4121 H   0  0  0  0  0  0  0  0  0  0  0  0
   47.3972   20.9526   28.7711 H   0  0  0  0  0  0  0  0  0  0  0  0
   46.5800   22.0470   29.8966 H   0  0  0  0  0  0  0  0  0  0  0  0
  1  2  2  0
  3 18  1  0
  3  2  1  0
  4  3  2  0
  5  4  1  0
  5  6  2  0
  6  1  1  0
  7  5  1  0
  8  7  2  0
  9  8  1  0
 10 11  1  0
 10  9  2  0
 11  7  1  0
 12 10  1  0
 13 12  1  0
 14 13  1  0
 15 14  1  0
 15 16  1  0
 16 17  1  0
 17 12  1  0
 18 22  1  0
 19 20  1  0
 19 18  2  0
 20 21  1  0
 21 22  2  0
 21 23  1  0
 23 25  1  0
 23 24  1  0
 26 23  1  0
  1 27  1  0
  2 28  1  0
  8 29  1  0
  9 30  1  0
 13 31  1  0
 13 32  1  0
 14 33  1  0
 14 34  1  0
 16 35  1  0
 16 36  1  0
 17 37  1  0
 17 38  1  0
M  ISO  8  27  14  28  14  29  14  30  14  31  13  32  13  33  13  34  13
M  ISO  4  35  13  36  13  37  13  38  13
M  END
>  <minimizedAffinity>  (1) 
-3.89068961

>  <minimizedRMSD>  (1) 
0.0142400153

$$$$
