
     RDKit          3D

 50 55  0  0  0  0  0  0  0  0999 V2000
   38.9690   24.0430   32.3470 C   0  0  0  0  0  0  0  0  0  0  0  0
   39.6020   22.8080   32.4500 C   0  0  0  0  0  0  0  0  0  0  0  0
   38.9440   21.6070   32.1800 C   0  0  0  0  0  0  0  0  0  0  0  0
   37.6090   21.6250   31.7940 C   0  0  0  0  0  0  0  0  0  0  0  0
   36.9590   22.8420   31.6850 C   0  0  0  0  0  0  0  0  0  0  0  0
   35.6440   22.8740   31.3070 C   0  0  0  0  0  0  0  0  0  0  0  0
   34.9440   24.0400   31.1760 C   0  0  0  0  0  0  0  0  0  0  0  0
   35.6330   25.2290   31.4480 C   0  0  0  0  0  0  0  0  0  0  0  0
   36.9650   25.1470   31.8280 C   0  0  0  0  0  0  0  0  0  0  0  0
   37.6560   23.9840   31.9600 C   0  0  0  0  0  0  0  0  0  0  0  0
   39.6760   25.2540   32.6490 C   0  0  0  0  0  0  0  0  0  0  0  0
   39.8040   25.7640   33.9580 C   0  0  0  0  0  0  0  0  0  0  0  0
   40.5290   26.9410   34.1310 C   0  0  0  0  0  0  0  0  0  0  0  0
   41.0880   27.5540   33.0420 N   0  0  0  0  0  0  0  0  0  0  0  0
   40.9500   27.0390   31.7990 C   0  0  0  0  0  0  0  0  0  0  0  0
   40.2650   25.9300   31.6350 N   0  0  0  0  0  0  0  0  0  0  0  0
   39.2420   25.0860   35.0240 N   0  0  0  0  0  0  0  0  0  0  0  0
   37.9880   25.2170   35.4780 C   0  0  0  0  0  0  0  0  0  0  0  0
   37.7450   24.4130   36.5360 N   0  0  0  0  0  0  0  0  0  0  0  0
   38.9020   23.7360   36.7640 C   0  0  0  0  0  0  0  0  0  0  0  0
   39.2810   22.7930   37.6770 C   0  0  0  0  0  0  0  0  0  0  0  0
   40.5150   22.2380   37.7220 N   0  0  0  0  0  0  0  0  0  0  0  0
   41.3820   22.6810   36.7800 C   0  0  0  0  0  0  0  0  0  0  0  0
   40.9980   23.6000   35.8980 N   0  0  0  0  0  0  0  0  0  0  0  0
   39.8100   24.1680   35.8180 C   0  0  0  0  0  0  0  0  0  0  0  0
   37.2710   26.5190   31.9950 N   0  0  0  0  0  0  0  0  0  0  0  0
   37.4220   27.6100   32.9160 C   0  0  0  0  0  0  0  0  0  0  0  0
   36.3900   28.7230   32.5750 C   0  0  0  0  0  0  0  0  0  0  0  0
   36.8740   29.3930   31.4610 O   0  0  0  0  0  0  0  0  0  0  0  0
   37.7380   28.6270   30.7290 C   0  0  0  0  0  0  0  0  0  0  0  0
   37.5100   27.1760   30.6800 C   0  0  0  0  0  0  0  0  0  0  0  0
   40.6584   22.7772   32.7550 H   0  0  0  0  0  0  0  0  0  0  0  0
   39.4796   20.6507   32.2723 H   0  0  0  0  0  0  0  0  0  0  0  0
   37.0772   20.6865   31.5785 H   0  0  0  0  0  0  0  0  0  0  0  0
   35.1304   21.9234   31.1005 H   0  0  0  0  0  0  0  0  0  0  0  0
   33.8872   24.0449   30.8708 H   0  0  0  0  0  0  0  0  0  0  0  0
   35.1304   26.2037   31.3624 H   0  0  0  0  0  0  0  0  0  0  0  0
   40.6513   27.3743   35.1346 H   0  0  0  0  0  0  0  0  0  0  0  0
   41.4065   27.5434   30.9346 H   0  0  0  0  0  0  0  0  0  0  0  0
   37.2440   25.8990   35.0406 H   0  0  0  0  0  0  0  0  0  0  0  0
   38.5391   22.4651   38.4200 H   0  0  0  0  0  0  0  0  0  0  0  0
   42.4057   22.2800   36.7443 H   0  0  0  0  0  0  0  0  0  0  0  0
   37.2488   27.2510   33.9413 H   0  0  0  0  0  0  0  0  0  0  0  0
   38.4406   28.0179   32.8375 H   0  0  0  0  0  0  0  0  0  0  0  0
   35.4106   28.2751   32.3512 H   0  0  0  0  0  0  0  0  0  0  0  0
   36.2588   29.4116   33.4227 H   0  0  0  0  0  0  0  0  0  0  0  0
   37.7051   28.9973   29.6937 H   0  0  0  0  0  0  0  0  0  0  0  0
   38.7024   28.7337   31.2472 H   0  0  0  0  0  0  0  0  0  0  0  0
   36.6308   26.9925   30.0449 H   0  0  0  0  0  0  0  0  0  0  0  0
   38.4397   26.7376   30.2883 H   0  0  0  0  0  0  0  0  0  0  0  0
  1  2  2  0
  1 11  1  0
  3  2  1  0
  4  3  2  0
  5  4  1  0
  5 10  2  0
  6  5  1  0
  7  6  2  0
  7  8  1  0
  8  9  2  0
  9 10  1  0
  9 26  1  0
 10  1  1  0
 11 12  1  0
 12 13  2  0
 12 17  1  0
 14 13  1  0
 15 14  2  0
 16 15  1  0
 16 11  2  0
 17 18  1  0
 17 25  1  0
 18 19  2  0
 19 20  1  0
 20 21  2  0
 21 22  1  0
 23 22  2  0
 24 23  1  0
 25 24  2  0
 25 20  1  0
 26 27  1  0
 28 27  1  0
 29 28  1  0
 30 29  1  0
 31 30  1  0
 31 26  1  0
  2 32  1  0
  3 33  1  0
  4 34  1  0
  6 35  1  0
  7 36  1  0
  8 37  1  0
 13 38  1  0
 15 39  1  0
 18 40  1  0
 21 41  1  0
 23 42  1  0
 27 43  1  0
 27 44  1  0
 28 45  1  0
 28 46  1  0
 30 47  1  0
 30 48  1  0
 31 49  1  0
 31 50  1  0
M  ISO  8  32  14  33  14  34  14  35  14  36  14  37  14  38  14  39  14
M  ISO  8  40  14  41  14  42  14  43  13  44  13  45  13  46  13  47  13
M  ISO  3  48  13  49  13  50  13
M  END
>  <minimizedAffinity>  (1) 
-6.23552752

>  <minimizedRMSD>  (1) 
0.861192703

$$$$
