
     RDKit          3D

 48 52  0  0  0  0  0  0  0  0999 V2000
   38.7680   23.2720   38.0490 C   0  0  0  0  0  0  0  0  0  0  0  0
   38.0290   23.4430   36.8670 C   0  0  0  0  0  0  0  0  0  0  0  0
   38.6770   23.1290   35.6650 C   0  0  0  0  0  0  0  0  0  0  0  0
   39.9300   22.7000   35.7790 N   0  0  0  0  0  0  0  0  0  0  0  0
   40.6490   22.5330   36.9080 C   0  0  0  0  0  0  0  0  0  0  0  0
   40.0180   22.8360   38.0480 N   0  0  0  0  0  0  0  0  0  0  0  0
   41.9940   22.0450   36.6480 C   0  0  0  0  0  0  0  0  0  0  0  0
   42.2700   20.6970   36.6320 C   0  0  0  0  0  0  0  0  0  0  0  0
   43.5210   20.1680   36.3950 C   0  0  0  0  0  0  0  0  0  0  0  0
   44.5930   21.0140   36.1540 C   0  0  0  0  0  0  0  0  0  0  0  0
   44.3630   22.3580   36.1590 C   0  0  0  0  0  0  0  0  0  0  0  0
   45.4300   23.1840   35.9190 C   0  0  0  0  0  0  0  0  0  0  0  0
   45.2760   24.5500   35.9080 C   0  0  0  0  0  0  0  0  0  0  0  0
   43.9900   25.0570   36.1530 C   0  0  0  0  0  0  0  0  0  0  0  0
   42.9500   24.1710   36.3900 C   0  0  0  0  0  0  0  0  0  0  0  0
   43.0850   22.8300   36.4030 C   0  0  0  0  0  0  0  0  0  0  0  0
   38.0240   23.2740   34.4080 N   0  0  0  0  0  0  0  0  0  0  0  0
   37.4730   22.2420   33.7820 C   0  0  0  0  0  0  0  0  0  0  0  0
   36.9440   22.7570   32.6250 C   0  0  0  0  0  0  0  0  0  0  0  0
   37.1860   24.0740   32.5790 N   0  0  0  0  0  0  0  0  0  0  0  0
   37.8680   24.3990   33.7060 C   0  0  0  0  0  0  0  0  0  0  0  0
   38.2980   25.7250   33.9710 N   0  0  0  0  0  0  0  0  0  0  0  0
   37.5970   26.5810   34.9420 C   0  0  0  0  0  0  0  0  0  0  0  0
   38.8070   26.9340   35.8220 C   0  0  0  0  0  0  0  0  0  0  0  0
   40.0050   26.9350   34.8800 C   0  0  0  0  0  0  0  0  0  0  0  0
   39.3370   26.6410   33.5410 C   0  0  0  0  0  0  0  0  0  0  0  0
   36.2090   22.0540   31.5390 C   0  0  0  0  0  0  0  0  0  0  0  0
   35.3410   21.1010   32.0130 F   0  0  0  0  0  0  0  0  0  0  0  0
   37.0870   21.4190   30.6720 F   0  0  0  0  0  0  0  0  0  0  0  0
   35.5380   22.9980   30.7420 F   0  0  0  0  0  0  0  0  0  0  0  0
   38.2905   23.5091   39.0112 H   0  0  0  0  0  0  0  0  0  0  0  0
   36.9908   23.8062   36.8841 H   0  0  0  0  0  0  0  0  0  0  0  0
   41.4414   19.9983   36.8199 H   0  0  0  0  0  0  0  0  0  0  0  0
   43.6683   19.0779   36.3971 H   0  0  0  0  0  0  0  0  0  0  0  0
   45.5994   20.6126   35.9643 H   0  0  0  0  0  0  0  0  0  0  0  0
   46.4227   22.7482   35.7327 H   0  0  0  0  0  0  0  0  0  0  0  0
   46.1271   25.2196   35.7148 H   0  0  0  0  0  0  0  0  0  0  0  0
   43.8099   26.1421   36.1569 H   0  0  0  0  0  0  0  0  0  0  0  0
   41.9505   24.5895   36.5796 H   0  0  0  0  0  0  0  0  0  0  0  0
   37.4459   21.1952   34.1190 H   0  0  0  0  0  0  0  0  0  0  0  0
   37.1510   27.4689   34.4700 H   0  0  0  0  0  0  0  0  0  0  0  0
   36.7390   26.1257   35.4583 H   0  0  0  0  0  0  0  0  0  0  0  0
   38.6750   27.9263   36.2780 H   0  0  0  0  0  0  0  0  0  0  0  0
   38.9357   26.2182   36.6473 H   0  0  0  0  0  0  0  0  0  0  0  0
   40.5092   27.9126   34.8718 H   0  0  0  0  0  0  0  0  0  0  0  0
   40.7935   26.2191   35.1554 H   0  0  0  0  0  0  0  0  0  0  0  0
   40.0327   26.1657   32.8338 H   0  0  0  0  0  0  0  0  0  0  0  0
   38.9764   27.5280   32.9995 H   0  0  0  0  0  0  0  0  0  0  0  0
  2  1  2  0
  3  4  2  0
  3  2  1  0
  4  5  1  0
  5  6  2  0
  6  1  1  0
  7  5  1  0
  8  7  2  0
  9  8  1  0
 10 11  1  0
 10  9  2  0
 11 16  2  0
 12 11  1  0
 13 12  2  0
 13 14  1  0
 14 15  2  0
 15 16  1  0
 16  7  1  0
 17  3  1  0
 18 17  1  0
 19 18  2  0
 20 19  1  0
 20 21  2  0
 21 22  1  0
 21 17  1  0
 22 23  1  0
 23 24  1  0
 25 24  1  0
 26 22  1  0
 26 25  1  0
 27 28  1  0
 27 19  1  0
 29 27  1  0
 30 27  1  0
  1 31  1  0
  2 32  1  0
  8 33  1  0
  9 34  1  0
 10 35  1  0
 12 36  1  0
 13 37  1  0
 14 38  1  0
 15 39  1  0
 18 40  1  0
 23 41  1  0
 23 42  1  0
 24 43  1  0
 24 44  1  0
 25 45  1  0
 25 46  1  0
 26 47  1  0
 26 48  1  0
M  END
>  <minimizedAffinity>  (1) 
-7.41432667

>  <minimizedRMSD>  (1) 
3.66695333

$$$$
