
     RDKit          3D

 44 46  0  0  0  0  0  0  0  0999 V2000
   37.1690   26.6390   34.2770 C   0  0  0  0  0  0  0  0  0  0  0  0
   37.2210   25.6570   33.2950 C   0  0  0  0  0  0  0  0  0  0  0  0
   36.6130   25.9320   32.0570 C   0  0  0  0  0  0  0  0  0  0  0  0
   36.0160   27.1370   31.9060 N   0  0  0  0  0  0  0  0  0  0  0  0
   35.9780   28.0690   32.8680 C   0  0  0  0  0  0  0  0  0  0  0  0
   36.5570   27.8350   34.0800 N   0  0  0  0  0  0  0  0  0  0  0  0
   37.8030   26.3550   35.5720 C   0  0  0  0  0  0  0  0  0  0  0  0
   38.6490   27.1540   36.0370 O   0  0  0  0  0  0  0  0  0  0  0  0
   37.4580   25.2120   36.2550 O   0  0  0  0  0  0  0  0  0  0  0  0
   39.3510   22.9020   38.1390 N   0  0  0  0  0  0  0  0  0  0  0  0
   38.3100   23.7050   37.9250 N   0  0  0  0  0  0  0  0  0  0  0  0
   38.4400   24.3070   36.7170 C   0  0  0  0  0  0  0  0  0  0  0  0
   39.5990   23.8710   36.1480 C   0  0  0  0  0  0  0  0  0  0  0  0
   40.1360   23.0020   37.0600 C   0  0  0  0  0  0  0  0  0  0  0  0
   41.4190   22.2760   36.8610 C   0  0  0  0  0  0  0  0  0  0  0  0
   42.4640   22.9160   36.2110 C   0  0  0  0  0  0  0  0  0  0  0  0
   43.6110   22.1800   36.0670 C   0  0  0  0  0  0  0  0  0  0  0  0
   43.7930   20.9070   36.5030 N   0  0  0  0  0  0  0  0  0  0  0  0
   42.7340   20.3250   37.1350 C   0  0  0  0  0  0  0  0  0  0  0  0
   41.5930   21.0130   37.2950 N   0  0  0  0  0  0  0  0  0  0  0  0
   35.3020   29.3610   32.6140 C   0  0  0  0  0  0  0  0  0  0  0  0
   35.8650   30.3720   33.5800 C   0  0  0  0  0  0  0  0  0  0  0  0
   33.8340   29.1540   32.8910 C   0  0  0  0  0  0  0  0  0  0  0  0
   35.5120   29.8170   31.1700 C   0  0  0  0  0  0  0  0  0  0  0  0
   36.8770   30.0660   31.0400 O   0  0  0  0  0  0  0  0  0  0  0  0
   37.3610   29.8480   29.7680 C   0  0  0  0  0  0  0  0  0  0  0  0
   36.8550   28.6740   29.2630 F   0  0  0  0  0  0  0  0  0  0  0  0
   36.8560   30.8650   28.9700 F   0  0  0  0  0  0  0  0  0  0  0  0
   38.7500   29.9000   29.7290 F   0  0  0  0  0  0  0  0  0  0  0  0
   37.7218   24.6952   33.4801 H   0  0  0  0  0  0  0  0  0  0  0  0
   36.6224   25.1943   31.2410 H   0  0  0  0  0  0  0  0  0  0  0  0
   39.5187   22.3188   38.9713 H   0  0  0  0  0  0  0  0  0  0  0  0
   40.0130   24.1552   35.1693 H   0  0  0  0  0  0  0  0  0  0  0  0
   42.3777   23.9464   35.8358 H   0  0  0  0  0  0  0  0  0  0  0  0
   44.4566   22.6617   35.5543 H   0  0  0  0  0  0  0  0  0  0  0  0
   42.8148   19.2949   37.5124 H   0  0  0  0  0  0  0  0  0  0  0  0
   35.6786   30.0373   34.6111 H   0  0  0  0  0  0  0  0  0  0  0  0
   36.9483   30.4713   33.4169 H   0  0  0  0  0  0  0  0  0  0  0  0
   35.3789   31.3452   33.4169 H   0  0  0  0  0  0  0  0  0  0  0  0
   33.6657   29.1303   33.9778 H   0  0  0  0  0  0  0  0  0  0  0  0
   33.2574   29.9797   32.4486 H   0  0  0  0  0  0  0  0  0  0  0  0
   33.5082   28.2010   32.4486 H   0  0  0  0  0  0  0  0  0  0  0  0
   35.1993   29.0276   30.4707 H   0  0  0  0  0  0  0  0  0  0  0  0
   34.9156   30.7121   30.9396 H   0  0  0  0  0  0  0  0  0  0  0  0
  1  7  1  0
  2  1  2  0
  3  2  1  0
  4  3  2  0
  4  5  1  0
  5  6  2  0
  6  1  1  0
  7  8  2  0
  7  9  1  0
  9 12  1  0
 11 10  1  0
 12 11  2  0
 13 12  1  0
 13 14  2  0
 14 10  1  0
 15 14  1  0
 15 20  1  0
 16 15  2  0
 17 16  1  0
 17 18  2  0
 18 19  1  0
 19 20  2  0
 21  5  1  0
 21 23  1  0
 21 22  1  0
 24 21  1  0
 25 24  1  0
 26 25  1  0
 27 26  1  0
 28 26  1  0
 29 26  1  0
  2 30  1  0
  3 31  1  0
 10 32  1  0
 13 33  1  0
 16 34  1  0
 17 35  1  0
 19 36  1  0
 22 37  1  0
 22 38  1  0
 22 39  1  0
 23 40  1  0
 23 41  1  0
 23 42  1  0
 24 43  1  0
 24 44  1  0
M  ISO  8  30  14  31  14  32   9  33  14  34  14  35  14  36  14  37   8
M  ISO  7  38   8  39   8  40   8  41   8  42   8  43   8  44   8
M  END
>  <minimizedAffinity>  (1) 
-5.4773922

>  <minimizedRMSD>  (1) 
0.379644126

$$$$
