
     RDKit          3D

 39 42  0  0  0  0  0  0  0  0999 V2000
   37.8628   23.7038   33.5051 C   0  0  0  0  0  0  0  0  0  0  0  0
   37.4663   22.6503   32.6722 C   0  0  0  0  0  0  0  0  0  0  0  0
   37.4994   21.5605   33.4908 N   0  0  0  0  0  0  0  0  0  0  0  0
   37.8832   21.9638   34.6904 C   0  0  0  0  0  0  0  0  0  0  0  0
   38.1125   23.2740   34.7316 N   0  0  0  0  0  0  0  0  0  0  0  0
   38.0042   25.0842   33.0787 C   0  0  0  0  0  0  0  0  0  0  0  0
   39.2916   25.5811   32.7714 C   0  0  0  0  0  0  0  0  0  0  0  0
   39.3941   26.9269   32.3589 C   0  0  0  0  0  0  0  0  0  0  0  0
   38.2461   27.6513   32.2861 N   0  0  0  0  0  0  0  0  0  0  0  0
   37.0330   27.1341   32.5903 C   0  0  0  0  0  0  0  0  0  0  0  0
   36.9078   25.8542   32.9860 N   0  0  0  0  0  0  0  0  0  0  0  0
   38.5205   23.9398   35.9039 C   0  0  1  0  0  0  0  0  0  0  0  0
   38.0950   25.2284   36.3596 C   0  0  0  0  0  0  0  0  0  0  0  0
   37.5328   23.9575   37.0343 C   0  0  2  0  0  0  0  0  0  0  0  0
   38.1256   23.7554   38.4233 C   0  0  0  0  0  0  0  0  0  0  0  0
   37.5265   22.6939   39.0593 F   0  0  0  0  0  0  0  0  0  0  0  0
   39.5093   23.3448   38.2919 F   0  0  0  0  0  0  0  0  0  0  0  0
   38.1362   24.8939   39.1433 F   0  0  0  0  0  0  0  0  0  0  0  0
   37.2074   22.7742   31.6122 H   0  0  0  0  0  0  0  0  0  0  0  0
   37.9453   21.1655   35.4306 H   0  0  0  0  0  0  0  0  0  0  0  0
   40.1803   24.9818   32.8391 H   0  0  0  0  0  0  0  0  0  0  0  0
   40.3434   27.3814   32.1061 H   0  0  0  0  0  0  0  0  0  0  0  0
   36.2015   27.8072   32.4936 H   0  0  0  0  0  0  0  0  0  0  0  0
   39.5657   23.6189   36.2093 H   0  0  0  0  0  0  0  0  0  0  0  0
   38.8084   25.8381   36.9875 H   0  0  0  0  0  0  0  0  0  0  0  0
   37.4796   25.8753   35.7501 H   0  0  0  0  0  0  0  0  0  0  0  0
   36.1488   24.0801   37.0245 N   0  0  0  0  0  0  0  0  0  0  0  0
   35.4807   23.2274   37.9337 C   0  0  0  0  0  0  0  0  0  0  0  0
   34.0370   23.3269   37.4355 C   0  0  0  0  0  0  0  0  0  0  0  0
   33.9680   24.7899   37.0632 C   0  0  0  0  0  0  0  0  0  0  0  0
   35.4326   25.2490   36.9159 C   0  0  1  0  0  0  0  0  0  0  0  0
   35.5360   26.0564   37.6422 H   0  0  0  0  0  0  0  0  0  0  0  0
   35.4504   23.6526   38.9795 H   0  0  0  0  0  0  0  0  0  0  0  0
   35.7069   22.1724   37.9593 H   0  0  0  0  0  0  0  0  0  0  0  0
   33.8771   22.6552   36.5618 H   0  0  0  0  0  0  0  0  0  0  0  0
   33.3223   23.0684   38.2387 H   0  0  0  0  0  0  0  0  0  0  0  0
   33.4145   24.8294   36.1113 H   0  0  0  0  0  0  0  0  0  0  0  0
   33.4266   25.3377   37.8368 H   0  0  0  0  0  0  0  0  0  0  0  0
   35.4533   25.7132   35.8861 H   0  0  0  0  0  0  0  0  0  0  0  0
  1  5  1  0
  2  3  1  0
  2  1  2  0
  3  4  2  0
  4  5  1  0
  5 12  1  0
  6  1  1  0
  7  6  2  0
  8  7  1  0
  9  8  2  0
  9 10  1  0
 10 11  2  0
 11  6  1  0
 12 13  1  0
 12 14  1  0
 13 14  1  0
 14 15  1  1
 15 16  1  0
 15 18  1  0
 17 15  1  0
  2 19  1  0
  4 20  1  0
  7 21  1  0
  8 22  1  0
 10 23  1  0
 12 24  1  1
 13 25  1  0
 13 26  1  0
 27 28  1  0
 28 29  1  0
 29 30  1  0
 30 31  1  0
 31 32  1  1
 31 27  1  0
 28 33  1  0
 28 34  1  0
 29 35  1  0
 29 36  1  0
 30 37  1  0
 30 38  1  0
 31 39  1  0
 14 27  1  0
M  ISO  8  19  14  20  14  21  14  22  14  23  14  24  13  25  13  26  13
M  ISO  1  32  13
M  END
>  <DihAtoms>  (1) 
11,13,26,27

>  <DihDeg>  (1) 
-161.34471865219572

$$$$
