
     RDKit          3D

 23 23  0  0  0  0  0  0  0  0999 V2000
   38.0860   24.3490   37.6580 C   0  0  0  0  0  0  0  0  0  0  0  0
   38.5090   24.7240   36.3370 C   0  0  0  0  0  0  0  0  0  0  0  0
   39.6030   24.0210   35.8830 C   0  0  0  0  0  0  0  0  0  0  0  0
   40.2030   23.0410   36.6700 N   0  0  0  0  0  0  0  0  0  0  0  0
   39.7660   22.7340   37.8830 C   0  0  0  0  0  0  0  0  0  0  0  0
   38.7000   23.3840   38.3980 N   0  0  0  0  0  0  0  0  0  0  0  0
   37.6210   25.6810   35.8060 N   0  0  0  0  0  0  0  0  0  0  0  0
   37.8510   27.0190   35.3930 C   0  0  0  0  0  0  0  0  0  0  0  0
   38.5450   27.6830   36.2950 N   0  0  0  0  0  0  0  0  0  0  0  0
   37.3550   27.5270   34.1340 N   0  0  0  0  0  0  0  0  0  0  0  0
   38.7880   28.6640   36.1340 H   0  0  0  0  0  0  0  0  0  0  0  0
   40.0100   24.5010   34.5360 C   0  0  0  0  0  0  0  0  0  0  0  0
   41.1870   25.4600   34.7010 C   0  0  0  0  0  0  0  0  0  0  0  0
   37.2205   24.8687   38.0949 H   0  0  0  0  0  0  0  0  0  0  0  0
   40.2704   21.9516   38.4690 H   0  0  0  0  0  0  0  0  0  0  0  0
   36.6489   25.3572   35.7008 H   0  0  0  0  0  0  0  0  0  0  0  0
   37.5396   28.5037   33.8641 H   0  0  0  0  0  0  0  0  0  0  0  0
   36.8169   26.9123   33.5067 H   0  0  0  0  0  0  0  0  0  0  0  0
   39.1686   25.0243   34.0583 H   0  0  0  0  0  0  0  0  0  0  0  0
   40.3022   23.6495   33.9038 H   0  0  0  0  0  0  0  0  0  0  0  0
   41.3827   25.6195   35.7716 H   0  0  0  0  0  0  0  0  0  0  0  0
   42.0803   25.0294   34.2251 H   0  0  0  0  0  0  0  0  0  0  0  0
   40.9457   26.4219   34.2251 H   0  0  0  0  0  0  0  0  0  0  0  0
  1  6  2  0
  2  1  1  0
  3  2  2  0
  3  4  1  0
  4  5  2  0
  5  6  1  0
  7  2  1  0
  8  7  1  0
  8  9  2  0
 10  8  1  0
 11  9  1  0
 12 13  1  0
 12  3  1  0
  1 14  1  0
  5 15  1  0
  7 16  1  0
 10 17  1  0
 10 18  1  0
 12 19  1  0
 12 20  1  0
 13 21  1  0
 13 22  1  0
 13 23  1  0
M  ISO  7  14  14  15  14  19   8  20   8  21   8  22   8  23   8
M  END
>  <minimizedAffinity>  (1) 
-3.84417462

>  <minimizedRMSD>  (1) 
4.54516268

$$$$
