
     RDKit          3D

 37 36  0  0  0  0  0  0  0  0999 V2000
   39.9890   26.8190   34.3760 C   0  0  0  0  0  0  0  0  0  0  0  0
   39.8310   27.0880   33.0030 N   0  0  0  0  0  0  0  0  0  0  0  0
   38.7820   27.2930   32.1850 C   0  0  0  0  0  0  0  0  0  0  0  0
   39.1070   27.5350   30.8700 C   0  0  0  0  0  0  0  0  0  0  0  0
   40.4390   27.4770   30.8750 N   0  0  0  0  0  0  0  0  0  0  0  0
   40.8710   27.2110   32.1410 C   0  0  0  0  0  0  0  0  0  0  0  0
   42.2660   27.0700   32.4950 N   0  0  0  0  0  0  0  0  0  0  0  0
   42.6990   27.0750   33.8490 C   0  0  0  0  0  0  0  0  0  0  0  0
   41.9630   26.4840   34.7190 N   0  0  0  0  0  0  0  0  0  0  0  0
   43.9120   27.7060   34.2480 N   0  0  0  0  0  0  0  0  0  0  0  0
   41.0810   26.0080   34.4920 H   0  0  0  0  0  0  0  0  0  0  0  0
   38.7120   26.3970   35.0460 C   0  0  0  0  0  0  0  0  0  0  0  0
   38.2430   23.7280   37.6890 C   0  0  0  0  0  0  0  0  0  0  0  0
   38.0020   24.9040   36.9640 C   0  0  0  0  0  0  0  0  0  0  0  0
   38.8780   25.1690   35.8620 C   0  0  0  0  0  0  0  0  0  0  0  0
   39.8850   24.2750   35.5800 N   0  0  0  0  0  0  0  0  0  0  0  0
   40.0700   23.1730   36.3000 C   0  0  0  0  0  0  0  0  0  0  0  0
   39.2340   22.9090   37.3630 N   0  0  0  0  0  0  0  0  0  0  0  0
   38.1700   27.5360   35.8720 C   0  0  0  0  0  0  0  0  0  0  0  0
   39.9890   26.8190   35.4760 H   0  0  0  0  0  0  0  0  0  0  0  0
   39.9890   27.8561   34.0093 H   0  0  0  0  0  0  0  0  0  0  0  0
   40.8871   26.3005   34.0093 H   0  0  0  0  0  0  0  0  0  0  0  0
   39.0909   26.3005   34.0093 H   0  0  0  0  0  0  0  0  0  0  0  0
   38.1430   26.3983   32.2192 H   0  0  0  0  0  0  0  0  0  0  0  0
   38.2816   28.2022   32.5497 H   0  0  0  0  0  0  0  0  0  0  0  0
   38.4331   27.7288   30.0225 H   0  0  0  0  0  0  0  0  0  0  0  0
   42.9647   26.9631   31.7459 H   0  0  0  0  0  0  0  0  0  0  0  0
   44.1984   27.6923   35.2373 H   0  0  0  0  0  0  0  0  0  0  0  0
   44.5027   28.1760   33.5473 H   0  0  0  0  0  0  0  0  0  0  0  0
   39.6893   26.6874   34.6332 H   0  0  0  0  0  0  0  0  0  0  0  0
   37.9960   26.1827   34.2389 H   0  0  0  0  0  0  0  0  0  0  0  0
   37.5977   23.4800   38.5446 H   0  0  0  0  0  0  0  0  0  0  0  0
   37.1821   25.5881   37.2281 H   0  0  0  0  0  0  0  0  0  0  0  0
   40.8842   22.4772   36.0491 H   0  0  0  0  0  0  0  0  0  0  0  0
   38.2823   27.3000   36.9405 H   0  0  0  0  0  0  0  0  0  0  0  0
   38.7271   28.4554   35.6391 H   0  0  0  0  0  0  0  0  0  0  0  0
   37.1051   27.6836   35.6391 H   0  0  0  0  0  0  0  0  0  0  0  0
  3  2  1  0
  4  5  2  0
  4  3  1  0
  5  6  1  0
  6  7  1  0
  6  2  2  0
  7  8  1  0
  8 10  1  0
  8  9  2  0
 11  9  1  0
 12 15  1  0
 12 19  1  0
 14 13  2  0
 15 14  1  0
 16 15  2  0
 16 17  1  0
 17 18  2  0
 18 13  1  0
  1 20  1  0
  1 21  1  0
  1 22  1  0
  1 23  1  0
  3 24  1  0
  3 25  1  0
  4 26  1  0
  7 27  1  0
 10 28  1  0
 10 29  1  0
 12 30  1  0
 12 31  1  0
 13 32  1  0
 14 33  1  0
 17 34  1  0
 19 35  1  0
 19 36  1  0
 19 37  1  0
M  ISO  8  20   8  21   8  22   8  23   8  24  13  25  13  26  13  30   8
M  ISO  7  31   8  32  14  33  14  34  14  35   8  36   8  37   8
M  END
>  <minimizedAffinity>  (1) 
-4.65925932

>  <minimizedRMSD>  (1) 
4.05797005

$$$$
