
     RDKit          3D

 34 37  0  0  1  0  0  0  0  0999 V2000
   37.9440   26.3670   35.7800 C   0  0  1  0  0  0  0  0  0  0  0  0
   38.7570   27.3110   34.9530 C   0  0  0  0  0  0  0  0  0  0  0  0
   37.5470   26.6800   34.4040 C   0  0  1  0  0  0  0  0  0  0  0  0
   37.7360   25.9020   33.2300 N   0  0  0  0  0  0  0  0  0  0  0  0
   37.2010   24.6950   32.9250 C   0  0  0  0  0  0  0  0  0  0  0  0
   37.4310   24.0080   31.7700 C   0  0  0  0  0  0  0  0  0  0  0  0
   38.2770   24.5730   30.8150 C   0  0  0  0  0  0  0  0  0  0  0  0
   38.5220   23.9840   29.7390 O   0  0  0  0  0  0  0  0  0  0  0  0
   38.8350   25.7770   31.0700 N   0  0  0  0  0  0  0  0  0  0  0  0
   38.5540   26.3820   32.2360 C   0  0  0  0  0  0  0  0  0  0  0  0
   39.1010   27.5050   32.4270 O   0  0  0  0  0  0  0  0  0  0  0  0
   39.6860   26.3330   30.0580 C   0  0  0  0  0  0  0  0  0  0  0  0
   39.1850   27.2000   29.1650 C   0  0  0  0  0  0  0  0  0  0  0  0
   39.9160   27.7670   28.1640 C   0  0  0  0  0  0  0  0  0  0  0  0
   41.2950   27.3180   28.1870 C   0  0  0  0  0  0  0  0  0  0  0  0
   41.3340   26.1180   29.6790 S   0  0  0  0  0  0  0  0  0  0  0  0
   38.5230   25.0680   36.2080 C   0  0  0  0  0  0  0  0  0  0  0  0
   37.9070   24.4490   37.3000 C   0  0  0  0  0  0  0  0  0  0  0  0
   38.4070   23.2290   37.7510 C   0  0  0  0  0  0  0  0  0  0  0  0
   39.4770   22.7060   37.0950 N   0  0  0  0  0  0  0  0  0  0  0  0
   40.0390   23.3430   36.0430 C   0  0  0  0  0  0  0  0  0  0  0  0
   39.5830   24.5120   35.5910 N   0  0  0  0  0  0  0  0  0  0  0  0
   37.4135   26.3909   36.7433 H   0  0  0  0  0  0  0  0  0  0  0  0
   38.7617   28.3860   35.1864 H   0  0  0  0  0  0  0  0  0  0  0  0
   39.8123   27.3753   34.6493 H   0  0  0  0  0  0  0  0  0  0  0  0
   36.5552   26.9485   34.0112 H   0  0  0  0  0  0  0  0  0  0  0  0
   36.5303   24.2345   33.6654 H   0  0  0  0  0  0  0  0  0  0  0  0
   36.9599   23.0296   31.5948 H   0  0  0  0  0  0  0  0  0  0  0  0
   38.1215   27.4691   29.2455 H   0  0  0  0  0  0  0  0  0  0  0  0
   39.5100   28.4777   27.4291 H   0  0  0  0  0  0  0  0  0  0  0  0
   42.1174   27.5982   27.5124 H   0  0  0  0  0  0  0  0  0  0  0  0
   37.0429   24.9169   37.7944 H   0  0  0  0  0  0  0  0  0  0  0  0
   37.9526   22.7080   38.6066 H   0  0  0  0  0  0  0  0  0  0  0  0
   40.9026   22.8808   35.5424 H   0  0  0  0  0  0  0  0  0  0  0  0
  1 17  1  0
  2  1  1  0
  3  2  1  0
  3  1  1  0
  4  3  1  0
  5  4  1  0
  6  5  2  0
  7  9  1  0
  7  6  1  0
  8  7  2  0
  9 10  1  0
 10 11  2  0
 10  4  1  0
 12  9  1  0
 13 12  2  0
 14 15  2  0
 14 13  1  0
 15 16  1  0
 16 12  1  0
 17 18  2  0
 18 19  1  0
 20 19  2  0
 21 20  1  0
 22 21  2  0
 22 17  1  0
  1 23  1  1
  2 24  1  0
  2 25  1  0
  3 26  1  1
  5 27  1  0
  6 28  1  0
 13 29  1  0
 14 30  1  0
 15 31  1  0
 18 32  1  0
 19 33  1  0
 21 34  1  0
M  ISO  8  23  13  24  13  25  13  26  13  27  14  28  14  29  14  30  14
M  ISO  4  31  14  32  14  33  14  34  14
M  END
>  <minimizedAffinity>  (1) 
-4.50155163

>  <minimizedRMSD>  (1) 
1.55967402

$$$$
