
     RDKit          3D

 42 45  0  0  0  0  0  0  0  0999 V2000
   42.2050   22.7670   36.3430 C   0  0  0  0  0  0  0  0  0  0  0  0
   42.4070   24.0720   35.9280 C   0  0  0  0  0  0  0  0  0  0  0  0
   43.3930   24.1200   34.9940 N   0  0  0  0  0  0  0  0  0  0  0  0
   43.8630   22.8550   34.7710 C   0  0  0  0  0  0  0  0  0  0  0  0
   44.8360   22.3890   33.9400 C   0  0  0  0  0  0  0  0  0  0  0  0
   45.1090   21.0240   33.9180 C   0  0  0  0  0  0  0  0  0  0  0  0
   44.3740   20.1840   34.7540 C   0  0  0  0  0  0  0  0  0  0  0  0
   43.3820   20.6710   35.6000 C   0  0  0  0  0  0  0  0  0  0  0  0
   43.1330   22.0200   35.6000 C   0  0  0  0  0  0  0  0  0  0  0  0
   42.6490   19.7840   36.4280 N   0  0  0  0  0  0  0  0  0  0  0  0
   43.1930   18.6380   37.0610 C   0  0  0  0  0  0  0  0  0  0  0  0
   44.3480   18.8230   37.6350 N   0  0  0  0  0  0  0  0  0  0  0  0
   42.4600   17.3940   37.0310 N   0  0  0  0  0  0  0  0  0  0  0  0
   44.8480   18.0660   38.1300 H   0  0  0  0  0  0  0  0  0  0  0  0
   41.2860   22.3690   37.2740 O   0  0  0  0  0  0  0  0  0  0  0  0
   39.9380   22.5920   37.2370 C   0  0  0  0  0  0  0  0  0  0  0  0
   39.3960   23.3630   38.2650 C   0  0  0  0  0  0  0  0  0  0  0  0
   38.0120   23.5960   38.2320 C   0  0  0  0  0  0  0  0  0  0  0  0
   37.2850   23.0740   37.2260 N   0  0  0  0  0  0  0  0  0  0  0  0
   37.8630   22.3310   36.2530 C   0  0  0  0  0  0  0  0  0  0  0  0
   39.1590   22.0970   36.2590 N   0  0  0  0  0  0  0  0  0  0  0  0
   37.1580   21.7470   35.1590 N   0  0  0  0  0  0  0  0  0  0  0  0
   37.5680   21.9660   33.8710 C   0  0  0  0  0  0  0  0  0  0  0  0
   36.8430   21.3690   32.8490 C   0  0  0  0  0  0  0  0  0  0  0  0
   35.7300   20.5730   33.1130 C   0  0  0  0  0  0  0  0  0  0  0  0
   35.0640   20.0280   32.1970 O   0  0  0  0  0  0  0  0  0  0  0  0
   35.3640   20.3860   34.3880 N   0  0  0  0  0  0  0  0  0  0  0  0
   36.0720   20.9680   35.3850 C   0  0  0  0  0  0  0  0  0  0  0  0
   35.7440   20.8040   36.5830 O   0  0  0  0  0  0  0  0  0  0  0  0
   41.8499   24.9443   36.3004 H   0  0  0  0  0  0  0  0  0  0  0  0
   43.7325   24.9735   34.5280 H   0  0  0  0  0  0  0  0  0  0  0  0
   45.3980   23.0810   33.2956 H   0  0  0  0  0  0  0  0  0  0  0  0
   45.8873   20.6170   33.2558 H   0  0  0  0  0  0  0  0  0  0  0  0
   44.5846   19.1044   34.7445 H   0  0  0  0  0  0  0  0  0  0  0  0
   41.6507   19.9864   36.5805 H   0  0  0  0  0  0  0  0  0  0  0  0
   42.8479   16.5566   37.4883 H   0  0  0  0  0  0  0  0  0  0  0  0
   41.5494   17.3442   36.5523 H   0  0  0  0  0  0  0  0  0  0  0  0
   40.0267   23.7716   39.0683 H   0  0  0  0  0  0  0  0  0  0  0  0
   37.5284   24.1964   39.0167 H   0  0  0  0  0  0  0  0  0  0  0  0
   38.4438   22.5949   33.6533 H   0  0  0  0  0  0  0  0  0  0  0  0
   37.1543   21.5279   31.8060 H   0  0  0  0  0  0  0  0  0  0  0  0
   34.5459   19.8008   34.6096 H   0  0  0  0  0  0  0  0  0  0  0  0
  1 15  1  0
  2  1  2  0
  3  2  1  0
  4  3  1  0
  4  9  2  0
  5  4  1  0
  6  5  2  0
  6  7  1  0
  7  8  2  0
  8 10  1  0
  9  8  1  0
  9  1  1  0
 10 11  1  0
 11 12  2  0
 12 14  1  0
 13 11  1  0
 16 15  1  0
 16 17  2  0
 18 17  1  0
 19 18  2  0
 20 21  2  0
 20 19  1  0
 21 16  1  0
 22 28  1  0
 22 20  1  0
 23 22  1  0
 24 25  1  0
 24 23  2  0
 25 27  1  0
 26 25  2  0
 27 28  1  0
 28 29  2  0
  2 30  1  0
  3 31  1  0
  5 32  1  0
  6 33  1  0
  7 34  1  0
 10 35  1  0
 13 36  1  0
 13 37  1  0
 17 38  1  0
 18 39  1  0
 23 40  1  0
 24 41  1  0
 27 42  1  0
M  ISO  8  30  14  31   9  32  14  33  14  34  14  38  14  39  14  40  14
M  ISO  2  41  14  42   9
M  END
>  <minimizedAffinity>  (1) 
-6.08705139

>  <minimizedRMSD>  (1) 
1.44785571

$$$$
