
     RDKit          3D

 28 30  0  0  0  0  0  0  0  0999 V2000
   43.6200   19.7230   37.0880 C   0  0  0  0  0  0  0  0  0  0  0  0
   42.4800   20.4990   37.3080 C   0  0  0  0  0  0  0  0  0  0  0  0
   41.9550   21.2180   36.2350 C   0  0  0  0  0  0  0  0  0  0  0  0
   42.5960   21.1170   35.0290 N   0  0  0  0  0  0  0  0  0  0  0  0
   43.6780   20.3700   34.8540 C   0  0  0  0  0  0  0  0  0  0  0  0
   44.1930   19.6680   35.8910 N   0  0  0  0  0  0  0  0  0  0  0  0
   44.3390   20.2920   33.5270 C   0  0  0  0  0  0  0  0  0  0  0  0
   45.7130   20.0320   33.3660 C   0  0  0  0  0  0  0  0  0  0  0  0
   46.1920   19.9900   32.0990 C   0  0  0  0  0  0  0  0  0  0  0  0
   45.3830   20.1870   30.9910 C   0  0  0  0  0  0  0  0  0  0  0  0
   43.7400   20.4730   31.8220 S   0  0  0  0  0  0  0  0  0  0  0  0
   45.4540   20.2270   29.5790 C   0  0  0  0  0  0  0  0  0  0  0  0
   45.9620   21.2230   29.0090 O   0  0  0  0  0  0  0  0  0  0  0  0
   44.9490   19.1420   28.8850 O   0  0  0  0  0  0  0  0  0  0  0  0
   40.7650   22.0550   36.3790 C   0  0  0  0  0  0  0  0  0  0  0  0
   39.9150   22.6510   35.5000 N   0  0  0  0  0  0  0  0  0  0  0  0
   39.0010   23.2940   36.1700 O   0  0  0  0  0  0  0  0  0  0  0  0
   39.2180   23.1440   37.4740 C   0  0  0  0  0  0  0  0  0  0  0  0
   40.3020   22.3820   37.5950 N   0  0  0  0  0  0  0  0  0  0  0  0
   38.4170   23.7080   38.5740 C   0  0  0  0  0  0  0  0  0  0  0  0
   39.2450   23.8830   39.6870 F   0  0  0  0  0  0  0  0  0  0  0  0
   37.3780   22.8710   38.9220 F   0  0  0  0  0  0  0  0  0  0  0  0
   37.9350   24.9500   38.2340 F   0  0  0  0  0  0  0  0  0  0  0  0
   44.0509   19.1473   37.9204 H   0  0  0  0  0  0  0  0  0  0  0  0
   42.0089   20.5418   38.3011 H   0  0  0  0  0  0  0  0  0  0  0  0
   46.3707   19.8696   34.2327 H   0  0  0  0  0  0  0  0  0  0  0  0
   47.2629   19.7922   31.9442 H   0  0  0  0  0  0  0  0  0  0  0  0
   44.9791   19.1297   27.8955 H   0  0  0  0  0  0  0  0  0  0  0  0
  1  2  2  0
  3 15  1  0
  3  2  1  0
  4  3  2  0
  5  4  1  0
  5  6  2  0
  6  1  1  0
  7  5  1  0
  8  7  2  0
  9  8  1  0
 10 11  1  0
 10  9  2  0
 11  7  1  0
 12 10  1  0
 13 12  2  0
 14 12  1  0
 15 19  1  0
 16 17  1  0
 16 15  2  0
 17 18  1  0
 18 19  2  0
 18 20  1  0
 20 22  1  0
 20 21  1  0
 23 20  1  0
  1 24  1  0
  2 25  1  0
  8 26  1  0
  9 27  1  0
 14 28  1  0
M  ISO  5  24  14  25  14  26  14  27  14  28   3
M  END
>  <minimizedAffinity>  (1) 
-3.88806891

>  <minimizedRMSD>  (1) 
0.0188451651

$$$$
