
     RDKit          3D

 23 24  0  0  0  0  0  0  0  0999 V2000
   37.4770   24.8150   36.4910 O   0  0  0  0  0  0  0  0  0  0  0  0
   39.3900   22.7080   38.5800 N   0  0  0  0  0  0  0  0  0  0  0  0
   38.3850   23.5170   38.3040 N   0  0  0  0  0  0  0  0  0  0  0  0
   38.4500   23.9370   37.0180 C   0  0  0  0  0  0  0  0  0  0  0  0
   39.5650   23.3640   36.4310 C   0  0  0  0  0  0  0  0  0  0  0  0
   40.1150   22.6110   37.4390 C   0  0  0  0  0  0  0  0  0  0  0  0
   41.3240   21.8100   37.2940 C   0  0  0  0  0  0  0  0  0  0  0  0
   42.1770   22.0430   36.3710 O   0  0  0  0  0  0  0  0  0  0  0  0
   41.6450   20.7560   38.1200 O   0  0  0  0  0  0  0  0  0  0  0  0
   37.8550   26.0180   35.9010 C   0  0  0  0  0  0  0  0  0  0  0  0
   38.5250   26.8650   36.5000 O   0  0  0  0  0  0  0  0  0  0  0  0
   37.4330   26.2810   34.5090 C   0  0  0  0  0  0  0  0  0  0  0  0
   37.6140   25.2790   33.5650 C   0  0  0  0  0  0  0  0  0  0  0  0
   37.2210   25.5120   32.2470 C   0  0  0  0  0  0  0  0  0  0  0  0
   36.6810   26.7260   31.9750 N   0  0  0  0  0  0  0  0  0  0  0  0
   36.5170   27.6690   32.8900 C   0  0  0  0  0  0  0  0  0  0  0  0
   36.8860   27.4800   34.1780 N   0  0  0  0  0  0  0  0  0  0  0  0
   39.5840   22.2446   39.4792 H   0  0  0  0  0  0  0  0  0  0  0  0
   39.9259   23.4838   35.3988 H   0  0  0  0  0  0  0  0  0  0  0  0
   42.4818   20.2481   37.9719 H   0  0  0  0  0  0  0  0  0  0  0  0
   38.0607   24.3157   33.8522 H   0  0  0  0  0  0  0  0  0  0  0  0
   37.3432   24.7475   31.4655 H   0  0  0  0  0  0  0  0  0  0  0  0
   36.0697   28.6299   32.5957 H   0  0  0  0  0  0  0  0  0  0  0  0
  1  4  1  0
  3  2  1  0
  4  3  2  0
  5  4  1  0
  5  6  2  0
  6  2  1  0
  7  6  1  0
  7  9  1  0
  8  7  2  0
 10  1  1  0
 10 11  2  0
 12 10  1  0
 13 12  2  0
 14 13  1  0
 15 14  2  0
 15 16  1  0
 16 17  2  0
 17 12  1  0
  2 18  1  0
  5 19  1  0
  9 20  1  0
 13 21  1  0
 14 22  1  0
 16 23  1  0
M  ISO  6  18   9  19  14  20   3  21  14  22  14  23  14
M  END
>  <minimizedAffinity>  (1) 
-4.9606514

>  <minimizedRMSD>  (1) 
1.05385685

$$$$
