
     RDKit          3D

 38 39  0  0  1  0  0  0  0  0999 V2000
   37.7400   25.1460   34.0560 N   0  0  0  0  0  0  0  0  0  0  0  0
   37.0980   25.1380   32.7630 C   0  0  0  0  0  0  0  0  0  0  0  0
   37.1640   26.5460   32.2640 C   0  0  0  0  0  0  0  0  0  0  0  0
   37.8800   27.2960   33.3650 C   0  0  0  0  0  0  0  0  0  0  0  0
   38.7680   26.1350   33.9150 C   0  0  2  0  0  0  0  0  0  0  0  0
   38.3560   23.8950   34.3550 C   0  0  0  0  0  0  0  0  0  0  0  0
   37.8750   24.0380   38.1240 C   0  0  0  0  0  0  0  0  0  0  0  0
   37.6480   24.2520   36.7640 C   0  0  0  0  0  0  0  0  0  0  0  0
   38.5550   23.7140   35.8330 C   0  0  0  0  0  0  0  0  0  0  0  0
   39.6240   23.0010   36.3120 N   0  0  0  0  0  0  0  0  0  0  0  0
   39.7960   22.8220   37.6450 C   0  0  0  0  0  0  0  0  0  0  0  0
   38.9280   23.3370   38.5320 N   0  0  0  0  0  0  0  0  0  0  0  0
   39.7520   25.8140   33.0530 O   0  0  0  0  0  0  0  0  0  0  0  0
   41.0280   26.1950   33.2950 C   0  0  0  0  0  0  0  0  0  0  0  0
   41.5340   27.4440   32.6850 C   0  0  0  0  0  0  0  0  0  0  0  0
   41.1490   26.3180   34.8240 C   0  0  0  0  0  0  0  0  0  0  0  0
   42.0460   25.0990   32.9490 C   0  0  0  0  0  0  0  0  0  0  0  0
   37.6297   24.4633   32.0760 H   0  0  0  0  0  0  0  0  0  0  0  0
   36.0595   24.7815   32.8299 H   0  0  0  0  0  0  0  0  0  0  0  0
   37.7305   26.6002   31.3226 H   0  0  0  0  0  0  0  0  0  0  0  0
   36.1697   26.9635   32.0472 H   0  0  0  0  0  0  0  0  0  0  0  0
   38.4844   28.1269   32.9723 H   0  0  0  0  0  0  0  0  0  0  0  0
   37.2290   27.7846   34.1049 H   0  0  0  0  0  0  0  0  0  0  0  0
   39.3397   26.3253   34.8353 H   0  0  0  0  0  0  0  0  0  0  0  0
   37.7157   23.0833   33.9793 H   0  0  0  0  0  0  0  0  0  0  0  0
   39.3433   23.8739   33.8705 H   0  0  0  0  0  0  0  0  0  0  0  0
   37.1762   24.4532   38.8652 H   0  0  0  0  0  0  0  0  0  0  0  0
   36.7758   24.8308   36.4260 H   0  0  0  0  0  0  0  0  0  0  0  0
   40.6605   22.2456   38.0062 H   0  0  0  0  0  0  0  0  0  0  0  0
   41.8200   28.1500   33.4786 H   0  0  0  0  0  0  0  0  0  0  0  0
   42.4116   27.2182   32.0614 H   0  0  0  0  0  0  0  0  0  0  0  0
   40.7467   27.8926   32.0614 H   0  0  0  0  0  0  0  0  0  0  0  0
   40.4551   25.6127   35.3046 H   0  0  0  0  0  0  0  0  0  0  0  0
   42.1795   26.0848   35.1302 H   0  0  0  0  0  0  0  0  0  0  0  0
   40.8989   27.3445   35.1302 H   0  0  0  0  0  0  0  0  0  0  0  0
   42.4482   24.6660   33.8768 H   0  0  0  0  0  0  0  0  0  0  0  0
   41.5515   24.3116   32.3612 H   0  0  0  0  0  0  0  0  0  0  0  0
   42.8677   25.5341   32.3612 H   0  0  0  0  0  0  0  0  0  0  0  0
  1  6  1  0
  2  1  1  0
  3  2  1  0
  3  4  1  0
  4  5  1  0
  5  1  1  0
  6  9  1  0
  7 12  2  0
  8  7  1  0
  9 10  1  0
  9  8  2  0
 10 11  2  0
 11 12  1  0
 13 14  1  0
 13  5  1  0
 14 16  1  0
 15 14  1  0
 17 14  1  0
  2 18  1  0
  2 19  1  0
  3 20  1  0
  3 21  1  0
  4 22  1  0
  4 23  1  0
  5 24  1  1
  6 25  1  0
  6 26  1  0
  7 27  1  0
  8 28  1  0
 11 29  1  0
 15 30  1  0
 15 31  1  0
 15 32  1  0
 16 33  1  0
 16 34  1  0
 16 35  1  0
 17 36  1  0
 17 37  1  0
 17 38  1  0
M  ISO  8  18  13  19  13  20  13  21  13  22  13  23  13  24  13  25   8
M  ISO  8  26   8  27  14  28  14  29  14  30   8  31   8  32   8  33   8
M  ISO  5  34   8  35   8  36   8  37   8  38   8
M  END
>  <minimizedAffinity>  (1) 
-3.85821867

>  <minimizedRMSD>  (1) 
1.35402095

$$$$
