
     RDKit          3D

 29 30  0  0  1  0  0  0  0  0999 V2000
   38.5690   23.7210   36.4560 C   0  0  1  0  0  0  0  0  0  0  0  0
   41.4900   21.5920   37.5510 C   0  0  0  0  0  0  0  0  0  0  0  0
   40.3480   22.3830   37.6310 C   0  0  0  0  0  0  0  0  0  0  0  0
   39.7730   22.8690   36.4280 C   0  0  0  0  0  0  0  0  0  0  0  0
   40.3790   22.5300   35.2480 N   0  0  0  0  0  0  0  0  0  0  0  0
   41.4680   21.7760   35.1930 C   0  0  0  0  0  0  0  0  0  0  0  0
   42.0350   21.2970   36.3600 N   0  0  0  0  0  0  0  0  0  0  0  0
   38.0380   23.8990   37.8560 C   0  0  0  0  0  0  0  0  0  0  0  0
   38.7770   25.0530   35.8030 C   0  0  0  0  0  0  0  0  0  0  0  0
   38.0940   25.1890   34.5790 N   0  0  0  0  0  0  0  0  0  0  0  0
   37.8740   24.3830   33.5140 C   0  0  0  0  0  0  0  0  0  0  0  0
   37.1190   24.9480   32.5100 C   0  0  0  0  0  0  0  0  0  0  0  0
   36.8560   26.1660   32.9730 N   0  0  0  0  0  0  0  0  0  0  0  0
   37.4360   26.3110   34.2060 C   0  0  0  0  0  0  0  0  0  0  0  0
   37.2670   27.5980   34.8990 C   0  0  0  0  0  0  0  0  0  0  0  0
   36.3850   28.4580   34.6570 O   0  0  0  0  0  0  0  0  0  0  0  0
   38.0710   28.0420   35.9280 O   0  0  0  0  0  0  0  0  0  0  0  0
   37.8144   23.1831   35.8633 H   0  0  0  0  0  0  0  0  0  0  0  0
   41.9504   21.2049   38.4719 H   0  0  0  0  0  0  0  0  0  0  0  0
   39.9005   22.6264   38.6059 H   0  0  0  0  0  0  0  0  0  0  0  0
   41.9201   21.5316   34.2204 H   0  0  0  0  0  0  0  0  0  0  0  0
   38.8219   23.6362   38.5816 H   0  0  0  0  0  0  0  0  0  0  0  0
   37.7378   24.9469   38.0038 H   0  0  0  0  0  0  0  0  0  0  0  0
   37.1669   23.2437   38.0038 H   0  0  0  0  0  0  0  0  0  0  0  0
   38.4227   25.8366   36.4889 H   0  0  0  0  0  0  0  0  0  0  0  0
   39.8517   25.1442   35.5868 H   0  0  0  0  0  0  0  0  0  0  0  0
   38.2673   23.3574   33.4550 H   0  0  0  0  0  0  0  0  0  0  0  0
   36.8084   24.4993   31.5549 H   0  0  0  0  0  0  0  0  0  0  0  0
   37.8970   28.9215   36.3480 H   0  0  0  0  0  0  0  0  0  0  0  0
  1  8  1  0
  2  3  2  0
  4  1  1  0
  4  3  1  0
  5  4  2  0
  6  5  1  0
  6  7  2  0
  7  2  1  0
  9  1  1  0
 10  9  1  0
 11 10  1  0
 12 13  1  0
 12 11  2  0
 13 14  2  0
 14 10  1  0
 14 15  1  0
 15 17  1  0
 16 15  2  0
  1 18  1  6
  2 19  1  0
  3 20  1  0
  6 21  1  0
  8 22  1  0
  8 23  1  0
  8 24  1  0
  9 25  1  0
  9 26  1  0
 11 27  1  0
 12 28  1  0
 17 29  1  0
M  ISO  8  18   8  19  14  20  14  21  14  22   8  23   8  24   8  25   8
M  ISO  4  26   8  27  14  28  14  29   3
M  END
>  <minimizedAffinity>  (1) 
-4.34424782

>  <minimizedRMSD>  (1) 
1.05998909

$$$$
