
     RDKit          3D

 44 46  0  0  0  0  0  0  0  0999 V2000
   38.8580   24.3170   33.7820 N   0  0  0  0  0  0  0  0  0  0  0  0
   39.0000   23.6430   32.6430 N   0  0  0  0  0  0  0  0  0  0  0  0
   38.6470   24.3950   31.6010 C   0  0  0  0  0  0  0  0  0  0  0  0
   38.2640   25.6120   32.1450 C   0  0  0  0  0  0  0  0  0  0  0  0
   38.3950   25.5690   33.5180 C   0  0  0  0  0  0  0  0  0  0  0  0
   38.0880   23.5560   35.9520 C   0  0  0  0  0  0  0  0  0  0  0  0
   39.1490   23.8020   35.0710 C   0  0  0  0  0  0  0  0  0  0  0  0
   40.4470   23.5470   35.4540 C   0  0  0  0  0  0  0  0  0  0  0  0
   40.6340   23.0530   36.7120 N   0  0  0  0  0  0  0  0  0  0  0  0
   39.6120   22.8180   37.5550 C   0  0  0  0  0  0  0  0  0  0  0  0
   38.3350   23.0700   37.1740 N   0  0  0  0  0  0  0  0  0  0  0  0
   38.0920   26.6380   34.4000 N   0  0  0  0  0  0  0  0  0  0  0  0
   39.0300   27.1150   35.3770 C   0  0  0  0  0  0  0  0  0  0  0  0
   40.2990   27.1170   34.9850 N   0  0  0  0  0  0  0  0  0  0  0  0
   38.5320   27.5280   36.6420 N   0  0  0  0  0  0  0  0  0  0  0  0
   40.9620   27.4730   35.7000 H   0  0  0  0  0  0  0  0  0  0  0  0
   37.8240   26.6590   31.3060 N   0  0  0  0  0  0  0  0  0  0  0  0
   36.5660   27.1580   31.0320 C   0  0  0  0  0  0  0  0  0  0  0  0
   36.7560   28.1970   30.1250 C   0  0  0  0  0  0  0  0  0  0  0  0
   38.0810   28.3120   29.8700 N   0  0  0  0  0  0  0  0  0  0  0  0
   38.7470   27.3660   30.5950 C   0  0  0  0  0  0  0  0  0  0  0  0
   40.2090   27.3410   30.4420 C   0  0  0  0  0  0  0  0  0  0  0  0
   40.6720   26.1980   29.5180 C   0  0  0  0  0  0  0  0  0  0  0  0
   41.0080   27.2140   31.6760 C   0  0  0  0  0  0  0  0  0  0  0  0
   40.5940   28.5980   29.6370 C   0  0  0  0  0  0  0  0  0  0  0  0
   42.2800   29.0840   30.0160 S   0  0  0  0  0  0  0  0  0  0  0  0
   38.6572   24.1115   30.5382 H   0  0  0  0  0  0  0  0  0  0  0  0
   37.0536   23.7620   35.6398 H   0  0  0  0  0  0  0  0  0  0  0  0
   41.2938   23.7330   34.7770 H   0  0  0  0  0  0  0  0  0  0  0  0
   39.8136   22.4188   38.5600 H   0  0  0  0  0  0  0  0  0  0  0  0
   37.1674   27.0875   34.3374 H   0  0  0  0  0  0  0  0  0  0  0  0
   39.1810   27.8748   37.3627 H   0  0  0  0  0  0  0  0  0  0  0  0
   37.5220   27.4806   36.8383 H   0  0  0  0  0  0  0  0  0  0  0  0
   35.6093   26.8065   31.4458 H   0  0  0  0  0  0  0  0  0  0  0  0
   35.9621   28.8206   29.6882 H   0  0  0  0  0  0  0  0  0  0  0  0
   41.0156   25.3497   30.1281 H   0  0  0  0  0  0  0  0  0  0  0  0
   39.8330   25.8770   28.8832 H   0  0  0  0  0  0  0  0  0  0  0  0
   41.4979   26.5514   28.8832 H   0  0  0  0  0  0  0  0  0  0  0  0
   40.3500   27.3186   32.5513 H   0  0  0  0  0  0  0  0  0  0  0  0
   41.4938   26.2274   31.6983 H   0  0  0  0  0  0  0  0  0  0  0  0
   41.7758   28.0014   31.6983 H   0  0  0  0  0  0  0  0  0  0  0  0
   39.9114   29.4201   29.8982 H   0  0  0  0  0  0  0  0  0  0  0  0
   40.5178   28.3738   28.5628 H   0  0  0  0  0  0  0  0  0  0  0  0
   42.4469   29.1321   31.3749 H   0  0  0  0  0  0  0  0  0  0  0  0
  1  7  1  0
  2  1  1  0
  3  4  1  0
  3  2  2  0
  4  5  2  0
  5  1  1  0
  5 12  1  0
  6 11  2  0
  7  8  2  0
  7  6  1  0
  8  9  1  0
  9 10  2  0
 11 10  1  0
 12 13  1  0
 13 15  1  0
 14 13  2  0
 14 16  1  0
 17  4  1  0
 18 17  1  0
 19 18  2  0
 20 19  1  0
 20 21  2  0
 21 17  1  0
 22 21  1  0
 22 24  1  0
 23 22  1  0
 25 26  1  0
 25 22  1  0
  3 27  1  0
  6 28  1  0
  8 29  1  0
 10 30  1  0
 12 31  1  0
 15 32  1  0
 15 33  1  0
 18 34  1  0
 19 35  1  0
 23 36  1  0
 23 37  1  0
 23 38  1  0
 24 39  1  0
 24 40  1  0
 24 41  1  0
 25 42  1  0
 25 43  1  0
 26 44  1  0
M  ISO  8  27  14  28  14  29  14  30  14  34  14  35  14  36   8  37   8
M  ISO  7  38   8  39   8  40   8  41   8  42   8  43   8  44  11
M  END
>  <minimizedAffinity>  (1) 
-4.75522041

>  <minimizedRMSD>  (1) 
0.497947484

$$$$
