
     RDKit          3D

 37 40  0  0  0  0  0  0  0  0999 V2000
   39.8540   22.6040   37.3200 C   0  0  0  0  0  0  0  0  0  0  0  0
   39.2840   23.4090   38.2990 C   0  0  0  0  0  0  0  0  0  0  0  0
   37.9060   23.6600   38.2100 C   0  0  0  0  0  0  0  0  0  0  0  0
   37.2070   23.1190   37.1960 N   0  0  0  0  0  0  0  0  0  0  0  0
   37.8080   22.3310   36.2510 C   0  0  0  0  0  0  0  0  0  0  0  0
   39.1080   22.0890   36.3280 N   0  0  0  0  0  0  0  0  0  0  0  0
   37.1400   21.7290   35.1590 N   0  0  0  0  0  0  0  0  0  0  0  0
   37.5990   21.9140   33.8780 C   0  0  0  0  0  0  0  0  0  0  0  0
   36.8980   21.2960   32.8490 C   0  0  0  0  0  0  0  0  0  0  0  0
   35.7780   20.5210   33.0900 C   0  0  0  0  0  0  0  0  0  0  0  0
   35.1440   19.9610   32.1550 O   0  0  0  0  0  0  0  0  0  0  0  0
   35.3630   20.3680   34.3710 N   0  0  0  0  0  0  0  0  0  0  0  0
   36.0400   20.9670   35.3770 C   0  0  0  0  0  0  0  0  0  0  0  0
   35.6720   20.8360   36.5620 O   0  0  0  0  0  0  0  0  0  0  0  0
   41.1960   22.3650   37.4140 O   0  0  0  0  0  0  0  0  0  0  0  0
   42.1540   22.7680   36.5200 C   0  0  0  0  0  0  0  0  0  0  0  0
   42.2370   24.0120   35.9010 C   0  0  0  0  0  0  0  0  0  0  0  0
   43.3080   24.0500   35.0870 N   0  0  0  0  0  0  0  0  0  0  0  0
   43.9650   22.8660   35.1270 C   0  0  0  0  0  0  0  0  0  0  0  0
   45.0980   22.4030   34.4900 C   0  0  0  0  0  0  0  0  0  0  0  0
   45.5340   21.1180   34.7380 C   0  0  0  0  0  0  0  0  0  0  0  0
   44.8250   20.3110   35.6270 C   0  0  0  0  0  0  0  0  0  0  0  0
   43.6950   20.7940   36.2540 C   0  0  0  0  0  0  0  0  0  0  0  0
   43.2560   22.0810   36.0050 C   0  0  0  0  0  0  0  0  0  0  0  0
   42.9840   19.9290   37.1710 C   0  0  0  0  0  0  0  0  0  0  0  0
   42.9800   18.6810   37.0370 O   0  0  0  0  0  0  0  0  0  0  0  0
   39.8900   23.8335   39.1130 H   0  0  0  0  0  0  0  0  0  0  0  0
   37.4045   24.2904   38.9591 H   0  0  0  0  0  0  0  0  0  0  0  0
   38.4883   22.5284   33.6738 H   0  0  0  0  0  0  0  0  0  0  0  0
   37.2440   21.4271   31.8131 H   0  0  0  0  0  0  0  0  0  0  0  0
   34.5322   19.7956   34.5784 H   0  0  0  0  0  0  0  0  0  0  0  0
   41.5312   24.8417   36.0545 H   0  0  0  0  0  0  0  0  0  0  0  0
   43.5874   24.8610   34.5168 H   0  0  0  0  0  0  0  0  0  0  0  0
   45.6476   23.0516   33.7920 H   0  0  0  0  0  0  0  0  0  0  0  0
   46.4348   20.7326   34.2379 H   0  0  0  0  0  0  0  0  0  0  0  0
   45.1679   19.2855   35.8291 H   0  0  0  0  0  0  0  0  0  0  0  0
   42.4313   20.3781   38.0094 H   0  0  0  0  0  0  0  0  0  0  0  0
  1 15  1  0
  1  2  2  0
  3  2  1  0
  4  3  2  0
  5  6  2  0
  5  4  1  0
  6  1  1  0
  7 13  1  0
  7  5  1  0
  8  7  1  0
  9 10  1  0
  9  8  2  0
 10 12  1  0
 11 10  2  0
 12 13  1  0
 13 14  2  0
 16 15  1  0
 17 16  2  0
 18 19  1  0
 18 17  1  0
 19 24  2  0
 20 21  2  0
 20 19  1  0
 21 22  1  0
 22 23  2  0
 23 25  1  0
 24 23  1  0
 24 16  1  0
 26 25  2  0
  2 27  1  0
  3 28  1  0
  8 29  1  0
  9 30  1  0
 12 31  1  0
 17 32  1  0
 18 33  1  0
 20 34  1  0
 21 35  1  0
 22 36  1  0
 25 37  1  0
M  ISO  8  27  14  28  14  29  14  30  14  31   9  32  14  33   9  34  14
M  ISO  3  35  14  36  14  37   6
M  END
>  <minimizedAffinity>  (1) 
-5.85730028

>  <minimizedRMSD>  (1) 
1.06094873

$$$$
