
     RDKit          3D

 24 26  0  0  0  0  0  0  0  0999 V2000
   37.8770   25.4510   34.9440 C   0  0  0  0  0  0  0  0  0  0  0  0
   37.4310   26.7590   35.1400 C   0  0  0  0  0  0  0  0  0  0  0  0
   36.8880   27.4260   34.0960 C   0  0  0  0  0  0  0  0  0  0  0  0
   36.8090   26.7420   32.8610 C   0  0  0  0  0  0  0  0  0  0  0  0
   37.5490   25.0680   33.2190 S   0  0  0  0  0  0  0  0  0  0  0  0
   37.8960   24.3440   37.1960 C   0  0  0  0  0  0  0  0  0  0  0  0
   38.4700   24.5850   35.9170 C   0  0  0  0  0  0  0  0  0  0  0  0
   39.6440   23.9690   35.5780 C   0  0  0  0  0  0  0  0  0  0  0  0
   40.2320   23.1390   36.4770 N   0  0  0  0  0  0  0  0  0  0  0  0
   39.6720   22.9130   37.7040 C   0  0  0  0  0  0  0  0  0  0  0  0
   38.5190   23.5170   38.0390 N   0  0  0  0  0  0  0  0  0  0  0  0
   36.3270   27.0880   31.5910 C   0  0  0  0  0  0  0  0  0  0  0  0
   35.5850   26.3160   30.9680 O   0  0  0  0  0  0  0  0  0  0  0  0
   36.6680   28.3520   30.9450 C   0  0  0  0  0  0  0  0  0  0  0  0
   36.6890   29.6060   31.4340 N   0  0  0  0  0  0  0  0  0  0  0  0
   37.0520   30.4490   30.5170 O   0  0  0  0  0  0  0  0  0  0  0  0
   37.2890   29.7990   29.3800 C   0  0  0  0  0  0  0  0  0  0  0  0
   37.0460   28.5030   29.6590 N   0  0  0  0  0  0  0  0  0  0  0  0
   37.5195   27.2388   36.1259 H   0  0  0  0  0  0  0  0  0  0  0  0
   36.5229   28.4581   34.2034 H   0  0  0  0  0  0  0  0  0  0  0  0
   36.9535   24.8314   37.4860 H   0  0  0  0  0  0  0  0  0  0  0  0
   40.1034   24.1434   34.5939 H   0  0  0  0  0  0  0  0  0  0  0  0
   40.1655   22.2364   38.4172 H   0  0  0  0  0  0  0  0  0  0  0  0
   37.6132   30.2271   28.4200 H   0  0  0  0  0  0  0  0  0  0  0  0
  1  2  2  0
  1  7  1  0
  3  2  1  0
  4  5  1  0
  4  3  2  0
  5  1  1  0
  6 11  2  0
  7  6  1  0
  8  7  2  0
  8  9  1  0
  9 10  2  0
 10 11  1  0
 12  4  1  0
 13 12  2  0
 14 15  2  0
 14 12  1  0
 16 15  1  0
 17 18  2  0
 17 16  1  0
 18 14  1  0
  2 19  1  0
  3 20  1  0
  6 21  1  0
  8 22  1  0
 10 23  1  0
 17 24  1  0
M  ISO  6  19  14  20  14  21  14  22  14  23  14  24  14
M  END
>  <minimizedAffinity>  (1) 
-4.56949234

>  <minimizedRMSD>  (1) 
0.678756237

$$$$
