
     RDKit          3D

 29 31  0  0  0  0  0  0  0  0999 V2000
   37.8753   23.6972   33.5013 C   0  0  0  0  0  0  0  0  0  0  0  0
   37.4683   22.6589   32.6635 C   0  0  0  0  0  0  0  0  0  0  0  0
   37.4781   21.5656   33.4831 N   0  0  0  0  0  0  0  0  0  0  0  0
   37.8647   21.9669   34.6954 C   0  0  0  0  0  0  0  0  0  0  0  0
   38.1129   23.2709   34.7287 N   0  0  0  0  0  0  0  0  0  0  0  0
   38.0268   25.0763   33.0793 C   0  0  0  0  0  0  0  0  0  0  0  0
   39.3047   25.5871   32.7713 C   0  0  0  0  0  0  0  0  0  0  0  0
   39.3854   26.9356   32.3604 C   0  0  0  0  0  0  0  0  0  0  0  0
   38.2332   27.6559   32.2872 N   0  0  0  0  0  0  0  0  0  0  0  0
   37.0224   27.1242   32.5933 C   0  0  0  0  0  0  0  0  0  0  0  0
   36.9057   25.8479   32.9869 N   0  0  0  0  0  0  0  0  0  0  0  0
   38.5411   23.9457   35.8979 C   0  0  1  0  0  0  0  0  0  0  0  0
   38.0904   25.2298   36.3620 C   0  0  0  0  0  0  0  0  0  0  0  0
   37.5616   23.9204   37.0281 C   0  0  2  0  0  0  0  0  0  0  0  0
   38.1139   23.7683   38.4264 C   0  0  0  0  0  0  0  0  0  0  0  0
   37.5131   22.7065   39.0656 F   0  0  0  0  0  0  0  0  0  0  0  0
   39.5073   23.3384   38.3061 F   0  0  0  0  0  0  0  0  0  0  0  0
   38.1420   24.9023   39.1403 F   0  0  0  0  0  0  0  0  0  0  0  0
   37.2047   22.7170   31.5985 H   0  0  0  0  0  0  0  0  0  0  0  0
   37.9390   21.2296   35.5084 H   0  0  0  0  0  0  0  0  0  0  0  0
   40.1058   24.9011   32.8773 H   0  0  0  0  0  0  0  0  0  0  0  0
   40.3585   27.2969   32.1324 H   0  0  0  0  0  0  0  0  0  0  0  0
   36.2026   27.8201   32.4863 H   0  0  0  0  0  0  0  0  0  0  0  0
   39.6103   23.6787   36.1627 H   0  0  0  0  0  0  0  0  0  0  0  0
   38.7647   25.8514   36.9942 H   0  0  0  0  0  0  0  0  0  0  0  0
   37.3001   25.8260   35.8949 H   0  0  0  0  0  0  0  0  0  0  0  0
   36.0653   23.9481   36.9400 C   0  0  0  0  0  0  0  0  0  0  0  0
   35.2710   23.8442   37.6520 H   0  0  0  0  0  0  0  0  0  0  0  0
   35.8042   24.1351   35.7410 O   0  0  0  0  0  0  0  0  0  0  0  0
  1  5  1  0
  2  3  1  0
  2  1  2  0
  3  4  2  0
  4  5  1  0
  5 12  1  0
  6  1  1  0
  7  6  2  0
  8  7  1  0
  9  8  2  0
  9 10  1  0
 10 11  2  0
 11  6  1  0
 12 13  1  0
 12 14  1  0
 13 14  1  0
 14 15  1  1
 15 16  1  0
 15 18  1  0
 17 15  1  0
  2 19  1  0
  4 20  1  0
  7 21  1  0
  8 22  1  0
 10 23  1  0
 12 24  1  1
 13 25  1  0
 13 26  1  0
 27 28  1  0
 27 29  2  0
 14 27  1  0
M  ISO  8  19  14  20  14  21  14  22  14  23  14  24  13  25  13  26  13
M  ISO  1  28   6
M  END
>  <DihAtoms>  (1) 
11,13,26,27

>  <DihDeg>  (1) 
-21.801527972355093

$$$$
