
     RDKit          3D

 26 27  0  0  1  0  0  0  0  0999 V2000
   39.8450   22.7220   37.0850 C   0  0  0  0  0  0  0  0  0  0  0  0
   39.0430   23.2490   38.1290 C   0  0  0  0  0  0  0  0  0  0  0  0
   37.6660   23.2580   37.9380 C   0  0  0  0  0  0  0  0  0  0  0  0
   37.1720   22.7640   36.7700 N   0  0  0  0  0  0  0  0  0  0  0  0
   37.9640   22.2650   35.7870 C   0  0  0  0  0  0  0  0  0  0  0  0
   39.3100   22.2490   35.9560 N   0  0  0  0  0  0  0  0  0  0  0  0
   37.3460   21.7710   34.6030 N   0  0  0  0  0  0  0  0  0  0  0  0
   36.1620   20.9550   34.7680 C   0  0  0  0  0  0  0  0  0  0  0  0
   35.4470   20.7020   33.4760 C   0  0  0  0  0  0  0  0  0  0  0  0
   35.6560   21.7910   32.5850 N   0  0  0  0  0  0  0  0  0  0  0  0
   37.0740   21.7390   32.1680 C   0  0  0  0  0  0  0  0  0  0  0  0
   37.9600   22.1340   33.3220 C   0  0  2  0  0  0  0  0  0  0  0  0
   39.2980   21.4730   33.2190 C   0  0  0  0  0  0  0  0  0  0  0  0
   39.5770   20.4950   32.5160 O   0  0  0  0  0  0  0  0  0  0  0  0
   40.9379   22.7021   37.2082 H   0  0  0  0  0  0  0  0  0  0  0  0
   39.4934   23.6360   39.0549 H   0  0  0  0  0  0  0  0  0  0  0  0
   36.9923   23.6546   38.7118 H   0  0  0  0  0  0  0  0  0  0  0  0
   36.4589   19.9882   35.2006 H   0  0  0  0  0  0  0  0  0  0  0  0
   35.4718   21.5021   35.4270 H   0  0  0  0  0  0  0  0  0  0  0  0
   35.8335   19.7785   33.0201 H   0  0  0  0  0  0  0  0  0  0  0  0
   34.3699   20.5972   33.6730 H   0  0  0  0  0  0  0  0  0  0  0  0
   35.0416   21.6993   31.7634 H   0  0  0  0  0  0  0  0  0  0  0  0
   37.3237   20.7163   31.8492 H   0  0  0  0  0  0  0  0  0  0  0  0
   37.2329   22.4366   31.3325 H   0  0  0  0  0  0  0  0  0  0  0  0
   38.0885   23.2255   33.2768 H   0  0  0  0  0  0  0  0  0  0  0  0
   40.1109   21.8974   33.8265 H   0  0  0  0  0  0  0  0  0  0  0  0
  1  2  2  0
  3  2  1  0
  4  3  2  0
  5  6  2  0
  5  4  1  0
  6  1  1  0
  7  8  1  0
  7  5  1  0
  9  8  1  0
 10  9  1  0
 11 10  1  0
 11 12  1  0
 12  7  1  0
 13 12  1  0
 14 13  2  0
  1 15  1  0
  2 16  1  0
  3 17  1  0
  8 18  1  0
  8 19  1  0
  9 20  1  0
  9 21  1  0
 10 22  1  0
 11 23  1  0
 11 24  1  0
 12 25  1  1
 13 26  1  0
M  ISO  8  15  14  16  14  17  14  18  13  19  13  20  13  21  13  22   5
M  ISO  4  23  13  24  13  25  13  26   6
M  END
>  <minimizedAffinity>  (1) 
-3.83120489

>  <minimizedRMSD>  (1) 
0.343437821

$$$$
