
     RDKit          3D

 58 60  0  0  1  0  0  0  0  0999 V2000
   60.7070   60.2790   24.4790 N   0  0  0  0  0  0  0  0  0  0  0  0
   59.7520   59.7380   23.6880 C   0  0  0  0  0  0  0  0  0  0  0  0
   59.4600   58.2960   24.0510 C   0  0  0  0  0  0  0  0  0  0  0  0
   59.3650   58.0150   25.4950 C   0  0  2  0  0  0  0  0  0  0  0  0
   60.3410   58.7460   26.3110 C   0  0  0  0  0  0  0  0  0  0  0  0
   60.5030   60.1770   25.8810 C   0  0  2  0  0  0  0  0  0  0  0  0
   59.5820   56.5870   25.6490 N   0  0  0  0  0  0  0  0  0  0  0  0
   60.8280   56.1000   25.3520 C   0  0  0  0  0  0  0  0  0  0  0  0
   61.4910   55.6250   26.6130 C   0  0  0  0  0  0  0  0  0  0  0  0
   64.9630   56.9350   26.1000 C   0  0  0  0  0  0  0  0  0  0  0  0
   63.6840   56.3900   25.8770 C   0  0  0  0  0  0  0  0  0  0  0  0
   62.8190   56.1960   26.9040 C   0  0  0  0  0  0  0  0  0  0  0  0
   63.2350   56.5440   28.1320 N   0  0  0  0  0  0  0  0  0  0  0  0
   64.4460   57.0620   28.3660 C   0  0  0  0  0  0  0  0  0  0  0  0
   65.3050   57.2570   27.3570 N   0  0  0  0  0  0  0  0  0  0  0  0
   65.5560   57.9920   32.3420 C   0  0  0  0  0  0  0  0  0  0  0  0
   64.3230   58.3700   31.8570 C   0  0  0  0  0  0  0  0  0  0  0  0
   63.9280   58.0830   30.5600 C   0  0  0  0  0  0  0  0  0  0  0  0
   64.7900   57.4040   29.7460 C   0  0  0  0  0  0  0  0  0  0  0  0
   66.0250   57.0230   30.2290 C   0  0  0  0  0  0  0  0  0  0  0  0
   66.4340   57.3090   31.5360 C   0  0  0  0  0  0  0  0  0  0  0  0
   66.1370   58.3110   33.9590 S   0  0  0  0  0  0  0  0  0  0  0  0
   67.2250   57.2830   34.2220 O   0  0  0  0  0  0  0  0  0  0  0  0
   65.0570   58.2390   34.9750 O   0  0  0  0  0  0  0  0  0  0  0  0
   59.5410   61.1360   26.4950 C   0  0  0  0  0  0  0  0  0  0  0  0
   60.0940   62.0800   27.5120 C   0  0  0  0  0  0  0  0  0  0  0  0
   58.9730   62.0350   25.3760 C   0  0  0  0  0  0  0  0  0  0  0  0
   58.3970   60.4020   27.0990 C   0  0  0  0  0  0  0  0  0  0  0  0
   60.7768   61.2797   24.2451 H   0  0  0  0  0  0  0  0  0  0  0  0
   60.0924   59.7786   22.6428 H   0  0  0  0  0  0  0  0  0  0  0  0
   58.8273   60.3167   23.8296 H   0  0  0  0  0  0  0  0  0  0  0  0
   58.5027   58.0163   23.5870 H   0  0  0  0  0  0  0  0  0  0  0  0
   60.3163   57.7113   23.6838 H   0  0  0  0  0  0  0  0  0  0  0  0
   58.3781   58.3453   25.8513 H   0  0  0  0  0  0  0  0  0  0  0  0
   60.0061   58.7294   27.3586 H   0  0  0  0  0  0  0  0  0  0  0  0
   61.3150   58.2501   26.1865 H   0  0  0  0  0  0  0  0  0  0  0  0
   61.4407   60.5416   26.3257 H   0  0  0  0  0  0  0  0  0  0  0  0
   59.3841   56.3492   26.6314 H   0  0  0  0  0  0  0  0  0  0  0  0
   60.7356   55.2605   24.6472 H   0  0  0  0  0  0  0  0  0  0  0  0
   61.4345   56.8959   24.8951 H   0  0  0  0  0  0  0  0  0  0  0  0
   60.8275   55.8720   27.4548 H   0  0  0  0  0  0  0  0  0  0  0  0
   61.6583   54.5472   26.4702 H   0  0  0  0  0  0  0  0  0  0  0  0
   65.6630   57.0926   25.2662 H   0  0  0  0  0  0  0  0  0  0  0  0
   63.3817   56.1175   24.8551 H   0  0  0  0  0  0  0  0  0  0  0  0
   63.6328   58.9149   32.5178 H   0  0  0  0  0  0  0  0  0  0  0  0
   62.9394   58.3959   30.1929 H   0  0  0  0  0  0  0  0  0  0  0  0
   66.7105   56.4765   29.5647 H   0  0  0  0  0  0  0  0  0  0  0  0
   67.4227   56.9983   31.9048 H   0  0  0  0  0  0  0  0  0  0  0  0
   66.6215   59.5889   34.0545 H   0  0  0  0  0  0  0  0  0  0  0  0
   59.8728   61.7025   28.5212 H   0  0  0  0  0  0  0  0  0  0  0  0
   61.1832   62.1624   27.3818 H   0  0  0  0  0  0  0  0  0  0  0  0
   59.6332   63.0703   27.3818 H   0  0  0  0  0  0  0  0  0  0  0  0
   58.4365   62.8841   25.8246 H   0  0  0  0  0  0  0  0  0  0  0  0
   59.7981   62.4105   24.7530 H   0  0  0  0  0  0  0  0  0  0  0  0
   58.2796   61.4510   24.7530 H   0  0  0  0  0  0  0  0  0  0  0  0
   58.4694   60.4485   28.1956 H   0  0  0  0  0  0  0  0  0  0  0  0
   57.4527   60.8633   26.7740 H   0  0  0  0  0  0  0  0  0  0  0  0
   58.4228   59.3514   26.7740 H   0  0  0  0  0  0  0  0  0  0  0  0
  1  6  1  0
  2  3  1  0
  2  1  1  0
  3  4  1  0
  4  7  1  0
  4  5  1  0
  6  5  1  0
  6 25  1  0
  8  7  1  0
  8  9  1  0
  9 12  1  0
 10 15  2  0
 11 10  1  0
 11 12  2  0
 12 13  1  0
 13 14  2  0
 14 19  1  0
 15 14  1  0
 16 22  1  0
 17 16  2  0
 18 17  1  0
 19 20  1  0
 19 18  2  0
 20 21  2  0
 21 16  1  0
 22 23  2  0
 22 24  2  0
 25 28  1  0
 25 26  1  0
 27 25  1  0
  1 29  1  0
  2 30  1  0
  2 31  1  0
  3 32  1  0
  3 33  1  0
  4 34  1  1
  5 35  1  0
  5 36  1  0
  6 37  1  1
  7 38  1  0
  8 39  1  0
  8 40  1  0
  9 41  1  0
  9 42  1  0
 10 43  1  0
 11 44  1  0
 17 45  1  0
 18 46  1  0
 20 47  1  0
 21 48  1  0
 22 49  1  0
 26 50  1  0
 26 51  1  0
 26 52  1  0
 27 53  1  0
 27 54  1  0
 27 55  1  0
 28 56  1  0
 28 57  1  0
 28 58  1  0
M  END
>  <Score>  (1) 
-7.0611

$$$$
