
     RDKit          3D

 45 48  0  0  0  0  0  0  0  0999 V2000
   62.0020   55.8220   27.4050 C   0  0  0  0  0  0  0  0  0  0  0  0
   63.1660   56.4400   27.9970 N   0  0  0  0  0  0  0  0  0  0  0  0
   64.0730   57.0700   27.2520 C   0  0  0  0  0  0  0  0  0  0  0  0
   65.1010   57.4220   28.0150 N   0  0  0  0  0  0  0  0  0  0  0  0
   64.7160   57.2280   29.3030 C   0  0  0  0  0  0  0  0  0  0  0  0
   63.5320   56.6040   29.2610 N   0  0  0  0  0  0  0  0  0  0  0  0
   65.1840   57.4840   30.6860 C   0  0  0  0  0  0  0  0  0  0  0  0
   64.4570   58.1200   31.6640 C   0  0  0  0  0  0  0  0  0  0  0  0
   65.0220   58.2890   32.9100 C   0  0  0  0  0  0  0  0  0  0  0  0
   66.2930   57.8130   33.1190 C   0  0  0  0  0  0  0  0  0  0  0  0
   67.0430   57.1700   32.1490 C   0  0  0  0  0  0  0  0  0  0  0  0
   66.4610   57.0040   30.8910 C   0  0  0  0  0  0  0  0  0  0  0  0
   61.9360   56.0660   25.8980 C   0  0  0  0  0  0  0  0  0  0  0  0
   60.7700   56.9780   25.6830 C   0  0  0  0  0  0  0  0  0  0  0  0
   60.7190   58.2930   26.1490 C   0  0  0  0  0  0  0  0  0  0  0  0
   59.5570   59.0110   25.8640 C   0  0  0  0  0  0  0  0  0  0  0  0
   58.5690   58.4240   25.1750 N   0  0  0  0  0  0  0  0  0  0  0  0
   58.6550   57.1540   24.7430 C   0  0  0  0  0  0  0  0  0  0  0  0
   59.7610   56.4200   24.9960 N   0  0  0  0  0  0  0  0  0  0  0  0
   57.5630   56.5720   24.0070 N   0  0  0  0  0  0  0  0  0  0  0  0
   56.2670   56.6970   24.3170 C   0  0  0  0  0  0  0  0  0  0  0  0
   55.3330   56.0750   23.5070 C   0  0  0  0  0  0  0  0  0  0  0  0
   55.7120   55.3450   22.4060 C   0  0  0  0  0  0  0  0  0  0  0  0
   54.7870   54.6930   21.5510 N   0  0  0  0  0  0  0  0  0  0  0  0
   57.0120   55.2330   22.1130 N   0  0  0  0  0  0  0  0  0  0  0  0
   57.9080   55.8420   22.9100 C   0  0  0  0  0  0  0  0  0  0  0  0
   59.1380   55.7100   22.5950 O   0  0  0  0  0  0  0  0  0  0  0  0
   62.0416   54.7382   27.5890 H   0  0  0  0  0  0  0  0  0  0  0  0
   61.1071   56.2679   27.8636 H   0  0  0  0  0  0  0  0  0  0  0  0
   64.4215   56.3995   26.4526 H   0  0  0  0  0  0  0  0  0  0  0  0
   63.6222   57.9681   26.8045 H   0  0  0  0  0  0  0  0  0  0  0  0
   62.9902   56.2990   30.0822 H   0  0  0  0  0  0  0  0  0  0  0  0
   63.4415   58.4879   31.4559 H   0  0  0  0  0  0  0  0  0  0  0  0
   64.4687   58.7924   33.7165 H   0  0  0  0  0  0  0  0  0  0  0  0
   66.7410   57.9505   34.1142 H   0  0  0  0  0  0  0  0  0  0  0  0
   68.0584   56.8040   32.3614 H   0  0  0  0  0  0  0  0  0  0  0  0
   67.0090   56.5012   30.0805 H   0  0  0  0  0  0  0  0  0  0  0  0
   62.8637   56.5409   25.5460 H   0  0  0  0  0  0  0  0  0  0  0  0
   61.8218   55.1248   25.3403 H   0  0  0  0  0  0  0  0  0  0  0  0
   61.5518   58.7400   26.7117 H   0  0  0  0  0  0  0  0  0  0  0  0
   59.4527   60.0523   26.2028 H   0  0  0  0  0  0  0  0  0  0  0  0
   55.9517   57.2803   25.1947 H   0  0  0  0  0  0  0  0  0  0  0  0
   54.2641   56.1669   23.7497 H   0  0  0  0  0  0  0  0  0  0  0  0
   55.1254   54.1583   20.7383 H   0  0  0  0  0  0  0  0  0  0  0  0
   53.7769   54.7543   21.7428 H   0  0  0  0  0  0  0  0  0  0  0  0
  1  2  1  0
  2  6  1  0
  3  2  1  0
  3  4  1  0
  4  5  2  0
  5  7  1  0
  6  5  1  0
  7 12  1  0
  7  8  2  0
  8  9  1  0
  9 10  2  0
 11 10  1  0
 12 11  2  0
 13  1  1  0
 14 13  1  0
 14 15  2  0
 16 15  1  0
 17 16  2  0
 18 19  2  0
 18 17  1  0
 19 14  1  0
 20 21  1  0
 20 18  1  0
 22 21  2  0
 23 22  1  0
 24 23  1  0
 25 23  2  0
 25 26  1  0
 26 20  1  0
 27 26  2  0
  1 28  1  0
  1 29  1  0
  3 30  1  0
  3 31  1  0
  6 32  1  0
  8 33  1  0
  9 34  1  0
 10 35  1  0
 11 36  1  0
 12 37  1  0
 13 38  1  0
 13 39  1  0
 15 40  1  0
 16 41  1  0
 21 42  1  0
 22 43  1  0
 24 44  1  0
 24 45  1  0
M  END
>  <Score>  (1) 
-7.34029

$$$$
