
     RDKit          3D

 32 35  0  0  0  0  0  0  0  0999 V2000
   65.1350   56.8510   26.1090 C   0  0  0  0  0  0  0  0  0  0  0  0
   63.7970   56.7680   25.6950 C   0  0  0  0  0  0  0  0  0  0  0  0
   62.7870   56.9350   26.6610 C   0  0  0  0  0  0  0  0  0  0  0  0
   63.2470   57.1640   27.9100 N   0  0  0  0  0  0  0  0  0  0  0  0
   64.5060   57.2430   28.2980 C   0  0  0  0  0  0  0  0  0  0  0  0
   65.4650   57.0850   27.3940 N   0  0  0  0  0  0  0  0  0  0  0  0
   61.4530   56.8340   26.1540 C   0  0  0  0  0  0  0  0  0  0  0  0
   60.8570   55.6440   25.9820 N   0  0  0  0  0  0  0  0  0  0  0  0
   59.6170   55.4640   25.5160 C   0  0  0  0  0  0  0  0  0  0  0  0
   58.8320   56.4980   25.1640 N   0  0  0  0  0  0  0  0  0  0  0  0
   59.3290   57.7490   25.2950 C   0  0  0  0  0  0  0  0  0  0  0  0
   58.5670   58.8440   24.9510 C   0  0  0  0  0  0  0  0  0  0  0  0
   59.0600   60.1270   25.0780 C   0  0  0  0  0  0  0  0  0  0  0  0
   60.3600   60.2810   25.5690 C   0  0  0  0  0  0  0  0  0  0  0  0
   61.0680   59.1480   25.8950 C   0  0  0  0  0  0  0  0  0  0  0  0
   60.6110   57.8560   25.7820 C   0  0  0  0  0  0  0  0  0  0  0  0
   64.8100   57.4800   29.6980 C   0  0  0  0  0  0  0  0  0  0  0  0
   63.9470   58.1370   30.5310 C   0  0  0  0  0  0  0  0  0  0  0  0
   64.3380   58.3020   31.8410 C   0  0  0  0  0  0  0  0  0  0  0  0
   65.5080   57.8550   32.3250 N   0  0  0  0  0  0  0  0  0  0  0  0
   66.3490   57.2120   31.4960 C   0  0  0  0  0  0  0  0  0  0  0  0
   65.9930   57.0330   30.2060 N   0  0  0  0  0  0  0  0  0  0  0  0
   65.9351   56.7217   25.3653 H   0  0  0  0  0  0  0  0  0  0  0  0
   63.5436   56.5772   24.6417 H   0  0  0  0  0  0  0  0  0  0  0  0
   59.2272   54.4401   25.4175 H   0  0  0  0  0  0  0  0  0  0  0  0
   57.5469   58.6931   24.5681 H   0  0  0  0  0  0  0  0  0  0  0  0
   58.4500   60.9998   24.8019 H   0  0  0  0  0  0  0  0  0  0  0  0
   60.8039   61.2800   25.6911 H   0  0  0  0  0  0  0  0  0  0  0  0
   62.0890   59.2875   26.2797 H   0  0  0  0  0  0  0  0  0  0  0  0
   62.9804   58.5179   30.1695 H   0  0  0  0  0  0  0  0  0  0  0  0
   63.6566   58.8272   32.5264 H   0  0  0  0  0  0  0  0  0  0  0  0
   67.3151   56.8365   31.8643 H   0  0  0  0  0  0  0  0  0  0  0  0
  1  6  2  0
  2  1  1  0
  2  3  2  0
  3  4  1  0
  4  5  2  0
  5 17  1  0
  6  5  1  0
  7  3  1  0
  8  7  2  0
  9  8  1  0
 10 11  1  0
 10  9  2  0
 11 16  2  0
 12 13  2  0
 12 11  1  0
 13 14  1  0
 14 15  2  0
 16 15  1  0
 16  7  1  0
 17 22  1  0
 17 18  2  0
 18 19  1  0
 19 20  2  0
 21 20  1  0
 22 21  2  0
  1 23  1  0
  2 24  1  0
  9 25  1  0
 12 26  1  0
 13 27  1  0
 14 28  1  0
 15 29  1  0
 18 30  1  0
 19 31  1  0
 21 32  1  0
M  END
>  <Score>  (1) 
-7.04815

$$$$
