
     RDKit          3D

 42 45  0  0  1  0  0  0  0  0999 V2000
   63.4970   56.7550   26.7870 C   0  0  0  0  0  0  0  0  0  0  0  0
   62.1640   57.1130   26.9090 C   0  0  0  0  0  0  0  0  0  0  0  0
   61.7940   57.8110   28.0560 C   0  0  0  0  0  0  0  0  0  0  0  0
   62.7290   58.1110   28.9910 N   0  0  0  0  0  0  0  0  0  0  0  0
   64.0250   57.7460   28.8400 C   0  0  0  0  0  0  0  0  0  0  0  0
   64.3950   57.0720   27.7420 N   0  0  0  0  0  0  0  0  0  0  0  0
   65.0450   58.0360   29.7910 N   0  0  0  0  0  0  0  0  0  0  0  0
   65.9440   57.0770   30.1160 C   0  0  0  0  0  0  0  0  0  0  0  0
   66.8120   57.5740   31.0310 N   0  0  0  0  0  0  0  0  0  0  0  0
   66.4240   58.8470   31.2550 C   0  0  0  0  0  0  0  0  0  0  0  0
   66.8720   59.8850   32.0560 C   0  0  0  0  0  0  0  0  0  0  0  0
   67.8830   59.6500   32.7800 O   0  0  0  0  0  0  0  0  0  0  0  0
   66.2330   61.0800   32.0440 N   0  0  0  0  0  0  0  0  0  0  0  0
   65.1590   61.3180   31.2720 C   0  0  0  0  0  0  0  0  0  0  0  0
   64.6240   62.6290   31.3920 N   0  0  0  0  0  0  0  0  0  0  0  0
   64.6860   60.3420   30.4750 N   0  0  0  0  0  0  0  0  0  0  0  0
   65.3180   59.1540   30.4860 C   0  0  0  0  0  0  0  0  0  0  0  0
   61.1770   56.8130   25.9490 N   0  0  0  0  0  0  0  0  0  0  0  0
   60.4830   55.5680   25.9270 C   0  0  0  0  0  0  0  0  0  0  0  0
   59.2970   55.4990   25.0570 C   0  0  0  0  0  0  0  0  0  0  0  0
   58.5200   56.7350   24.8580 C   0  0  0  0  0  0  0  0  0  0  0  0
   59.2700   57.9980   25.2210 C   0  0  0  0  0  0  0  0  0  0  0  0
   60.7460   57.6990   24.8910 C   0  0  1  0  0  0  0  0  0  0  0  0
   61.4290   59.0290   24.8550 C   0  0  0  0  0  0  0  0  0  0  0  0
   61.1400   59.6940   26.0650 F   0  0  0  0  0  0  0  0  0  0  0  0
   62.7960   58.8170   24.8810 F   0  0  0  0  0  0  0  0  0  0  0  0
   61.0770   59.8380   23.8260 F   0  0  0  0  0  0  0  0  0  0  0  0
   63.8287   56.2025   25.8955 H   0  0  0  0  0  0  0  0  0  0  0  0
   60.7478   58.1176   28.2027 H   0  0  0  0  0  0  0  0  0  0  0  0
   65.9664   56.0575   29.7035 H   0  0  0  0  0  0  0  0  0  0  0  0
   66.5841   61.8352   32.6501 H   0  0  0  0  0  0  0  0  0  0  0  0
   63.7998   62.9016   30.8377 H   0  0  0  0  0  0  0  0  0  0  0  0
   65.0604   63.3066   32.0333 H   0  0  0  0  0  0  0  0  0  0  0  0
   61.1905   54.7955   25.5914 H   0  0  0  0  0  0  0  0  0  0  0  0
   60.1058   55.4237   26.9502 H   0  0  0  0  0  0  0  0  0  0  0  0
   59.6355   55.1608   24.0665 H   0  0  0  0  0  0  0  0  0  0  0  0
   58.6082   54.8191   25.5798 H   0  0  0  0  0  0  0  0  0  0  0  0
   58.2324   56.7960   23.7980 H   0  0  0  0  0  0  0  0  0  0  0  0
   57.6509   56.6765   25.5298 H   0  0  0  0  0  0  0  0  0  0  0  0
   58.9058   58.8479   24.6252 H   0  0  0  0  0  0  0  0  0  0  0  0
   59.1314   58.2698   26.2778 H   0  0  0  0  0  0  0  0  0  0  0  0
   60.9573   57.2083   23.9295 H   0  0  0  0  0  0  0  0  0  0  0  0
  1  2  2  0
  1  6  1  0
  2  3  1  0
  3  4  2  0
  5  4  1  0
  5  7  1  0
  6  5  2  0
  7  8  1  0
  7 17  1  0
  8  9  2  0
  9 10  1  0
 10 11  1  0
 11 12  2  0
 13 11  1  0
 14 15  1  0
 14 13  1  0
 16 17  1  0
 16 14  2  0
 17 10  2  0
 18  2  1  0
 19 18  1  0
 20 19  1  0
 21 20  1  0
 21 22  1  0
 23 22  1  0
 23 18  1  0
 24 26  1  0
 24 23  1  0
 24 25  1  0
 27 24  1  0
  1 28  1  0
  3 29  1  0
  8 30  1  0
 13 31  1  0
 15 32  1  0
 15 33  1  0
 19 34  1  0
 19 35  1  0
 20 36  1  0
 20 37  1  0
 21 38  1  0
 21 39  1  0
 22 40  1  0
 22 41  1  0
 23 42  1  6
M  END
>  <Score>  (1) 
-7.01224

$$$$
