
     RDKit          3D

 35 36  0  0  1  0  0  0  0  0999 V2000
   61.1370   56.8270   25.7560 N   0  0  0  0  0  0  0  0  0  0  0  0
   60.4110   55.5950   25.7030 C   0  0  0  0  0  0  0  0  0  0  0  0
   59.0660   55.6680   25.0980 C   0  0  0  0  0  0  0  0  0  0  0  0
   58.3150   56.9320   25.2500 C   0  0  0  0  0  0  0  0  0  0  0  0
   59.1710   58.1150   25.6240 C   0  0  0  0  0  0  0  0  0  0  0  0
   60.5390   57.8680   24.9550 C   0  0  1  0  0  0  0  0  0  0  0  0
   63.5930   56.8520   26.0160 C   0  0  0  0  0  0  0  0  0  0  0  0
   62.3100   56.9690   26.5240 C   0  0  0  0  0  0  0  0  0  0  0  0
   62.1930   57.2460   27.8850 C   0  0  0  0  0  0  0  0  0  0  0  0
   63.3230   57.3820   28.6190 N   0  0  0  0  0  0  0  0  0  0  0  0
   64.5500   57.2680   28.1140 C   0  0  0  0  0  0  0  0  0  0  0  0
   64.6730   57.0010   26.8020 N   0  0  0  0  0  0  0  0  0  0  0  0
   65.7360   57.4110   28.8870 N   0  0  0  0  0  0  0  0  0  0  0  0
   65.7250   57.0630   30.2650 C   0  0  0  0  0  0  0  0  0  0  0  0
   64.7020   57.3010   30.9890 N   0  0  0  0  0  0  0  0  0  0  0  0
   66.8630   56.4400   30.8610 N   0  0  0  0  0  0  0  0  0  0  0  0
   63.8130   57.7330   30.7430 H   0  0  0  0  0  0  0  0  0  0  0  0
   61.2450   59.1820   24.9780 C   0  0  0  0  0  0  0  0  0  0  0  0
   61.2480   59.6530   26.3020 F   0  0  0  0  0  0  0  0  0  0  0  0
   62.5780   58.9490   24.6730 F   0  0  0  0  0  0  0  0  0  0  0  0
   60.7220   60.1420   24.1760 F   0  0  0  0  0  0  0  0  0  0  0  0
   61.0057   54.8776   25.1185 H   0  0  0  0  0  0  0  0  0  0  0  0
   60.2523   55.2961   26.7497 H   0  0  0  0  0  0  0  0  0  0  0  0
   58.4590   54.8684   25.5477 H   0  0  0  0  0  0  0  0  0  0  0  0
   59.2410   55.5754   24.0160 H   0  0  0  0  0  0  0  0  0  0  0  0
   57.8163   57.1545   24.2951 H   0  0  0  0  0  0  0  0  0  0  0  0
   57.6039   56.7813   26.0756 H   0  0  0  0  0  0  0  0  0  0  0  0
   58.7229   59.0467   25.2484 H   0  0  0  0  0  0  0  0  0  0  0  0
   59.2653   58.2194   26.7150 H   0  0  0  0  0  0  0  0  0  0  0  0
   60.5381   57.5344   23.9068 H   0  0  0  0  0  0  0  0  0  0  0  0
   63.7310   56.6326   24.9470 H   0  0  0  0  0  0  0  0  0  0  0  0
   61.2033   57.3520   28.3533 H   0  0  0  0  0  0  0  0  0  0  0  0
   66.5988   57.7652   28.4498 H   0  0  0  0  0  0  0  0  0  0  0  0
   66.8491   56.1901   31.8601 H   0  0  0  0  0  0  0  0  0  0  0  0
   67.6979   56.2404   30.2918 H   0  0  0  0  0  0  0  0  0  0  0  0
  1  8  1  0
  2  1  1  0
  3  4  1  0
  3  2  1  0
  4  5  1  0
  6 18  1  0
  6  5  1  0
  6  1  1  0
  7  8  2  0
  7 12  1  0
  8  9  1  0
  9 10  2  0
 11 10  1  0
 11 13  1  0
 12 11  2  0
 13 14  1  0
 14 16  1  0
 14 15  2  0
 17 15  1  0
 18 19  1  0
 20 18  1  0
 21 18  1  0
  2 22  1  0
  2 23  1  0
  3 24  1  0
  3 25  1  0
  4 26  1  0
  4 27  1  0
  5 28  1  0
  5 29  1  0
  6 30  1  6
  7 31  1  0
  9 32  1  0
 13 33  1  0
 16 34  1  0
 16 35  1  0
M  END
>  <Score>  (1) 
-7.14531

$$$$
