
     RDKit          3D

 52 57  0  0  1  0  0  0  0  0999 V2000
   65.4250   58.5390   32.4290 C   0  0  1  0  0  0  0  0  0  0  0  0
   65.7380   57.8390   33.7260 C   0  0  0  0  0  0  0  0  0  0  0  0
   66.2370   58.9650   34.6150 C   0  0  0  0  0  0  0  0  0  0  0  0
   66.5470   60.1230   33.6820 C   0  0  0  0  0  0  0  0  0  0  0  0
   66.5380   59.4920   32.2940 C   0  0  2  0  0  0  0  0  0  0  0  0
   65.6670   57.8200   29.9770 C   0  0  2  0  0  0  0  0  0  0  0  0
   66.4110   56.8600   30.8200 C   0  0  0  0  0  0  0  0  0  0  0  0
   65.2740   57.5930   31.2490 C   0  0  1  0  0  0  0  0  0  0  0  0
   64.2800   56.9760   26.6310 C   0  0  0  0  0  0  0  0  0  0  0  0
   62.9620   56.5400   26.9580 C   0  0  0  0  0  0  0  0  0  0  0  0
   62.6240   56.5590   28.3010 C   0  0  0  0  0  0  0  0  0  0  0  0
   63.5340   56.9760   29.2110 N   0  0  0  0  0  0  0  0  0  0  0  0
   64.7840   57.3860   28.8620 C   0  0  0  0  0  0  0  0  0  0  0  0
   65.1330   57.3760   27.5690 N   0  0  0  0  0  0  0  0  0  0  0  0
   66.1400   60.5390   31.3520 N   0  0  0  0  0  0  0  0  0  0  0  0
   64.9220   61.0190   31.0320 C   0  0  0  0  0  0  0  0  0  0  0  0
   65.0550   61.9860   30.1060 N   0  0  0  0  0  0  0  0  0  0  0  0
   66.3700   62.1210   29.8380 C   0  0  0  0  0  0  0  0  0  0  0  0
   67.0080   61.2370   30.6010 N   0  0  0  0  0  0  0  0  0  0  0  0
   66.9700   63.0630   28.8840 C   0  0  0  0  0  0  0  0  0  0  0  0
   66.3340   63.7930   27.8880 C   0  0  0  0  0  0  0  0  0  0  0  0
   67.2820   64.5190   27.2690 N   0  0  0  0  0  0  0  0  0  0  0  0
   68.5120   64.3020   27.8080 C   0  0  0  0  0  0  0  0  0  0  0  0
   69.7110   64.8730   27.4270 C   0  0  0  0  0  0  0  0  0  0  0  0
   70.8060   64.4580   28.1640 C   0  0  0  0  0  0  0  0  0  0  0  0
   70.6880   63.5420   29.2020 C   0  0  0  0  0  0  0  0  0  0  0  0
   69.4300   63.0190   29.5110 C   0  0  0  0  0  0  0  0  0  0  0  0
   68.3100   63.3880   28.8210 C   0  0  0  0  0  0  0  0  0  0  0  0
   64.4443   59.0372   32.4373 H   0  0  0  0  0  0  0  0  0  0  0  0
   64.8369   57.3715   34.1496 H   0  0  0  0  0  0  0  0  0  0  0  0
   66.4673   57.0235   33.6116 H   0  0  0  0  0  0  0  0  0  0  0  0
   65.4610   59.2538   35.3392 H   0  0  0  0  0  0  0  0  0  0  0  0
   67.1229   58.6623   35.1926 H   0  0  0  0  0  0  0  0  0  0  0  0
   65.7776   60.9052   33.7608 H   0  0  0  0  0  0  0  0  0  0  0  0
   67.5035   60.6122   33.9181 H   0  0  0  0  0  0  0  0  0  0  0  0
   67.4866   59.0452   31.9615 H   0  0  0  0  0  0  0  0  0  0  0  0
   65.9670   58.6922   29.3777 H   0  0  0  0  0  0  0  0  0  0  0  0
   66.3443   55.7782   30.6325 H   0  0  0  0  0  0  0  0  0  0  0  0
   67.4500   56.7212   31.1536 H   0  0  0  0  0  0  0  0  0  0  0  0
   64.2728   57.3628   31.6421 H   0  0  0  0  0  0  0  0  0  0  0  0
   64.5982   56.9814   25.5780 H   0  0  0  0  0  0  0  0  0  0  0  0
   62.2528   56.2069   26.1859 H   0  0  0  0  0  0  0  0  0  0  0  0
   61.6232   56.2375   28.6252 H   0  0  0  0  0  0  0  0  0  0  0  0
   64.3011   60.2059   30.6278 H   0  0  0  0  0  0  0  0  0  0  0  0
   64.4409   61.4326   31.9306 H   0  0  0  0  0  0  0  0  0  0  0  0
   68.0295   61.1056   30.6140 H   0  0  0  0  0  0  0  0  0  0  0  0
   65.2600   63.7798   27.6508 H   0  0  0  0  0  0  0  0  0  0  0  0
   67.0993   65.1601   26.4838 H   0  0  0  0  0  0  0  0  0  0  0  0
   69.7888   65.5989   26.6042 H   0  0  0  0  0  0  0  0  0  0  0  0
   71.7986   64.8650   27.9211 H   0  0  0  0  0  0  0  0  0  0  0  0
   71.5750   63.2321   29.7740 H   0  0  0  0  0  0  0  0  0  0  0  0
   69.3388   62.2914   30.3309 H   0  0  0  0  0  0  0  0  0  0  0  0
  1  2  1  0
  2  3  1  0
  4  3  1  0
  5  1  1  0
  5  4  1  0
  6  7  1  0
  6  8  1  0
  7  8  1  0
  8  1  1  0
  9 10  2  0
  9 14  1  0
 10 11  1  0
 11 12  2  0
 13 12  1  0
 13  6  1  0
 14 13  2  0
 15 19  1  0
 15  5  1  0
 16 15  1  0
 17 16  1  0
 18 17  2  0
 18 19  1  0
 20 18  1  0
 21 20  2  0
 22 23  1  0
 22 21  1  0
 23 28  2  0
 24 23  1  0
 24 25  2  0
 25 26  1  0
 26 27  2  0
 28 20  1  0
 28 27  1  0
  1 29  1  1
  2 30  1  0
  2 31  1  0
  3 32  1  0
  3 33  1  0
  4 34  1  0
  4 35  1  0
  5 36  1  6
  6 37  1  1
  7 38  1  0
  7 39  1  0
  8 40  1  6
  9 41  1  0
 10 42  1  0
 11 43  1  0
 16 44  1  0
 16 45  1  0
 19 46  1  0
 21 47  1  0
 22 48  1  0
 24 49  1  0
 25 50  1  0
 26 51  1  0
 27 52  1  0
M  END
>  <Score>  (1) 
-7.03081

$$$$
