
     RDKit          3D

 46 50  0  0  0  0  0  0  0  0999 V2000
   65.1820   56.8650   26.5300 C   0  0  0  0  0  0  0  0  0  0  0  0
   63.8810   56.7670   26.0260 C   0  0  0  0  0  0  0  0  0  0  0  0
   62.8150   56.9810   26.9350 C   0  0  0  0  0  0  0  0  0  0  0  0
   63.1530   57.2630   28.2200 N   0  0  0  0  0  0  0  0  0  0  0  0
   64.4070   57.3460   28.6500 C   0  0  0  0  0  0  0  0  0  0  0  0
   65.3880   57.1450   27.7950 N   0  0  0  0  0  0  0  0  0  0  0  0
   66.2670   56.6540   25.6270 N   0  0  0  0  0  0  0  0  0  0  0  0
   61.4950   56.8600   26.3460 C   0  0  0  0  0  0  0  0  0  0  0  0
   60.9780   55.6550   26.0810 N   0  0  0  0  0  0  0  0  0  0  0  0
   59.7730   55.4750   25.5410 C   0  0  0  0  0  0  0  0  0  0  0  0
   58.9560   56.5200   25.2090 N   0  0  0  0  0  0  0  0  0  0  0  0
   59.4000   57.7910   25.4450 C   0  0  0  0  0  0  0  0  0  0  0  0
   58.6160   58.8740   25.1290 C   0  0  0  0  0  0  0  0  0  0  0  0
   59.0600   60.1580   25.3650 C   0  0  0  0  0  0  0  0  0  0  0  0
   60.3210   60.2830   25.9280 C   0  0  0  0  0  0  0  0  0  0  0  0
   61.0710   59.1740   26.2280 C   0  0  0  0  0  0  0  0  0  0  0  0
   60.6530   57.8870   26.0030 C   0  0  0  0  0  0  0  0  0  0  0  0
   64.6360   57.6610   30.0720 C   0  0  0  0  0  0  0  0  0  0  0  0
   63.5910   58.1630   30.8550 C   0  0  0  0  0  0  0  0  0  0  0  0
   63.9500   58.4190   32.1710 C   0  0  0  0  0  0  0  0  0  0  0  0
   65.2210   58.1820   32.6020 C   0  0  0  0  0  0  0  0  0  0  0  0
   66.2220   57.6880   31.8020 C   0  0  0  0  0  0  0  0  0  0  0  0
   65.8910   57.4310   30.5130 N   0  0  0  0  0  0  0  0  0  0  0  0
   67.5660   57.4480   32.2950 C   0  0  0  0  0  0  0  0  0  0  0  0
   67.8370   56.3100   32.9870 C   0  0  0  0  0  0  0  0  0  0  0  0
   69.1020   56.0310   33.4790 C   0  0  0  0  0  0  0  0  0  0  0  0
   70.0550   56.9860   33.2150 C   0  0  0  0  0  0  0  0  0  0  0  0
   69.7640   58.1500   32.5040 C   0  0  0  0  0  0  0  0  0  0  0  0
   68.5210   58.3520   32.0590 N   0  0  0  0  0  0  0  0  0  0  0  0
   70.8180   59.0940   32.2730 N   0  0  0  0  0  0  0  0  0  0  0  0
   63.6930   56.5334   24.9677 H   0  0  0  0  0  0  0  0  0  0  0  0
   66.0790   56.4354   24.6382 H   0  0  0  0  0  0  0  0  0  0  0  0
   67.2380   56.7204   25.9642 H   0  0  0  0  0  0  0  0  0  0  0  0
   59.4230   54.4488   25.3557 H   0  0  0  0  0  0  0  0  0  0  0  0
   57.6232   58.7151   24.6828 H   0  0  0  0  0  0  0  0  0  0  0  0
   58.4460   61.0371   25.1195 H   0  0  0  0  0  0  0  0  0  0  0  0
   60.7253   61.2844   26.1368 H   0  0  0  0  0  0  0  0  0  0  0  0
   62.0647   59.3256   26.6747 H   0  0  0  0  0  0  0  0  0  0  0  0
   62.5781   58.3386   30.4637 H   0  0  0  0  0  0  0  0  0  0  0  0
   63.2019   58.8168   32.8725 H   0  0  0  0  0  0  0  0  0  0  0  0
   65.4594   58.3994   33.6536 H   0  0  0  0  0  0  0  0  0  0  0  0
   67.0263   55.5874   33.1621 H   0  0  0  0  0  0  0  0  0  0  0  0
   69.3273   55.1121   34.0401 H   0  0  0  0  0  0  0  0  0  0  0  0
   71.0816   56.8267   33.5767 H   0  0  0  0  0  0  0  0  0  0  0  0
   70.6275   59.9609   31.7505 H   0  0  0  0  0  0  0  0  0  0  0  0
   71.7657   58.9053   32.6296 H   0  0  0  0  0  0  0  0  0  0  0  0
  1  6  2  0
  2  1  1  0
  2  3  2  0
  3  4  1  0
  4  5  2  0
  5 18  1  0
  6  5  1  0
  7  1  1  0
  8  3  1  0
  9  8  2  0
 10  9  1  0
 11 12  1  0
 11 10  2  0
 12 17  2  0
 13 14  2  0
 13 12  1  0
 14 15  1  0
 15 16  2  0
 17 16  1  0
 17  8  1  0
 18 23  1  0
 18 19  2  0
 19 20  1  0
 20 21  2  0
 22 24  1  0
 22 21  1  0
 23 22  2  0
 24 25  2  0
 25 26  1  0
 27 26  2  0
 28 27  1  0
 29 24  1  0
 29 28  2  0
 30 28  1  0
  2 31  1  0
  7 32  1  0
  7 33  1  0
 10 34  1  0
 13 35  1  0
 14 36  1  0
 15 37  1  0
 16 38  1  0
 19 39  1  0
 20 40  1  0
 21 41  1  0
 25 42  1  0
 26 43  1  0
 27 44  1  0
 30 45  1  0
 30 46  1  0
M  END
>  <Score>  (1) 
-7.84749

$$$$
