
     RDKit          3D

 46 49  0  0  0  0  0  0  0  0999 V2000
   62.1420   57.9410   28.4720 C   0  0  0  0  0  0  0  0  0  0  0  0
   62.7170   56.6860   28.3350 C   0  0  0  0  0  0  0  0  0  0  0  0
   62.5510   56.0370   27.0960 C   0  0  0  0  0  0  0  0  0  0  0  0
   61.8440   56.6560   26.1000 N   0  0  0  0  0  0  0  0  0  0  0  0
   61.3090   57.8740   26.2920 C   0  0  0  0  0  0  0  0  0  0  0  0
   61.4510   58.5230   27.4700 N   0  0  0  0  0  0  0  0  0  0  0  0
   60.5700   58.5090   25.2330 N   0  0  0  0  0  0  0  0  0  0  0  0
   60.5760   59.9570   25.1120 C   0  0  0  0  0  0  0  0  0  0  0  0
   59.4230   60.5020   24.3580 C   0  0  0  0  0  0  0  0  0  0  0  0
   58.9480   59.7260   23.2690 N   0  0  0  0  0  0  0  0  0  0  0  0
   59.6780   58.5010   23.0320 C   0  0  0  0  0  0  0  0  0  0  0  0
   59.8270   57.6920   24.3030 C   0  0  0  0  0  0  0  0  0  0  0  0
   62.3100   58.5660   29.6830 O   0  0  0  0  0  0  0  0  0  0  0  0
   63.4660   59.1440   30.1630 C   0  0  0  0  0  0  0  0  0  0  0  0
   64.2860   58.3070   30.9040 C   0  0  0  0  0  0  0  0  0  0  0  0
   65.4830   58.7530   31.4490 C   0  0  0  0  0  0  0  0  0  0  0  0
   65.8240   60.0500   31.2260 N   0  0  0  0  0  0  0  0  0  0  0  0
   65.0350   60.8610   30.5110 C   0  0  0  0  0  0  0  0  0  0  0  0
   63.8820   60.4200   29.9910 N   0  0  0  0  0  0  0  0  0  0  0  0
   66.3020   57.8640   32.2060 N   0  0  0  0  0  0  0  0  0  0  0  0
   66.4720   58.1910   33.5160 C   0  0  0  0  0  0  0  0  0  0  0  0
   67.2590   57.3770   34.3350 C   0  0  0  0  0  0  0  0  0  0  0  0
   67.8100   56.2760   33.7110 C   0  0  0  0  0  0  0  0  0  0  0  0
   68.5240   55.5540   34.4850 O   0  0  0  0  0  0  0  0  0  0  0  0
   67.6480   55.9450   32.4160 N   0  0  0  0  0  0  0  0  0  0  0  0
   66.8690   56.7720   31.6580 C   0  0  0  0  0  0  0  0  0  0  0  0
   66.6920   56.4990   30.4430 O   0  0  0  0  0  0  0  0  0  0  0  0
   65.3860   62.2730   30.2590 C   0  0  0  0  0  0  0  0  0  0  0  0
   64.2860   63.0720   30.0140 F   0  0  0  0  0  0  0  0  0  0  0  0
   66.2290   62.4100   29.1600 F   0  0  0  0  0  0  0  0  0  0  0  0
   66.1580   62.7340   31.3250 F   0  0  0  0  0  0  0  0  0  0  0  0
   63.2778   56.2184   29.1577 H   0  0  0  0  0  0  0  0  0  0  0  0
   62.9860   55.0404   26.9297 H   0  0  0  0  0  0  0  0  0  0  0  0
   60.5635   60.3890   26.1236 H   0  0  0  0  0  0  0  0  0  0  0  0
   61.4815   60.2262   24.5485 H   0  0  0  0  0  0  0  0  0  0  0  0
   58.5907   60.6265   25.0663 H   0  0  0  0  0  0  0  0  0  0  0  0
   59.7883   61.4371   23.9083 H   0  0  0  0  0  0  0  0  0  0  0  0
   57.9647   59.4820   23.4546 H   0  0  0  0  0  0  0  0  0  0  0  0
   59.1363   57.9001   22.2867 H   0  0  0  0  0  0  0  0  0  0  0  0
   60.6827   58.7617   22.6678 H   0  0  0  0  0  0  0  0  0  0  0  0
   58.8367   57.4519   24.7173 H   0  0  0  0  0  0  0  0  0  0  0  0
   60.3479   56.7430   24.1079 H   0  0  0  0  0  0  0  0  0  0  0  0
   63.9806   57.2625   31.0644 H   0  0  0  0  0  0  0  0  0  0  0  0
   65.9925   59.0912   33.9280 H   0  0  0  0  0  0  0  0  0  0  0  0
   67.4271   57.5976   35.3995 H   0  0  0  0  0  0  0  0  0  0  0  0
   68.0914   55.1062   32.0152 H   0  0  0  0  0  0  0  0  0  0  0  0
  1 13  1  0
  2  1  2  0
  3  2  1  0
  4  5  1  0
  4  3  2  0
  5  6  2  0
  6  1  1  0
  7  5  1  0
  8  7  1  0
  9  8  1  0
 10  9  1  0
 11 10  1  0
 11 12  1  0
 12  7  1  0
 13 14  1  0
 14 15  2  0
 15 16  1  0
 16 20  1  0
 17 16  2  0
 18 17  1  0
 19 14  1  0
 19 18  2  0
 20 21  1  0
 21 22  2  0
 23 22  1  0
 23 24  2  0
 25 23  1  0
 26 20  1  0
 26 25  1  0
 27 26  2  0
 28 18  1  0
 28 31  1  0
 29 28  1  0
 30 28  1  0
  2 32  1  0
  3 33  1  0
  8 34  1  0
  8 35  1  0
  9 36  1  0
  9 37  1  0
 10 38  1  0
 11 39  1  0
 11 40  1  0
 12 41  1  0
 12 42  1  0
 15 43  1  0
 21 44  1  0
 22 45  1  0
 25 46  1  0
M  END
>  <Score>  (1) 
-7.47932

$$$$
