
     RDKit          3D

 41 44  0  0  0  0  0  0  0  0999 V2000
   65.3230   56.6960   25.9680 C   0  0  0  0  0  0  0  0  0  0  0  0
   63.9920   56.6550   25.4820 C   0  0  0  0  0  0  0  0  0  0  0  0
   62.9550   56.8810   26.3580 C   0  0  0  0  0  0  0  0  0  0  0  0
   63.2500   57.1370   27.6690 N   0  0  0  0  0  0  0  0  0  0  0  0
   64.5300   57.1680   28.0920 C   0  0  0  0  0  0  0  0  0  0  0  0
   65.5680   56.9550   27.2850 N   0  0  0  0  0  0  0  0  0  0  0  0
   64.7500   57.4560   29.5330 C   0  0  0  0  0  0  0  0  0  0  0  0
   63.8970   58.0400   30.4200 C   0  0  0  0  0  0  0  0  0  0  0  0
   64.3520   58.1890   31.6960 C   0  0  0  0  0  0  0  0  0  0  0  0
   65.6170   57.7450   31.9850 C   0  0  0  0  0  0  0  0  0  0  0  0
   66.1910   57.1080   30.4610 S   0  0  0  0  0  0  0  0  0  0  0  0
   66.3410   57.7660   33.1860 N   0  0  0  0  0  0  0  0  0  0  0  0
   67.5560   57.1290   33.3390 C   0  0  0  0  0  0  0  0  0  0  0  0
   67.8140   55.9930   32.7760 N   0  0  0  0  0  0  0  0  0  0  0  0
   68.5410   57.7910   34.1630 N   0  0  0  0  0  0  0  0  0  0  0  0
   67.1350   55.4950   32.2170 H   0  0  0  0  0  0  0  0  0  0  0  0
   61.5730   56.8480   25.8960 C   0  0  0  0  0  0  0  0  0  0  0  0
   60.7410   55.7760   25.9470 C   0  0  0  0  0  0  0  0  0  0  0  0
   59.5280   56.2250   25.3880 C   0  0  0  0  0  0  0  0  0  0  0  0
   59.7250   57.5560   25.0390 C   0  0  0  0  0  0  0  0  0  0  0  0
   60.9560   57.8410   25.3730 O   0  0  0  0  0  0  0  0  0  0  0  0
   58.8900   58.5200   24.4480 N   0  0  0  0  0  0  0  0  0  0  0  0
   59.0950   58.7130   23.1070 C   0  0  0  0  0  0  0  0  0  0  0  0
   58.2370   59.6910   22.6800 C   0  0  0  0  0  0  0  0  0  0  0  0
   57.5160   60.0800   23.7750 N   0  0  0  0  0  0  0  0  0  0  0  0
   57.9370   59.3540   24.8200 C   0  0  0  0  0  0  0  0  0  0  0  0
   57.4660   59.4100   26.2200 C   0  0  0  0  0  0  0  0  0  0  0  0
   58.5840   59.7020   27.0240 F   0  0  0  0  0  0  0  0  0  0  0  0
   57.0170   58.1960   26.7070 F   0  0  0  0  0  0  0  0  0  0  0  0
   56.5880   60.4250   26.4740 F   0  0  0  0  0  0  0  0  0  0  0  0
   66.1626   56.5181   25.2799 H   0  0  0  0  0  0  0  0  0  0  0  0
   63.7911   56.4457   24.4209 H   0  0  0  0  0  0  0  0  0  0  0  0
   62.8924   58.3742   30.1217 H   0  0  0  0  0  0  0  0  0  0  0  0
   63.7233   58.6516   32.4711 H   0  0  0  0  0  0  0  0  0  0  0  0
   65.9491   58.2790   33.9886 H   0  0  0  0  0  0  0  0  0  0  0  0
   69.4642   57.3585   34.3099 H   0  0  0  0  0  0  0  0  0  0  0  0
   68.3200   58.6954   34.6036 H   0  0  0  0  0  0  0  0  0  0  0  0
   60.9655   54.7734   26.3399 H   0  0  0  0  0  0  0  0  0  0  0  0
   58.6072   55.6382   25.2542 H   0  0  0  0  0  0  0  0  0  0  0  0
   59.8229   58.1753   22.4817 H   0  0  0  0  0  0  0  0  0  0  0  0
   58.1457   60.0860   21.6574 H   0  0  0  0  0  0  0  0  0  0  0  0
  1  6  2  0
  2  1  1  0
  2  3  2  0
  3  4  1  0
  4  5  2  0
  5  7  1  0
  6  5  1  0
  7  8  2  0
  7 11  1  0
  8  9  1  0
  9 10  2  0
 10 12  1  0
 11 10  1  0
 12 13  1  0
 13 15  1  0
 14 13  2  0
 16 14  1  0
 17 18  2  0
 17  3  1  0
 19 18  1  0
 20 21  1  0
 20 19  2  0
 21 17  1  0
 22 26  1  0
 22 20  1  0
 23 22  1  0
 24 23  2  0
 24 25  1  0
 25 26  2  0
 26 27  1  0
 27 30  1  0
 27 29  1  0
 27 28  1  0
  1 31  1  0
  2 32  1  0
  8 33  1  0
  9 34  1  0
 12 35  1  0
 15 36  1  0
 15 37  1  0
 18 38  1  0
 19 39  1  0
 23 40  1  0
 24 41  1  0
M  END
>  <Score>  (1) 
-7.13898

$$$$
