
     RDKit          3D

 44 47  0  0  0  0  0  0  0  0999 V2000
   62.5550   57.2060   28.1740 C   0  0  0  0  0  0  0  0  0  0  0  0
   63.7800   57.3040   28.9400 N   0  0  0  0  0  0  0  0  0  0  0  0
   64.9660   57.2300   28.3390 C   0  0  0  0  0  0  0  0  0  0  0  0
   65.9110   57.1080   29.2520 N   0  0  0  0  0  0  0  0  0  0  0  0
   65.3310   57.3330   30.4550 C   0  0  0  0  0  0  0  0  0  0  0  0
   64.0090   57.3940   30.2370 N   0  0  0  0  0  0  0  0  0  0  0  0
   65.6850   57.5260   31.8810 C   0  0  0  0  0  0  0  0  0  0  0  0
   64.9330   58.2320   32.8000 C   0  0  0  0  0  0  0  0  0  0  0  0
   65.4000   58.3210   34.0970 C   0  0  0  0  0  0  0  0  0  0  0  0
   66.5860   57.7090   34.4260 C   0  0  0  0  0  0  0  0  0  0  0  0
   67.3520   56.9960   33.5120 C   0  0  0  0  0  0  0  0  0  0  0  0
   66.8760   56.9080   32.1980 C   0  0  0  0  0  0  0  0  0  0  0  0
   62.8130   57.0700   26.6810 C   0  0  0  0  0  0  0  0  0  0  0  0
   61.5330   57.4050   26.0040 C   0  0  0  0  0  0  0  0  0  0  0  0
   61.2700   58.6770   25.4890 C   0  0  0  0  0  0  0  0  0  0  0  0
   60.0310   58.8720   24.8740 C   0  0  0  0  0  0  0  0  0  0  0  0
   59.1570   57.8410   24.8070 N   0  0  0  0  0  0  0  0  0  0  0  0
   59.4430   56.6390   25.3100 C   0  0  0  0  0  0  0  0  0  0  0  0
   60.6310   56.4340   25.9050 N   0  0  0  0  0  0  0  0  0  0  0  0
   58.5110   55.4930   25.2520 C   0  0  0  0  0  0  0  0  0  0  0  0
   58.9130   54.3380   24.6110 C   0  0  0  0  0  0  0  0  0  0  0  0
   58.0760   53.2450   24.5350 C   0  0  0  0  0  0  0  0  0  0  0  0
   56.8220   53.3340   25.1160 C   0  0  0  0  0  0  0  0  0  0  0  0
   56.3900   54.4590   25.7600 C   0  0  0  0  0  0  0  0  0  0  0  0
   57.2550   55.5400   25.8190 C   0  0  0  0  0  0  0  0  0  0  0  0
   61.9936   56.3245   28.5171 H   0  0  0  0  0  0  0  0  0  0  0  0
   61.9856   58.1337   28.3325 H   0  0  0  0  0  0  0  0  0  0  0  0
   64.9855   56.3563   27.6710 H   0  0  0  0  0  0  0  0  0  0  0  0
   65.1383   58.1431   27.7503 H   0  0  0  0  0  0  0  0  0  0  0  0
   63.2876   57.4949   30.9652 H   0  0  0  0  0  0  0  0  0  0  0  0
   63.9871   58.7108   32.5066 H   0  0  0  0  0  0  0  0  0  0  0  0
   64.8297   58.8749   34.8573 H   0  0  0  0  0  0  0  0  0  0  0  0
   66.9459   57.7875   35.4625 H   0  0  0  0  0  0  0  0  0  0  0  0
   68.2972   56.5184   33.8095 H   0  0  0  0  0  0  0  0  0  0  0  0
   67.4418   56.3561   31.4330 H   0  0  0  0  0  0  0  0  0  0  0  0
   63.6040   57.7666   26.3662 H   0  0  0  0  0  0  0  0  0  0  0  0
   63.1471   56.0540   26.4240 H   0  0  0  0  0  0  0  0  0  0  0  0
   62.0071   59.4900   25.5646 H   0  0  0  0  0  0  0  0  0  0  0  0
   59.7688   59.8522   24.4491 H   0  0  0  0  0  0  0  0  0  0  0  0
   59.9131   54.2893   24.1555 H   0  0  0  0  0  0  0  0  0  0  0  0
   58.3965   52.3245   24.0252 H   0  0  0  0  0  0  0  0  0  0  0  0
   56.1484   52.4664   25.0568 H   0  0  0  0  0  0  0  0  0  0  0  0
   55.3900   54.5050   26.2159 H   0  0  0  0  0  0  0  0  0  0  0  0
   56.9316   56.4584   26.3309 H   0  0  0  0  0  0  0  0  0  0  0  0
  1  2  1  0
  2  6  1  0
  3  2  1  0
  3  4  1  0
  4  5  2  0
  5  7  1  0
  6  5  1  0
  7 12  1  0
  7  8  2  0
  8  9  1  0
  9 10  2  0
 11 10  1  0
 12 11  2  0
 13  1  1  0
 14 13  1  0
 15 14  2  0
 16 15  1  0
 17 16  2  0
 17 18  1  0
 18 19  2  0
 19 14  1  0
 20 18  1  0
 20 25  1  0
 21 20  2  0
 22 21  1  0
 22 23  2  0
 23 24  1  0
 24 25  2  0
  1 26  1  0
  1 27  1  0
  3 28  1  0
  3 29  1  0
  6 30  1  0
  8 31  1  0
  9 32  1  0
 10 33  1  0
 11 34  1  0
 12 35  1  0
 13 36  1  0
 13 37  1  0
 15 38  1  0
 16 39  1  0
 21 40  1  0
 22 41  1  0
 23 42  1  0
 24 43  1  0
 25 44  1  0
M  END
>  <Score>  (1) 
-7.10347

$$$$
