
     RDKit          3D

 44 48  0  0  0  0  0  0  0  0999 V2000
   60.3610   58.6360   25.5800 C   0  0  0  0  0  0  0  0  0  0  0  0
   61.2490   59.2450   24.7130 C   0  0  0  0  0  0  0  0  0  0  0  0
   60.5220   59.9830   23.7770 C   0  0  0  0  0  0  0  0  0  0  0  0
   59.1960   59.7660   24.1490 C   0  0  0  0  0  0  0  0  0  0  0  0
   59.1800   59.0000   25.1700 O   0  0  0  0  0  0  0  0  0  0  0  0
   58.0740   60.3630   23.4260 C   0  0  0  0  0  0  0  0  0  0  0  0
   57.5170   59.9800   22.2320 C   0  0  0  0  0  0  0  0  0  0  0  0
   56.5120   60.8070   21.9450 N   0  0  0  0  0  0  0  0  0  0  0  0
   56.3750   61.7230   22.8950 C   0  0  0  0  0  0  0  0  0  0  0  0
   55.4760   62.7430   22.9840 C   0  0  0  0  0  0  0  0  0  0  0  0
   55.5780   63.5550   24.1140 C   0  0  0  0  0  0  0  0  0  0  0  0
   56.5220   63.3750   25.1190 C   0  0  0  0  0  0  0  0  0  0  0  0
   57.3920   62.3160   24.9470 C   0  0  0  0  0  0  0  0  0  0  0  0
   57.3490   61.4680   23.8470 C   0  0  0  0  0  0  0  0  0  0  0  0
   60.6690   57.7990   26.6750 O   0  0  0  0  0  0  0  0  0  0  0  0
   61.5290   56.7100   26.3920 C   0  0  0  0  0  0  0  0  0  0  0  0
   61.1220   55.6800   25.8570 O   0  0  0  0  0  0  0  0  0  0  0  0
   65.2690   56.8270   26.2220 C   0  0  0  0  0  0  0  0  0  0  0  0
   63.9160   56.7030   25.8090 C   0  0  0  0  0  0  0  0  0  0  0  0
   62.9300   56.8280   26.7510 C   0  0  0  0  0  0  0  0  0  0  0  0
   63.3060   57.0640   28.0240 N   0  0  0  0  0  0  0  0  0  0  0  0
   64.5960   57.1810   28.4090 C   0  0  0  0  0  0  0  0  0  0  0  0
   65.5750   57.0640   27.5140 N   0  0  0  0  0  0  0  0  0  0  0  0
   64.9210   57.4390   29.8110 C   0  0  0  0  0  0  0  0  0  0  0  0
   66.1170   57.0220   30.3570 C   0  0  0  0  0  0  0  0  0  0  0  0
   66.4800   57.2380   31.6840 C   0  0  0  0  0  0  0  0  0  0  0  0
   65.5510   57.9150   32.4590 C   0  0  0  0  0  0  0  0  0  0  0  0
   64.3370   58.3490   31.9440 C   0  0  0  0  0  0  0  0  0  0  0  0
   64.0270   58.1100   30.6230 C   0  0  0  0  0  0  0  0  0  0  0  0
   62.3451   59.1620   24.7538 H   0  0  0  0  0  0  0  0  0  0  0  0
   60.9045   60.5911   22.9440 H   0  0  0  0  0  0  0  0  0  0  0  0
   57.8454   59.1312   21.6142 H   0  0  0  0  0  0  0  0  0  0  0  0
   55.9231   60.7438   21.1023 H   0  0  0  0  0  0  0  0  0  0  0  0
   54.7140   62.9162   22.2098 H   0  0  0  0  0  0  0  0  0  0  0  0
   54.8679   64.3889   24.2162 H   0  0  0  0  0  0  0  0  0  0  0  0
   56.5728   64.0355   25.9972 H   0  0  0  0  0  0  0  0  0  0  0  0
   58.1556   62.1352   25.7179 H   0  0  0  0  0  0  0  0  0  0  0  0
   66.0757   56.7288   25.4806 H   0  0  0  0  0  0  0  0  0  0  0  0
   63.6654   56.5107   24.7553 H   0  0  0  0  0  0  0  0  0  0  0  0
   66.8252   56.4878   29.7065 H   0  0  0  0  0  0  0  0  0  0  0  0
   67.4421   56.8936   32.0911 H   0  0  0  0  0  0  0  0  0  0  0  0
   65.7832   58.1146   33.5155 H   0  0  0  0  0  0  0  0  0  0  0  0
   63.6239   58.8827   32.5895 H   0  0  0  0  0  0  0  0  0  0  0  0
   63.0656   58.4542   30.2139 H   0  0  0  0  0  0  0  0  0  0  0  0
  1 15  1  0
  2  1  2  0
  3  4  2  0
  3  2  1  0
  4  5  1  0
  5  1  1  0
  6 14  1  0
  6  4  1  0
  7  6  2  0
  8  7  1  0
  8  9  1  0
  9 10  2  0
  9 14  1  0
 10 11  1  0
 11 12  2  0
 13 12  1  0
 14 13  2  0
 16 15  1  0
 16 20  1  0
 17 16  2  0
 18 23  2  0
 19 18  1  0
 19 20  2  0
 20 21  1  0
 21 22  2  0
 22 24  1  0
 23 22  1  0
 24 25  2  0
 24 29  1  0
 25 26  1  0
 26 27  2  0
 28 27  1  0
 29 28  2  0
  2 30  1  0
  3 31  1  0
  7 32  1  0
  8 33  1  0
 10 34  1  0
 11 35  1  0
 12 36  1  0
 13 37  1  0
 18 38  1  0
 19 39  1  0
 25 40  1  0
 26 41  1  0
 27 42  1  0
 28 43  1  0
 29 44  1  0
M  END
>  <Score>  (1) 
-7.42687

$$$$
