
     RDKit          3D

 55 57  0  0  1  0  0  0  0  0999 V2000
   60.7610   60.2630   24.4810 N   0  0  0  0  0  0  0  0  0  0  0  0
   59.8320   59.7150   23.6680 C   0  0  0  0  0  0  0  0  0  0  0  0
   59.5260   58.2790   24.0420 C   0  0  0  0  0  0  0  0  0  0  0  0
   59.3630   58.0240   25.4940 C   0  0  2  0  0  0  0  0  0  0  0  0
   60.3130   58.7670   26.3290 C   0  0  0  0  0  0  0  0  0  0  0  0
   60.5060   60.1880   25.8740 C   0  0  2  0  0  0  0  0  0  0  0  0
   59.5670   56.6020   25.6800 N   0  0  0  0  0  0  0  0  0  0  0  0
   60.7720   56.0740   25.2940 C   0  0  0  0  0  0  0  0  0  0  0  0
   61.4860   55.5290   26.5090 C   0  0  0  0  0  0  0  0  0  0  0  0
   64.9680   56.8360   26.0590 C   0  0  0  0  0  0  0  0  0  0  0  0
   63.7080   56.2520   25.8200 C   0  0  0  0  0  0  0  0  0  0  0  0
   62.7820   56.1440   26.8240 C   0  0  0  0  0  0  0  0  0  0  0  0
   63.1220   56.6120   28.0360 N   0  0  0  0  0  0  0  0  0  0  0  0
   64.3140   57.1700   28.2840 C   0  0  0  0  0  0  0  0  0  0  0  0
   65.2330   57.2820   27.3050 N   0  0  0  0  0  0  0  0  0  0  0  0
   64.5560   57.6290   29.6100 N   0  0  0  0  0  0  0  0  0  0  0  0
   65.6390   57.0120   30.1670 C   0  0  0  0  0  0  0  0  0  0  0  0
   66.0340   57.3240   31.4530 C   0  0  0  0  0  0  0  0  0  0  0  0
   65.3350   58.2730   32.2010 C   0  0  0  0  0  0  0  0  0  0  0  0
   65.6470   58.5990   33.3760 O   0  0  0  0  0  0  0  0  0  0  0  0
   64.2820   58.8330   31.5790 N   0  0  0  0  0  0  0  0  0  0  0  0
   63.8860   58.5420   30.3350 C   0  0  0  0  0  0  0  0  0  0  0  0
   62.9200   59.0400   29.7340 O   0  0  0  0  0  0  0  0  0  0  0  0
   59.5350   61.1690   26.4380 C   0  0  0  0  0  0  0  0  0  0  0  0
   60.0740   62.1780   27.3960 C   0  0  0  0  0  0  0  0  0  0  0  0
   58.9430   61.9870   25.2710 C   0  0  0  0  0  0  0  0  0  0  0  0
   58.3980   60.4580   27.0850 C   0  0  0  0  0  0  0  0  0  0  0  0
   60.8468   61.2587   24.2317 H   0  0  0  0  0  0  0  0  0  0  0  0
   60.2058   59.7406   22.6338 H   0  0  0  0  0  0  0  0  0  0  0  0
   58.9047   60.2977   23.7707 H   0  0  0  0  0  0  0  0  0  0  0  0
   58.5921   57.9882   23.5388 H   0  0  0  0  0  0  0  0  0  0  0  0
   60.3988   57.6892   23.7253 H   0  0  0  0  0  0  0  0  0  0  0  0
   58.3638   58.3613   25.8069 H   0  0  0  0  0  0  0  0  0  0  0  0
   59.9378   58.7775   27.3630 H   0  0  0  0  0  0  0  0  0  0  0  0
   61.2865   58.2607   26.2517 H   0  0  0  0  0  0  0  0  0  0  0  0
   61.4341   60.5497   26.3408 H   0  0  0  0  0  0  0  0  0  0  0  0
   59.4521   56.4037   26.6842 H   0  0  0  0  0  0  0  0  0  0  0  0
   60.6036   55.2623   24.5710 H   0  0  0  0  0  0  0  0  0  0  0  0
   61.3856   56.8567   24.8241 H   0  0  0  0  0  0  0  0  0  0  0  0
   60.8266   55.6697   27.3781 H   0  0  0  0  0  0  0  0  0  0  0  0
   61.7059   54.4766   26.2765 H   0  0  0  0  0  0  0  0  0  0  0  0
   65.7129   56.9256   25.2546 H   0  0  0  0  0  0  0  0  0  0  0  0
   63.4648   55.8781   24.8145 H   0  0  0  0  0  0  0  0  0  0  0  0
   66.1996   56.2628   29.5887 H   0  0  0  0  0  0  0  0  0  0  0  0
   66.9076   56.8200   31.8920 H   0  0  0  0  0  0  0  0  0  0  0  0
   63.7405   59.5381   32.0992 H   0  0  0  0  0  0  0  0  0  0  0  0
   59.8927   61.8386   28.4265 H   0  0  0  0  0  0  0  0  0  0  0  0
   61.1555   62.2964   27.2339 H   0  0  0  0  0  0  0  0  0  0  0  0
   59.5711   63.1428   27.2339 H   0  0  0  0  0  0  0  0  0  0  0  0
   58.3425   62.8167   25.6723 H   0  0  0  0  0  0  0  0  0  0  0  0
   59.7598   62.3903   24.6544 H   0  0  0  0  0  0  0  0  0  0  0  0
   58.3047   61.3371   24.6544 H   0  0  0  0  0  0  0  0  0  0  0  0
   58.5001   60.5218   28.1784 H   0  0  0  0  0  0  0  0  0  0  0  0
   57.4508   60.9249   26.7773 H   0  0  0  0  0  0  0  0  0  0  0  0
   58.4031   59.4019   26.7773 H   0  0  0  0  0  0  0  0  0  0  0  0
  1  6  1  0
  2  3  1  0
  2  1  1  0
  3  4  1  0
  4  7  1  0
  4  5  1  0
  6  5  1  0
  6 24  1  0
  8  7  1  0
  8  9  1  0
  9 12  1  0
 10 15  2  0
 11 10  1  0
 11 12  2  0
 12 13  1  0
 13 14  2  0
 14 16  1  0
 15 14  1  0
 16 17  1  0
 16 22  1  0
 17 18  2  0
 18 19  1  0
 19 20  2  0
 21 19  1  0
 22 21  1  0
 23 22  2  0
 24 27  1  0
 24 25  1  0
 26 24  1  0
  1 28  1  0
  2 29  1  0
  2 30  1  0
  3 31  1  0
  3 32  1  0
  4 33  1  1
  5 34  1  0
  5 35  1  0
  6 36  1  1
  7 37  1  0
  8 38  1  0
  8 39  1  0
  9 40  1  0
  9 41  1  0
 10 42  1  0
 11 43  1  0
 17 44  1  0
 18 45  1  0
 21 46  1  0
 25 47  1  0
 25 48  1  0
 25 49  1  0
 26 50  1  0
 26 51  1  0
 26 52  1  0
 27 53  1  0
 27 54  1  0
 27 55  1  0
M  END
>  <Score>  (1) 
-7.21666

$$$$
