
     RDKit          3D

 48 51  0  0  1  0  0  0  0  0999 V2000
   62.1340   55.8630   27.4760 C   0  0  0  0  0  0  0  0  0  0  0  0
   63.2920   56.4700   28.0990 N   0  0  0  0  0  0  0  0  0  0  0  0
   64.1810   57.1530   27.3850 C   0  0  0  0  0  0  0  0  0  0  0  0
   65.1940   57.4980   28.1660 N   0  0  0  0  0  0  0  0  0  0  0  0
   64.7920   57.2770   29.4460 C   0  0  2  0  0  0  0  0  0  0  0  0
   63.6120   56.6350   29.3710 N   0  0  0  0  0  0  0  0  0  0  0  0
   65.2330   57.5160   30.8430 C   0  0  0  0  0  0  0  0  0  0  0  0
   64.5010   58.1460   31.8080 C   0  0  0  0  0  0  0  0  0  0  0  0
   65.0380   58.2990   33.0650 C   0  0  0  0  0  0  0  0  0  0  0  0
   66.2990   57.8070   33.3010 C   0  0  0  0  0  0  0  0  0  0  0  0
   67.0570   57.1670   32.3420 C   0  0  0  0  0  0  0  0  0  0  0  0
   66.5010   57.0150   31.0610 C   0  0  0  0  0  0  0  0  0  0  0  0
   62.1840   55.9580   25.9650 C   0  0  0  0  0  0  0  0  0  0  0  0
   60.8600   56.4610   25.5250 C   0  0  0  0  0  0  0  0  0  0  0  0
   60.5180   57.8320   25.4820 C   0  0  0  0  0  0  0  0  0  0  0  0
   59.2440   58.1420   25.0490 C   0  0  0  0  0  0  0  0  0  0  0  0
   58.4000   57.1600   24.6920 N   0  0  0  0  0  0  0  0  0  0  0  0
   58.7520   55.8700   24.7420 C   0  0  0  0  0  0  0  0  0  0  0  0
   59.9860   55.4990   25.1580 N   0  0  0  0  0  0  0  0  0  0  0  0
   57.8350   54.8510   24.3570 N   0  0  0  0  0  0  0  0  0  0  0  0
   56.4680   54.9360   23.8770 C   0  0  0  0  0  0  0  0  0  0  0  0
   55.7800   53.8210   24.6480 C   0  0  0  0  0  0  0  0  0  0  0  0
   56.8950   52.9220   25.1590 C   0  0  0  0  0  0  0  0  0  0  0  0
   58.0840   53.4210   24.3630 C   0  0  0  0  0  0  0  0  0  0  0  0
   62.0920   54.8020   27.7634 H   0  0  0  0  0  0  0  0  0  0  0  0
   61.2411   56.4056   27.8200 H   0  0  0  0  0  0  0  0  0  0  0  0
   64.5496   56.5263   26.5595 H   0  0  0  0  0  0  0  0  0  0  0  0
   63.7082   58.0563   26.9721 H   0  0  0  0  0  0  0  0  0  0  0  0
   66.0211   56.9237   27.9493 H   0  0  0  0  0  0  0  0  0  0  0  0
   65.3190   56.3115   29.4448 H   0  0  0  0  0  0  0  0  0  0  0  0
   62.8847   57.1932   29.8405 H   0  0  0  0  0  0  0  0  0  0  0  0
   63.4938   58.5267   31.5829 H   0  0  0  0  0  0  0  0  0  0  0  0
   64.4717   58.8030   33.8620 H   0  0  0  0  0  0  0  0  0  0  0  0
   66.7266   57.9297   34.3070 H   0  0  0  0  0  0  0  0  0  0  0  0
   68.0636   56.7883   32.5730 H   0  0  0  0  0  0  0  0  0  0  0  0
   67.0584   56.5125   30.2567 H   0  0  0  0  0  0  0  0  0  0  0  0
   62.9764   56.6552   25.6551 H   0  0  0  0  0  0  0  0  0  0  0  0
   62.4048   54.9792   25.5143 H   0  0  0  0  0  0  0  0  0  0  0  0
   61.2322   58.6140   25.7791 H   0  0  0  0  0  0  0  0  0  0  0  0
   58.9206   59.1921   24.9965 H   0  0  0  0  0  0  0  0  0  0  0  0
   56.0241   55.9146   24.1119 H   0  0  0  0  0  0  0  0  0  0  0  0
   56.3789   54.8346   22.7853 H   0  0  0  0  0  0  0  0  0  0  0  0
   55.2056   54.2351   25.4898 H   0  0  0  0  0  0  0  0  0  0  0  0
   55.0718   53.2674   24.0140 H   0  0  0  0  0  0  0  0  0  0  0  0
   57.0525   53.0539   26.2396 H   0  0  0  0  0  0  0  0  0  0  0  0
   56.6941   51.8478   25.0340 H   0  0  0  0  0  0  0  0  0  0  0  0
   58.0893   53.0079   23.3435 H   0  0  0  0  0  0  0  0  0  0  0  0
   59.0606   53.1332   24.7794 H   0  0  0  0  0  0  0  0  0  0  0  0
  1  2  1  0
  2  6  1  0
  3  2  1  0
  3  4  1  0
  4  5  1  0
  5  7  1  0
  6  5  1  0
  7 12  1  0
  7  8  2  0
  8  9  1  0
  9 10  2  0
 11 10  1  0
 12 11  2  0
 13  1  1  0
 14 13  1  0
 15 14  2  0
 16 15  1  0
 17 18  1  0
 17 16  2  0
 18 19  2  0
 19 14  1  0
 20 24  1  0
 20 18  1  0
 21 20  1  0
 21 22  1  0
 22 23  1  0
 24 23  1  0
  1 25  1  0
  1 26  1  0
  3 27  1  0
  3 28  1  0
  4 29  1  0
  5 30  1  6
  6 31  1  0
  8 32  1  0
  9 33  1  0
 10 34  1  0
 11 35  1  0
 12 36  1  0
 13 37  1  0
 13 38  1  0
 15 39  1  0
 16 40  1  0
 21 41  1  0
 21 42  1  0
 22 43  1  0
 22 44  1  0
 23 45  1  0
 23 46  1  0
 24 47  1  0
 24 48  1  0
M  END
>  <Score>  (1) 
-7.29961

$$$$
