
     RDKit          3D

 48 52  0  0  0  0  0  0  0  0999 V2000
   61.5360   57.8880   26.1840 C   0  0  0  0  0  0  0  0  0  0  0  0
   65.1610   56.7350   26.0690 C   0  0  0  0  0  0  0  0  0  0  0  0
   63.8700   57.0590   25.6240 C   0  0  0  0  0  0  0  0  0  0  0  0
   62.9210   57.5210   26.5510 C   0  0  0  0  0  0  0  0  0  0  0  0
   63.3320   57.6280   27.8690 N   0  0  0  0  0  0  0  0  0  0  0  0
   64.5920   57.2990   28.2330 C   0  0  0  0  0  0  0  0  0  0  0  0
   65.5010   56.8590   27.3580 N   0  0  0  0  0  0  0  0  0  0  0  0
   64.9460   57.4420   29.6650 C   0  0  0  0  0  0  0  0  0  0  0  0
   64.0780   58.0480   30.5510 C   0  0  0  0  0  0  0  0  0  0  0  0
   64.5010   58.1280   31.8430 C   0  0  0  0  0  0  0  0  0  0  0  0
   65.6780   57.6610   32.2800 N   0  0  0  0  0  0  0  0  0  0  0  0
   66.4960   57.0800   31.4010 C   0  0  0  0  0  0  0  0  0  0  0  0
   66.1360   56.9690   30.0990 N   0  0  0  0  0  0  0  0  0  0  0  0
   60.6820   56.7100   25.8710 C   0  0  0  0  0  0  0  0  0  0  0  0
   61.6020   58.7640   24.9470 C   0  0  0  0  0  0  0  0  0  0  0  0
   60.8960   58.7020   27.3010 C   0  0  0  0  0  0  0  0  0  0  0  0
   60.1130   59.8470   26.8310 C   0  0  0  0  0  0  0  0  0  0  0  0
   60.3820   61.1340   27.2500 C   0  0  0  0  0  0  0  0  0  0  0  0
   59.4640   61.9610   26.6140 C   0  0  0  0  0  0  0  0  0  0  0  0
   58.6690   61.1910   25.8360 N   0  0  0  0  0  0  0  0  0  0  0  0
   59.0750   59.9760   25.9880 N   0  0  0  0  0  0  0  0  0  0  0  0
   56.2050   61.0250   21.8860 N   0  0  0  0  0  0  0  0  0  0  0  0
   57.1960   60.1040   21.9070 C   0  0  0  0  0  0  0  0  0  0  0  0
   57.8910   60.1780   23.0640 N   0  0  0  0  0  0  0  0  0  0  0  0
   57.3330   61.1520   23.7750 C   0  0  0  0  0  0  0  0  0  0  0  0
   57.6010   61.6850   25.0230 C   0  0  0  0  0  0  0  0  0  0  0  0
   56.8510   62.6950   25.5030 N   0  0  0  0  0  0  0  0  0  0  0  0
   55.8130   63.2230   24.7910 C   0  0  0  0  0  0  0  0  0  0  0  0
   55.5350   62.7180   23.5730 N   0  0  0  0  0  0  0  0  0  0  0  0
   56.2660   61.7090   23.0640 C   0  0  0  0  0  0  0  0  0  0  0  0
   65.9067   56.3728   25.3460 H   0  0  0  0  0  0  0  0  0  0  0  0
   63.6044   56.9524   24.5619 H   0  0  0  0  0  0  0  0  0  0  0  0
   63.1021   58.4430   30.2322 H   0  0  0  0  0  0  0  0  0  0  0  0
   63.8334   58.6067   32.5745 H   0  0  0  0  0  0  0  0  0  0  0  0
   67.4684   56.6887   31.7347 H   0  0  0  0  0  0  0  0  0  0  0  0
   60.3436   56.2432   26.8078 H   0  0  0  0  0  0  0  0  0  0  0  0
   59.8084   57.0352   25.2869 H   0  0  0  0  0  0  0  0  0  0  0  0
   61.2628   55.9809   25.2869 H   0  0  0  0  0  0  0  0  0  0  0  0
   61.6815   59.8189   25.2485 H   0  0  0  0  0  0  0  0  0  0  0  0
   62.4818   58.4866   24.3478 H   0  0  0  0  0  0  0  0  0  0  0  0
   60.6906   58.6216   24.3478 H   0  0  0  0  0  0  0  0  0  0  0  0
   60.2303   58.0396   27.8738 H   0  0  0  0  0  0  0  0  0  0  0  0
   61.7175   59.1071   27.9101 H   0  0  0  0  0  0  0  0  0  0  0  0
   61.1702   61.4450   27.9514 H   0  0  0  0  0  0  0  0  0  0  0  0
   59.3956   63.0533   26.7242 H   0  0  0  0  0  0  0  0  0  0  0  0
   55.5308   61.1803   21.1230 H   0  0  0  0  0  0  0  0  0  0  0  0
   57.4070   59.3931   21.0946 H   0  0  0  0  0  0  0  0  0  0  0  0
   55.2133   64.0472   25.2047 H   0  0  0  0  0  0  0  0  0  0  0  0
  1  4  1  0
  1 16  1  0
  2  7  2  0
  3  2  1  0
  3  4  2  0
  4  5  1  0
  5  6  2  0
  6  8  1  0
  7  6  1  0
  8 13  1  0
  8  9  2  0
  9 10  1  0
 10 11  2  0
 12 11  1  0
 13 12  2  0
 14  1  1  0
 15  1  1  0
 17 18  1  0
 17 16  1  0
 19 18  2  0
 20 21  1  0
 20 19  1  0
 21 17  2  0
 22 23  1  0
 22 30  1  0
 23 24  2  0
 24 25  1  0
 25 26  2  0
 26 27  1  0
 26 20  1  0
 28 27  2  0
 29 28  1  0
 30 29  2  0
 30 25  1  0
  2 31  1  0
  3 32  1  0
  9 33  1  0
 10 34  1  0
 12 35  1  0
 14 36  1  0
 14 37  1  0
 14 38  1  0
 15 39  1  0
 15 40  1  0
 15 41  1  0
 16 42  1  0
 16 43  1  0
 18 44  1  0
 19 45  1  0
 22 46  1  0
 23 47  1  0
 28 48  1  0
M  END
>  <Score>  (1) 
-7.01108

$$$$
