
     RDKit          3D

 53 57  0  0  0  0  0  0  0  0999 V2000
   61.4010   58.0140   26.2380 C   0  0  0  0  0  0  0  0  0  0  0  0
   65.0050   56.7970   26.0230 C   0  0  0  0  0  0  0  0  0  0  0  0
   63.7030   57.1540   25.6180 C   0  0  0  0  0  0  0  0  0  0  0  0
   62.7930   57.6160   26.5730 C   0  0  0  0  0  0  0  0  0  0  0  0
   63.2430   57.6920   27.8790 N   0  0  0  0  0  0  0  0  0  0  0  0
   64.4890   57.3420   28.2210 C   0  0  0  0  0  0  0  0  0  0  0  0
   65.3720   56.8960   27.3040 N   0  0  0  0  0  0  0  0  0  0  0  0
   64.9080   57.4460   29.6190 C   0  0  0  0  0  0  0  0  0  0  0  0
   64.0710   58.0410   30.5480 C   0  0  0  0  0  0  0  0  0  0  0  0
   64.5220   58.1090   31.8420 C   0  0  0  0  0  0  0  0  0  0  0  0
   65.7020   57.6390   32.2430 N   0  0  0  0  0  0  0  0  0  0  0  0
   66.5010   57.0620   31.3180 C   0  0  0  0  0  0  0  0  0  0  0  0
   66.1090   56.9640   30.0050 N   0  0  0  0  0  0  0  0  0  0  0  0
   60.5390   56.8580   25.8570 C   0  0  0  0  0  0  0  0  0  0  0  0
   61.4420   58.9740   25.0840 C   0  0  0  0  0  0  0  0  0  0  0  0
   60.7930   58.7460   27.4200 C   0  0  0  0  0  0  0  0  0  0  0  0
   60.1080   60.0000   27.0640 C   0  0  0  0  0  0  0  0  0  0  0  0
   60.5990   61.2200   27.5090 C   0  0  0  0  0  0  0  0  0  0  0  0
   59.7170   62.1730   27.0020 C   0  0  0  0  0  0  0  0  0  0  0  0
   58.7640   61.5660   26.3010 N   0  0  0  0  0  0  0  0  0  0  0  0
   59.0150   60.2830   26.3510 N   0  0  0  0  0  0  0  0  0  0  0  0
   57.7040   62.2620   25.6530 C   0  0  0  0  0  0  0  0  0  0  0  0
   57.5380   62.0680   24.2810 C   0  0  0  0  0  0  0  0  0  0  0  0
   56.5170   62.7300   23.6090 C   0  0  0  0  0  0  0  0  0  0  0  0
   55.6460   63.5910   24.2870 C   0  0  0  0  0  0  0  0  0  0  0  0
   55.8290   63.7700   25.6610 C   0  0  0  0  0  0  0  0  0  0  0  0
   54.9870   64.6140   26.3560 C   0  0  0  0  0  0  0  0  0  0  0  0
   55.1620   64.8010   27.7320 C   0  0  0  0  0  0  0  0  0  0  0  0
   56.1860   64.1420   28.4220 C   0  0  0  0  0  0  0  0  0  0  0  0
   56.9970   63.3130   27.6770 C   0  0  0  0  0  0  0  0  0  0  0  0
   56.8540   63.1070   26.3330 C   0  0  0  0  0  0  0  0  0  0  0  0
   65.7265   56.4331   25.2767 H   0  0  0  0  0  0  0  0  0  0  0  0
   63.4064   57.0699   24.5621 H   0  0  0  0  0  0  0  0  0  0  0  0
   63.0875   58.4416   30.2611 H   0  0  0  0  0  0  0  0  0  0  0  0
   63.8703   58.5796   32.5929 H   0  0  0  0  0  0  0  0  0  0  0  0
   67.4808   56.6645   31.6214 H   0  0  0  0  0  0  0  0  0  0  0  0
   60.1687   56.3614   26.7660 H   0  0  0  0  0  0  0  0  0  0  0  0
   59.6863   57.2169   25.2620 H   0  0  0  0  0  0  0  0  0  0  0  0
   61.1263   56.1431   25.2620 H   0  0  0  0  0  0  0  0  0  0  0  0
   61.4860   60.0047   25.4658 H   0  0  0  0  0  0  0  0  0  0  0  0
   62.3323   58.7720   24.4704 H   0  0  0  0  0  0  0  0  0  0  0  0
   60.5377   58.8486   24.4704 H   0  0  0  0  0  0  0  0  0  0  0  0
   60.0631   58.0784   27.9012 H   0  0  0  0  0  0  0  0  0  0  0  0
   61.6249   59.0176   28.0864 H   0  0  0  0  0  0  0  0  0  0  0  0
   61.4911   61.3964   28.1279 H   0  0  0  0  0  0  0  0  0  0  0  0
   59.7970   63.2590   27.1577 H   0  0  0  0  0  0  0  0  0  0  0  0
   58.2127   61.3936   23.7333 H   0  0  0  0  0  0  0  0  0  0  0  0
   56.3915   62.5748   22.5273 H   0  0  0  0  0  0  0  0  0  0  0  0
   54.8387   64.1130   23.7524 H   0  0  0  0  0  0  0  0  0  0  0  0
   54.1778   65.1401   25.8283 H   0  0  0  0  0  0  0  0  0  0  0  0
   54.4857   65.4749   28.2784 H   0  0  0  0  0  0  0  0  0  0  0  0
   56.3359   64.2786   29.5031 H   0  0  0  0  0  0  0  0  0  0  0  0
   57.8099   62.7842   28.1962 H   0  0  0  0  0  0  0  0  0  0  0  0
  1  4  1  0
  1 16  1  0
  2  7  2  0
  3  2  1  0
  3  4  2  0
  4  5  1  0
  5  6  2  0
  6  8  1  0
  7  6  1  0
  8 13  1  0
  8  9  2  0
  9 10  1  0
 10 11  2  0
 12 11  1  0
 13 12  2  0
 14  1  1  0
 15  1  1  0
 17 16  1  0
 17 18  1  0
 19 18  2  0
 20 21  1  0
 20 19  1  0
 21 17  2  0
 22 20  1  0
 22 31  1  0
 23 22  2  0
 24 23  1  0
 24 25  2  0
 25 26  1  0
 26 31  2  0
 26 27  1  0
 27 28  2  0
 28 29  1  0
 30 29  2  0
 31 30  1  0
  2 32  1  0
  3 33  1  0
  9 34  1  0
 10 35  1  0
 12 36  1  0
 14 37  1  0
 14 38  1  0
 14 39  1  0
 15 40  1  0
 15 41  1  0
 15 42  1  0
 16 43  1  0
 16 44  1  0
 18 45  1  0
 19 46  1  0
 23 47  1  0
 24 48  1  0
 25 49  1  0
 27 50  1  0
 28 51  1  0
 29 52  1  0
 30 53  1  0
M  END
>  <Score>  (1) 
-7.42056

$$$$
