
     RDKit          3D

 45 48  0  0  0  0  0  0  0  0999 V2000
   65.3010   56.7080   25.9410 C   0  0  0  0  0  0  0  0  0  0  0  0
   63.9760   56.6410   25.4610 C   0  0  0  0  0  0  0  0  0  0  0  0
   62.9320   56.8410   26.3370 C   0  0  0  0  0  0  0  0  0  0  0  0
   63.2330   57.1000   27.6450 N   0  0  0  0  0  0  0  0  0  0  0  0
   64.5050   57.1570   28.0740 C   0  0  0  0  0  0  0  0  0  0  0  0
   65.5480   56.9700   27.2630 N   0  0  0  0  0  0  0  0  0  0  0  0
   64.7310   57.4450   29.5040 C   0  0  0  0  0  0  0  0  0  0  0  0
   63.8780   58.0370   30.3990 C   0  0  0  0  0  0  0  0  0  0  0  0
   64.3250   58.1960   31.6710 C   0  0  0  0  0  0  0  0  0  0  0  0
   65.6000   57.7470   31.9600 C   0  0  0  0  0  0  0  0  0  0  0  0
   66.1800   57.0970   30.4320 S   0  0  0  0  0  0  0  0  0  0  0  0
   66.3160   57.7800   33.1690 N   0  0  0  0  0  0  0  0  0  0  0  0
   67.5290   57.1430   33.3320 C   0  0  0  0  0  0  0  0  0  0  0  0
   67.7900   56.0170   32.7740 N   0  0  0  0  0  0  0  0  0  0  0  0
   68.5030   57.7960   34.1590 N   0  0  0  0  0  0  0  0  0  0  0  0
   67.1140   55.5000   32.2170 H   0  0  0  0  0  0  0  0  0  0  0  0
   61.5440   56.7840   25.8910 C   0  0  0  0  0  0  0  0  0  0  0  0
   60.7190   55.7000   25.9920 C   0  0  0  0  0  0  0  0  0  0  0  0
   59.4930   56.1090   25.4370 C   0  0  0  0  0  0  0  0  0  0  0  0
   59.6790   57.4310   25.0380 C   0  0  0  0  0  0  0  0  0  0  0  0
   60.9080   57.7670   25.3340 O   0  0  0  0  0  0  0  0  0  0  0  0
   58.6850   58.2420   24.4220 N   0  0  0  0  0  0  0  0  0  0  0  0
   58.6690   59.6700   24.6810 C   0  0  0  0  0  0  0  0  0  0  0  0
   58.4120   60.4380   23.3860 C   0  0  0  0  0  0  0  0  0  0  0  0
   58.4010   59.5340   22.2610 N   0  0  0  0  0  0  0  0  0  0  0  0
   57.3510   58.5550   22.4030 C   0  0  0  0  0  0  0  0  0  0  0  0
   57.7090   57.6210   23.5450 C   0  0  0  0  0  0  0  0  0  0  0  0
   66.1414   56.5488   25.2493 H   0  0  0  0  0  0  0  0  0  0  0  0
   63.7789   56.4314   24.3993 H   0  0  0  0  0  0  0  0  0  0  0  0
   62.8732   58.3694   30.0991 H   0  0  0  0  0  0  0  0  0  0  0  0
   63.6963   58.6645   32.4425 H   0  0  0  0  0  0  0  0  0  0  0  0
   65.9196   58.3002   33.9647 H   0  0  0  0  0  0  0  0  0  0  0  0
   69.4239   57.3607   34.3116 H   0  0  0  0  0  0  0  0  0  0  0  0
   68.2812   58.7000   34.6000 H   0  0  0  0  0  0  0  0  0  0  0  0
   60.9621   54.7152   26.4175 H   0  0  0  0  0  0  0  0  0  0  0  0
   58.5764   55.5089   25.3383 H   0  0  0  0  0  0  0  0  0  0  0  0
   57.8721   59.8993   25.4037 H   0  0  0  0  0  0  0  0  0  0  0  0
   59.6447   59.9717   25.0897 H   0  0  0  0  0  0  0  0  0  0  0  0
   57.4387   60.9462   23.4526 H   0  0  0  0  0  0  0  0  0  0  0  0
   59.2142   61.1770   23.2432 H   0  0  0  0  0  0  0  0  0  0  0  0
   59.3089   59.0505   22.2070 H   0  0  0  0  0  0  0  0  0  0  0  0
   56.3997   59.0615   22.6232 H   0  0  0  0  0  0  0  0  0  0  0  0
   57.2430   57.9826   21.4699 H   0  0  0  0  0  0  0  0  0  0  0  0
   56.8010   57.3884   24.1208 H   0  0  0  0  0  0  0  0  0  0  0  0
   58.1403   56.6987   23.1287 H   0  0  0  0  0  0  0  0  0  0  0  0
  1  6  2  0
  2  1  1  0
  2  3  2  0
  3  4  1  0
  4  5  2  0
  5  7  1  0
  6  5  1  0
  7  8  2  0
  7 11  1  0
  8  9  1  0
  9 10  2  0
 10 12  1  0
 11 10  1  0
 12 13  1  0
 13 15  1  0
 14 13  2  0
 16 14  1  0
 17 18  2  0
 17  3  1  0
 19 18  1  0
 20 21  1  0
 20 19  2  0
 21 17  1  0
 22 23  1  0
 22 20  1  0
 24 23  1  0
 25 26  1  0
 25 24  1  0
 26 27  1  0
 27 22  1  0
  1 28  1  0
  2 29  1  0
  8 30  1  0
  9 31  1  0
 12 32  1  0
 15 33  1  0
 15 34  1  0
 18 35  1  0
 19 36  1  0
 23 37  1  0
 23 38  1  0
 24 39  1  0
 24 40  1  0
 25 41  1  0
 26 42  1  0
 26 43  1  0
 27 44  1  0
 27 45  1  0
M  END
>  <Score>  (1) 
-7.25267

$$$$
