
     RDKit          3D

 49 54  0  0  1  0  0  0  0  0999 V2000
   61.4870   56.8640   26.3670 N   0  0  0  0  0  0  0  0  0  0  0  0
   60.9740   55.5400   26.0310 C   0  0  0  0  0  0  0  0  0  0  0  0
   59.9810   55.7920   24.9350 C   0  0  0  0  0  0  0  0  0  0  0  0
   59.3830   57.1220   25.4010 C   0  0  0  0  0  0  0  0  0  0  0  0
   60.7780   57.8480   25.6700 C   0  0  1  0  0  0  0  0  0  0  0  0
   63.8870   57.1150   26.8940 C   0  0  0  0  0  0  0  0  0  0  0  0
   62.5260   57.1020   27.2830 C   0  0  0  0  0  0  0  0  0  0  0  0
   62.3060   57.3560   28.6230 C   0  0  0  0  0  0  0  0  0  0  0  0
   63.3190   57.5970   29.4650 N   0  0  0  0  0  0  0  0  0  0  0  0
   64.5810   57.5980   29.0450 C   0  0  0  0  0  0  0  0  0  0  0  0
   64.8810   57.3590   27.7690 N   0  0  0  0  0  0  0  0  0  0  0  0
   65.5300   57.8710   30.0690 N   0  0  0  0  0  0  0  0  0  0  0  0
   66.4400   56.9430   30.4500 C   0  0  0  0  0  0  0  0  0  0  0  0
   67.2110   57.4770   31.4400 N   0  0  0  0  0  0  0  0  0  0  0  0
   66.7540   58.7290   31.6420 C   0  0  0  0  0  0  0  0  0  0  0  0
   67.0970   59.7650   32.4840 C   0  0  0  0  0  0  0  0  0  0  0  0
   66.4690   60.9550   32.4970 N   0  0  0  0  0  0  0  0  0  0  0  0
   65.4350   61.1560   31.6330 C   0  0  0  0  0  0  0  0  0  0  0  0
   65.0630   60.1700   30.7900 N   0  0  0  0  0  0  0  0  0  0  0  0
   65.6950   59.0020   30.7920 C   0  0  0  0  0  0  0  0  0  0  0  0
   68.1700   59.5950   33.4020 N   0  0  0  0  0  0  0  0  0  0  0  0
   60.4930   59.1190   26.3140 C   0  0  0  0  0  0  0  0  0  0  0  0
   60.8410   59.7050   27.4920 C   0  0  0  0  0  0  0  0  0  0  0  0
   60.3840   60.9560   27.6290 N   0  0  0  0  0  0  0  0  0  0  0  0
   59.7020   61.2240   26.5130 C   0  0  0  0  0  0  0  0  0  0  0  0
   58.9860   62.3600   26.1890 C   0  0  0  0  0  0  0  0  0  0  0  0
   58.2770   62.4390   25.0050 C   0  0  0  0  0  0  0  0  0  0  0  0
   58.3180   61.3580   24.1750 C   0  0  0  0  0  0  0  0  0  0  0  0
   59.0350   60.2260   24.5030 C   0  0  0  0  0  0  0  0  0  0  0  0
   59.7500   60.1320   25.6930 C   0  0  0  0  0  0  0  0  0  0  0  0
   61.7853   54.8861   25.6785 H   0  0  0  0  0  0  0  0  0  0  0  0
   60.5233   55.0327   26.8968 H   0  0  0  0  0  0  0  0  0  0  0  0
   59.2199   54.9993   24.8864 H   0  0  0  0  0  0  0  0  0  0  0  0
   60.4108   55.8122   23.9227 H   0  0  0  0  0  0  0  0  0  0  0  0
   58.7897   57.6183   24.6189 H   0  0  0  0  0  0  0  0  0  0  0  0
   58.6677   57.0851   26.2358 H   0  0  0  0  0  0  0  0  0  0  0  0
   61.3994   58.1609   24.8180 H   0  0  0  0  0  0  0  0  0  0  0  0
   64.1411   56.9192   25.8418 H   0  0  0  0  0  0  0  0  0  0  0  0
   61.2752   57.3604   29.0071 H   0  0  0  0  0  0  0  0  0  0  0  0
   66.5401   55.9305   30.0319 H   0  0  0  0  0  0  0  0  0  0  0  0
   64.9046   62.1196   31.6225 H   0  0  0  0  0  0  0  0  0  0  0  0
   68.4330   60.3639   34.0348 H   0  0  0  0  0  0  0  0  0  0  0  0
   68.6840   58.7030   33.4339 H   0  0  0  0  0  0  0  0  0  0  0  0
   61.4423   59.1976   28.2607 H   0  0  0  0  0  0  0  0  0  0  0  0
   60.5291   61.5841   28.4323 H   0  0  0  0  0  0  0  0  0  0  0  0
   58.9800   63.2136   26.8828 H   0  0  0  0  0  0  0  0  0  0  0  0
   57.7019   63.3392   24.7425 H   0  0  0  0  0  0  0  0  0  0  0  0
   57.7674   61.3892   23.2232 H   0  0  0  0  0  0  0  0  0  0  0  0
   59.0417   59.3754   23.8055 H   0  0  0  0  0  0  0  0  0  0  0  0
  1  7  1  0
  2  1  1  0
  3  4  1  0
  3  2  1  0
  4  5  1  0
  5 22  1  0
  5  1  1  0
  6  7  2  0
  6 11  1  0
  7  8  1  0
  8  9  2  0
 10  9  1  0
 10 12  1  0
 11 10  2  0
 12 13  1  0
 12 20  1  0
 13 14  2  0
 14 15  1  0
 15 16  2  0
 16 17  1  0
 16 21  1  0
 18 17  2  0
 19 20  2  0
 19 18  1  0
 20 15  1  0
 22 23  2  0
 23 24  1  0
 25 24  1  0
 26 25  2  0
 27 26  1  0
 28 29  1  0
 28 27  2  0
 29 30  2  0
 30 22  1  0
 30 25  1  0
  2 31  1  0
  2 32  1  0
  3 33  1  0
  3 34  1  0
  4 35  1  0
  4 36  1  0
  5 37  1  6
  6 38  1  0
  8 39  1  0
 13 40  1  0
 18 41  1  0
 21 42  1  0
 21 43  1  0
 23 44  1  0
 24 45  1  0
 26 46  1  0
 27 47  1  0
 28 48  1  0
 29 49  1  0
M  END
>  <Score>  (1) 
-7.74933

$$$$
