
     RDKit          3D

 55 59  0  0  1  0  0  0  0  0999 V2000
   61.4560   57.0400   26.6960 C   0  0  2  0  0  0  0  0  0  0  0  0
   61.3360   55.8090   25.8040 C   0  0  0  0  0  0  0  0  0  0  0  0
   59.8570   55.7500   25.4690 C   0  0  0  0  0  0  0  0  0  0  0  0
   59.6550   56.8620   24.4960 C   0  0  0  0  0  0  0  0  0  0  0  0
   59.9570   58.2290   25.0780 C   0  0  0  0  0  0  0  0  0  0  0  0
   61.1310   58.3030   25.9580 C   0  0  1  0  0  0  0  0  0  0  0  0
   63.9810   57.2530   26.4860 C   0  0  0  0  0  0  0  0  0  0  0  0
   62.8100   57.0940   27.2750 C   0  0  0  0  0  0  0  0  0  0  0  0
   63.0120   56.9930   28.6410 C   0  0  0  0  0  0  0  0  0  0  0  0
   64.2610   57.0470   29.1490 N   0  0  0  0  0  0  0  0  0  0  0  0
   65.3340   57.1970   28.3680 C   0  0  0  0  0  0  0  0  0  0  0  0
   65.2020   57.3010   27.0380 N   0  0  0  0  0  0  0  0  0  0  0  0
   60.8050   59.2760   27.0180 N   0  0  0  0  0  0  0  0  0  0  0  0
   60.9780   59.2070   28.3280 N   0  0  0  0  0  0  0  0  0  0  0  0
   60.5300   60.3260   28.9010 C   0  0  0  0  0  0  0  0  0  0  0  0
   60.0590   61.1260   27.9010 C   0  0  0  0  0  0  0  0  0  0  0  0
   60.2270   60.4690   26.6970 C   0  0  0  0  0  0  0  0  0  0  0  0
   59.7760   61.1720   25.5140 C   0  0  0  0  0  0  0  0  0  0  0  0
   59.2840   62.5720   25.6910 C   0  0  0  0  0  0  0  0  0  0  0  0
   57.9450   62.9550   25.3890 C   0  0  0  0  0  0  0  0  0  0  0  0
   57.5080   62.3450   24.1860 C   0  0  0  0  0  0  0  0  0  0  0  0
   56.2100   62.4590   23.6770 C   0  0  0  0  0  0  0  0  0  0  0  0
   55.2770   63.2070   24.3700 C   0  0  0  0  0  0  0  0  0  0  0  0
   55.6260   63.8350   25.5500 C   0  0  0  0  0  0  0  0  0  0  0  0
   54.7880   64.6170   26.2950 C   0  0  0  0  0  0  0  0  0  0  0  0
   55.1570   65.2730   27.4730 C   0  0  0  0  0  0  0  0  0  0  0  0
   56.4720   65.0720   27.8460 C   0  0  0  0  0  0  0  0  0  0  0  0
   57.3340   64.2900   27.1140 C   0  0  0  0  0  0  0  0  0  0  0  0
   56.9170   63.6630   25.9610 C   0  0  0  0  0  0  0  0  0  0  0  0
   60.7177   56.9544   27.5069 H   0  0  0  0  0  0  0  0  0  0  0  0
   61.9404   55.9249   24.8922 H   0  0  0  0  0  0  0  0  0  0  0  0
   61.6995   54.8924   26.2915 H   0  0  0  0  0  0  0  0  0  0  0  0
   59.5988   54.7824   25.0140 H   0  0  0  0  0  0  0  0  0  0  0  0
   59.2199   55.8503   26.3601 H   0  0  0  0  0  0  0  0  0  0  0  0
   58.6069   56.8482   24.1623 H   0  0  0  0  0  0  0  0  0  0  0  0
   60.3564   56.6993   23.6644 H   0  0  0  0  0  0  0  0  0  0  0  0
   60.1180   58.9243   24.2410 H   0  0  0  0  0  0  0  0  0  0  0  0
   59.0930   58.4827   25.7098 H   0  0  0  0  0  0  0  0  0  0  0  0
   61.9835   58.5510   25.3085 H   0  0  0  0  0  0  0  0  0  0  0  0
   63.8833   57.3390   25.3937 H   0  0  0  0  0  0  0  0  0  0  0  0
   62.1513   56.8683   29.3146 H   0  0  0  0  0  0  0  0  0  0  0  0
   66.3359   57.2356   28.8205 H   0  0  0  0  0  0  0  0  0  0  0  0
   60.5388   60.5592   29.9760 H   0  0  0  0  0  0  0  0  0  0  0  0
   59.6194   62.1259   28.0314 H   0  0  0  0  0  0  0  0  0  0  0  0
   58.9544   60.5866   25.0756 H   0  0  0  0  0  0  0  0  0  0  0  0
   60.6730   61.2668   24.8844 H   0  0  0  0  0  0  0  0  0  0  0  0
   59.4413   62.8198   26.7511 H   0  0  0  0  0  0  0  0  0  0  0  0
   59.8532   63.1113   24.9195 H   0  0  0  0  0  0  0  0  0  0  0  0
   58.2343   61.7452   23.6180 H   0  0  0  0  0  0  0  0  0  0  0  0
   55.9352   61.9593   22.7364 H   0  0  0  0  0  0  0  0  0  0  0  0
   54.2527   63.3026   23.9805 H   0  0  0  0  0  0  0  0  0  0  0  0
   53.7527   64.7383   25.9436 H   0  0  0  0  0  0  0  0  0  0  0  0
   54.4602   65.8958   28.0532 H   0  0  0  0  0  0  0  0  0  0  0  0
   56.8429   65.5552   28.7620 H   0  0  0  0  0  0  0  0  0  0  0  0
   58.3723   64.1633   27.4545 H   0  0  0  0  0  0  0  0  0  0  0  0
  1  8  1  0
  2  1  1  0
  3  2  1  0
  4  5  1  0
  4  3  1  0
  5  6  1  0
  6  1  1  0
  6 13  1  0
  7 12  2  0
  7  8  1  0
  8  9  2  0
  9 10  1  0
 11 10  2  0
 12 11  1  0
 13 14  1  0
 14 15  2  0
 16 15  1  0
 17 13  1  0
 17 16  2  0
 18 19  1  0
 18 17  1  0
 20 19  1  0
 20 29  1  0
 21 20  2  0
 22 21  1  0
 22 23  2  0
 23 24  1  0
 24 29  2  0
 24 25  1  0
 25 26  2  0
 26 27  1  0
 28 27  2  0
 29 28  1  0
  1 30  1  1
  2 31  1  0
  2 32  1  0
  3 33  1  0
  3 34  1  0
  4 35  1  0
  4 36  1  0
  5 37  1  0
  5 38  1  0
  6 39  1  6
  7 40  1  0
  9 41  1  0
 11 42  1  0
 15 43  1  0
 16 44  1  0
 18 45  1  0
 18 46  1  0
 19 47  1  0
 19 48  1  0
 21 49  1  0
 22 50  1  0
 23 51  1  0
 25 52  1  0
 26 53  1  0
 27 54  1  0
 28 55  1  0
M  END
>  <Score>  (1) 
-7.88658

$$$$
