
     RDKit          3D

 51 55  0  0  1  0  0  0  0  0999 V2000
   61.4250   57.0660   26.2110 N   0  0  0  0  0  0  0  0  0  0  0  0
   60.9150   55.7540   25.8390 C   0  0  0  0  0  0  0  0  0  0  0  0
   59.9700   56.0310   24.7090 C   0  0  0  0  0  0  0  0  0  0  0  0
   59.3650   57.3480   25.1930 C   0  0  0  0  0  0  0  0  0  0  0  0
   60.7820   58.0800   25.4790 C   0  0  1  0  0  0  0  0  0  0  0  0
   60.4770   59.3430   26.1430 C   0  0  0  0  0  0  0  0  0  0  0  0
   60.8800   59.9320   27.3380 C   0  0  0  0  0  0  0  0  0  0  0  0
   60.3200   61.1570   27.4940 N   0  0  0  0  0  0  0  0  0  0  0  0
   59.5580   61.3860   26.4180 C   0  0  0  0  0  0  0  0  0  0  0  0
   58.8140   62.5070   26.1440 C   0  0  0  0  0  0  0  0  0  0  0  0
   58.1060   62.5920   24.9890 C   0  0  0  0  0  0  0  0  0  0  0  0
   58.1690   61.5350   24.1350 C   0  0  0  0  0  0  0  0  0  0  0  0
   58.9190   60.4060   24.4190 C   0  0  0  0  0  0  0  0  0  0  0  0
   59.6370   60.3010   25.5750 C   0  0  0  0  0  0  0  0  0  0  0  0
   63.7920   57.0790   26.9150 C   0  0  0  0  0  0  0  0  0  0  0  0
   62.4160   57.2720   27.1940 C   0  0  0  0  0  0  0  0  0  0  0  0
   62.1080   57.6940   28.4880 C   0  0  0  0  0  0  0  0  0  0  0  0
   63.0960   57.8940   29.3730 N   0  0  0  0  0  0  0  0  0  0  0  0
   64.3740   57.6990   29.0630 C   0  0  0  0  0  0  0  0  0  0  0  0
   64.7410   57.2930   27.8450 N   0  0  0  0  0  0  0  0  0  0  0  0
   65.3230   57.9490   30.0980 N   0  0  0  0  0  0  0  0  0  0  0  0
   66.3930   57.0290   30.3460 C   0  0  0  0  0  0  0  0  0  0  0  0
   66.8860   56.9710   31.7490 C   0  0  0  0  0  0  0  0  0  0  0  0
   66.0320   57.7720   32.7120 C   0  0  0  0  0  0  0  0  0  0  0  0
   65.9970   59.1840   32.1190 C   0  0  0  0  0  0  0  0  0  0  0  0
   65.1690   59.1560   30.8850 C   0  0  0  0  0  0  0  0  0  0  0  0
   61.7334   55.0966   25.5103 H   0  0  0  0  0  0  0  0  0  0  0  0
   60.4261   55.2393   26.6793 H   0  0  0  0  0  0  0  0  0  0  0  0
   59.2088   55.2431   24.6098 H   0  0  0  0  0  0  0  0  0  0  0  0
   60.4348   56.0708   23.7128 H   0  0  0  0  0  0  0  0  0  0  0  0
   58.7721   57.8551   24.4176 H   0  0  0  0  0  0  0  0  0  0  0  0
   58.6459   57.2980   26.0239 H   0  0  0  0  0  0  0  0  0  0  0  0
   61.4315   58.3986   24.6503 H   0  0  0  0  0  0  0  0  0  0  0  0
   61.5639   59.4645   28.0617 H   0  0  0  0  0  0  0  0  0  0  0  0
   60.4559   61.7932   28.2925 H   0  0  0  0  0  0  0  0  0  0  0  0
   58.7916   63.3392   26.8630 H   0  0  0  0  0  0  0  0  0  0  0  0
   57.5041   63.4819   24.7525 H   0  0  0  0  0  0  0  0  0  0  0  0
   57.6072   61.5784   23.1903 H   0  0  0  0  0  0  0  0  0  0  0  0
   58.9364   59.5760   23.6974 H   0  0  0  0  0  0  0  0  0  0  0  0
   64.0926   56.7452   25.9109 H   0  0  0  0  0  0  0  0  0  0  0  0
   61.0610   57.8617   28.7806 H   0  0  0  0  0  0  0  0  0  0  0  0
   66.0441   56.0232   30.0691 H   0  0  0  0  0  0  0  0  0  0  0  0
   67.2416   57.3895   29.7461 H   0  0  0  0  0  0  0  0  0  0  0  0
   66.8907   55.9206   32.0755 H   0  0  0  0  0  0  0  0  0  0  0  0
   67.8945   57.4101   31.7611 H   0  0  0  0  0  0  0  0  0  0  0  0
   65.0174   57.3515   32.7726 H   0  0  0  0  0  0  0  0  0  0  0  0
   66.4360   57.7602   33.7351 H   0  0  0  0  0  0  0  0  0  0  0  0
   65.5557   59.8813   32.8464 H   0  0  0  0  0  0  0  0  0  0  0  0
   67.0175   59.5186   31.8810 H   0  0  0  0  0  0  0  0  0  0  0  0
   65.4521   60.0152   30.2592 H   0  0  0  0  0  0  0  0  0  0  0  0
   64.1178   59.1937   31.2067 H   0  0  0  0  0  0  0  0  0  0  0  0
  1 16  1  0
  2  1  1  0
  3  4  1  0
  3  2  1  0
  4  5  1  0
  5  6  1  0
  5  1  1  0
  6  7  2  0
  7  8  1  0
  9  8  1  0
 10  9  2  0
 11 10  1  0
 12 13  1  0
 12 11  2  0
 13 14  2  0
 14  6  1  0
 14  9  1  0
 15 16  2  0
 15 20  1  0
 16 17  1  0
 17 18  2  0
 19 18  1  0
 19 21  1  0
 20 19  2  0
 21 22  1  0
 21 26  1  0
 22 23  1  0
 23 24  1  0
 25 24  1  0
 26 25  1  0
  2 27  1  0
  2 28  1  0
  3 29  1  0
  3 30  1  0
  4 31  1  0
  4 32  1  0
  5 33  1  6
  7 34  1  0
  8 35  1  0
 10 36  1  0
 11 37  1  0
 12 38  1  0
 13 39  1  0
 15 40  1  0
 17 41  1  0
 22 42  1  0
 22 43  1  0
 23 44  1  0
 23 45  1  0
 24 46  1  0
 24 47  1  0
 25 48  1  0
 25 49  1  0
 26 50  1  0
 26 51  1  0
M  END
>  <Score>  (1) 
-7.18349

$$$$
