
 OpenBabel03232515463D

 30 31  0  0  0  0  0  0  0  0999 V2000
   46.8730   33.5920   43.3100 C   0  0  0  0  0  0  0  0  0  0  0  0
   50.2130   32.0770   42.2890 C   0  0  0  0  0  0  0  0  0  0  0  0
   48.8530   32.1340   42.6420 C   0  0  0  0  0  0  0  0  0  0  0  0
   48.2780   33.3840   42.9290 C   0  0  0  0  0  0  0  0  0  0  0  0
   49.0900   34.4680   42.8450 N   0  0  0  0  0  0  0  0  0  0  0  0
   50.4010   34.3930   42.5020 C   0  0  0  0  0  0  0  0  0  0  0  0
   50.9540   33.1940   42.2250 N   0  0  0  0  0  0  0  0  0  0  0  0
   50.6420   31.1250   42.0730 H   0  0  0  0  0  0  0  0  0  0  0  0
   48.2130   31.2710   42.7080 H   0  0  0  0  0  0  0  0  0  0  0  0
   50.9990   35.2930   42.4500 H   0  0  0  0  0  0  0  0  0  0  0  0
   46.0420   32.5900   42.5170 C   0  0  0  0  0  0  0  0  0  0  0  0
   46.4500   31.5460   42.6780 H   0  0  0  0  0  0  0  0  0  0  0  0
   44.9920   32.5230   42.8800 H   0  0  0  0  0  0  0  0  0  0  0  0
   46.1420   32.7490   41.4310 H   0  0  0  0  0  0  0  0  0  0  0  0
   46.6170   33.4400   44.7820 C   0  0  0  0  0  0  0  0  0  0  0  0
   47.0240   32.4530   45.1360 H   0  0  0  0  0  0  0  0  0  0  0  0
   47.2270   34.2000   45.3130 H   0  0  0  0  0  0  0  0  0  0  0  0
   45.5750   33.5810   45.0650 H   0  0  0  0  0  0  0  0  0  0  0  0
   46.4500   34.9700   42.8950 C   0  0  0  0  0  0  0  0  0  0  0  0
   46.7710   35.7340   43.6590 H   0  0  0  0  0  0  0  0  0  0  0  0
   46.9910   35.3110   41.9640 H   0  0  0  0  0  0  0  0  0  0  0  0
   45.0560   35.1190   42.5960 N   0  0  0  0  0  0  0  0  0  0  0  0
   44.7320   34.7940   41.3090 C   0  0  0  0  0  0  0  0  0  0  0  0
   43.4450   34.8720   40.8270 C   0  0  0  0  0  0  0  0  0  0  0  0
   42.4320   35.2940   41.6570 C   0  0  0  0  0  0  0  0  0  0  0  0
   41.2280   35.3950   41.3020 O   0  0  0  0  0  0  0  0  0  0  0  0
   42.7850   35.6110   42.9370 N   0  0  0  0  0  0  0  0  0  0  0  0
   44.0490   35.5270   43.3890 C   0  0  0  0  0  0  0  0  0  0  0  0
   44.3830   35.8120   44.5460 O   0  0  0  0  0  0  0  0  0  0  0  0
   42.0500   35.9370   43.6060 H   0  0  0  0  0  0  0  0  0  0  0  0
  1 15  1  0  0  0  0
  2  3  1  0  0  0  0
  3  9  1  0  0  0  0
  3  4  2  0  0  0  0
  4  1  1  0  0  0  0
  5  4  1  0  0  0  0
  6  5  2  0  0  0  0
  7  2  2  0  0  0  0
  7  6  1  0  0  0  0
  8  2  1  0  0  0  0
 10  6  1  0  0  0  0
 11 12  1  0  0  0  0
 11 13  1  0  0  0  0
 11  1  1  0  0  0  0
 14 11  1  0  0  0  0
 15 18  1  0  0  0  0
 15 16  1  0  0  0  0
 15 17  1  0  0  0  0
 19  1  1  0  0  0  0
 19 20  1  0  0  0  0
 21 19  1  0  0  0  0
 22 19  1  0  0  0  0
 22 28  1  0  0  0  0
 23 22  1  0  0  0  0
 24 23  2  0  0  0  0
 24 25  1  0  0  0  0
 25 27  1  0  0  0  0
 26 25  2  0  0  0  0
 27 28  1  0  0  0  0
 27 30  1  0  0  0  0
 28 29  2  0  0  0  0
M  END
>  <minimizedAffinity>
-5.06342745

>  <minimizedRMSD>
6.20818138

$$$$
