
 OpenBabel03232518543D

 38 41  0  0  0  0  0  0  0  0999 V2000
   48.0880   33.2830   42.4930 O   0  0  0  0  0  0  0  0  0  0  0  0
   48.4820   32.3550   41.6250 C   0  0  0  0  0  0  0  0  0  0  0  0
   47.6620   31.2000   41.2380 C   0  0  0  0  0  0  0  0  0  0  0  0
   48.7280   30.3340   40.0610 S   0  0  0  0  0  0  0  0  0  0  0  0
   50.1020   31.6300   40.2530 C   0  0  0  0  0  0  0  0  0  0  0  0
   49.6300   32.3740   41.0310 N   0  0  0  0  0  0  0  0  0  0  0  0
   46.5810   30.6590   41.4400 H   0  0  0  0  0  0  0  0  0  0  0  0
   51.3820   31.4790   39.4630 C   0  0  0  0  0  0  0  0  0  0  0  0
   52.5870   31.1070   39.9050 C   0  0  0  0  0  0  0  0  0  0  0  0
   53.3210   31.1480   38.7800 N   0  0  0  0  0  0  0  0  0  0  0  0
   52.5380   31.5370   37.7280 C   0  0  0  0  0  0  0  0  0  0  0  0
   51.2820   31.7490   38.1840 N   0  0  0  0  0  0  0  0  0  0  0  0
   52.8300   30.8540   40.9180 H   0  0  0  0  0  0  0  0  0  0  0  0
   52.8990   31.6500   36.6930 H   0  0  0  0  0  0  0  0  0  0  0  0
   50.2180   32.1600   37.3380 C   0  0  0  0  0  0  0  0  0  0  0  0
   50.1440   31.1680   36.2680 C   0  0  0  0  0  0  0  0  0  0  0  0
   48.7300   31.7360   35.1600 S   0  0  0  0  0  0  0  0  0  0  0  0
   48.4960   33.2170   36.3540 C   0  0  0  0  0  0  0  0  0  0  0  0
   47.9130   34.2820   36.7210 H   0  0  0  0  0  0  0  0  0  0  0  0
   49.2930   33.0520   37.1300 N   0  0  0  0  0  0  0  0  0  0  0  0
   47.3950   33.1400   43.6690 C   0  0  0  0  0  0  0  0  0  0  0  0
   47.9990   32.0800   43.9380 O   0  0  0  0  0  0  0  0  0  0  0  0
   44.6930   35.3240   44.9580 C   0  0  0  0  0  0  0  0  0  0  0  0
   45.6230   34.8510   44.0430 C   0  0  0  0  0  0  0  0  0  0  0  0
   46.3960   33.7720   44.4470 C   0  0  0  0  0  0  0  0  0  0  0  0
   46.2160   33.2380   45.6840 N   0  0  0  0  0  0  0  0  0  0  0  0
   45.3220   33.7060   46.5390 C   0  0  0  0  0  0  0  0  0  0  0  0
   44.5820   34.7310   46.1660 N   0  0  0  0  0  0  0  0  0  0  0  0
   44.0550   36.1630   44.7110 H   0  0  0  0  0  0  0  0  0  0  0  0
   45.7900   35.4540   42.7130 C   0  0  0  0  0  0  0  0  0  0  0  0
   44.8500   36.4830   42.6060 F   0  0  0  0  0  0  0  0  0  0  0  0
   45.4040   34.5760   41.7300 F   0  0  0  0  0  0  0  0  0  0  0  0
   47.0410   35.9260   42.4820 F   0  0  0  0  0  0  0  0  0  0  0  0
   45.0920   33.2120   47.8010 O   0  0  0  0  0  0  0  0  0  0  0  0
   45.8410   32.1500   48.3560 C   0  0  0  0  0  0  0  0  0  0  0  0
   47.1860   32.4880   48.4600 F   0  0  0  0  0  0  0  0  0  0  0  0
   45.6330   30.9550   47.7060 F   0  0  0  0  0  0  0  0  0  0  0  0
   45.4220   32.0370   49.6950 F   0  0  0  0  0  0  0  0  0  0  0  0
  1 21  1  0  0  0  0
  2  1  1  0  0  0  0
  3  7  1  0  0  0  0
  3  2  2  0  0  0  0
  4  5  1  0  0  0  0
  4  3  1  0  0  0  0
  5  6  2  0  0  0  0
  6  2  1  0  0  0  0
  8  9  2  0  0  0  0
  8  5  1  0  0  0  0
  9 13  1  0  0  0  0
 10  9  1  0  0  0  0
 11 12  1  0  0  0  0
 11 10  2  0  0  0  0
 12  8  1  0  0  0  0
 14 11  1  0  0  0  0
 15 12  1  0  0  0  0
 16 15  2  0  0  0  0
 17 16  1  0  0  0  0
 17 18  1  0  0  0  0
 18 19  1  0  0  0  0
 18 20  2  0  0  0  0
 20 15  1  0  0  0  0
 21 22  2  0  0  0  0
 21 25  1  0  0  0  0
 23 28  1  0  0  0  0
 24 25  1  0  0  0  0
 24 23  2  0  0  0  0
 25 26  2  0  0  0  0
 26 27  1  0  0  0  0
 27 34  1  0  0  0  0
 28 27  2  0  0  0  0
 29 23  1  0  0  0  0
 30 24  1  0  0  0  0
 31 30  1  0  0  0  0
 32 30  1  0  0  0  0
 33 30  1  0  0  0  0
 34 35  1  0  0  0  0
 35 36  1  0  0  0  0
 35 38  1  0  0  0  0
 37 35  1  0  0  0  0
M  END
>  <minimizedAffinity>
-6.18862247

>  <minimizedRMSD>
1.06037045

$$$$
