
 OpenBabel03232521003D

 41 44  0  0  1  0  0  0  0  0999 V2000
   45.3310   32.8920   47.5170 C   0  0  0  0  0  0  0  0  0  0  0  0
   45.8860   32.6320   46.3100 C   0  0  0  0  0  0  0  0  0  0  0  0
   46.1660   31.2890   46.0670 C   0  0  0  0  0  0  0  0  0  0  0  0
   45.9070   30.3050   46.9660 N   0  0  0  0  0  0  0  0  0  0  0  0
   45.3420   30.6340   48.1820 C   0  0  0  0  0  0  0  0  0  0  0  0
   45.0680   31.9010   48.4290 N   0  0  0  0  0  0  0  0  0  0  0  0
   45.1350   29.6130   49.1560 N   0  0  0  0  0  0  0  0  0  0  0  0
   45.0760   33.8980   47.8120 H   0  0  0  0  0  0  0  0  0  0  0  0
   44.3030   28.9820   49.1100 H   0  0  0  0  0  0  0  0  0  0  0  0
   45.7890   29.4290   49.9640 H   0  0  0  0  0  0  0  0  0  0  0  0
   46.1490   33.5840   45.2830 C   0  0  2  0  0  0  0  0  0  0  0  0
   44.9540   34.6890   45.5070 C   0  0  0  0  0  0  0  0  0  0  0  0
   44.7310   35.6180   44.4370 C   0  0  0  0  0  0  0  0  0  0  0  0
   45.5350   35.5380   43.2110 C   0  0  1  0  0  0  0  0  0  0  0  0
   46.5870   34.5330   43.1700 C   0  0  0  0  0  0  0  0  0  0  0  0
   46.1270   33.3020   43.9180 C   0  0  0  0  0  0  0  0  0  0  0  0
   46.9740   34.2830   45.6180 H   0  0  0  0  0  0  0  0  0  0  0  0
   44.2750   34.8570   46.3320 H   0  0  0  0  0  0  0  0  0  0  0  0
   43.9700   36.3490   44.5420 H   0  0  0  0  0  0  0  0  0  0  0  0
   45.9740   36.5340   42.9950 H   0  0  0  0  0  0  0  0  0  0  0  0
   46.8360   34.3120   42.0900 H   0  0  0  0  0  0  0  0  0  0  0  0
   47.5400   34.8580   43.6490 H   0  0  0  0  0  0  0  0  0  0  0  0
   46.9840   32.6500   43.5950 H   0  0  0  0  0  0  0  0  0  0  0  0
   45.1920   32.8830   43.4890 H   0  0  0  0  0  0  0  0  0  0  0  0
   44.5210   35.2790   42.0600 C   0  0  0  0  0  0  0  0  0  0  0  0
   43.4590   34.4810   42.4520 F   0  0  0  0  0  0  0  0  0  0  0  0
   43.9820   36.5180   41.7230 F   0  0  0  0  0  0  0  0  0  0  0  0
   45.1970   34.8180   40.9460 F   0  0  0  0  0  0  0  0  0  0  0  0
   46.7950   30.5890   44.9610 C   0  0  0  0  0  0  0  0  0  0  0  0
   46.4410   29.8150   43.9030 C   0  0  0  0  0  0  0  0  0  0  0  0
   47.6170   29.4320   43.2380 C   0  0  0  0  0  0  0  0  0  0  0  0
   48.6160   29.9890   43.9230 N   0  0  0  0  0  0  0  0  0  0  0  0
   48.1570   30.6770   44.9450 N   0  0  0  0  0  0  0  0  0  0  0  0
   45.3920   29.6340   43.7530 H   0  0  0  0  0  0  0  0  0  0  0  0
   47.5650   28.8090   42.3630 H   0  0  0  0  0  0  0  0  0  0  0  0
   50.0020   29.8200   43.5390 C   0  0  0  0  0  0  0  0  0  0  0  0
   50.5460   30.1230   42.2850 C   0  0  0  0  0  3  0  0  0  0  0  0
   52.3370   29.6440   42.5630 S   0  0  0  0  0  0  0  0  0  0  0  0
   51.9660   29.1270   44.3500 C   0  0  0  0  0  0  0  0  0  0  0  0
   52.7920   28.7550   44.9310 H   0  0  0  0  0  0  0  0  0  0  0  0
   50.7570   29.3350   44.5040 N   0  0  0  0  0  0  0  0  0  0  0  0
  1  8  1  0  0  0  0
  1  6  1  0  0  0  0
  2  1  2  0  0  0  0
  3  2  1  0  0  0  0
  3  4  2  0  0  0  0
  4  5  1  0  0  0  0
  5  6  2  0  0  0  0
  5  7  1  0  0  0  0
  7 10  1  0  0  0  0
  9  7  1  0  0  0  0
 11 12  1  0  0  0  0
 11 17  1  1  0  0  0
 11  2  1  0  0  0  0
 12 18  1  0  0  0  0
 13 19  1  0  0  0  0
 13 12  2  0  0  0  0
 14 20  1  6  0  0  0
 14 13  1  0  0  0  0
 15 14  1  0  0  0  0
 15 22  1  0  0  0  0
 15 16  1  0  0  0  0
 16 11  1  0  0  0  0
 21 15  1  0  0  0  0
 23 16  1  0  0  0  0
 24 16  1  0  0  0  0
 25 26  1  0  0  0  0
 25 14  1  0  0  0  0
 27 25  1  0  0  0  0
 28 25  1  0  0  0  0
 29  3  1  0  0  0  0
 30 29  1  0  0  0  0
 31 30  2  0  0  0  0
 31 32  1  0  0  0  0
 32 33  1  0  0  0  0
 33 29  2  0  0  0  0
 34 30  1  0  0  0  0
 35 31  1  0  0  0  0
 36 32  1  0  0  0  0
 36 41  1  0  0  0  0
 37 38  1  0  0  0  0
 37 36  2  0  0  0  0
 38 39  1  0  0  0  0
 39 41  2  0  0  0  0
 39 40  1  0  0  0  0
M  END
>  <minimizedAffinity>
-5.70751667

>  <minimizedRMSD>
0.231146216

$$$$
