
 OpenBabel03232512153D

 36 38  0  0  0  0  0  0  0  0999 V2000
   47.4760   33.7290   42.5960 C   0  0  0  0  0  0  0  0  0  0  0  0
   45.9890   33.3440   45.9480 C   0  0  0  0  0  0  0  0  0  0  0  0
   45.0200   34.3620   45.8870 C   0  0  0  0  0  0  0  0  0  0  0  0
   45.3200   35.0360   44.1550 S   0  0  0  0  0  0  0  0  0  0  0  0
   46.7160   33.7810   43.8710 C   0  0  0  0  0  0  0  0  0  0  0  0
   46.7100   33.2370   44.8450 N   0  0  0  0  0  0  0  0  0  0  0  0
   44.3060   34.6970   46.5760 H   0  0  0  0  0  0  0  0  0  0  0  0
   47.4290   31.4900   48.7390 C   0  0  0  0  0  0  0  0  0  0  0  0
   46.2920   31.0740   49.4570 C   0  0  0  0  0  0  0  0  0  0  0  0
   45.0450   31.4300   48.9820 C   0  0  0  0  0  0  0  0  0  0  0  0
   45.0050   32.1680   47.8410 N   0  0  0  0  0  0  0  0  0  0  0  0
   46.0830   32.5580   47.1660 C   0  0  0  0  0  0  0  0  0  0  0  0
   47.3120   32.2250   47.6050 N   0  0  0  0  0  0  0  0  0  0  0  0
   48.4410   31.2280   49.0800 H   0  0  0  0  0  0  0  0  0  0  0  0
   46.4110   30.4920   50.3520 H   0  0  0  0  0  0  0  0  0  0  0  0
   44.1320   31.1350   49.4980 H   0  0  0  0  0  0  0  0  0  0  0  0
   47.4720   32.3460   42.0840 C   0  0  0  0  0  0  0  0  0  0  0  0
   48.1580   32.1850   41.2200 H   0  0  0  0  0  0  0  0  0  0  0  0
   46.4510   32.0280   41.8790 H   0  0  0  0  0  0  0  0  0  0  0  0
   47.8390   31.6350   42.8850 H   0  0  0  0  0  0  0  0  0  0  0  0
   48.9120   34.2160   42.8740 C   0  0  0  0  0  0  0  0  0  0  0  0
   48.8140   35.2950   43.1120 H   0  0  0  0  0  0  0  0  0  0  0  0
   49.2700   33.6420   43.7620 H   0  0  0  0  0  0  0  0  0  0  0  0
   49.5010   34.0140   41.9740 H   0  0  0  0  0  0  0  0  0  0  0  0
   46.9130   34.6870   41.5820 C   0  0  0  0  0  0  0  0  0  0  0  0
   47.2580   35.7070   41.8700 H   0  0  0  0  0  0  0  0  0  0  0  0
   45.8060   34.7140   41.6650 H   0  0  0  0  0  0  0  0  0  0  0  0
   47.3580   34.3970   40.2630 N   0  0  0  0  0  0  0  0  0  0  0  0
   46.7470   33.4480   39.4960 C   0  0  0  0  0  0  0  0  0  0  0  0
   47.1180   33.1170   38.2110 C   0  0  0  0  0  0  0  0  0  0  0  0
   48.1820   33.7800   37.6390 C   0  0  0  0  0  0  0  0  0  0  0  0
   48.5910   33.5470   36.4740 O   0  0  0  0  0  0  0  0  0  0  0  0
   48.8000   34.7190   38.3740 N   0  0  0  0  0  0  0  0  0  0  0  0
   48.3820   34.9890   39.6230 C   0  0  0  0  0  0  0  0  0  0  0  0
   49.0310   35.8790   40.2160 O   0  0  0  0  0  0  0  0  0  0  0  0
   49.6050   35.2180   37.9370 H   0  0  0  0  0  0  0  0  0  0  0  0
  1 21  1  0  0  0  0
  1  5  1  0  0  0  0
  2 12  1  0  0  0  0
  3  2  2  0  0  0  0
  3  7  1  0  0  0  0
  4  3  1  0  0  0  0
  5  4  1  0  0  0  0
  5  6  2  0  0  0  0
  6  2  1  0  0  0  0
  8 14  1  0  0  0  0
  8  9  1  0  0  0  0
  9 15  1  0  0  0  0
 10  9  2  0  0  0  0
 10 16  1  0  0  0  0
 11 10  1  0  0  0  0
 12 13  1  0  0  0  0
 12 11  2  0  0  0  0
 13  8  2  0  0  0  0
 17  1  1  0  0  0  0
 17 20  1  0  0  0  0
 18 17  1  0  0  0  0
 19 17  1  0  0  0  0
 21 22  1  0  0  0  0
 21 23  1  0  0  0  0
 24 21  1  0  0  0  0
 25 27  1  0  0  0  0
 25 26  1  0  0  0  0
 25  1  1  0  0  0  0
 28 25  1  0  0  0  0
 29 28  1  0  0  0  0
 30 29  2  0  0  0  0
 31 30  1  0  0  0  0
 31 33  1  0  0  0  0
 32 31  2  0  0  0  0
 33 34  1  0  0  0  0
 34 35  2  0  0  0  0
 34 28  1  0  0  0  0
 36 33  1  0  0  0  0
M  END
>  <minimizedAffinity>
-5.82501698

>  <minimizedRMSD>
2.06926131

$$$$
