
 OpenBabel03232517483D

 25 27  0  0  0  0  0  0  0  0999 V2000
   47.6950   31.0540   48.2870 N   0  0  0  0  0  0  0  0  0  0  0  0
   47.6670   31.6260   47.0990 C   0  0  0  0  0  0  0  0  0  0  0  0
   46.5730   32.4900   47.0210 C   0  0  0  0  0  0  0  0  0  0  0  0
   45.9450   32.4240   48.1930 N   0  0  0  0  0  0  0  0  0  0  0  0
   46.6240   31.5530   48.9640 C   0  0  0  0  0  0  0  0  0  0  0  0
   48.3710   31.4600   46.3030 H   0  0  0  0  0  0  0  0  0  0  0  0
   46.3180   31.3160   49.9770 H   0  0  0  0  0  0  0  0  0  0  0  0
   49.2110   30.4980   50.0190 C   0  0  0  0  0  0  0  0  0  0  0  0
   48.5920   30.1300   48.8130 C   0  0  0  0  0  0  0  0  0  0  0  0
   48.9270   28.8990   48.2710 C   0  0  0  0  0  0  0  0  0  0  0  0
   49.8310   28.1220   48.9360 N   0  0  0  0  0  0  0  0  0  0  0  0
   50.4040   28.5070   50.0910 C   0  0  0  0  0  0  0  0  0  0  0  0
   50.0900   29.6890   50.6220 N   0  0  0  0  0  0  0  0  0  0  0  0
   49.0410   31.4350   50.5540 H   0  0  0  0  0  0  0  0  0  0  0  0
   48.4450   28.6260   47.3440 H   0  0  0  0  0  0  0  0  0  0  0  0
   51.1000   27.7720   50.4880 H   0  0  0  0  0  0  0  0  0  0  0  0
   46.2170   33.2970   45.8600 C   0  0  0  0  0  0  0  0  0  0  0  0
   46.7630   33.2000   44.6040 C   0  0  0  0  0  0  0  0  0  0  0  0
   46.0950   34.1760   43.8520 C   0  0  0  0  0  0  0  0  0  0  0  0
   45.1910   34.7980   44.7040 C   0  0  0  0  0  0  0  0  0  0  0  0
   45.3080   34.2420   45.8640 O   0  0  0  0  0  0  0  0  0  0  0  0
   47.5490   32.5190   44.2410 H   0  0  0  0  0  0  0  0  0  0  0  0
   46.2840   34.3760   42.7980 H   0  0  0  0  0  0  0  0  0  0  0  0
   44.2900   35.8980   44.2750 C   0  0  0  0  0  0  0  0  0  0  0  0
   44.7710   36.8840   44.3600 H   0  0  0  0  0  0  0  0  0  0  0  0
  1  9  1  0  0  0  0
  1  5  1  0  0  0  0
  2  1  1  0  0  0  0
  3  2  2  0  0  0  0
  3  4  1  0  0  0  0
  4  5  2  0  0  0  0
  5  7  1  0  0  0  0
  6  2  1  0  0  0  0
  8 14  1  0  0  0  0
  8 13  1  0  0  0  0
  9  8  2  0  0  0  0
 10  9  1  0  0  0  0
 10 11  2  0  0  0  0
 11 12  1  0  0  0  0
 12 16  1  0  0  0  0
 12 13  2  0  0  0  0
 15 10  1  0  0  0  0
 17 21  1  0  0  0  0
 17  3  1  0  0  0  0
 18 17  2  0  0  0  0
 19 18  1  0  0  0  0
 19 20  2  0  0  0  0
 20 21  1  0  0  0  0
 22 18  1  0  0  0  0
 23 19  1  0  0  0  0
 24 25  1  0  0  0  0
 24 20  1  0  0  0  0
M  END
>  <minimizedAffinity>
-4.65060806

>  <minimizedRMSD>
1.31695127

$$$$
