
 OpenBabel03232520083D

 18 19  0  0  0  0  0  0  0  0999 V2000
   44.4610   36.0180   44.4700 C   0  0  0  0  0  0  0  0  0  0  0  0
   45.1510   35.8450   43.2350 C   0  0  0  0  0  0  0  0  0  0  0  0
   46.0710   34.7700   43.1270 C   0  0  0  0  0  0  0  0  0  0  0  0
   46.2450   33.9590   44.2160 N   0  0  0  0  0  0  0  0  0  0  0  0
   45.5660   34.1670   45.3630 C   0  0  0  0  0  0  0  0  0  0  0  0
   44.6860   35.1820   45.4930 N   0  0  0  0  0  0  0  0  0  0  0  0
   43.7580   36.8270   44.5770 H   0  0  0  0  0  0  0  0  0  0  0  0
   44.9750   36.5100   42.4160 H   0  0  0  0  0  0  0  0  0  0  0  0
   46.6050   34.6100   42.2170 H   0  0  0  0  0  0  0  0  0  0  0  0
   45.8200   33.2560   46.4560 C   0  0  0  0  0  0  0  0  0  0  0  0
   45.1150   33.0700   47.6290 C   0  0  0  0  0  0  0  0  0  0  0  0
   45.5490   32.1400   48.5230 C   0  0  0  0  0  0  0  0  0  0  0  0
   46.7030   31.4340   48.1660 C   0  0  0  0  0  0  0  0  0  0  0  0
   47.1560   32.0980   46.5710 S   0  0  0  0  0  0  0  0  0  0  0  0
   44.2350   33.6810   47.7890 H   0  0  0  0  0  0  0  0  0  0  0  0
   45.0790   31.9220   49.4500 H   0  0  0  0  0  0  0  0  0  0  0  0
   47.3990   30.3770   48.9280 C   0  0  0  0  0  0  0  0  0  0  0  0
   48.4640   30.4300   48.6180 H   0  0  0  0  0  0  0  0  0  0  0  0
  1  7  1  0  0  0  0
  1  6  1  0  0  0  0
  2  1  2  0  0  0  0
  3  2  1  0  0  0  0
  3  4  2  0  0  0  0
  4  5  1  0  0  0  0
  5  6  2  0  0  0  0
  5 10  1  0  0  0  0
  8  2  1  0  0  0  0
  9  3  1  0  0  0  0
 10 14  1  0  0  0  0
 10 11  2  0  0  0  0
 11 15  1  0  0  0  0
 11 12  1  0  0  0  0
 12 16  1  0  0  0  0
 13 12  2  0  0  0  0
 13 17  1  0  0  0  0
 14 13  1  0  0  0  0
 18 17  1  0  0  0  0
M  END
>  <minimizedAffinity>
-4.09998703

>  <minimizedRMSD>
0.388335258

$$$$
