
 OpenBabel03232521003D

 41 44  0  0  1  0  0  0  0  0999 V2000
   45.3600   32.8920   47.5130 C   0  0  0  0  0  0  0  0  0  0  0  0
   45.8930   32.6340   46.2960 C   0  0  0  0  0  0  0  0  0  0  0  0
   46.1540   31.2900   46.0390 C   0  0  0  0  0  0  0  0  0  0  0  0
   45.8970   30.3030   46.9360 N   0  0  0  0  0  0  0  0  0  0  0  0
   45.3540   30.6300   48.1630 C   0  0  0  0  0  0  0  0  0  0  0  0
   45.1000   31.8980   48.4220 N   0  0  0  0  0  0  0  0  0  0  0  0
   45.1500   29.6050   49.1330 N   0  0  0  0  0  0  0  0  0  0  0  0
   45.1220   33.8990   47.8180 H   0  0  0  0  0  0  0  0  0  0  0  0
   44.3100   28.9840   49.0960 H   0  0  0  0  0  0  0  0  0  0  0  0
   45.8140   29.4080   49.9290 H   0  0  0  0  0  0  0  0  0  0  0  0
   46.1520   33.5900   45.2700 C   0  0  2  0  0  0  0  0  0  0  0  0
   44.9540   34.6910   45.5000 C   0  0  0  0  0  0  0  0  0  0  0  0
   44.7270   35.6220   44.4330 C   0  0  0  0  0  0  0  0  0  0  0  0
   45.5290   35.5480   43.2060 C   0  0  1  0  0  0  0  0  0  0  0  0
   46.5830   34.5460   43.1600 C   0  0  0  0  0  0  0  0  0  0  0  0
   46.1280   33.3120   43.9050 C   0  0  0  0  0  0  0  0  0  0  0  0
   46.9760   34.2900   45.6060 H   0  0  0  0  0  0  0  0  0  0  0  0
   44.2760   34.8540   46.3270 H   0  0  0  0  0  0  0  0  0  0  0  0
   43.9640   36.3510   44.5420 H   0  0  0  0  0  0  0  0  0  0  0  0
   45.9650   36.5460   42.9920 H   0  0  0  0  0  0  0  0  0  0  0  0
   46.8310   34.3290   42.0790 H   0  0  0  0  0  0  0  0  0  0  0  0
   47.5360   34.8720   43.6380 H   0  0  0  0  0  0  0  0  0  0  0  0
   46.9860   32.6630   43.5780 H   0  0  0  0  0  0  0  0  0  0  0  0
   45.1940   32.8910   43.4770 H   0  0  0  0  0  0  0  0  0  0  0  0
   44.5130   35.2900   42.0560 C   0  0  0  0  0  0  0  0  0  0  0  0
   43.4500   34.4950   42.4500 F   0  0  0  0  0  0  0  0  0  0  0  0
   43.9770   36.5300   41.7180 F   0  0  0  0  0  0  0  0  0  0  0  0
   45.1870   34.8260   40.9430 F   0  0  0  0  0  0  0  0  0  0  0  0
   46.7580   30.5900   44.9200 C   0  0  0  0  0  0  0  0  0  0  0  0
   46.3770   29.8380   43.8540 C   0  0  0  0  0  0  0  0  0  0  0  0
   47.5390   29.4370   43.1750 C   0  0  0  0  0  0  0  0  0  0  0  0
   48.5570   29.9610   43.8600 N   0  0  0  0  0  0  0  0  0  0  0  0
   48.1210   30.6460   44.8940 N   0  0  0  0  0  0  0  0  0  0  0  0
   45.3230   29.6830   43.7100 H   0  0  0  0  0  0  0  0  0  0  0  0
   47.4660   28.8260   42.2930 H   0  0  0  0  0  0  0  0  0  0  0  0
   49.9350   29.7650   43.4620 C   0  0  0  0  0  0  0  0  0  0  0  0
   50.7230   30.6850   42.7610 C   0  0  0  0  0  3  0  0  0  0  0  0
   52.3310   29.7310   42.6300 S   0  0  0  0  0  0  0  0  0  0  0  0
   51.5840   28.2610   43.5680 C   0  0  0  0  0  0  0  0  0  0  0  0
   52.2250   27.4100   43.7320 H   0  0  0  0  0  0  0  0  0  0  0  0
   50.4230   28.5960   43.8260 N   0  0  0  0  0  0  0  0  0  0  0  0
  1  8  1  0  0  0  0
  1  6  1  0  0  0  0
  2  1  2  0  0  0  0
  3  2  1  0  0  0  0
  3  4  2  0  0  0  0
  4  5  1  0  0  0  0
  5  6  2  0  0  0  0
  5  7  1  0  0  0  0
  7 10  1  0  0  0  0
  9  7  1  0  0  0  0
 11 12  1  0  0  0  0
 11 17  1  1  0  0  0
 11  2  1  0  0  0  0
 12 18  1  0  0  0  0
 13 19  1  0  0  0  0
 13 12  2  0  0  0  0
 14 20  1  6  0  0  0
 14 13  1  0  0  0  0
 15 14  1  0  0  0  0
 15 22  1  0  0  0  0
 15 16  1  0  0  0  0
 16 11  1  0  0  0  0
 21 15  1  0  0  0  0
 23 16  1  0  0  0  0
 24 16  1  0  0  0  0
 25 26  1  0  0  0  0
 25 14  1  0  0  0  0
 27 25  1  0  0  0  0
 28 25  1  0  0  0  0
 29  3  1  0  0  0  0
 30 29  1  0  0  0  0
 31 30  2  0  0  0  0
 31 32  1  0  0  0  0
 32 33  1  0  0  0  0
 33 29  2  0  0  0  0
 34 30  1  0  0  0  0
 35 31  1  0  0  0  0
 36 41  1  0  0  0  0
 36 32  1  0  0  0  0
 37 36  2  0  0  0  0
 38 37  1  0  0  0  0
 38 39  1  0  0  0  0
 39 40  1  0  0  0  0
 39 41  2  0  0  0  0
M  END
>  <minimizedAffinity>
-5.7042923

>  <minimizedRMSD>
0.181756765

$$$$
