
 OpenBabel03232519123D

 33 35  0  0  1  0  0  0  0  0999 V2000
   44.4910   35.3800   43.1810 C   0  0  1  0  0  0  0  0  0  0  0  0
   43.5870   35.2540   43.8160 H   0  0  0  0  0  0  0  0  0  0  0  0
   45.5190   34.4250   43.6450 C   0  0  0  0  0  0  0  0  0  0  0  0
   46.5580   34.0830   42.7500 C   0  0  0  0  0  0  0  0  0  0  0  0
   47.5530   33.1720   43.1680 C   0  0  0  0  0  0  0  0  0  0  0  0
   47.4400   32.6740   44.4310 N   0  0  0  0  0  0  0  0  0  0  0  0
   46.4510   33.0190   45.2400 C   0  0  0  0  0  0  0  0  0  0  0  0
   45.4880   33.8840   44.8730 N   0  0  0  0  0  0  0  0  0  0  0  0
   46.6550   34.4650   41.7640 H   0  0  0  0  0  0  0  0  0  0  0  0
   48.3620   32.8860   42.5140 H   0  0  0  0  0  0  0  0  0  0  0  0
   46.3410   32.4660   46.6090 C   0  0  0  0  0  0  0  0  0  0  0  0
   47.3270   31.5410   47.0090 C   0  0  0  0  0  0  0  0  0  0  0  0
   46.7540   31.1470   48.7490 S   0  0  0  0  0  0  0  0  0  0  0  0
   45.2960   32.3250   48.5570 C   0  0  0  0  0  0  0  0  0  0  0  0
   45.4230   32.7190   47.5230 N   0  0  0  0  0  0  0  0  0  0  0  0
   48.1600   31.1450   46.5350 H   0  0  0  0  0  0  0  0  0  0  0  0
   44.3320   32.7400   49.2020 H   0  0  0  0  0  0  0  0  0  0  0  0
   44.9510   36.7940   43.3800 C   0  0  0  0  0  0  0  0  0  0  0  0
   45.5910   37.1810   42.5720 H   0  0  0  0  0  0  0  0  0  0  0  0
   44.1060   37.5170   43.5520 H   0  0  0  0  0  0  0  0  0  0  0  0
   45.5450   36.8360   44.3310 H   0  0  0  0  0  0  0  0  0  0  0  0
   44.1170   35.1470   41.7220 C   0  0  0  0  0  0  0  0  0  0  0  0
   44.3590   36.0410   41.1290 H   0  0  0  0  0  0  0  0  0  0  0  0
   44.7740   34.3250   41.3390 H   0  0  0  0  0  0  0  0  0  0  0  0
   42.7470   34.7930   41.5280 N   0  0  0  0  0  0  0  0  0  0  0  0
   41.6880   35.6250   41.4900 C   0  0  0  0  0  0  0  0  0  0  0  0
   40.3960   35.1750   41.2940 C   0  0  0  0  0  0  0  0  0  0  0  0
   40.1750   33.8170   41.1310 C   0  0  0  0  0  0  0  0  0  0  0  0
   38.9980   33.3700   40.9490 O   0  0  0  0  0  0  0  0  0  0  0  0
   41.2250   32.9780   41.1660 N   0  0  0  0  0  0  0  0  0  0  0  0
   42.4660   33.4680   41.3610 C   0  0  0  0  0  0  0  0  0  0  0  0
   43.4160   32.6210   41.3840 O   0  0  0  0  0  0  0  0  0  0  0  0
   41.0890   31.9540   41.0460 H   0  0  0  0  0  0  0  0  0  0  0  0
  1 18  1  0  0  0  0
  1  3  1  0  0  0  0
  1  2  1  1  0  0  0
  3  8  1  0  0  0  0
  4  5  1  0  0  0  0
  4  3  2  0  0  0  0
  5  6  2  0  0  0  0
  6  7  1  0  0  0  0
  7 11  1  0  0  0  0
  8  7  2  0  0  0  0
  9  4  1  0  0  0  0
 10  5  1  0  0  0  0
 11 12  2  0  0  0  0
 11 15  1  0  0  0  0
 12 13  1  0  0  0  0
 14 13  1  0  0  0  0
 14 17  1  0  0  0  0
 15 14  2  0  0  0  0
 16 12  1  0  0  0  0
 18 20  1  0  0  0  0
 18 21  1  0  0  0  0
 19 18  1  0  0  0  0
 22  1  1  0  0  0  0
 23 22  1  0  0  0  0
 24 22  1  0  0  0  0
 25 22  1  0  0  0  0
 26 25  1  0  0  0  0
 27 26  2  0  0  0  0
 28 30  1  0  0  0  0
 28 27  1  0  0  0  0
 29 28  2  0  0  0  0
 30 31  1  0  0  0  0
 31 32  2  0  0  0  0
 31 25  1  0  0  0  0
 33 30  1  0  0  0  0
M  END
>  <minimizedAffinity>
-5.49108171

>  <minimizedRMSD>
2.08495855

$$$$
