
 OpenBabel03232519523D

 45 48  0  0  1  0  0  0  0  0999 V2000
   45.8200   33.7180   42.1160 N   0  0  0  0  0  0  0  0  0  0  0  0
   46.9350   34.0340   41.2480 C   0  0  0  0  0  0  0  0  0  0  0  0
   46.2950   33.8480   39.9010 C   0  0  0  0  0  0  0  0  0  0  0  0
   45.6390   32.5140   40.0650 C   0  0  0  0  0  0  0  0  0  0  0  0
   45.1350   32.5830   41.4800 C   0  0  2  0  0  0  0  0  0  0  0  0
   47.8250   33.4330   41.4030 H   0  0  0  0  0  0  0  0  0  0  0  0
   47.1040   35.1340   41.3640 H   0  0  0  0  0  0  0  0  0  0  0  0
   47.1060   33.7510   39.1280 H   0  0  0  0  0  0  0  0  0  0  0  0
   45.6100   34.6640   39.6620 H   0  0  0  0  0  0  0  0  0  0  0  0
   44.7710   32.3910   39.4000 H   0  0  0  0  0  0  0  0  0  0  0  0
   46.3500   31.7010   39.8670 H   0  0  0  0  0  0  0  0  0  0  0  0
   45.5780   31.6980   41.9850 H   0  0  0  0  0  0  0  0  0  0  0  0
   44.5120   36.1400   44.6120 C   0  0  0  0  0  0  0  0  0  0  0  0
   44.8890   35.6050   43.3780 C   0  0  0  0  0  0  0  0  0  0  0  0
   45.4230   34.3140   43.3070 C   0  0  0  0  0  0  0  0  0  0  0  0
   45.5400   33.6480   44.4950 N   0  0  0  0  0  0  0  0  0  0  0  0
   45.1760   34.1650   45.6830 C   0  0  0  0  0  0  0  0  0  0  0  0
   44.6620   35.4120   45.7310 N   0  0  0  0  0  0  0  0  0  0  0  0
   45.3780   33.3110   46.8010 N   0  0  0  0  0  0  0  0  0  0  0  0
   44.1040   37.1360   44.6290 H   0  0  0  0  0  0  0  0  0  0  0  0
   44.7750   36.1750   42.4750 H   0  0  0  0  0  0  0  0  0  0  0  0
   46.1990   33.3890   47.4560 H   0  0  0  0  0  0  0  0  0  0  0  0
   44.5880   32.6060   46.8640 H   0  0  0  0  0  0  0  0  0  0  0  0
   43.7220   32.5840   41.6440 N   0  0  0  0  0  0  0  0  0  0  0  0
   42.8560   33.5230   41.2360 C   0  0  0  0  0  0  0  0  0  0  0  0
   41.4950   33.4330   41.4430 C   0  0  0  0  0  0  0  0  0  0  0  0
   40.9810   32.3310   42.0980 C   0  0  0  0  0  0  0  0  0  0  0  0
   39.7370   32.1990   42.3150 O   0  0  0  0  0  0  0  0  0  0  0  0
   41.8420   31.4000   42.5020 N   0  0  0  0  0  0  0  0  0  0  0  0
   43.1430   31.5290   42.2820 C   0  0  0  0  0  0  0  0  0  0  0  0
   43.8860   30.5880   42.7050 O   0  0  0  0  0  0  0  0  0  0  0  0
   43.3040   34.3830   40.7200 H   0  0  0  0  0  0  0  0  0  0  0  0
   41.4560   30.5700   42.9960 H   0  0  0  0  0  0  0  0  0  0  0  0
   40.5900   34.4950   40.9730 C   0  0  0  0  0  0  0  0  0  0  0  0
   41.2460   35.3980   40.8130 H   0  0  0  0  0  0  0  0  0  0  0  0
   39.8920   34.8120   41.7960 H   0  0  0  0  0  0  0  0  0  0  0  0
   39.9020   34.2050   39.7640 N   0  0  0  0  0  0  0  0  0  0  0  0
   38.7120   33.5510   39.9050 C   0  0  0  0  0  0  0  0  0  0  0  0
   37.9470   33.2140   38.8100 C   0  0  0  0  0  0  0  0  0  0  0  0
   38.4240   33.5620   37.5480 C   0  0  0  0  0  0  0  0  0  0  0  0
   37.7290   33.2560   36.5520 O   0  0  0  0  0  0  0  0  0  0  0  0
   39.6090   34.2090   37.4650 N   0  0  0  0  0  0  0  0  0  0  0  0
   40.3670   34.5450   38.5230 C   0  0  0  0  0  0  0  0  0  0  0  0
   41.4610   35.1440   38.4320 O   0  0  0  0  0  0  0  0  0  0  0  0
   39.9380   34.4560   36.4930 H   0  0  0  0  0  0  0  0  0  0  0  0
  1 15  1  0  0  0  0
  2  7  1  0  0  0  0
  2  6  1  0  0  0  0
  2  1  1  0  0  0  0
  3  4  1  0  0  0  0
  3  2  1  0  0  0  0
  4  5  1  0  0  0  0
  5 24  1  0  0  0  0
  5 12  1  1  0  0  0
  5  1  1  0  0  0  0
  8  3  1  0  0  0  0
  9  3  1  0  0  0  0
 10  4  1  0  0  0  0
 11  4  1  0  0  0  0
 13 20  1  0  0  0  0
 13 18  1  0  0  0  0
 14 13  2  0  0  0  0
 15 14  1  0  0  0  0
 15 16  2  0  0  0  0
 16 17  1  0  0  0  0
 17 18  2  0  0  0  0
 17 19  1  0  0  0  0
 19 23  1  0  0  0  0
 19 22  1  0  0  0  0
 21 14  1  0  0  0  0
 24 30  1  0  0  0  0
 25 26  2  0  0  0  0
 25 24  1  0  0  0  0
 26 27  1  0  0  0  0
 27 28  2  0  0  0  0
 27 29  1  0  0  0  0
 29 33  1  0  0  0  0
 30 29  1  0  0  0  0
 30 31  2  0  0  0  0
 32 25  1  0  0  0  0
 34 26  1  0  0  0  0
 34 36  1  0  0  0  0
 35 34  1  0  0  0  0
 37 38  1  0  0  0  0
 37 34  1  0  0  0  0
 39 38  2  0  0  0  0
 40 39  1  0  0  0  0
 41 40  2  0  0  0  0
 42 40  1  0  0  0  0
 42 43  1  0  0  0  0
 43 37  1  0  0  0  0
 44 43  2  0  0  0  0
 45 42  1  0  0  0  0
M  END
>  <minimizedAffinity>
-6.81997156

>  <minimizedRMSD>
1.59002984

$$$$
