
 OpenBabel03232517053D

 34 35  0  0  1  0  0  0  0  0999 V2000
   44.4430   34.8190   42.2040 C   0  0  2  0  0  0  0  0  0  0  0  0
   44.0420   33.7890   42.4480 H   0  0  0  0  0  0  0  0  0  0  0  0
   45.5610   34.5320   41.3520 N   0  0  0  0  0  0  0  0  0  0  0  0
   46.8480   34.9910   41.4380 C   0  0  0  0  0  0  0  0  0  0  0  0
   47.8570   34.7090   40.5480 C   0  0  0  0  0  0  0  0  0  0  0  0
   47.5720   33.9010   39.4780 C   0  0  0  0  0  0  0  0  0  0  0  0
   48.4820   33.6390   38.6640 O   0  0  0  0  0  0  0  0  0  0  0  0
   46.3450   33.4260   39.3390 N   0  0  0  0  0  0  0  0  0  0  0  0
   45.4110   33.7330   40.2300 C   0  0  0  0  0  0  0  0  0  0  0  0
   44.2520   33.2340   40.0240 O   0  0  0  0  0  0  0  0  0  0  0  0
   46.1320   32.8180   38.5320 H   0  0  0  0  0  0  0  0  0  0  0  0
   43.5110   35.5700   41.3930 N   0  0  0  0  0  0  0  0  0  0  0  0
   42.1030   35.2900   41.4990 C   0  0  0  0  0  0  0  0  0  0  0  0
   41.6910   34.0770   41.7810 N   0  0  0  0  0  0  0  0  0  0  0  0
   41.0200   36.2080   41.3120 N   0  0  0  0  0  0  0  0  0  0  0  0
   42.3150   33.2720   41.9470 H   0  0  0  0  0  0  0  0  0  0  0  0
   43.7080   36.3270   40.7060 H   0  0  0  0  0  0  0  0  0  0  0  0
   41.2210   36.7770   40.4480 H   0  0  0  0  0  0  0  0  0  0  0  0
   40.2240   36.2310   41.9660 H   0  0  0  0  0  0  0  0  0  0  0  0
   44.6350   35.4040   43.5530 C   0  0  1  0  0  0  0  0  0  0  0  0
   43.6220   35.6280   43.9510 H   0  0  0  0  0  0  0  0  0  0  0  0
   45.2870   34.5100   44.5260 C   0  0  0  0  0  0  0  0  0  0  0  0
   46.2570   33.6810   44.0270 C   0  0  0  0  0  0  0  0  0  0  0  0
   46.8850   32.7590   44.8560 C   0  0  0  0  0  0  0  0  0  0  0  0
   46.4700   32.7420   46.1860 N   0  0  0  0  0  0  0  0  0  0  0  0
   45.5230   33.5600   46.6530 C   0  0  0  0  0  0  0  0  0  0  0  0
   44.9550   34.4170   45.8260 N   0  0  0  0  0  0  0  0  0  0  0  0
   46.7680   33.4830   43.1200 H   0  0  0  0  0  0  0  0  0  0  0  0
   47.6390   32.0200   44.7500 H   0  0  0  0  0  0  0  0  0  0  0  0
   45.1960   33.5530   47.6820 H   0  0  0  0  0  0  0  0  0  0  0  0
   45.3320   36.7590   43.5120 C   0  0  0  0  0  0  0  0  0  0  0  0
   44.9350   37.3120   44.4250 H   0  0  0  0  0  0  0  0  0  0  0  0
   46.3960   36.6580   43.7280 H   0  0  0  0  0  0  0  0  0  0  0  0
   45.0240   37.3660   42.6740 H   0  0  0  0  0  0  0  0  0  0  0  0
  1  2  1  1  0  0  0
  1 20  1  0  0  0  0
  3  4  1  0  0  0  0
  3  1  1  0  0  0  0
  5  4  2  0  0  0  0
  6  5  1  0  0  0  0
  7  6  2  0  0  0  0
  8  6  1  0  0  0  0
  8  9  1  0  0  0  0
  9  3  1  0  0  0  0
 10  9  2  0  0  0  0
 11  8  1  0  0  0  0
 12 13  1  0  0  0  0
 12  1  1  0  0  0  0
 13 14  2  0  0  0  0
 14 16  1  0  0  0  0
 15 13  1  0  0  0  0
 15 19  1  0  0  0  0
 17 12  1  0  0  0  0
 18 15  1  0  0  0  0
 20 21  1  1  0  0  0
 20 22  1  0  0  0  0
 22 27  1  0  0  0  0
 23 22  2  0  0  0  0
 23 24  1  0  0  0  0
 24 25  2  0  0  0  0
 25 26  1  0  0  0  0
 26 30  1  0  0  0  0
 27 26  2  0  0  0  0
 28 23  1  0  0  0  0
 29 24  1  0  0  0  0
 31 20  1  0  0  0  0
 31 33  1  0  0  0  0
 31 32  1  0  0  0  0
 34 31  1  0  0  0  0
M  END
>  <minimizedAffinity>
-5.42354393

>  <minimizedRMSD>
0.629204392

$$$$
