
 OpenBabel03232521003D

 41 44  0  0  1  0  0  0  0  0999 V2000
   45.3140   32.9070   47.5070 C   0  0  0  0  0  0  0  0  0  0  0  0
   45.9040   32.6550   46.3100 C   0  0  0  0  0  0  0  0  0  0  0  0
   46.2090   31.3100   46.0840 C   0  0  0  0  0  0  0  0  0  0  0  0
   45.9460   30.3180   46.9720 N   0  0  0  0  0  0  0  0  0  0  0  0
   45.3410   30.6260   48.1800 C   0  0  0  0  0  0  0  0  0  0  0  0
   45.0430   31.8990   48.4160 N   0  0  0  0  0  0  0  0  0  0  0  0
   45.0640   29.6170   49.1340 N   0  0  0  0  0  0  0  0  0  0  0  0
   45.0400   33.9130   47.7850 H   0  0  0  0  0  0  0  0  0  0  0  0
   44.5370   28.8430   48.6320 H   0  0  0  0  0  0  0  0  0  0  0  0
   45.4440   29.8940   50.0740 H   0  0  0  0  0  0  0  0  0  0  0  0
   46.1560   33.6050   45.2800 C   0  0  2  0  0  0  0  0  0  0  0  0
   44.9430   34.6970   45.5050 C   0  0  0  0  0  0  0  0  0  0  0  0
   44.7150   35.6230   44.4320 C   0  0  0  0  0  0  0  0  0  0  0  0
   45.5180   35.5510   43.2100 C   0  0  1  0  0  0  0  0  0  0  0  0
   46.5780   34.5460   43.1630 C   0  0  0  0  0  0  0  0  0  0  0  0
   46.1290   33.3150   43.9170 C   0  0  0  0  0  0  0  0  0  0  0  0
   46.9700   34.3180   45.6130 H   0  0  0  0  0  0  0  0  0  0  0  0
   44.2620   34.8500   46.3320 H   0  0  0  0  0  0  0  0  0  0  0  0
   43.9470   36.3430   44.5360 H   0  0  0  0  0  0  0  0  0  0  0  0
   45.9340   36.5630   43.0250 H   0  0  0  0  0  0  0  0  0  0  0  0
   47.5800   34.8790   43.5230 H   0  0  0  0  0  0  0  0  0  0  0  0
   46.7580   34.3020   42.0740 H   0  0  0  0  0  0  0  0  0  0  0  0
   46.9830   32.6640   43.5920 H   0  0  0  0  0  0  0  0  0  0  0  0
   45.1730   32.9800   43.4640 H   0  0  0  0  0  0  0  0  0  0  0  0
   44.5100   35.2800   42.0550 C   0  0  0  0  0  0  0  0  0  0  0  0
   43.4510   34.4760   42.4490 F   0  0  0  0  0  0  0  0  0  0  0  0
   43.9570   36.5140   41.7210 F   0  0  0  0  0  0  0  0  0  0  0  0
   45.1860   34.8220   40.9410 F   0  0  0  0  0  0  0  0  0  0  0  0
   46.8910   30.6240   45.0020 C   0  0  0  0  0  0  0  0  0  0  0  0
   46.5920   29.8320   43.9400 C   0  0  0  0  0  0  0  0  0  0  0  0
   47.7870   29.4740   43.3070 C   0  0  0  0  0  0  0  0  0  0  0  0
   48.7530   30.0660   44.0140 N   0  0  0  0  0  0  0  0  0  0  0  0
   48.2490   30.7480   45.0160 N   0  0  0  0  0  0  0  0  0  0  0  0
   45.5530   29.6160   43.7600 H   0  0  0  0  0  0  0  0  0  0  0  0
   47.7740   28.8510   42.4460 H   0  0  0  0  0  0  0  0  0  0  0  0
   50.0990   29.8560   43.5670 C   0  0  0  0  0  0  0  0  0  0  0  0
   50.8080   30.6040   42.6700 C   0  0  0  0  0  3  0  0  0  0  0  0
   52.0620   29.9970   42.5730 C   0  0  0  0  0  3  0  0  0  0  0  0
   52.0280   28.9050   43.4320 C   0  0  0  0  0  0  0  0  0  0  0  0
   52.9430   28.3300   43.4630 H   0  0  0  0  0  0  0  0  0  0  0  0
   50.8460   28.8470   44.0110 O   0  0  0  0  0  0  0  0  0  0  0  0
  1  8  1  0  0  0  0
  1  6  1  0  0  0  0
  2  1  2  0  0  0  0
  3  2  1  0  0  0  0
  3  4  2  0  0  0  0
  4  5  1  0  0  0  0
  5  6  2  0  0  0  0
  5  7  1  0  0  0  0
  7 10  1  0  0  0  0
  9  7  1  0  0  0  0
 11 12  1  0  0  0  0
 11 17  1  1  0  0  0
 11  2  1  0  0  0  0
 12 18  1  0  0  0  0
 13 19  1  0  0  0  0
 13 12  2  0  0  0  0
 14 20  1  6  0  0  0
 14 13  1  0  0  0  0
 15 14  1  0  0  0  0
 15 21  1  0  0  0  0
 15 16  1  0  0  0  0
 16 11  1  0  0  0  0
 22 15  1  0  0  0  0
 23 16  1  0  0  0  0
 24 16  1  0  0  0  0
 25 26  1  0  0  0  0
 25 14  1  0  0  0  0
 27 25  1  0  0  0  0
 28 25  1  0  0  0  0
 29 33  2  0  0  0  0
 29  3  1  0  0  0  0
 30 29  1  0  0  0  0
 31 30  2  0  0  0  0
 31 32  1  0  0  0  0
 32 33  1  0  0  0  0
 34 30  1  0  0  0  0
 35 31  1  0  0  0  0
 36 41  1  0  0  0  0
 36 32  1  0  0  0  0
 37 36  2  0  0  0  0
 38 37  1  0  0  0  0
 38 39  2  0  0  0  0
 39 40  1  0  0  0  0
 39 41  1  0  0  0  0
M  END
>  <minimizedAffinity>
-5.69679403

>  <minimizedRMSD>
0.260775506

$$$$
