
 OpenBabel03232520183D

 35 37  0  0  0  0  0  0  0  0999 V2000
   47.5800   34.1910   42.1630 C   0  0  0  0  0  0  0  0  0  0  0  0
   48.4990   35.3150   41.7760 C   0  0  0  0  0  0  0  0  0  0  0  0
   49.8290   35.3080   42.4270 C   0  0  0  0  0  0  0  0  0  0  0  0
   50.4910   33.9740   42.4930 C   0  0  0  0  0  0  0  0  0  0  0  0
   49.5940   32.8250   42.0940 C   0  0  0  0  0  0  0  0  0  0  0  0
   48.2690   33.0200   42.8040 C   0  0  0  0  0  0  0  0  0  0  0  0
   47.9830   36.2830   42.0380 H   0  0  0  0  0  0  0  0  0  0  0  0
   48.6530   35.3610   40.6720 H   0  0  0  0  0  0  0  0  0  0  0  0
   50.4990   35.9840   41.8570 H   0  0  0  0  0  0  0  0  0  0  0  0
   49.7140   35.7450   43.4530 H   0  0  0  0  0  0  0  0  0  0  0  0
   50.8110   33.7780   43.5520 H   0  0  0  0  0  0  0  0  0  0  0  0
   51.4200   33.8810   41.8900 H   0  0  0  0  0  0  0  0  0  0  0  0
   49.3670   32.8990   41.0040 H   0  0  0  0  0  0  0  0  0  0  0  0
   50.0480   31.8760   42.3860 H   0  0  0  0  0  0  0  0  0  0  0  0
   47.6450   32.1120   42.5980 H   0  0  0  0  0  0  0  0  0  0  0  0
   48.4030   33.1820   43.8880 H   0  0  0  0  0  0  0  0  0  0  0  0
   45.2770   34.4220   45.0530 C   0  0  0  0  0  0  0  0  0  0  0  0
   44.5570   35.5810   44.7950 C   0  0  0  0  0  0  0  0  0  0  0  0
   44.8670   36.2830   43.6280 C   0  0  0  0  0  0  0  0  0  0  0  0
   45.8440   35.8010   42.8180 N   0  0  0  0  0  0  0  0  0  0  0  0
   46.5250   34.6620   43.1060 C   0  0  0  0  0  0  0  0  0  0  0  0
   46.2270   33.9740   44.2450 N   0  0  0  0  0  0  0  0  0  0  0  0
   45.1350   33.7830   45.9270 H   0  0  0  0  0  0  0  0  0  0  0  0
   43.8020   35.8710   45.5070 H   0  0  0  0  0  0  0  0  0  0  0  0
   44.3180   37.1700   43.4260 H   0  0  0  0  0  0  0  0  0  0  0  0
   46.9260   33.6780   40.9070 C   0  0  0  0  0  0  0  0  0  0  0  0
   45.7870   32.9850   40.5530 C   0  0  0  0  0  0  0  0  0  0  0  0
   45.5850   32.7230   39.2550 C   0  0  0  0  0  0  0  0  0  0  0  0
   46.4480   33.1140   38.3070 C   0  0  0  0  0  0  0  0  0  0  0  0
   47.7430   33.9710   39.3180 S   0  0  0  0  0  0  0  0  0  0  0  0
   45.1560   32.7150   41.3860 H   0  0  0  0  0  0  0  0  0  0  0  0
   44.7120   32.1820   38.9040 H   0  0  0  0  0  0  0  0  0  0  0  0
   46.5960   33.0360   36.8540 C   0  0  0  0  0  0  0  0  0  0  0  0
   48.0620   33.1380   36.4480 C   0  0  0  0  0  0  0  0  0  0  0  0
   48.6310   32.4170   37.0650 H   0  0  0  0  0  0  0  0  0  0  0  0
  1  6  1  0  0  0  0
  1 21  1  0  0  0  0
  2  7  1  0  0  0  0
  2  1  1  0  0  0  0
  2  3  1  0  0  0  0
  3  4  1  0  0  0  0
  3 10  1  0  0  0  0
  4 11  1  0  0  0  0
  5 14  1  0  0  0  0
  5  4  1  0  0  0  0
  5  6  1  0  0  0  0
  6 16  1  0  0  0  0
  8  2  1  0  0  0  0
  9  3  1  0  0  0  0
 12  4  1  0  0  0  0
 13  5  1  0  0  0  0
 15  6  1  0  0  0  0
 17 23  1  0  0  0  0
 18 17  1  0  0  0  0
 18 24  1  0  0  0  0
 19 18  2  0  0  0  0
 20 21  2  0  0  0  0
 20 19  1  0  0  0  0
 21 22  1  0  0  0  0
 22 17  2  0  0  0  0
 25 19  1  0  0  0  0
 26  1  1  0  0  0  0
 27 26  2  0  0  0  0
 27 31  1  0  0  0  0
 28 27  1  0  0  0  0
 29 28  2  0  0  0  0
 29 30  1  0  0  0  0
 30 26  1  0  0  0  0
 32 28  1  0  0  0  0
 33 29  1  0  0  0  0
 34 33  1  0  0  0  0
 34 35  1  0  0  0  0
M  END
>  <minimizedAffinity>
-5.51527691

>  <minimizedRMSD>
0.308639735

$$$$
