
 OpenBabel03232520593D

 41 44  0  0  1  0  0  0  0  0999 V2000
   45.3550   32.8800   47.4990 C   0  0  0  0  0  0  0  0  0  0  0  0
   45.9200   32.6350   46.2890 C   0  0  0  0  0  0  0  0  0  0  0  0
   46.2010   31.2890   46.0390 C   0  0  0  0  0  0  0  0  0  0  0  0
   45.9380   30.2880   46.9180 N   0  0  0  0  0  0  0  0  0  0  0  0
   45.3600   30.5890   48.1410 C   0  0  0  0  0  0  0  0  0  0  0  0
   45.0850   31.8630   48.3990 N   0  0  0  0  0  0  0  0  0  0  0  0
   45.0840   29.5710   49.0850 N   0  0  0  0  0  0  0  0  0  0  0  0
   45.1010   33.8850   47.7970 H   0  0  0  0  0  0  0  0  0  0  0  0
   44.5370   28.8120   48.5820 H   0  0  0  0  0  0  0  0  0  0  0  0
   45.4850   29.8290   50.0230 H   0  0  0  0  0  0  0  0  0  0  0  0
   46.1680   33.5960   45.2670 C   0  0  2  0  0  0  0  0  0  0  0  0
   44.9510   34.6800   45.5020 C   0  0  0  0  0  0  0  0  0  0  0  0
   44.7180   35.6150   44.4380 C   0  0  0  0  0  0  0  0  0  0  0  0
   45.5210   35.5580   43.2160 C   0  0  1  0  0  0  0  0  0  0  0  0
   46.5850   34.5580   43.1600 C   0  0  0  0  0  0  0  0  0  0  0  0
   46.1420   33.3180   43.9020 C   0  0  0  0  0  0  0  0  0  0  0  0
   46.9790   34.3090   45.6070 H   0  0  0  0  0  0  0  0  0  0  0  0
   44.2690   34.8230   46.3310 H   0  0  0  0  0  0  0  0  0  0  0  0
   43.9470   36.3310   44.5490 H   0  0  0  0  0  0  0  0  0  0  0  0
   45.9330   36.5730   43.0400 H   0  0  0  0  0  0  0  0  0  0  0  0
   47.5860   34.8910   43.5220 H   0  0  0  0  0  0  0  0  0  0  0  0
   46.7660   34.3250   42.0680 H   0  0  0  0  0  0  0  0  0  0  0  0
   46.9980   32.6730   43.5710 H   0  0  0  0  0  0  0  0  0  0  0  0
   45.1860   32.9830   43.4460 H   0  0  0  0  0  0  0  0  0  0  0  0
   44.5140   35.2940   42.0590 C   0  0  0  0  0  0  0  0  0  0  0  0
   43.4480   34.4970   42.4500 F   0  0  0  0  0  0  0  0  0  0  0  0
   43.9720   36.5320   41.7220 F   0  0  0  0  0  0  0  0  0  0  0  0
   45.1890   34.8290   40.9470 F   0  0  0  0  0  0  0  0  0  0  0  0
   46.8530   30.6090   44.9350 C   0  0  0  0  0  0  0  0  0  0  0  0
   46.5220   29.8440   43.8630 C   0  0  0  0  0  0  0  0  0  0  0  0
   47.7010   29.4700   43.2080 C   0  0  0  0  0  0  0  0  0  0  0  0
   48.6880   30.0260   43.9130 N   0  0  0  0  0  0  0  0  0  0  0  0
   48.2130   30.7010   44.9340 N   0  0  0  0  0  0  0  0  0  0  0  0
   45.4760   29.6550   43.6930 H   0  0  0  0  0  0  0  0  0  0  0  0
   47.6620   28.8640   42.3360 H   0  0  0  0  0  0  0  0  0  0  0  0
   50.0240   29.7930   43.4450 C   0  0  0  0  0  0  0  0  0  0  0  0
   50.8580   30.6820   42.8260 C   0  0  0  0  0  3  0  0  0  0  0  0
   52.0380   29.9820   42.5710 C   0  0  0  0  0  3  0  0  0  0  0  0
   51.8370   28.6970   43.0590 C   0  0  0  0  0  0  0  0  0  0  0  0
   52.6800   28.0300   42.9290 H   0  0  0  0  0  0  0  0  0  0  0  0
   50.6280   28.6150   43.5750 O   0  0  0  0  0  0  0  0  0  0  0  0
  1  8  1  0  0  0  0
  1  6  1  0  0  0  0
  2  1  2  0  0  0  0
  3  2  1  0  0  0  0
  3  4  2  0  0  0  0
  4  5  1  0  0  0  0
  5  6  2  0  0  0  0
  5  7  1  0  0  0  0
  7 10  1  0  0  0  0
  9  7  1  0  0  0  0
 11 12  1  0  0  0  0
 11 17  1  1  0  0  0
 11  2  1  0  0  0  0
 12 18  1  0  0  0  0
 13 19  1  0  0  0  0
 13 12  2  0  0  0  0
 14 20  1  6  0  0  0
 14 13  1  0  0  0  0
 15 14  1  0  0  0  0
 15 21  1  0  0  0  0
 15 16  1  0  0  0  0
 16 11  1  0  0  0  0
 22 15  1  0  0  0  0
 23 16  1  0  0  0  0
 24 16  1  0  0  0  0
 25 26  1  0  0  0  0
 25 14  1  0  0  0  0
 27 25  1  0  0  0  0
 28 25  1  0  0  0  0
 29  3  1  0  0  0  0
 30 29  1  0  0  0  0
 31 30  2  0  0  0  0
 31 32  1  0  0  0  0
 32 33  1  0  0  0  0
 33 29  2  0  0  0  0
 34 30  1  0  0  0  0
 35 31  1  0  0  0  0
 36 41  1  0  0  0  0
 36 32  1  0  0  0  0
 37 36  2  0  0  0  0
 38 37  1  0  0  0  0
 38 39  2  0  0  0  0
 39 41  1  0  0  0  0
 40 39  1  0  0  0  0
M  END
>  <minimizedAffinity>
-5.72582817

>  <minimizedRMSD>
0.272620499

$$$$
