
 OpenBabel03232517203D

 26 28  0  0  0  0  0  0  0  0999 V2000
   45.7560   33.8290   42.8410 N   0  0  0  0  0  0  0  0  0  0  0  0
   45.0050   33.5580   41.7580 C   0  0  0  0  0  0  0  0  0  0  0  0
   45.7390   33.7520   40.6340 N   0  0  0  0  0  0  0  0  0  0  0  0
   46.9770   34.1510   40.9920 C   0  0  0  0  0  0  0  0  0  0  0  0
   48.0820   34.4680   40.2300 C   0  0  0  0  0  0  0  0  0  0  0  0
   48.0670   34.4220   38.9770 O   0  0  0  0  0  0  0  0  0  0  0  0
   49.2260   34.8410   40.8280 N   0  0  0  0  0  0  0  0  0  0  0  0
   49.2190   34.8810   42.1670 C   0  0  0  0  0  0  0  0  0  0  0  0
   50.3650   35.2540   42.9150 N   0  0  0  0  0  0  0  0  0  0  0  0
   48.1540   34.5760   42.9070 N   0  0  0  0  0  0  0  0  0  0  0  0
   46.9740   34.1950   42.3640 C   0  0  0  0  0  0  0  0  0  0  0  0
   43.9910   33.2390   41.9320 H   0  0  0  0  0  0  0  0  0  0  0  0
   50.1030   35.0980   40.3200 H   0  0  0  0  0  0  0  0  0  0  0  0
   50.7920   34.2790   43.0050 H   0  0  0  0  0  0  0  0  0  0  0  0
   50.7770   36.1030   43.3110 H   0  0  0  0  0  0  0  0  0  0  0  0
   44.5570   34.8800   46.1500 C   0  0  0  0  0  0  0  0  0  0  0  0
   44.7740   34.8760   44.7550 C   0  0  0  0  0  0  0  0  0  0  0  0
   45.5420   33.8190   44.2440 C   0  0  0  0  0  0  0  0  0  0  0  0
   46.0150   32.8910   45.1020 N   0  0  0  0  0  0  0  0  0  0  0  0
   45.7880   32.9260   46.4180 C   0  0  0  0  0  0  0  0  0  0  0  0
   45.0640   33.9140   46.9500 N   0  0  0  0  0  0  0  0  0  0  0  0
   43.9770   35.6750   46.5940 H   0  0  0  0  0  0  0  0  0  0  0  0
   46.2710   32.0600   46.8640 H   0  0  0  0  0  0  0  0  0  0  0  0
   44.2120   35.9490   43.9170 C   0  0  0  0  0  0  0  0  0  0  0  0
   45.1510   37.1200   43.8850 C   0  0  0  0  0  0  0  0  0  0  0  0
   46.1910   36.8170   43.7340 H   0  0  0  0  0  0  0  0  0  0  0  0
  1 18  1  0  0  0  0
  2 12  1  0  0  0  0
  2  1  1  0  0  0  0
  3  4  1  0  0  0  0
  3  2  2  0  0  0  0
  4 11  2  0  0  0  0
  5  7  1  0  0  0  0
  5  4  1  0  0  0  0
  6  5  2  0  0  0  0
  7  8  1  0  0  0  0
  8 10  2  0  0  0  0
  8  9  1  0  0  0  0
  9 14  1  0  0  0  0
  9 15  1  0  0  0  0
 11  1  1  0  0  0  0
 11 10  1  0  0  0  0
 13  7  1  0  0  0  0
 16 22  1  0  0  0  0
 16 21  1  0  0  0  0
 17 16  2  0  0  0  0
 18 17  1  0  0  0  0
 18 19  2  0  0  0  0
 19 20  1  0  0  0  0
 20 23  1  0  0  0  0
 20 21  2  0  0  0  0
 24 17  1  0  0  0  0
 25 24  1  0  0  0  0
 26 25  1  0  0  0  0
M  END
>  <minimizedAffinity>
-5.49171162

>  <minimizedRMSD>
1.21565771

$$$$
