
 OpenBabel03232520503D

 26 27  0  0  1  0  0  0  0  0999 V2000
   46.5730   33.2690   46.0590 C   0  0  2  0  0  0  0  0  0  0  0  0
   45.2910   34.0440   45.8550 C   0  0  0  0  0  0  0  0  0  0  0  0
   44.9960   34.5150   44.5150 C   0  0  0  0  0  0  0  0  0  0  0  0
   45.9290   34.2270   43.4270 C   0  0  2  0  0  0  0  0  0  0  0  0
   47.1990   33.5690   43.7770 C   0  0  0  0  0  0  0  0  0  0  0  0
   46.9520   32.5120   44.8240 C   0  0  0  0  0  0  0  0  0  0  0  0
   47.3320   34.0760   46.2110 H   0  0  0  0  0  0  0  0  0  0  0  0
   44.5480   34.3070   46.5650 H   0  0  0  0  0  0  0  0  0  0  0  0
   44.0910   35.0680   44.3490 H   0  0  0  0  0  0  0  0  0  0  0  0
   45.3810   33.5290   42.7280 H   0  0  0  0  0  0  0  0  0  0  0  0
   47.9660   34.2540   44.2000 H   0  0  0  0  0  0  0  0  0  0  0  0
   47.6320   33.1220   42.8590 H   0  0  0  0  0  0  0  0  0  0  0  0
   47.9210   32.0070   45.0090 H   0  0  0  0  0  0  0  0  0  0  0  0
   46.2040   31.7740   44.5090 H   0  0  0  0  0  0  0  0  0  0  0  0
   45.1580   32.2340   47.8220 C   0  0  0  0  0  0  0  0  0  0  0  0
   46.4350   32.4120   47.2670 C   0  0  0  0  0  0  0  0  0  0  0  0
   47.5400   31.7690   47.8930 C   0  0  0  0  0  0  0  0  0  0  0  0
   47.2980   31.0190   48.9960 N   0  0  0  0  0  0  0  0  0  0  0  0
   46.0450   30.8790   49.4940 C   0  0  0  0  0  0  0  0  0  0  0  0
   44.9850   31.4840   48.9090 N   0  0  0  0  0  0  0  0  0  0  0  0
   44.2700   32.6860   47.4100 H   0  0  0  0  0  0  0  0  0  0  0  0
   48.5210   31.9070   47.4640 H   0  0  0  0  0  0  0  0  0  0  0  0
   45.9820   30.2440   50.3920 H   0  0  0  0  0  0  0  0  0  0  0  0
   46.2370   35.4740   42.5950 C   0  0  0  0  0  0  0  0  0  0  0  0
   45.2360   36.5430   42.9920 C   0  0  0  0  0  0  0  0  0  0  0  0
   44.2940   36.4740   42.4370 H   0  0  0  0  0  0  0  0  0  0  0  0
  1  7  1  1  0  0  0
  1 16  1  0  0  0  0
  2  1  1  0  0  0  0
  2  8  1  0  0  0  0
  3  2  2  0  0  0  0
  4 10  1  6  0  0  0
  4  5  1  0  0  0  0
  4  3  1  0  0  0  0
  5 11  1  0  0  0  0
  5  6  1  0  0  0  0
  6 13  1  0  0  0  0
  6  1  1  0  0  0  0
  9  3  1  0  0  0  0
 12  5  1  0  0  0  0
 14  6  1  0  0  0  0
 15 20  1  0  0  0  0
 16 15  2  0  0  0  0
 16 17  1  0  0  0  0
 17 18  2  0  0  0  0
 18 19  1  0  0  0  0
 19 23  1  0  0  0  0
 20 19  2  0  0  0  0
 21 15  1  0  0  0  0
 22 17  1  0  0  0  0
 24 25  1  0  0  0  0
 24  4  1  0  0  0  0
 26 25  1  0  0  0  0
M  END
>  <minimizedAffinity>
-4.40139771

>  <minimizedRMSD>
1.68473458

$$$$
