REMARK  Name = 
REMARK  4 active torsions:
REMARK  status: ('A' for Active; 'I' for Inactive)
REMARK    1  A    between atoms: C_1  and  C_8
REMARK    2  A    between atoms: C_4  and  C_19
REMARK    3  A    between atoms: C_9  and  C_14
REMARK    4  A    between atoms: N_17  and  C_36
REMARK                            x       y       z     vdW  Elec       q    Type
REMARK                         _______ _______ _______ _____ _____    ______ ____
ROOT
ATOM      1  C   UNL     1      45.396  32.884  47.528  0.00  0.00    +0.000 A 
ATOM      2  C   UNL     1      45.918  32.636  46.299  0.00  0.00    +0.000 A 
ATOM      3  C   UNL     1      46.154  31.286  46.028  0.00  0.00    +0.000 A 
ATOM      4  N   UNL     1      45.891  30.284  46.905  0.00  0.00    +0.000 NA
ATOM      5  C   UNL     1      45.358  30.588  48.148  0.00  0.00    +0.000 A 
ATOM      6  N   UNL     1      45.126  31.866  48.426  0.00  0.00    +0.000 NA
ATOM      7  N   UNL     1      45.083  29.568  49.091  0.00  0.00    +0.000 N 
ATOM      8  H   UNL     1      45.179  33.893  47.842  0.00  0.00    +0.000 HD
ATOM      9  H   UNL     1      44.501  28.829  48.598  0.00  0.00    +0.000 HD
ATOM     10  H   UNL     1      45.519  29.806  50.018  0.00  0.00    +0.000 HD
ENDROOT
BRANCH   2  11
ATOM     11  C   UNL     1      46.161  33.600  45.279  0.00  0.00    +0.000 C 
ATOM     12  C   UNL     1      44.923  34.664  45.499  0.00  0.00    +0.000 C 
ATOM     13  C   UNL     1      44.687  35.594  44.431  0.00  0.00    +0.000 C 
ATOM     14  C   UNL     1      45.505  35.549  43.218  0.00  0.00    +0.000 C 
ATOM     15  C   UNL     1      46.586  34.567  43.175  0.00  0.00    +0.000 C 
ATOM     16  C   UNL     1      46.155  33.321  43.914  0.00  0.00    +0.000 C 
ATOM     17  H   UNL     1      46.956  34.327  45.627  0.00  0.00    +0.000 HD
ATOM     18  H   UNL     1      44.230  34.796  46.320  0.00  0.00    +0.000 HD
ATOM     19  H   UNL     1      43.903  36.297  44.532  0.00  0.00    +0.000 HD
ATOM     20  H   UNL     1      45.901  36.571  43.046  0.00  0.00    +0.000 HD
ATOM     21  H   UNL     1      47.577  34.918  43.548  0.00  0.00    +0.000 HD
ATOM     22  H   UNL     1      46.783  34.336  42.086  0.00  0.00    +0.000 HD
ATOM     23  H   UNL     1      47.026  32.690  43.593  0.00  0.00    +0.000 HD
ATOM     24  H   UNL     1      45.211  32.969  43.447  0.00  0.00    +0.000 HD
BRANCH  14  25
ATOM     25  C   UNL     1      44.515  35.267  42.050  0.00  0.00    +0.000 C 
ATOM     26  F   UNL     1      43.459  34.453  42.430  0.00  0.00    +0.000 F 
ATOM     27  F   UNL     1      43.956  36.495  41.706  0.00  0.00    +0.000 F 
ATOM     28  F   UNL     1      45.211  34.813  40.946  0.00  0.00    +0.000 F 
ENDBRANCH  14  25
ENDBRANCH   2  11
BRANCH   3  29
ATOM     29  C   UNL     1      46.754  30.599  44.899  0.00  0.00    +0.000 A 
ATOM     30  C   UNL     1      46.367  29.921  43.788  0.00  0.00    +0.000 A 
ATOM     31  C   UNL     1      47.514  29.468  43.127  0.00  0.00    +0.000 A 
ATOM     32  N   UNL     1      48.540  29.893  43.867  0.00  0.00    +0.000 N 
ATOM     33  N   UNL     1      48.117  30.561  44.915  0.00  0.00    +0.000 NA
ATOM     34  H   UNL     1      45.310  29.841  43.599  0.00  0.00    +0.000 HD
ATOM     35  H   UNL     1      47.430  28.910  42.226  0.00  0.00    +0.000 HD
BRANCH  32  36
ATOM     36  C   UNL     1      49.854  29.556  43.401  0.00  0.00    +0.000 A 
ATOM     37  C   UNL     1      50.477  28.341  43.465  0.00  0.00    +0.000 A 
ATOM     38  C   UNL     1      51.733  28.526  42.884  0.00  0.00    +0.000 A 
ATOM     39  C   UNL     1      51.788  29.861  42.502  0.00  0.00    +0.000 A 
ATOM     40  H   UNL     1      52.716  30.155  42.031  0.00  0.00    +0.000 HD
ATOM     41  O   UNL     1      50.654  30.449  42.823  0.00  0.00    +0.000 OA
ENDBRANCH  32  36
ENDBRANCH   3  29
TORSDOF 4
