
 OpenBabel03232521003D

 41 44  0  0  1  0  0  0  0  0999 V2000
   45.3110   32.8980   47.5030 C   0  0  0  0  0  0  0  0  0  0  0  0
   45.9060   32.6470   46.3080 C   0  0  0  0  0  0  0  0  0  0  0  0
   46.2140   31.3030   46.0820 C   0  0  0  0  0  0  0  0  0  0  0  0
   45.9500   30.3100   46.9690 N   0  0  0  0  0  0  0  0  0  0  0  0
   45.3420   30.6170   48.1760 C   0  0  0  0  0  0  0  0  0  0  0  0
   45.0410   31.8890   48.4110 N   0  0  0  0  0  0  0  0  0  0  0  0
   45.0640   29.6060   49.1280 N   0  0  0  0  0  0  0  0  0  0  0  0
   45.0350   33.9030   47.7820 H   0  0  0  0  0  0  0  0  0  0  0  0
   44.5400   28.8320   48.6250 H   0  0  0  0  0  0  0  0  0  0  0  0
   45.4410   29.8840   50.0700 H   0  0  0  0  0  0  0  0  0  0  0  0
   46.1580   33.5980   45.2790 C   0  0  2  0  0  0  0  0  0  0  0  0
   44.9470   34.6910   45.5060 C   0  0  0  0  0  0  0  0  0  0  0  0
   44.7200   35.6190   44.4340 C   0  0  0  0  0  0  0  0  0  0  0  0
   45.5220   35.5470   43.2120 C   0  0  1  0  0  0  0  0  0  0  0  0
   46.5790   34.5410   43.1630 C   0  0  0  0  0  0  0  0  0  0  0  0
   46.1290   33.3100   43.9160 C   0  0  0  0  0  0  0  0  0  0  0  0
   46.9740   34.3090   45.6120 H   0  0  0  0  0  0  0  0  0  0  0  0
   44.2680   34.8450   46.3340 H   0  0  0  0  0  0  0  0  0  0  0  0
   43.9530   36.3410   44.5400 H   0  0  0  0  0  0  0  0  0  0  0  0
   45.9390   36.5590   43.0280 H   0  0  0  0  0  0  0  0  0  0  0  0
   47.5830   34.8720   43.5220 H   0  0  0  0  0  0  0  0  0  0  0  0
   46.7580   34.2980   42.0730 H   0  0  0  0  0  0  0  0  0  0  0  0
   46.9820   32.6570   43.5890 H   0  0  0  0  0  0  0  0  0  0  0  0
   45.1720   32.9760   43.4630 H   0  0  0  0  0  0  0  0  0  0  0  0
   44.5110   35.2800   42.0580 C   0  0  0  0  0  0  0  0  0  0  0  0
   43.4500   34.4800   42.4520 F   0  0  0  0  0  0  0  0  0  0  0  0
   43.9640   36.5160   41.7240 F   0  0  0  0  0  0  0  0  0  0  0  0
   45.1850   34.8190   40.9440 F   0  0  0  0  0  0  0  0  0  0  0  0
   46.9000   30.6190   45.0010 C   0  0  0  0  0  0  0  0  0  0  0  0
   46.6050   29.8200   43.9440 C   0  0  0  0  0  0  0  0  0  0  0  0
   47.8030   29.4700   43.3100 C   0  0  0  0  0  0  0  0  0  0  0  0
   48.7640   30.0730   44.0120 N   0  0  0  0  0  0  0  0  0  0  0  0
   48.2560   30.7550   45.0120 N   0  0  0  0  0  0  0  0  0  0  0  0
   45.5680   29.5930   43.7670 H   0  0  0  0  0  0  0  0  0  0  0  0
   47.7930   28.8430   42.4510 H   0  0  0  0  0  0  0  0  0  0  0  0
   50.1120   29.8730   43.5630 C   0  0  0  0  0  0  0  0  0  0  0  0
   51.1570   29.3490   44.2710 C   0  0  0  0  0  3  0  0  0  0  0  0
   52.2500   29.3650   43.4020 C   0  0  0  0  0  3  0  0  0  0  0  0
   51.7860   29.9050   42.2090 C   0  0  0  0  0  0  0  0  0  0  0  0
   52.5330   29.9810   41.4300 H   0  0  0  0  0  0  0  0  0  0  0  0
   50.5090   30.1990   42.3360 O   0  0  0  0  0  0  0  0  0  0  0  0
  1  8  1  0  0  0  0
  1  6  1  0  0  0  0
  2  1  2  0  0  0  0
  3  2  1  0  0  0  0
  3  4  2  0  0  0  0
  4  5  1  0  0  0  0
  5  6  2  0  0  0  0
  5  7  1  0  0  0  0
  7 10  1  0  0  0  0
  9  7  1  0  0  0  0
 11 12  1  0  0  0  0
 11 17  1  1  0  0  0
 11  2  1  0  0  0  0
 12 18  1  0  0  0  0
 13 19  1  0  0  0  0
 13 12  2  0  0  0  0
 14 20  1  6  0  0  0
 14 13  1  0  0  0  0
 15 14  1  0  0  0  0
 15 21  1  0  0  0  0
 15 16  1  0  0  0  0
 16 11  1  0  0  0  0
 22 15  1  0  0  0  0
 23 16  1  0  0  0  0
 24 16  1  0  0  0  0
 25 26  1  0  0  0  0
 25 14  1  0  0  0  0
 27 25  1  0  0  0  0
 28 25  1  0  0  0  0
 29 33  2  0  0  0  0
 29  3  1  0  0  0  0
 30 29  1  0  0  0  0
 31 30  2  0  0  0  0
 31 32  1  0  0  0  0
 32 33  1  0  0  0  0
 34 30  1  0  0  0  0
 35 31  1  0  0  0  0
 36 32  1  0  0  0  0
 36 37  2  0  0  0  0
 38 37  1  0  0  0  0
 39 41  1  0  0  0  0
 39 38  2  0  0  0  0
 40 39  1  0  0  0  0
 41 36  1  0  0  0  0
M  END
>  <minimizedAffinity>
-5.69238567

>  <minimizedRMSD>
0.270488411

$$$$
