
 OpenBabel03232519193D

 27 28  0  0  1  0  0  0  0  0999 V2000
   45.2790   30.7200   46.0680 N   0  0  0  0  0  0  0  0  0  0  0  0
   45.3350   29.2970   46.4000 C   0  0  0  0  0  0  0  0  0  0  0  0
   46.6750   29.1910   47.0860 C   0  0  0  0  0  0  0  0  0  0  0  0
   46.8090   30.4310   47.8980 C   0  0  0  0  0  0  0  0  0  0  0  0
   45.9540   31.4280   47.0660 C   0  0  1  0  0  0  0  0  0  0  0  0
   44.3010   31.0230   45.8680 H   0  0  0  0  0  0  0  0  0  0  0  0
   45.3870   28.7100   45.4320 H   0  0  0  0  0  0  0  0  0  0  0  0
   44.4860   28.9150   46.9430 H   0  0  0  0  0  0  0  0  0  0  0  0
   46.6540   28.2780   47.7520 H   0  0  0  0  0  0  0  0  0  0  0  0
   47.4770   29.0930   46.3260 H   0  0  0  0  0  0  0  0  0  0  0  0
   46.5400   30.3680   48.9370 H   0  0  0  0  0  0  0  0  0  0  0  0
   47.8710   30.7770   47.7730 H   0  0  0  0  0  0  0  0  0  0  0  0
   46.6520   32.5060   46.5520 O   0  0  0  0  0  0  0  0  0  0  0  0
   46.8080   32.7630   45.1530 C   0  0  0  0  0  0  0  0  0  0  0  0
   47.4820   31.9730   44.4720 O   0  0  0  0  0  0  0  0  0  0  0  0
   44.5620   35.6130   44.8110 C   0  0  0  0  0  0  0  0  0  0  0  0
   44.8700   36.1430   43.5590 C   0  0  0  0  0  0  0  0  0  0  0  0
   45.8760   35.5140   42.8240 C   0  0  0  0  0  0  0  0  0  0  0  0
   46.5010   34.4120   43.3850 N   0  0  0  0  0  0  0  0  0  0  0  0
   46.1400   33.9520   44.6220 C   0  0  0  0  0  0  0  0  0  0  0  0
   45.1850   34.5470   45.3240 N   0  0  0  0  0  0  0  0  0  0  0  0
   43.7820   36.0910   45.3950 H   0  0  0  0  0  0  0  0  0  0  0  0
   44.3880   36.9930   43.1280 H   0  0  0  0  0  0  0  0  0  0  0  0
   46.2080   35.8280   41.8420 H   0  0  0  0  0  0  0  0  0  0  0  0
   45.1470   32.0610   48.2130 C   0  0  0  0  0  0  0  0  0  0  0  0
   45.3150   31.4050   49.5260 C   0  0  0  0  0  0  0  0  0  0  0  0
   46.2140   31.6600   50.0960 H   0  0  0  0  0  0  0  0  0  0  0  0
  1  2  1  0  0  0  0
  1  5  1  0  0  0  0
  2  8  1  0  0  0  0
  2  3  1  0  0  0  0
  3  9  1  0  0  0  0
  3  4  1  0  0  0  0
  4 11  1  0  0  0  0
  5  4  1  0  0  0  0
  5 25  1  1  0  0  0
  6  1  1  0  0  0  0
  7  2  1  0  0  0  0
 10  3  1  0  0  0  0
 12  4  1  0  0  0  0
 13  5  1  0  0  0  0
 14 13  1  0  0  0  0
 15 14  2  0  0  0  0
 16 21  1  0  0  0  0
 16 22  1  0  0  0  0
 17 16  2  0  0  0  0
 18 19  2  0  0  0  0
 18 17  1  0  0  0  0
 19 20  1  0  0  0  0
 20 14  1  0  0  0  0
 20 21  2  0  0  0  0
 23 17  1  0  0  0  0
 24 18  1  0  0  0  0
 25 26  1  0  0  0  0
 26 27  1  0  0  0  0
M  END
>  <minimizedAffinity>
-4.71010017

>  <minimizedRMSD>
1.5525614

$$$$
