
 OpenBabel03232520423D

 37 39  0  0  1  0  0  0  0  0999 V2000
   41.6520   35.2380   41.4910 S   0  0  0  0  0  0  0  0  0  0  0  0
   38.4820   32.7410   39.5820 N   0  0  0  0  0  0  0  0  0  0  0  0
   38.7100   33.0580   40.9690 C   0  0  0  0  0  0  0  0  0  0  0  0
   40.1910   33.0000   41.3290 C   0  0  0  0  0  0  0  0  0  0  0  0
   40.9100   33.9880   40.4480 C   0  0  1  0  0  0  0  0  0  0  0  0
   40.0430   34.5990   39.3860 C   0  0  0  0  0  0  0  0  0  0  0  0
   39.2670   33.5110   38.6640 C   0  0  2  0  0  0  0  0  0  0  0  0
   37.4570   32.8130   39.4250 H   0  0  0  0  0  0  0  0  0  0  0  0
   38.2240   32.2760   41.5780 H   0  0  0  0  0  0  0  0  0  0  0  0
   38.2430   34.0270   41.2480 H   0  0  0  0  0  0  0  0  0  0  0  0
   40.5180   31.9690   41.1950 H   0  0  0  0  0  0  0  0  0  0  0  0
   40.2550   33.2750   42.4060 H   0  0  0  0  0  0  0  0  0  0  0  0
   41.6980   33.4070   39.9220 H   0  0  0  0  0  0  0  0  0  0  0  0
   40.6690   35.1550   38.6910 H   0  0  0  0  0  0  0  0  0  0  0  0
   39.3040   35.2550   39.9130 H   0  0  0  0  0  0  0  0  0  0  0  0
   40.0330   32.8310   38.2300 H   0  0  0  0  0  0  0  0  0  0  0  0
   38.4950   34.0630   37.4980 C   0  0  0  0  0  0  0  0  0  0  0  0
   37.6250   33.0810   36.7930 C   0  0  0  0  0  0  0  0  0  0  0  0
   37.1070   32.3890   37.4850 H   0  0  0  0  0  0  0  0  0  0  0  0
   44.1110   35.4560   42.7690 C   0  0  0  0  0  0  0  0  0  0  0  0
   43.4240   34.9970   41.6450 C   0  0  0  0  0  0  0  0  0  0  0  0
   44.1380   34.3650   40.6720 C   0  0  0  0  0  0  0  0  0  0  0  0
   45.4920   34.1870   40.8020 N   0  0  0  0  0  0  0  0  0  0  0  0
   46.1230   34.6500   41.9160 C   0  0  0  0  0  0  0  0  0  0  0  0
   45.4440   35.2790   42.8920 N   0  0  0  0  0  0  0  0  0  0  0  0
   43.5840   35.9630   43.5650 H   0  0  0  0  0  0  0  0  0  0  0  0
   43.7080   33.9770   39.7690 H   0  0  0  0  0  0  0  0  0  0  0  0
   47.5560   34.4950   42.1150 C   0  0  0  0  0  0  0  0  0  0  0  0
   48.3940   35.5770   41.9710 C   0  0  0  0  0  0  0  0  0  0  0  0
   49.7650   35.4840   42.1490 C   0  0  0  0  0  0  0  0  0  0  0  0
   50.3270   34.2590   42.4850 C   0  0  0  0  0  0  0  0  0  0  0  0
   49.4580   33.1990   42.6210 C   0  0  0  0  0  0  0  0  0  0  0  0
   48.1310   33.3310   42.4390 N   0  0  0  0  0  0  0  0  0  0  0  0
   47.9470   36.5380   41.7060 H   0  0  0  0  0  0  0  0  0  0  0  0
   50.4250   36.3320   42.0370 H   0  0  0  0  0  0  0  0  0  0  0  0
   51.3870   34.0940   42.6440 H   0  0  0  0  0  0  0  0  0  0  0  0
   49.7800   32.1860   42.8830 H   0  0  0  0  0  0  0  0  0  0  0  0
  1 21  1  0  0  0  0
  2  3  1  0  0  0  0
  3 10  1  0  0  0  0
  3  4  1  0  0  0  0
  3  9  1  0  0  0  0
  4 12  1  0  0  0  0
  5 13  1  6  0  0  0
  5  4  1  0  0  0  0
  5  1  1  0  0  0  0
  6 15  1  0  0  0  0
  6  5  1  0  0  0  0
  7 16  1  6  0  0  0
  7  6  1  0  0  0  0
  7  2  1  0  0  0  0
  8  2  1  0  0  0  0
 11  4  1  0  0  0  0
 14  6  1  0  0  0  0
 17  7  1  0  0  0  0
 18 19  1  0  0  0  0
 18 17  1  0  0  0  0
 20 25  1  0  0  0  0
 20 26  1  0  0  0  0
 21 20  2  0  0  0  0
 22 23  2  0  0  0  0
 22 21  1  0  0  0  0
 23 24  1  0  0  0  0
 24 28  1  0  0  0  0
 24 25  2  0  0  0  0
 27 22  1  0  0  0  0
 28 33  1  0  0  0  0
 29 28  2  0  0  0  0
 29 30  1  0  0  0  0
 30 31  2  0  0  0  0
 31 32  1  0  0  0  0
 31 36  1  0  0  0  0
 32 37  1  0  0  0  0
 33 32  2  0  0  0  0
 34 29  1  0  0  0  0
 35 30  1  0  0  0  0
M  END
>  <minimizedAffinity>
-5.78440952

>  <minimizedRMSD>
0.979285717

$$$$
