
 OpenBabel03232520593D

 47 51  0  0  1  0  0  0  0  0999 V2000
   45.3270   32.9470   47.4550 C   0  0  0  0  0  0  0  0  0  0  0  0
   45.9090   32.6890   46.2540 C   0  0  0  0  0  0  0  0  0  0  0  0
   46.2180   31.3400   46.0370 C   0  0  0  0  0  0  0  0  0  0  0  0
   45.9660   30.3530   46.9330 N   0  0  0  0  0  0  0  0  0  0  0  0
   45.3700   30.6670   48.1440 C   0  0  0  0  0  0  0  0  0  0  0  0
   45.0670   31.9450   48.3760 N   0  0  0  0  0  0  0  0  0  0  0  0
   45.1020   29.6630   49.1000 N   0  0  0  0  0  0  0  0  0  0  0  0
   45.0520   33.9530   47.7260 H   0  0  0  0  0  0  0  0  0  0  0  0
   44.4330   28.9120   48.7950 H   0  0  0  0  0  0  0  0  0  0  0  0
   45.5350   29.6610   50.0500 H   0  0  0  0  0  0  0  0  0  0  0  0
   46.8940   30.6520   44.9520 C   0  0  0  0  0  0  0  0  0  0  0  0
   46.5960   29.7770   43.9560 C   0  0  0  0  0  0  0  0  0  0  0  0
   47.7880   29.4790   43.2690 C   0  0  0  0  0  0  0  0  0  0  0  0
   48.7340   30.1880   43.8840 N   0  0  0  0  0  0  0  0  0  0  0  0
   48.2380   30.8870   44.8760 N   0  0  0  0  0  0  0  0  0  0  0  0
   45.5620   29.4740   43.8620 H   0  0  0  0  0  0  0  0  0  0  0  0
   47.7380   28.7930   42.4390 H   0  0  0  0  0  0  0  0  0  0  0  0
   50.0600   30.0520   43.3570 C   0  0  0  0  0  0  0  0  0  0  0  0
   50.3130   30.7770   42.2390 N   0  0  0  0  0  0  0  0  0  0  0  0
   51.5380   30.7110   41.6720 C   0  0  0  0  0  3  0  0  0  0  0  0
   52.5540   29.9460   42.1630 N   0  0  0  0  0  0  0  0  0  0  0  0
   52.2910   29.2310   43.2720 C   0  0  0  0  0  0  0  0  0  0  0  0
   53.2780   28.4250   43.8330 C   0  0  0  0  0  3  0  0  0  0  0  0
   53.0050   27.6920   44.9730 C   0  0  0  0  0  0  0  0  0  0  0  0
   53.8060   27.0820   45.3710 H   0  0  0  0  0  0  0  0  0  0  0  0
   51.7510   27.7570   45.5570 C   0  0  0  0  0  0  0  0  0  0  0  0
   51.5520   27.1680   46.4620 H   0  0  0  0  0  0  0  0  0  0  0  0
   50.7300   28.5500   45.0310 C   0  0  0  0  0  3  0  0  0  0  0  0
   51.0550   29.2620   43.8920 C   0  0  0  0  0  0  0  0  0  0  0  0
   46.1430   33.6310   45.2130 C   0  0  2  0  0  0  0  0  0  0  0  0
   44.9410   34.7320   45.4590 C   0  0  0  0  0  0  0  0  0  0  0  0
   44.6930   35.6560   44.3880 C   0  0  0  0  0  0  0  0  0  0  0  0
   45.4760   35.5710   43.1480 C   0  0  1  0  0  0  0  0  0  0  0  0
   46.5210   34.5570   43.0840 C   0  0  0  0  0  0  0  0  0  0  0  0
   46.0760   33.3340   43.8520 C   0  0  0  0  0  0  0  0  0  0  0  0
   46.9690   34.3400   45.5180 H   0  0  0  0  0  0  0  0  0  0  0  0
   44.2790   34.8930   46.3010 H   0  0  0  0  0  0  0  0  0  0  0  0
   43.9320   36.3810   44.5060 H   0  0  0  0  0  0  0  0  0  0  0  0
   45.9020   36.5710   42.9200 H   0  0  0  0  0  0  0  0  0  0  0  0
   47.5310   34.8940   43.4460 H   0  0  0  0  0  0  0  0  0  0  0  0
   46.7070   34.3240   41.9940 H   0  0  0  0  0  0  0  0  0  0  0  0
   45.1070   33.0040   43.4190 H   0  0  0  0  0  0  0  0  0  0  0  0
   46.9160   32.6750   43.5070 H   0  0  0  0  0  0  0  0  0  0  0  0
   44.4370   35.3070   42.0180 C   0  0  0  0  0  0  0  0  0  0  0  0
   43.3810   34.5170   42.4350 F   0  0  0  0  0  0  0  0  0  0  0  0
   43.8880   36.5410   41.6850 F   0  0  0  0  0  0  0  0  0  0  0  0
   45.0840   34.8330   40.8920 F   0  0  0  0  0  0  0  0  0  0  0  0
  1  8  1  0  0  0  0
  1  6  1  0  0  0  0
  2  1  2  0  0  0  0
  3  2  1  0  0  0  0
  3  4  2  0  0  0  0
  4  5  1  0  0  0  0
  5  6  2  0  0  0  0
  5  7  1  0  0  0  0
  7 10  1  0  0  0  0
  9  7  1  0  0  0  0
 11  3  1  0  0  0  0
 12 11  1  0  0  0  0
 13 14  1  0  0  0  0
 13 12  2  0  0  0  0
 14 15  1  0  0  0  0
 15 11  2  0  0  0  0
 16 12  1  0  0  0  0
 17 13  1  0  0  0  0
 18 14  1  0  0  0  0
 18 29  1  0  0  0  0
 19 18  2  0  0  0  0
 20 21  2  0  0  0  0
 20 19  1  0  0  0  0
 21 22  1  0  0  0  0
 22 23  2  0  0  0  0
 22 29  1  0  0  0  0
 23 24  1  0  0  0  0
 24 25  1  0  0  0  0
 24 26  2  0  0  0  0
 26 27  1  0  0  0  0
 28 26  1  0  0  0  0
 29 28  2  0  0  0  0
 30 31  1  0  0  0  0
 30 36  1  1  0  0  0
 30  2  1  0  0  0  0
 31 37  1  0  0  0  0
 32 38  1  0  0  0  0
 32 31  2  0  0  0  0
 33 39  1  6  0  0  0
 33 32  1  0  0  0  0
 34 33  1  0  0  0  0
 34 40  1  0  0  0  0
 34 35  1  0  0  0  0
 35 30  1  0  0  0  0
 41 34  1  0  0  0  0
 42 35  1  0  0  0  0
 43 35  1  0  0  0  0
 44 45  1  0  0  0  0
 44 33  1  0  0  0  0
 46 44  1  0  0  0  0
 47 44  1  0  0  0  0
M  END
>  <minimizedAffinity>
-6.29652882

>  <minimizedRMSD>
0.583228707

$$$$
