
 OpenBabel03232520093D

 20 21  0  0  0  0  0  0  0  0999 V2000
   45.6920   33.5400   46.0760 C   0  0  0  0  0  0  0  0  0  0  0  0
   44.9500   33.5580   47.2390 C   0  0  0  0  0  0  0  0  0  0  0  0
   45.2170   32.6430   48.2070 C   0  0  0  0  0  0  0  0  0  0  0  0
   46.2450   31.7370   47.9330 C   0  0  0  0  0  0  0  0  0  0  0  0
   46.8210   32.1960   46.3070 S   0  0  0  0  0  0  0  0  0  0  0  0
   44.1670   34.3130   47.3500 H   0  0  0  0  0  0  0  0  0  0  0  0
   44.7180   32.5590   49.1360 H   0  0  0  0  0  0  0  0  0  0  0  0
   44.6470   36.2210   43.7840 C   0  0  0  0  0  0  0  0  0  0  0  0
   45.4910   35.9660   42.6780 C   0  0  0  0  0  0  0  0  0  0  0  0
   46.3990   34.8780   42.7490 C   0  0  0  0  0  0  0  0  0  0  0  0
   46.4090   34.1320   43.8850 N   0  0  0  0  0  0  0  0  0  0  0  0
   45.5850   34.4060   44.9250 C   0  0  0  0  0  0  0  0  0  0  0  0
   44.7130   35.4370   44.8790 N   0  0  0  0  0  0  0  0  0  0  0  0
   43.9710   37.0590   43.6850 H   0  0  0  0  0  0  0  0  0  0  0  0
   45.4880   36.5550   41.7720 H   0  0  0  0  0  0  0  0  0  0  0  0
   47.0620   34.6490   41.9250 H   0  0  0  0  0  0  0  0  0  0  0  0
   46.7560   30.6220   48.8080 C   0  0  0  0  0  0  0  0  0  0  0  0
   47.9070   30.9830   49.4660 F   0  0  0  0  0  0  0  0  0  0  0  0
   46.9680   29.4890   48.0930 F   0  0  0  0  0  0  0  0  0  0  0  0
   45.7700   30.3730   49.7520 F   0  0  0  0  0  0  0  0  0  0  0  0
  1  5  1  0  0  0  0
  1  2  2  0  0  0  0
  2  6  1  0  0  0  0
  2  3  1  0  0  0  0
  3  7  1  0  0  0  0
  4  3  2  0  0  0  0
  4 17  1  0  0  0  0
  5  4  1  0  0  0  0
  8 13  1  0  0  0  0
  9 10  1  0  0  0  0
  9  8  2  0  0  0  0
 10 11  2  0  0  0  0
 11 12  1  0  0  0  0
 12  1  1  0  0  0  0
 13 12  2  0  0  0  0
 14  8  1  0  0  0  0
 15  9  1  0  0  0  0
 16 10  1  0  0  0  0
 17 18  1  0  0  0  0
 17 20  1  0  0  0  0
 19 17  1  0  0  0  0
M  END
>  <minimizedAffinity>
-4.37233734

>  <minimizedRMSD>
0.907886803

$$$$
