
 OpenBabel03232520553D

 32 33  0  0  1  0  0  0  0  0999 V2000
   46.1150   33.6320   45.2040 C   0  0  2  0  0  0  0  0  0  0  0  0
   45.0330   34.7780   45.4450 C   0  0  0  0  0  0  0  0  0  0  0  0
   44.7830   35.6790   44.3480 C   0  0  0  0  0  0  0  0  0  0  0  0
   45.4640   35.5050   43.0750 C   0  0  1  0  0  0  0  0  0  0  0  0
   46.4720   34.4370   43.0090 C   0  0  0  0  0  0  0  0  0  0  0  0
   45.9390   33.2570   43.8270 C   0  0  0  0  0  0  0  0  0  0  0  0
   46.9690   34.3340   45.4760 H   0  0  0  0  0  0  0  0  0  0  0  0
   44.3880   35.0860   46.2560 H   0  0  0  0  0  0  0  0  0  0  0  0
   44.0890   36.4650   44.4170 H   0  0  0  0  0  0  0  0  0  0  0  0
   45.9350   36.4550   42.7510 H   0  0  0  0  0  0  0  0  0  0  0  0
   47.4450   34.7070   43.4540 H   0  0  0  0  0  0  0  0  0  0  0  0
   46.6110   34.0830   41.9570 H   0  0  0  0  0  0  0  0  0  0  0  0
   46.1570   32.3540   43.3310 H   0  0  0  0  0  0  0  0  0  0  0  0
   44.8020   33.3160   43.6550 H   0  0  0  0  0  0  0  0  0  0  0  0
   45.1430   32.9160   47.3940 C   0  0  0  0  0  0  0  0  0  0  0  0
   45.9170   32.6900   46.2660 C   0  0  0  0  0  0  0  0  0  0  0  0
   46.4920   31.4050   46.1160 C   0  0  0  0  0  0  0  0  0  0  0  0
   46.2440   30.5000   47.0700 N   0  0  0  0  0  0  0  0  0  0  0  0
   45.4840   30.7430   48.1600 C   0  0  0  0  0  0  0  0  0  0  0  0
   44.9350   31.9350   48.3300 N   0  0  0  0  0  0  0  0  0  0  0  0
   45.3010   29.6810   49.1180 N   0  0  0  0  0  0  0  0  0  0  0  0
   44.6900   33.8680   47.5720 H   0  0  0  0  0  0  0  0  0  0  0  0
   46.0150   28.9370   49.2970 H   0  0  0  0  0  0  0  0  0  0  0  0
   44.4150   29.6240   49.6810 H   0  0  0  0  0  0  0  0  0  0  0  0
   47.3150   30.7860   45.0570 C   0  0  0  0  0  0  0  0  0  0  0  0
   48.2560   31.7540   44.5410 F   0  0  0  0  0  0  0  0  0  0  0  0
   48.3330   29.9490   45.5990 F   0  0  0  0  0  0  0  0  0  0  0  0
   46.7550   30.3880   43.9200 F   0  0  0  0  0  0  0  0  0  0  0  0
   44.3640   35.2400   42.0110 C   0  0  0  0  0  0  0  0  0  0  0  0
   43.3200   34.4810   42.4930 F   0  0  0  0  0  0  0  0  0  0  0  0
   43.8280   36.4800   41.6830 F   0  0  0  0  0  0  0  0  0  0  0  0
   44.9330   34.7290   40.8590 F   0  0  0  0  0  0  0  0  0  0  0  0
  1  2  1  0  0  0  0
  1  7  1  1  0  0  0
  1 16  1  0  0  0  0
  2  8  1  0  0  0  0
  3  9  1  0  0  0  0
  3  2  2  0  0  0  0
  4 10  1  6  0  0  0
  4  3  1  0  0  0  0
  5  4  1  0  0  0  0
  5 11  1  0  0  0  0
  5  6  1  0  0  0  0
  6  1  1  0  0  0  0
 12  5  1  0  0  0  0
 13  6  1  0  0  0  0
 14  6  1  0  0  0  0
 15 22  1  0  0  0  0
 15 20  1  0  0  0  0
 16 15  2  0  0  0  0
 17 16  1  0  0  0  0
 17 18  2  0  0  0  0
 18 19  1  0  0  0  0
 19 20  2  0  0  0  0
 19 21  1  0  0  0  0
 21 23  1  0  0  0  0
 21 24  1  0  0  0  0
 25 27  1  0  0  0  0
 25 17  1  0  0  0  0
 26 25  1  0  0  0  0
 28 25  1  0  0  0  0
 29 30  1  0  0  0  0
 29  4  1  0  0  0  0
 31 29  1  0  0  0  0
 32 29  1  0  0  0  0
M  END
>  <minimizedAffinity>
-5.41504669

>  <minimizedRMSD>
0.228136539

$$$$
