REMARK  Name = 
REMARK  3 active torsions:
REMARK  status: ('A' for Active; 'I' for Inactive)
REMARK    1  A    between atoms: C_1  and  C_8
REMARK    2  A    between atoms: C_4  and  C_14
REMARK    3  A    between atoms: C_9  and  C_29
REMARK                            x       y       z     vdW  Elec       q    Type
REMARK                         _______ _______ _______ _____ _____    ______ ____
ROOT
ATOM      1  C   UNL     1      46.145  33.646  45.322  0.00  0.00    +0.000 C 
ATOM      2  C   UNL     1      44.967  34.709  45.478  0.00  0.00    +0.000 C 
ATOM      3  C   UNL     1      44.751  35.609  44.373  0.00  0.00    +0.000 C 
ATOM      4  C   UNL     1      45.553  35.506  43.165  0.00  0.00    +0.000 C 
ATOM      5  C   UNL     1      46.636  34.513  43.177  0.00  0.00    +0.000 C 
ATOM      6  C   UNL     1      46.119  33.284  43.930  0.00  0.00    +0.000 C 
ATOM      7  H   UNL     1      46.920  34.401  45.677  0.00  0.00    +0.000 HD
ATOM      8  H   UNL     1      44.233  34.956  46.232  0.00  0.00    +0.000 HD
ATOM      9  H   UNL     1      43.999  36.343  44.389  0.00  0.00    +0.000 HD
ATOM     10  H   UNL     1      45.981  36.492  42.895  0.00  0.00    +0.000 HD
ATOM     11  H   UNL     1      47.544  34.842  43.710  0.00  0.00    +0.000 HD
ATOM     12  H   UNL     1      46.893  34.188  42.137  0.00  0.00    +0.000 HD
ATOM     13  H   UNL     1      46.444  32.407  43.446  0.00  0.00    +0.000 HD
ATOM     14  H   UNL     1      45.000  33.266  43.658  0.00  0.00    +0.000 HD
ENDROOT
BRANCH   1  16
ATOM     15  C   UNL     1      45.213  32.903  47.520  0.00  0.00    +0.000 A 
ATOM     16  C   UNL     1      45.922  32.673  46.351  0.00  0.00    +0.000 A 
ATOM     17  C   UNL     1      46.395  31.359  46.122  0.00  0.00    +0.000 A 
ATOM     18  N   UNL     1      46.121  30.432  47.048  0.00  0.00    +0.000 NA
ATOM     19  C   UNL     1      45.425  30.679  48.179  0.00  0.00    +0.000 A 
ATOM     20  N   UNL     1      44.972  31.898  48.422  0.00  0.00    +0.000 NA
ATOM     21  N   UNL     1      45.204  29.591  49.099  0.00  0.00    +0.000 N 
ATOM     22  H   UNL     1      44.838  33.876  47.757  0.00  0.00    +0.000 HD
ATOM     23  H   UNL     1      45.869  28.791  49.215  0.00  0.00    +0.000 HD
ATOM     24  H   UNL     1      44.340  29.572  49.697  0.00  0.00    +0.000 HD
BRANCH  17  25
ATOM     25  C   UNL     1      47.127  30.731  45.003  0.00  0.00    +0.000 C 
ATOM     26  F   UNL     1      48.066  31.676  44.443  0.00  0.00    +0.000 F 
ATOM     27  F   UNL     1      48.148  29.852  45.466  0.00  0.00    +0.000 F 
ATOM     28  F   UNL     1      46.483  30.372  43.898  0.00  0.00    +0.000 F 
ENDBRANCH  17  25
ENDBRANCH   1  16
BRANCH   4  29
ATOM     29  C   UNL     1      44.573  35.183  42.004  0.00  0.00    +0.000 C 
ATOM     30  F   UNL     1      43.558  34.330  42.377  0.00  0.00    +0.000 F 
ATOM     31  F   UNL     1      43.966  36.385  41.656  0.00  0.00    +0.000 F 
ATOM     32  F   UNL     1      45.278  34.752  40.895  0.00  0.00    +0.000 F 
ENDBRANCH   4  29
TORSDOF 3
