
     RDKit          3D

 32 33  0  0  0  0  0  0  0  0999 V2000
   46.1447   33.6460   45.3215 C   0  0  2  0  0  0  0  0  0  0  0  0
   44.9668   34.7090   45.4780 C   0  0  0  0  0  0  0  0  0  0  0  0
   44.7509   35.6087   44.3731 C   0  0  0  0  0  0  0  0  0  0  0  0
   45.5525   35.5062   43.1654 C   0  0  1  0  0  0  0  0  0  0  0  0
   46.6360   34.5132   43.1774 C   0  0  0  0  0  0  0  0  0  0  0  0
   46.1187   33.2840   43.9297 C   0  0  0  0  0  0  0  0  0  0  0  0
   45.2129   32.9028   47.5203 C   0  0  0  0  0  0  0  0  0  0  0  0
   45.9219   32.6735   46.3509 C   0  0  0  0  0  0  0  0  0  0  0  0
   46.3951   31.3590   46.1219 C   0  0  0  0  0  0  0  0  0  0  0  0
   46.1211   30.4316   47.0483 N   0  0  0  0  0  0  0  0  0  0  0  0
   45.4252   30.6787   48.1789 C   0  0  0  0  0  0  0  0  0  0  0  0
   44.9723   31.8985   48.4221 N   0  0  0  0  0  0  0  0  0  0  0  0
   45.2041   29.5909   49.0989 N   0  0  0  0  0  0  0  0  0  0  0  0
   44.5733   35.1828   42.0038 C   0  0  0  0  0  0  0  0  0  0  0  0
   43.5576   34.3299   42.3773 F   0  0  0  0  0  0  0  0  0  0  0  0
   43.9656   36.3852   41.6555 F   0  0  0  0  0  0  0  0  0  0  0  0
   45.2783   34.7520   40.8950 F   0  0  0  0  0  0  0  0  0  0  0  0
   46.9203   34.4007   45.6766 H   0  0  0  0  0  0  0  0  0  0  0  0
   44.2331   34.9558   46.2316 H   0  0  0  0  0  0  0  0  0  0  0  0
   43.9994   36.3429   44.3888 H   0  0  0  0  0  0  0  0  0  0  0  0
   45.9814   36.4916   42.8952 H   0  0  0  0  0  0  0  0  0  0  0  0
   47.5439   34.8418   43.7099 H   0  0  0  0  0  0  0  0  0  0  0  0
   46.8928   34.1875   42.1374 H   0  0  0  0  0  0  0  0  0  0  0  0
   46.4442   32.4069   43.4464 H   0  0  0  0  0  0  0  0  0  0  0  0
   44.9998   33.2657   43.6581 H   0  0  0  0  0  0  0  0  0  0  0  0
   44.8376   33.8763   47.7573 H   0  0  0  0  0  0  0  0  0  0  0  0
   45.8693   28.7915   49.2153 H   0  0  0  0  0  0  0  0  0  0  0  0
   44.3400   29.5720   49.6967 H   0  0  0  0  0  0  0  0  0  0  0  0
   47.1267   30.7314   45.0026 C   0  0  0  0  0  0  0  0  0  0  0  0
   48.2895   31.5242   44.6736 F   0  0  0  0  0  0  0  0  0  0  0  0
   47.8989   29.6141   45.4359 F   0  0  0  0  0  0  0  0  0  0  0  0
   46.5671   30.6425   43.8017 F   0  0  0  0  0  0  0  0  0  0  0  0
  1  2  1  0
  1  8  1  0
  3  2  2  0
  4  5  1  0
  4  3  1  0
  5  6  1  0
  6  1  1  0
  7 12  2  0
  8  7  1  0
  9  8  2  0
  9 10  1  0
 10 11  2  0
 11 12  1  0
 11 13  1  0
 14 15  1  0
 14  4  1  0
 16 14  1  0
 17 14  1  0
  1 18  1  1
  2 19  1  0
  3 20  1  0
  4 21  1  6
  5 22  1  0
  5 23  1  0
  6 24  1  0
  6 25  1  0
  7 26  1  0
 13 27  1  0
 13 28  1  0
 29 30  1  0
 29 31  1  0
 29 32  1  0
  9 29  1  0
M  ISO  8  18  13  19  13  20  13  21  13  22  13  23  13  24  13  25  13
M  ISO  1  26  14
M  END
>  <DihAtoms>  (1) 
7,8,28,29

>  <DihDeg>  (1) 
170.8498818501849

$$$$
