
 OpenBabel03232521003D

 47 51  0  0  1  0  0  0  0  0999 V2000
   45.4230   32.9330   47.5120 C   0  0  0  0  0  0  0  0  0  0  0  0
   45.9190   32.6560   46.2780 C   0  0  0  0  0  0  0  0  0  0  0  0
   46.1230   31.2930   46.0260 C   0  0  0  0  0  0  0  0  0  0  0  0
   45.8540   30.3100   46.9220 N   0  0  0  0  0  0  0  0  0  0  0  0
   45.3480   30.6440   48.1690 C   0  0  0  0  0  0  0  0  0  0  0  0
   45.1460   31.9360   48.4330 N   0  0  0  0  0  0  0  0  0  0  0  0
   45.0650   29.6450   49.1260 N   0  0  0  0  0  0  0  0  0  0  0  0
   45.2310   33.9510   47.8110 H   0  0  0  0  0  0  0  0  0  0  0  0
   44.3310   28.9460   48.8490 H   0  0  0  0  0  0  0  0  0  0  0  0
   45.5480   29.5980   50.0500 H   0  0  0  0  0  0  0  0  0  0  0  0
   46.6900   30.5780   44.8970 C   0  0  0  0  0  0  0  0  0  0  0  0
   46.2650   29.8330   43.8430 C   0  0  0  0  0  0  0  0  0  0  0  0
   47.4010   29.3920   43.1380 C   0  0  0  0  0  0  0  0  0  0  0  0
   48.4420   29.8940   43.8000 N   0  0  0  0  0  0  0  0  0  0  0  0
   48.0550   30.5950   44.8380 N   0  0  0  0  0  0  0  0  0  0  0  0
   45.1970   29.7100   43.7280 H   0  0  0  0  0  0  0  0  0  0  0  0
   47.2500   28.7810   42.2630 H   0  0  0  0  0  0  0  0  0  0  0  0
   49.7340   29.5790   43.2660 C   0  0  0  0  0  0  0  0  0  0  0  0
   50.5190   30.6490   42.9850 N   0  0  0  0  0  0  0  0  0  0  0  0
   51.7550   30.4470   42.4770 C   0  0  0  0  0  3  0  0  0  0  0  0
   52.2720   29.2110   42.2240 N   0  0  0  0  0  0  0  0  0  0  0  0
   51.4850   28.1580   42.5070 C   0  0  0  0  0  0  0  0  0  0  0  0
   51.9420   26.8640   42.2750 C   0  0  0  0  0  3  0  0  0  0  0  0
   51.1320   25.7810   42.5660 C   0  0  0  0  0  0  0  0  0  0  0  0
   51.5340   24.7960   42.3680 H   0  0  0  0  0  0  0  0  0  0  0  0
   49.8650   25.9840   43.0860 C   0  0  0  0  0  0  0  0  0  0  0  0
   49.2330   25.1140   43.3110 H   0  0  0  0  0  0  0  0  0  0  0  0
   49.3620   27.2620   43.3350 C   0  0  0  0  0  3  0  0  0  0  0  0
   50.2110   28.3070   43.0270 C   0  0  0  0  0  0  0  0  0  0  0  0
   46.1600   33.5970   45.2370 C   0  0  2  0  0  0  0  0  0  0  0  0
   44.9590   34.7000   45.4780 C   0  0  0  0  0  0  0  0  0  0  0  0
   44.7180   35.6250   44.4050 C   0  0  0  0  0  0  0  0  0  0  0  0
   45.5050   35.5380   43.1690 C   0  0  1  0  0  0  0  0  0  0  0  0
   46.5480   34.5200   43.1090 C   0  0  0  0  0  0  0  0  0  0  0  0
   46.0960   33.3000   43.8760 C   0  0  0  0  0  0  0  0  0  0  0  0
   46.9860   34.3030   45.5450 H   0  0  0  0  0  0  0  0  0  0  0  0
   44.2950   34.8640   46.3180 H   0  0  0  0  0  0  0  0  0  0  0  0
   43.9580   36.3520   44.5200 H   0  0  0  0  0  0  0  0  0  0  0  0
   45.9340   36.5360   42.9420 H   0  0  0  0  0  0  0  0  0  0  0  0
   47.5570   34.8550   43.4740 H   0  0  0  0  0  0  0  0  0  0  0  0
   46.7370   34.2870   42.0200 H   0  0  0  0  0  0  0  0  0  0  0  0
   45.1280   32.9720   43.4390 H   0  0  0  0  0  0  0  0  0  0  0  0
   46.9360   32.6380   43.5350 H   0  0  0  0  0  0  0  0  0  0  0  0
   44.4690   35.2750   42.0350 C   0  0  0  0  0  0  0  0  0  0  0  0
   43.4170   34.4780   42.4450 F   0  0  0  0  0  0  0  0  0  0  0  0
   43.9150   36.5090   41.7090 F   0  0  0  0  0  0  0  0  0  0  0  0
   45.1210   34.8120   40.9070 F   0  0  0  0  0  0  0  0  0  0  0  0
  1  8  1  0  0  0  0
  1  6  1  0  0  0  0
  2  1  2  0  0  0  0
  3  2  1  0  0  0  0
  3  4  2  0  0  0  0
  4  5  1  0  0  0  0
  5  6  2  0  0  0  0
  5  7  1  0  0  0  0
  7 10  1  0  0  0  0
  9  7  1  0  0  0  0
 11  3  1  0  0  0  0
 12 11  1  0  0  0  0
 13 14  1  0  0  0  0
 13 12  2  0  0  0  0
 14 15  1  0  0  0  0
 15 11  2  0  0  0  0
 16 12  1  0  0  0  0
 17 13  1  0  0  0  0
 18 14  1  0  0  0  0
 19 18  2  0  0  0  0
 20 19  1  0  0  0  0
 21 20  2  0  0  0  0
 21 22  1  0  0  0  0
 22 29  1  0  0  0  0
 23 22  2  0  0  0  0
 23 24  1  0  0  0  0
 24 26  2  0  0  0  0
 25 24  1  0  0  0  0
 26 27  1  0  0  0  0
 26 28  1  0  0  0  0
 29 18  1  0  0  0  0
 29 28  2  0  0  0  0
 30 31  1  0  0  0  0
 30 36  1  1  0  0  0
 30  2  1  0  0  0  0
 31 37  1  0  0  0  0
 32 38  1  0  0  0  0
 32 31  2  0  0  0  0
 33 39  1  6  0  0  0
 33 32  1  0  0  0  0
 34 33  1  0  0  0  0
 34 40  1  0  0  0  0
 34 35  1  0  0  0  0
 35 30  1  0  0  0  0
 41 34  1  0  0  0  0
 42 35  1  0  0  0  0
 43 35  1  0  0  0  0
 44 45  1  0  0  0  0
 44 33  1  0  0  0  0
 46 44  1  0  0  0  0
 47 44  1  0  0  0  0
M  END
>  <minimizedAffinity>
-6.0637455

>  <minimizedRMSD>
0.122204237

$$$$
