
 OpenBabel03232518093D

 35 38  0  0  0  0  0  0  0  0999 V2000
   47.0000   30.1030   45.8010 C   0  0  0  0  0  0  0  0  0  0  0  0
   47.1150   30.3130   47.1890 C   0  0  0  0  0  0  0  0  0  0  0  0
   46.2570   29.4260   47.7750 C   0  0  0  0  0  0  0  0  0  0  0  0
   45.6370   28.6990   46.8150 N   0  0  0  0  0  0  0  0  0  0  0  0
   46.0860   29.1070   45.6210 N   0  0  0  0  0  0  0  0  0  0  0  0
   47.8100   31.0770   47.4390 H   0  0  0  0  0  0  0  0  0  0  0  0
   46.1930   29.4230   48.8550 H   0  0  0  0  0  0  0  0  0  0  0  0
   44.6800   27.6860   47.1090 C   0  0  0  0  0  0  0  0  0  0  0  0
   44.9020   27.0920   48.3100 N   0  0  0  0  0  0  0  0  0  0  0  0
   44.0310   26.1070   48.6770 C   0  0  0  0  0  0  0  0  0  0  0  0
   42.9680   25.6780   47.9390 N   0  0  0  0  0  0  0  0  0  0  0  0
   42.7730   26.2850   46.7510 C   0  0  0  0  0  0  0  0  0  0  0  0
   41.7210   25.9280   45.9170 C   0  0  0  0  0  0  0  0  0  0  0  0
   41.5560   26.5770   44.7050 C   0  0  0  0  0  0  0  0  0  0  0  0
   40.7090   26.2480   44.0970 H   0  0  0  0  0  0  0  0  0  0  0  0
   42.4360   27.5900   44.3070 C   0  0  0  0  0  0  0  0  0  0  0  0
   42.2720   28.0750   43.3490 H   0  0  0  0  0  0  0  0  0  0  0  0
   43.4860   27.9570   45.1230 C   0  0  0  0  0  0  0  0  0  0  0  0
   43.6230   27.2890   46.3290 C   0  0  0  0  0  0  0  0  0  0  0  0
   47.6860   30.7470   44.2810 S   0  0  0  0  0  0  0  0  0  0  0  0
   47.2610   34.5110   42.8370 C   0  0  0  0  0  0  0  0  0  0  0  0
   47.7870   33.2310   43.0690 C   0  0  0  0  0  0  0  0  0  0  0  0
   47.1120   32.3650   43.9230 C   0  0  0  0  0  0  0  0  0  0  0  0
   45.9500   32.8200   44.4990 N   0  0  0  0  0  0  0  0  0  0  0  0
   45.4890   34.0530   44.2420 C   0  0  0  0  0  0  0  0  0  0  0  0
   46.1280   34.8840   43.4290 N   0  0  0  0  0  0  0  0  0  0  0  0
   48.7040   32.8270   42.6360 H   0  0  0  0  0  0  0  0  0  0  0  0
   44.5670   34.3760   44.7170 H   0  0  0  0  0  0  0  0  0  0  0  0
   48.1230   35.2870   41.9000 C   0  0  0  0  0  0  0  0  0  0  0  0
   47.9610   35.0280   40.8480 H   0  0  0  0  0  0  0  0  0  0  0  0
   47.8330   36.3570   42.0220 H   0  0  0  0  0  0  0  0  0  0  0  0
   49.5780   35.1860   42.2890 C   0  0  0  0  0  0  0  0  0  0  0  0
   50.0800   36.1080   41.8920 H   0  0  0  0  0  0  0  0  0  0  0  0
   50.1070   34.3290   41.8710 H   0  0  0  0  0  0  0  0  0  0  0  0
   49.6850   35.2520   43.3850 H   0  0  0  0  0  0  0  0  0  0  0  0
  1  2  1  0  0  0  0
  2  6  1  0  0  0  0
  2  3  2  0  0  0  0
  3  7  1  0  0  0  0
  4  8  1  0  0  0  0
  4  3  1  0  0  0  0
  5  1  2  0  0  0  0
  5  4  1  0  0  0  0
  8  9  1  0  0  0  0
  9 10  2  0  0  0  0
 11 10  1  0  0  0  0
 12 11  2  0  0  0  0
 13 12  1  0  0  0  0
 14 13  2  0  0  0  0
 15 14  1  0  0  0  0
 16 14  1  0  0  0  0
 16 18  2  0  0  0  0
 17 16  1  0  0  0  0
 18 19  1  0  0  0  0
 19 12  1  0  0  0  0
 19  8  2  0  0  0  0
 20  1  1  0  0  0  0
 21 22  2  0  0  0  0
 21 26  1  0  0  0  0
 22 23  1  0  0  0  0
 23 20  1  0  0  0  0
 23 24  2  0  0  0  0
 25 24  1  0  0  0  0
 25 28  1  0  0  0  0
 26 25  2  0  0  0  0
 27 22  1  0  0  0  0
 29 31  1  0  0  0  0
 29 32  1  0  0  0  0
 29 21  1  0  0  0  0
 30 29  1  0  0  0  0
 32 35  1  0  0  0  0
 33 32  1  0  0  0  0
 34 32  1  0  0  0  0
M  END
>  <minimizedAffinity>
-5.2185092

>  <minimizedRMSD>
1.77233863

$$$$
