
 OpenBabel03232520593D

 47 51  0  0  1  0  0  0  0  0999 V2000
   45.4760   32.8450   47.5020 C   0  0  0  0  0  0  0  0  0  0  0  0
   45.9520   32.6030   46.2520 C   0  0  0  0  0  0  0  0  0  0  0  0
   46.1370   31.2460   45.9540 C   0  0  0  0  0  0  0  0  0  0  0  0
   45.8680   30.2380   46.8220 N   0  0  0  0  0  0  0  0  0  0  0  0
   45.3840   30.5370   48.0860 C   0  0  0  0  0  0  0  0  0  0  0  0
   45.2000   31.8220   48.3940 N   0  0  0  0  0  0  0  0  0  0  0  0
   45.1020   29.5110   49.0130 N   0  0  0  0  0  0  0  0  0  0  0  0
   45.3010   33.8550   47.8360 H   0  0  0  0  0  0  0  0  0  0  0  0
   44.3560   28.8290   48.7250 H   0  0  0  0  0  0  0  0  0  0  0  0
   45.5970   29.4280   49.9290 H   0  0  0  0  0  0  0  0  0  0  0  0
   46.6790   30.5620   44.7950 C   0  0  0  0  0  0  0  0  0  0  0  0
   46.2300   29.8710   43.7140 C   0  0  0  0  0  0  0  0  0  0  0  0
   47.3500   29.4280   42.9860 C   0  0  0  0  0  0  0  0  0  0  0  0
   48.4080   29.8750   43.6620 N   0  0  0  0  0  0  0  0  0  0  0  0
   48.0440   30.5450   44.7280 N   0  0  0  0  0  0  0  0  0  0  0  0
   45.1590   29.7810   43.6000 H   0  0  0  0  0  0  0  0  0  0  0  0
   47.1790   28.8570   42.0890 H   0  0  0  0  0  0  0  0  0  0  0  0
   49.6890   29.5480   43.1080 C   0  0  0  0  0  0  0  0  0  0  0  0
   50.7410   30.1900   43.6720 N   0  0  0  0  0  0  0  0  0  0  0  0
   51.9880   29.9420   43.2130 C   0  0  0  0  0  3  0  0  0  0  0  0
   52.2590   29.0720   42.1990 N   0  0  0  0  0  0  0  0  0  0  0  0
   51.2060   28.4410   41.6480 C   0  0  0  0  0  0  0  0  0  0  0  0
   51.4030   27.5380   40.6080 C   0  0  0  0  0  3  0  0  0  0  0  0
   50.3190   26.8900   40.0420 C   0  0  0  0  0  0  0  0  0  0  0  0
   50.5240   26.1970   39.2360 H   0  0  0  0  0  0  0  0  0  0  0  0
   49.0400   27.1400   40.5080 C   0  0  0  0  0  0  0  0  0  0  0  0
   48.1910   26.6180   40.0490 H   0  0  0  0  0  0  0  0  0  0  0  0
   48.7930   28.0380   41.5490 C   0  0  0  0  0  3  0  0  0  0  0  0
   49.9100   28.6570   42.0790 C   0  0  0  0  0  0  0  0  0  0  0  0
   46.1900   33.5730   45.2390 C   0  0  2  0  0  0  0  0  0  0  0  0
   44.9670   34.6500   45.4930 C   0  0  0  0  0  0  0  0  0  0  0  0
   44.7230   35.5980   44.4400 C   0  0  0  0  0  0  0  0  0  0  0  0
   45.5270   35.5550   43.2130 C   0  0  1  0  0  0  0  0  0  0  0  0
   46.5880   34.5580   43.1410 C   0  0  0  0  0  0  0  0  0  0  0  0
   46.1490   33.3110   43.8700 C   0  0  0  0  0  0  0  0  0  0  0  0
   46.9990   34.2860   45.5760 H   0  0  0  0  0  0  0  0  0  0  0  0
   44.2890   34.7800   46.3270 H   0  0  0  0  0  0  0  0  0  0  0  0
   43.9490   36.3080   44.5640 H   0  0  0  0  0  0  0  0  0  0  0  0
   45.9420   36.5670   43.0170 H   0  0  0  0  0  0  0  0  0  0  0  0
   47.5870   34.9000   43.5280 H   0  0  0  0  0  0  0  0  0  0  0  0
   46.7950   34.3560   42.0480 H   0  0  0  0  0  0  0  0  0  0  0  0
   45.1920   32.9770   43.4120 H   0  0  0  0  0  0  0  0  0  0  0  0
   47.0040   32.6730   43.5230 H   0  0  0  0  0  0  0  0  0  0  0  0
   44.5110   35.3050   42.0590 C   0  0  0  0  0  0  0  0  0  0  0  0
   43.4410   34.5200   42.4480 F   0  0  0  0  0  0  0  0  0  0  0  0
   43.9770   36.5440   41.7210 F   0  0  0  0  0  0  0  0  0  0  0  0
   45.1790   34.8330   40.9440 F   0  0  0  0  0  0  0  0  0  0  0  0
  1  8  1  0  0  0  0
  1  6  1  0  0  0  0
  2  1  2  0  0  0  0
  3  2  1  0  0  0  0
  3  4  2  0  0  0  0
  4  5  1  0  0  0  0
  5  6  2  0  0  0  0
  5  7  1  0  0  0  0
  7 10  1  0  0  0  0
  9  7  1  0  0  0  0
 11  3  1  0  0  0  0
 12 11  1  0  0  0  0
 13 14  1  0  0  0  0
 13 12  2  0  0  0  0
 14 15  1  0  0  0  0
 15 11  2  0  0  0  0
 16 12  1  0  0  0  0
 17 13  1  0  0  0  0
 18 14  1  0  0  0  0
 18 19  1  0  0  0  0
 20 19  2  0  0  0  0
 21 20  1  0  0  0  0
 22 29  1  0  0  0  0
 22 21  2  0  0  0  0
 23 22  1  0  0  0  0
 24 26  1  0  0  0  0
 24 23  2  0  0  0  0
 25 24  1  0  0  0  0
 26 28  2  0  0  0  0
 27 26  1  0  0  0  0
 28 29  1  0  0  0  0
 29 18  2  0  0  0  0
 30 31  1  0  0  0  0
 30 36  1  1  0  0  0
 30  2  1  0  0  0  0
 31 37  1  0  0  0  0
 32 38  1  0  0  0  0
 32 31  2  0  0  0  0
 33 39  1  6  0  0  0
 33 32  1  0  0  0  0
 34 33  1  0  0  0  0
 34 40  1  0  0  0  0
 34 35  1  0  0  0  0
 35 30  1  0  0  0  0
 41 34  1  0  0  0  0
 42 35  1  0  0  0  0
 43 35  1  0  0  0  0
 44 45  1  0  0  0  0
 44 33  1  0  0  0  0
 46 44  1  0  0  0  0
 47 44  1  0  0  0  0
M  END
>  <minimizedAffinity>
-6.02065945

>  <minimizedRMSD>
0.236679748

$$$$
