
 OpenBabel03232520423D

 37 39  0  0  1  0  0  0  0  0999 V2000
   41.5710   35.2920   41.3510 S   0  0  0  0  0  0  0  0  0  0  0  0
   38.5960   33.2350   38.7310 N   0  0  0  0  0  0  0  0  0  0  0  0
   38.4080   34.0010   39.9270 C   0  0  0  0  0  0  0  0  0  0  0  0
   39.4610   33.6950   40.9760 C   0  0  0  0  0  0  0  0  0  0  0  0
   40.8050   33.9980   40.3790 C   0  0  1  0  0  0  0  0  0  0  0  0
   40.7480   34.3890   38.9250 C   0  0  0  0  0  0  0  0  0  0  0  0
   39.8960   33.4110   38.1360 C   0  0  1  0  0  0  0  0  0  0  0  0
   38.4560   32.2200   39.0110 H   0  0  0  0  0  0  0  0  0  0  0  0
   37.4380   33.7060   40.3530 H   0  0  0  0  0  0  0  0  0  0  0  0
   38.3760   35.0780   39.7710 H   0  0  0  0  0  0  0  0  0  0  0  0
   39.3360   32.6160   41.2280 H   0  0  0  0  0  0  0  0  0  0  0  0
   39.2260   34.2640   41.8900 H   0  0  0  0  0  0  0  0  0  0  0  0
   41.4010   33.0630   40.4370 H   0  0  0  0  0  0  0  0  0  0  0  0
   40.1960   35.3540   38.8860 H   0  0  0  0  0  0  0  0  0  0  0  0
   41.7570   34.4140   38.5230 H   0  0  0  0  0  0  0  0  0  0  0  0
   39.7290   33.9180   37.1470 H   0  0  0  0  0  0  0  0  0  0  0  0
   40.5940   32.1180   37.8400 C   0  0  0  0  0  0  0  0  0  0  0  0
   42.0480   32.3070   38.2460 C   0  0  0  0  0  0  0  0  0  0  0  0
   40.0420   31.0550   38.7700 C   0  0  0  0  0  0  0  0  0  0  0  0
   44.0320   35.5060   42.6250 C   0  0  0  0  0  0  0  0  0  0  0  0
   43.3410   35.0230   41.5150 C   0  0  0  0  0  0  0  0  0  0  0  0
   44.0530   34.3430   40.5700 C   0  0  0  0  0  0  0  0  0  0  0  0
   45.3920   34.1420   40.7070 N   0  0  0  0  0  0  0  0  0  0  0  0
   46.0350   34.6270   41.8040 C   0  0  0  0  0  0  0  0  0  0  0  0
   45.3560   35.3100   42.7650 N   0  0  0  0  0  0  0  0  0  0  0  0
   43.4660   36.0420   43.3680 H   0  0  0  0  0  0  0  0  0  0  0  0
   43.6150   33.9360   39.6840 H   0  0  0  0  0  0  0  0  0  0  0  0
   47.4640   34.4580   42.0310 C   0  0  0  0  0  0  0  0  0  0  0  0
   48.3180   35.5050   41.9440 C   0  0  0  0  0  0  0  0  0  0  0  0
   49.6780   35.3610   42.1560 C   0  0  0  0  0  0  0  0  0  0  0  0
   50.2060   34.1290   42.4670 C   0  0  0  0  0  0  0  0  0  0  0  0
   49.3200   33.0720   42.5520 C   0  0  0  0  0  0  0  0  0  0  0  0
   47.9950   33.2460   42.3380 N   0  0  0  0  0  0  0  0  0  0  0  0
   47.9510   36.5010   41.7000 H   0  0  0  0  0  0  0  0  0  0  0  0
   50.3700   36.1880   42.0890 H   0  0  0  0  0  0  0  0  0  0  0  0
   51.2390   33.9230   42.6470 H   0  0  0  0  0  0  0  0  0  0  0  0
   49.6550   32.0620   42.7930 H   0  0  0  0  0  0  0  0  0  0  0  0
  1 21  1  0  0  0  0
  2  8  1  0  0  0  0
  2  3  1  0  0  0  0
  3  9  1  0  0  0  0
  3  4  1  0  0  0  0
  4 11  1  0  0  0  0
  4 12  1  0  0  0  0
  5 13  1  1  0  0  0
  5  4  1  0  0  0  0
  5  1  1  0  0  0  0
  6  5  1  0  0  0  0
  7 16  1  6  0  0  0
  7  2  1  0  0  0  0
  7  6  1  0  0  0  0
 10  3  1  0  0  0  0
 14  6  1  0  0  0  0
 15  6  1  0  0  0  0
 17  7  1  0  0  0  0
 17 18  1  0  0  0  0
 17 19  1  0  0  0  0
 20 25  1  0  0  0  0
 20 26  1  0  0  0  0
 21 20  2  0  0  0  0
 22 23  2  0  0  0  0
 22 21  1  0  0  0  0
 23 24  1  0  0  0  0
 24 28  1  0  0  0  0
 24 25  2  0  0  0  0
 27 22  1  0  0  0  0
 28 33  1  0  0  0  0
 29 28  2  0  0  0  0
 29 30  1  0  0  0  0
 30 31  2  0  0  0  0
 31 32  1  0  0  0  0
 31 36  1  0  0  0  0
 32 37  1  0  0  0  0
 33 32  2  0  0  0  0
 34 29  1  0  0  0  0
 35 30  1  0  0  0  0
M  END
>  <minimizedAffinity>
-5.69558334

>  <minimizedRMSD>
0.748545706

$$$$
