
 OpenBabel03232521003D

 41 44  0  0  1  0  0  0  0  0999 V2000
   45.3510   32.8830   47.4710 C   0  0  0  0  0  0  0  0  0  0  0  0
   45.9140   32.6400   46.2580 C   0  0  0  0  0  0  0  0  0  0  0  0
   46.1980   31.2930   46.0100 C   0  0  0  0  0  0  0  0  0  0  0  0
   45.9400   30.2910   46.8890 N   0  0  0  0  0  0  0  0  0  0  0  0
   45.3640   30.6000   48.1120 C   0  0  0  0  0  0  0  0  0  0  0  0
   45.0870   31.8720   48.3720 N   0  0  0  0  0  0  0  0  0  0  0  0
   45.1030   29.5760   49.0630 N   0  0  0  0  0  0  0  0  0  0  0  0
   45.0960   33.8870   47.7690 H   0  0  0  0  0  0  0  0  0  0  0  0
   45.2070   29.7670   50.0890 H   0  0  0  0  0  0  0  0  0  0  0  0
   44.7990   28.5970   48.7940 H   0  0  0  0  0  0  0  0  0  0  0  0
   46.1520   33.6000   45.2360 C   0  0  2  0  0  0  0  0  0  0  0  0
   44.9470   34.6940   45.4860 C   0  0  0  0  0  0  0  0  0  0  0  0
   44.7050   35.6320   44.4250 C   0  0  0  0  0  0  0  0  0  0  0  0
   45.4940   35.5660   43.1920 C   0  0  1  0  0  0  0  0  0  0  0  0
   46.5520   34.5650   43.1280 C   0  0  0  0  0  0  0  0  0  0  0  0
   46.1080   33.3260   43.8700 C   0  0  0  0  0  0  0  0  0  0  0  0
   46.9660   34.3120   45.5650 H   0  0  0  0  0  0  0  0  0  0  0  0
   44.2820   34.8360   46.3290 H   0  0  0  0  0  0  0  0  0  0  0  0
   43.9400   36.3510   44.5510 H   0  0  0  0  0  0  0  0  0  0  0  0
   45.9220   36.5770   42.9970 H   0  0  0  0  0  0  0  0  0  0  0  0
   46.7990   34.3730   42.0550 H   0  0  0  0  0  0  0  0  0  0  0  0
   47.4510   34.9370   43.6580 H   0  0  0  0  0  0  0  0  0  0  0  0
   45.1640   32.9460   43.4260 H   0  0  0  0  0  0  0  0  0  0  0  0
   46.9480   32.6740   43.5160 H   0  0  0  0  0  0  0  0  0  0  0  0
   44.4690   35.3100   42.0470 C   0  0  0  0  0  0  0  0  0  0  0  0
   43.4040   34.5260   42.4530 F   0  0  0  0  0  0  0  0  0  0  0  0
   43.9370   36.5540   41.7130 F   0  0  0  0  0  0  0  0  0  0  0  0
   45.1310   34.8430   40.9300 F   0  0  0  0  0  0  0  0  0  0  0  0
   46.8550   30.6150   44.9070 C   0  0  0  0  0  0  0  0  0  0  0  0
   46.5300   29.8180   43.8590 C   0  0  0  0  0  0  0  0  0  0  0  0
   47.7130   29.4740   43.1900 C   0  0  0  0  0  0  0  0  0  0  0  0
   48.6920   30.0790   43.8640 N   0  0  0  0  0  0  0  0  0  0  0  0
   48.2130   30.7570   44.8800 N   0  0  0  0  0  0  0  0  0  0  0  0
   45.4890   29.5880   43.7120 H   0  0  0  0  0  0  0  0  0  0  0  0
   47.6910   28.8410   42.3200 H   0  0  0  0  0  0  0  0  0  0  0  0
   50.0800   29.9690   43.4860 C   0  0  0  0  0  0  0  0  0  0  0  0
   51.1010   29.3900   44.2120 C   0  0  0  0  0  3  0  0  0  0  0  0
   52.1940   29.5270   43.4650 N   0  0  0  0  0  0  0  0  0  0  0  0
   51.9010   30.1670   42.3060 C   0  0  0  0  0  3  0  0  0  0  0  0
   50.5940   30.4440   42.3130 N   0  0  0  0  0  0  0  0  0  0  0  0
   49.9960   30.9350   41.5830 H   0  0  0  0  0  0  0  0  0  0  0  0
  1  8  1  0  0  0  0
  1  6  1  0  0  0  0
  2  1  2  0  0  0  0
  3  2  1  0  0  0  0
  3  4  2  0  0  0  0
  4  5  1  0  0  0  0
  5  6  2  0  0  0  0
  5  7  1  0  0  0  0
  7  9  1  0  0  0  0
 10  7  1  0  0  0  0
 11 12  1  0  0  0  0
 11 17  1  1  0  0  0
 11  2  1  0  0  0  0
 12 18  1  0  0  0  0
 13 19  1  0  0  0  0
 13 12  2  0  0  0  0
 14 20  1  6  0  0  0
 14 13  1  0  0  0  0
 15 14  1  0  0  0  0
 15 22  1  0  0  0  0
 15 16  1  0  0  0  0
 16 11  1  0  0  0  0
 21 15  1  0  0  0  0
 23 16  1  0  0  0  0
 24 16  1  0  0  0  0
 25 26  1  0  0  0  0
 25 14  1  0  0  0  0
 27 25  1  0  0  0  0
 28 25  1  0  0  0  0
 29  3  1  0  0  0  0
 30 29  1  0  0  0  0
 31 30  2  0  0  0  0
 31 32  1  0  0  0  0
 32 33  1  0  0  0  0
 33 29  2  0  0  0  0
 34 30  1  0  0  0  0
 35 31  1  0  0  0  0
 36 32  1  0  0  0  0
 36 37  2  0  0  0  0
 38 37  1  0  0  0  0
 39 40  1  0  0  0  0
 39 38  2  0  0  0  0
 40 36  1  0  0  0  0
 41 40  1  0  0  0  0
M  END
>  <minimizedAffinity>
-5.69544649

>  <minimizedRMSD>
0.339014232

$$$$
