
 OpenBabel03232521003D

 41 44  0  0  1  0  0  0  0  0999 V2000
   45.3540   32.9140   47.5170 C   0  0  0  0  0  0  0  0  0  0  0  0
   45.9110   32.6560   46.3040 C   0  0  0  0  0  0  0  0  0  0  0  0
   46.1780   31.3050   46.0650 C   0  0  0  0  0  0  0  0  0  0  0  0
   45.9110   30.3120   46.9520 N   0  0  0  0  0  0  0  0  0  0  0  0
   45.3420   30.6360   48.1750 C   0  0  0  0  0  0  0  0  0  0  0  0
   45.0810   31.9130   48.4260 N   0  0  0  0  0  0  0  0  0  0  0  0
   45.0720   29.6230   49.1340 N   0  0  0  0  0  0  0  0  0  0  0  0
   45.1120   33.9230   47.8090 H   0  0  0  0  0  0  0  0  0  0  0  0
   45.1810   29.8190   50.1580 H   0  0  0  0  0  0  0  0  0  0  0  0
   44.7560   28.6450   48.8730 H   0  0  0  0  0  0  0  0  0  0  0  0
   46.1570   33.6060   45.2740 C   0  0  2  0  0  0  0  0  0  0  0  0
   44.9460   34.6990   45.5000 C   0  0  0  0  0  0  0  0  0  0  0  0
   44.7140   35.6250   44.4270 C   0  0  0  0  0  0  0  0  0  0  0  0
   45.5160   35.5490   43.2030 C   0  0  1  0  0  0  0  0  0  0  0  0
   46.5770   34.5490   43.1610 C   0  0  0  0  0  0  0  0  0  0  0  0
   46.1280   33.3170   43.9110 C   0  0  0  0  0  0  0  0  0  0  0  0
   46.9660   34.3240   45.6040 H   0  0  0  0  0  0  0  0  0  0  0  0
   44.2720   34.8490   46.3350 H   0  0  0  0  0  0  0  0  0  0  0  0
   43.9450   36.3440   44.5380 H   0  0  0  0  0  0  0  0  0  0  0  0
   45.9430   36.5590   43.0020 H   0  0  0  0  0  0  0  0  0  0  0  0
   46.8350   34.3470   42.0930 H   0  0  0  0  0  0  0  0  0  0  0  0
   47.4690   34.9290   43.6970 H   0  0  0  0  0  0  0  0  0  0  0  0
   45.1900   32.9300   43.4610 H   0  0  0  0  0  0  0  0  0  0  0  0
   46.9730   32.6640   43.5740 H   0  0  0  0  0  0  0  0  0  0  0  0
   44.5040   35.2780   42.0500 C   0  0  0  0  0  0  0  0  0  0  0  0
   43.4470   34.4780   42.4470 F   0  0  0  0  0  0  0  0  0  0  0  0
   43.9550   36.5140   41.7130 F   0  0  0  0  0  0  0  0  0  0  0  0
   45.1800   34.8210   40.9380 F   0  0  0  0  0  0  0  0  0  0  0  0
   46.8230   30.6110   44.9650 C   0  0  0  0  0  0  0  0  0  0  0  0
   46.4810   29.8420   43.9010 C   0  0  0  0  0  0  0  0  0  0  0  0
   47.6600   29.4530   43.2490 C   0  0  0  0  0  0  0  0  0  0  0  0
   48.6530   30.0040   43.9480 N   0  0  0  0  0  0  0  0  0  0  0  0
   48.1870   30.6900   44.9640 N   0  0  0  0  0  0  0  0  0  0  0  0
   45.4340   29.6630   43.7320 H   0  0  0  0  0  0  0  0  0  0  0  0
   47.6250   28.8330   42.3710 H   0  0  0  0  0  0  0  0  0  0  0  0
   50.0410   29.8350   43.5930 C   0  0  0  0  0  0  0  0  0  0  0  0
   50.9350   28.9290   44.1250 C   0  0  0  0  0  3  0  0  0  0  0  0
   52.0860   29.1460   43.4910 N   0  0  0  0  0  0  0  0  0  0  0  0
   51.9480   30.1480   42.5870 C   0  0  0  0  0  3  0  0  0  0  0  0
   50.6850   30.5790   42.6450 N   0  0  0  0  0  0  0  0  0  0  0  0
   50.1990   31.3470   42.0930 H   0  0  0  0  0  0  0  0  0  0  0  0
  1  8  1  0  0  0  0
  1  6  1  0  0  0  0
  2  1  2  0  0  0  0
  3  2  1  0  0  0  0
  3  4  2  0  0  0  0
  4  5  1  0  0  0  0
  5  6  2  0  0  0  0
  5  7  1  0  0  0  0
  7  9  1  0  0  0  0
 10  7  1  0  0  0  0
 11 12  1  0  0  0  0
 11 17  1  1  0  0  0
 11  2  1  0  0  0  0
 12 18  1  0  0  0  0
 13 19  1  0  0  0  0
 13 12  2  0  0  0  0
 14 20  1  6  0  0  0
 14 13  1  0  0  0  0
 15 14  1  0  0  0  0
 15 22  1  0  0  0  0
 15 16  1  0  0  0  0
 16 11  1  0  0  0  0
 21 15  1  0  0  0  0
 23 16  1  0  0  0  0
 24 16  1  0  0  0  0
 25 26  1  0  0  0  0
 25 14  1  0  0  0  0
 27 25  1  0  0  0  0
 28 25  1  0  0  0  0
 29  3  1  0  0  0  0
 30 29  1  0  0  0  0
 31 30  2  0  0  0  0
 31 32  1  0  0  0  0
 32 33  1  0  0  0  0
 33 29  2  0  0  0  0
 34 30  1  0  0  0  0
 35 31  1  0  0  0  0
 36 32  1  0  0  0  0
 36 37  2  0  0  0  0
 38 37  1  0  0  0  0
 39 40  1  0  0  0  0
 39 38  2  0  0  0  0
 40 36  1  0  0  0  0
 41 40  1  0  0  0  0
M  END
>  <minimizedAffinity>
-5.69901371

>  <minimizedRMSD>
0.192948997

$$$$
