
 OpenBabel03232520503D

 26 27  0  0  1  0  0  0  0  0999 V2000
   46.7250   33.1410   45.9320 C   0  0  2  0  0  0  0  0  0  0  0  0
   45.5140   33.9490   45.5630 C   0  0  0  0  0  0  0  0  0  0  0  0
   45.2840   34.2940   44.1750 C   0  0  0  0  0  0  0  0  0  0  0  0
   46.2490   33.8330   43.1760 C   0  0  2  0  0  0  0  0  0  0  0  0
   47.4990   33.2280   43.6710 C   0  0  0  0  0  0  0  0  0  0  0  0
   47.1550   32.2770   44.7920 C   0  0  0  0  0  0  0  0  0  0  0  0
   47.5320   33.8750   46.1480 H   0  0  0  0  0  0  0  0  0  0  0  0
   44.7420   34.3410   46.1740 H   0  0  0  0  0  0  0  0  0  0  0  0
   44.4150   34.8750   43.9060 H   0  0  0  0  0  0  0  0  0  0  0  0
   45.7160   33.0210   42.5950 H   0  0  0  0  0  0  0  0  0  0  0  0
   47.9990   32.7270   42.8180 H   0  0  0  0  0  0  0  0  0  0  0  0
   48.1730   34.0090   44.0880 H   0  0  0  0  0  0  0  0  0  0  0  0
   46.3180   31.6140   44.4780 H   0  0  0  0  0  0  0  0  0  0  0  0
   48.0700   31.7380   45.0350 H   0  0  0  0  0  0  0  0  0  0  0  0
   45.1350   32.3290   47.6580 C   0  0  0  0  0  0  0  0  0  0  0  0
   46.4630   32.3910   47.1830 C   0  0  0  0  0  0  0  0  0  0  0  0
   47.4810   31.7410   47.9360 C   0  0  0  0  0  0  0  0  0  0  0  0
   47.1140   31.0940   49.0720 N   0  0  0  0  0  0  0  0  0  0  0  0
   45.8280   31.0580   49.4930 C   0  0  0  0  0  0  0  0  0  0  0  0
   44.8480   31.6710   48.7890 N   0  0  0  0  0  0  0  0  0  0  0  0
   44.3130   32.7980   47.1400 H   0  0  0  0  0  0  0  0  0  0  0  0
   48.4730   31.8030   47.5540 H   0  0  0  0  0  0  0  0  0  0  0  0
   45.7380   30.4930   50.4200 H   0  0  0  0  0  0  0  0  0  0  0  0
   46.4580   34.9310   42.1480 C   0  0  0  0  0  0  0  0  0  0  0  0
   46.0140   34.3280   40.8100 C   0  0  0  0  0  0  0  0  0  0  0  0
   47.9660   35.1530   41.9950 C   0  0  0  0  0  0  0  0  0  0  0  0
  1  7  1  1  0  0  0
  1 16  1  0  0  0  0
  2  1  1  0  0  0  0
  2  8  1  0  0  0  0
  3  2  2  0  0  0  0
  4 10  1  6  0  0  0
  4  5  1  0  0  0  0
  4  3  1  0  0  0  0
  5 12  1  0  0  0  0
  5  6  1  0  0  0  0
  6 14  1  0  0  0  0
  6  1  1  0  0  0  0
  9  3  1  0  0  0  0
 11  5  1  0  0  0  0
 13  6  1  0  0  0  0
 15 20  1  0  0  0  0
 16 15  2  0  0  0  0
 16 17  1  0  0  0  0
 17 18  2  0  0  0  0
 18 19  1  0  0  0  0
 19 23  1  0  0  0  0
 20 19  2  0  0  0  0
 21 15  1  0  0  0  0
 22 17  1  0  0  0  0
 24  4  1  0  0  0  0
 25 24  1  0  0  0  0
 26 24  1  0  0  0  0
M  END
>  <minimizedAffinity>
-4.75716686

>  <minimizedRMSD>
2.03257394

$$$$
