
 OpenBabel03232519113D

 18 19  0  0  0  0  0  0  0  0999 V2000
   45.5330   34.6460   43.9710 C   0  0  0  0  0  0  0  0  0  0  0  0
   46.5500   34.3350   43.0370 C   0  0  0  0  0  0  0  0  0  0  0  0
   47.5180   33.3650   43.3690 C   0  0  0  0  0  0  0  0  0  0  0  0
   47.4040   32.7790   44.5930 N   0  0  0  0  0  0  0  0  0  0  0  0
   46.4310   33.0960   45.4510 C   0  0  0  0  0  0  0  0  0  0  0  0
   45.4950   34.0210   45.1570 N   0  0  0  0  0  0  0  0  0  0  0  0
   46.5950   34.8310   42.0730 H   0  0  0  0  0  0  0  0  0  0  0  0
   48.3090   33.1020   42.6810 H   0  0  0  0  0  0  0  0  0  0  0  0
   46.3360   32.4440   46.7680 C   0  0  0  0  0  0  0  0  0  0  0  0
   47.3720   31.5550   47.1410 C   0  0  0  0  0  0  0  0  0  0  0  0
   46.7750   31.0240   48.8500 S   0  0  0  0  0  0  0  0  0  0  0  0
   45.2490   32.1290   48.6840 C   0  0  0  0  0  0  0  0  0  0  0  0
   45.3770   32.5890   47.6770 N   0  0  0  0  0  0  0  0  0  0  0  0
   48.2350   31.2460   46.6520 H   0  0  0  0  0  0  0  0  0  0  0  0
   44.2910   32.4020   49.3530 H   0  0  0  0  0  0  0  0  0  0  0  0
   44.5300   35.6640   43.6050 C   0  0  0  0  0  0  0  0  0  0  0  0
   45.1820   37.0160   43.4340 C   0  0  0  0  0  0  0  0  0  0  0  0
   43.7770   35.3000   42.3440 C   0  0  0  0  0  0  0  0  0  0  0  0
  1  6  1  0  0  0  0
  2  3  1  0  0  0  0
  2  1  2  0  0  0  0
  3  4  2  0  0  0  0
  4  5  1  0  0  0  0
  5  9  1  0  0  0  0
  6  5  2  0  0  0  0
  7  2  1  0  0  0  0
  8  3  1  0  0  0  0
  9 10  2  0  0  0  0
  9 13  1  0  0  0  0
 10 11  1  0  0  0  0
 12 11  1  0  0  0  0
 12 15  1  0  0  0  0
 13 12  2  0  0  0  0
 14 10  1  0  0  0  0
 16  1  1  0  0  0  0
 17 16  1  0  0  0  0
 18 16  1  0  0  0  0
M  END
>  <minimizedAffinity>
-4.19087887

>  <minimizedRMSD>
1.64080775

$$$$
