
 OpenBabel03232521003D

 41 44  0  0  1  0  0  0  0  0999 V2000
   45.3500   32.8690   47.4620 C   0  0  0  0  0  0  0  0  0  0  0  0
   45.9190   32.6320   46.2500 C   0  0  0  0  0  0  0  0  0  0  0  0
   46.2100   31.2880   46.0000 C   0  0  0  0  0  0  0  0  0  0  0  0
   45.9540   30.2820   46.8760 N   0  0  0  0  0  0  0  0  0  0  0  0
   45.3720   30.5850   48.0980 C   0  0  0  0  0  0  0  0  0  0  0  0
   45.0880   31.8550   48.3600 N   0  0  0  0  0  0  0  0  0  0  0  0
   45.1130   29.5580   49.0460 N   0  0  0  0  0  0  0  0  0  0  0  0
   45.0900   33.8710   47.7610 H   0  0  0  0  0  0  0  0  0  0  0  0
   45.2130   29.7470   50.0720 H   0  0  0  0  0  0  0  0  0  0  0  0
   44.8150   28.5780   48.7740 H   0  0  0  0  0  0  0  0  0  0  0  0
   46.1550   33.5950   45.2310 C   0  0  2  0  0  0  0  0  0  0  0  0
   44.9490   34.6880   45.4850 C   0  0  0  0  0  0  0  0  0  0  0  0
   44.7060   35.6280   44.4260 C   0  0  0  0  0  0  0  0  0  0  0  0
   45.4950   35.5680   43.1940 C   0  0  1  0  0  0  0  0  0  0  0  0
   46.5540   34.5670   43.1260 C   0  0  0  0  0  0  0  0  0  0  0  0
   46.1100   33.3250   43.8640 C   0  0  0  0  0  0  0  0  0  0  0  0
   46.9690   34.3070   45.5620 H   0  0  0  0  0  0  0  0  0  0  0  0
   44.2840   34.8270   46.3290 H   0  0  0  0  0  0  0  0  0  0  0  0
   43.9400   36.3460   44.5560 H   0  0  0  0  0  0  0  0  0  0  0  0
   45.9210   36.5800   43.0020 H   0  0  0  0  0  0  0  0  0  0  0  0
   46.8000   34.3790   42.0520 H   0  0  0  0  0  0  0  0  0  0  0  0
   47.4530   34.9380   43.6570 H   0  0  0  0  0  0  0  0  0  0  0  0
   45.1670   32.9460   43.4190 H   0  0  0  0  0  0  0  0  0  0  0  0
   46.9510   32.6750   43.5080 H   0  0  0  0  0  0  0  0  0  0  0  0
   44.4700   35.3150   42.0480 C   0  0  0  0  0  0  0  0  0  0  0  0
   43.4020   34.5330   42.4530 F   0  0  0  0  0  0  0  0  0  0  0  0
   43.9410   36.5600   41.7140 F   0  0  0  0  0  0  0  0  0  0  0  0
   45.1300   34.8450   40.9310 F   0  0  0  0  0  0  0  0  0  0  0  0
   46.8740   30.6150   44.8970 C   0  0  0  0  0  0  0  0  0  0  0  0
   46.5570   29.8090   43.8540 C   0  0  0  0  0  0  0  0  0  0  0  0
   47.7430   29.4800   43.1820 C   0  0  0  0  0  0  0  0  0  0  0  0
   48.7160   30.1020   43.8510 N   0  0  0  0  0  0  0  0  0  0  0  0
   48.2290   30.7770   44.8660 N   0  0  0  0  0  0  0  0  0  0  0  0
   45.5190   29.5630   43.7100 H   0  0  0  0  0  0  0  0  0  0  0  0
   47.7280   28.8440   42.3150 H   0  0  0  0  0  0  0  0  0  0  0  0
   50.1040   30.0120   43.4690 C   0  0  0  0  0  0  0  0  0  0  0  0
   50.6800   30.4690   42.3010 C   0  0  0  0  0  3  0  0  0  0  0  0
   51.9720   30.1650   42.3960 N   0  0  0  0  0  0  0  0  0  0  0  0
   52.2280   29.5390   43.5720 C   0  0  0  0  0  3  0  0  0  0  0  0
   51.0760   29.4410   44.2400 N   0  0  0  0  0  0  0  0  0  0  0  0
   50.8720   29.0150   45.1940 H   0  0  0  0  0  0  0  0  0  0  0  0
  1  8  1  0  0  0  0
  1  6  1  0  0  0  0
  2  1  2  0  0  0  0
  3  2  1  0  0  0  0
  3  4  2  0  0  0  0
  4  5  1  0  0  0  0
  5  6  2  0  0  0  0
  5  7  1  0  0  0  0
  7  9  1  0  0  0  0
 10  7  1  0  0  0  0
 11 12  1  0  0  0  0
 11 17  1  1  0  0  0
 11  2  1  0  0  0  0
 12 18  1  0  0  0  0
 13 19  1  0  0  0  0
 13 12  2  0  0  0  0
 14 20  1  6  0  0  0
 14 13  1  0  0  0  0
 15 14  1  0  0  0  0
 15 22  1  0  0  0  0
 15 16  1  0  0  0  0
 16 11  1  0  0  0  0
 21 15  1  0  0  0  0
 23 16  1  0  0  0  0
 24 16  1  0  0  0  0
 25 26  1  0  0  0  0
 25 14  1  0  0  0  0
 27 25  1  0  0  0  0
 28 25  1  0  0  0  0
 29  3  1  0  0  0  0
 30 29  1  0  0  0  0
 31 32  1  0  0  0  0
 31 30  2  0  0  0  0
 32 33  1  0  0  0  0
 33 29  2  0  0  0  0
 34 30  1  0  0  0  0
 35 31  1  0  0  0  0
 36 32  1  0  0  0  0
 36 40  1  0  0  0  0
 37 38  1  0  0  0  0
 37 36  2  0  0  0  0
 38 39  2  0  0  0  0
 39 40  1  0  0  0  0
 40 41  1  0  0  0  0
M  END
>  <minimizedAffinity>
-5.700737

>  <minimizedRMSD>
0.406616569

$$$$
