
 OpenBabel03232519593D

 26 28  0  0  1  0  0  0  0  0999 V2000
   45.6230   34.6290   42.0950 N   0  0  0  0  0  0  0  0  0  0  0  0
   44.4720   35.2230   42.2440 C   0  0  0  0  0  0  0  0  0  0  0  0
   44.2690   35.4680   43.6170 C   0  0  0  0  0  0  0  0  0  0  0  0
   45.3370   34.9960   44.2550 N   0  0  0  0  0  0  0  0  0  0  0  0
   46.1800   34.4770   43.3320 C   0  0  0  0  0  0  0  0  0  0  0  0
   43.4650   35.9290   44.1750 H   0  0  0  0  0  0  0  0  0  0  0  0
   47.1250   34.0320   43.6140 H   0  0  0  0  0  0  0  0  0  0  0  0
   47.5770   34.6870   40.7240 C   0  0  0  0  0  0  0  0  0  0  0  0
   46.2330   34.2020   40.9190 C   0  0  0  0  0  0  0  0  0  0  0  0
   45.7340   33.3920   39.9340 C   0  0  0  0  0  0  0  0  0  0  0  0
   46.5030   33.0950   38.8580 N   0  0  0  0  0  0  0  0  0  0  0  0
   47.7470   33.5560   38.6980 C   0  0  0  0  0  0  0  0  0  0  0  0
   48.2830   34.3550   39.6350 N   0  0  0  0  0  0  0  0  0  0  0  0
   48.1140   35.3350   41.4080 H   0  0  0  0  0  0  0  0  0  0  0  0
   44.7250   33.0380   40.0970 H   0  0  0  0  0  0  0  0  0  0  0  0
   48.2380   33.2330   37.7860 H   0  0  0  0  0  0  0  0  0  0  0  0
   43.4100   35.6780   41.3330 C   0  0  2  0  0  0  0  0  0  0  0  0
   41.9710   35.5760   41.7450 C   0  0  0  0  0  0  0  0  0  0  0  0
   42.5060   34.6700   40.6830 C   0  0  1  0  0  0  0  0  0  0  0  0
   43.6850   36.5930   40.7800 H   0  0  0  0  0  0  0  0  0  0  0  0
   41.6170   35.0630   42.6300 H   0  0  0  0  0  0  0  0  0  0  0  0
   41.2580   36.3770   41.4100 H   0  0  0  0  0  0  0  0  0  0  0  0
   42.7640   33.6130   40.9680 H   0  0  0  0  0  0  0  0  0  0  0  0
   41.9120   34.7850   39.3470 C   0  0  0  0  0  0  0  0  0  0  0  0
   40.4560   35.2640   39.4170 C   0  0  0  0  0  0  0  0  0  0  0  0
   41.8980   33.5510   38.5030 C   0  0  0  0  0  0  0  0  0  0  0  0
  1  2  1  0  0  0  0
  1  5  1  0  0  0  0
  2  3  2  0  0  0  0
  3  6  1  0  0  0  0
  3  4  1  0  0  0  0
  5  7  1  0  0  0  0
  5  4  2  0  0  0  0
  8  9  1  0  0  0  0
  8 14  1  0  0  0  0
  9  1  1  0  0  0  0
 10 15  1  0  0  0  0
 10  9  2  0  0  0  0
 11 10  1  0  0  0  0
 12 11  2  0  0  0  0
 12 13  1  0  0  0  0
 13  8  2  0  0  0  0
 16 12  1  0  0  0  0
 17 20  1  6  0  0  0
 17 18  1  0  0  0  0
 17  2  1  0  0  0  0
 18 21  1  0  0  0  0
 19 23  1  1  0  0  0
 19 17  1  0  0  0  0
 19 18  1  0  0  0  0
 22 18  1  0  0  0  0
 24 25  1  0  0  0  0
 24 19  1  0  0  0  0
 26 24  1  0  0  0  0
M  END
>  <minimizedAffinity>
-4.44005537

>  <minimizedRMSD>
6.62524796

$$$$
