
 OpenBabel03232520523D

 29 30  0  0  1  0  0  0  0  0999 V2000
   46.0760   34.0730   43.8550 C   0  0  2  0  0  0  0  0  0  0  0  0
   44.8760   34.9520   44.0310 C   0  0  0  0  0  0  0  0  0  0  0  0
   44.3010   35.5360   42.8570 C   0  0  0  0  0  0  0  0  0  0  0  0
   44.8670   35.2770   41.5380 C   0  0  1  0  0  0  0  0  0  0  0  0
   46.1030   34.4680   41.4800 C   0  0  0  0  0  0  0  0  0  0  0  0
   46.0530   33.3860   42.5200 C   0  0  0  0  0  0  0  0  0  0  0  0
   46.9750   34.7600   43.8470 H   0  0  0  0  0  0  0  0  0  0  0  0
   44.2840   35.2890   44.8720 H   0  0  0  0  0  0  0  0  0  0  0  0
   43.4530   36.1710   42.8750 H   0  0  0  0  0  0  0  0  0  0  0  0
   45.0570   36.2530   41.0420 H   0  0  0  0  0  0  0  0  0  0  0  0
   46.2170   34.0370   40.4720 H   0  0  0  0  0  0  0  0  0  0  0  0
   47.0020   35.0680   41.6970 H   0  0  0  0  0  0  0  0  0  0  0  0
   45.1900   32.7330   42.3760 H   0  0  0  0  0  0  0  0  0  0  0  0
   47.0410   32.8500   42.4350 H   0  0  0  0  0  0  0  0  0  0  0  0
   45.5650   33.4960   46.1690 C   0  0  0  0  0  0  0  0  0  0  0  0
   46.2460   33.1990   45.0040 C   0  0  0  0  0  0  0  0  0  0  0  0
   47.0710   32.0820   45.0200 C   0  0  0  0  0  0  0  0  0  0  0  0
   47.1900   31.3350   46.1360 N   0  0  0  0  0  0  0  0  0  0  0  0
   46.5090   31.6460   47.2780 C   0  0  0  0  0  0  0  0  0  0  0  0
   45.6930   32.7350   47.2880 N   0  0  0  0  0  0  0  0  0  0  0  0
   44.8870   34.3180   46.3430 H   0  0  0  0  0  0  0  0  0  0  0  0
   47.6140   31.8160   44.1440 H   0  0  0  0  0  0  0  0  0  0  0  0
   46.6570   30.8060   48.4950 C   0  0  0  0  0  0  0  0  0  0  0  0
   47.9680   31.0240   49.1780 C   0  0  0  0  0  0  0  0  0  0  0  0
   45.5640   31.1910   49.5010 C   0  0  0  0  0  0  0  0  0  0  0  0
   43.7770   34.6170   40.6750 C   0  0  0  0  0  0  0  0  0  0  0  0
   42.8970   33.8660   41.4090 F   0  0  0  0  0  0  0  0  0  0  0  0
   43.0350   35.6470   40.0850 F   0  0  0  0  0  0  0  0  0  0  0  0
   44.3680   33.8940   39.6500 F   0  0  0  0  0  0  0  0  0  0  0  0
  1  7  1  6  0  0  0
  1  2  1  0  0  0  0
  1 16  1  0  0  0  0
  2  8  1  0  0  0  0
  3  9  1  0  0  0  0
  3  2  2  0  0  0  0
  4 10  1  6  0  0  0
  4  3  1  0  0  0  0
  5  4  1  0  0  0  0
  5 12  1  0  0  0  0
  5  6  1  0  0  0  0
  6  1  1  0  0  0  0
 11  5  1  0  0  0  0
 13  6  1  0  0  0  0
 14  6  1  0  0  0  0
 15 21  1  0  0  0  0
 15 20  1  0  0  0  0
 16 17  1  0  0  0  0
 16 15  2  0  0  0  0
 17 18  2  0  0  0  0
 18 19  1  0  0  0  0
 19 20  2  0  0  0  0
 19 23  1  0  0  0  0
 22 17  1  0  0  0  0
 23 24  1  0  0  0  0
 23 25  1  0  0  0  0
 26 27  1  0  0  0  0
 26  4  1  0  0  0  0
 28 26  1  0  0  0  0
 29 26  1  0  0  0  0
M  END
>  <minimizedAffinity>
-5.21085167

>  <minimizedRMSD>
1.76642406

$$$$
