
 OpenBabel03232520403D

 25 27  0  0  0  0  0  0  0  0999 V2000
   43.9820   35.5340   42.7620 C   0  0  0  0  0  0  0  0  0  0  0  0
   43.2730   35.0920   41.6160 C   0  0  0  0  0  0  0  0  0  0  0  0
   43.9640   34.4320   40.6160 C   0  0  0  0  0  0  0  0  0  0  0  0
   45.3040   34.2260   40.7610 N   0  0  0  0  0  0  0  0  0  0  0  0
   45.9510   34.6680   41.8830 C   0  0  0  0  0  0  0  0  0  0  0  0
   45.3030   35.3100   42.8640 N   0  0  0  0  0  0  0  0  0  0  0  0
   43.4310   36.0550   43.5500 H   0  0  0  0  0  0  0  0  0  0  0  0
   43.4350   34.0900   39.7370 H   0  0  0  0  0  0  0  0  0  0  0  0
   47.3930   34.4630   42.0710 C   0  0  0  0  0  0  0  0  0  0  0  0
   48.2610   35.5110   41.9410 C   0  0  0  0  0  0  0  0  0  0  0  0
   49.6280   35.3420   42.1150 C   0  0  0  0  0  0  0  0  0  0  0  0
   50.1500   34.0900   42.4280 C   0  0  0  0  0  0  0  0  0  0  0  0
   49.2340   33.0610   42.5490 C   0  0  0  0  0  0  0  0  0  0  0  0
   47.9110   33.2480   42.3760 N   0  0  0  0  0  0  0  0  0  0  0  0
   47.8300   36.4730   41.6980 H   0  0  0  0  0  0  0  0  0  0  0  0
   50.2860   36.1850   42.0060 H   0  0  0  0  0  0  0  0  0  0  0  0
   51.1990   33.9070   42.5720 H   0  0  0  0  0  0  0  0  0  0  0  0
   49.5100   32.0490   42.7870 H   0  0  0  0  0  0  0  0  0  0  0  0
   41.4930   35.3890   41.4690 S   0  0  0  0  0  0  0  0  0  0  0  0
   41.0170   35.0620   39.7810 C   0  0  0  0  0  0  0  0  0  0  0  0
   41.1010   35.8160   38.6720 N   0  0  0  0  0  0  0  0  0  0  0  0
   40.6320   35.1780   37.6420 O   0  0  0  0  0  0  0  0  0  0  0  0
   40.2160   33.9780   38.0220 C   0  0  0  0  0  0  0  0  0  0  0  0
   39.7660   33.0960   37.5870 H   0  0  0  0  0  0  0  0  0  0  0  0
   40.4540   33.8940   39.3620 N   0  0  0  0  0  0  0  0  0  0  0  0
  1  6  1  0  0  0  0
  1  7  1  0  0  0  0
  2  1  2  0  0  0  0
  3  4  2  0  0  0  0
  3  2  1  0  0  0  0
  4  5  1  0  0  0  0
  5  9  1  0  0  0  0
  5  6  2  0  0  0  0
  8  3  1  0  0  0  0
  9 14  1  0  0  0  0
 10  9  2  0  0  0  0
 10 11  1  0  0  0  0
 11 12  2  0  0  0  0
 12 13  1  0  0  0  0
 12 17  1  0  0  0  0
 13 18  1  0  0  0  0
 14 13  2  0  0  0  0
 15 10  1  0  0  0  0
 16 11  1  0  0  0  0
 19  2  1  0  0  0  0
 20 19  1  0  0  0  0
 21 20  2  0  0  0  0
 22 23  1  0  0  0  0
 22 21  1  0  0  0  0
 23 25  2  0  0  0  0
 24 23  1  0  0  0  0
 25 20  1  0  0  0  0
M  END
>  <minimizedAffinity>
-5.18484354

>  <minimizedRMSD>
0.484712452

$$$$
