
 OpenBabel03232520423D

 38 40  0  0  1  0  0  0  0  0999 V2000
   41.6840   35.2180   40.5450 S   0  0  0  0  0  0  0  0  0  0  0  0
   38.5410   32.1190   39.9320 N   0  0  0  0  0  0  0  0  0  0  0  0
   38.4350   33.5550   39.9060 C   0  0  0  0  0  0  0  0  0  0  0  0
   39.2740   34.1820   40.9970 C   0  0  0  0  0  0  0  0  0  0  0  0
   40.6960   33.7480   40.8070 C   0  0  1  0  0  0  0  0  0  0  0  0
   40.8920   32.7740   39.6730 C   0  0  0  0  0  0  0  0  0  0  0  0
   39.8840   31.6390   39.7650 C   0  0  2  0  0  0  0  0  0  0  0  0
   37.8070   31.6290   39.4280 H   0  0  0  0  0  0  0  0  0  0  0  0
   37.3560   33.7840   40.0640 H   0  0  0  0  0  0  0  0  0  0  0  0
   38.7300   34.0250   38.9630 H   0  0  0  0  0  0  0  0  0  0  0  0
   39.1310   35.2900   40.8850 H   0  0  0  0  0  0  0  0  0  0  0  0
   38.8460   33.9300   41.9790 H   0  0  0  0  0  0  0  0  0  0  0  0
   40.9520   33.1670   41.7200 H   0  0  0  0  0  0  0  0  0  0  0  0
   40.6780   33.3410   38.7390 H   0  0  0  0  0  0  0  0  0  0  0  0
   41.9020   32.3720   39.7520 H   0  0  0  0  0  0  0  0  0  0  0  0
   40.1900   30.9750   40.5860 H   0  0  0  0  0  0  0  0  0  0  0  0
   39.9810   30.8560   38.4490 C   0  0  0  0  0  0  0  0  0  0  0  0
   41.1480   31.3340   37.6190 C   0  0  0  0  0  0  0  0  0  0  0  0
   38.7220   31.0270   37.6340 C   0  0  0  0  0  0  0  0  0  0  0  0
   40.1740   29.3860   38.7110 C   0  0  0  0  0  0  0  0  0  0  0  0
   44.0290   35.5340   42.0020 C   0  0  0  0  0  0  0  0  0  0  0  0
   43.4150   34.9260   40.9020 C   0  0  0  0  0  0  0  0  0  0  0  0
   44.1730   34.1090   40.1130 C   0  0  0  0  0  0  0  0  0  0  0  0
   45.4890   33.9020   40.4060 N   0  0  0  0  0  0  0  0  0  0  0  0
   46.0590   34.4990   41.4720 C   0  0  0  0  0  0  0  0  0  0  0  0
   45.3310   35.3220   42.2800 N   0  0  0  0  0  0  0  0  0  0  0  0
   43.4370   36.1870   42.6380 H   0  0  0  0  0  0  0  0  0  0  0  0
   43.7690   33.6030   39.2460 H   0  0  0  0  0  0  0  0  0  0  0  0
   47.4530   34.3220   41.8410 C   0  0  0  0  0  0  0  0  0  0  0  0
   48.3090   35.3730   41.8820 C   0  0  0  0  0  0  0  0  0  0  0  0
   49.6440   35.2270   42.2310 C   0  0  0  0  0  0  0  0  0  0  0  0
   50.1420   33.9820   42.5490 C   0  0  0  0  0  0  0  0  0  0  0  0
   49.2480   32.9170   42.5010 C   0  0  0  0  0  0  0  0  0  0  0  0
   47.9620   33.1090   42.1570 N   0  0  0  0  0  0  0  0  0  0  0  0
   47.9300   36.3570   41.6350 H   0  0  0  0  0  0  0  0  0  0  0  0
   50.2570   36.1330   42.2370 H   0  0  0  0  0  0  0  0  0  0  0  0
   51.1890   33.8680   42.8230 H   0  0  0  0  0  0  0  0  0  0  0  0
   49.6420   31.9360   42.7520 H   0  0  0  0  0  0  0  0  0  0  0  0
  1  5  1  0  0  0  0
  1 22  1  0  0  0  0
  3  2  1  0  0  0  0
  3  9  1  0  0  0  0
  3  4  1  0  0  0  0
  4 12  1  0  0  0  0
  5  4  1  0  0  0  0
  5 13  1  1  0  0  0
  6 15  1  0  0  0  0
  6  7  1  0  0  0  0
  6  5  1  0  0  0  0
  7  2  1  0  0  0  0
  7 16  1  1  0  0  0
  8  2  1  0  0  0  0
 10  3  1  0  0  0  0
 11  4  1  0  0  0  0
 14  6  1  0  0  0  0
 17 20  1  0  0  0  0
 17  7  1  0  0  0  0
 18 17  1  0  0  0  0
 19 17  1  0  0  0  0
 21 26  1  0  0  0  0
 21 27  1  0  0  0  0
 22 21  2  0  0  0  0
 23 24  2  0  0  0  0
 23 22  1  0  0  0  0
 24 25  1  0  0  0  0
 25 29  1  0  0  0  0
 25 26  2  0  0  0  0
 28 23  1  0  0  0  0
 29 30  2  0  0  0  0
 29 34  1  0  0  0  0
 30 31  1  0  0  0  0
 31 36  1  0  0  0  0
 31 32  2  0  0  0  0
 32 37  1  0  0  0  0
 33 32  1  0  0  0  0
 33 38  1  0  0  0  0
 34 33  2  0  0  0  0
 35 30  1  0  0  0  0
M  END
>  <minimizedAffinity>
-5.44974375

>  <minimizedRMSD>
2.60035563

$$$$
