
 OpenBabel03232521003D

 41 44  0  0  1  0  0  0  0  0999 V2000
   45.3230   32.8880   47.4970 C   0  0  0  0  0  0  0  0  0  0  0  0
   45.9030   32.6400   46.2980 C   0  0  0  0  0  0  0  0  0  0  0  0
   46.2030   31.2950   46.0590 C   0  0  0  0  0  0  0  0  0  0  0  0
   45.9430   30.2990   46.9400 N   0  0  0  0  0  0  0  0  0  0  0  0
   45.3480   30.6090   48.1540 C   0  0  0  0  0  0  0  0  0  0  0  0
   45.0550   31.8820   48.4020 N   0  0  0  0  0  0  0  0  0  0  0  0
   45.0990   29.5870   49.1110 N   0  0  0  0  0  0  0  0  0  0  0  0
   45.0500   33.8850   47.7970 H   0  0  0  0  0  0  0  0  0  0  0  0
   44.8270   28.6680   48.6520 H   0  0  0  0  0  0  0  0  0  0  0  0
   45.2170   29.8820   50.1060 H   0  0  0  0  0  0  0  0  0  0  0  0
   46.1530   33.5930   45.2700 C   0  0  2  0  0  0  0  0  0  0  0  0
   44.9470   34.6890   45.5040 C   0  0  0  0  0  0  0  0  0  0  0  0
   44.7220   35.6240   44.4400 C   0  0  0  0  0  0  0  0  0  0  0  0
   45.5230   35.5570   43.2140 C   0  0  1  0  0  0  0  0  0  0  0  0
   46.5770   34.5490   43.1620 C   0  0  0  0  0  0  0  0  0  0  0  0
   46.1230   33.3150   43.9060 C   0  0  0  0  0  0  0  0  0  0  0  0
   46.9440   34.3250   45.6030 H   0  0  0  0  0  0  0  0  0  0  0  0
   44.2860   34.8090   46.3510 H   0  0  0  0  0  0  0  0  0  0  0  0
   43.9530   36.3490   44.5520 H   0  0  0  0  0  0  0  0  0  0  0  0
   45.9470   36.5650   43.0390 H   0  0  0  0  0  0  0  0  0  0  0  0
   46.8440   34.3600   42.1000 H   0  0  0  0  0  0  0  0  0  0  0  0
   47.4940   34.9260   43.6720 H   0  0  0  0  0  0  0  0  0  0  0  0
   46.9700   32.6600   43.5680 H   0  0  0  0  0  0  0  0  0  0  0  0
   45.2130   32.8760   43.4560 H   0  0  0  0  0  0  0  0  0  0  0  0
   44.5070   35.3000   42.0620 C   0  0  0  0  0  0  0  0  0  0  0  0
   43.4410   34.5130   42.4560 F   0  0  0  0  0  0  0  0  0  0  0  0
   43.9820   36.5480   41.7270 F   0  0  0  0  0  0  0  0  0  0  0  0
   45.1810   34.8310   40.9480 F   0  0  0  0  0  0  0  0  0  0  0  0
   46.8730   30.6110   44.9650 C   0  0  0  0  0  0  0  0  0  0  0  0
   46.5540   29.8060   43.9180 C   0  0  0  0  0  0  0  0  0  0  0  0
   47.7400   29.4570   43.2660 C   0  0  0  0  0  0  0  0  0  0  0  0
   48.7140   30.0650   43.9440 N   0  0  0  0  0  0  0  0  0  0  0  0
   48.2290   30.7520   44.9510 N   0  0  0  0  0  0  0  0  0  0  0  0
   45.5110   29.5870   43.7770 H   0  0  0  0  0  0  0  0  0  0  0  0
   47.6660   28.8180   42.4040 H   0  0  0  0  0  0  0  0  0  0  0  0
   50.0850   29.9200   43.5430 C   0  0  0  0  0  0  0  0  0  0  0  0
   50.6720   28.8470   44.0880 N   0  0  0  0  0  0  0  0  0  0  0  0
   51.8820   28.7580   43.7100 O   0  0  0  0  0  0  0  0  0  0  0  0
   52.2450   29.7560   42.8710 C   0  0  0  0  0  0  0  0  0  0  0  0
   52.5280   30.5350   42.2150 H   0  0  0  0  0  0  0  0  0  0  0  0
   51.0650   30.4480   42.8100 N   0  0  0  0  0  0  0  0  0  0  0  0
  1  8  1  0  0  0  0
  1  6  1  0  0  0  0
  2  1  2  0  0  0  0
  3  2  1  0  0  0  0
  3  4  2  0  0  0  0
  4  5  1  0  0  0  0
  5  6  2  0  0  0  0
  5  7  1  0  0  0  0
  7 10  1  0  0  0  0
  9  7  1  0  0  0  0
 11 12  1  0  0  0  0
 11 17  1  1  0  0  0
 11  2  1  0  0  0  0
 12 18  1  0  0  0  0
 13 19  1  0  0  0  0
 13 12  2  0  0  0  0
 14 20  1  6  0  0  0
 14 13  1  0  0  0  0
 15 14  1  0  0  0  0
 15 22  1  0  0  0  0
 15 16  1  0  0  0  0
 16 11  1  0  0  0  0
 21 15  1  0  0  0  0
 23 16  1  0  0  0  0
 24 16  1  0  0  0  0
 25 26  1  0  0  0  0
 25 14  1  0  0  0  0
 27 25  1  0  0  0  0
 28 25  1  0  0  0  0
 29  3  1  0  0  0  0
 30 29  1  0  0  0  0
 31 30  2  0  0  0  0
 31 32  1  0  0  0  0
 32 33  1  0  0  0  0
 33 29  2  0  0  0  0
 34 30  1  0  0  0  0
 35 31  1  0  0  0  0
 36 32  1  0  0  0  0
 36 37  2  0  0  0  0
 38 37  1  0  0  0  0
 39 38  1  0  0  0  0
 40 39  1  0  0  0  0
 41 39  2  0  0  0  0
 41 36  1  0  0  0  0
M  END
>  <minimizedAffinity>
-5.92399549

>  <minimizedRMSD>
0.261262655

$$$$
