
 OpenBabel03232519543D

 20 21  0  0  0  0  0  0  0  0999 V2000
   45.0000   33.8670   41.6870 N   0  0  0  0  0  0  0  0  0  0  0  0
   46.0070   33.8460   40.8130 C   0  0  0  0  0  0  0  0  0  0  0  0
   45.4960   33.4220   39.5920 C   0  0  0  0  0  0  0  0  0  0  0  0
   44.1830   33.1890   39.7330 N   0  0  0  0  0  0  0  0  0  0  0  0
   43.8610   33.4630   41.0320 C   0  0  0  0  0  0  0  0  0  0  0  0
   45.9940   33.2760   38.6440 H   0  0  0  0  0  0  0  0  0  0  0  0
   42.8670   33.3680   41.4470 H   0  0  0  0  0  0  0  0  0  0  0  0
   44.4150   35.4960   43.3520 C   0  0  0  0  0  0  0  0  0  0  0  0
   44.9760   34.2120   43.0300 C   0  0  0  0  0  0  0  0  0  0  0  0
   45.4310   33.4340   44.0640 C   0  0  0  0  0  0  0  0  0  0  0  0
   45.3430   33.8860   45.3420 N   0  0  0  0  0  0  0  0  0  0  0  0
   44.8030   35.1120   45.6090 C   0  0  0  0  0  0  0  0  0  0  0  0
   44.3380   35.9180   44.6120 N   0  0  0  0  0  0  0  0  0  0  0  0
   44.0520   36.1190   42.5460 H   0  0  0  0  0  0  0  0  0  0  0  0
   45.8580   32.4640   43.9980 H   0  0  0  0  0  0  0  0  0  0  0  0
   44.7470   35.4450   46.6440 H   0  0  0  0  0  0  0  0  0  0  0  0
   47.4550   34.1580   40.9160 C   0  0  0  0  0  0  0  0  0  0  0  0
   48.2000   32.9780   41.5870 C   0  0  0  0  0  0  0  0  0  0  0  0
   48.1420   34.4070   39.6120 C   0  0  0  0  0  0  0  0  0  0  0  0
   47.7510   35.3150   41.8580 C   0  0  0  0  0  0  0  0  0  0  0  0
  1  9  1  0  0  0  0
  2 17  1  0  0  0  0
  2  1  1  0  0  0  0
  3  4  1  0  0  0  0
  3  2  2  0  0  0  0
  4  5  2  0  0  0  0
  5  7  1  0  0  0  0
  5  1  1  0  0  0  0
  6  3  1  0  0  0  0
  8 13  1  0  0  0  0
  9  8  2  0  0  0  0
  9 10  1  0  0  0  0
 10 11  2  0  0  0  0
 11 12  1  0  0  0  0
 12 16  1  0  0  0  0
 13 12  2  0  0  0  0
 14  8  1  0  0  0  0
 15 10  1  0  0  0  0
 17 18  1  0  0  0  0
 17 20  1  0  0  0  0
 19 17  1  0  0  0  0
M  END
>  <minimizedAffinity>
-4.18952513

>  <minimizedRMSD>
2.09198332

$$$$
