
 OpenBabel03232521003D

 41 44  0  0  1  0  0  0  0  0999 V2000
   45.3760   32.8410   47.4770 C   0  0  0  0  0  0  0  0  0  0  0  0
   45.9290   32.6030   46.2630 C   0  0  0  0  0  0  0  0  0  0  0  0
   46.2050   31.2580   45.9980 C   0  0  0  0  0  0  0  0  0  0  0  0
   45.9470   30.2520   46.8700 N   0  0  0  0  0  0  0  0  0  0  0  0
   45.3810   30.5520   48.0990 C   0  0  0  0  0  0  0  0  0  0  0  0
   45.1110   31.8260   48.3720 N   0  0  0  0  0  0  0  0  0  0  0  0
   45.1350   29.5200   49.0460 N   0  0  0  0  0  0  0  0  0  0  0  0
   45.1240   33.8380   47.7980 H   0  0  0  0  0  0  0  0  0  0  0  0
   44.8410   28.6120   48.5780 H   0  0  0  0  0  0  0  0  0  0  0  0
   45.2770   29.7980   50.0420 H   0  0  0  0  0  0  0  0  0  0  0  0
   46.1740   33.5680   45.2450 C   0  0  2  0  0  0  0  0  0  0  0  0
   44.9660   34.6590   45.4960 C   0  0  0  0  0  0  0  0  0  0  0  0
   44.7350   35.6050   44.4430 C   0  0  0  0  0  0  0  0  0  0  0  0
   45.5310   35.5530   43.2130 C   0  0  1  0  0  0  0  0  0  0  0  0
   46.5880   34.5490   43.1460 C   0  0  0  0  0  0  0  0  0  0  0  0
   46.1390   33.3060   43.8780 C   0  0  0  0  0  0  0  0  0  0  0  0
   46.9640   34.2980   45.5830 H   0  0  0  0  0  0  0  0  0  0  0  0
   44.3080   34.7680   46.3460 H   0  0  0  0  0  0  0  0  0  0  0  0
   43.9650   36.3270   44.5660 H   0  0  0  0  0  0  0  0  0  0  0  0
   45.9520   36.5640   43.0480 H   0  0  0  0  0  0  0  0  0  0  0  0
   46.8510   34.3710   42.0820 H   0  0  0  0  0  0  0  0  0  0  0  0
   47.5050   34.9220   43.6570 H   0  0  0  0  0  0  0  0  0  0  0  0
   46.9860   32.6560   43.5290 H   0  0  0  0  0  0  0  0  0  0  0  0
   45.2280   32.8700   43.4270 H   0  0  0  0  0  0  0  0  0  0  0  0
   44.5120   35.3070   42.0620 C   0  0  0  0  0  0  0  0  0  0  0  0
   43.4400   34.5270   42.4570 F   0  0  0  0  0  0  0  0  0  0  0  0
   43.9960   36.5600   41.7320 F   0  0  0  0  0  0  0  0  0  0  0  0
   45.1800   34.8350   40.9460 F   0  0  0  0  0  0  0  0  0  0  0  0
   46.8430   30.5810   44.8810 C   0  0  0  0  0  0  0  0  0  0  0  0
   46.4900   29.8140   43.8170 C   0  0  0  0  0  0  0  0  0  0  0  0
   47.6580   29.4440   43.1450 C   0  0  0  0  0  0  0  0  0  0  0  0
   48.6570   30.0020   43.8300 N   0  0  0  0  0  0  0  0  0  0  0  0
   48.2030   30.6780   44.8590 N   0  0  0  0  0  0  0  0  0  0  0  0
   45.4390   29.6340   43.6800 H   0  0  0  0  0  0  0  0  0  0  0  0
   47.5570   28.8300   42.2680 H   0  0  0  0  0  0  0  0  0  0  0  0
   50.0190   29.8220   43.4140 C   0  0  0  0  0  0  0  0  0  0  0  0
   50.2840   28.5650   43.0400 N   0  0  0  0  0  0  0  0  0  0  0  0
   51.4980   28.4510   42.6820 O   0  0  0  0  0  0  0  0  0  0  0  0
   52.1850   29.6130   42.7740 C   0  0  0  0  0  0  0  0  0  0  0  0
   52.7210   30.5200   42.8460 H   0  0  0  0  0  0  0  0  0  0  0  0
   51.1920   30.4320   43.2400 N   0  0  0  0  0  0  0  0  0  0  0  0
  1  8  1  0  0  0  0
  1  6  1  0  0  0  0
  2  1  2  0  0  0  0
  3  2  1  0  0  0  0
  3  4  2  0  0  0  0
  4  5  1  0  0  0  0
  5  6  2  0  0  0  0
  5  7  1  0  0  0  0
  7 10  1  0  0  0  0
  9  7  1  0  0  0  0
 11 12  1  0  0  0  0
 11 17  1  1  0  0  0
 11  2  1  0  0  0  0
 12 18  1  0  0  0  0
 13 19  1  0  0  0  0
 13 12  2  0  0  0  0
 14 20  1  6  0  0  0
 14 13  1  0  0  0  0
 15 14  1  0  0  0  0
 15 22  1  0  0  0  0
 15 16  1  0  0  0  0
 16 11  1  0  0  0  0
 21 15  1  0  0  0  0
 23 16  1  0  0  0  0
 24 16  1  0  0  0  0
 25 26  1  0  0  0  0
 25 14  1  0  0  0  0
 27 25  1  0  0  0  0
 28 25  1  0  0  0  0
 29  3  1  0  0  0  0
 30 29  1  0  0  0  0
 31 30  2  0  0  0  0
 31 32  1  0  0  0  0
 32 33  1  0  0  0  0
 33 29  2  0  0  0  0
 34 30  1  0  0  0  0
 35 31  1  0  0  0  0
 36 32  1  0  0  0  0
 37 36  2  0  0  0  0
 38 39  1  0  0  0  0
 38 37  1  0  0  0  0
 39 40  1  0  0  0  0
 39 41  2  0  0  0  0
 41 36  1  0  0  0  0
M  END
>  <minimizedAffinity>
-5.9345417

>  <minimizedRMSD>
0.182481721

$$$$
