
 OpenBabel03232518163D

 26 27  0  0  1  0  0  0  0  0999 V2000
   44.0680   34.8560   41.5930 C   0  0  2  0  0  0  0  0  0  0  0  0
   42.5340   34.9900   41.4280 C   0  0  0  0  0  0  0  0  0  0  0  0
   42.5680   35.2500   39.9090 C   0  0  1  0  0  0  0  0  0  0  0  0
   43.3770   34.0650   39.4780 C   0  0  0  0  0  0  0  0  0  0  0  0
   44.3420   33.7790   40.6340 C   0  0  0  0  0  0  0  0  0  0  0  0
   44.4220   35.8740   41.2530 H   0  0  0  0  0  0  0  0  0  0  0  0
   42.1260   35.8180   41.9930 H   0  0  0  0  0  0  0  0  0  0  0  0
   42.0850   34.0070   41.6390 H   0  0  0  0  0  0  0  0  0  0  0  0
   43.1170   36.2070   39.7760 H   0  0  0  0  0  0  0  0  0  0  0  0
   42.7380   33.1880   39.3040 H   0  0  0  0  0  0  0  0  0  0  0  0
   44.0240   34.3150   38.6070 H   0  0  0  0  0  0  0  0  0  0  0  0
   44.0740   32.8100   41.1240 H   0  0  0  0  0  0  0  0  0  0  0  0
   45.3790   33.6750   40.3060 H   0  0  0  0  0  0  0  0  0  0  0  0
   44.2550   35.6960   43.8780 C   0  0  0  0  0  0  0  0  0  0  0  0
   44.4780   34.6460   42.9700 C   0  0  0  0  0  0  0  0  0  0  0  0
   45.1120   33.4610   43.4380 C   0  0  0  0  0  0  0  0  0  0  0  0
   45.4760   33.3990   44.7490 N   0  0  0  0  0  0  0  0  0  0  0  0
   45.2450   34.4380   45.6010 C   0  0  0  0  0  0  0  0  0  0  0  0
   44.6390   35.5800   45.1760 N   0  0  0  0  0  0  0  0  0  0  0  0
   43.7790   36.6190   43.5860 H   0  0  0  0  0  0  0  0  0  0  0  0
   45.2780   32.6600   42.7320 H   0  0  0  0  0  0  0  0  0  0  0  0
   45.5820   34.2690   46.6220 H   0  0  0  0  0  0  0  0  0  0  0  0
   41.2080   35.3700   39.3430 C   0  0  0  0  0  0  0  0  0  0  0  0
   41.2350   35.9270   37.9600 C   0  0  0  0  0  0  0  0  0  0  0  0
   40.6560   33.9390   39.2600 C   0  0  0  0  0  0  0  0  0  0  0  0
   40.2820   36.0960   40.2680 C   0  0  0  0  0  0  0  0  0  0  0  0
  1  6  1  6  0  0  0
  1 15  1  0  0  0  0
  2  1  1  0  0  0  0
  2  8  1  0  0  0  0
  2  7  1  0  0  0  0
  3  9  1  6  0  0  0
  3  2  1  0  0  0  0
  4  3  1  0  0  0  0
  4  5  1  0  0  0  0
  5 12  1  0  0  0  0
  5  1  1  0  0  0  0
 10  4  1  0  0  0  0
 11  4  1  0  0  0  0
 13  5  1  0  0  0  0
 14 19  1  0  0  0  0
 15 16  1  0  0  0  0
 15 14  2  0  0  0  0
 16 17  2  0  0  0  0
 17 18  1  0  0  0  0
 18 22  1  0  0  0  0
 19 18  2  0  0  0  0
 20 14  1  0  0  0  0
 21 16  1  0  0  0  0
 23  3  1  0  0  0  0
 23 26  1  0  0  0  0
 24 23  1  0  0  0  0
 25 23  1  0  0  0  0
M  END
>  <minimizedAffinity>
-5.01190329

>  <minimizedRMSD>
0.197790489

$$$$
