
 OpenBabel03232519483D

 38 40  0  0  1  0  0  0  0  0999 V2000
   46.7780   33.9460   42.6650 N   0  0  0  0  0  0  0  0  0  0  0  0
   48.0840   34.4280   42.2230 C   0  0  0  0  0  0  0  0  0  0  0  0
   47.7450   34.8410   40.8050 C   0  0  0  0  0  0  0  0  0  0  0  0
   47.0220   33.6080   40.3270 C   0  0  0  0  0  0  0  0  0  0  0  0
   46.2150   33.2180   41.5210 C   0  0  2  0  0  0  0  0  0  0  0  0
   48.8080   33.5980   42.1630 H   0  0  0  0  0  0  0  0  0  0  0  0
   48.4410   35.2930   42.8220 H   0  0  0  0  0  0  0  0  0  0  0  0
   47.0200   35.6730   40.8930 H   0  0  0  0  0  0  0  0  0  0  0  0
   48.6180   35.1080   40.2060 H   0  0  0  0  0  0  0  0  0  0  0  0
   47.7170   32.8470   39.9540 H   0  0  0  0  0  0  0  0  0  0  0  0
   46.3560   33.9330   39.4870 H   0  0  0  0  0  0  0  0  0  0  0  0
   46.5000   32.1580   41.7240 H   0  0  0  0  0  0  0  0  0  0  0  0
   44.8060   33.3400   41.3940 N   0  0  0  0  0  0  0  0  0  0  0  0
   44.1200   34.3020   40.7740 C   0  0  0  0  0  0  0  0  0  0  0  0
   42.7440   34.3190   40.7110 C   0  0  0  0  0  0  0  0  0  0  0  0
   42.0180   33.3130   41.3040 C   0  0  0  0  0  0  0  0  0  0  0  0
   40.7310   33.2690   41.2830 O   0  0  0  0  0  0  0  0  0  0  0  0
   42.7050   32.3390   41.9300 N   0  0  0  0  0  0  0  0  0  0  0  0
   44.0290   32.3720   41.9610 C   0  0  0  0  0  0  0  0  0  0  0  0
   44.5860   31.4080   42.5760 O   0  0  0  0  0  0  0  0  0  0  0  0
   44.7100   35.0900   40.3110 H   0  0  0  0  0  0  0  0  0  0  0  0
   42.1560   31.5730   42.3830 H   0  0  0  0  0  0  0  0  0  0  0  0
   41.9990   35.4000   40.0170 C   0  0  0  0  0  0  0  0  0  0  0  0
   41.4800   35.0380   39.1150 H   0  0  0  0  0  0  0  0  0  0  0  0
   41.1990   35.7380   40.7210 H   0  0  0  0  0  0  0  0  0  0  0  0
   42.6530   36.2690   39.8400 H   0  0  0  0  0  0  0  0  0  0  0  0
   44.6820   35.2610   45.4290 C   0  0  0  0  0  0  0  0  0  0  0  0
   45.2750   35.1700   44.1600 C   0  0  0  0  0  0  0  0  0  0  0  0
   46.1470   34.1100   43.8980 C   0  0  0  0  0  0  0  0  0  0  0  0
   46.3670   33.2220   44.9120 N   0  0  0  0  0  0  0  0  0  0  0  0
   45.7910   33.3190   46.1310 C   0  0  0  0  0  0  0  0  0  0  0  0
   44.9540   34.3400   46.3710 N   0  0  0  0  0  0  0  0  0  0  0  0
   44.0120   36.0810   45.6160 H   0  0  0  0  0  0  0  0  0  0  0  0
   45.0800   35.8840   43.3880 H   0  0  0  0  0  0  0  0  0  0  0  0
   46.0710   32.3200   47.1920 C   0  0  0  0  0  0  0  0  0  0  0  0
   45.0090   32.4170   48.2750 C   0  0  0  0  0  0  0  0  0  0  0  0
   45.9310   30.9030   46.6240 C   0  0  0  0  0  0  0  0  0  0  0  0
   47.4140   32.4660   47.8300 C   0  0  0  0  0  0  0  0  0  0  0  0
  1 29  1  0  0  0  0
  2  1  1  0  0  0  0
  2  7  1  0  0  0  0
  3  8  1  0  0  0  0
  3  2  1  0  0  0  0
  4  3  1  0  0  0  0
  4  5  1  0  0  0  0
  5 12  1  1  0  0  0
  5  1  1  0  0  0  0
  6  2  1  0  0  0  0
  9  3  1  0  0  0  0
 10  4  1  0  0  0  0
 11  4  1  0  0  0  0
 13  5  1  0  0  0  0
 13 19  1  0  0  0  0
 14 13  1  0  0  0  0
 15 14  2  0  0  0  0
 15 16  1  0  0  0  0
 16 18  1  0  0  0  0
 17 16  2  0  0  0  0
 18 19  1  0  0  0  0
 18 22  1  0  0  0  0
 19 20  2  0  0  0  0
 21 14  1  0  0  0  0
 23 15  1  0  0  0  0
 23 25  1  0  0  0  0
 24 23  1  0  0  0  0
 26 23  1  0  0  0  0
 27 33  1  0  0  0  0
 27 32  1  0  0  0  0
 28 27  2  0  0  0  0
 29 28  1  0  0  0  0
 29 30  2  0  0  0  0
 30 31  1  0  0  0  0
 31 32  2  0  0  0  0
 31 35  1  0  0  0  0
 34 28  1  0  0  0  0
 35 38  1  0  0  0  0
 35 36  1  0  0  0  0
 37 35  1  0  0  0  0
M  END
>  <minimizedAffinity>
-6.04607344

>  <minimizedRMSD>
0.883341014

$$$$
