
 OpenBabel03232521003D

 41 44  0  0  1  0  0  0  0  0999 V2000
   45.3240   32.8920   47.5100 C   0  0  0  0  0  0  0  0  0  0  0  0
   45.9040   32.6420   46.3110 C   0  0  0  0  0  0  0  0  0  0  0  0
   46.2020   31.2970   46.0740 C   0  0  0  0  0  0  0  0  0  0  0  0
   45.9410   30.3020   46.9570 N   0  0  0  0  0  0  0  0  0  0  0  0
   45.3460   30.6140   48.1700 C   0  0  0  0  0  0  0  0  0  0  0  0
   45.0540   31.8880   48.4160 N   0  0  0  0  0  0  0  0  0  0  0  0
   45.0950   29.5940   49.1280 N   0  0  0  0  0  0  0  0  0  0  0  0
   45.0530   33.8910   47.8090 H   0  0  0  0  0  0  0  0  0  0  0  0
   44.8220   28.6750   48.6700 H   0  0  0  0  0  0  0  0  0  0  0  0
   45.2140   29.8900   50.1230 H   0  0  0  0  0  0  0  0  0  0  0  0
   46.1560   33.5940   45.2820 C   0  0  2  0  0  0  0  0  0  0  0  0
   44.9440   34.6850   45.5080 C   0  0  0  0  0  0  0  0  0  0  0  0
   44.7210   35.6170   44.4390 C   0  0  0  0  0  0  0  0  0  0  0  0
   45.5280   35.5500   43.2180 C   0  0  1  0  0  0  0  0  0  0  0  0
   46.5870   34.5460   43.1740 C   0  0  0  0  0  0  0  0  0  0  0  0
   46.1340   33.3120   43.9190 C   0  0  0  0  0  0  0  0  0  0  0  0
   46.9420   34.3290   45.6180 H   0  0  0  0  0  0  0  0  0  0  0  0
   44.2790   34.8050   46.3500 H   0  0  0  0  0  0  0  0  0  0  0  0
   43.9490   36.3390   44.5470 H   0  0  0  0  0  0  0  0  0  0  0  0
   45.9490   36.5590   43.0420 H   0  0  0  0  0  0  0  0  0  0  0  0
   46.8600   34.3550   42.1140 H   0  0  0  0  0  0  0  0  0  0  0  0
   47.5000   34.9280   43.6880 H   0  0  0  0  0  0  0  0  0  0  0  0
   46.9840   32.6590   43.5860 H   0  0  0  0  0  0  0  0  0  0  0  0
   45.2270   32.8690   43.4650 H   0  0  0  0  0  0  0  0  0  0  0  0
   44.5200   35.2860   42.0610 C   0  0  0  0  0  0  0  0  0  0  0  0
   43.4620   34.4840   42.4490 F   0  0  0  0  0  0  0  0  0  0  0  0
   43.9810   36.5290   41.7310 F   0  0  0  0  0  0  0  0  0  0  0  0
   45.2030   34.8300   40.9480 F   0  0  0  0  0  0  0  0  0  0  0  0
   46.8710   30.6100   44.9810 C   0  0  0  0  0  0  0  0  0  0  0  0
   46.5500   29.8180   43.9250 C   0  0  0  0  0  0  0  0  0  0  0  0
   47.7360   29.4550   43.2810 C   0  0  0  0  0  0  0  0  0  0  0  0
   48.7130   30.0420   43.9730 N   0  0  0  0  0  0  0  0  0  0  0  0
   48.2290   30.7300   44.9800 N   0  0  0  0  0  0  0  0  0  0  0  0
   45.5050   29.6170   43.7740 H   0  0  0  0  0  0  0  0  0  0  0  0
   47.6600   28.8230   42.4140 H   0  0  0  0  0  0  0  0  0  0  0  0
   50.0850   29.8790   43.5830 C   0  0  0  0  0  0  0  0  0  0  0  0
   50.4190   30.6380   42.5320 N   0  0  0  0  0  0  0  0  0  0  0  0
   51.6370   30.4610   42.2220 O   0  0  0  0  0  0  0  0  0  0  0  0
   52.2610   29.5670   43.0240 C   0  0  0  0  0  0  0  0  0  0  0  0
   52.7470   28.8700   43.6500 H   0  0  0  0  0  0  0  0  0  0  0  0
   51.2240   29.2430   43.8570 N   0  0  0  0  0  0  0  0  0  0  0  0
  1  8  1  0  0  0  0
  1  6  1  0  0  0  0
  2  1  2  0  0  0  0
  3  2  1  0  0  0  0
  3  4  2  0  0  0  0
  4  5  1  0  0  0  0
  5  6  2  0  0  0  0
  5  7  1  0  0  0  0
  7 10  1  0  0  0  0
  9  7  1  0  0  0  0
 11 12  1  0  0  0  0
 11 17  1  1  0  0  0
 11  2  1  0  0  0  0
 12 18  1  0  0  0  0
 13 19  1  0  0  0  0
 13 12  2  0  0  0  0
 14 20  1  6  0  0  0
 14 13  1  0  0  0  0
 15 14  1  0  0  0  0
 15 22  1  0  0  0  0
 15 16  1  0  0  0  0
 16 11  1  0  0  0  0
 21 15  1  0  0  0  0
 23 16  1  0  0  0  0
 24 16  1  0  0  0  0
 25 26  1  0  0  0  0
 25 14  1  0  0  0  0
 27 25  1  0  0  0  0
 28 25  1  0  0  0  0
 29  3  1  0  0  0  0
 30 29  1  0  0  0  0
 31 30  2  0  0  0  0
 31 32  1  0  0  0  0
 32 33  1  0  0  0  0
 33 29  2  0  0  0  0
 34 30  1  0  0  0  0
 35 31  1  0  0  0  0
 36 41  1  0  0  0  0
 36 32  1  0  0  0  0
 37 36  2  0  0  0  0
 38 37  1  0  0  0  0
 38 39  1  0  0  0  0
 39 40  1  0  0  0  0
 39 41  2  0  0  0  0
M  END
>  <minimizedAffinity>
-5.9795661

>  <minimizedRMSD>
0.220153049

$$$$
