
 OpenBabel03232518583D

 51 55  0  0  1  0  0  0  0  0999 V2000
   46.0970   32.1460   45.4570 C   0  0  1  0  0  0  0  0  0  0  0  0
   45.1220   31.9750   44.8940 H   0  0  0  0  0  0  0  0  0  0  0  0
   45.6020   31.9880   49.1230 C   0  0  0  0  0  0  0  0  0  0  0  0
   45.1940   30.6180   49.2920 C   0  0  0  0  0  0  0  0  0  0  0  0
   45.1080   29.7830   48.1270 C   0  0  0  0  0  0  0  0  0  0  0  0
   45.4200   30.3340   46.9150 N   0  0  0  0  0  0  0  0  0  0  0  0
   45.7940   31.6160   46.8140 C   0  0  0  0  0  0  0  0  0  0  0  0
   45.8850   32.4340   47.9050 N   0  0  0  0  0  0  0  0  0  0  0  0
   45.6540   32.5800   50.0170 H   0  0  0  0  0  0  0  0  0  0  0  0
   44.9590   30.2290   50.2670 H   0  0  0  0  0  0  0  0  0  0  0  0
   44.8080   28.7640   48.2270 H   0  0  0  0  0  0  0  0  0  0  0  0
   46.5290   33.5450   45.4290 C   0  0  0  0  0  0  0  0  0  0  0  0
   46.6630   34.0150   46.4300 H   0  0  0  0  0  0  0  0  0  0  0  0
   47.5180   33.6500   44.9440 H   0  0  0  0  0  0  0  0  0  0  0  0
   45.5890   34.3270   44.5840 C   0  0  0  0  0  0  0  0  0  0  0  0
   44.7730   35.2570   45.1780 C   0  0  0  0  0  0  0  0  0  0  0  0
   44.0070   35.8430   44.2060 C   0  0  0  0  0  0  0  0  0  0  0  0
   44.4180   35.2140   43.0560 N   0  0  0  0  0  0  0  0  0  0  0  0
   45.3520   34.3180   43.2660 N   0  0  0  0  0  0  0  0  0  0  0  0
   44.6490   35.5760   46.2160 H   0  0  0  0  0  0  0  0  0  0  0  0
   43.2490   36.6070   44.2230 H   0  0  0  0  0  0  0  0  0  0  0  0
   44.5150   34.6650   40.7170 N   0  0  0  0  0  0  0  0  0  0  0  0
   43.4620   34.1330   39.8840 C   0  0  0  0  0  0  0  0  0  0  0  0
   42.3420   33.9020   40.9140 C   0  0  0  0  0  0  0  0  0  0  0  0
   42.3950   35.2150   41.6680 C   0  0  0  0  0  0  0  0  0  0  0  0
   43.8860   35.4930   41.7150 C   0  0  1  0  0  0  0  0  0  0  0  0
   45.2540   35.1560   40.1700 H   0  0  0  0  0  0  0  0  0  0  0  0
   43.0550   34.9180   39.1970 H   0  0  0  0  0  0  0  0  0  0  0  0
   43.7320   33.2010   39.3840 H   0  0  0  0  0  0  0  0  0  0  0  0
   41.3670   33.7900   40.4190 H   0  0  0  0  0  0  0  0  0  0  0  0
   42.6220   33.0700   41.5650 H   0  0  0  0  0  0  0  0  0  0  0  0
   41.9710   35.0210   42.6790 H   0  0  0  0  0  0  0  0  0  0  0  0
   41.8360   35.9820   41.1160 H   0  0  0  0  0  0  0  0  0  0  0  0
   44.0350   36.5730   41.4950 H   0  0  0  0  0  0  0  0  0  0  0  0
   47.0600   31.1860   44.7700 C   0  0  0  0  0  0  0  0  0  0  0  0
   48.0150   31.1740   45.3850 H   0  0  0  0  0  0  0  0  0  0  0  0
   46.6790   30.1350   44.9050 H   0  0  0  0  0  0  0  0  0  0  0  0
   47.3800   31.4850   43.4290 N   0  0  0  0  0  0  0  0  0  0  0  0
   46.8070   30.7030   42.4650 C   0  0  0  0  0  0  0  0  0  0  0  0
   47.1900   31.1150   41.2230 N   0  0  0  0  0  0  0  0  0  0  0  0
   48.0140   32.1640   41.3580 C   0  0  0  0  0  0  0  0  0  0  0  0
   48.7310   33.0150   40.5490 C   0  0  0  0  0  0  0  0  0  0  0  0
   48.6570   32.8490   39.3100 O   0  0  0  0  0  0  0  0  0  0  0  0
   49.5100   34.0150   41.0100 N   0  0  0  0  0  0  0  0  0  0  0  0
   49.5470   34.1410   42.3690 C   0  0  0  0  0  0  0  0  0  0  0  0
   50.3540   35.1800   42.9090 N   0  0  0  0  0  0  0  0  0  0  0  0
   48.8660   33.3390   43.1960 N   0  0  0  0  0  0  0  0  0  0  0  0
   48.0950   32.3470   42.7170 C   0  0  0  0  0  0  0  0  0  0  0  0
   50.0250   34.6190   40.3450 H   0  0  0  0  0  0  0  0  0  0  0  0
   50.5230   36.1760   42.6250 H   0  0  0  0  0  0  0  0  0  0  0  0
   50.9490   35.0440   43.7700 H   0  0  0  0  0  0  0  0  0  0  0  0
  1  2  1  6  0  0  0
  1  7  1  0  0  0  0
  3  4  1  0  0  0  0
  3  9  1  0  0  0  0
  4 10  1  0  0  0  0
  5 11  1  0  0  0  0
  5  4  2  0  0  0  0
  6  5  1  0  0  0  0
  7  6  2  0  0  0  0
  7  8  1  0  0  0  0
  8  3  2  0  0  0  0
 12  1  1  0  0  0  0
 12 13  1  0  0  0  0
 14 12  1  0  0  0  0
 15 16  1  0  0  0  0
 15 12  1  0  0  0  0
 16 20  1  0  0  0  0
 17 21  1  0  0  0  0
 17 16  2  0  0  0  0
 18 19  1  0  0  0  0
 18 17  1  0  0  0  0
 19 15  2  0  0  0  0
 22 26  1  0  0  0  0
 23 22  1  0  0  0  0
 23 24  1  0  0  0  0
 24 31  1  0  0  0  0
 24 25  1  0  0  0  0
 25 26  1  0  0  0  0
 25 32  1  0  0  0  0
 26 34  1  6  0  0  0
 26 18  1  0  0  0  0
 27 22  1  0  0  0  0
 28 23  1  0  0  0  0
 29 23  1  0  0  0  0
 30 24  1  0  0  0  0
 33 25  1  0  0  0  0
 35 37  1  0  0  0  0
 35 36  1  0  0  0  0
 35  1  1  0  0  0  0
 38 35  1  0  0  0  0
 39 38  1  0  0  0  0
 40 41  1  0  0  0  0
 40 39  2  0  0  0  0
 41 48  2  0  0  0  0
 42 44  1  0  0  0  0
 42 41  1  0  0  0  0
 43 42  2  0  0  0  0
 44 45  1  0  0  0  0
 45 46  1  0  0  0  0
 45 47  2  0  0  0  0
 46 51  1  0  0  0  0
 48 47  1  0  0  0  0
 48 38  1  0  0  0  0
 49 44  1  0  0  0  0
 50 46  1  0  0  0  0
M  END
>  <minimizedAffinity>
-6.81599903

>  <minimizedRMSD>
1.20762026

$$$$
