
 OpenBabel03232517483D

 27 29  0  0  0  0  0  0  0  0999 V2000
   48.3470   30.7570   48.2380 N   0  0  0  0  0  0  0  0  0  0  0  0
   47.8200   30.7500   47.0230 C   0  0  0  0  0  0  0  0  0  0  0  0
   47.1700   31.9450   46.7960 C   0  0  0  0  0  0  0  0  0  0  0  0
   47.3130   32.6800   47.8990 N   0  0  0  0  0  0  0  0  0  0  0  0
   48.0280   31.9650   48.7810 C   0  0  0  0  0  0  0  0  0  0  0  0
   47.9080   29.9050   46.3340 H   0  0  0  0  0  0  0  0  0  0  0  0
   48.2960   32.3220   49.7690 H   0  0  0  0  0  0  0  0  0  0  0  0
   49.6050   30.1280   50.1560 C   0  0  0  0  0  0  0  0  0  0  0  0
   49.0900   29.7700   48.8940 C   0  0  0  0  0  0  0  0  0  0  0  0
   49.3560   28.4820   48.4100 C   0  0  0  0  0  0  0  0  0  0  0  0
   50.1010   27.6560   49.1970 N   0  0  0  0  0  0  0  0  0  0  0  0
   50.5800   28.0210   50.3930 C   0  0  0  0  0  0  0  0  0  0  0  0
   50.3260   29.2550   50.8580 N   0  0  0  0  0  0  0  0  0  0  0  0
   49.4490   31.1040   50.6100 H   0  0  0  0  0  0  0  0  0  0  0  0
   48.9470   28.2550   47.4550 H   0  0  0  0  0  0  0  0  0  0  0  0
   51.1630   27.2660   50.9240 H   0  0  0  0  0  0  0  0  0  0  0  0
   46.4610   32.3490   45.6000 C   0  0  0  0  0  0  0  0  0  0  0  0
   45.8870   31.4810   44.6760 C   0  0  0  0  0  0  0  0  0  0  0  0
   45.3160   32.2750   43.6950 C   0  0  0  0  0  0  0  0  0  0  0  0
   45.5730   33.5800   44.0750 C   0  0  0  0  0  0  0  0  0  0  0  0
   46.2400   33.5760   45.1860 O   0  0  0  0  0  0  0  0  0  0  0  0
   45.8730   30.3830   44.6920 H   0  0  0  0  0  0  0  0  0  0  0  0
   44.7800   31.9630   42.8140 H   0  0  0  0  0  0  0  0  0  0  0  0
   45.1560   34.8240   43.3380 C   0  0  0  0  0  0  0  0  0  0  0  0
   44.5550   35.7950   44.3310 C   0  0  0  0  0  0  0  0  0  0  0  0
   44.0470   34.4690   42.3420 C   0  0  0  0  0  0  0  0  0  0  0  0
   46.2940   35.4470   42.5860 C   0  0  0  0  0  0  0  0  0  0  0  0
  1  5  1  0  0  0  0
  1  9  1  0  0  0  0
  2  1  1  0  0  0  0
  3  2  2  0  0  0  0
  3  4  1  0  0  0  0
  4  5  2  0  0  0  0
  5  7  1  0  0  0  0
  6  2  1  0  0  0  0
  8 14  1  0  0  0  0
  8 13  1  0  0  0  0
  9  8  2  0  0  0  0
 10  9  1  0  0  0  0
 10 11  2  0  0  0  0
 11 12  1  0  0  0  0
 12 13  2  0  0  0  0
 12 16  1  0  0  0  0
 15 10  1  0  0  0  0
 17  3  1  0  0  0  0
 18 22  1  0  0  0  0
 18 17  2  0  0  0  0
 19 20  2  0  0  0  0
 19 18  1  0  0  0  0
 20 21  1  0  0  0  0
 21 17  1  0  0  0  0
 23 19  1  0  0  0  0
 24 20  1  0  0  0  0
 24 25  1  0  0  0  0
 26 24  1  0  0  0  0
 27 24  1  0  0  0  0
M  END
>  <minimizedAffinity>
-4.79294872

>  <minimizedRMSD>
2.42908835

$$$$
