
 OpenBabel03232520273D

 40 43  0  0  1  0  0  0  0  0999 V2000
   46.9260   34.5060   41.3360 C   0  0  0  0  0  0  0  0  0  0  0  0
   48.1960   34.9500   40.9910 C   0  0  0  0  0  0  0  0  0  0  0  0
   48.4640   34.6380   39.7270 N   0  0  0  0  0  0  0  0  0  0  0  0
   47.3850   33.9980   39.2460 C   0  0  0  0  0  0  0  0  0  0  0  0
   47.1280   33.4490   37.9860 C   0  0  0  0  0  0  0  0  0  0  0  0
   45.9430   32.8350   37.7380 C   0  0  0  0  0  0  0  0  0  0  0  0
   44.9450   32.7120   38.6730 C   0  0  0  0  0  0  0  0  0  0  0  0
   45.2140   33.2620   39.9210 C   0  0  0  0  0  0  0  0  0  0  0  0
   46.3970   33.8900   40.2130 C   0  0  0  0  0  0  0  0  0  0  0  0
   49.3230   34.8140   39.1270 H   0  0  0  0  0  0  0  0  0  0  0  0
   47.8530   33.4970   37.1850 H   0  0  0  0  0  0  0  0  0  0  0  0
   45.7500   32.4120   36.7590 H   0  0  0  0  0  0  0  0  0  0  0  0
   43.9790   32.2360   38.5410 H   0  0  0  0  0  0  0  0  0  0  0  0
   44.4570   33.1950   40.7070 H   0  0  0  0  0  0  0  0  0  0  0  0
   44.7750   35.8810   44.0550 C   0  0  0  0  0  0  0  0  0  0  0  0
   45.4150   35.7540   42.8070 C   0  0  0  0  0  0  0  0  0  0  0  0
   46.2550   34.6490   42.6270 C   0  0  0  0  0  0  0  0  0  0  0  0
   46.4260   33.7480   43.6430 N   0  0  0  0  0  0  0  0  0  0  0  0
   45.7740   33.9390   44.8200 C   0  0  0  0  0  0  0  0  0  0  0  0
   44.9600   34.9810   45.0360 N   0  0  0  0  0  0  0  0  0  0  0  0
   44.1290   36.7580   44.1480 H   0  0  0  0  0  0  0  0  0  0  0  0
   45.2690   36.4770   42.0130 H   0  0  0  0  0  0  0  0  0  0  0  0
   45.9750   33.1720   45.5570 H   0  0  0  0  0  0  0  0  0  0  0  0
   49.1050   35.6600   41.9110 C   0  0  0  0  0  0  0  0  0  0  0  0
   48.4900   36.2120   42.6790 H   0  0  0  0  0  0  0  0  0  0  0  0
   49.7000   36.3990   41.3190 H   0  0  0  0  0  0  0  0  0  0  0  0
   50.0240   34.7150   42.6190 C   0  0  0  0  0  0  0  0  0  0  0  0
   50.9880   35.2540   42.7530 H   0  0  0  0  0  0  0  0  0  0  0  0
   49.6400   34.5350   43.6600 H   0  0  0  0  0  0  0  0  0  0  0  0
   50.2550   33.4010   41.8960 C   0  0  1  0  0  0  0  0  0  0  0  0
   50.9760   32.3310   42.5410 C   0  0  0  0  0  0  0  0  0  0  0  0
   49.4810   32.2260   42.4740 C   0  0  2  0  0  0  0  0  0  0  0  0
   50.2750   33.5350   40.8000 H   0  0  0  0  0  0  0  0  0  0  0  0
   51.3740   32.5550   43.5680 H   0  0  0  0  0  0  0  0  0  0  0  0
   51.6470   31.6610   41.9970 H   0  0  0  0  0  0  0  0  0  0  0  0
   48.9040   32.4210   43.4210 H   0  0  0  0  0  0  0  0  0  0  0  0
   49.0630   31.0310   41.7250 C   0  0  0  0  0  0  0  0  0  0  0  0
   47.5800   30.7110   41.7640 C   0  0  0  0  0  0  0  0  0  0  0  0
   49.7410   29.8200   42.3590 C   0  0  0  0  0  0  0  0  0  0  0  0
   49.4580   30.9990   40.2770 C   0  0  0  0  0  0  0  0  0  0  0  0
  1 17  1  0  0  0  0
  2  1  2  0  0  0  0
  2 24  1  0  0  0  0
  3  2  1  0  0  0  0
  4  3  1  0  0  0  0
  4  9  1  0  0  0  0
  5  4  2  0  0  0  0
  6  5  1  0  0  0  0
  6  7  2  0  0  0  0
  7  8  1  0  0  0  0
  8  9  2  0  0  0  0
  8 14  1  0  0  0  0
  9  1  1  0  0  0  0
 10  3  1  0  0  0  0
 11  5  1  0  0  0  0
 12  6  1  0  0  0  0
 13  7  1  0  0  0  0
 15 21  1  0  0  0  0
 15 20  1  0  0  0  0
 16 15  2  0  0  0  0
 17 16  1  0  0  0  0
 17 18  2  0  0  0  0
 18 19  1  0  0  0  0
 19 20  2  0  0  0  0
 19 23  1  0  0  0  0
 22 16  1  0  0  0  0
 24 27  1  0  0  0  0
 24 25  1  0  0  0  0
 26 24  1  0  0  0  0
 27 28  1  0  0  0  0
 27 29  1  0  0  0  0
 30 33  1  6  0  0  0
 30 32  1  0  0  0  0
 30 31  1  0  0  0  0
 30 27  1  0  0  0  0
 31 34  1  0  0  0  0
 32 31  1  0  0  0  0
 32 36  1  1  0  0  0
 35 31  1  0  0  0  0
 37 38  1  0  0  0  0
 37 39  1  0  0  0  0
 37 32  1  0  0  0  0
 40 37  1  0  0  0  0
M  END
>  <minimizedAffinity>
-5.77749109

>  <minimizedRMSD>
0.289927959

$$$$
