
 OpenBabel03232520373D

 14 14  0  0  0  0  0  0  0  0999 V2000
   44.8300   34.8900   45.5320 C   0  0  0  0  0  0  0  0  0  0  0  0
   45.4840   34.8790   44.2680 C   0  0  0  0  0  0  0  0  0  0  0  0
   46.4480   33.9070   44.0130 C   0  0  0  0  0  0  0  0  0  0  0  0
   46.7340   32.9920   44.9880 N   0  0  0  0  0  0  0  0  0  0  0  0
   46.0930   33.0320   46.1770 C   0  0  0  0  0  0  0  0  0  0  0  0
   45.1680   33.9510   46.4460 N   0  0  0  0  0  0  0  0  0  0  0  0
   44.0910   35.6580   45.6910 H   0  0  0  0  0  0  0  0  0  0  0  0
   46.9500   33.8840   43.0640 H   0  0  0  0  0  0  0  0  0  0  0  0
   46.3580   32.0660   47.2810 C   0  0  0  0  0  0  0  0  0  0  0  0
   47.5950   32.4010   48.0490 C   0  0  0  0  0  0  0  0  0  0  0  0
   46.3330   30.6750   46.7020 C   0  0  0  0  0  0  0  0  0  0  0  0
   45.1450   32.1790   48.2070 C   0  0  0  0  0  0  0  0  0  0  0  0
   45.0640   36.1120   43.0190 S   0  0  0  0  0  0  0  0  0  0  0  0
   43.7920   36.6280   43.3440 H   0  0  0  0  0  0  0  0  0  0  0  0
  1  7  1  0  0  0  0
  1  6  1  0  0  0  0
  2  1  2  0  0  0  0
  3  2  1  0  0  0  0
  3  4  2  0  0  0  0
  4  5  1  0  0  0  0
  5  6  2  0  0  0  0
  5  9  1  0  0  0  0
  8  3  1  0  0  0  0
  9 10  1  0  0  0  0
  9 12  1  0  0  0  0
 11  9  1  0  0  0  0
 13 14  1  0  0  0  0
 13  2  1  0  0  0  0
M  END
>  <minimizedAffinity>
-3.65690804

>  <minimizedRMSD>
1.86253333

$$$$
