
 OpenBabel03232521003D

 41 44  0  0  1  0  0  0  0  0999 V2000
   45.4010   32.8590   47.5090 C   0  0  0  0  0  0  0  0  0  0  0  0
   45.9250   32.6110   46.2840 C   0  0  0  0  0  0  0  0  0  0  0  0
   46.1630   31.2610   46.0110 C   0  0  0  0  0  0  0  0  0  0  0  0
   45.8970   30.2590   46.8850 N   0  0  0  0  0  0  0  0  0  0  0  0
   45.3610   30.5690   48.1250 C   0  0  0  0  0  0  0  0  0  0  0  0
   45.1280   31.8480   48.4060 N   0  0  0  0  0  0  0  0  0  0  0  0
   45.1080   29.5390   49.0730 N   0  0  0  0  0  0  0  0  0  0  0  0
   45.1790   33.8600   47.8370 H   0  0  0  0  0  0  0  0  0  0  0  0
   44.7830   28.6410   48.6090 H   0  0  0  0  0  0  0  0  0  0  0  0
   45.2750   29.8120   50.0680 H   0  0  0  0  0  0  0  0  0  0  0  0
   46.1740   33.5730   45.2640 C   0  0  2  0  0  0  0  0  0  0  0  0
   44.9600   34.6590   45.5010 C   0  0  0  0  0  0  0  0  0  0  0  0
   44.7340   35.6010   44.4410 C   0  0  0  0  0  0  0  0  0  0  0  0
   45.5400   35.5470   43.2190 C   0  0  1  0  0  0  0  0  0  0  0  0
   46.6010   34.5460   43.1650 C   0  0  0  0  0  0  0  0  0  0  0  0
   46.1520   33.3040   43.8980 C   0  0  0  0  0  0  0  0  0  0  0  0
   46.9590   34.3070   45.6060 H   0  0  0  0  0  0  0  0  0  0  0  0
   44.2950   34.7700   46.3450 H   0  0  0  0  0  0  0  0  0  0  0  0
   43.9600   36.3200   44.5560 H   0  0  0  0  0  0  0  0  0  0  0  0
   45.9590   36.5580   43.0520 H   0  0  0  0  0  0  0  0  0  0  0  0
   46.8740   34.3650   42.1030 H   0  0  0  0  0  0  0  0  0  0  0  0
   47.5130   34.9250   43.6810 H   0  0  0  0  0  0  0  0  0  0  0  0
   47.0030   32.6560   43.5590 H   0  0  0  0  0  0  0  0  0  0  0  0
   45.2460   32.8630   43.4410 H   0  0  0  0  0  0  0  0  0  0  0  0
   44.5310   35.2920   42.0610 C   0  0  0  0  0  0  0  0  0  0  0  0
   43.4650   34.5010   42.4470 F   0  0  0  0  0  0  0  0  0  0  0  0
   44.0050   36.5400   41.7270 F   0  0  0  0  0  0  0  0  0  0  0  0
   45.2120   34.8270   40.9490 F   0  0  0  0  0  0  0  0  0  0  0  0
   46.7630   30.5710   44.8800 C   0  0  0  0  0  0  0  0  0  0  0  0
   46.3680   29.8810   43.7790 C   0  0  0  0  0  0  0  0  0  0  0  0
   47.5130   29.4320   43.1170 C   0  0  0  0  0  0  0  0  0  0  0  0
   48.5420   29.8690   43.8440 N   0  0  0  0  0  0  0  0  0  0  0  0
   48.1270   30.5450   44.8890 N   0  0  0  0  0  0  0  0  0  0  0  0
   45.3090   29.8020   43.6140 H   0  0  0  0  0  0  0  0  0  0  0  0
   47.3780   28.8640   42.2140 H   0  0  0  0  0  0  0  0  0  0  0  0
   49.8920   29.5830   43.4480 C   0  0  0  0  0  0  0  0  0  0  0  0
   50.7180   29.4420   44.4920 N   0  0  0  0  0  0  0  0  0  0  0  0
   51.8990   29.1920   44.0990 O   0  0  0  0  0  0  0  0  0  0  0  0
   52.0030   29.1360   42.7510 C   0  0  0  0  0  0  0  0  0  0  0  0
   52.0840   29.0930   41.6990 H   0  0  0  0  0  0  0  0  0  0  0  0
   50.7020   29.3910   42.4080 N   0  0  0  0  0  0  0  0  0  0  0  0
  1  8  1  0  0  0  0
  1  6  1  0  0  0  0
  2  1  2  0  0  0  0
  3  2  1  0  0  0  0
  3  4  2  0  0  0  0
  4  5  1  0  0  0  0
  5  6  2  0  0  0  0
  5  7  1  0  0  0  0
  7 10  1  0  0  0  0
  9  7  1  0  0  0  0
 11 12  1  0  0  0  0
 11 17  1  1  0  0  0
 11  2  1  0  0  0  0
 12 18  1  0  0  0  0
 13 19  1  0  0  0  0
 13 12  2  0  0  0  0
 14 20  1  6  0  0  0
 14 13  1  0  0  0  0
 15 14  1  0  0  0  0
 15 22  1  0  0  0  0
 15 16  1  0  0  0  0
 16 11  1  0  0  0  0
 21 15  1  0  0  0  0
 23 16  1  0  0  0  0
 24 16  1  0  0  0  0
 25 26  1  0  0  0  0
 25 14  1  0  0  0  0
 27 25  1  0  0  0  0
 28 25  1  0  0  0  0
 29 33  2  0  0  0  0
 29  3  1  0  0  0  0
 30 29  1  0  0  0  0
 31 30  2  0  0  0  0
 31 32  1  0  0  0  0
 32 33  1  0  0  0  0
 34 30  1  0  0  0  0
 35 31  1  0  0  0  0
 36 32  1  0  0  0  0
 36 37  2  0  0  0  0
 38 37  1  0  0  0  0
 39 38  1  0  0  0  0
 40 39  1  0  0  0  0
 41 39  2  0  0  0  0
 41 36  1  0  0  0  0
M  END
>  <minimizedAffinity>
-5.93571901

>  <minimizedRMSD>
0.0377310365

$$$$
