
 OpenBabel03232520493D

 27 28  0  0  1  0  0  0  0  0999 V2000
   46.4560   32.7690   45.6160 C   0  0  2  0  0  0  0  0  0  0  0  0
   45.6090   33.9860   45.9020 C   0  0  0  0  0  0  0  0  0  0  0  0
   44.9070   34.5890   44.7870 C   0  0  0  0  0  0  0  0  0  0  0  0
   45.0360   34.0130   43.4480 C   0  0  2  0  0  0  0  0  0  0  0  0
   45.9430   32.8670   43.2850 C   0  0  0  0  0  0  0  0  0  0  0  0
   45.8210   31.9670   44.5200 C   0  0  0  0  0  0  0  0  0  0  0  0
   47.4710   33.1120   45.2520 H   0  0  0  0  0  0  0  0  0  0  0  0
   45.4070   34.5300   46.8170 H   0  0  0  0  0  0  0  0  0  0  0  0
   44.3030   35.4450   44.9530 H   0  0  0  0  0  0  0  0  0  0  0  0
   44.0040   33.6730   43.1440 H   0  0  0  0  0  0  0  0  0  0  0  0
   47.0170   33.1680   43.2410 H   0  0  0  0  0  0  0  0  0  0  0  0
   45.6410   32.2200   42.4400 H   0  0  0  0  0  0  0  0  0  0  0  0
   46.2330   30.9850   44.3410 H   0  0  0  0  0  0  0  0  0  0  0  0
   44.7120   31.9610   44.7360 H   0  0  0  0  0  0  0  0  0  0  0  0
   45.9920   32.3680   48.0170 C   0  0  0  0  0  0  0  0  0  0  0  0
   46.7120   32.0480   46.8660 C   0  0  0  0  0  0  0  0  0  0  0  0
   47.6740   31.0360   46.9650 C   0  0  0  0  0  0  0  0  0  0  0  0
   47.8690   30.4150   48.1560 N   0  0  0  0  0  0  0  0  0  0  0  0
   47.1540   30.7520   49.2500 C   0  0  0  0  0  0  0  0  0  0  0  0
   46.2270   31.7170   49.1790 N   0  0  0  0  0  0  0  0  0  0  0  0
   45.2280   33.1340   48.0470 H   0  0  0  0  0  0  0  0  0  0  0  0
   48.2720   30.7280   46.1250 H   0  0  0  0  0  0  0  0  0  0  0  0
   47.4040   30.1840   50.1360 H   0  0  0  0  0  0  0  0  0  0  0  0
   45.4170   35.0980   42.4530 C   0  0  0  0  0  0  0  0  0  0  0  0
   45.1800   36.4820   43.0420 C   0  0  0  0  0  0  0  0  0  0  0  0
   46.8730   35.0070   42.0690 C   0  0  0  0  0  0  0  0  0  0  0  0
   44.5900   35.0040   41.1920 C   0  0  0  0  0  0  0  0  0  0  0  0
  1  7  1  6  0  0  0
  1  2  1  0  0  0  0
  1 16  1  0  0  0  0
  2  8  1  0  0  0  0
  3  9  1  0  0  0  0
  3  2  2  0  0  0  0
  4 10  1  6  0  0  0
  4  3  1  0  0  0  0
  5  4  1  0  0  0  0
  5  6  1  0  0  0  0
  6 14  1  0  0  0  0
  6  1  1  0  0  0  0
 11  5  1  0  0  0  0
 12  5  1  0  0  0  0
 13  6  1  0  0  0  0
 15 21  1  0  0  0  0
 15 20  1  0  0  0  0
 16 17  1  0  0  0  0
 16 15  2  0  0  0  0
 17 18  2  0  0  0  0
 18 19  1  0  0  0  0
 19 23  1  0  0  0  0
 20 19  2  0  0  0  0
 22 17  1  0  0  0  0
 24 25  1  0  0  0  0
 24  4  1  0  0  0  0
 26 24  1  0  0  0  0
 27 24  1  0  0  0  0
M  END
>  <minimizedAffinity>
-4.48882389

>  <minimizedRMSD>
1.9034934

$$$$
