REMARK  Name = 
REMARK  3 active torsions:
REMARK  status: ('A' for Active; 'I' for Inactive)
REMARK    1  A    between atoms: C_1  and  C_8
REMARK    2  A    between atoms: C_4  and  C_19
REMARK    3  A    between atoms: C_9  and  C_14
REMARK                            x       y       z     vdW  Elec       q    Type
REMARK                         _______ _______ _______ _____ _____    ______ ____
ROOT
ATOM      1  C   UNL     1      45.400  32.884  47.530  0.00  0.00    +0.000 A 
ATOM      2  C   UNL     1      45.920  32.636  46.298  0.00  0.00    +0.000 A 
ATOM      3  C   UNL     1      46.154  31.285  46.028  0.00  0.00    +0.000 A 
ATOM      4  N   UNL     1      45.890  30.283  46.905  0.00  0.00    +0.000 NA
ATOM      5  C   UNL     1      45.360  30.588  48.150  0.00  0.00    +0.000 A 
ATOM      6  N   UNL     1      45.131  31.867  48.428  0.00  0.00    +0.000 NA
ATOM      7  N   UNL     1      45.083  29.568  49.090  0.00  0.00    +0.000 N 
ATOM      8  H   UNL     1      45.185  33.893  47.845  0.00  0.00    +0.000 HD
ATOM      9  H   UNL     1      44.315  29.646  49.774  0.00  0.00    +0.000 HD
ATOM     10  H   UNL     1      45.700  28.704  49.073  0.00  0.00    +0.000 HD
ENDROOT
BRANCH   2  11
ATOM     11  C   UNL     1      46.160  33.600  45.279  0.00  0.00    +0.000 C 
ATOM     12  C   UNL     1      44.921  34.663  45.499  0.00  0.00    +0.000 C 
ATOM     13  C   UNL     1      44.684  35.594  44.431  0.00  0.00    +0.000 C 
ATOM     14  C   UNL     1      45.504  35.548  43.218  0.00  0.00    +0.000 C 
ATOM     15  C   UNL     1      46.586  34.568  43.178  0.00  0.00    +0.000 C 
ATOM     16  C   UNL     1      46.152  33.321  43.913  0.00  0.00    +0.000 C 
ATOM     17  H   UNL     1      46.960  34.322  45.622  0.00  0.00    +0.000 HD
ATOM     18  H   UNL     1      44.230  34.793  46.323  0.00  0.00    +0.000 HD
ATOM     19  H   UNL     1      43.897  36.296  44.535  0.00  0.00    +0.000 HD
ATOM     20  H   UNL     1      45.914  36.570  43.027  0.00  0.00    +0.000 HD
ATOM     21  H   UNL     1      47.558  34.921  43.593  0.00  0.00    +0.000 HD
ATOM     22  H   UNL     1      46.822  34.358  42.093  0.00  0.00    +0.000 HD
ATOM     23  H   UNL     1      47.026  32.694  43.592  0.00  0.00    +0.000 HD
ATOM     24  H   UNL     1      45.214  32.969  43.435  0.00  0.00    +0.000 HD
BRANCH  14  25
ATOM     25  C   UNL     1      44.514  35.266  42.049  0.00  0.00    +0.000 C 
ATOM     26  F   UNL     1      43.459  34.453  42.427  0.00  0.00    +0.000 F 
ATOM     27  F   UNL     1      43.960  36.496  41.704  0.00  0.00    +0.000 F 
ATOM     28  F   UNL     1      45.213  34.814  40.946  0.00  0.00    +0.000 F 
ENDBRANCH  14  25
ENDBRANCH   2  11
BRANCH   3  29
ATOM     29  C   UNL     1      46.751  30.598  44.898  0.00  0.00    +0.000 A 
ATOM     30  C   UNL     1      46.367  29.921  43.786  0.00  0.00    +0.000 A 
ATOM     31  C   UNL     1      47.517  29.469  43.126  0.00  0.00    +0.000 A 
ATOM     32  N   UNL     1      48.539  29.893  43.868  0.00  0.00    +0.000 N 
ATOM     33  N   UNL     1      48.114  30.560  44.916  0.00  0.00    +0.000 NA
ATOM     34  H   UNL     1      45.300  29.845  43.601  0.00  0.00    +0.000 HD
ATOM     35  H   UNL     1      47.427  28.902  42.211  0.00  0.00    +0.000 HD
ATOM     36  H   UNL     1      52.063  27.916  41.807  0.00  0.00    +0.000 HD
ATOM     37  N   UNL     1      51.533  28.570  42.434  0.00  0.00    +0.000 N 
ATOM     38  N   UNL     1      50.216  28.640  42.610  0.00  0.00    +0.000 NA
ATOM     39  C   UNL     1      49.909  29.618  43.505  0.00  0.00    +0.000 A 
ATOM     40  C   UNL     1      51.097  30.190  43.910  0.00  0.00    +0.000 A 
ATOM     41  C   UNL     1      52.087  29.511  43.222  0.00  0.00    +0.000 A 
ATOM     42  H   UNL     1      53.120  29.772  43.364  0.00  0.00    +0.000 HD
ENDBRANCH   3  29
TORSDOF 3
