
 OpenBabel03232520273D

 48 53  0  0  1  0  0  0  0  0999 V2000
   49.1620   35.6850   41.9000 C   0  0  0  0  0  0  0  0  0  0  0  0
   48.5400   36.3850   42.4700 H   0  0  0  0  0  0  0  0  0  0  0  0
   49.9170   36.2730   41.3230 H   0  0  0  0  0  0  0  0  0  0  0  0
   47.0070   34.5310   41.2520 C   0  0  0  0  0  0  0  0  0  0  0  0
   48.2760   34.9970   40.9410 C   0  0  0  0  0  0  0  0  0  0  0  0
   48.5560   34.7310   39.6770 N   0  0  0  0  0  0  0  0  0  0  0  0
   47.4860   34.0980   39.1590 C   0  0  0  0  0  0  0  0  0  0  0  0
   47.2730   33.6060   37.8680 C   0  0  0  0  0  0  0  0  0  0  0  0
   46.0800   32.9930   37.5960 C   0  0  0  0  0  0  0  0  0  0  0  0
   45.0530   32.8210   38.5130 C   0  0  0  0  0  0  0  0  0  0  0  0
   45.3220   33.3270   39.7700 C   0  0  0  0  0  0  0  0  0  0  0  0
   46.4880   33.9530   40.1210 C   0  0  0  0  0  0  0  0  0  0  0  0
   49.4230   34.9470   39.1330 H   0  0  0  0  0  0  0  0  0  0  0  0
   48.0420   33.7120   37.1090 H   0  0  0  0  0  0  0  0  0  0  0  0
   45.9490   32.6230   36.5850 H   0  0  0  0  0  0  0  0  0  0  0  0
   44.1260   32.3320   38.2570 H   0  0  0  0  0  0  0  0  0  0  0  0
   44.5850   33.2430   40.5530 H   0  0  0  0  0  0  0  0  0  0  0  0
   44.8120   35.8080   43.9950 C   0  0  0  0  0  0  0  0  0  0  0  0
   45.4670   35.7240   42.7570 C   0  0  0  0  0  0  0  0  0  0  0  0
   46.3180   34.6250   42.5460 C   0  0  0  0  0  0  0  0  0  0  0  0
   46.4830   33.6860   43.5300 N   0  0  0  0  0  0  0  0  0  0  0  0
   45.8110   33.8390   44.7060 C   0  0  0  0  0  0  0  0  0  0  0  0
   44.9910   34.8680   44.9510 N   0  0  0  0  0  0  0  0  0  0  0  0
   44.1700   36.6700   44.1080 H   0  0  0  0  0  0  0  0  0  0  0  0
   45.3190   36.4780   41.9990 H   0  0  0  0  0  0  0  0  0  0  0  0
   45.9540   33.0870   45.4720 H   0  0  0  0  0  0  0  0  0  0  0  0
   49.8870   34.7150   42.7780 C   0  0  0  0  0  0  0  0  0  0  0  0
   50.6210   35.2750   43.3930 H   0  0  0  0  0  0  0  0  0  0  0  0
   49.1400   34.2950   43.5150 H   0  0  0  0  0  0  0  0  0  0  0  0
   50.6220   33.6210   42.0420 C   0  0  1  0  0  0  0  0  0  0  0  0
   51.1750   32.4670   42.7200 C   0  0  0  0  0  0  0  0  0  0  0  0
   49.8720   32.2830   42.0160 C   0  0  2  0  0  0  0  0  0  0  0  0
   51.1340   33.9460   41.1000 H   0  0  0  0  0  0  0  0  0  0  0  0
   51.1820   32.4630   43.8440 H   0  0  0  0  0  0  0  0  0  0  0  0
   52.0230   31.9120   42.3050 H   0  0  0  0  0  0  0  0  0  0  0  0
   48.9770   32.1880   42.6480 H   0  0  0  0  0  0  0  0  0  0  0  0
   49.8750   31.5350   40.7890 N   0  0  0  0  0  0  0  0  0  0  0  0
   48.9040   30.9830   40.0420 C   0  0  0  0  0  0  0  0  0  0  0  0
   49.4010   30.3670   38.9540 N   0  0  0  0  0  0  0  0  0  0  0  0
   50.7320   30.5240   38.9990 C   0  0  0  0  0  0  0  0  0  0  0  0
   51.7720   30.1280   38.1840 C   0  0  0  0  0  0  0  0  0  0  0  0
   53.0570   30.4210   38.4590 N   0  0  0  0  0  0  0  0  0  0  0  0
   53.3240   31.1260   39.5710 C   0  0  0  0  0  0  0  0  0  0  0  0
   52.3090   31.5120   40.3650 N   0  0  0  0  0  0  0  0  0  0  0  0
   51.0110   31.2420   40.1300 C   0  0  0  0  0  0  0  0  0  0  0  0
   51.5410   29.3820   37.0010 N   0  0  0  0  0  0  0  0  0  0  0  0
   51.9850   28.5000   36.6520 H   0  0  0  0  0  0  0  0  0  0  0  0
   50.7940   29.8240   36.4080 H   0  0  0  0  0  0  0  0  0  0  0  0
  1  2  1  0  0  0  0
  1 27  1  0  0  0  0
  3  1  1  0  0  0  0
  4 20  1  0  0  0  0
  5  4  2  0  0  0  0
  5  1  1  0  0  0  0
  6  5  1  0  0  0  0
  7  6  1  0  0  0  0
  7 12  1  0  0  0  0
  8  7  2  0  0  0  0
  9  8  1  0  0  0  0
  9 10  2  0  0  0  0
 10 11  1  0  0  0  0
 11 12  2  0  0  0  0
 11 17  1  0  0  0  0
 12  4  1  0  0  0  0
 13  6  1  0  0  0  0
 14  8  1  0  0  0  0
 15  9  1  0  0  0  0
 16 10  1  0  0  0  0
 18 24  1  0  0  0  0
 18 23  1  0  0  0  0
 19 18  2  0  0  0  0
 20 19  1  0  0  0  0
 20 21  2  0  0  0  0
 21 22  1  0  0  0  0
 22 23  2  0  0  0  0
 22 26  1  0  0  0  0
 25 19  1  0  0  0  0
 27 28  1  0  0  0  0
 27 29  1  0  0  0  0
 30 33  1  6  0  0  0
 30 31  1  0  0  0  0
 30 27  1  0  0  0  0
 31 34  1  0  0  0  0
 32 30  1  0  0  0  0
 32 36  1  1  0  0  0
 32 31  1  0  0  0  0
 35 31  1  0  0  0  0
 37 32  1  0  0  0  0
 38 37  1  0  0  0  0
 39 40  1  0  0  0  0
 39 38  2  0  0  0  0
 40 45  1  0  0  0  0
 41 42  1  0  0  0  0
 41 40  2  0  0  0  0
 42 43  2  0  0  0  0
 43 44  1  0  0  0  0
 45 44  2  0  0  0  0
 45 37  1  0  0  0  0
 46 41  1  0  0  0  0
 47 46  1  0  0  0  0
 48 46  1  0  0  0  0
M  END
>  <minimizedAffinity>
-6.30097198

>  <minimizedRMSD>
1.87316799

$$$$
