
 OpenBabel03232521003D

 42 45  0  0  1  0  0  0  0  0999 V2000
   45.3890   32.8400   47.4850 C   0  0  0  0  0  0  0  0  0  0  0  0
   45.9390   32.6050   46.2630 C   0  0  0  0  0  0  0  0  0  0  0  0
   46.2060   31.2590   45.9970 C   0  0  0  0  0  0  0  0  0  0  0  0
   45.9450   30.2500   46.8670 N   0  0  0  0  0  0  0  0  0  0  0  0
   45.3830   30.5430   48.1010 C   0  0  0  0  0  0  0  0  0  0  0  0
   45.1220   31.8160   48.3760 N   0  0  0  0  0  0  0  0  0  0  0  0
   45.1070   29.5160   49.0340 N   0  0  0  0  0  0  0  0  0  0  0  0
   45.1470   33.8440   47.7960 H   0  0  0  0  0  0  0  0  0  0  0  0
   44.3240   29.5770   49.7020 H   0  0  0  0  0  0  0  0  0  0  0  0
   45.7420   28.6650   49.0290 H   0  0  0  0  0  0  0  0  0  0  0  0
   46.1810   33.5750   45.2500 C   0  0  2  0  0  0  0  0  0  0  0  0
   44.9640   34.6570   45.5000 C   0  0  0  0  0  0  0  0  0  0  0  0
   44.7270   35.6030   44.4450 C   0  0  0  0  0  0  0  0  0  0  0  0
   45.5280   35.5550   43.2190 C   0  0  1  0  0  0  0  0  0  0  0  0
   46.5920   34.5570   43.1530 C   0  0  0  0  0  0  0  0  0  0  0  0
   46.1470   33.3100   43.8820 C   0  0  0  0  0  0  0  0  0  0  0  0
   46.9980   34.2790   45.5890 H   0  0  0  0  0  0  0  0  0  0  0  0
   44.2880   34.7900   46.3360 H   0  0  0  0  0  0  0  0  0  0  0  0
   43.9540   36.3170   44.5680 H   0  0  0  0  0  0  0  0  0  0  0  0
   45.9530   36.5720   43.0330 H   0  0  0  0  0  0  0  0  0  0  0  0
   47.5760   34.8890   43.5570 H   0  0  0  0  0  0  0  0  0  0  0  0
   46.8080   34.3540   42.0630 H   0  0  0  0  0  0  0  0  0  0  0  0
   47.0050   32.6710   43.5410 H   0  0  0  0  0  0  0  0  0  0  0  0
   45.1960   32.9790   43.4150 H   0  0  0  0  0  0  0  0  0  0  0  0
   44.5160   35.3020   42.0630 C   0  0  0  0  0  0  0  0  0  0  0  0
   43.4440   34.5170   42.4530 F   0  0  0  0  0  0  0  0  0  0  0  0
   43.9900   36.5470   41.7270 F   0  0  0  0  0  0  0  0  0  0  0  0
   45.1880   34.8340   40.9500 F   0  0  0  0  0  0  0  0  0  0  0  0
   46.8410   30.5860   44.8790 C   0  0  0  0  0  0  0  0  0  0  0  0
   46.4970   29.8350   43.8020 C   0  0  0  0  0  0  0  0  0  0  0  0
   47.6700   29.4640   43.1310 C   0  0  0  0  0  0  0  0  0  0  0  0
   48.6640   30.0070   43.8330 N   0  0  0  0  0  0  0  0  0  0  0  0
   48.2010   30.6720   44.8650 N   0  0  0  0  0  0  0  0  0  0  0  0
   45.4380   29.6550   43.6450 H   0  0  0  0  0  0  0  0  0  0  0  0
   47.6140   28.8560   42.2400 H   0  0  0  0  0  0  0  0  0  0  0  0
   52.3200   29.7770   41.1570 H   0  0  0  0  0  0  0  0  0  0  0  0
   51.7410   29.7580   42.0330 N   0  0  0  0  0  0  0  0  0  0  0  0
   50.4290   29.9440   42.1450 N   0  0  0  0  0  0  0  0  0  0  0  0
   50.0460   29.8430   43.4470 C   0  0  0  0  0  0  0  0  0  0  0  0
   51.1790   29.5810   44.1880 C   0  0  0  0  0  3  0  0  0  0  0  0
   52.2150   29.5340   43.2740 C   0  0  0  0  0  0  0  0  0  0  0  0
   53.2200   29.3410   43.6040 H   0  0  0  0  0  0  0  0  0  0  0  0
  1  8  1  0  0  0  0
  1  6  1  0  0  0  0
  2  1  2  0  0  0  0
  3  2  1  0  0  0  0
  3  4  2  0  0  0  0
  4  5  1  0  0  0  0
  5  6  2  0  0  0  0
  5  7  1  0  0  0  0
  7  9  1  0  0  0  0
 10  7  1  0  0  0  0
 11 12  1  0  0  0  0
 11 17  1  1  0  0  0
 11  2  1  0  0  0  0
 12 18  1  0  0  0  0
 13 19  1  0  0  0  0
 13 12  2  0  0  0  0
 14 20  1  6  0  0  0
 14 13  1  0  0  0  0
 15 14  1  0  0  0  0
 15 21  1  0  0  0  0
 15 16  1  0  0  0  0
 16 11  1  0  0  0  0
 22 15  1  0  0  0  0
 23 16  1  0  0  0  0
 24 16  1  0  0  0  0
 25 26  1  0  0  0  0
 25 14  1  0  0  0  0
 27 25  1  0  0  0  0
 28 25  1  0  0  0  0
 29  3  1  0  0  0  0
 30 29  1  0  0  0  0
 31 30  2  0  0  0  0
 31 32  1  0  0  0  0
 32 33  1  0  0  0  0
 33 29  2  0  0  0  0
 34 30  1  0  0  0  0
 35 31  1  0  0  0  0
 36 37  1  0  0  0  0
 37 38  1  0  0  0  0
 37 41  1  0  0  0  0
 38 39  2  0  0  0  0
 39 32  1  0  0  0  0
 39 40  1  0  0  0  0
 41 42  1  0  0  0  0
 41 40  2  0  0  0  0
M  END
>  <minimizedAffinity>
-5.98446751

>  <minimizedRMSD>
0.172155872

$$$$
