
     RDKit          3D

 43 46  0  0  0  0  0  0  0  0999 V2000
   46.1596   33.5997   45.2790 C   0  0  2  0  0  0  0  0  0  0  0  0
   44.9210   34.6635   45.4989 C   0  0  0  0  0  0  0  0  0  0  0  0
   44.6838   35.5938   44.4311 C   0  0  0  0  0  0  0  0  0  0  0  0
   45.5041   35.5476   43.2177 C   0  0  1  0  0  0  0  0  0  0  0  0
   46.5863   34.5680   43.1783 C   0  0  0  0  0  0  0  0  0  0  0  0
   46.1516   33.3212   43.9135 C   0  0  0  0  0  0  0  0  0  0  0  0
   45.4002   32.8839   47.5296 C   0  0  0  0  0  0  0  0  0  0  0  0
   45.9196   32.6361   46.2981 C   0  0  0  0  0  0  0  0  0  0  0  0
   46.1535   31.2850   46.0275 C   0  0  0  0  0  0  0  0  0  0  0  0
   45.8902   30.2833   46.9050 N   0  0  0  0  0  0  0  0  0  0  0  0
   45.3600   30.5876   48.1499 C   0  0  0  0  0  0  0  0  0  0  0  0
   45.1306   31.8666   48.4285 N   0  0  0  0  0  0  0  0  0  0  0  0
   45.0832   29.5682   49.0903 N   0  0  0  0  0  0  0  0  0  0  0  0
   46.7512   30.5982   44.8982 C   0  0  0  0  0  0  0  0  0  0  0  0
   46.3667   29.9208   43.7863 C   0  0  0  0  0  0  0  0  0  0  0  0
   47.5167   29.4688   43.1263 C   0  0  0  0  0  0  0  0  0  0  0  0
   48.5394   29.8935   43.8685 N   0  0  0  0  0  0  0  0  0  0  0  0
   48.1141   30.5602   44.9156 N   0  0  0  0  0  0  0  0  0  0  0  0
   44.5141   35.2657   42.0490 C   0  0  0  0  0  0  0  0  0  0  0  0
   43.4589   34.4531   42.4274 F   0  0  0  0  0  0  0  0  0  0  0  0
   43.9602   36.4965   41.7040 F   0  0  0  0  0  0  0  0  0  0  0  0
   45.2130   34.8137   40.9455 F   0  0  0  0  0  0  0  0  0  0  0  0
   46.9604   34.3225   45.6223 H   0  0  0  0  0  0  0  0  0  0  0  0
   44.2295   34.7934   46.3226 H   0  0  0  0  0  0  0  0  0  0  0  0
   43.8974   36.2961   44.5345 H   0  0  0  0  0  0  0  0  0  0  0  0
   45.9145   36.5703   43.0274 H   0  0  0  0  0  0  0  0  0  0  0  0
   47.5580   34.9207   43.5930 H   0  0  0  0  0  0  0  0  0  0  0  0
   46.8218   34.3579   42.0931 H   0  0  0  0  0  0  0  0  0  0  0  0
   47.0259   32.6943   43.5923 H   0  0  0  0  0  0  0  0  0  0  0  0
   45.2135   32.9689   43.4354 H   0  0  0  0  0  0  0  0  0  0  0  0
   45.1853   33.8927   47.8446 H   0  0  0  0  0  0  0  0  0  0  0  0
   44.3146   29.6463   49.7741 H   0  0  0  0  0  0  0  0  0  0  0  0
   45.7005   28.7036   49.0727 H   0  0  0  0  0  0  0  0  0  0  0  0
   45.2995   29.8446   43.6012 H   0  0  0  0  0  0  0  0  0  0  0  0
   47.4267   28.9023   42.2105 H   0  0  0  0  0  0  0  0  0  0  0  0
   52.8406   30.6693   42.6542 H   0  0  0  0  0  0  0  0  0  0  0  0
   51.9749   30.1365   42.9157 N   0  0  0  0  0  0  0  0  0  0  0  0
   50.7773   30.6284   43.2216 N   0  0  0  0  0  0  0  0  0  0  0  0
   49.9093   29.6184   43.5055 C   0  0  0  0  0  0  0  0  0  0  0  0
   50.6013   28.4336   43.3698 C   0  0  0  0  0  0  0  0  0  0  0  0
   51.8845   28.7955   43.0015 C   0  0  0  0  0  0  0  0  0  0  0  0
   52.6314   28.0407   42.8312 H   0  0  0  0  0  0  0  0  0  0  0  0
   50.0884   27.5023   43.5527 H   0  0  0  0  0  0  0  0  0  0  0  0
  1  2  1  0
  1  8  1  0
  3  2  2  0
  4  3  1  0
  5  4  1  0
  5  6  1  0
  6  1  1  0
  7 12  2  0
  8  7  1  0
  9  8  2  0
  9 10  1  0
 10 11  2  0
 11 12  1  0
 11 13  1  0
 14 18  2  0
 14  9  1  0
 15 14  1  0
 16 15  2  0
 16 17  1  0
 17 18  1  0
 19 20  1  0
 19  4  1  0
 21 19  1  0
 22 19  1  0
  1 23  1  1
  2 24  1  0
  3 25  1  0
  4 26  1  6
  5 27  1  0
  5 28  1  0
  6 29  1  0
  6 30  1  0
  7 31  1  0
 13 32  1  0
 13 33  1  0
 15 34  1  0
 16 35  1  0
 36 37  1  0
 37 38  1  0
 38 39  2  0
 39 40  1  0
 40 41  2  0
 41 42  1  0
 41 37  1  0
 40 43  1  0
 17 39  1  0
M  ISO  8  23  13  24  13  25  13  26  13  27  13  28  13  29  13  30  13
M  ISO  5  31  14  34  14  35  14  36   9  42  14
M  END
>  <DihAtoms>  (1) 
15,16,38,37

>  <DihDeg>  (1) 
-122.39979963409995

$$$$
