
 OpenBabel03232521003D

 42 45  0  0  1  0  0  0  0  0999 V2000
   45.3870   32.8860   47.4200 C   0  0  0  0  0  0  0  0  0  0  0  0
   45.9360   32.6360   46.2010 C   0  0  0  0  0  0  0  0  0  0  0  0
   46.2170   31.2890   45.9570 C   0  0  0  0  0  0  0  0  0  0  0  0
   45.9690   30.2930   46.8440 N   0  0  0  0  0  0  0  0  0  0  0  0
   45.4070   30.6000   48.0750 C   0  0  0  0  0  0  0  0  0  0  0  0
   45.1330   31.8750   48.3290 N   0  0  0  0  0  0  0  0  0  0  0  0
   45.1450   29.5860   49.0260 N   0  0  0  0  0  0  0  0  0  0  0  0
   45.1350   33.8920   47.7150 H   0  0  0  0  0  0  0  0  0  0  0  0
   44.3630   29.6500   49.6950 H   0  0  0  0  0  0  0  0  0  0  0  0
   45.7890   28.7410   49.0330 H   0  0  0  0  0  0  0  0  0  0  0  0
   46.1650   33.5920   45.1720 C   0  0  2  0  0  0  0  0  0  0  0  0
   44.9690   34.6920   45.4390 C   0  0  0  0  0  0  0  0  0  0  0  0
   44.7180   35.6290   44.3800 C   0  0  0  0  0  0  0  0  0  0  0  0
   45.4870   35.5580   43.1350 C   0  0  1  0  0  0  0  0  0  0  0  0
   46.5360   34.5450   43.0540 C   0  0  0  0  0  0  0  0  0  0  0  0
   46.0930   33.3120   43.8080 C   0  0  0  0  0  0  0  0  0  0  0  0
   47.0000   34.2890   45.4810 H   0  0  0  0  0  0  0  0  0  0  0  0
   44.3160   34.8440   46.2900 H   0  0  0  0  0  0  0  0  0  0  0  0
   43.9580   36.3550   44.5140 H   0  0  0  0  0  0  0  0  0  0  0  0
   45.9200   36.5660   42.9260 H   0  0  0  0  0  0  0  0  0  0  0  0
   47.5340   34.8680   43.4290 H   0  0  0  0  0  0  0  0  0  0  0  0
   46.7210   34.3270   41.9600 H   0  0  0  0  0  0  0  0  0  0  0  0
   46.9340   32.6580   43.4530 H   0  0  0  0  0  0  0  0  0  0  0  0
   45.1270   32.9890   43.3680 H   0  0  0  0  0  0  0  0  0  0  0  0
   44.4420   35.3050   42.0080 C   0  0  0  0  0  0  0  0  0  0  0  0
   43.3790   34.5260   42.4290 F   0  0  0  0  0  0  0  0  0  0  0  0
   43.9130   36.5520   41.6830 F   0  0  0  0  0  0  0  0  0  0  0  0
   45.0820   34.8310   40.8780 F   0  0  0  0  0  0  0  0  0  0  0  0
   46.8560   30.6040   44.8480 C   0  0  0  0  0  0  0  0  0  0  0  0
   46.5370   29.7350   43.8560 C   0  0  0  0  0  0  0  0  0  0  0  0
   47.7020   29.4460   43.1330 C   0  0  0  0  0  0  0  0  0  0  0  0
   48.6660   30.1520   43.7210 N   0  0  0  0  0  0  0  0  0  0  0  0
   48.1930   30.8420   44.7330 N   0  0  0  0  0  0  0  0  0  0  0  0
   45.4990   29.4250   43.7880 H   0  0  0  0  0  0  0  0  0  0  0  0
   47.6620   28.7660   42.2940 H   0  0  0  0  0  0  0  0  0  0  0  0
   52.6020   31.6200   42.0070 H   0  0  0  0  0  0  0  0  0  0  0  0
   51.8900   30.9610   42.4070 N   0  0  0  0  0  0  0  0  0  0  0  0
   50.6430   31.2360   42.7810 N   0  0  0  0  0  0  0  0  0  0  0  0
   50.0310   30.1150   43.2510 C   0  0  0  0  0  0  0  0  0  0  0  0
   50.9440   29.0850   43.1690 C   0  0  0  0  0  3  0  0  0  0  0  0
   52.0910   29.6500   42.6380 C   0  0  0  0  0  0  0  0  0  0  0  0
   52.9630   29.0440   42.4710 H   0  0  0  0  0  0  0  0  0  0  0  0
  1  8  1  0  0  0  0
  1  6  1  0  0  0  0
  2  1  2  0  0  0  0
  3  2  1  0  0  0  0
  3  4  2  0  0  0  0
  4  5  1  0  0  0  0
  5  6  2  0  0  0  0
  5  7  1  0  0  0  0
  7 10  1  0  0  0  0
  7  9  1  0  0  0  0
 11 12  1  0  0  0  0
 11 17  1  1  0  0  0
 11  2  1  0  0  0  0
 12 18  1  0  0  0  0
 13 19  1  0  0  0  0
 13 12  2  0  0  0  0
 14 20  1  6  0  0  0
 14 13  1  0  0  0  0
 15 14  1  0  0  0  0
 15 21  1  0  0  0  0
 15 16  1  0  0  0  0
 16 11  1  0  0  0  0
 22 15  1  0  0  0  0
 23 16  1  0  0  0  0
 24 16  1  0  0  0  0
 25 26  1  0  0  0  0
 25 14  1  0  0  0  0
 27 25  1  0  0  0  0
 28 25  1  0  0  0  0
 29  3  1  0  0  0  0
 30 29  1  0  0  0  0
 31 32  1  0  0  0  0
 31 30  2  0  0  0  0
 32 33  1  0  0  0  0
 33 29  2  0  0  0  0
 34 30  1  0  0  0  0
 35 31  1  0  0  0  0
 36 37  1  0  0  0  0
 37 41  1  0  0  0  0
 37 38  1  0  0  0  0
 38 39  2  0  0  0  0
 39 32  1  0  0  0  0
 40 39  1  0  0  0  0
 41 40  2  0  0  0  0
 42 41  1  0  0  0  0
M  END
>  <minimizedAffinity>
-6.18639755

>  <minimizedRMSD>
0.378076285

$$$$
