
 OpenBabel03232521003D

 42 45  0  0  1  0  0  0  0  0999 V2000
   45.4320   32.9110   47.3920 C   0  0  0  0  0  0  0  0  0  0  0  0
   45.9550   32.6510   46.1640 C   0  0  0  0  0  0  0  0  0  0  0  0
   46.2160   31.3000   45.9180 C   0  0  0  0  0  0  0  0  0  0  0  0
   45.9720   30.3090   46.8130 N   0  0  0  0  0  0  0  0  0  0  0  0
   45.4380   30.6260   48.0530 C   0  0  0  0  0  0  0  0  0  0  0  0
   45.1840   31.9050   48.3080 N   0  0  0  0  0  0  0  0  0  0  0  0
   45.1820   29.6170   49.0110 N   0  0  0  0  0  0  0  0  0  0  0  0
   45.1970   33.9210   47.6890 H   0  0  0  0  0  0  0  0  0  0  0  0
   44.4130   29.6920   49.6940 H   0  0  0  0  0  0  0  0  0  0  0  0
   45.8160   28.7660   49.0080 H   0  0  0  0  0  0  0  0  0  0  0  0
   46.1750   33.6010   45.1280 C   0  0  2  0  0  0  0  0  0  0  0  0
   44.9800   34.7020   45.3980 C   0  0  0  0  0  0  0  0  0  0  0  0
   44.7210   35.6340   44.3350 C   0  0  0  0  0  0  0  0  0  0  0  0
   45.4810   35.5560   43.0850 C   0  0  1  0  0  0  0  0  0  0  0  0
   46.5300   34.5440   43.0020 C   0  0  0  0  0  0  0  0  0  0  0  0
   46.0940   33.3150   43.7660 C   0  0  0  0  0  0  0  0  0  0  0  0
   47.0120   34.3010   45.4270 H   0  0  0  0  0  0  0  0  0  0  0  0
   44.3330   34.8580   46.2530 H   0  0  0  0  0  0  0  0  0  0  0  0
   43.9610   36.3600   44.4710 H   0  0  0  0  0  0  0  0  0  0  0  0
   45.9110   36.5640   42.8680 H   0  0  0  0  0  0  0  0  0  0  0  0
   47.5310   34.8700   43.3680 H   0  0  0  0  0  0  0  0  0  0  0  0
   46.7080   34.3200   41.9080 H   0  0  0  0  0  0  0  0  0  0  0  0
   46.9330   32.6600   43.4080 H   0  0  0  0  0  0  0  0  0  0  0  0
   45.1250   32.9880   43.3350 H   0  0  0  0  0  0  0  0  0  0  0  0
   44.4280   35.2970   41.9670 C   0  0  0  0  0  0  0  0  0  0  0  0
   43.3770   34.5050   42.3950 F   0  0  0  0  0  0  0  0  0  0  0  0
   43.8830   36.5390   41.6510 F   0  0  0  0  0  0  0  0  0  0  0  0
   45.0630   34.8330   40.8300 F   0  0  0  0  0  0  0  0  0  0  0  0
   46.8250   30.6050   44.7990 C   0  0  0  0  0  0  0  0  0  0  0  0
   46.4870   29.7080   43.8390 C   0  0  0  0  0  0  0  0  0  0  0  0
   47.6290   29.4280   43.0760 C   0  0  0  0  0  0  0  0  0  0  0  0
   48.5990   30.1680   43.6100 N   0  0  0  0  0  0  0  0  0  0  0  0
   48.1510   30.8700   44.6250 N   0  0  0  0  0  0  0  0  0  0  0  0
   45.4540   29.3740   43.8190 H   0  0  0  0  0  0  0  0  0  0  0  0
   47.5710   28.7290   42.2540 H   0  0  0  0  0  0  0  0  0  0  0  0
   52.5810   31.7300   42.0990 H   0  0  0  0  0  0  0  0  0  0  0  0
   51.8360   31.0440   42.3730 N   0  0  0  0  0  0  0  0  0  0  0  0
   50.6220   31.3080   42.8500 N   0  0  0  0  0  0  0  0  0  0  0  0
   49.9450   30.1500   43.0870 C   0  0  0  0  0  0  0  0  0  0  0  0
   50.7800   29.1090   42.7410 C   0  0  0  0  0  3  0  0  0  0  0  0
   51.9480   29.7040   42.2990 C   0  0  0  0  0  0  0  0  0  0  0  0
   52.7720   29.0970   41.9670 H   0  0  0  0  0  0  0  0  0  0  0  0
  1  8  1  0  0  0  0
  1  6  1  0  0  0  0
  2  1  2  0  0  0  0
  3  2  1  0  0  0  0
  3  4  2  0  0  0  0
  4  5  1  0  0  0  0
  5  6  2  0  0  0  0
  5  7  1  0  0  0  0
  7  9  1  0  0  0  0
 10  7  1  0  0  0  0
 11 12  1  0  0  0  0
 11 17  1  1  0  0  0
 11  2  1  0  0  0  0
 12 18  1  0  0  0  0
 13 19  1  0  0  0  0
 13 12  2  0  0  0  0
 14 20  1  6  0  0  0
 14 13  1  0  0  0  0
 15 14  1  0  0  0  0
 15 21  1  0  0  0  0
 15 16  1  0  0  0  0
 16 11  1  0  0  0  0
 22 15  1  0  0  0  0
 23 16  1  0  0  0  0
 24 16  1  0  0  0  0
 25 26  1  0  0  0  0
 25 14  1  0  0  0  0
 27 25  1  0  0  0  0
 28 25  1  0  0  0  0
 29  3  1  0  0  0  0
 30 29  1  0  0  0  0
 31 32  1  0  0  0  0
 31 30  2  0  0  0  0
 32 33  1  0  0  0  0
 33 29  2  0  0  0  0
 34 30  1  0  0  0  0
 35 31  1  0  0  0  0
 36 37  1  0  0  0  0
 37 38  1  0  0  0  0
 38 39  2  0  0  0  0
 39 32  1  0  0  0  0
 40 39  1  0  0  0  0
 41 37  1  0  0  0  0
 41 40  2  0  0  0  0
 42 41  1  0  0  0  0
M  END
>  <minimizedAffinity>
-6.14482021

>  <minimizedRMSD>
0.451186717

$$$$
