
 OpenBabel03232520593D

 42 45  0  0  1  0  0  0  0  0999 V2000
   45.3390   32.8280   47.4610 C   0  0  0  0  0  0  0  0  0  0  0  0
   45.9340   32.6050   46.2590 C   0  0  0  0  0  0  0  0  0  0  0  0
   46.2530   31.2670   46.0090 C   0  0  0  0  0  0  0  0  0  0  0  0
   45.9960   30.2550   46.8760 N   0  0  0  0  0  0  0  0  0  0  0  0
   45.3870   30.5350   48.0910 C   0  0  0  0  0  0  0  0  0  0  0  0
   45.0770   31.8010   48.3490 N   0  0  0  0  0  0  0  0  0  0  0  0
   45.1160   29.5040   49.0210 N   0  0  0  0  0  0  0  0  0  0  0  0
   45.0550   33.8250   47.7590 H   0  0  0  0  0  0  0  0  0  0  0  0
   44.3100   29.5440   49.6630 H   0  0  0  0  0  0  0  0  0  0  0  0
   45.7770   28.6740   49.0400 H   0  0  0  0  0  0  0  0  0  0  0  0
   46.1760   33.5770   45.2480 C   0  0  2  0  0  0  0  0  0  0  0  0
   44.9590   34.6580   45.5000 C   0  0  0  0  0  0  0  0  0  0  0  0
   44.7230   35.6070   44.4470 C   0  0  0  0  0  0  0  0  0  0  0  0
   45.5240   35.5620   43.2210 C   0  0  1  0  0  0  0  0  0  0  0  0
   46.5880   34.5640   43.1530 C   0  0  0  0  0  0  0  0  0  0  0  0
   46.1430   33.3150   43.8790 C   0  0  0  0  0  0  0  0  0  0  0  0
   46.9930   34.2810   45.5880 H   0  0  0  0  0  0  0  0  0  0  0  0
   44.2830   34.7900   46.3360 H   0  0  0  0  0  0  0  0  0  0  0  0
   43.9500   36.3210   44.5720 H   0  0  0  0  0  0  0  0  0  0  0  0
   45.9490   36.5790   43.0370 H   0  0  0  0  0  0  0  0  0  0  0  0
   47.5720   34.8950   43.5580 H   0  0  0  0  0  0  0  0  0  0  0  0
   46.8040   34.3630   42.0620 H   0  0  0  0  0  0  0  0  0  0  0  0
   47.0010   32.6770   43.5370 H   0  0  0  0  0  0  0  0  0  0  0  0
   45.1920   32.9860   43.4110 H   0  0  0  0  0  0  0  0  0  0  0  0
   44.5120   35.3120   42.0640 C   0  0  0  0  0  0  0  0  0  0  0  0
   43.4370   34.5310   42.4540 F   0  0  0  0  0  0  0  0  0  0  0  0
   43.9920   36.5590   41.7270 F   0  0  0  0  0  0  0  0  0  0  0  0
   45.1830   34.8400   40.9530 F   0  0  0  0  0  0  0  0  0  0  0  0
   46.9430   30.6090   44.9150 C   0  0  0  0  0  0  0  0  0  0  0  0
   46.6600   29.8260   43.8430 C   0  0  0  0  0  0  0  0  0  0  0  0
   47.8640   29.5030   43.2030 C   0  0  0  0  0  0  0  0  0  0  0  0
   48.8150   30.1050   43.9160 N   0  0  0  0  0  0  0  0  0  0  0  0
   48.2980   30.7630   44.9280 N   0  0  0  0  0  0  0  0  0  0  0  0
   45.6150   29.5920   43.6680 H   0  0  0  0  0  0  0  0  0  0  0  0
   47.8570   28.8800   42.3210 H   0  0  0  0  0  0  0  0  0  0  0  0
   52.7580   31.0860   41.8990 H   0  0  0  0  0  0  0  0  0  0  0  0
   52.0650   30.5910   42.5130 N   0  0  0  0  0  0  0  0  0  0  0  0
   50.7770   30.8780   42.6840 N   0  0  0  0  0  0  0  0  0  0  0  0
   50.2110   30.0050   43.5620 C   0  0  0  0  0  0  0  0  0  0  0  0
   51.1970   29.1280   43.9620 C   0  0  0  0  0  3  0  0  0  0  0  0
   52.3380   29.5230   43.2880 C   0  0  0  0  0  0  0  0  0  0  0  0
   53.2610   28.9910   43.4290 H   0  0  0  0  0  0  0  0  0  0  0  0
  1  8  1  0  0  0  0
  1  6  1  0  0  0  0
  2  1  2  0  0  0  0
  3  2  1  0  0  0  0
  3  4  2  0  0  0  0
  4  5  1  0  0  0  0
  5  6  2  0  0  0  0
  5  7  1  0  0  0  0
  7 10  1  0  0  0  0
  7  9  1  0  0  0  0
 11 12  1  0  0  0  0
 11 17  1  1  0  0  0
 11  2  1  0  0  0  0
 12 18  1  0  0  0  0
 13 19  1  0  0  0  0
 13 12  2  0  0  0  0
 14 20  1  6  0  0  0
 14 13  1  0  0  0  0
 15 14  1  0  0  0  0
 15 21  1  0  0  0  0
 15 16  1  0  0  0  0
 16 11  1  0  0  0  0
 22 15  1  0  0  0  0
 23 16  1  0  0  0  0
 24 16  1  0  0  0  0
 25 26  1  0  0  0  0
 25 14  1  0  0  0  0
 27 25  1  0  0  0  0
 28 25  1  0  0  0  0
 29 33  2  0  0  0  0
 29  3  1  0  0  0  0
 30 29  1  0  0  0  0
 31 30  2  0  0  0  0
 31 32  1  0  0  0  0
 32 33  1  0  0  0  0
 34 30  1  0  0  0  0
 35 31  1  0  0  0  0
 36 37  1  0  0  0  0
 37 38  1  0  0  0  0
 37 41  1  0  0  0  0
 38 39  2  0  0  0  0
 39 32  1  0  0  0  0
 39 40  1  0  0  0  0
 41 42  1  0  0  0  0
 41 40  2  0  0  0  0
M  END
>  <minimizedAffinity>
-6.12348604

>  <minimizedRMSD>
0.304956108

$$$$
