
 OpenBabel03232520243D

 36 39  0  0  0  0  0  0  0  0999 V2000
   46.8610   34.4920   41.2560 C   0  0  0  0  0  0  0  0  0  0  0  0
   48.1470   34.8450   40.9260 C   0  0  0  0  0  0  0  0  0  0  0  0
   48.4170   34.4660   39.6770 N   0  0  0  0  0  0  0  0  0  0  0  0
   47.3100   33.8690   39.1930 C   0  0  0  0  0  0  0  0  0  0  0  0
   47.0720   33.3030   37.9500 C   0  0  0  0  0  0  0  0  0  0  0  0
   45.8390   32.7520   37.7110 C   0  0  0  0  0  0  0  0  0  0  0  0
   44.8000   32.7150   38.6240 C   0  0  0  0  0  0  0  0  0  0  0  0
   45.1010   33.2970   39.8500 C   0  0  0  0  0  0  0  0  0  0  0  0
   46.3020   33.8650   40.1650 C   0  0  0  0  0  0  0  0  0  0  0  0
   49.3260   34.6230   39.2010 H   0  0  0  0  0  0  0  0  0  0  0  0
   47.8520   33.3060   37.1990 H   0  0  0  0  0  0  0  0  0  0  0  0
   45.6770   32.3180   36.7350 H   0  0  0  0  0  0  0  0  0  0  0  0
   43.8340   32.2730   38.4110 H   0  0  0  0  0  0  0  0  0  0  0  0
   44.3160   33.2970   40.6120 H   0  0  0  0  0  0  0  0  0  0  0  0
   44.8150   36.1220   43.9310 C   0  0  0  0  0  0  0  0  0  0  0  0
   45.4740   35.9040   42.7050 C   0  0  0  0  0  0  0  0  0  0  0  0
   46.1730   34.7230   42.5270 C   0  0  0  0  0  0  0  0  0  0  0  0
   46.1930   33.8140   43.5540 N   0  0  0  0  0  0  0  0  0  0  0  0
   45.5450   34.0620   44.7180 C   0  0  0  0  0  0  0  0  0  0  0  0
   44.8600   35.2010   44.9150 N   0  0  0  0  0  0  0  0  0  0  0  0
   44.2760   37.0460   44.0550 H   0  0  0  0  0  0  0  0  0  0  0  0
   45.4250   36.6440   41.9470 H   0  0  0  0  0  0  0  0  0  0  0  0
   45.5870   33.3090   45.5090 H   0  0  0  0  0  0  0  0  0  0  0  0
   49.0790   35.5380   41.8300 C   0  0  0  0  0  0  0  0  0  0  0  0
   49.9400   35.8950   41.1930 H   0  0  0  0  0  0  0  0  0  0  0  0
   48.6330   36.4700   42.2290 H   0  0  0  0  0  0  0  0  0  0  0  0
   49.5740   34.6330   42.9420 C   0  0  0  0  0  0  0  0  0  0  0  0
   48.7440   34.6030   43.6890 H   0  0  0  0  0  0  0  0  0  0  0  0
   50.3890   35.1890   43.4560 H   0  0  0  0  0  0  0  0  0  0  0  0
   49.9770   33.3470   42.4780 N   0  0  0  0  0  0  0  0  0  0  0  0
   51.1280   33.0610   41.8490 N   0  0  0  0  0  0  0  0  0  0  0  0
   51.1670   31.7500   41.5600 C   0  0  0  0  0  0  0  0  0  0  0  0
   52.0010   31.2490   41.0430 H   0  0  0  0  0  0  0  0  0  0  0  0
   50.0010   31.1470   42.0150 C   0  0  0  0  0  0  0  0  0  0  0  0
   49.2800   32.1980   42.5870 C   0  0  0  0  0  0  0  0  0  0  0  0
   48.3170   32.0220   43.0290 H   0  0  0  0  0  0  0  0  0  0  0  0
  1 17  1  0  0  0  0
  2  1  2  0  0  0  0
  2 24  1  0  0  0  0
  3  2  1  0  0  0  0
  4  3  1  0  0  0  0
  4  9  1  0  0  0  0
  5  4  2  0  0  0  0
  6  5  1  0  0  0  0
  6  7  2  0  0  0  0
  7  8  1  0  0  0  0
  8  9  2  0  0  0  0
  8 14  1  0  0  0  0
  9  1  1  0  0  0  0
 10  3  1  0  0  0  0
 11  5  1  0  0  0  0
 12  6  1  0  0  0  0
 13  7  1  0  0  0  0
 15 21  1  0  0  0  0
 15 20  1  0  0  0  0
 16 15  2  0  0  0  0
 17 16  1  0  0  0  0
 17 18  2  0  0  0  0
 18 19  1  0  0  0  0
 19 20  2  0  0  0  0
 19 23  1  0  0  0  0
 22 16  1  0  0  0  0
 24 26  1  0  0  0  0
 24 27  1  0  0  0  0
 25 24  1  0  0  0  0
 27 29  1  0  0  0  0
 27 28  1  0  0  0  0
 30 35  1  0  0  0  0
 30 27  1  0  0  0  0
 31 30  1  0  0  0  0
 32 31  2  0  0  0  0
 32 34  1  0  0  0  0
 33 32  1  0  0  0  0
 34 35  2  0  0  0  0
 35 36  1  0  0  0  0
M  END
>  <minimizedAffinity>
-5.56702662

>  <minimizedRMSD>
1.09677196

$$$$
