
 OpenBabel03232518093D

 23 24  0  0  0  0  0  0  0  0999 V2000
   48.0590   33.9570   42.0310 C   0  0  0  0  0  0  0  0  0  0  0  0
   47.0840   34.4160   42.9700 C   0  0  0  0  0  0  0  0  0  0  0  0
   46.6910   33.5430   43.9710 C   0  0  0  0  0  0  0  0  0  0  0  0
   47.2460   32.2950   44.0170 N   0  0  0  0  0  0  0  0  0  0  0  0
   48.1650   31.9170   43.1000 C   0  0  0  0  0  0  0  0  0  0  0  0
   48.5660   32.7170   42.1300 N   0  0  0  0  0  0  0  0  0  0  0  0
   46.6540   35.4110   42.9170 H   0  0  0  0  0  0  0  0  0  0  0  0
   48.5380   30.9080   43.2310 H   0  0  0  0  0  0  0  0  0  0  0  0
   48.4030   34.9700   41.0070 C   0  0  0  0  0  0  0  0  0  0  0  0
   49.0840   34.4890   40.2470 H   0  0  0  0  0  0  0  0  0  0  0  0
   47.4880   35.3070   40.5220 H   0  0  0  0  0  0  0  0  0  0  0  0
   49.1990   36.1000   41.6230 C   0  0  0  0  0  0  0  0  0  0  0  0
   50.1420   36.2980   41.0900 H   0  0  0  0  0  0  0  0  0  0  0  0
   49.4290   35.8930   42.6760 H   0  0  0  0  0  0  0  0  0  0  0  0
   48.5870   37.0450   41.5800 H   0  0  0  0  0  0  0  0  0  0  0  0
   45.4970   34.0300   45.1650 S   0  0  0  0  0  0  0  0  0  0  0  0
   45.0500   32.0670   49.6170 H   0  0  0  0  0  0  0  0  0  0  0  0
   45.5030   32.3420   48.7200 N   0  0  0  0  0  0  0  0  0  0  0  0
   44.9330   32.9960   47.7420 N   0  0  0  0  0  0  0  0  0  0  0  0
   45.7980   33.1930   46.7170 C   0  0  0  0  0  0  0  0  0  0  0  0
   47.0180   32.6160   47.0760 C   0  0  0  0  0  0  0  0  0  0  0  0
   46.7760   32.1010   48.3310 C   0  0  0  0  0  0  0  0  0  0  0  0
   47.5440   31.5780   48.8920 H   0  0  0  0  0  0  0  0  0  0  0  0
  1  6  2  0  0  0  0
  1  2  1  0  0  0  0
  2  3  2  0  0  0  0
  3  4  1  0  0  0  0
  3 16  1  0  0  0  0
  5  8  1  0  0  0  0
  5  4  2  0  0  0  0
  6  5  1  0  0  0  0
  7  2  1  0  0  0  0
  9 12  1  0  0  0  0
  9  1  1  0  0  0  0
 10  9  1  0  0  0  0
 11  9  1  0  0  0  0
 12 14  1  0  0  0  0
 13 12  1  0  0  0  0
 15 12  1  0  0  0  0
 16 20  1  0  0  0  0
 18 17  1  0  0  0  0
 19 18  1  0  0  0  0
 20 21  1  0  0  0  0
 20 19  2  0  0  0  0
 21 22  2  0  0  0  0
 22 18  1  0  0  0  0
 22 23  1  0  0  0  0
M  END
>  <minimizedAffinity>
-4.36932945

>  <minimizedRMSD>
2.30090237

$$$$
