
 OpenBabel03232514353D

 35 38  0  0  1  0  0  0  0  0999 V2000
   45.8520   32.7310   46.7630 C   0  0  0  0  0  0  0  0  0  0  0  0
   45.9610   32.7110   45.3800 C   0  0  0  0  0  0  0  0  0  0  0  0
   46.1020   31.4500   44.7340 C   0  0  0  0  0  0  0  0  0  0  0  0
   46.1310   30.3060   45.4740 N   0  0  0  0  0  0  0  0  0  0  0  0
   46.0220   30.3780   46.8340 C   0  0  0  0  0  0  0  0  0  0  0  0
   45.8840   31.5770   47.4630 N   0  0  0  0  0  0  0  0  0  0  0  0
   45.7460   33.6930   47.2140 H   0  0  0  0  0  0  0  0  0  0  0  0
   46.0320   29.5410   47.5180 H   0  0  0  0  0  0  0  0  0  0  0  0
   45.8930   33.9290   44.6220 C   0  0  2  0  0  0  0  0  0  0  0  0
   44.9500   34.9300   45.3920 C   0  0  0  0  0  0  0  0  0  0  0  0
   44.5480   36.1020   44.6590 C   0  0  0  0  0  0  0  0  0  0  0  0
   44.9930   36.2940   43.2740 C   0  0  0  0  0  0  0  0  0  0  0  0
   45.9350   35.3230   42.7120 C   0  0  0  0  0  0  0  0  0  0  0  0
   45.6100   33.9260   43.2150 C   0  0  0  0  0  0  0  0  0  0  0  0
   46.8350   34.5230   44.8860 H   0  0  0  0  0  0  0  0  0  0  0  0
   44.5940   34.8140   46.3920 H   0  0  0  0  0  0  0  0  0  0  0  0
   43.9170   36.8030   45.1360 H   0  0  0  0  0  0  0  0  0  0  0  0
   44.0640   36.3470   42.6420 H   0  0  0  0  0  0  0  0  0  0  0  0
   45.4210   37.3190   43.2080 H   0  0  0  0  0  0  0  0  0  0  0  0
   45.9070   35.3800   41.6090 H   0  0  0  0  0  0  0  0  0  0  0  0
   46.9710   35.5840   43.0780 H   0  0  0  0  0  0  0  0  0  0  0  0
   44.5350   33.8190   42.9220 H   0  0  0  0  0  0  0  0  0  0  0  0
   46.3050   33.2810   42.6670 H   0  0  0  0  0  0  0  0  0  0  0  0
   46.2420   31.0700   43.3800 N   0  0  0  0  0  0  0  0  0  0  0  0
   45.4900   30.5470   42.3870 C   0  0  0  0  0  0  0  0  0  0  0  0
   46.2160   30.3880   41.2720 N   0  0  0  0  0  0  0  0  0  0  0  0
   47.4780   30.7970   41.4780 C   0  0  0  0  0  0  0  0  0  0  0  0
   48.5760   30.8310   40.6480 C   0  0  0  0  0  0  0  0  0  0  0  0
   49.7310   31.3080   41.1570 N   0  0  0  0  0  0  0  0  0  0  0  0
   49.7720   31.7270   42.4340 C   0  0  0  0  0  0  0  0  0  0  0  0
   48.6890   31.6870   43.2270 N   0  0  0  0  0  0  0  0  0  0  0  0
   47.4810   31.2220   42.8020 C   0  0  0  0  0  0  0  0  0  0  0  0
   48.4210   30.3560   39.2960 N   0  0  0  0  0  0  0  0  0  0  0  0
   48.7470   29.4490   38.8590 H   0  0  0  0  0  0  0  0  0  0  0  0
   47.9070   31.0270   38.6700 H   0  0  0  0  0  0  0  0  0  0  0  0
  1  7  1  0  0  0  0
  1  6  1  0  0  0  0
  2  1  2  0  0  0  0
  3  2  1  0  0  0  0
  3  4  2  0  0  0  0
  4  5  1  0  0  0  0
  5  6  2  0  0  0  0
  5  8  1  0  0  0  0
  9 15  1  1  0  0  0
  9  2  1  0  0  0  0
  9 10  1  0  0  0  0
 10 16  1  0  0  0  0
 11 17  1  0  0  0  0
 11 10  2  0  0  0  0
 12 11  1  0  0  0  0
 13 21  1  0  0  0  0
 13 14  1  0  0  0  0
 13 12  1  0  0  0  0
 14  9  1  0  0  0  0
 18 12  1  0  0  0  0
 19 12  1  0  0  0  0
 20 13  1  0  0  0  0
 22 14  1  0  0  0  0
 23 14  1  0  0  0  0
 24  3  1  0  0  0  0
 25 24  1  0  0  0  0
 26 27  1  0  0  0  0
 26 25  2  0  0  0  0
 27 32  1  0  0  0  0
 28 29  1  0  0  0  0
 28 27  2  0  0  0  0
 29 30  2  0  0  0  0
 30 31  1  0  0  0  0
 32 31  2  0  0  0  0
 32 24  1  0  0  0  0
 33 28  1  0  0  0  0
 34 33  1  0  0  0  0
 35 33  1  0  0  0  0
M  END
>  <minimizedAffinity>
-4.62504673

>  <minimizedRMSD>
1.46248376

$$$$
