
 OpenBabel03232520593D

 42 45  0  0  1  0  0  0  0  0999 V2000
   45.3530   32.8990   47.5140 C   0  0  0  0  0  0  0  0  0  0  0  0
   45.9170   32.6450   46.3030 C   0  0  0  0  0  0  0  0  0  0  0  0
   46.1910   31.2960   46.0620 C   0  0  0  0  0  0  0  0  0  0  0  0
   45.9250   30.3020   46.9470 N   0  0  0  0  0  0  0  0  0  0  0  0
   45.3500   30.6130   48.1700 C   0  0  0  0  0  0  0  0  0  0  0  0
   45.0820   31.8900   48.4200 N   0  0  0  0  0  0  0  0  0  0  0  0
   45.0690   29.6010   49.1180 N   0  0  0  0  0  0  0  0  0  0  0  0
   45.1040   33.9070   47.8060 H   0  0  0  0  0  0  0  0  0  0  0  0
   44.2790   29.6700   49.7770 H   0  0  0  0  0  0  0  0  0  0  0  0
   45.7070   28.7520   49.1330 H   0  0  0  0  0  0  0  0  0  0  0  0
   46.1640   33.5990   45.2760 C   0  0  2  0  0  0  0  0  0  0  0  0
   44.9490   34.6870   45.5040 C   0  0  0  0  0  0  0  0  0  0  0  0
   44.7190   35.6180   44.4340 C   0  0  0  0  0  0  0  0  0  0  0  0
   45.5240   35.5490   43.2120 C   0  0  1  0  0  0  0  0  0  0  0  0
   46.5860   34.5470   43.1650 C   0  0  0  0  0  0  0  0  0  0  0  0
   46.1350   33.3130   43.9120 C   0  0  0  0  0  0  0  0  0  0  0  0
   46.9820   34.3060   45.6060 H   0  0  0  0  0  0  0  0  0  0  0  0
   44.2700   34.8350   46.3350 H   0  0  0  0  0  0  0  0  0  0  0  0
   43.9470   36.3360   44.5430 H   0  0  0  0  0  0  0  0  0  0  0  0
   45.9520   36.5620   43.0110 H   0  0  0  0  0  0  0  0  0  0  0  0
   47.5690   34.8830   43.5680 H   0  0  0  0  0  0  0  0  0  0  0  0
   46.8050   34.3270   42.0790 H   0  0  0  0  0  0  0  0  0  0  0  0
   46.9930   32.6670   43.5840 H   0  0  0  0  0  0  0  0  0  0  0  0
   45.1850   32.9770   43.4460 H   0  0  0  0  0  0  0  0  0  0  0  0
   44.5150   35.2810   42.0560 C   0  0  0  0  0  0  0  0  0  0  0  0
   43.4550   34.4810   42.4470 F   0  0  0  0  0  0  0  0  0  0  0  0
   43.9730   36.5180   41.7190 F   0  0  0  0  0  0  0  0  0  0  0  0
   45.1940   34.8210   40.9440 F   0  0  0  0  0  0  0  0  0  0  0  0
   46.8390   30.6070   44.9620 C   0  0  0  0  0  0  0  0  0  0  0  0
   46.5100   29.8360   43.8940 C   0  0  0  0  0  0  0  0  0  0  0  0
   47.6910   29.4580   43.2420 C   0  0  0  0  0  0  0  0  0  0  0  0
   48.6750   30.0170   43.9440 N   0  0  0  0  0  0  0  0  0  0  0  0
   48.2000   30.6980   44.9610 N   0  0  0  0  0  0  0  0  0  0  0  0
   45.4530   29.6500   43.7300 H   0  0  0  0  0  0  0  0  0  0  0  0
   47.6450   28.8360   42.3610 H   0  0  0  0  0  0  0  0  0  0  0  0
   52.8540   28.2530   43.8400 H   0  0  0  0  0  0  0  0  0  0  0  0
   52.0520   28.8940   43.6200 N   0  0  0  0  0  0  0  0  0  0  0  0
   50.8140   28.8480   44.1030 N   0  0  0  0  0  0  0  0  0  0  0  0
   50.0620   29.8520   43.5760 C   0  0  0  0  0  0  0  0  0  0  0  0
   50.8730   30.5650   42.7190 C   0  0  0  0  0  3  0  0  0  0  0  0
   52.1050   29.9400   42.7710 C   0  0  0  0  0  0  0  0  0  0  0  0
   52.9250   30.3090   42.1820 H   0  0  0  0  0  0  0  0  0  0  0  0
  1  8  1  0  0  0  0
  1  6  1  0  0  0  0
  2  1  2  0  0  0  0
  3  2  1  0  0  0  0
  3  4  2  0  0  0  0
  4  5  1  0  0  0  0
  5  6  2  0  0  0  0
  5  7  1  0  0  0  0
  7 10  1  0  0  0  0
  7  9  1  0  0  0  0
 11 12  1  0  0  0  0
 11 17  1  1  0  0  0
 11  2  1  0  0  0  0
 12 18  1  0  0  0  0
 13 19  1  0  0  0  0
 13 12  2  0  0  0  0
 14 20  1  6  0  0  0
 14 13  1  0  0  0  0
 15 14  1  0  0  0  0
 15 21  1  0  0  0  0
 15 16  1  0  0  0  0
 16 11  1  0  0  0  0
 22 15  1  0  0  0  0
 23 16  1  0  0  0  0
 24 16  1  0  0  0  0
 25 26  1  0  0  0  0
 25 14  1  0  0  0  0
 27 25  1  0  0  0  0
 28 25  1  0  0  0  0
 29  3  1  0  0  0  0
 30 29  1  0  0  0  0
 31 30  2  0  0  0  0
 31 32  1  0  0  0  0
 32 33  1  0  0  0  0
 33 29  2  0  0  0  0
 34 30  1  0  0  0  0
 35 31  1  0  0  0  0
 37 36  1  0  0  0  0
 37 38  1  0  0  0  0
 39 32  1  0  0  0  0
 39 38  2  0  0  0  0
 40 41  2  0  0  0  0
 40 39  1  0  0  0  0
 41 37  1  0  0  0  0
 42 41  1  0  0  0  0
M  END
>  <minimizedAffinity>
-6.01084805

>  <minimizedRMSD>
0.188128561

$$$$
