
 OpenBabel03232521003D

 42 45  0  0  1  0  0  0  0  0999 V2000
   45.4540   32.8490   47.5130 C   0  0  0  0  0  0  0  0  0  0  0  0
   45.9450   32.6030   46.2690 C   0  0  0  0  0  0  0  0  0  0  0  0
   46.1440   31.2500   45.9810 C   0  0  0  0  0  0  0  0  0  0  0  0
   45.8750   30.2450   46.8520 N   0  0  0  0  0  0  0  0  0  0  0  0
   45.3750   30.5480   48.1100 C   0  0  0  0  0  0  0  0  0  0  0  0
   45.1800   31.8290   48.4060 N   0  0  0  0  0  0  0  0  0  0  0  0
   45.0930   29.5240   49.0450 N   0  0  0  0  0  0  0  0  0  0  0  0
   45.2670   33.8590   47.8420 H   0  0  0  0  0  0  0  0  0  0  0  0
   44.3400   29.6120   49.7440 H   0  0  0  0  0  0  0  0  0  0  0  0
   45.6910   28.6470   49.0070 H   0  0  0  0  0  0  0  0  0  0  0  0
   46.1870   33.5720   45.2560 C   0  0  2  0  0  0  0  0  0  0  0  0
   44.9660   34.6510   45.4990 C   0  0  0  0  0  0  0  0  0  0  0  0
   44.7300   35.5940   44.4420 C   0  0  0  0  0  0  0  0  0  0  0  0
   45.5360   35.5470   43.2190 C   0  0  1  0  0  0  0  0  0  0  0  0
   46.6030   34.5520   43.1580 C   0  0  0  0  0  0  0  0  0  0  0  0
   46.1600   33.3050   43.8870 C   0  0  0  0  0  0  0  0  0  0  0  0
   47.0010   34.2800   45.5950 H   0  0  0  0  0  0  0  0  0  0  0  0
   44.2870   34.7830   46.3320 H   0  0  0  0  0  0  0  0  0  0  0  0
   43.9550   36.3060   44.5610 H   0  0  0  0  0  0  0  0  0  0  0  0
   45.9580   36.5650   43.0320 H   0  0  0  0  0  0  0  0  0  0  0  0
   47.5850   34.8880   43.5650 H   0  0  0  0  0  0  0  0  0  0  0  0
   46.8240   34.3490   42.0690 H   0  0  0  0  0  0  0  0  0  0  0  0
   47.0210   32.6690   43.5510 H   0  0  0  0  0  0  0  0  0  0  0  0
   45.2110   32.9710   43.4170 H   0  0  0  0  0  0  0  0  0  0  0  0
   44.5280   35.2890   42.0590 C   0  0  0  0  0  0  0  0  0  0  0  0
   43.4610   34.4960   42.4450 F   0  0  0  0  0  0  0  0  0  0  0  0
   43.9960   36.5320   41.7240 F   0  0  0  0  0  0  0  0  0  0  0  0
   45.2070   34.8280   40.9470 F   0  0  0  0  0  0  0  0  0  0  0  0
   46.7050   30.5620   44.8330 C   0  0  0  0  0  0  0  0  0  0  0  0
   46.2850   29.8980   43.7260 C   0  0  0  0  0  0  0  0  0  0  0  0
   47.4130   29.4340   43.0360 C   0  0  0  0  0  0  0  0  0  0  0  0
   48.4580   29.8390   43.7560 N   0  0  0  0  0  0  0  0  0  0  0  0
   48.0670   30.5050   44.8180 N   0  0  0  0  0  0  0  0  0  0  0  0
   45.2130   29.8380   43.5660 H   0  0  0  0  0  0  0  0  0  0  0  0
   47.2930   28.8750   42.1200 H   0  0  0  0  0  0  0  0  0  0  0  0
   52.9680   29.4450   44.0460 H   0  0  0  0  0  0  0  0  0  0  0  0
   52.0030   29.4050   43.6340 N   0  0  0  0  0  0  0  0  0  0  0  0
   50.8550   29.7400   44.2180 N   0  0  0  0  0  0  0  0  0  0  0  0
   49.8150   29.5480   43.3590 C   0  0  0  0  0  0  0  0  0  0  0  0
   50.3410   29.0680   42.1790 C   0  0  0  0  0  3  0  0  0  0  0  0
   51.7070   28.9920   42.3870 C   0  0  0  0  0  0  0  0  0  0  0  0
   52.3540   28.6410   41.6040 H   0  0  0  0  0  0  0  0  0  0  0  0
  1  8  1  0  0  0  0
  1  6  1  0  0  0  0
  2  1  2  0  0  0  0
  3  2  1  0  0  0  0
  3  4  2  0  0  0  0
  4  5  1  0  0  0  0
  5  6  2  0  0  0  0
  5  7  1  0  0  0  0
  7  9  1  0  0  0  0
 10  7  1  0  0  0  0
 11 12  1  0  0  0  0
 11 17  1  1  0  0  0
 11  2  1  0  0  0  0
 12 18  1  0  0  0  0
 13 19  1  0  0  0  0
 13 12  2  0  0  0  0
 14 20  1  6  0  0  0
 14 13  1  0  0  0  0
 15 14  1  0  0  0  0
 15 21  1  0  0  0  0
 15 16  1  0  0  0  0
 16 11  1  0  0  0  0
 22 15  1  0  0  0  0
 23 16  1  0  0  0  0
 24 16  1  0  0  0  0
 25 26  1  0  0  0  0
 25 14  1  0  0  0  0
 27 25  1  0  0  0  0
 28 25  1  0  0  0  0
 29  3  1  0  0  0  0
 30 29  1  0  0  0  0
 31 30  2  0  0  0  0
 31 32  1  0  0  0  0
 32 33  1  0  0  0  0
 33 29  2  0  0  0  0
 34 30  1  0  0  0  0
 35 31  1  0  0  0  0
 37 36  1  0  0  0  0
 37 38  1  0  0  0  0
 39 32  1  0  0  0  0
 39 38  2  0  0  0  0
 40 41  2  0  0  0  0
 40 39  1  0  0  0  0
 41 37  1  0  0  0  0
 42 41  1  0  0  0  0
M  END
>  <minimizedAffinity>
-5.91852093

>  <minimizedRMSD>
0.115918905

$$$$
