
 OpenBabel03232521003D

 42 45  0  0  1  0  0  0  0  0999 V2000
   45.3820   32.8780   47.5040 C   0  0  0  0  0  0  0  0  0  0  0  0
   45.9270   32.6290   46.2830 C   0  0  0  0  0  0  0  0  0  0  0  0
   46.1850   31.2800   46.0260 C   0  0  0  0  0  0  0  0  0  0  0  0
   45.9200   30.2800   46.9060 N   0  0  0  0  0  0  0  0  0  0  0  0
   45.3640   30.5860   48.1390 C   0  0  0  0  0  0  0  0  0  0  0  0
   45.1120   31.8630   48.4040 N   0  0  0  0  0  0  0  0  0  0  0  0
   45.0850   29.5680   49.0810 N   0  0  0  0  0  0  0  0  0  0  0  0
   45.1480   33.8860   47.8080 H   0  0  0  0  0  0  0  0  0  0  0  0
   44.3040   29.6400   49.7510 H   0  0  0  0  0  0  0  0  0  0  0  0
   45.7140   28.7130   49.0810 H   0  0  0  0  0  0  0  0  0  0  0  0
   46.1710   33.5900   45.2620 C   0  0  2  0  0  0  0  0  0  0  0  0
   44.9560   34.6760   45.5000 C   0  0  0  0  0  0  0  0  0  0  0  0
   44.7220   35.6130   44.4370 C   0  0  0  0  0  0  0  0  0  0  0  0
   45.5240   35.5530   43.2120 C   0  0  1  0  0  0  0  0  0  0  0  0
   46.5860   34.5520   43.1560 C   0  0  0  0  0  0  0  0  0  0  0  0
   46.1390   33.3130   43.8960 C   0  0  0  0  0  0  0  0  0  0  0  0
   46.9900   34.2960   45.5940 H   0  0  0  0  0  0  0  0  0  0  0  0
   44.2800   34.8180   46.3340 H   0  0  0  0  0  0  0  0  0  0  0  0
   43.9510   36.3300   44.5530 H   0  0  0  0  0  0  0  0  0  0  0  0
   45.9510   36.5670   43.0160 H   0  0  0  0  0  0  0  0  0  0  0  0
   47.5710   34.8860   43.5570 H   0  0  0  0  0  0  0  0  0  0  0  0
   46.8030   34.3390   42.0670 H   0  0  0  0  0  0  0  0  0  0  0  0
   46.9960   32.6690   43.5620 H   0  0  0  0  0  0  0  0  0  0  0  0
   45.1870   32.9800   43.4310 H   0  0  0  0  0  0  0  0  0  0  0  0
   44.5120   35.2910   42.0570 C   0  0  0  0  0  0  0  0  0  0  0  0
   43.4480   34.4980   42.4490 F   0  0  0  0  0  0  0  0  0  0  0  0
   43.9770   36.5320   41.7220 F   0  0  0  0  0  0  0  0  0  0  0  0
   45.1870   34.8280   40.9440 F   0  0  0  0  0  0  0  0  0  0  0  0
   46.8110   30.5940   44.9120 C   0  0  0  0  0  0  0  0  0  0  0  0
   46.4600   29.8350   43.8420 C   0  0  0  0  0  0  0  0  0  0  0  0
   47.6280   29.4520   43.1710 C   0  0  0  0  0  0  0  0  0  0  0  0
   48.6270   29.9960   43.8640 N   0  0  0  0  0  0  0  0  0  0  0  0
   48.1720   30.6730   44.8930 N   0  0  0  0  0  0  0  0  0  0  0  0
   45.3990   29.6610   43.6910 H   0  0  0  0  0  0  0  0  0  0  0  0
   47.5650   28.8380   42.2850 H   0  0  0  0  0  0  0  0  0  0  0  0
   52.6630   27.9910   43.3400 H   0  0  0  0  0  0  0  0  0  0  0  0
   51.9190   28.7290   43.2850 N   0  0  0  0  0  0  0  0  0  0  0  0
   50.6670   28.6590   43.7310 N   0  0  0  0  0  0  0  0  0  0  0  0
   50.0070   29.8210   43.4750 C   0  0  0  0  0  0  0  0  0  0  0  0
   50.8920   30.6630   42.8350 C   0  0  0  0  0  3  0  0  0  0  0  0
   52.0720   29.9490   42.7330 C   0  0  0  0  0  0  0  0  0  0  0  0
   52.9330   30.3910   42.2640 H   0  0  0  0  0  0  0  0  0  0  0  0
  1  8  1  0  0  0  0
  1  6  1  0  0  0  0
  2  1  2  0  0  0  0
  3  2  1  0  0  0  0
  3  4  2  0  0  0  0
  4  5  1  0  0  0  0
  5  6  2  0  0  0  0
  5  7  1  0  0  0  0
  7  9  1  0  0  0  0
 10  7  1  0  0  0  0
 11 12  1  0  0  0  0
 11 17  1  1  0  0  0
 11  2  1  0  0  0  0
 12 18  1  0  0  0  0
 13 19  1  0  0  0  0
 13 12  2  0  0  0  0
 14 20  1  6  0  0  0
 14 13  1  0  0  0  0
 15 14  1  0  0  0  0
 15 21  1  0  0  0  0
 15 16  1  0  0  0  0
 16 11  1  0  0  0  0
 22 15  1  0  0  0  0
 23 16  1  0  0  0  0
 24 16  1  0  0  0  0
 25 26  1  0  0  0  0
 25 14  1  0  0  0  0
 27 25  1  0  0  0  0
 28 25  1  0  0  0  0
 29  3  1  0  0  0  0
 30 29  1  0  0  0  0
 31 30  2  0  0  0  0
 31 32  1  0  0  0  0
 32 33  1  0  0  0  0
 33 29  2  0  0  0  0
 34 30  1  0  0  0  0
 35 31  1  0  0  0  0
 37 36  1  0  0  0  0
 37 38  1  0  0  0  0
 39 38  2  0  0  0  0
 39 32  1  0  0  0  0
 40 39  1  0  0  0  0
 41 40  2  0  0  0  0
 41 37  1  0  0  0  0
 42 41  1  0  0  0  0
M  END
>  <minimizedAffinity>
-6.0214777

>  <minimizedRMSD>
0.152253389

$$$$
