
 OpenBabel03232520113D

 43 47  0  0  1  0  0  0  0  0999 V2000
   49.1930   29.4870   49.1920 N   0  0  0  0  0  0  0  0  0  0  0  0
   49.5470   28.2230   48.6170 C   0  0  0  0  0  0  0  0  0  0  0  0
   51.0380   28.0050   48.5790 C   0  0  0  0  0  0  0  0  0  0  0  0
   51.7270   28.5980   49.7760 C   0  0  0  0  0  0  0  0  0  0  0  0
   50.7260   28.8070   50.9160 C   0  0  0  0  0  0  0  0  0  0  0  0
   49.7850   29.8800   50.4580 C   0  0  1  0  0  0  0  0  0  0  0  0
   49.0610   27.4360   49.2560 H   0  0  0  0  0  0  0  0  0  0  0  0
   49.1460   28.0910   47.6030 H   0  0  0  0  0  0  0  0  0  0  0  0
   51.1940   26.9030   48.6410 H   0  0  0  0  0  0  0  0  0  0  0  0
   51.4760   28.3070   47.6180 H   0  0  0  0  0  0  0  0  0  0  0  0
   52.1170   29.6130   49.5380 H   0  0  0  0  0  0  0  0  0  0  0  0
   52.5500   27.9700   50.1590 H   0  0  0  0  0  0  0  0  0  0  0  0
   51.3210   29.1930   51.7660 H   0  0  0  0  0  0  0  0  0  0  0  0
   50.2020   27.8910   51.1890 H   0  0  0  0  0  0  0  0  0  0  0  0
   48.9320   29.8930   51.1700 H   0  0  0  0  0  0  0  0  0  0  0  0
   50.3740   31.1860   50.4570 N   0  0  0  0  0  0  0  0  0  0  0  0
   50.4310   32.1000   49.4590 C   0  0  0  0  0  0  0  0  0  0  0  0
   51.0890   33.2050   49.9060 N   0  0  0  0  0  0  0  0  0  0  0  0
   51.4500   32.9960   51.1830 C   0  0  0  0  0  0  0  0  0  0  0  0
   52.1150   33.6750   52.1890 C   0  0  0  0  0  0  0  0  0  0  0  0
   52.3220   33.1690   53.4130 N   0  0  0  0  0  0  0  0  0  0  0  0
   51.8760   31.9420   53.7130 C   0  0  0  0  0  0  0  0  0  0  0  0
   51.2260   31.2550   52.7600 N   0  0  0  0  0  0  0  0  0  0  0  0
   51.0060   31.7320   51.5370 C   0  0  0  0  0  0  0  0  0  0  0  0
   52.5960   34.9820   51.8820 N   0  0  0  0  0  0  0  0  0  0  0  0
   53.1380   35.1610   51.0120 H   0  0  0  0  0  0  0  0  0  0  0  0
   52.4330   35.8080   52.5050 H   0  0  0  0  0  0  0  0  0  0  0  0
   46.8730   32.2310   47.3160 C   0  0  0  0  0  0  0  0  0  0  0  0
   46.5550   32.0350   48.6340 C   0  0  0  0  0  0  0  0  0  0  0  0
   47.2720   31.1380   49.3450 C   0  0  0  0  0  0  0  0  0  0  0  0
   48.2890   30.4790   48.6750 C   0  0  0  0  0  0  0  0  0  0  0  0
   48.2260   31.1340   47.0310 S   0  0  0  0  0  0  0  0  0  0  0  0
   45.7330   32.6150   49.0400 H   0  0  0  0  0  0  0  0  0  0  0  0
   47.1050   30.9060   50.3890 H   0  0  0  0  0  0  0  0  0  0  0  0
   44.7240   34.7610   45.7450 C   0  0  0  0  0  0  0  0  0  0  0  0
   45.2130   34.7540   44.4150 C   0  0  0  0  0  0  0  0  0  0  0  0
   46.2640   33.8830   44.0940 C   0  0  0  0  0  0  0  0  0  0  0  0
   46.7800   33.0730   45.0770 N   0  0  0  0  0  0  0  0  0  0  0  0
   46.2890   33.1100   46.3230 C   0  0  0  0  0  0  0  0  0  0  0  0
   45.2730   33.9450   46.6590 N   0  0  0  0  0  0  0  0  0  0  0  0
   43.9260   35.4440   45.9220 H   0  0  0  0  0  0  0  0  0  0  0  0
   44.8750   35.3460   43.5900 H   0  0  0  0  0  0  0  0  0  0  0  0
   46.6990   33.8110   43.1070 H   0  0  0  0  0  0  0  0  0  0  0  0
  1  6  1  0  0  0  0
  2  1  1  0  0  0  0
  2  7  1  0  0  0  0
  3  2  1  0  0  0  0
  3  9  1  0  0  0  0
  3  4  1  0  0  0  0
  4 12  1  0  0  0  0
  4  5  1  0  0  0  0
  5 14  1  0  0  0  0
  5 13  1  0  0  0  0
  6  5  1  0  0  0  0
  6 15  1  1  0  0  0
  8  2  1  0  0  0  0
 10  3  1  0  0  0  0
 11  4  1  0  0  0  0
 16  6  1  0  0  0  0
 16 24  1  0  0  0  0
 17 18  2  0  0  0  0
 17 16  1  0  0  0  0
 18 19  1  0  0  0  0
 19 24  2  0  0  0  0
 19 20  1  0  0  0  0
 20 21  2  0  0  0  0
 21 22  1  0  0  0  0
 23 22  2  0  0  0  0
 24 23  1  0  0  0  0
 25 20  1  0  0  0  0
 25 27  1  0  0  0  0
 26 25  1  0  0  0  0
 28 29  2  0  0  0  0
 29 33  1  0  0  0  0
 29 30  1  0  0  0  0
 30 34  1  0  0  0  0
 31  1  1  0  0  0  0
 31 30  2  0  0  0  0
 32 28  1  0  0  0  0
 32 31  1  0  0  0  0
 35 41  1  0  0  0  0
 35 40  1  0  0  0  0
 36 35  2  0  0  0  0
 37 36  1  0  0  0  0
 37 38  2  0  0  0  0
 38 39  1  0  0  0  0
 39 40  2  0  0  0  0
 39 28  1  0  0  0  0
 42 36  1  0  0  0  0
 43 37  1  0  0  0  0
M  END
>  <minimizedAffinity>
-5.48479271

>  <minimizedRMSD>
2.12857819

$$$$
