
 OpenBabel03232519283D

 43 46  0  0  1  0  0  0  0  0999 V2000
   45.8950   33.9800   40.3200 C   0  0  1  0  0  0  0  0  0  0  0  0
   46.7790   33.3720   39.2370 C   0  0  0  0  0  0  0  0  0  0  0  0
   45.8680   32.8690   38.1460 C   0  0  0  0  0  0  0  0  0  0  0  0
   44.9990   31.7410   38.6530 C   0  0  0  0  0  0  0  0  0  0  0  0
   45.1790   31.5580   40.1410 C   0  0  0  0  0  0  0  0  0  0  0  0
   45.0430   32.8870   40.8850 C   0  0  2  0  0  0  0  0  0  0  0  0
   45.3500   34.8120   39.8790 H   0  0  0  0  0  0  0  0  0  0  0  0
   47.4040   34.1760   38.7930 H   0  0  0  0  0  0  0  0  0  0  0  0
   47.4030   32.5490   39.5800 H   0  0  0  0  0  0  0  0  0  0  0  0
   46.5430   32.4150   37.3770 H   0  0  0  0  0  0  0  0  0  0  0  0
   45.3190   33.6580   37.6130 H   0  0  0  0  0  0  0  0  0  0  0  0
   43.9350   32.0400   38.4510 H   0  0  0  0  0  0  0  0  0  0  0  0
   45.1600   30.7820   38.1690 H   0  0  0  0  0  0  0  0  0  0  0  0
   44.3860   30.8950   40.5000 H   0  0  0  0  0  0  0  0  0  0  0  0
   46.1720   31.0870   40.3090 H   0  0  0  0  0  0  0  0  0  0  0  0
   45.4200   32.6440   41.9040 H   0  0  0  0  0  0  0  0  0  0  0  0
   43.6280   33.1410   40.8950 N   0  0  0  0  0  0  0  0  0  0  0  0
   43.1130   34.2410   40.2680 C   0  0  0  0  0  0  0  0  0  0  0  0
   41.7800   34.2270   40.4380 N   0  0  0  0  0  0  0  0  0  0  0  0
   41.4140   33.1630   41.1500 C   0  0  0  0  0  0  0  0  0  0  0  0
   40.2510   32.6100   41.6380 C   0  0  0  0  0  0  0  0  0  0  0  0
   40.2280   31.4560   42.3660 N   0  0  0  0  0  0  0  0  0  0  0  0
   41.4060   30.8380   42.6100 C   0  0  0  0  0  0  0  0  0  0  0  0
   42.5430   31.3770   42.1340 N   0  0  0  0  0  0  0  0  0  0  0  0
   42.5950   32.4980   41.4230 C   0  0  0  0  0  0  0  0  0  0  0  0
   39.0290   33.2760   41.3690 N   0  0  0  0  0  0  0  0  0  0  0  0
   38.1390   32.7230   41.3730 H   0  0  0  0  0  0  0  0  0  0  0  0
   38.9530   34.2920   41.1640 H   0  0  0  0  0  0  0  0  0  0  0  0
   46.7800   34.5840   41.4250 C   0  0  0  0  0  0  0  0  0  0  0  0
   47.8390   34.4950   41.0170 H   0  0  0  0  0  0  0  0  0  0  0  0
   46.6320   35.6340   41.5890 H   0  0  0  0  0  0  0  0  0  0  0  0
   46.6470   33.6620   42.6090 C   0  0  0  0  0  0  0  0  0  0  0  0
   47.6690   33.3910   42.9960 H   0  0  0  0  0  0  0  0  0  0  0  0
   46.0820   32.7330   42.3630 H   0  0  0  0  0  0  0  0  0  0  0  0
   45.8390   33.6630   44.9120 C   0  0  0  0  0  0  0  0  0  0  0  0
   45.9180   34.2960   43.6640 C   0  0  0  0  0  0  0  0  0  0  0  0
   45.2850   35.5030   43.4890 C   0  0  0  0  0  0  0  0  0  0  0  0
   44.6030   36.0380   44.5460 N   0  0  0  0  0  0  0  0  0  0  0  0
   44.5310   35.4210   45.7510 C   0  0  0  0  0  0  0  0  0  0  0  0
   45.1510   34.2310   45.9300 N   0  0  0  0  0  0  0  0  0  0  0  0
   46.3250   32.7160   45.0800 H   0  0  0  0  0  0  0  0  0  0  0  0
   45.2380   36.1130   42.6040 H   0  0  0  0  0  0  0  0  0  0  0  0
   43.9660   35.9280   46.5220 H   0  0  0  0  0  0  0  0  0  0  0  0
  1  7  1  6  0  0  0
  1  6  1  0  0  0  0
  1 29  1  0  0  0  0
  2  9  1  0  0  0  0
  2  1  1  0  0  0  0
  3  4  1  0  0  0  0
  3  2  1  0  0  0  0
  4  5  1  0  0  0  0
  5 15  1  0  0  0  0
  5 14  1  0  0  0  0
  5  6  1  0  0  0  0
  6 17  1  0  0  0  0
  6 16  1  1  0  0  0
  8  2  1  0  0  0  0
 10  3  1  0  0  0  0
 11  3  1  0  0  0  0
 12  4  1  0  0  0  0
 13  4  1  0  0  0  0
 17 25  1  0  0  0  0
 18 19  2  0  0  0  0
 18 17  1  0  0  0  0
 19 20  1  0  0  0  0
 20 25  2  0  0  0  0
 20 21  1  0  0  0  0
 21 22  2  0  0  0  0
 22 23  1  0  0  0  0
 24 23  2  0  0  0  0
 25 24  1  0  0  0  0
 26 27  1  0  0  0  0
 26 21  1  0  0  0  0
 28 26  1  0  0  0  0
 29 31  1  0  0  0  0
 29 32  1  0  0  0  0
 30 29  1  0  0  0  0
 32 33  1  0  0  0  0
 32 36  1  0  0  0  0
 34 32  1  0  0  0  0
 35 41  1  0  0  0  0
 35 40  1  0  0  0  0
 36 35  2  0  0  0  0
 37 36  1  0  0  0  0
 37 38  2  0  0  0  0
 38 39  1  0  0  0  0
 39 40  2  0  0  0  0
 39 43  1  0  0  0  0
 42 37  1  0  0  0  0
M  END
>  <minimizedAffinity>
-5.52873087

>  <minimizedRMSD>
4.16097975

$$$$
