
 OpenBabel03232520403D

 26 28  0  0  0  0  0  0  0  0999 V2000
   43.6750   33.1460   41.8250 C   0  0  0  0  0  0  0  0  0  0  0  0
   44.3440   34.3770   42.0760 C   0  0  0  0  0  0  0  0  0  0  0  0
   43.7980   35.5450   41.5920 C   0  0  0  0  0  0  0  0  0  0  0  0
   42.6320   35.4870   40.8870 N   0  0  0  0  0  0  0  0  0  0  0  0
   42.0200   34.3060   40.6650 C   0  0  0  0  0  0  0  0  0  0  0  0
   42.5290   33.1350   41.1270 N   0  0  0  0  0  0  0  0  0  0  0  0
   44.0960   32.2270   42.2010 H   0  0  0  0  0  0  0  0  0  0  0  0
   44.3140   36.4720   41.7880 H   0  0  0  0  0  0  0  0  0  0  0  0
   40.7690   34.2010   39.9230 C   0  0  0  0  0  0  0  0  0  0  0  0
   40.7240   34.4450   38.5800 C   0  0  0  0  0  0  0  0  0  0  0  0
   39.5870   34.3630   37.8050 C   0  0  0  0  0  0  0  0  0  0  0  0
   38.4050   34.0120   38.4160 C   0  0  0  0  0  0  0  0  0  0  0  0
   38.4500   33.7640   39.7910 C   0  0  0  0  0  0  0  0  0  0  0  0
   39.5970   33.8570   40.5090 N   0  0  0  0  0  0  0  0  0  0  0  0
   41.6660   34.7210   38.1070 H   0  0  0  0  0  0  0  0  0  0  0  0
   39.6780   34.5780   36.7610 H   0  0  0  0  0  0  0  0  0  0  0  0
   37.5280   33.9500   37.8220 H   0  0  0  0  0  0  0  0  0  0  0  0
   37.5040   33.4890   40.2570 H   0  0  0  0  0  0  0  0  0  0  0  0
   45.8880   34.3260   43.0270 S   0  0  0  0  0  0  0  0  0  0  0  0
   48.5740   34.6600   38.9670 H   0  0  0  0  0  0  0  0  0  0  0  0
   48.2790   34.8180   39.9600 N   0  0  0  0  0  0  0  0  0  0  0  0
   47.1990   34.3190   40.5660 N   0  0  0  0  0  0  0  0  0  0  0  0
   47.1700   34.7490   41.8330 C   0  0  0  0  0  0  0  0  0  0  0  0
   48.2860   35.5440   41.9970 C   0  0  0  0  0  0  0  0  0  0  0  0
   48.9870   35.5820   40.7990 C   0  0  0  0  0  0  0  0  0  0  0  0
   49.8960   36.1430   40.6870 H   0  0  0  0  0  0  0  0  0  0  0  0
  1  2  1  0  0  0  0
  1  7  1  0  0  0  0
  2 19  1  0  0  0  0
  3  8  1  0  0  0  0
  3  2  2  0  0  0  0
  4  3  1  0  0  0  0
  5  4  2  0  0  0  0
  5  6  1  0  0  0  0
  6  1  2  0  0  0  0
  9 14  1  0  0  0  0
  9  5  1  0  0  0  0
 10  9  2  0  0  0  0
 11 12  2  0  0  0  0
 11 10  1  0  0  0  0
 12 13  1  0  0  0  0
 13 18  1  0  0  0  0
 13 14  2  0  0  0  0
 15 10  1  0  0  0  0
 16 11  1  0  0  0  0
 17 12  1  0  0  0  0
 20 21  1  0  0  0  0
 21 22  1  0  0  0  0
 21 25  1  0  0  0  0
 22 23  2  0  0  0  0
 23 24  1  0  0  0  0
 23 19  1  0  0  0  0
 25 24  2  0  0  0  0
 26 25  1  0  0  0  0
M  END
>  <minimizedAffinity>
-5.28789091

>  <minimizedRMSD>
7.2799201

$$$$
