
 OpenBabel03232521003D

 42 45  0  0  1  0  0  0  0  0999 V2000
   45.3440   32.8850   47.5010 C   0  0  0  0  0  0  0  0  0  0  0  0
   45.9130   32.6330   46.2920 C   0  0  0  0  0  0  0  0  0  0  0  0
   46.1970   31.2870   46.0510 C   0  0  0  0  0  0  0  0  0  0  0  0
   45.9330   30.2920   46.9370 N   0  0  0  0  0  0  0  0  0  0  0  0
   45.3510   30.5980   48.1570 C   0  0  0  0  0  0  0  0  0  0  0  0
   45.0740   31.8740   48.4070 N   0  0  0  0  0  0  0  0  0  0  0  0
   45.0710   29.5840   49.1020 N   0  0  0  0  0  0  0  0  0  0  0  0
   45.0870   33.8920   47.7920 H   0  0  0  0  0  0  0  0  0  0  0  0
   44.4920   28.7640   48.8220 H   0  0  0  0  0  0  0  0  0  0  0  0
   45.4330   29.6370   50.0770 H   0  0  0  0  0  0  0  0  0  0  0  0
   46.1610   33.5890   45.2670 C   0  0  2  0  0  0  0  0  0  0  0  0
   44.9540   34.6840   45.5040 C   0  0  0  0  0  0  0  0  0  0  0  0
   44.7200   35.6170   44.4380 C   0  0  0  0  0  0  0  0  0  0  0  0
   45.5200   35.5470   43.2110 C   0  0  1  0  0  0  0  0  0  0  0  0
   46.5770   34.5440   43.1580 C   0  0  0  0  0  0  0  0  0  0  0  0
   46.1260   33.3080   43.9020 C   0  0  0  0  0  0  0  0  0  0  0  0
   46.9980   34.2780   45.5950 H   0  0  0  0  0  0  0  0  0  0  0  0
   44.2790   34.8360   46.3370 H   0  0  0  0  0  0  0  0  0  0  0  0
   43.9540   36.3380   44.5530 H   0  0  0  0  0  0  0  0  0  0  0  0
   45.9460   36.5550   43.0120 H   0  0  0  0  0  0  0  0  0  0  0  0
   47.5580   34.9040   43.5710 H   0  0  0  0  0  0  0  0  0  0  0  0
   46.8170   34.3350   42.0780 H   0  0  0  0  0  0  0  0  0  0  0  0
   45.1730   32.9680   43.4430 H   0  0  0  0  0  0  0  0  0  0  0  0
   46.9780   32.6590   43.5670 H   0  0  0  0  0  0  0  0  0  0  0  0
   44.5040   35.2870   42.0580 C   0  0  0  0  0  0  0  0  0  0  0  0
   43.4420   34.4930   42.4540 F   0  0  0  0  0  0  0  0  0  0  0  0
   43.9640   36.5270   41.7270 F   0  0  0  0  0  0  0  0  0  0  0  0
   45.1760   34.8260   40.9440 F   0  0  0  0  0  0  0  0  0  0  0  0
   46.8530   30.6010   44.9550 C   0  0  0  0  0  0  0  0  0  0  0  0
   46.5370   29.8140   43.8940 C   0  0  0  0  0  0  0  0  0  0  0  0
   47.7220   29.4590   43.2400 C   0  0  0  0  0  0  0  0  0  0  0  0
   48.6980   30.0460   43.9320 N   0  0  0  0  0  0  0  0  0  0  0  0
   48.2110   30.7230   44.9460 N   0  0  0  0  0  0  0  0  0  0  0  0
   45.4920   29.6020   43.7340 H   0  0  0  0  0  0  0  0  0  0  0  0
   47.6920   28.8290   42.3610 H   0  0  0  0  0  0  0  0  0  0  0  0
   50.0850   29.9130   43.5630 C   0  0  0  0  0  0  0  0  0  0  0  0
   50.5580   30.2830   42.3340 C   0  0  0  0  0  3  0  0  0  0  0  0
   51.9290   30.0820   42.1530 C   0  0  0  0  0  0  0  0  0  0  0  0
   52.3750   30.3530   41.2030 H   0  0  0  0  0  0  0  0  0  0  0  0
   52.7570   29.5720   43.0760 N   0  0  0  0  0  0  0  0  0  0  0  0
   52.2550   29.2250   44.2550 C   0  0  0  0  0  3  0  0  0  0  0  0
   50.9360   29.3980   44.4800 N   0  0  0  0  0  0  0  0  0  0  0  0
  1  8  1  0  0  0  0
  1  6  1  0  0  0  0
  2  1  2  0  0  0  0
  3  2  1  0  0  0  0
  3  4  2  0  0  0  0
  4  5  1  0  0  0  0
  5  6  2  0  0  0  0
  5  7  1  0  0  0  0
  7 10  1  0  0  0  0
  9  7  1  0  0  0  0
 11 12  1  0  0  0  0
 11 17  1  1  0  0  0
 11  2  1  0  0  0  0
 12 18  1  0  0  0  0
 13 19  1  0  0  0  0
 13 12  2  0  0  0  0
 14 20  1  6  0  0  0
 14 13  1  0  0  0  0
 15 14  1  0  0  0  0
 15 21  1  0  0  0  0
 15 16  1  0  0  0  0
 16 11  1  0  0  0  0
 22 15  1  0  0  0  0
 23 16  1  0  0  0  0
 24 16  1  0  0  0  0
 25 26  1  0  0  0  0
 25 14  1  0  0  0  0
 27 25  1  0  0  0  0
 28 25  1  0  0  0  0
 29  3  1  0  0  0  0
 30 29  1  0  0  0  0
 31 30  2  0  0  0  0
 31 32  1  0  0  0  0
 32 33  1  0  0  0  0
 33 29  2  0  0  0  0
 34 30  1  0  0  0  0
 35 31  1  0  0  0  0
 36 32  1  0  0  0  0
 36 42  1  0  0  0  0
 37 36  2  0  0  0  0
 38 37  1  0  0  0  0
 38 40  2  0  0  0  0
 39 38  1  0  0  0  0
 40 41  1  0  0  0  0
 41 42  2  0  0  0  0
M  END
>  <minimizedAffinity>
-5.80350113

>  <minimizedRMSD>
0.567431271

$$$$
