
 OpenBabel03232521003D

 42 45  0  0  1  0  0  0  0  0999 V2000
   45.3470   32.9140   47.4850 C   0  0  0  0  0  0  0  0  0  0  0  0
   45.9070   32.6590   46.2730 C   0  0  0  0  0  0  0  0  0  0  0  0
   46.1890   31.3120   46.0340 C   0  0  0  0  0  0  0  0  0  0  0  0
   45.9320   30.3190   46.9240 N   0  0  0  0  0  0  0  0  0  0  0  0
   45.3590   30.6290   48.1480 C   0  0  0  0  0  0  0  0  0  0  0  0
   45.0840   31.9060   48.3960 N   0  0  0  0  0  0  0  0  0  0  0  0
   45.0870   29.6180   49.0980 N   0  0  0  0  0  0  0  0  0  0  0  0
   45.0940   33.9220   47.7760 H   0  0  0  0  0  0  0  0  0  0  0  0
   44.5050   28.7970   48.8240 H   0  0  0  0  0  0  0  0  0  0  0  0
   45.4560   29.6740   50.0700 H   0  0  0  0  0  0  0  0  0  0  0  0
   46.1470   33.6120   45.2440 C   0  0  2  0  0  0  0  0  0  0  0  0
   44.9430   34.7080   45.4870 C   0  0  0  0  0  0  0  0  0  0  0  0
   44.7010   35.6380   44.4210 C   0  0  0  0  0  0  0  0  0  0  0  0
   45.4910   35.5650   43.1870 C   0  0  1  0  0  0  0  0  0  0  0  0
   46.5480   34.5610   43.1290 C   0  0  0  0  0  0  0  0  0  0  0  0
   46.1010   33.3270   43.8800 C   0  0  0  0  0  0  0  0  0  0  0  0
   46.9870   34.3010   45.5630 H   0  0  0  0  0  0  0  0  0  0  0  0
   44.2750   34.8620   46.3250 H   0  0  0  0  0  0  0  0  0  0  0  0
   43.9360   36.3600   44.5400 H   0  0  0  0  0  0  0  0  0  0  0  0
   45.9160   36.5720   42.9820 H   0  0  0  0  0  0  0  0  0  0  0  0
   47.5320   34.9210   43.5330 H   0  0  0  0  0  0  0  0  0  0  0  0
   46.7780   34.3490   42.0470 H   0  0  0  0  0  0  0  0  0  0  0  0
   45.1450   32.9860   43.4290 H   0  0  0  0  0  0  0  0  0  0  0  0
   46.9510   32.6770   43.5400 H   0  0  0  0  0  0  0  0  0  0  0  0
   44.4660   35.3020   42.0430 C   0  0  0  0  0  0  0  0  0  0  0  0
   43.4050   34.5110   42.4510 F   0  0  0  0  0  0  0  0  0  0  0  0
   43.9250   36.5420   41.7110 F   0  0  0  0  0  0  0  0  0  0  0  0
   45.1280   34.8350   40.9250 F   0  0  0  0  0  0  0  0  0  0  0  0
   46.8370   30.6230   44.9340 C   0  0  0  0  0  0  0  0  0  0  0  0
   46.5150   29.8180   43.8900 C   0  0  0  0  0  0  0  0  0  0  0  0
   47.6940   29.4730   43.2180 C   0  0  0  0  0  0  0  0  0  0  0  0
   48.6720   30.0850   43.8860 N   0  0  0  0  0  0  0  0  0  0  0  0
   48.1920   30.7670   44.8990 N   0  0  0  0  0  0  0  0  0  0  0  0
   45.4710   29.5860   43.7510 H   0  0  0  0  0  0  0  0  0  0  0  0
   47.6590   28.8310   42.3480 H   0  0  0  0  0  0  0  0  0  0  0  0
   50.0550   29.9690   43.4930 C   0  0  0  0  0  0  0  0  0  0  0  0
   50.5270   30.4700   42.3100 C   0  0  0  0  0  3  0  0  0  0  0  0
   51.8920   30.2660   42.0960 C   0  0  0  0  0  0  0  0  0  0  0  0
   52.3380   30.6360   41.1800 H   0  0  0  0  0  0  0  0  0  0  0  0
   52.7160   29.6380   42.9480 N   0  0  0  0  0  0  0  0  0  0  0  0
   52.2150   29.1680   44.0840 C   0  0  0  0  0  3  0  0  0  0  0  0
   50.9010   29.3390   44.3380 N   0  0  0  0  0  0  0  0  0  0  0  0
  1  8  1  0  0  0  0
  1  6  1  0  0  0  0
  2  1  2  0  0  0  0
  3  2  1  0  0  0  0
  3  4  2  0  0  0  0
  4  5  1  0  0  0  0
  5  6  2  0  0  0  0
  5  7  1  0  0  0  0
  7 10  1  0  0  0  0
  9  7  1  0  0  0  0
 11 12  1  0  0  0  0
 11 17  1  1  0  0  0
 11  2  1  0  0  0  0
 12 18  1  0  0  0  0
 13 19  1  0  0  0  0
 13 12  2  0  0  0  0
 14 20  1  6  0  0  0
 14 13  1  0  0  0  0
 15 14  1  0  0  0  0
 15 21  1  0  0  0  0
 15 16  1  0  0  0  0
 16 11  1  0  0  0  0
 22 15  1  0  0  0  0
 23 16  1  0  0  0  0
 24 16  1  0  0  0  0
 25 26  1  0  0  0  0
 25 14  1  0  0  0  0
 27 25  1  0  0  0  0
 28 25  1  0  0  0  0
 29  3  1  0  0  0  0
 30 29  1  0  0  0  0
 31 32  1  0  0  0  0
 31 30  2  0  0  0  0
 32 33  1  0  0  0  0
 33 29  2  0  0  0  0
 34 30  1  0  0  0  0
 35 31  1  0  0  0  0
 36 32  1  0  0  0  0
 36 42  1  0  0  0  0
 37 36  2  0  0  0  0
 38 37  1  0  0  0  0
 38 40  2  0  0  0  0
 39 38  1  0  0  0  0
 40 41  1  0  0  0  0
 41 42  2  0  0  0  0
M  END
>  <minimizedAffinity>
-5.8248539

>  <minimizedRMSD>
0.409953177

$$$$
