
 OpenBabel03232521003D

 42 45  0  0  1  0  0  0  0  0999 V2000
   45.3840   32.8780   47.4610 C   0  0  0  0  0  0  0  0  0  0  0  0
   45.9240   32.6330   46.2370 C   0  0  0  0  0  0  0  0  0  0  0  0
   46.1890   31.2860   45.9780 C   0  0  0  0  0  0  0  0  0  0  0  0
   45.9350   30.2850   46.8600 N   0  0  0  0  0  0  0  0  0  0  0  0
   45.3830   30.5860   48.0960 C   0  0  0  0  0  0  0  0  0  0  0  0
   45.1250   31.8620   48.3640 N   0  0  0  0  0  0  0  0  0  0  0  0
   45.1160   29.5660   49.0380 N   0  0  0  0  0  0  0  0  0  0  0  0
   45.1450   33.8850   47.7670 H   0  0  0  0  0  0  0  0  0  0  0  0
   44.5210   28.7540   48.7630 H   0  0  0  0  0  0  0  0  0  0  0  0
   45.5000   29.6070   50.0050 H   0  0  0  0  0  0  0  0  0  0  0  0
   46.1580   33.5950   45.2160 C   0  0  2  0  0  0  0  0  0  0  0  0
   44.9550   34.6890   45.4770 C   0  0  0  0  0  0  0  0  0  0  0  0
   44.7070   35.6290   44.4210 C   0  0  0  0  0  0  0  0  0  0  0  0
   45.4890   35.5680   43.1820 C   0  0  1  0  0  0  0  0  0  0  0  0
   46.5460   34.5640   43.1080 C   0  0  0  0  0  0  0  0  0  0  0  0
   46.1040   33.3240   43.8500 C   0  0  0  0  0  0  0  0  0  0  0  0
   46.9990   34.2820   45.5360 H   0  0  0  0  0  0  0  0  0  0  0  0
   44.2920   34.8350   46.3200 H   0  0  0  0  0  0  0  0  0  0  0  0
   43.9430   36.3500   44.5510 H   0  0  0  0  0  0  0  0  0  0  0  0
   45.9130   36.5770   42.9840 H   0  0  0  0  0  0  0  0  0  0  0  0
   47.5320   34.9210   43.5100 H   0  0  0  0  0  0  0  0  0  0  0  0
   46.7700   34.3630   42.0230 H   0  0  0  0  0  0  0  0  0  0  0  0
   45.1450   32.9870   43.4010 H   0  0  0  0  0  0  0  0  0  0  0  0
   46.9510   32.6760   43.4980 H   0  0  0  0  0  0  0  0  0  0  0  0
   44.4580   35.3160   42.0420 C   0  0  0  0  0  0  0  0  0  0  0  0
   43.3920   34.5340   42.4520 F   0  0  0  0  0  0  0  0  0  0  0  0
   43.9270   36.5610   41.7130 F   0  0  0  0  0  0  0  0  0  0  0  0
   45.1120   34.8450   40.9200 F   0  0  0  0  0  0  0  0  0  0  0  0
   46.8130   30.6040   44.8610 C   0  0  0  0  0  0  0  0  0  0  0  0
   46.4740   29.7810   43.8350 C   0  0  0  0  0  0  0  0  0  0  0  0
   47.6360   29.4610   43.1230 C   0  0  0  0  0  0  0  0  0  0  0  0
   48.6220   30.1040   43.7490 N   0  0  0  0  0  0  0  0  0  0  0  0
   48.1620   30.7820   44.7740 N   0  0  0  0  0  0  0  0  0  0  0  0
   45.4320   29.5220   43.7370 H   0  0  0  0  0  0  0  0  0  0  0  0
   47.5850   28.8110   42.2600 H   0  0  0  0  0  0  0  0  0  0  0  0
   49.9910   30.0200   43.3060 C   0  0  0  0  0  0  0  0  0  0  0  0
   50.3710   30.3230   42.0270 C   0  0  0  0  0  3  0  0  0  0  0  0
   51.7390   30.1850   41.7770 C   0  0  0  0  0  0  0  0  0  0  0  0
   52.1130   30.4080   40.7860 H   0  0  0  0  0  0  0  0  0  0  0  0
   52.6460   29.7920   42.6830 N   0  0  0  0  0  0  0  0  0  0  0  0
   52.2350   29.5060   43.9120 C   0  0  0  0  0  3  0  0  0  0  0  0
   50.9230   29.6240   44.2060 N   0  0  0  0  0  0  0  0  0  0  0  0
  1  8  1  0  0  0  0
  1  6  1  0  0  0  0
  2  1  2  0  0  0  0
  3  2  1  0  0  0  0
  3  4  2  0  0  0  0
  4  5  1  0  0  0  0
  5  6  2  0  0  0  0
  5  7  1  0  0  0  0
  7 10  1  0  0  0  0
  9  7  1  0  0  0  0
 11 12  1  0  0  0  0
 11 17  1  1  0  0  0
 11  2  1  0  0  0  0
 12 18  1  0  0  0  0
 13 19  1  0  0  0  0
 13 12  2  0  0  0  0
 14 20  1  6  0  0  0
 14 13  1  0  0  0  0
 15 14  1  0  0  0  0
 15 21  1  0  0  0  0
 15 16  1  0  0  0  0
 16 11  1  0  0  0  0
 22 15  1  0  0  0  0
 23 16  1  0  0  0  0
 24 16  1  0  0  0  0
 25 26  1  0  0  0  0
 25 14  1  0  0  0  0
 27 25  1  0  0  0  0
 28 25  1  0  0  0  0
 29  3  1  0  0  0  0
 30 29  1  0  0  0  0
 31 32  1  0  0  0  0
 31 30  2  0  0  0  0
 32 33  1  0  0  0  0
 33 29  2  0  0  0  0
 34 30  1  0  0  0  0
 35 31  1  0  0  0  0
 36 32  1  0  0  0  0
 36 42  1  0  0  0  0
 37 36  2  0  0  0  0
 38 37  1  0  0  0  0
 38 40  2  0  0  0  0
 39 38  1  0  0  0  0
 40 41  1  0  0  0  0
 41 42  2  0  0  0  0
M  END
>  <minimizedAffinity>
-5.8351655

>  <minimizedRMSD>
0.489858359

$$$$
