
 OpenBabel03232521013D

 42 45  0  0  1  0  0  0  0  0999 V2000
   45.3490   32.8940   47.5100 C   0  0  0  0  0  0  0  0  0  0  0  0
   45.9160   32.6400   46.3000 C   0  0  0  0  0  0  0  0  0  0  0  0
   46.1970   31.2920   46.0620 C   0  0  0  0  0  0  0  0  0  0  0  0
   45.9320   30.2990   46.9500 N   0  0  0  0  0  0  0  0  0  0  0  0
   45.3530   30.6090   48.1710 C   0  0  0  0  0  0  0  0  0  0  0  0
   45.0790   31.8860   48.4190 N   0  0  0  0  0  0  0  0  0  0  0  0
   45.0730   29.5970   49.1190 N   0  0  0  0  0  0  0  0  0  0  0  0
   45.0950   33.9030   47.8000 H   0  0  0  0  0  0  0  0  0  0  0  0
   44.4910   28.7780   48.8410 H   0  0  0  0  0  0  0  0  0  0  0  0
   45.4370   29.6520   50.0930 H   0  0  0  0  0  0  0  0  0  0  0  0
   46.1640   33.5930   45.2740 C   0  0  2  0  0  0  0  0  0  0  0  0
   44.9530   34.6850   45.5040 C   0  0  0  0  0  0  0  0  0  0  0  0
   44.7200   35.6140   44.4350 C   0  0  0  0  0  0  0  0  0  0  0  0
   45.5230   35.5430   43.2100 C   0  0  1  0  0  0  0  0  0  0  0  0
   46.5830   34.5420   43.1630 C   0  0  0  0  0  0  0  0  0  0  0  0
   46.1330   33.3080   43.9100 C   0  0  0  0  0  0  0  0  0  0  0  0
   46.9980   34.2850   45.6010 H   0  0  0  0  0  0  0  0  0  0  0  0
   44.2760   34.8380   46.3350 H   0  0  0  0  0  0  0  0  0  0  0  0
   43.9510   36.3340   44.5450 H   0  0  0  0  0  0  0  0  0  0  0  0
   45.9460   36.5510   43.0090 H   0  0  0  0  0  0  0  0  0  0  0  0
   47.5620   34.9060   43.5770 H   0  0  0  0  0  0  0  0  0  0  0  0
   46.8260   34.3310   42.0840 H   0  0  0  0  0  0  0  0  0  0  0  0
   45.1820   32.9630   43.4490 H   0  0  0  0  0  0  0  0  0  0  0  0
   46.9880   32.6600   43.5790 H   0  0  0  0  0  0  0  0  0  0  0  0
   44.5110   35.2770   42.0550 C   0  0  0  0  0  0  0  0  0  0  0  0
   43.4540   34.4730   42.4490 F   0  0  0  0  0  0  0  0  0  0  0  0
   43.9610   36.5130   41.7240 F   0  0  0  0  0  0  0  0  0  0  0  0
   45.1880   34.8210   40.9410 F   0  0  0  0  0  0  0  0  0  0  0  0
   46.8490   30.6030   44.9660 C   0  0  0  0  0  0  0  0  0  0  0  0
   46.5280   29.8350   43.8940 C   0  0  0  0  0  0  0  0  0  0  0  0
   47.7120   29.4590   43.2490 C   0  0  0  0  0  0  0  0  0  0  0  0
   48.6930   30.0160   43.9590 N   0  0  0  0  0  0  0  0  0  0  0  0
   48.2100   30.6930   44.9740 N   0  0  0  0  0  0  0  0  0  0  0  0
   45.4800   29.6480   43.7200 H   0  0  0  0  0  0  0  0  0  0  0  0
   47.6780   28.8390   42.3630 H   0  0  0  0  0  0  0  0  0  0  0  0
   50.0810   29.8550   43.6040 C   0  0  0  0  0  0  0  0  0  0  0  0
   50.9720   29.1900   44.4030 C   0  0  0  0  0  3  0  0  0  0  0  0
   52.2730   29.1320   43.8980 C   0  0  0  0  0  0  0  0  0  0  0  0
   53.0340   28.6200   44.4770 H   0  0  0  0  0  0  0  0  0  0  0  0
   52.6690   29.6670   42.7340 N   0  0  0  0  0  0  0  0  0  0  0  0
   51.7720   30.3040   41.9910 C   0  0  0  0  0  3  0  0  0  0  0  0
   50.4990   30.3870   42.4330 N   0  0  0  0  0  0  0  0  0  0  0  0
  1  8  1  0  0  0  0
  1  6  1  0  0  0  0
  2  1  2  0  0  0  0
  3  2  1  0  0  0  0
  3  4  2  0  0  0  0
  4  5  1  0  0  0  0
  5  6  2  0  0  0  0
  5  7  1  0  0  0  0
  7 10  1  0  0  0  0
  9  7  1  0  0  0  0
 11 12  1  0  0  0  0
 11 17  1  1  0  0  0
 11  2  1  0  0  0  0
 12 18  1  0  0  0  0
 13 19  1  0  0  0  0
 13 12  2  0  0  0  0
 14 20  1  6  0  0  0
 14 13  1  0  0  0  0
 15 14  1  0  0  0  0
 15 21  1  0  0  0  0
 15 16  1  0  0  0  0
 16 11  1  0  0  0  0
 22 15  1  0  0  0  0
 23 16  1  0  0  0  0
 24 16  1  0  0  0  0
 25 26  1  0  0  0  0
 25 14  1  0  0  0  0
 27 25  1  0  0  0  0
 28 25  1  0  0  0  0
 29 33  2  0  0  0  0
 29  3  1  0  0  0  0
 30 29  1  0  0  0  0
 31 30  2  0  0  0  0
 31 32  1  0  0  0  0
 32 33  1  0  0  0  0
 34 30  1  0  0  0  0
 35 31  1  0  0  0  0
 36 32  1  0  0  0  0
 36 37  1  0  0  0  0
 38 37  2  0  0  0  0
 38 39  1  0  0  0  0
 40 38  1  0  0  0  0
 41 42  1  0  0  0  0
 41 40  2  0  0  0  0
 42 36  2  0  0  0  0
M  END
>  <minimizedAffinity>
-5.82212305

>  <minimizedRMSD>
0.554687619

$$$$
