
 OpenBabel03232520533D

 35 37  0  0  1  0  0  0  0  0999 V2000
   46.7280   33.6930   44.4790 C   0  0  2  0  0  0  0  0  0  0  0  0
   45.3890   34.2040   44.9830 C   0  0  0  0  0  0  0  0  0  0  0  0
   44.6820   35.1400   44.1400 C   0  0  0  0  0  0  0  0  0  0  0  0
   45.2390   35.5620   42.8690 C   0  0  1  0  0  0  0  0  0  0  0  0
   46.5920   35.0680   42.5200 C   0  0  0  0  0  0  0  0  0  0  0  0
   46.7510   33.6520   42.9930 C   0  0  0  0  0  0  0  0  0  0  0  0
   47.4570   34.4870   44.8170 H   0  0  0  0  0  0  0  0  0  0  0  0
   44.7780   34.0480   45.8610 H   0  0  0  0  0  0  0  0  0  0  0  0
   43.7280   35.5510   44.4200 H   0  0  0  0  0  0  0  0  0  0  0  0
   45.2670   36.6740   42.8520 H   0  0  0  0  0  0  0  0  0  0  0  0
   46.7100   35.0560   41.4180 H   0  0  0  0  0  0  0  0  0  0  0  0
   47.4050   35.6650   42.9820 H   0  0  0  0  0  0  0  0  0  0  0  0
   45.9740   32.9730   42.5890 H   0  0  0  0  0  0  0  0  0  0  0  0
   47.7740   33.3420   42.6930 H   0  0  0  0  0  0  0  0  0  0  0  0
   47.0190   32.3840   46.5410 C   0  0  0  0  0  0  0  0  0  0  0  0
   47.0570   32.4520   45.1600 C   0  0  0  0  0  0  0  0  0  0  0  0
   47.4330   31.2850   44.4850 C   0  0  0  0  0  0  0  0  0  0  0  0
   47.7360   30.1680   45.1720 N   0  0  0  0  0  0  0  0  0  0  0  0
   47.6910   30.1280   46.5350 C   0  0  0  0  0  0  0  0  0  0  0  0
   47.3260   31.2570   47.2050 N   0  0  0  0  0  0  0  0  0  0  0  0
   46.7520   33.1920   47.2040 H   0  0  0  0  0  0  0  0  0  0  0  0
   47.4800   31.2740   43.4210 H   0  0  0  0  0  0  0  0  0  0  0  0
   48.0210   28.9200   47.2080 N   0  0  0  0  0  0  0  0  0  0  0  0
   47.5030   27.7430   46.8160 C   0  0  0  0  0  0  0  0  0  0  0  0
   47.8070   26.5380   47.4550 C   0  0  0  0  0  0  0  0  0  0  0  0
   48.6820   26.6940   48.5100 C   0  0  0  0  0  0  0  0  0  0  0  0
   49.0070   25.6340   49.1440 O   0  0  0  0  0  0  0  0  0  0  0  0
   49.2250   27.8480   48.9390 N   0  0  0  0  0  0  0  0  0  0  0  0
   48.8700   28.9740   48.2530 C   0  0  0  0  0  0  0  0  0  0  0  0
   49.3990   30.0340   48.6840 O   0  0  0  0  0  0  0  0  0  0  0  0
   49.8790   27.8410   49.7530 H   0  0  0  0  0  0  0  0  0  0  0  0
   44.2420   35.1780   41.7670 C   0  0  0  0  0  0  0  0  0  0  0  0
   43.3200   34.2440   42.1840 F   0  0  0  0  0  0  0  0  0  0  0  0
   43.5070   36.3270   41.4520 F   0  0  0  0  0  0  0  0  0  0  0  0
   44.9150   34.8010   40.6230 F   0  0  0  0  0  0  0  0  0  0  0  0
  1  7  1  1  0  0  0
  1  2  1  0  0  0  0
  1 16  1  0  0  0  0
  2  8  1  0  0  0  0
  3  9  1  0  0  0  0
  3  2  2  0  0  0  0
  4 10  1  1  0  0  0
  4  3  1  0  0  0  0
  5  4  1  0  0  0  0
  5 12  1  0  0  0  0
  5  6  1  0  0  0  0
  6  1  1  0  0  0  0
 11  5  1  0  0  0  0
 13  6  1  0  0  0  0
 14  6  1  0  0  0  0
 15 21  1  0  0  0  0
 15 20  1  0  0  0  0
 16 15  2  0  0  0  0
 17 16  1  0  0  0  0
 17 18  2  0  0  0  0
 18 19  1  0  0  0  0
 19 20  2  0  0  0  0
 19 23  1  0  0  0  0
 22 17  1  0  0  0  0
 23 29  1  0  0  0  0
 24 23  1  0  0  0  0
 24 25  2  0  0  0  0
 25 26  1  0  0  0  0
 26 28  1  0  0  0  0
 26 27  2  0  0  0  0
 28 31  1  0  0  0  0
 29 30  2  0  0  0  0
 29 28  1  0  0  0  0
 32 33  1  0  0  0  0
 32  4  1  0  0  0  0
 34 32  1  0  0  0  0
 35 32  1  0  0  0  0
M  END
>  <minimizedAffinity>
-5.74897194

>  <minimizedRMSD>
2.65920925

$$$$
