
 OpenBabel03232521013D

 42 45  0  0  1  0  0  0  0  0999 V2000
   45.3630   32.9140   47.5040 C   0  0  0  0  0  0  0  0  0  0  0  0
   45.9130   32.6550   46.2880 C   0  0  0  0  0  0  0  0  0  0  0  0
   46.1800   31.3050   46.0460 C   0  0  0  0  0  0  0  0  0  0  0  0
   45.9190   30.3140   46.9370 N   0  0  0  0  0  0  0  0  0  0  0  0
   45.3560   30.6280   48.1650 C   0  0  0  0  0  0  0  0  0  0  0  0
   45.0950   31.9080   48.4160 N   0  0  0  0  0  0  0  0  0  0  0  0
   45.0800   29.6190   49.1160 N   0  0  0  0  0  0  0  0  0  0  0  0
   45.1210   33.9240   47.7970 H   0  0  0  0  0  0  0  0  0  0  0  0
   44.4880   28.8040   48.8450 H   0  0  0  0  0  0  0  0  0  0  0  0
   45.4550   29.6710   50.0850 H   0  0  0  0  0  0  0  0  0  0  0  0
   46.1560   33.6060   45.2580 C   0  0  2  0  0  0  0  0  0  0  0  0
   44.9490   34.7000   45.4940 C   0  0  0  0  0  0  0  0  0  0  0  0
   44.7110   35.6280   44.4240 C   0  0  0  0  0  0  0  0  0  0  0  0
   45.5060   35.5540   43.1950 C   0  0  1  0  0  0  0  0  0  0  0  0
   46.5650   34.5510   43.1440 C   0  0  0  0  0  0  0  0  0  0  0  0
   46.1180   33.3190   43.8950 C   0  0  0  0  0  0  0  0  0  0  0  0
   46.9930   34.2980   45.5800 H   0  0  0  0  0  0  0  0  0  0  0  0
   44.2770   34.8550   46.3280 H   0  0  0  0  0  0  0  0  0  0  0  0
   43.9440   36.3490   44.5380 H   0  0  0  0  0  0  0  0  0  0  0  0
   45.9300   36.5610   42.9900 H   0  0  0  0  0  0  0  0  0  0  0  0
   47.5470   34.9150   43.5520 H   0  0  0  0  0  0  0  0  0  0  0  0
   46.8020   34.3380   42.0630 H   0  0  0  0  0  0  0  0  0  0  0  0
   45.1640   32.9740   43.4400 H   0  0  0  0  0  0  0  0  0  0  0  0
   46.9700   32.6690   43.5600 H   0  0  0  0  0  0  0  0  0  0  0  0
   44.4880   35.2870   42.0460 C   0  0  0  0  0  0  0  0  0  0  0  0
   43.4290   34.4910   42.4490 F   0  0  0  0  0  0  0  0  0  0  0  0
   43.9430   36.5240   41.7120 F   0  0  0  0  0  0  0  0  0  0  0  0
   45.1570   34.8220   40.9310 F   0  0  0  0  0  0  0  0  0  0  0  0
   46.8140   30.6110   44.9430 C   0  0  0  0  0  0  0  0  0  0  0  0
   46.4770   29.8220   43.8900 C   0  0  0  0  0  0  0  0  0  0  0  0
   47.6490   29.4560   43.2180 C   0  0  0  0  0  0  0  0  0  0  0  0
   48.6400   30.0400   43.8930 N   0  0  0  0  0  0  0  0  0  0  0  0
   48.1730   30.7240   44.9110 N   0  0  0  0  0  0  0  0  0  0  0  0
   45.4280   29.6150   43.7480 H   0  0  0  0  0  0  0  0  0  0  0  0
   47.6020   28.8220   42.3430 H   0  0  0  0  0  0  0  0  0  0  0  0
   50.0200   29.8960   43.5020 C   0  0  0  0  0  0  0  0  0  0  0  0
   50.9080   29.1280   44.2050 C   0  0  0  0  0  3  0  0  0  0  0  0
   52.2020   29.1070   43.6790 C   0  0  0  0  0  0  0  0  0  0  0  0
   52.9610   28.5180   44.1830 H   0  0  0  0  0  0  0  0  0  0  0  0
   52.5930   29.7660   42.5790 N   0  0  0  0  0  0  0  0  0  0  0  0
   51.6990   30.5000   41.9280 C   0  0  0  0  0  3  0  0  0  0  0  0
   50.4340   30.5550   42.3950 N   0  0  0  0  0  0  0  0  0  0  0  0
  1  8  1  0  0  0  0
  1  6  1  0  0  0  0
  2  1  2  0  0  0  0
  3  2  1  0  0  0  0
  3  4  2  0  0  0  0
  4  5  1  0  0  0  0
  5  6  2  0  0  0  0
  5  7  1  0  0  0  0
  7 10  1  0  0  0  0
  9  7  1  0  0  0  0
 11 12  1  0  0  0  0
 11 17  1  1  0  0  0
 11  2  1  0  0  0  0
 12 18  1  0  0  0  0
 13 19  1  0  0  0  0
 13 12  2  0  0  0  0
 14 20  1  6  0  0  0
 14 13  1  0  0  0  0
 15 14  1  0  0  0  0
 15 21  1  0  0  0  0
 15 16  1  0  0  0  0
 16 11  1  0  0  0  0
 22 15  1  0  0  0  0
 23 16  1  0  0  0  0
 24 16  1  0  0  0  0
 25 26  1  0  0  0  0
 25 14  1  0  0  0  0
 27 25  1  0  0  0  0
 28 25  1  0  0  0  0
 29  3  1  0  0  0  0
 30 29  1  0  0  0  0
 31 30  2  0  0  0  0
 31 32  1  0  0  0  0
 32 33  1  0  0  0  0
 33 29  2  0  0  0  0
 34 30  1  0  0  0  0
 35 31  1  0  0  0  0
 36 32  1  0  0  0  0
 36 37  1  0  0  0  0
 38 39  1  0  0  0  0
 38 37  2  0  0  0  0
 40 38  1  0  0  0  0
 41 42  1  0  0  0  0
 41 40  2  0  0  0  0
 42 36  2  0  0  0  0
M  END
>  <minimizedAffinity>
-5.83855391

>  <minimizedRMSD>
0.23595947

$$$$
