
 OpenBabel03232521013D

 42 45  0  0  1  0  0  0  0  0999 V2000
   45.3500   32.8970   47.5110 C   0  0  0  0  0  0  0  0  0  0  0  0
   45.9160   32.6410   46.3010 C   0  0  0  0  0  0  0  0  0  0  0  0
   46.1970   31.2940   46.0640 C   0  0  0  0  0  0  0  0  0  0  0  0
   45.9330   30.3020   46.9520 N   0  0  0  0  0  0  0  0  0  0  0  0
   45.3530   30.6120   48.1730 C   0  0  0  0  0  0  0  0  0  0  0  0
   45.0790   31.8900   48.4200 N   0  0  0  0  0  0  0  0  0  0  0  0
   45.0740   29.6010   49.1220 N   0  0  0  0  0  0  0  0  0  0  0  0
   45.0960   33.9060   47.8000 H   0  0  0  0  0  0  0  0  0  0  0  0
   44.4920   28.7810   48.8440 H   0  0  0  0  0  0  0  0  0  0  0  0
   45.4380   29.6560   50.0950 H   0  0  0  0  0  0  0  0  0  0  0  0
   46.1640   33.5940   45.2740 C   0  0  2  0  0  0  0  0  0  0  0  0
   44.9530   34.6860   45.5030 C   0  0  0  0  0  0  0  0  0  0  0  0
   44.7190   35.6140   44.4340 C   0  0  0  0  0  0  0  0  0  0  0  0
   45.5220   35.5420   43.2080 C   0  0  1  0  0  0  0  0  0  0  0  0
   46.5830   34.5420   43.1620 C   0  0  0  0  0  0  0  0  0  0  0  0
   46.1330   33.3080   43.9100 C   0  0  0  0  0  0  0  0  0  0  0  0
   46.9980   34.2870   45.6010 H   0  0  0  0  0  0  0  0  0  0  0  0
   44.2760   34.8390   46.3340 H   0  0  0  0  0  0  0  0  0  0  0  0
   43.9510   36.3340   44.5430 H   0  0  0  0  0  0  0  0  0  0  0  0
   45.9460   36.5510   43.0060 H   0  0  0  0  0  0  0  0  0  0  0  0
   47.5610   34.9060   43.5760 H   0  0  0  0  0  0  0  0  0  0  0  0
   46.8250   34.3300   42.0830 H   0  0  0  0  0  0  0  0  0  0  0  0
   45.1820   32.9620   43.4500 H   0  0  0  0  0  0  0  0  0  0  0  0
   46.9880   32.6600   43.5800 H   0  0  0  0  0  0  0  0  0  0  0  0
   44.5100   35.2750   42.0540 C   0  0  0  0  0  0  0  0  0  0  0  0
   43.4550   34.4700   42.4480 F   0  0  0  0  0  0  0  0  0  0  0  0
   43.9580   36.5100   41.7240 F   0  0  0  0  0  0  0  0  0  0  0  0
   45.1870   34.8220   40.9390 F   0  0  0  0  0  0  0  0  0  0  0  0
   46.8490   30.6040   44.9680 C   0  0  0  0  0  0  0  0  0  0  0  0
   46.5270   29.8350   43.8960 C   0  0  0  0  0  0  0  0  0  0  0  0
   47.7110   29.4590   43.2510 C   0  0  0  0  0  0  0  0  0  0  0  0
   48.6920   30.0160   43.9600 N   0  0  0  0  0  0  0  0  0  0  0  0
   48.2090   30.6940   44.9750 N   0  0  0  0  0  0  0  0  0  0  0  0
   45.4790   29.6480   43.7220 H   0  0  0  0  0  0  0  0  0  0  0  0
   47.6770   28.8380   42.3660 H   0  0  0  0  0  0  0  0  0  0  0  0
   50.0800   29.8540   43.6050 C   0  0  0  0  0  0  0  0  0  0  0  0
   50.9710   29.1890   44.4020 C   0  0  0  0  0  3  0  0  0  0  0  0
   52.2730   29.1300   43.8980 C   0  0  0  0  0  0  0  0  0  0  0  0
   53.0340   28.6180   44.4750 H   0  0  0  0  0  0  0  0  0  0  0  0
   52.6680   29.6670   42.7340 N   0  0  0  0  0  0  0  0  0  0  0  0
   51.7700   30.3030   41.9910 C   0  0  0  0  0  3  0  0  0  0  0  0
   50.4990   30.3880   42.4350 N   0  0  0  0  0  0  0  0  0  0  0  0
  1  8  1  0  0  0  0
  1  6  1  0  0  0  0
  2  1  2  0  0  0  0
  3  2  1  0  0  0  0
  3  4  2  0  0  0  0
  4  5  1  0  0  0  0
  5  6  2  0  0  0  0
  5  7  1  0  0  0  0
  7 10  1  0  0  0  0
  9  7  1  0  0  0  0
 11 12  1  0  0  0  0
 11 17  1  1  0  0  0
 11  2  1  0  0  0  0
 12 18  1  0  0  0  0
 13 19  1  0  0  0  0
 13 12  2  0  0  0  0
 14 20  1  6  0  0  0
 14 13  1  0  0  0  0
 15 14  1  0  0  0  0
 15 21  1  0  0  0  0
 15 16  1  0  0  0  0
 16 11  1  0  0  0  0
 22 15  1  0  0  0  0
 23 16  1  0  0  0  0
 24 16  1  0  0  0  0
 25 26  1  0  0  0  0
 25 14  1  0  0  0  0
 27 25  1  0  0  0  0
 28 25  1  0  0  0  0
 29 33  2  0  0  0  0
 29  3  1  0  0  0  0
 30 29  1  0  0  0  0
 31 30  2  0  0  0  0
 31 32  1  0  0  0  0
 32 33  1  0  0  0  0
 34 30  1  0  0  0  0
 35 31  1  0  0  0  0
 36 32  1  0  0  0  0
 36 37  1  0  0  0  0
 38 37  2  0  0  0  0
 38 39  1  0  0  0  0
 40 38  1  0  0  0  0
 41 42  1  0  0  0  0
 41 40  2  0  0  0  0
 42 36  2  0  0  0  0
M  END
>  <minimizedAffinity>
-5.82002497

>  <minimizedRMSD>
0.207535639

$$$$
