
 OpenBabel03232520553D

 37 39  0  0  1  0  0  0  0  0999 V2000
   45.3280   32.8610   47.5190 C   0  0  0  0  0  0  0  0  0  0  0  0
   45.9000   32.5870   46.3160 C   0  0  0  0  0  0  0  0  0  0  0  0
   46.2280   31.2420   46.0800 C   0  0  0  0  0  0  0  0  0  0  0  0
   45.9940   30.2850   46.9860 N   0  0  0  0  0  0  0  0  0  0  0  0
   45.4140   30.5960   48.1970 C   0  0  0  0  0  0  0  0  0  0  0  0
   45.0930   31.8640   48.4450 N   0  0  0  0  0  0  0  0  0  0  0  0
   45.1760   29.5780   49.1590 N   0  0  0  0  0  0  0  0  0  0  0  0
   45.0490   33.8700   47.7740 H   0  0  0  0  0  0  0  0  0  0  0  0
   45.3530   29.7230   50.1880 H   0  0  0  0  0  0  0  0  0  0  0  0
   44.8160   28.6620   48.8430 H   0  0  0  0  0  0  0  0  0  0  0  0
   46.1230   33.5780   45.3130 C   0  0  2  0  0  0  0  0  0  0  0  0
   44.9810   34.6540   45.4920 C   0  0  0  0  0  0  0  0  0  0  0  0
   44.7570   35.5630   44.4020 C   0  0  0  0  0  0  0  0  0  0  0  0
   45.5500   35.4760   43.1870 C   0  0  1  0  0  0  0  0  0  0  0  0
   46.6440   34.4950   43.1810 C   0  0  0  0  0  0  0  0  0  0  0  0
   46.2140   33.2530   43.9260 C   0  0  0  0  0  0  0  0  0  0  0  0
   46.9550   34.2750   45.6660 H   0  0  0  0  0  0  0  0  0  0  0  0
   44.2770   34.8920   46.2800 H   0  0  0  0  0  0  0  0  0  0  0  0
   43.9900   36.3220   44.4630 H   0  0  0  0  0  0  0  0  0  0  0  0
   45.9640   36.4870   42.9670 H   0  0  0  0  0  0  0  0  0  0  0  0
   46.8820   34.2140   42.1290 H   0  0  0  0  0  0  0  0  0  0  0  0
   47.5890   34.8830   43.6500 H   0  0  0  0  0  0  0  0  0  0  0  0
   45.1900   33.0150   43.5020 H   0  0  0  0  0  0  0  0  0  0  0  0
   46.8690   32.4890   43.5310 H   0  0  0  0  0  0  0  0  0  0  0  0
   44.5770   35.1790   42.0200 C   0  0  0  0  0  0  0  0  0  0  0  0
   43.5690   34.3080   42.3730 F   0  0  0  0  0  0  0  0  0  0  0  0
   43.9540   36.3880   41.7070 F   0  0  0  0  0  0  0  0  0  0  0  0
   45.2950   34.7820   40.8990 F   0  0  0  0  0  0  0  0  0  0  0  0
   46.8170   30.5580   44.9820 N   0  0  0  0  0  0  0  0  0  0  0  0
   48.1880   30.5060   44.9220 C   0  0  0  0  0  0  0  0  0  0  0  0
   48.7350   29.7920   43.8620 C   0  0  0  0  0  0  0  0  0  0  0  0
   47.8860   29.1890   42.9500 C   0  0  0  0  0  0  0  0  0  0  0  0
   48.4100   28.5520   42.0040 O   0  0  0  0  0  0  0  0  0  0  0  0
   46.5570   29.2760   43.0630 N   0  0  0  0  0  0  0  0  0  0  0  0
   45.9670   29.9590   44.0780 C   0  0  0  0  0  0  0  0  0  0  0  0
   44.7300   30.0900   44.2580 O   0  0  0  0  0  0  0  0  0  0  0  0
   45.9020   28.8200   42.3750 H   0  0  0  0  0  0  0  0  0  0  0  0
  1  8  1  0  0  0  0
  1  6  1  0  0  0  0
  2  1  2  0  0  0  0
  3  2  1  0  0  0  0
  3  4  2  0  0  0  0
  4  5  1  0  0  0  0
  5  6  2  0  0  0  0
  5  7  1  0  0  0  0
  7  9  1  0  0  0  0
 10  7  1  0  0  0  0
 11 12  1  0  0  0  0
 11 17  1  1  0  0  0
 11  2  1  0  0  0  0
 12 18  1  0  0  0  0
 13 19  1  0  0  0  0
 13 12  2  0  0  0  0
 14 20  1  6  0  0  0
 14 13  1  0  0  0  0
 15 14  1  0  0  0  0
 15 22  1  0  0  0  0
 15 16  1  0  0  0  0
 16 11  1  0  0  0  0
 21 15  1  0  0  0  0
 23 16  1  0  0  0  0
 24 16  1  0  0  0  0
 25 26  1  0  0  0  0
 25 14  1  0  0  0  0
 27 25  1  0  0  0  0
 28 25  1  0  0  0  0
 29  3  1  0  0  0  0
 30 29  1  0  0  0  0
 31 30  2  0  0  0  0
 32 34  1  0  0  0  0
 32 31  1  0  0  0  0
 33 32  2  0  0  0  0
 34 35  1  0  0  0  0
 35 36  2  0  0  0  0
 35 29  1  0  0  0  0
 37 34  1  0  0  0  0
M  END
>  <minimizedAffinity>
-5.74714756

>  <minimizedRMSD>
0.330281913

$$$$
