
 OpenBabel03232521003D

 42 45  0  0  1  0  0  0  0  0999 V2000
   45.3630   32.9060   47.5040 C   0  0  0  0  0  0  0  0  0  0  0  0
   45.9140   32.6490   46.2880 C   0  0  0  0  0  0  0  0  0  0  0  0
   46.1810   31.3000   46.0440 C   0  0  0  0  0  0  0  0  0  0  0  0
   45.9190   30.3070   46.9330 N   0  0  0  0  0  0  0  0  0  0  0  0
   45.3550   30.6190   48.1610 C   0  0  0  0  0  0  0  0  0  0  0  0
   45.0940   31.8990   48.4140 N   0  0  0  0  0  0  0  0  0  0  0  0
   45.0780   29.6090   49.1100 N   0  0  0  0  0  0  0  0  0  0  0  0
   45.1200   33.9160   47.7980 H   0  0  0  0  0  0  0  0  0  0  0  0
   44.4870   28.7940   48.8370 H   0  0  0  0  0  0  0  0  0  0  0  0
   45.4530   29.6590   50.0800 H   0  0  0  0  0  0  0  0  0  0  0  0
   46.1580   33.6020   45.2600 C   0  0  2  0  0  0  0  0  0  0  0  0
   44.9500   34.6950   45.4960 C   0  0  0  0  0  0  0  0  0  0  0  0
   44.7130   35.6250   44.4280 C   0  0  0  0  0  0  0  0  0  0  0  0
   45.5090   35.5530   43.1990 C   0  0  1  0  0  0  0  0  0  0  0  0
   46.5690   34.5510   43.1470 C   0  0  0  0  0  0  0  0  0  0  0  0
   46.1200   33.3170   43.8960 C   0  0  0  0  0  0  0  0  0  0  0  0
   46.9940   34.2930   45.5830 H   0  0  0  0  0  0  0  0  0  0  0  0
   44.2770   34.8490   46.3300 H   0  0  0  0  0  0  0  0  0  0  0  0
   43.9450   36.3460   44.5420 H   0  0  0  0  0  0  0  0  0  0  0  0
   45.9330   36.5610   42.9960 H   0  0  0  0  0  0  0  0  0  0  0  0
   47.5490   34.9140   43.5570 H   0  0  0  0  0  0  0  0  0  0  0  0
   46.8060   34.3390   42.0670 H   0  0  0  0  0  0  0  0  0  0  0  0
   45.1670   32.9730   43.4400 H   0  0  0  0  0  0  0  0  0  0  0  0
   46.9730   32.6680   43.5610 H   0  0  0  0  0  0  0  0  0  0  0  0
   44.4910   35.2880   42.0490 C   0  0  0  0  0  0  0  0  0  0  0  0
   43.4310   34.4930   42.4500 F   0  0  0  0  0  0  0  0  0  0  0  0
   43.9490   36.5260   41.7150 F   0  0  0  0  0  0  0  0  0  0  0  0
   45.1610   34.8240   40.9350 F   0  0  0  0  0  0  0  0  0  0  0  0
   46.8160   30.6070   44.9400 C   0  0  0  0  0  0  0  0  0  0  0  0
   46.4800   29.8200   43.8860 C   0  0  0  0  0  0  0  0  0  0  0  0
   47.6520   29.4560   43.2140 C   0  0  0  0  0  0  0  0  0  0  0  0
   48.6420   30.0380   43.8910 N   0  0  0  0  0  0  0  0  0  0  0  0
   48.1750   30.7200   44.9100 N   0  0  0  0  0  0  0  0  0  0  0  0
   45.4310   29.6140   43.7420 H   0  0  0  0  0  0  0  0  0  0  0  0
   47.6050   28.8240   42.3370 H   0  0  0  0  0  0  0  0  0  0  0  0
   50.0230   29.8940   43.5010 C   0  0  0  0  0  0  0  0  0  0  0  0
   50.9100   29.1260   44.2040 C   0  0  0  0  0  3  0  0  0  0  0  0
   52.2050   29.1040   43.6800 C   0  0  0  0  0  0  0  0  0  0  0  0
   52.9620   28.5160   44.1830 H   0  0  0  0  0  0  0  0  0  0  0  0
   52.5960   29.7640   42.5800 N   0  0  0  0  0  0  0  0  0  0  0  0
   51.7030   30.4980   41.9280 C   0  0  0  0  0  3  0  0  0  0  0  0
   50.4380   30.5530   42.3940 N   0  0  0  0  0  0  0  0  0  0  0  0
  1  8  1  0  0  0  0
  1  6  1  0  0  0  0
  2  1  2  0  0  0  0
  3  2  1  0  0  0  0
  3  4  2  0  0  0  0
  4  5  1  0  0  0  0
  5  6  2  0  0  0  0
  5  7  1  0  0  0  0
  7 10  1  0  0  0  0
  9  7  1  0  0  0  0
 11 12  1  0  0  0  0
 11 17  1  1  0  0  0
 11  2  1  0  0  0  0
 12 18  1  0  0  0  0
 13 19  1  0  0  0  0
 13 12  2  0  0  0  0
 14 20  1  6  0  0  0
 14 13  1  0  0  0  0
 15 14  1  0  0  0  0
 15 21  1  0  0  0  0
 15 16  1  0  0  0  0
 16 11  1  0  0  0  0
 22 15  1  0  0  0  0
 23 16  1  0  0  0  0
 24 16  1  0  0  0  0
 25 26  1  0  0  0  0
 25 14  1  0  0  0  0
 27 25  1  0  0  0  0
 28 25  1  0  0  0  0
 29  3  1  0  0  0  0
 30 29  1  0  0  0  0
 31 30  2  0  0  0  0
 31 32  1  0  0  0  0
 32 33  1  0  0  0  0
 33 29  2  0  0  0  0
 34 30  1  0  0  0  0
 35 31  1  0  0  0  0
 36 32  1  0  0  0  0
 36 37  1  0  0  0  0
 38 39  1  0  0  0  0
 38 37  2  0  0  0  0
 40 38  1  0  0  0  0
 41 42  1  0  0  0  0
 41 40  2  0  0  0  0
 42 36  2  0  0  0  0
M  END
>  <minimizedAffinity>
-5.83982182

>  <minimizedRMSD>
0.304420352

$$$$
