
 OpenBabel03232521003D

 42 45  0  0  1  0  0  0  0  0999 V2000
   45.3850   32.8850   47.4570 C   0  0  0  0  0  0  0  0  0  0  0  0
   45.9240   32.6380   46.2330 C   0  0  0  0  0  0  0  0  0  0  0  0
   46.1900   31.2920   45.9760 C   0  0  0  0  0  0  0  0  0  0  0  0
   45.9380   30.2920   46.8590 N   0  0  0  0  0  0  0  0  0  0  0  0
   45.3860   30.5930   48.0960 C   0  0  0  0  0  0  0  0  0  0  0  0
   45.1270   31.8700   48.3610 N   0  0  0  0  0  0  0  0  0  0  0  0
   45.1200   29.5750   49.0390 N   0  0  0  0  0  0  0  0  0  0  0  0
   45.1450   33.8930   47.7610 H   0  0  0  0  0  0  0  0  0  0  0  0
   44.5260   28.7620   48.7660 H   0  0  0  0  0  0  0  0  0  0  0  0
   45.5040   29.6170   50.0050 H   0  0  0  0  0  0  0  0  0  0  0  0
   46.1570   33.6000   45.2110 C   0  0  2  0  0  0  0  0  0  0  0  0
   44.9550   34.6930   45.4720 C   0  0  0  0  0  0  0  0  0  0  0  0
   44.7050   35.6330   44.4150 C   0  0  0  0  0  0  0  0  0  0  0  0
   45.4860   35.5700   43.1750 C   0  0  1  0  0  0  0  0  0  0  0  0
   46.5420   34.5660   43.1010 C   0  0  0  0  0  0  0  0  0  0  0  0
   46.1010   33.3270   43.8450 C   0  0  0  0  0  0  0  0  0  0  0  0
   46.9990   34.2870   45.5290 H   0  0  0  0  0  0  0  0  0  0  0  0
   44.2930   34.8410   46.3160 H   0  0  0  0  0  0  0  0  0  0  0  0
   43.9410   36.3540   44.5450 H   0  0  0  0  0  0  0  0  0  0  0  0
   45.9100   36.5790   42.9750 H   0  0  0  0  0  0  0  0  0  0  0  0
   47.5290   34.9230   43.5010 H   0  0  0  0  0  0  0  0  0  0  0  0
   46.7650   34.3640   42.0160 H   0  0  0  0  0  0  0  0  0  0  0  0
   45.1410   32.9890   43.3980 H   0  0  0  0  0  0  0  0  0  0  0  0
   46.9480   32.6790   43.4930 H   0  0  0  0  0  0  0  0  0  0  0  0
   44.4530   35.3170   42.0370 C   0  0  0  0  0  0  0  0  0  0  0  0
   43.3880   34.5350   42.4490 F   0  0  0  0  0  0  0  0  0  0  0  0
   43.9220   36.5610   41.7080 F   0  0  0  0  0  0  0  0  0  0  0  0
   45.1060   34.8450   40.9150 F   0  0  0  0  0  0  0  0  0  0  0  0
   46.8140   30.6080   44.8590 C   0  0  0  0  0  0  0  0  0  0  0  0
   46.4750   29.7850   43.8340 C   0  0  0  0  0  0  0  0  0  0  0  0
   47.6370   29.4640   43.1230 C   0  0  0  0  0  0  0  0  0  0  0  0
   48.6230   30.1060   43.7490 N   0  0  0  0  0  0  0  0  0  0  0  0
   48.1630   30.7850   44.7730 N   0  0  0  0  0  0  0  0  0  0  0  0
   45.4330   29.5270   43.7360 H   0  0  0  0  0  0  0  0  0  0  0  0
   47.5870   28.8130   42.2600 H   0  0  0  0  0  0  0  0  0  0  0  0
   49.9930   30.0210   43.3060 C   0  0  0  0  0  0  0  0  0  0  0  0
   50.3720   30.3250   42.0270 C   0  0  0  0  0  3  0  0  0  0  0  0
   51.7410   30.1860   41.7790 C   0  0  0  0  0  0  0  0  0  0  0  0
   52.1160   30.4090   40.7860 H   0  0  0  0  0  0  0  0  0  0  0  0
   52.6480   29.7910   42.6840 N   0  0  0  0  0  0  0  0  0  0  0  0
   52.2360   29.5060   43.9130 C   0  0  0  0  0  3  0  0  0  0  0  0
   50.9240   29.6240   44.2060 N   0  0  0  0  0  0  0  0  0  0  0  0
  1  8  1  0  0  0  0
  1  6  1  0  0  0  0
  2  1  2  0  0  0  0
  3  2  1  0  0  0  0
  3  4  2  0  0  0  0
  4  5  1  0  0  0  0
  5  6  2  0  0  0  0
  5  7  1  0  0  0  0
  7 10  1  0  0  0  0
  9  7  1  0  0  0  0
 11 12  1  0  0  0  0
 11 17  1  1  0  0  0
 11  2  1  0  0  0  0
 12 18  1  0  0  0  0
 13 19  1  0  0  0  0
 13 12  2  0  0  0  0
 14 20  1  6  0  0  0
 14 13  1  0  0  0  0
 15 14  1  0  0  0  0
 15 21  1  0  0  0  0
 15 16  1  0  0  0  0
 16 11  1  0  0  0  0
 22 15  1  0  0  0  0
 23 16  1  0  0  0  0
 24 16  1  0  0  0  0
 25 26  1  0  0  0  0
 25 14  1  0  0  0  0
 27 25  1  0  0  0  0
 28 25  1  0  0  0  0
 29  3  1  0  0  0  0
 30 29  1  0  0  0  0
 31 32  1  0  0  0  0
 31 30  2  0  0  0  0
 32 33  1  0  0  0  0
 33 29  2  0  0  0  0
 34 30  1  0  0  0  0
 35 31  1  0  0  0  0
 36 32  1  0  0  0  0
 36 42  1  0  0  0  0
 37 36  2  0  0  0  0
 38 37  1  0  0  0  0
 38 40  2  0  0  0  0
 39 38  1  0  0  0  0
 40 41  1  0  0  0  0
 41 42  2  0  0  0  0
M  END
>  <minimizedAffinity>
-5.83389616

>  <minimizedRMSD>
0.417659879

$$$$
