
 OpenBabel03232521003D

 42 45  0  0  1  0  0  0  0  0999 V2000
   45.3520   32.8790   47.4890 C   0  0  0  0  0  0  0  0  0  0  0  0
   45.9150   32.6320   46.2770 C   0  0  0  0  0  0  0  0  0  0  0  0
   46.1970   31.2870   46.0300 C   0  0  0  0  0  0  0  0  0  0  0  0
   45.9360   30.2880   46.9120 N   0  0  0  0  0  0  0  0  0  0  0  0
   45.3600   30.5900   48.1370 C   0  0  0  0  0  0  0  0  0  0  0  0
   45.0850   31.8650   48.3930 N   0  0  0  0  0  0  0  0  0  0  0  0
   45.0840   29.5720   49.0790 N   0  0  0  0  0  0  0  0  0  0  0  0
   45.0980   33.8850   47.7860 H   0  0  0  0  0  0  0  0  0  0  0  0
   44.5020   28.7530   48.7980 H   0  0  0  0  0  0  0  0  0  0  0  0
   45.4500   29.6210   50.0520 H   0  0  0  0  0  0  0  0  0  0  0  0
   46.1590   33.5910   45.2550 C   0  0  2  0  0  0  0  0  0  0  0  0
   44.9520   34.6840   45.4990 C   0  0  0  0  0  0  0  0  0  0  0  0
   44.7140   35.6210   44.4380 C   0  0  0  0  0  0  0  0  0  0  0  0
   45.5100   35.5560   43.2070 C   0  0  1  0  0  0  0  0  0  0  0  0
   46.5690   34.5540   43.1480 C   0  0  0  0  0  0  0  0  0  0  0  0
   46.1200   33.3150   43.8890 C   0  0  0  0  0  0  0  0  0  0  0  0
   46.9960   34.2800   45.5820 H   0  0  0  0  0  0  0  0  0  0  0  0
   44.2800   34.8330   46.3350 H   0  0  0  0  0  0  0  0  0  0  0  0
   43.9480   36.3410   44.5570 H   0  0  0  0  0  0  0  0  0  0  0  0
   45.9350   36.5650   43.0110 H   0  0  0  0  0  0  0  0  0  0  0  0
   47.5500   34.9140   43.5600 H   0  0  0  0  0  0  0  0  0  0  0  0
   46.8050   34.3500   42.0670 H   0  0  0  0  0  0  0  0  0  0  0  0
   45.1670   32.9750   43.4320 H   0  0  0  0  0  0  0  0  0  0  0  0
   46.9730   32.6680   43.5490 H   0  0  0  0  0  0  0  0  0  0  0  0
   44.4910   35.3000   42.0570 C   0  0  0  0  0  0  0  0  0  0  0  0
   43.4270   34.5090   42.4550 F   0  0  0  0  0  0  0  0  0  0  0  0
   43.9550   36.5410   41.7250 F   0  0  0  0  0  0  0  0  0  0  0  0
   45.1590   34.8350   40.9410 F   0  0  0  0  0  0  0  0  0  0  0  0
   46.8470   30.6040   44.9280 C   0  0  0  0  0  0  0  0  0  0  0  0
   46.5270   29.8170   43.8690 C   0  0  0  0  0  0  0  0  0  0  0  0
   47.7080   29.4670   43.2050 C   0  0  0  0  0  0  0  0  0  0  0  0
   48.6870   30.0590   43.8900 N   0  0  0  0  0  0  0  0  0  0  0  0
   48.2050   30.7330   44.9080 N   0  0  0  0  0  0  0  0  0  0  0  0
   45.4810   29.5990   43.7180 H   0  0  0  0  0  0  0  0  0  0  0  0
   47.6750   28.8370   42.3260 H   0  0  0  0  0  0  0  0  0  0  0  0
   50.0720   29.9330   43.5090 C   0  0  0  0  0  0  0  0  0  0  0  0
   50.5320   30.3080   42.2770 C   0  0  0  0  0  3  0  0  0  0  0  0
   51.9030   30.1150   42.0830 C   0  0  0  0  0  0  0  0  0  0  0  0
   52.3390   30.3880   41.1310 H   0  0  0  0  0  0  0  0  0  0  0  0
   52.7400   29.6060   42.9980 N   0  0  0  0  0  0  0  0  0  0  0  0
   52.2510   29.2540   44.1820 C   0  0  0  0  0  3  0  0  0  0  0  0
   50.9330   29.4220   44.4190 N   0  0  0  0  0  0  0  0  0  0  0  0
  1  8  1  0  0  0  0
  1  6  1  0  0  0  0
  2  1  2  0  0  0  0
  3  2  1  0  0  0  0
  3  4  2  0  0  0  0
  4  5  1  0  0  0  0
  5  6  2  0  0  0  0
  5  7  1  0  0  0  0
  7 10  1  0  0  0  0
  9  7  1  0  0  0  0
 11 12  1  0  0  0  0
 11 17  1  1  0  0  0
 11  2  1  0  0  0  0
 12 18  1  0  0  0  0
 13 19  1  0  0  0  0
 13 12  2  0  0  0  0
 14 20  1  6  0  0  0
 14 13  1  0  0  0  0
 15 14  1  0  0  0  0
 15 21  1  0  0  0  0
 15 16  1  0  0  0  0
 16 11  1  0  0  0  0
 22 15  1  0  0  0  0
 23 16  1  0  0  0  0
 24 16  1  0  0  0  0
 25 26  1  0  0  0  0
 25 14  1  0  0  0  0
 27 25  1  0  0  0  0
 28 25  1  0  0  0  0
 29  3  1  0  0  0  0
 30 29  1  0  0  0  0
 31 30  2  0  0  0  0
 31 32  1  0  0  0  0
 32 33  1  0  0  0  0
 33 29  2  0  0  0  0
 34 30  1  0  0  0  0
 35 31  1  0  0  0  0
 36 32  1  0  0  0  0
 36 42  1  0  0  0  0
 37 36  2  0  0  0  0
 38 37  1  0  0  0  0
 38 40  2  0  0  0  0
 39 38  1  0  0  0  0
 40 41  1  0  0  0  0
 41 42  2  0  0  0  0
M  END
>  <minimizedAffinity>
-5.81060362

>  <minimizedRMSD>
0.259262174

$$$$
