
 OpenBabel03232521003D

 42 45  0  0  1  0  0  0  0  0999 V2000
   45.3520   32.8720   47.4890 C   0  0  0  0  0  0  0  0  0  0  0  0
   45.9160   32.6270   46.2760 C   0  0  0  0  0  0  0  0  0  0  0  0
   46.1980   31.2820   46.0260 C   0  0  0  0  0  0  0  0  0  0  0  0
   45.9370   30.2820   46.9070 N   0  0  0  0  0  0  0  0  0  0  0  0
   45.3600   30.5810   48.1320 C   0  0  0  0  0  0  0  0  0  0  0  0
   45.0850   31.8560   48.3900 N   0  0  0  0  0  0  0  0  0  0  0  0
   45.0830   29.5620   49.0720 N   0  0  0  0  0  0  0  0  0  0  0  0
   45.0980   33.8780   47.7870 H   0  0  0  0  0  0  0  0  0  0  0  0
   44.5020   28.7440   48.7890 H   0  0  0  0  0  0  0  0  0  0  0  0
   45.4490   29.6090   50.0450 H   0  0  0  0  0  0  0  0  0  0  0  0
   46.1610   33.5880   45.2560 C   0  0  2  0  0  0  0  0  0  0  0  0
   44.9530   34.6800   45.5010 C   0  0  0  0  0  0  0  0  0  0  0  0
   44.7160   35.6180   44.4410 C   0  0  0  0  0  0  0  0  0  0  0  0
   45.5130   35.5570   43.2110 C   0  0  1  0  0  0  0  0  0  0  0  0
   46.5720   34.5550   43.1510 C   0  0  0  0  0  0  0  0  0  0  0  0
   46.1230   33.3150   43.8900 C   0  0  0  0  0  0  0  0  0  0  0  0
   46.9970   34.2770   45.5850 H   0  0  0  0  0  0  0  0  0  0  0  0
   44.2800   34.8270   46.3370 H   0  0  0  0  0  0  0  0  0  0  0  0
   43.9490   36.3390   44.5610 H   0  0  0  0  0  0  0  0  0  0  0  0
   45.9370   36.5660   43.0170 H   0  0  0  0  0  0  0  0  0  0  0  0
   47.5530   34.9140   43.5640 H   0  0  0  0  0  0  0  0  0  0  0  0
   46.8090   34.3520   42.0690 H   0  0  0  0  0  0  0  0  0  0  0  0
   45.1700   32.9750   43.4310 H   0  0  0  0  0  0  0  0  0  0  0  0
   46.9760   32.6680   43.5490 H   0  0  0  0  0  0  0  0  0  0  0  0
   44.4950   35.3020   42.0600 C   0  0  0  0  0  0  0  0  0  0  0  0
   43.4290   34.5130   42.4570 F   0  0  0  0  0  0  0  0  0  0  0  0
   43.9620   36.5440   41.7270 F   0  0  0  0  0  0  0  0  0  0  0  0
   45.1640   34.8350   40.9450 F   0  0  0  0  0  0  0  0  0  0  0  0
   46.8480   30.6020   44.9230 C   0  0  0  0  0  0  0  0  0  0  0  0
   46.5280   29.8160   43.8630 C   0  0  0  0  0  0  0  0  0  0  0  0
   47.7100   29.4680   43.1980 C   0  0  0  0  0  0  0  0  0  0  0  0
   48.6890   30.0580   43.8850 N   0  0  0  0  0  0  0  0  0  0  0  0
   48.2060   30.7300   44.9040 N   0  0  0  0  0  0  0  0  0  0  0  0
   45.4830   29.5990   43.7100 H   0  0  0  0  0  0  0  0  0  0  0  0
   47.6770   28.8400   42.3190 H   0  0  0  0  0  0  0  0  0  0  0  0
   50.0730   29.9310   43.5050 C   0  0  0  0  0  0  0  0  0  0  0  0
   50.5330   30.3040   42.2710 C   0  0  0  0  0  3  0  0  0  0  0  0
   51.9040   30.1100   42.0790 C   0  0  0  0  0  0  0  0  0  0  0  0
   52.3400   30.3820   41.1250 H   0  0  0  0  0  0  0  0  0  0  0  0
   52.7430   29.6050   42.9960 N   0  0  0  0  0  0  0  0  0  0  0  0
   52.2540   29.2570   44.1800 C   0  0  0  0  0  3  0  0  0  0  0  0
   50.9360   29.4250   44.4160 N   0  0  0  0  0  0  0  0  0  0  0  0
  1  8  1  0  0  0  0
  1  6  1  0  0  0  0
  2  1  2  0  0  0  0
  3  2  1  0  0  0  0
  3  4  2  0  0  0  0
  4  5  1  0  0  0  0
  5  6  2  0  0  0  0
  5  7  1  0  0  0  0
  7 10  1  0  0  0  0
  9  7  1  0  0  0  0
 11 12  1  0  0  0  0
 11 17  1  1  0  0  0
 11  2  1  0  0  0  0
 12 18  1  0  0  0  0
 13 19  1  0  0  0  0
 13 12  2  0  0  0  0
 14 20  1  6  0  0  0
 14 13  1  0  0  0  0
 15 14  1  0  0  0  0
 15 21  1  0  0  0  0
 15 16  1  0  0  0  0
 16 11  1  0  0  0  0
 22 15  1  0  0  0  0
 23 16  1  0  0  0  0
 24 16  1  0  0  0  0
 25 26  1  0  0  0  0
 25 14  1  0  0  0  0
 27 25  1  0  0  0  0
 28 25  1  0  0  0  0
 29  3  1  0  0  0  0
 30 29  1  0  0  0  0
 31 30  2  0  0  0  0
 31 32  1  0  0  0  0
 32 33  1  0  0  0  0
 33 29  2  0  0  0  0
 34 30  1  0  0  0  0
 35 31  1  0  0  0  0
 36 32  1  0  0  0  0
 36 42  1  0  0  0  0
 37 36  2  0  0  0  0
 38 37  1  0  0  0  0
 38 40  2  0  0  0  0
 39 38  1  0  0  0  0
 40 41  1  0  0  0  0
 41 42  2  0  0  0  0
M  END
>  <minimizedAffinity>
-5.80896616

>  <minimizedRMSD>
0.245530814

$$$$
