
 OpenBabel03232521013D

 45 49  0  0  1  0  0  0  0  0999 V2000
   45.3990   32.9320   47.5210 C   0  0  0  0  0  0  0  0  0  0  0  0
   45.9110   32.6490   46.2960 C   0  0  0  0  0  0  0  0  0  0  0  0
   46.1290   31.2890   46.0570 C   0  0  0  0  0  0  0  0  0  0  0  0
   45.8610   30.3100   46.9580 N   0  0  0  0  0  0  0  0  0  0  0  0
   45.3390   30.6500   48.1970 C   0  0  0  0  0  0  0  0  0  0  0  0
   45.1240   31.9380   48.4450 N   0  0  0  0  0  0  0  0  0  0  0  0
   45.0560   29.6570   49.1660 N   0  0  0  0  0  0  0  0  0  0  0  0
   45.1960   33.9500   47.8130 H   0  0  0  0  0  0  0  0  0  0  0  0
   45.1520   29.8650   50.1850 H   0  0  0  0  0  0  0  0  0  0  0  0
   44.7470   28.7080   48.8040 H   0  0  0  0  0  0  0  0  0  0  0  0
   46.1540   33.5850   45.2510 C   0  0  2  0  0  0  0  0  0  0  0  0
   44.9640   34.6980   45.4880 C   0  0  0  0  0  0  0  0  0  0  0  0
   44.7300   35.6190   44.4120 C   0  0  0  0  0  0  0  0  0  0  0  0
   45.5130   35.5210   43.1750 C   0  0  1  0  0  0  0  0  0  0  0  0
   46.5530   34.5000   43.1220 C   0  0  0  0  0  0  0  0  0  0  0  0
   46.0950   33.2830   43.8920 C   0  0  0  0  0  0  0  0  0  0  0  0
   46.9810   34.2910   45.5550 H   0  0  0  0  0  0  0  0  0  0  0  0
   44.3040   34.8630   46.3310 H   0  0  0  0  0  0  0  0  0  0  0  0
   43.9740   36.3520   44.5260 H   0  0  0  0  0  0  0  0  0  0  0  0
   45.9590   36.5160   42.9410 H   0  0  0  0  0  0  0  0  0  0  0  0
   47.5070   34.8880   43.5460 H   0  0  0  0  0  0  0  0  0  0  0  0
   46.7800   34.2780   42.0460 H   0  0  0  0  0  0  0  0  0  0  0  0
   46.9340   32.6180   43.5550 H   0  0  0  0  0  0  0  0  0  0  0  0
   45.1420   32.9300   43.4480 H   0  0  0  0  0  0  0  0  0  0  0  0
   44.4770   35.2580   42.0410 C   0  0  0  0  0  0  0  0  0  0  0  0
   43.4260   34.4590   42.4530 F   0  0  0  0  0  0  0  0  0  0  0  0
   43.9250   36.4970   41.7210 F   0  0  0  0  0  0  0  0  0  0  0  0
   45.1310   34.8010   40.9140 F   0  0  0  0  0  0  0  0  0  0  0  0
   46.7160   30.5690   44.9400 C   0  0  0  0  0  0  0  0  0  0  0  0
   46.3250   29.7720   43.9150 C   0  0  0  0  0  0  0  0  0  0  0  0
   47.4670   29.3720   43.2110 C   0  0  0  0  0  0  0  0  0  0  0  0
   48.4950   29.9440   43.8400 N   0  0  0  0  0  0  0  0  0  0  0  0
   48.0750   30.6540   44.8620 N   0  0  0  0  0  0  0  0  0  0  0  0
   45.2700   29.5830   43.8090 H   0  0  0  0  0  0  0  0  0  0  0  0
   47.3910   28.7310   42.3540 H   0  0  0  0  0  0  0  0  0  0  0  0
   53.1820   31.4850   41.0210 H   0  0  0  0  0  0  0  0  0  0  0  0
   52.2360   31.3670   41.4650 N   0  0  0  0  0  0  0  0  0  0  0  0
   51.2050   32.2160   41.3120 C   0  0  0  0  0  3  0  0  0  0  0  0
   50.1350   31.7640   42.0200 N   0  0  0  0  0  0  0  0  0  0  0  0
   50.5470   30.6420   42.5900 C   0  0  0  0  0  0  0  0  0  0  0  0
   49.8650   29.7750   43.4180 C   0  0  0  0  0  0  0  0  0  0  0  0
   50.5250   28.6800   43.8760 N   0  0  0  0  0  0  0  0  0  0  0  0
   51.8060   28.4350   43.5380 C   0  0  0  0  0  3  0  0  0  0  0  0
   52.5220   29.2630   42.7230 N   0  0  0  0  0  0  0  0  0  0  0  0
   51.8480   30.3600   42.2710 C   0  0  0  0  0  0  0  0  0  0  0  0
  1  8  1  0  0  0  0
  1  6  1  0  0  0  0
  2  1  2  0  0  0  0
  3  2  1  0  0  0  0
  3  4  2  0  0  0  0
  4  5  1  0  0  0  0
  5  6  2  0  0  0  0
  5  7  1  0  0  0  0
  7  9  1  0  0  0  0
 10  7  1  0  0  0  0
 11 12  1  0  0  0  0
 11 17  1  1  0  0  0
 11  2  1  0  0  0  0
 12 18  1  0  0  0  0
 13 19  1  0  0  0  0
 13 12  2  0  0  0  0
 14 20  1  6  0  0  0
 14 13  1  0  0  0  0
 15 14  1  0  0  0  0
 15 21  1  0  0  0  0
 15 16  1  0  0  0  0
 16 11  1  0  0  0  0
 22 15  1  0  0  0  0
 23 16  1  0  0  0  0
 24 16  1  0  0  0  0
 25 26  1  0  0  0  0
 25 14  1  0  0  0  0
 27 25  1  0  0  0  0
 28 25  1  0  0  0  0
 29  3  1  0  0  0  0
 30 29  1  0  0  0  0
 31 32  1  0  0  0  0
 31 30  2  0  0  0  0
 32 33  1  0  0  0  0
 33 29  2  0  0  0  0
 34 30  1  0  0  0  0
 35 31  1  0  0  0  0
 36 37  1  0  0  0  0
 37 45  1  0  0  0  0
 38 37  1  0  0  0  0
 38 39  2  0  0  0  0
 39 40  1  0  0  0  0
 40 41  1  0  0  0  0
 41 32  1  0  0  0  0
 41 42  2  0  0  0  0
 43 42  1  0  0  0  0
 44 43  2  0  0  0  0
 45 40  2  0  0  0  0
 45 44  1  0  0  0  0
M  END
>  <minimizedAffinity>
-6.40995359

>  <minimizedRMSD>
0.224389911

$$$$
