
 OpenBabel03232521013D

 45 49  0  0  1  0  0  0  0  0999 V2000
   45.3490   32.9150   47.5140 C   0  0  0  0  0  0  0  0  0  0  0  0
   45.9130   32.6520   46.3070 C   0  0  0  0  0  0  0  0  0  0  0  0
   46.1880   31.3010   46.0760 C   0  0  0  0  0  0  0  0  0  0  0  0
   45.9230   30.3110   46.9660 N   0  0  0  0  0  0  0  0  0  0  0  0
   45.3470   30.6320   48.1860 C   0  0  0  0  0  0  0  0  0  0  0  0
   45.0770   31.9100   48.4270 N   0  0  0  0  0  0  0  0  0  0  0  0
   45.0660   29.6270   49.1440 N   0  0  0  0  0  0  0  0  0  0  0  0
   45.1000   33.9240   47.7990 H   0  0  0  0  0  0  0  0  0  0  0  0
   45.1190   29.8370   50.1670 H   0  0  0  0  0  0  0  0  0  0  0  0
   44.8040   28.6680   48.7720 H   0  0  0  0  0  0  0  0  0  0  0  0
   46.1590   33.5980   45.2720 C   0  0  2  0  0  0  0  0  0  0  0  0
   44.9510   34.6940   45.4990 C   0  0  0  0  0  0  0  0  0  0  0  0
   44.7210   35.6190   44.4250 C   0  0  0  0  0  0  0  0  0  0  0  0
   45.5220   35.5390   43.1990 C   0  0  1  0  0  0  0  0  0  0  0  0
   46.5760   34.5310   43.1540 C   0  0  0  0  0  0  0  0  0  0  0  0
   46.1230   33.3040   43.9090 C   0  0  0  0  0  0  0  0  0  0  0  0
   46.9730   34.3120   45.5910 H   0  0  0  0  0  0  0  0  0  0  0  0
   44.2780   34.8460   46.3340 H   0  0  0  0  0  0  0  0  0  0  0  0
   43.9540   36.3420   44.5330 H   0  0  0  0  0  0  0  0  0  0  0  0
   45.9590   36.5410   42.9770 H   0  0  0  0  0  0  0  0  0  0  0  0
   47.5190   34.9290   43.5930 H   0  0  0  0  0  0  0  0  0  0  0  0
   46.8200   34.3180   42.0800 H   0  0  0  0  0  0  0  0  0  0  0  0
   46.9740   32.6510   43.5810 H   0  0  0  0  0  0  0  0  0  0  0  0
   45.1800   32.9420   43.4510 H   0  0  0  0  0  0  0  0  0  0  0  0
   44.5050   35.2700   42.0490 C   0  0  0  0  0  0  0  0  0  0  0  0
   43.4510   34.4670   42.4450 F   0  0  0  0  0  0  0  0  0  0  0  0
   43.9540   36.5060   41.7180 F   0  0  0  0  0  0  0  0  0  0  0  0
   45.1790   34.8140   40.9330 F   0  0  0  0  0  0  0  0  0  0  0  0
   46.8380   30.6040   44.9800 C   0  0  0  0  0  0  0  0  0  0  0  0
   46.5080   29.8230   43.9200 C   0  0  0  0  0  0  0  0  0  0  0  0
   47.6880   29.4410   43.2730 C   0  0  0  0  0  0  0  0  0  0  0  0
   48.6780   30.0070   43.9660 N   0  0  0  0  0  0  0  0  0  0  0  0
   48.1990   30.6970   44.9770 N   0  0  0  0  0  0  0  0  0  0  0  0
   45.4610   29.6310   43.7550 H   0  0  0  0  0  0  0  0  0  0  0  0
   47.6620   28.8160   42.4010 H   0  0  0  0  0  0  0  0  0  0  0  0
   53.9860   28.1930   44.8720 H   0  0  0  0  0  0  0  0  0  0  0  0
   52.9650   28.4420   44.8790 N   0  0  0  0  0  0  0  0  0  0  0  0
   52.1050   28.1180   45.8620 C   0  0  0  0  0  3  0  0  0  0  0  0
   50.8670   28.5920   45.5550 N   0  0  0  0  0  0  0  0  0  0  0  0
   51.0080   29.1990   44.3860 C   0  0  0  0  0  0  0  0  0  0  0  0
   50.0700   29.8530   43.6170 C   0  0  0  0  0  0  0  0  0  0  0  0
   50.4770   30.3960   42.4410 N   0  0  0  0  0  0  0  0  0  0  0  0
   51.7560   30.3060   42.0280 C   0  0  0  0  0  3  0  0  0  0  0  0
   52.7200   29.6690   42.7520 N   0  0  0  0  0  0  0  0  0  0  0  0
   52.2970   29.1280   43.9320 C   0  0  0  0  0  0  0  0  0  0  0  0
  1  8  1  0  0  0  0
  1  6  1  0  0  0  0
  2  1  2  0  0  0  0
  3  2  1  0  0  0  0
  3  4  2  0  0  0  0
  4  5  1  0  0  0  0
  5  6  2  0  0  0  0
  5  7  1  0  0  0  0
  7  9  1  0  0  0  0
 10  7  1  0  0  0  0
 11 12  1  0  0  0  0
 11 17  1  1  0  0  0
 11  2  1  0  0  0  0
 12 18  1  0  0  0  0
 13 19  1  0  0  0  0
 13 12  2  0  0  0  0
 14 20  1  6  0  0  0
 14 13  1  0  0  0  0
 15 14  1  0  0  0  0
 15 21  1  0  0  0  0
 15 16  1  0  0  0  0
 16 11  1  0  0  0  0
 22 15  1  0  0  0  0
 23 16  1  0  0  0  0
 24 16  1  0  0  0  0
 25 26  1  0  0  0  0
 25 14  1  0  0  0  0
 27 25  1  0  0  0  0
 28 25  1  0  0  0  0
 29  3  1  0  0  0  0
 30 29  1  0  0  0  0
 31 30  2  0  0  0  0
 31 32  1  0  0  0  0
 32 33  1  0  0  0  0
 33 29  2  0  0  0  0
 34 30  1  0  0  0  0
 35 31  1  0  0  0  0
 36 37  1  0  0  0  0
 37 38  1  0  0  0  0
 39 38  2  0  0  0  0
 40 39  1  0  0  0  0
 41 32  1  0  0  0  0
 41 40  2  0  0  0  0
 42 41  1  0  0  0  0
 43 42  2  0  0  0  0
 43 44  1  0  0  0  0
 44 45  2  0  0  0  0
 45 40  1  0  0  0  0
 45 37  1  0  0  0  0
M  END
>  <minimizedAffinity>
-5.94183922

>  <minimizedRMSD>
0.489511132

$$$$
