
 OpenBabel03232521013D

 45 49  0  0  1  0  0  0  0  0999 V2000
   45.3480   32.9140   47.5130 C   0  0  0  0  0  0  0  0  0  0  0  0
   45.9120   32.6510   46.3060 C   0  0  0  0  0  0  0  0  0  0  0  0
   46.1880   31.3010   46.0750 C   0  0  0  0  0  0  0  0  0  0  0  0
   45.9230   30.3110   46.9650 N   0  0  0  0  0  0  0  0  0  0  0  0
   45.3470   30.6310   48.1850 C   0  0  0  0  0  0  0  0  0  0  0  0
   45.0770   31.9090   48.4260 N   0  0  0  0  0  0  0  0  0  0  0  0
   45.0650   29.6260   49.1430 N   0  0  0  0  0  0  0  0  0  0  0  0
   45.0990   33.9230   47.7980 H   0  0  0  0  0  0  0  0  0  0  0  0
   45.1180   29.8360   50.1660 H   0  0  0  0  0  0  0  0  0  0  0  0
   44.8040   28.6670   48.7710 H   0  0  0  0  0  0  0  0  0  0  0  0
   46.1590   33.5970   45.2710 C   0  0  2  0  0  0  0  0  0  0  0  0
   44.9520   34.6940   45.4980 C   0  0  0  0  0  0  0  0  0  0  0  0
   44.7210   35.6190   44.4250 C   0  0  0  0  0  0  0  0  0  0  0  0
   45.5220   35.5380   43.1990 C   0  0  1  0  0  0  0  0  0  0  0  0
   46.5760   34.5310   43.1530 C   0  0  0  0  0  0  0  0  0  0  0  0
   46.1220   33.3030   43.9090 C   0  0  0  0  0  0  0  0  0  0  0  0
   46.9730   34.3110   45.5900 H   0  0  0  0  0  0  0  0  0  0  0  0
   44.2790   34.8450   46.3340 H   0  0  0  0  0  0  0  0  0  0  0  0
   43.9540   36.3420   44.5340 H   0  0  0  0  0  0  0  0  0  0  0  0
   45.9590   36.5400   42.9770 H   0  0  0  0  0  0  0  0  0  0  0  0
   47.5190   34.9280   43.5930 H   0  0  0  0  0  0  0  0  0  0  0  0
   46.8200   34.3180   42.0790 H   0  0  0  0  0  0  0  0  0  0  0  0
   46.9730   32.6500   43.5800 H   0  0  0  0  0  0  0  0  0  0  0  0
   45.1790   32.9410   43.4500 H   0  0  0  0  0  0  0  0  0  0  0  0
   44.5050   35.2710   42.0490 C   0  0  0  0  0  0  0  0  0  0  0  0
   43.4510   34.4680   42.4460 F   0  0  0  0  0  0  0  0  0  0  0  0
   43.9540   36.5070   41.7190 F   0  0  0  0  0  0  0  0  0  0  0  0
   45.1780   34.8140   40.9330 F   0  0  0  0  0  0  0  0  0  0  0  0
   46.8390   30.6030   44.9790 C   0  0  0  0  0  0  0  0  0  0  0  0
   46.5080   29.8230   43.9200 C   0  0  0  0  0  0  0  0  0  0  0  0
   47.6890   29.4410   43.2730 C   0  0  0  0  0  0  0  0  0  0  0  0
   48.6790   30.0070   43.9660 N   0  0  0  0  0  0  0  0  0  0  0  0
   48.1990   30.6960   44.9770 N   0  0  0  0  0  0  0  0  0  0  0  0
   45.4620   29.6310   43.7540 H   0  0  0  0  0  0  0  0  0  0  0  0
   47.6640   28.8160   42.4010 H   0  0  0  0  0  0  0  0  0  0  0  0
   53.9870   28.1940   44.8730 H   0  0  0  0  0  0  0  0  0  0  0  0
   52.9660   28.4430   44.8810 N   0  0  0  0  0  0  0  0  0  0  0  0
   52.1050   28.1180   45.8620 C   0  0  0  0  0  3  0  0  0  0  0  0
   50.8670   28.5920   45.5560 N   0  0  0  0  0  0  0  0  0  0  0  0
   51.0090   29.1990   44.3870 C   0  0  0  0  0  0  0  0  0  0  0  0
   50.0710   29.8530   43.6170 C   0  0  0  0  0  0  0  0  0  0  0  0
   50.4780   30.3960   42.4420 N   0  0  0  0  0  0  0  0  0  0  0  0
   51.7560   30.3060   42.0280 C   0  0  0  0  0  3  0  0  0  0  0  0
   52.7210   29.6690   42.7530 N   0  0  0  0  0  0  0  0  0  0  0  0
   52.2980   29.1280   43.9320 C   0  0  0  0  0  0  0  0  0  0  0  0
  1  8  1  0  0  0  0
  1  6  1  0  0  0  0
  2  1  2  0  0  0  0
  3  2  1  0  0  0  0
  3  4  2  0  0  0  0
  4  5  1  0  0  0  0
  5  6  2  0  0  0  0
  5  7  1  0  0  0  0
  7  9  1  0  0  0  0
 10  7  1  0  0  0  0
 11 12  1  0  0  0  0
 11 17  1  1  0  0  0
 11  2  1  0  0  0  0
 12 18  1  0  0  0  0
 13 19  1  0  0  0  0
 13 12  2  0  0  0  0
 14 20  1  6  0  0  0
 14 13  1  0  0  0  0
 15 14  1  0  0  0  0
 15 21  1  0  0  0  0
 15 16  1  0  0  0  0
 16 11  1  0  0  0  0
 22 15  1  0  0  0  0
 23 16  1  0  0  0  0
 24 16  1  0  0  0  0
 25 26  1  0  0  0  0
 25 14  1  0  0  0  0
 27 25  1  0  0  0  0
 28 25  1  0  0  0  0
 29  3  1  0  0  0  0
 30 29  1  0  0  0  0
 31 30  2  0  0  0  0
 31 32  1  0  0  0  0
 32 33  1  0  0  0  0
 33 29  2  0  0  0  0
 34 30  1  0  0  0  0
 35 31  1  0  0  0  0
 36 37  1  0  0  0  0
 37 38  1  0  0  0  0
 39 38  2  0  0  0  0
 40 39  1  0  0  0  0
 41 32  1  0  0  0  0
 41 40  2  0  0  0  0
 42 41  1  0  0  0  0
 43 42  2  0  0  0  0
 43 44  1  0  0  0  0
 44 45  2  0  0  0  0
 45 40  1  0  0  0  0
 45 37  1  0  0  0  0
M  END
>  <minimizedAffinity>
-5.94182539

>  <minimizedRMSD>
0.298345268

$$$$
