REMARK  Name = 
REMARK  4 active torsions:
REMARK  status: ('A' for Active; 'I' for Inactive)
REMARK    1  A    between atoms: C_1  and  C_8
REMARK    2  A    between atoms: C_4  and  C_19
REMARK    3  A    between atoms: C_9  and  C_14
REMARK    4  A    between atoms: N_17  and  C_41
REMARK                            x       y       z     vdW  Elec       q    Type
REMARK                         _______ _______ _______ _____ _____    ______ ____
ROOT
ATOM      1  C   UNL     1      45.401  32.885  47.530  0.00  0.00    +0.000 A 
ATOM      2  C   UNL     1      45.920  32.637  46.300  0.00  0.00    +0.000 A 
ATOM      3  C   UNL     1      46.153  31.286  46.029  0.00  0.00    +0.000 A 
ATOM      4  N   UNL     1      45.891  30.282  46.904  0.00  0.00    +0.000 NA
ATOM      5  C   UNL     1      45.361  30.587  48.149  0.00  0.00    +0.000 A 
ATOM      6  N   UNL     1      45.132  31.866  48.428  0.00  0.00    +0.000 NA
ATOM      7  N   UNL     1      45.084  29.567  49.092  0.00  0.00    +0.000 N 
ATOM      8  H   UNL     1      45.187  33.893  47.846  0.00  0.00    +0.000 HD
ATOM      9  H   UNL     1      45.174  29.751  50.117  0.00  0.00    +0.000 HD
ATOM     10  H   UNL     1      44.786  28.624  48.706  0.00  0.00    +0.000 HD
ENDROOT
BRANCH   2  11
ATOM     11  C   UNL     1      46.158  33.601  45.280  0.00  0.00    +0.000 C 
ATOM     12  C   UNL     1      44.918  34.662  45.498  0.00  0.00    +0.000 C 
ATOM     13  C   UNL     1      44.681  35.593  44.431  0.00  0.00    +0.000 C 
ATOM     14  C   UNL     1      45.505  35.548  43.218  0.00  0.00    +0.000 C 
ATOM     15  C   UNL     1      46.586  34.570  43.180  0.00  0.00    +0.000 C 
ATOM     16  C   UNL     1      46.153  33.322  43.914  0.00  0.00    +0.000 C 
ATOM     17  H   UNL     1      46.947  34.333  45.621  0.00  0.00    +0.000 HD
ATOM     18  H   UNL     1      44.227  34.786  46.323  0.00  0.00    +0.000 HD
ATOM     19  H   UNL     1      43.893  36.294  44.534  0.00  0.00    +0.000 HD
ATOM     20  H   UNL     1      45.918  36.564  43.015  0.00  0.00    +0.000 HD
ATOM     21  H   UNL     1      47.510  34.987  43.640  0.00  0.00    +0.000 HD
ATOM     22  H   UNL     1      46.854  34.376  42.108  0.00  0.00    +0.000 HD
ATOM     23  H   UNL     1      47.027  32.696  43.593  0.00  0.00    +0.000 HD
ATOM     24  H   UNL     1      45.228  32.940  43.435  0.00  0.00    +0.000 HD
BRANCH  14  25
ATOM     25  C   UNL     1      44.515  35.266  42.048  0.00  0.00    +0.000 C 
ATOM     26  F   UNL     1      43.462  34.452  42.424  0.00  0.00    +0.000 F 
ATOM     27  F   UNL     1      43.957  36.495  41.703  0.00  0.00    +0.000 F 
ATOM     28  F   UNL     1      45.217  34.815  40.947  0.00  0.00    +0.000 F 
ENDBRANCH  14  25
ENDBRANCH   2  11
BRANCH   3  29
ATOM     29  C   UNL     1      46.751  30.599  44.897  0.00  0.00    +0.000 A 
ATOM     30  C   UNL     1      46.364  29.922  43.787  0.00  0.00    +0.000 A 
ATOM     31  C   UNL     1      47.513  29.469  43.128  0.00  0.00    +0.000 A 
ATOM     32  N   UNL     1      48.541  29.892  43.866  0.00  0.00    +0.000 N 
ATOM     33  N   UNL     1      48.114  30.560  44.914  0.00  0.00    +0.000 NA
ATOM     34  H   UNL     1      45.307  29.843  43.599  0.00  0.00    +0.000 HD
ATOM     35  H   UNL     1      47.441  28.905  42.218  0.00  0.00    +0.000 HD
BRANCH  32  41
ATOM     36  H   UNL     1      52.872  26.499  42.448  0.00  0.00    +0.000 HD
ATOM     37  N   UNL     1      51.965  26.958  42.712  0.00  0.00    +0.000 N 
ATOM     38  C   UNL     1      50.801  26.308  42.891  0.00  0.00    +0.000 A 
ATOM     39  N   UNL     1      49.829  27.200  43.226  0.00  0.00    +0.000 NA
ATOM     40  C   UNL     1      50.433  28.379  43.243  0.00  0.00    +0.000 A 
ATOM     41  C   UNL     1      49.917  29.626  43.521  0.00  0.00    +0.000 A 
ATOM     42  N   UNL     1      50.759  30.690  43.469  0.00  0.00    +0.000 NA
ATOM     43  C   UNL     1      52.061  30.545  43.156  0.00  0.00    +0.000 A 
ATOM     44  N   UNL     1      52.618  29.332  42.873  0.00  0.00    +0.000 NA
ATOM     45  C   UNL     1      51.761  28.271  42.929  0.00  0.00    +0.000 A 
ENDBRANCH  32  41
ENDBRANCH   3  29
TORSDOF 4
