
 OpenBabel03232521013D

 45 49  0  0  1  0  0  0  0  0999 V2000
   45.4000   32.9310   47.5240 C   0  0  0  0  0  0  0  0  0  0  0  0
   45.9110   32.6480   46.2980 C   0  0  0  0  0  0  0  0  0  0  0  0
   46.1290   31.2890   46.0590 C   0  0  0  0  0  0  0  0  0  0  0  0
   45.8610   30.3090   46.9580 N   0  0  0  0  0  0  0  0  0  0  0  0
   45.3390   30.6490   48.1980 C   0  0  0  0  0  0  0  0  0  0  0  0
   45.1240   31.9360   48.4470 N   0  0  0  0  0  0  0  0  0  0  0  0
   45.0560   29.6540   49.1660 N   0  0  0  0  0  0  0  0  0  0  0  0
   45.1970   33.9480   47.8170 H   0  0  0  0  0  0  0  0  0  0  0  0
   45.1520   29.8610   50.1860 H   0  0  0  0  0  0  0  0  0  0  0  0
   44.7470   28.7050   48.8040 H   0  0  0  0  0  0  0  0  0  0  0  0
   46.1550   33.5850   45.2550 C   0  0  2  0  0  0  0  0  0  0  0  0
   44.9630   34.6970   45.4910 C   0  0  0  0  0  0  0  0  0  0  0  0
   44.7290   35.6180   44.4150 C   0  0  0  0  0  0  0  0  0  0  0  0
   45.5140   35.5220   43.1790 C   0  0  1  0  0  0  0  0  0  0  0  0
   46.5550   34.5020   43.1260 C   0  0  0  0  0  0  0  0  0  0  0  0
   46.0980   33.2840   43.8950 C   0  0  0  0  0  0  0  0  0  0  0  0
   46.9810   34.2920   45.5590 H   0  0  0  0  0  0  0  0  0  0  0  0
   44.3030   34.8610   46.3340 H   0  0  0  0  0  0  0  0  0  0  0  0
   43.9720   36.3510   44.5290 H   0  0  0  0  0  0  0  0  0  0  0  0
   45.9590   36.5170   42.9460 H   0  0  0  0  0  0  0  0  0  0  0  0
   47.5080   34.8910   43.5510 H   0  0  0  0  0  0  0  0  0  0  0  0
   46.7830   34.2800   42.0500 H   0  0  0  0  0  0  0  0  0  0  0  0
   46.9370   32.6200   43.5590 H   0  0  0  0  0  0  0  0  0  0  0  0
   45.1450   32.9300   43.4500 H   0  0  0  0  0  0  0  0  0  0  0  0
   44.4790   35.2590   42.0440 C   0  0  0  0  0  0  0  0  0  0  0  0
   43.4270   34.4600   42.4550 F   0  0  0  0  0  0  0  0  0  0  0  0
   43.9280   36.4970   41.7220 F   0  0  0  0  0  0  0  0  0  0  0  0
   45.1340   34.8000   40.9180 F   0  0  0  0  0  0  0  0  0  0  0  0
   46.7160   30.5690   44.9410 C   0  0  0  0  0  0  0  0  0  0  0  0
   46.3240   29.7730   43.9150 C   0  0  0  0  0  0  0  0  0  0  0  0
   47.4660   29.3730   43.2110 C   0  0  0  0  0  0  0  0  0  0  0  0
   48.4940   29.9440   43.8400 N   0  0  0  0  0  0  0  0  0  0  0  0
   48.0740   30.6540   44.8630 N   0  0  0  0  0  0  0  0  0  0  0  0
   45.2690   29.5850   43.8090 H   0  0  0  0  0  0  0  0  0  0  0  0
   47.3890   28.7330   42.3530 H   0  0  0  0  0  0  0  0  0  0  0  0
   53.1810   31.4860   41.0220 H   0  0  0  0  0  0  0  0  0  0  0  0
   52.2360   31.3660   41.4660 N   0  0  0  0  0  0  0  0  0  0  0  0
   51.2050   32.2170   41.3130 C   0  0  0  0  0  3  0  0  0  0  0  0
   50.1340   31.7650   42.0210 N   0  0  0  0  0  0  0  0  0  0  0  0
   50.5460   30.6430   42.5910 C   0  0  0  0  0  0  0  0  0  0  0  0
   49.8640   29.7760   43.4180 C   0  0  0  0  0  0  0  0  0  0  0  0
   50.5230   28.6800   43.8740 N   0  0  0  0  0  0  0  0  0  0  0  0
   51.8040   28.4350   43.5370 C   0  0  0  0  0  3  0  0  0  0  0  0
   52.5210   29.2620   42.7230 N   0  0  0  0  0  0  0  0  0  0  0  0
   51.8470   30.3610   42.2710 C   0  0  0  0  0  0  0  0  0  0  0  0
  1  8  1  0  0  0  0
  1  6  1  0  0  0  0
  2  1  2  0  0  0  0
  3  2  1  0  0  0  0
  3  4  2  0  0  0  0
  4  5  1  0  0  0  0
  5  6  2  0  0  0  0
  5  7  1  0  0  0  0
  7  9  1  0  0  0  0
 10  7  1  0  0  0  0
 11 12  1  0  0  0  0
 11 17  1  1  0  0  0
 11  2  1  0  0  0  0
 12 18  1  0  0  0  0
 13 19  1  0  0  0  0
 13 12  2  0  0  0  0
 14 20  1  6  0  0  0
 14 13  1  0  0  0  0
 15 14  1  0  0  0  0
 15 21  1  0  0  0  0
 15 16  1  0  0  0  0
 16 11  1  0  0  0  0
 22 15  1  0  0  0  0
 23 16  1  0  0  0  0
 24 16  1  0  0  0  0
 25 26  1  0  0  0  0
 25 14  1  0  0  0  0
 27 25  1  0  0  0  0
 28 25  1  0  0  0  0
 29  3  1  0  0  0  0
 30 29  1  0  0  0  0
 31 32  1  0  0  0  0
 31 30  2  0  0  0  0
 32 33  1  0  0  0  0
 33 29  2  0  0  0  0
 34 30  1  0  0  0  0
 35 31  1  0  0  0  0
 36 37  1  0  0  0  0
 37 45  1  0  0  0  0
 38 37  1  0  0  0  0
 38 39  2  0  0  0  0
 39 40  1  0  0  0  0
 40 41  1  0  0  0  0
 41 32  1  0  0  0  0
 41 42  2  0  0  0  0
 43 42  1  0  0  0  0
 44 43  2  0  0  0  0
 45 40  2  0  0  0  0
 45 44  1  0  0  0  0
M  END
>  <minimizedAffinity>
-6.41029835

>  <minimizedRMSD>
0.393516093

$$$$
