
 OpenBabel03232520563D

 38 40  0  0  1  0  0  0  0  0999 V2000
   45.3230   32.8620   47.5280 C   0  0  0  0  0  0  0  0  0  0  0  0
   45.8950   32.5930   46.3230 C   0  0  0  0  0  0  0  0  0  0  0  0
   46.2240   31.2470   46.0830 C   0  0  0  0  0  0  0  0  0  0  0  0
   45.9910   30.2910   46.9840 N   0  0  0  0  0  0  0  0  0  0  0  0
   45.4100   30.5930   48.1980 C   0  0  0  0  0  0  0  0  0  0  0  0
   45.0870   31.8610   48.4500 N   0  0  0  0  0  0  0  0  0  0  0  0
   45.1730   29.5680   49.1510 N   0  0  0  0  0  0  0  0  0  0  0  0
   45.0430   33.8450   47.7960 H   0  0  0  0  0  0  0  0  0  0  0  0
   44.4540   28.8560   48.9020 H   0  0  0  0  0  0  0  0  0  0  0  0
   45.6960   29.5380   50.0550 H   0  0  0  0  0  0  0  0  0  0  0  0
   46.1200   33.5940   45.3280 C   0  0  2  0  0  0  0  0  0  0  0  0
   44.9750   34.6600   45.4980 C   0  0  0  0  0  0  0  0  0  0  0  0
   44.7490   35.5640   44.4040 C   0  0  0  0  0  0  0  0  0  0  0  0
   45.5490   35.4810   43.1910 C   0  0  1  0  0  0  0  0  0  0  0  0
   46.6410   34.4990   43.1840 C   0  0  0  0  0  0  0  0  0  0  0  0
   46.2380   33.2610   43.9400 C   0  0  0  0  0  0  0  0  0  0  0  0
   46.9490   34.2880   45.6920 H   0  0  0  0  0  0  0  0  0  0  0  0
   44.2700   34.8910   46.2900 H   0  0  0  0  0  0  0  0  0  0  0  0
   43.9890   36.3120   44.4540 H   0  0  0  0  0  0  0  0  0  0  0  0
   45.9790   36.4950   43.0000 H   0  0  0  0  0  0  0  0  0  0  0  0
   47.6370   34.8800   43.4960 H   0  0  0  0  0  0  0  0  0  0  0  0
   46.7880   34.1790   42.1090 H   0  0  0  0  0  0  0  0  0  0  0  0
   45.2560   32.9370   43.5090 H   0  0  0  0  0  0  0  0  0  0  0  0
   46.9890   32.5350   43.6180 H   0  0  0  0  0  0  0  0  0  0  0  0
   44.5830   35.1810   42.0250 C   0  0  0  0  0  0  0  0  0  0  0  0
   43.5780   34.2990   42.3750 F   0  0  0  0  0  0  0  0  0  0  0  0
   43.9460   36.3840   41.7110 F   0  0  0  0  0  0  0  0  0  0  0  0
   45.2950   34.7860   40.9040 F   0  0  0  0  0  0  0  0  0  0  0  0
   46.8080   30.5640   44.9800 N   0  0  0  0  0  0  0  0  0  0  0  0
   48.1790   30.5050   44.9130 C   0  0  0  0  0  0  0  0  0  0  0  0
   48.6980   29.7990   43.8580 C   0  0  0  0  0  0  0  0  0  0  0  0
   47.8600   29.2000   42.9380 C   0  0  0  0  0  0  0  0  0  0  0  0
   48.4740   28.4890   41.8800 N   0  0  0  0  0  0  0  0  0  0  0  0
   46.5290   29.2890   43.0510 N   0  0  0  0  0  0  0  0  0  0  0  0
   45.9500   29.9760   44.0780 C   0  0  0  0  0  0  0  0  0  0  0  0
   44.7180   30.1090   44.2580 O   0  0  0  0  0  0  0  0  0  0  0  0
   49.4110   28.0170   42.0110 H   0  0  0  0  0  0  0  0  0  0  0  0
   48.2100   28.2910   40.8910 H   0  0  0  0  0  0  0  0  0  0  0  0
  1  8  1  0  0  0  0
  1  6  1  0  0  0  0
  2  1  2  0  0  0  0
  3  2  1  0  0  0  0
  3  4  2  0  0  0  0
  4  5  1  0  0  0  0
  5  6  2  0  0  0  0
  5  7  1  0  0  0  0
  7 10  1  0  0  0  0
  9  7  1  0  0  0  0
 11 12  1  0  0  0  0
 11 17  1  1  0  0  0
 11  2  1  0  0  0  0
 12 18  1  0  0  0  0
 13 19  1  0  0  0  0
 13 12  2  0  0  0  0
 14 20  1  6  0  0  0
 14 13  1  0  0  0  0
 15 14  1  0  0  0  0
 15 21  1  0  0  0  0
 15 16  1  0  0  0  0
 16 11  1  0  0  0  0
 22 15  1  0  0  0  0
 23 16  1  0  0  0  0
 24 16  1  0  0  0  0
 25 26  1  0  0  0  0
 25 14  1  0  0  0  0
 27 25  1  0  0  0  0
 28 25  1  0  0  0  0
 29  3  1  0  0  0  0
 30 29  1  0  0  0  0
 31 30  2  0  0  0  0
 32 34  2  0  0  0  0
 32 31  1  0  0  0  0
 33 37  1  0  0  0  0
 33 32  1  0  0  0  0
 34 35  1  0  0  0  0
 35 36  2  0  0  0  0
 35 29  1  0  0  0  0
 38 33  1  0  0  0  0
M  END
>  <minimizedAffinity>
-5.76099014

>  <minimizedRMSD>
0.464442432

$$$$
