
 OpenBabel03232521003D

 45 49  0  0  1  0  0  0  0  0999 V2000
   45.4280   32.9150   47.5750 C   0  0  0  0  0  0  0  0  0  0  0  0
   45.9210   32.6270   46.3430 C   0  0  0  0  0  0  0  0  0  0  0  0
   46.1120   31.2640   46.0970 C   0  0  0  0  0  0  0  0  0  0  0  0
   45.8340   30.2870   46.9970 N   0  0  0  0  0  0  0  0  0  0  0  0
   45.3310   30.6320   48.2420 C   0  0  0  0  0  0  0  0  0  0  0  0
   45.1430   31.9230   48.4970 N   0  0  0  0  0  0  0  0  0  0  0  0
   45.0390   29.6400   49.2100 N   0  0  0  0  0  0  0  0  0  0  0  0
   45.2470   33.9350   47.8720 H   0  0  0  0  0  0  0  0  0  0  0  0
   45.1490   29.8430   50.2300 H   0  0  0  0  0  0  0  0  0  0  0  0
   44.7080   28.6990   48.8480 H   0  0  0  0  0  0  0  0  0  0  0  0
   46.1720   33.5620   45.3000 C   0  0  2  0  0  0  0  0  0  0  0  0
   44.9680   34.6650   45.5150 C   0  0  0  0  0  0  0  0  0  0  0  0
   44.7420   35.5810   44.4320 C   0  0  0  0  0  0  0  0  0  0  0  0
   45.5450   35.4860   43.2080 C   0  0  1  0  0  0  0  0  0  0  0  0
   46.5960   34.4750   43.1740 C   0  0  0  0  0  0  0  0  0  0  0  0
   46.1370   33.2560   43.9400 C   0  0  0  0  0  0  0  0  0  0  0  0
   46.9880   34.2770   45.6130 H   0  0  0  0  0  0  0  0  0  0  0  0
   44.2950   34.8260   46.3470 H   0  0  0  0  0  0  0  0  0  0  0  0
   43.9780   36.3070   44.5330 H   0  0  0  0  0  0  0  0  0  0  0  0
   45.9850   36.4850   42.9780 H   0  0  0  0  0  0  0  0  0  0  0  0
   47.5390   34.8730   43.6110 H   0  0  0  0  0  0  0  0  0  0  0  0
   46.8400   34.2520   42.1020 H   0  0  0  0  0  0  0  0  0  0  0  0
   46.9860   32.5970   43.6190 H   0  0  0  0  0  0  0  0  0  0  0  0
   45.1930   32.8930   43.4830 H   0  0  0  0  0  0  0  0  0  0  0  0
   44.5290   35.2110   42.0600 C   0  0  0  0  0  0  0  0  0  0  0  0
   43.4980   34.3750   42.4480 F   0  0  0  0  0  0  0  0  0  0  0  0
   43.9440   36.4380   41.7520 F   0  0  0  0  0  0  0  0  0  0  0  0
   45.2080   34.7900   40.9320 F   0  0  0  0  0  0  0  0  0  0  0  0
   46.6740   30.5370   44.9720 C   0  0  0  0  0  0  0  0  0  0  0  0
   46.2630   29.7150   43.9740 C   0  0  0  0  0  0  0  0  0  0  0  0
   47.3880   29.3260   43.2370 C   0  0  0  0  0  0  0  0  0  0  0  0
   48.4260   29.9300   43.8190 N   0  0  0  0  0  0  0  0  0  0  0  0
   48.0270   30.6490   44.8450 N   0  0  0  0  0  0  0  0  0  0  0  0
   45.2100   29.5030   43.9090 H   0  0  0  0  0  0  0  0  0  0  0  0
   47.2950   28.6700   42.3930 H   0  0  0  0  0  0  0  0  0  0  0  0
   53.0880   31.6800   41.0840 H   0  0  0  0  0  0  0  0  0  0  0  0
   52.1490   31.5320   41.5320 N   0  0  0  0  0  0  0  0  0  0  0  0
   51.1330   32.4130   41.4950 C   0  0  0  0  0  3  0  0  0  0  0  0
   50.0680   31.9070   42.1740 N   0  0  0  0  0  0  0  0  0  0  0  0
   50.4670   30.7210   42.6080 C   0  0  0  0  0  0  0  0  0  0  0  0
   49.7830   29.7820   43.3520 C   0  0  0  0  0  0  0  0  0  0  0  0
   50.4280   28.6320   43.6720 N   0  0  0  0  0  0  0  0  0  0  0  0
   51.6960   28.4000   43.2820 C   0  0  0  0  0  3  0  0  0  0  0  0
   52.4140   29.2970   42.5460 N   0  0  0  0  0  0  0  0  0  0  0  0
   51.7540   30.4510   42.2310 C   0  0  0  0  0  0  0  0  0  0  0  0
  1  8  1  0  0  0  0
  1  6  1  0  0  0  0
  2  1  2  0  0  0  0
  3  2  1  0  0  0  0
  3  4  2  0  0  0  0
  4  5  1  0  0  0  0
  5  6  2  0  0  0  0
  5  7  1  0  0  0  0
  7  9  1  0  0  0  0
 10  7  1  0  0  0  0
 11 12  1  0  0  0  0
 11 17  1  1  0  0  0
 11  2  1  0  0  0  0
 12 18  1  0  0  0  0
 13 19  1  0  0  0  0
 13 12  2  0  0  0  0
 14 20  1  6  0  0  0
 14 13  1  0  0  0  0
 15 14  1  0  0  0  0
 15 21  1  0  0  0  0
 15 16  1  0  0  0  0
 16 11  1  0  0  0  0
 22 15  1  0  0  0  0
 23 16  1  0  0  0  0
 24 16  1  0  0  0  0
 25 26  1  0  0  0  0
 25 14  1  0  0  0  0
 27 25  1  0  0  0  0
 28 25  1  0  0  0  0
 29  3  1  0  0  0  0
 30 29  1  0  0  0  0
 31 32  1  0  0  0  0
 31 30  2  0  0  0  0
 32 33  1  0  0  0  0
 33 29  2  0  0  0  0
 34 30  1  0  0  0  0
 35 31  1  0  0  0  0
 36 37  1  0  0  0  0
 37 45  1  0  0  0  0
 38 37  1  0  0  0  0
 38 39  2  0  0  0  0
 39 40  1  0  0  0  0
 40 41  1  0  0  0  0
 41 42  2  0  0  0  0
 41 32  1  0  0  0  0
 43 42  1  0  0  0  0
 44 43  2  0  0  0  0
 45 44  1  0  0  0  0
 45 40  2  0  0  0  0
M  END
>  <minimizedAffinity>
-6.4345808

>  <minimizedRMSD>
0.445331067

$$$$
