
 OpenBabel03232521013D

 45 49  0  0  1  0  0  0  0  0999 V2000
   45.4150   32.9370   47.5630 C   0  0  0  0  0  0  0  0  0  0  0  0
   45.9020   32.6430   46.3300 C   0  0  0  0  0  0  0  0  0  0  0  0
   46.0880   31.2800   46.0880 C   0  0  0  0  0  0  0  0  0  0  0  0
   45.8130   30.3060   46.9920 N   0  0  0  0  0  0  0  0  0  0  0  0
   45.3170   30.6570   48.2390 C   0  0  0  0  0  0  0  0  0  0  0  0
   45.1330   31.9490   48.4910 N   0  0  0  0  0  0  0  0  0  0  0  0
   45.0280   29.6690   49.2120 N   0  0  0  0  0  0  0  0  0  0  0  0
   45.2380   33.9580   47.8580 H   0  0  0  0  0  0  0  0  0  0  0  0
   45.1430   29.8750   50.2300 H   0  0  0  0  0  0  0  0  0  0  0  0
   44.6940   28.7270   48.8550 H   0  0  0  0  0  0  0  0  0  0  0  0
   46.1490   33.5750   45.2820 C   0  0  2  0  0  0  0  0  0  0  0  0
   44.9610   34.6910   45.5110 C   0  0  0  0  0  0  0  0  0  0  0  0
   44.7310   35.6080   44.4300 C   0  0  0  0  0  0  0  0  0  0  0  0
   45.5160   35.5020   43.1960 C   0  0  1  0  0  0  0  0  0  0  0  0
   46.5550   34.4800   43.1490 C   0  0  0  0  0  0  0  0  0  0  0  0
   46.0930   33.2670   43.9230 C   0  0  0  0  0  0  0  0  0  0  0  0
   46.9770   34.2800   45.5840 H   0  0  0  0  0  0  0  0  0  0  0  0
   44.3000   34.8610   46.3520 H   0  0  0  0  0  0  0  0  0  0  0  0
   43.9760   36.3430   44.5400 H   0  0  0  0  0  0  0  0  0  0  0  0
   45.9650   36.4960   42.9580 H   0  0  0  0  0  0  0  0  0  0  0  0
   47.5080   34.8680   43.5730 H   0  0  0  0  0  0  0  0  0  0  0  0
   46.7830   34.2520   42.0750 H   0  0  0  0  0  0  0  0  0  0  0  0
   46.9310   32.5980   43.5920 H   0  0  0  0  0  0  0  0  0  0  0  0
   45.1390   32.9140   43.4790 H   0  0  0  0  0  0  0  0  0  0  0  0
   44.4820   35.2370   42.0610 C   0  0  0  0  0  0  0  0  0  0  0  0
   43.4360   34.4300   42.4700 F   0  0  0  0  0  0  0  0  0  0  0  0
   43.9230   36.4730   41.7440 F   0  0  0  0  0  0  0  0  0  0  0  0
   45.1390   34.7870   40.9320 F   0  0  0  0  0  0  0  0  0  0  0  0
   46.6430   30.5470   44.9620 C   0  0  0  0  0  0  0  0  0  0  0  0
   46.2320   29.6930   43.9920 C   0  0  0  0  0  0  0  0  0  0  0  0
   47.3490   29.3240   43.2320 C   0  0  0  0  0  0  0  0  0  0  0  0
   48.3820   29.9700   43.7750 N   0  0  0  0  0  0  0  0  0  0  0  0
   47.9880   30.6970   44.7970 N   0  0  0  0  0  0  0  0  0  0  0  0
   45.1840   29.4490   43.9590 H   0  0  0  0  0  0  0  0  0  0  0  0
   47.2540   28.6480   42.4040 H   0  0  0  0  0  0  0  0  0  0  0  0
   53.0120   31.9130   41.1150 H   0  0  0  0  0  0  0  0  0  0  0  0
   52.0790   31.7330   41.5650 N   0  0  0  0  0  0  0  0  0  0  0  0
   51.0690   32.6200   41.6170 C   0  0  0  0  0  3  0  0  0  0  0  0
   50.0110   32.0660   42.2700 N   0  0  0  0  0  0  0  0  0  0  0  0
   50.4100   30.8470   42.6000 C   0  0  0  0  0  0  0  0  0  0  0  0
   49.7310   29.8540   43.2750 C   0  0  0  0  0  0  0  0  0  0  0  0
   50.3730   28.6770   43.4890 N   0  0  0  0  0  0  0  0  0  0  0  0
   51.6330   28.4720   43.0600 C   0  0  0  0  0  3  0  0  0  0  0  0
   52.3440   29.4220   42.3880 N   0  0  0  0  0  0  0  0  0  0  0  0
   51.6880   30.6010   42.1800 C   0  0  0  0  0  0  0  0  0  0  0  0
  1  8  1  0  0  0  0
  1  6  1  0  0  0  0
  2  1  2  0  0  0  0
  3  2  1  0  0  0  0
  3  4  2  0  0  0  0
  4  5  1  0  0  0  0
  5  6  2  0  0  0  0
  5  7  1  0  0  0  0
  7  9  1  0  0  0  0
 10  7  1  0  0  0  0
 11 12  1  0  0  0  0
 11 17  1  1  0  0  0
 11  2  1  0  0  0  0
 12 18  1  0  0  0  0
 13 19  1  0  0  0  0
 13 12  2  0  0  0  0
 14 20  1  6  0  0  0
 14 13  1  0  0  0  0
 15 14  1  0  0  0  0
 15 21  1  0  0  0  0
 15 16  1  0  0  0  0
 16 11  1  0  0  0  0
 22 15  1  0  0  0  0
 23 16  1  0  0  0  0
 24 16  1  0  0  0  0
 25 26  1  0  0  0  0
 25 14  1  0  0  0  0
 27 25  1  0  0  0  0
 28 25  1  0  0  0  0
 29  3  1  0  0  0  0
 30 29  1  0  0  0  0
 31 32  1  0  0  0  0
 31 30  2  0  0  0  0
 32 33  1  0  0  0  0
 33 29  2  0  0  0  0
 34 30  1  0  0  0  0
 35 31  1  0  0  0  0
 36 37  1  0  0  0  0
 37 38  1  0  0  0  0
 37 45  1  0  0  0  0
 38 39  2  0  0  0  0
 39 40  1  0  0  0  0
 40 41  1  0  0  0  0
 41 42  2  0  0  0  0
 41 32  1  0  0  0  0
 43 42  1  0  0  0  0
 44 43  2  0  0  0  0
 45 44  1  0  0  0  0
 45 40  2  0  0  0  0
M  END
>  <minimizedAffinity>
-6.43861008

>  <minimizedRMSD>
1.07629895

$$$$
