
 OpenBabel03232519483D

 39 42  0  0  1  0  0  0  0  0999 V2000
   46.4250   33.8720   42.3080 N   0  0  0  0  0  0  0  0  0  0  0  0
   47.7490   34.1650   41.7670 C   0  0  0  0  0  0  0  0  0  0  0  0
   47.3940   34.4100   40.3190 C   0  0  0  0  0  0  0  0  0  0  0  0
   46.5550   33.1860   40.0390 C   0  0  0  0  0  0  0  0  0  0  0  0
   45.7570   33.0440   41.2940 C   0  0  2  0  0  0  0  0  0  0  0  0
   48.1710   35.0710   42.2370 H   0  0  0  0  0  0  0  0  0  0  0  0
   48.4290   33.3060   41.7970 H   0  0  0  0  0  0  0  0  0  0  0  0
   48.2730   34.4670   39.6590 H   0  0  0  0  0  0  0  0  0  0  0  0
   46.8110   35.3530   40.2170 H   0  0  0  0  0  0  0  0  0  0  0  0
   45.9140   33.3860   39.1600 H   0  0  0  0  0  0  0  0  0  0  0  0
   47.2720   32.3620   39.8460 H   0  0  0  0  0  0  0  0  0  0  0  0
   45.9640   32.0010   41.6470 H   0  0  0  0  0  0  0  0  0  0  0  0
   44.5060   35.7180   44.8960 C   0  0  0  0  0  0  0  0  0  0  0  0
   45.0420   35.3880   43.6470 C   0  0  0  0  0  0  0  0  0  0  0  0
   45.8560   34.2640   43.5220 C   0  0  0  0  0  0  0  0  0  0  0  0
   46.0810   33.5430   44.6570 N   0  0  0  0  0  0  0  0  0  0  0  0
   45.5620   33.8670   45.8560 C   0  0  0  0  0  0  0  0  0  0  0  0
   44.7810   34.9470   45.9710 N   0  0  0  0  0  0  0  0  0  0  0  0
   43.8770   36.5870   44.9950 H   0  0  0  0  0  0  0  0  0  0  0  0
   44.8360   35.9910   42.7690 H   0  0  0  0  0  0  0  0  0  0  0  0
   45.8850   33.0190   46.9550 N   0  0  0  0  0  0  0  0  0  0  0  0
   47.0220   32.3290   47.1670 C   0  0  0  0  0  0  0  0  0  0  0  0
   46.7690   31.6980   48.3680 C   0  0  0  0  0  0  0  0  0  0  0  0
   45.5510   31.9800   48.8710 N   0  0  0  0  0  0  0  0  0  0  0  0
   45.0040   32.8240   47.9560 C   0  0  0  0  0  0  0  0  0  0  0  0
   44.3620   33.2680   41.1860 N   0  0  0  0  0  0  0  0  0  0  0  0
   43.7390   34.2000   40.4650 C   0  0  0  0  0  0  0  0  0  0  0  0
   42.3580   34.3340   40.4300 C   0  0  0  0  0  0  0  0  0  0  0  0
   41.5750   33.4750   41.1670 C   0  0  0  0  0  0  0  0  0  0  0  0
   40.3010   33.5490   41.1750 O   0  0  0  0  0  0  0  0  0  0  0  0
   42.2000   32.5380   41.8920 N   0  0  0  0  0  0  0  0  0  0  0  0
   43.5290   32.4510   41.8920 C   0  0  0  0  0  0  0  0  0  0  0  0
   44.0250   31.5270   42.6140 O   0  0  0  0  0  0  0  0  0  0  0  0
   44.3770   34.8680   39.8910 H   0  0  0  0  0  0  0  0  0  0  0  0
   41.6140   31.8830   42.4540 H   0  0  0  0  0  0  0  0  0  0  0  0
   41.6980   35.3770   39.6200 C   0  0  0  0  0  0  0  0  0  0  0  0
   40.9290   35.8620   40.2880 H   0  0  0  0  0  0  0  0  0  0  0  0
   41.1440   34.9730   38.7680 H   0  0  0  0  0  0  0  0  0  0  0  0
   42.4750   36.1300   39.3600 H   0  0  0  0  0  0  0  0  0  0  0  0
  1 15  1  0  0  0  0
  2  7  1  0  0  0  0
  2  6  1  0  0  0  0
  2  1  1  0  0  0  0
  3  2  1  0  0  0  0
  4  3  1  0  0  0  0
  4  5  1  0  0  0  0
  5 12  1  1  0  0  0
  5  1  1  0  0  0  0
  8  3  1  0  0  0  0
  9  3  1  0  0  0  0
 10  4  1  0  0  0  0
 11  4  1  0  0  0  0
 13 19  1  0  0  0  0
 13 18  1  0  0  0  0
 14 13  2  0  0  0  0
 15 14  1  0  0  0  0
 15 16  2  0  0  0  0
 16 17  1  0  0  0  0
 17 18  2  0  0  0  0
 17 21  1  0  0  0  0
 20 14  1  0  0  0  0
 21 22  1  0  0  0  0
 21 25  1  0  0  0  0
 22 23  2  0  0  0  0
 23 24  1  0  0  0  0
 25 24  2  0  0  0  0
 26  5  1  0  0  0  0
 26 32  1  0  0  0  0
 27 26  1  0  0  0  0
 28 27  2  0  0  0  0
 28 29  1  0  0  0  0
 29 30  2  0  0  0  0
 29 31  1  0  0  0  0
 31 35  1  0  0  0  0
 32 31  1  0  0  0  0
 32 33  2  0  0  0  0
 34 27  1  0  0  0  0
 36 37  1  0  0  0  0
 36 28  1  0  0  0  0
 38 36  1  0  0  0  0
 39 36  1  0  0  0  0
M  END
>  <minimizedAffinity>
-6.79331446

>  <minimizedRMSD>
0.418799788

$$$$
