REMARK  Name = 
REMARK  3 active torsions:
REMARK  status: ('A' for Active; 'I' for Inactive)
REMARK    1  A    between atoms: C_1  and  C_8
REMARK    2  A    between atoms: C_4  and  C_19
REMARK    3  A    between atoms: C_9  and  C_14
REMARK                            x       y       z     vdW  Elec       q    Type
REMARK                         _______ _______ _______ _____ _____    ______ ____
ROOT
ATOM      1  C   UNL     1      45.400  32.884  47.531  0.00  0.00    +0.000 A 
ATOM      2  C   UNL     1      45.917  32.634  46.298  0.00  0.00    +0.000 A 
ATOM      3  C   UNL     1      46.150  31.283  46.028  0.00  0.00    +0.000 A 
ATOM      4  N   UNL     1      45.888  30.281  46.905  0.00  0.00    +0.000 NA
ATOM      5  C   UNL     1      45.360  30.590  48.149  0.00  0.00    +0.000 A 
ATOM      6  N   UNL     1      45.132  31.868  48.429  0.00  0.00    +0.000 NA
ATOM      7  N   UNL     1      45.094  29.567  49.095  0.00  0.00    +0.000 N 
ATOM      8  H   UNL     1      45.187  33.893  47.845  0.00  0.00    +0.000 HD
ATOM      9  H   UNL     1      45.804  28.843  49.406  0.00  0.00    +0.000 HD
ATOM     10  H   UNL     1      44.143  29.510  49.520  0.00  0.00    +0.000 HD
ENDROOT
BRANCH   2  11
ATOM     11  C   UNL     1      46.156  33.598  45.280  0.00  0.00    +0.000 C 
ATOM     12  C   UNL     1      44.917  34.662  45.498  0.00  0.00    +0.000 C 
ATOM     13  C   UNL     1      44.682  35.593  44.429  0.00  0.00    +0.000 C 
ATOM     14  C   UNL     1      45.505  35.548  43.218  0.00  0.00    +0.000 C 
ATOM     15  C   UNL     1      46.588  34.571  43.182  0.00  0.00    +0.000 C 
ATOM     16  C   UNL     1      46.154  33.322  43.913  0.00  0.00    +0.000 C 
ATOM     17  H   UNL     1      46.947  34.330  45.628  0.00  0.00    +0.000 HD
ATOM     18  H   UNL     1      44.226  34.789  46.322  0.00  0.00    +0.000 HD
ATOM     19  H   UNL     1      43.895  36.294  44.535  0.00  0.00    +0.000 HD
ATOM     20  H   UNL     1      45.923  36.561  43.024  0.00  0.00    +0.000 HD
ATOM     21  H   UNL     1      46.908  34.395  42.136  0.00  0.00    +0.000 HD
ATOM     22  H   UNL     1      47.487  34.976  43.720  0.00  0.00    +0.000 HD
ATOM     23  H   UNL     1      47.024  32.691  43.593  0.00  0.00    +0.000 HD
ATOM     24  H   UNL     1      45.215  32.988  43.423  0.00  0.00    +0.000 HD
BRANCH  14  25
ATOM     25  C   UNL     1      44.516  35.265  42.047  0.00  0.00    +0.000 C 
ATOM     26  F   UNL     1      43.462  34.452  42.425  0.00  0.00    +0.000 F 
ATOM     27  F   UNL     1      43.961  36.495  41.702  0.00  0.00    +0.000 F 
ATOM     28  F   UNL     1      45.218  34.817  40.947  0.00  0.00    +0.000 F 
ENDBRANCH  14  25
ENDBRANCH   2  11
BRANCH   3  29
ATOM     29  C   UNL     1      46.749  30.597  44.898  0.00  0.00    +0.000 A 
ATOM     30  C   UNL     1      46.362  29.920  43.787  0.00  0.00    +0.000 A 
ATOM     31  C   UNL     1      47.515  29.470  43.125  0.00  0.00    +0.000 A 
ATOM     32  N   UNL     1      48.538  29.895  43.867  0.00  0.00    +0.000 N 
ATOM     33  N   UNL     1      48.114  30.561  44.915  0.00  0.00    +0.000 NA
ATOM     34  H   UNL     1      45.301  29.841  43.600  0.00  0.00    +0.000 HD
ATOM     35  H   UNL     1      47.430  28.904  42.209  0.00  0.00    +0.000 HD
ATOM     36  C   UNL     1      49.908  29.626  43.509  0.00  0.00    +0.000 A 
ATOM     37  C   UNL     1      50.420  28.327  43.461  0.00  0.00    +0.000 A 
ATOM     38  C   UNL     1      51.733  28.493  43.088  0.00  0.00    +0.000 A 
ATOM     39  H   UNL     1      52.373  27.630  42.974  0.00  0.00    +0.000 HD
ATOM     40  N   UNL     1      51.988  29.823  42.922  0.00  0.00    +0.000 N 
ATOM     41  N   UNL     1      50.866  30.512  43.182  0.00  0.00    +0.000 NA
ATOM     42  H   UNL     1      52.939  30.146  42.637  0.00  0.00    +0.000 HD
ENDBRANCH   3  29
TORSDOF 3
