
 OpenBabel03232520503D

 28 30  0  0  1  0  0  0  0  0999 V2000
   46.3390   33.5410   45.7080 C   0  0  2  0  0  0  0  0  0  0  0  0
   45.1080   34.4200   45.7140 C   0  0  0  0  0  0  0  0  0  0  0  0
   44.8580   35.1950   44.5210 C   0  0  0  0  0  0  0  0  0  0  0  0
   45.7650   35.1180   43.3750 C   0  0  1  0  0  0  0  0  0  0  0  0
   46.9140   34.2010   43.4700 C   0  0  0  0  0  0  0  0  0  0  0  0
   46.6150   33.0240   44.3310 C   0  0  0  0  0  0  0  0  0  0  0  0
   47.1530   34.2440   46.0200 H   0  0  0  0  0  0  0  0  0  0  0  0
   44.3750   34.5550   46.4950 H   0  0  0  0  0  0  0  0  0  0  0  0
   44.0060   35.8250   44.4840 H   0  0  0  0  0  0  0  0  0  0  0  0
   46.1910   36.1470   43.2560 H   0  0  0  0  0  0  0  0  0  0  0  0
   47.8710   34.6460   43.8000 H   0  0  0  0  0  0  0  0  0  0  0  0
   47.1280   33.8140   42.4350 H   0  0  0  0  0  0  0  0  0  0  0  0
   47.5630   32.4260   44.4030 H   0  0  0  0  0  0  0  0  0  0  0  0
   45.7900   32.3940   43.9720 H   0  0  0  0  0  0  0  0  0  0  0  0
   45.2620   32.6620   47.7500 C   0  0  0  0  0  0  0  0  0  0  0  0
   46.1930   32.4820   46.7260 C   0  0  0  0  0  0  0  0  0  0  0  0
   46.9680   31.2930   46.7170 C   0  0  0  0  0  0  0  0  0  0  0  0
   46.7670   30.3880   47.7050 N   0  0  0  0  0  0  0  0  0  0  0  0
   45.8530   30.5930   48.6870 C   0  0  0  0  0  0  0  0  0  0  0  0
   45.1060   31.7220   48.7090 N   0  0  0  0  0  0  0  0  0  0  0  0
   44.6230   33.5270   47.8510 H   0  0  0  0  0  0  0  0  0  0  0  0
   47.6840   31.1260   45.9500 H   0  0  0  0  0  0  0  0  0  0  0  0
   45.8160   29.7750   49.3970 H   0  0  0  0  0  0  0  0  0  0  0  0
   44.9550   34.9160   42.1740 N   0  0  0  0  0  0  0  0  0  0  0  0
   43.7730   35.5250   41.8950 C   0  0  0  0  0  0  0  0  0  0  0  0
   43.3060   35.0790   40.6690 C   0  0  0  0  0  0  0  0  0  0  0  0
   44.1980   34.2110   40.2150 N   0  0  0  0  0  0  0  0  0  0  0  0
   45.1770   34.1160   41.1110 C   0  0  0  0  0  0  0  0  0  0  0  0
  1  2  1  0  0  0  0
  1  7  1  1  0  0  0
  1 16  1  0  0  0  0
  2  8  1  0  0  0  0
  3  2  2  0  0  0  0
  4 10  1  6  0  0  0
  4  5  1  0  0  0  0
  4  3  1  0  0  0  0
  5 11  1  0  0  0  0
  5  6  1  0  0  0  0
  6 13  1  0  0  0  0
  6  1  1  0  0  0  0
  9  3  1  0  0  0  0
 12  5  1  0  0  0  0
 14  6  1  0  0  0  0
 15 21  1  0  0  0  0
 15 20  1  0  0  0  0
 16 15  2  0  0  0  0
 17 16  1  0  0  0  0
 17 18  2  0  0  0  0
 18 19  1  0  0  0  0
 19 20  2  0  0  0  0
 19 23  1  0  0  0  0
 22 17  1  0  0  0  0
 24  4  1  0  0  0  0
 25 24  1  0  0  0  0
 26 25  2  0  0  0  0
 27 26  1  0  0  0  0
 27 28  2  0  0  0  0
 28 24  1  0  0  0  0
M  END
>  <minimizedAffinity>
-5.07665205

>  <minimizedRMSD>
0.965020001

$$$$
