
 OpenBabel03232517433D

 40 43  0  0  0  0  0  0  0  0999 V2000
   44.8230   33.1650   38.2130 C   0  0  0  0  0  0  0  0  0  0  0  0
   44.0360   32.8680   39.3320 C   0  0  0  0  0  0  0  0  0  0  0  0
   43.5910   31.5600   39.4640 C   0  0  0  0  0  0  0  0  0  0  0  0
   43.9400   30.6380   38.5030 N   0  0  0  0  0  0  0  0  0  0  0  0
   44.6890   30.9720   37.4570 C   0  0  0  0  0  0  0  0  0  0  0  0
   45.1300   32.2210   37.3100 N   0  0  0  0  0  0  0  0  0  0  0  0
   45.2180   34.1650   38.0340 H   0  0  0  0  0  0  0  0  0  0  0  0
   44.8450   30.1060   36.8220 H   0  0  0  0  0  0  0  0  0  0  0  0
   42.7980   31.2370   40.5970 N   0  0  0  0  0  0  0  0  0  0  0  0
   41.4520   31.3860   40.5080 C   0  0  0  0  0  0  0  0  0  0  0  0
   40.7120   31.0720   41.6090 C   0  0  0  0  0  0  0  0  0  0  0  0
   41.2670   30.6170   42.8000 C   0  0  0  0  0  0  0  0  0  0  0  0
   40.4900   30.3620   43.7450 O   0  0  0  0  0  0  0  0  0  0  0  0
   42.6130   30.4830   42.8470 N   0  0  0  0  0  0  0  0  0  0  0  0
   43.3420   30.7900   41.7590 C   0  0  0  0  0  0  0  0  0  0  0  0
   44.5750   30.6480   41.8530 O   0  0  0  0  0  0  0  0  0  0  0  0
   40.9750   31.7480   39.5900 H   0  0  0  0  0  0  0  0  0  0  0  0
   43.0560   30.1460   43.7360 H   0  0  0  0  0  0  0  0  0  0  0  0
   39.2080   31.2600   41.4840 C   0  0  0  0  0  0  0  0  0  0  0  0
   38.9290   31.0410   40.4490 H   0  0  0  0  0  0  0  0  0  0  0  0
   38.6780   30.6270   42.1990 H   0  0  0  0  0  0  0  0  0  0  0  0
   38.9950   32.3580   41.6340 H   0  0  0  0  0  0  0  0  0  0  0  0
   43.7570   33.9030   40.2350 N   0  0  0  0  0  0  0  0  0  0  0  0
   44.3590   33.9770   41.3770 N   0  0  0  0  0  0  0  0  0  0  0  0
   43.9170   35.0430   42.0740 C   0  0  0  0  0  0  0  0  0  0  0  0
   42.9620   35.6320   41.2350 C   0  0  0  0  0  0  0  0  0  0  0  0
   42.8800   34.8810   40.0620 C   0  0  0  0  0  0  0  0  0  0  0  0
   44.3050   35.2750   43.0570 H   0  0  0  0  0  0  0  0  0  0  0  0
   42.4220   36.5230   41.5270 H   0  0  0  0  0  0  0  0  0  0  0  0
   41.9810   35.1640   38.9370 C   0  0  0  0  0  0  0  0  0  0  0  0
   42.3340   35.8320   37.9100 O   0  0  0  0  0  0  0  0  0  0  0  0
   40.5970   34.6390   39.0030 C   0  0  0  0  0  0  0  0  0  0  0  0
   39.6460   34.8670   39.9530 C   0  0  0  0  0  0  0  0  0  0  0  0
   39.9660   35.5370   40.7480 H   0  0  0  0  0  0  0  0  0  0  0  0
   38.3920   34.2720   39.8750 C   0  0  0  0  0  0  0  0  0  0  0  0
   38.0820   33.4330   38.8290 C   0  0  0  0  0  0  0  0  0  0  0  0
   37.0960   32.9640   38.7700 H   0  0  0  0  0  0  0  0  0  0  0  0
   39.0040   33.1490   37.8130 C   0  0  0  0  0  0  0  0  0  0  0  0
   38.7780   32.4770   36.9720 H   0  0  0  0  0  0  0  0  0  0  0  0
   40.2320   33.7770   37.9550 C   0  0  0  0  0  0  0  0  0  0  0  0
  1  2  1  0  0  0  0
  2  3  2  0  0  0  0
  2 23  1  0  0  0  0
  3  9  1  0  0  0  0
  4  3  1  0  0  0  0
  5  4  2  0  0  0  0
  6  5  1  0  0  0  0
  6  1  2  0  0  0  0
  7  1  1  0  0  0  0
  8  5  1  0  0  0  0
  9 15  1  0  0  0  0
 10  9  1  0  0  0  0
 10 11  2  0  0  0  0
 11 12  1  0  0  0  0
 12 14  1  0  0  0  0
 12 13  2  0  0  0  0
 14 18  1  0  0  0  0
 15 16  2  0  0  0  0
 15 14  1  0  0  0  0
 17 10  1  0  0  0  0
 19 11  1  0  0  0  0
 19 22  1  0  0  0  0
 19 21  1  0  0  0  0
 20 19  1  0  0  0  0
 23 24  1  0  0  0  0
 24 25  2  0  0  0  0
 25 28  1  0  0  0  0
 26 29  1  0  0  0  0
 26 25  1  0  0  0  0
 27 23  1  0  0  0  0
 27 26  2  0  0  0  0
 30 32  1  0  0  0  0
 30 27  1  0  0  0  0
 31 30  2  0  0  0  0
 32 33  1  0  0  0  0
 33 34  1  0  0  0  0
 35 33  2  0  0  0  0
 36 35  1  0  0  0  0
 37 36  1  0  0  0  0
 38 40  1  0  0  0  0
 38 36  2  0  0  0  0
 39 38  1  0  0  0  0
 40 32  2  0  0  0  0
M  END
>  <minimizedAffinity>
-5.83059597

>  <minimizedRMSD>
3.67158628

$$$$
