
 OpenBabel03232520533D

 31 33  0  0  1  0  0  0  0  0999 V2000
   44.9020   33.8430   42.1010 C   0  0  2  0  0  0  0  0  0  0  0  0
   44.4490   35.2520   42.4360 C   0  0  0  0  0  0  0  0  0  0  0  0
   43.4790   35.8570   41.5610 C   0  0  0  0  0  0  0  0  0  0  0  0
   42.9590   35.1390   40.4090 C   0  0  1  0  0  0  0  0  0  0  0  0
   43.5270   33.8030   40.1290 C   0  0  0  0  0  0  0  0  0  0  0  0
   43.8150   33.0910   41.4160 C   0  0  0  0  0  0  0  0  0  0  0  0
   45.7360   34.0080   41.3590 H   0  0  0  0  0  0  0  0  0  0  0  0
   44.6690   35.9790   43.2070 H   0  0  0  0  0  0  0  0  0  0  0  0
   43.0970   36.8330   41.7040 H   0  0  0  0  0  0  0  0  0  0  0  0
   43.0970   35.7800   39.5050 H   0  0  0  0  0  0  0  0  0  0  0  0
   44.4910   33.8890   39.5790 H   0  0  0  0  0  0  0  0  0  0  0  0
   42.8290   33.2280   39.4880 H   0  0  0  0  0  0  0  0  0  0  0  0
   44.2600   32.0990   41.1240 H   0  0  0  0  0  0  0  0  0  0  0  0
   42.9320   32.9240   42.0360 H   0  0  0  0  0  0  0  0  0  0  0  0
   45.7330   33.9880   44.4030 C   0  0  0  0  0  0  0  0  0  0  0  0
   45.4610   33.2180   43.2890 C   0  0  0  0  0  0  0  0  0  0  0  0
   45.7580   31.8580   43.3730 C   0  0  0  0  0  0  0  0  0  0  0  0
   46.2910   31.3220   44.5070 N   0  0  0  0  0  0  0  0  0  0  0  0
   46.5430   32.1180   45.5860 C   0  0  0  0  0  0  0  0  0  0  0  0
   46.2650   33.4470   45.5330 N   0  0  0  0  0  0  0  0  0  0  0  0
   45.5650   35.0510   44.5000 H   0  0  0  0  0  0  0  0  0  0  0  0
   45.5660   31.2090   42.5320 H   0  0  0  0  0  0  0  0  0  0  0  0
   47.0990   31.5790   46.7780 N   0  0  0  0  0  0  0  0  0  0  0  0
   47.4730   30.3330   47.1400 C   0  0  0  0  0  0  0  0  0  0  0  0
   47.9480   30.4550   48.4490 C   0  0  0  0  0  0  0  0  0  0  0  0
   47.8610   31.7340   48.8600 N   0  0  0  0  0  0  0  0  0  0  0  0
   47.3350   32.4100   47.8120 C   0  0  0  0  0  0  0  0  0  0  0  0
   41.4340   35.0240   40.5670 C   0  0  0  0  0  0  0  0  0  0  0  0
   41.0330   35.0750   41.8850 F   0  0  0  0  0  0  0  0  0  0  0  0
   40.8780   36.1480   39.9450 F   0  0  0  0  0  0  0  0  0  0  0  0
   40.9710   33.9210   39.8880 F   0  0  0  0  0  0  0  0  0  0  0  0
  1  7  1  6  0  0  0
  1  2  1  0  0  0  0
  1 16  1  0  0  0  0
  2  8  1  0  0  0  0
  3  9  1  0  0  0  0
  3  2  2  0  0  0  0
  4 10  1  6  0  0  0
  4 28  1  0  0  0  0
  4  3  1  0  0  0  0
  5  4  1  0  0  0  0
  5  6  1  0  0  0  0
  6 14  1  0  0  0  0
  6  1  1  0  0  0  0
 11  5  1  0  0  0  0
 12  5  1  0  0  0  0
 13  6  1  0  0  0  0
 15 21  1  0  0  0  0
 15 20  1  0  0  0  0
 16 17  1  0  0  0  0
 16 15  2  0  0  0  0
 17 18  2  0  0  0  0
 18 19  1  0  0  0  0
 19 23  1  0  0  0  0
 20 19  2  0  0  0  0
 22 17  1  0  0  0  0
 23 24  1  0  0  0  0
 23 27  1  0  0  0  0
 24 25  2  0  0  0  0
 25 26  1  0  0  0  0
 27 26  2  0  0  0  0
 28 29  1  0  0  0  0
 30 28  1  0  0  0  0
 31 28  1  0  0  0  0
M  END
>  <minimizedAffinity>
-5.31481552

>  <minimizedRMSD>
3.65618896

$$$$
