
 OpenBabel03232521013D

 42 45  0  0  1  0  0  0  0  0999 V2000
   45.5320   32.9140   47.4380 C   0  0  0  0  0  0  0  0  0  0  0  0
   45.9670   32.6450   46.1780 C   0  0  0  0  0  0  0  0  0  0  0  0
   46.1330   31.2870   45.8970 C   0  0  0  0  0  0  0  0  0  0  0  0
   45.8830   30.2950   46.7890 N   0  0  0  0  0  0  0  0  0  0  0  0
   45.4390   30.6230   48.0600 C   0  0  0  0  0  0  0  0  0  0  0  0
   45.2770   31.9080   48.3510 N   0  0  0  0  0  0  0  0  0  0  0  0
   45.1890   29.6100   49.0210 N   0  0  0  0  0  0  0  0  0  0  0  0
   45.3760   33.9300   47.7620 H   0  0  0  0  0  0  0  0  0  0  0  0
   45.8880   28.8590   49.2920 H   0  0  0  0  0  0  0  0  0  0  0  0
   44.2630   29.5890   49.5000 H   0  0  0  0  0  0  0  0  0  0  0  0
   46.1840   33.6000   45.1460 C   0  0  2  0  0  0  0  0  0  0  0  0
   44.9760   34.6890   45.4080 C   0  0  0  0  0  0  0  0  0  0  0  0
   44.7170   35.6200   44.3450 C   0  0  0  0  0  0  0  0  0  0  0  0
   45.4900   35.5540   43.1020 C   0  0  1  0  0  0  0  0  0  0  0  0
   46.5520   34.5560   43.0280 C   0  0  0  0  0  0  0  0  0  0  0  0
   46.1230   33.3190   43.7820 C   0  0  0  0  0  0  0  0  0  0  0  0
   47.0030   34.3180   45.4590 H   0  0  0  0  0  0  0  0  0  0  0  0
   44.3210   34.8330   46.2580 H   0  0  0  0  0  0  0  0  0  0  0  0
   43.9480   36.3370   44.4780 H   0  0  0  0  0  0  0  0  0  0  0  0
   45.9200   36.5580   42.8870 H   0  0  0  0  0  0  0  0  0  0  0  0
   46.8260   34.3700   41.9710 H   0  0  0  0  0  0  0  0  0  0  0  0
   47.4790   34.9460   43.5280 H   0  0  0  0  0  0  0  0  0  0  0  0
   46.9670   32.6700   43.4310 H   0  0  0  0  0  0  0  0  0  0  0  0
   45.1590   33.0010   43.3310 H   0  0  0  0  0  0  0  0  0  0  0  0
   44.4500   35.2860   41.9730 C   0  0  0  0  0  0  0  0  0  0  0  0
   43.4020   34.4860   42.3930 F   0  0  0  0  0  0  0  0  0  0  0  0
   43.8970   36.5240   41.6520 F   0  0  0  0  0  0  0  0  0  0  0  0
   45.1000   34.8310   40.8440 F   0  0  0  0  0  0  0  0  0  0  0  0
   46.6400   30.5790   44.7350 C   0  0  0  0  0  0  0  0  0  0  0  0
   46.1680   29.8500   43.6920 C   0  0  0  0  0  0  0  0  0  0  0  0
   47.2640   29.4130   42.9320 C   0  0  0  0  0  0  0  0  0  0  0  0
   48.3400   29.8980   43.5520 N   0  0  0  0  0  0  0  0  0  0  0  0
   48.0000   30.5880   44.6150 N   0  0  0  0  0  0  0  0  0  0  0  0
   45.0970   29.7300   43.6170 H   0  0  0  0  0  0  0  0  0  0  0  0
   47.1070   28.8110   42.0490 H   0  0  0  0  0  0  0  0  0  0  0  0
   49.6760   29.6600   43.0660 C   0  0  0  0  0  0  0  0  0  0  0  0
   50.6920   30.6100   43.1980 C   0  0  0  0  0  3  0  0  0  0  0  0
   51.7890   30.0150   42.6210 C   0  0  0  0  0  0  0  0  0  0  0  0
   52.7320   30.5420   42.5860 H   0  0  0  0  0  0  0  0  0  0  0  0
   51.4430   28.7750   42.1700 N   0  0  0  0  0  0  0  0  0  0  0  0
   50.1470   28.5640   42.4460 N   0  0  0  0  0  0  0  0  0  0  0  0
   52.1500   28.1680   41.7000 H   0  0  0  0  0  0  0  0  0  0  0  0
  1  8  1  0  0  0  0
  1  6  1  0  0  0  0
  2  1  2  0  0  0  0
  3  2  1  0  0  0  0
  3  4  2  0  0  0  0
  4  5  1  0  0  0  0
  5  6  2  0  0  0  0
  5  7  1  0  0  0  0
  7  9  1  0  0  0  0
  7 10  1  0  0  0  0
 11 12  1  0  0  0  0
 11 17  1  1  0  0  0
 11  2  1  0  0  0  0
 12 18  1  0  0  0  0
 13 19  1  0  0  0  0
 13 12  2  0  0  0  0
 14 20  1  6  0  0  0
 14 13  1  0  0  0  0
 15 14  1  0  0  0  0
 15 22  1  0  0  0  0
 15 16  1  0  0  0  0
 16 11  1  0  0  0  0
 21 15  1  0  0  0  0
 23 16  1  0  0  0  0
 24 16  1  0  0  0  0
 25 26  1  0  0  0  0
 25 14  1  0  0  0  0
 27 25  1  0  0  0  0
 28 25  1  0  0  0  0
 29  3  1  0  0  0  0
 30 29  1  0  0  0  0
 31 32  1  0  0  0  0
 31 30  2  0  0  0  0
 32 33  1  0  0  0  0
 33 29  2  0  0  0  0
 34 30  1  0  0  0  0
 35 31  1  0  0  0  0
 36 37  1  0  0  0  0
 36 32  1  0  0  0  0
 38 37  2  0  0  0  0
 39 38  1  0  0  0  0
 40 41  1  0  0  0  0
 40 38  1  0  0  0  0
 41 36  2  0  0  0  0
 42 40  1  0  0  0  0
M  END
>  <minimizedAffinity>
-5.912673

>  <minimizedRMSD>
0.311122388

$$$$
