
 OpenBabel03232521013D

 42 45  0  0  1  0  0  0  0  0999 V2000
   45.4070   32.8800   47.5020 C   0  0  0  0  0  0  0  0  0  0  0  0
   45.9240   32.6230   46.2710 C   0  0  0  0  0  0  0  0  0  0  0  0
   46.1530   31.2700   46.0080 C   0  0  0  0  0  0  0  0  0  0  0  0
   45.8880   30.2730   46.8890 N   0  0  0  0  0  0  0  0  0  0  0  0
   45.3600   30.5900   48.1320 C   0  0  0  0  0  0  0  0  0  0  0  0
   45.1350   31.8700   48.4050 N   0  0  0  0  0  0  0  0  0  0  0  0
   45.0910   29.5720   49.0830 N   0  0  0  0  0  0  0  0  0  0  0  0
   45.1960   33.8910   47.8110 H   0  0  0  0  0  0  0  0  0  0  0  0
   45.7980   28.8480   49.3980 H   0  0  0  0  0  0  0  0  0  0  0  0
   44.1390   29.5200   49.5070 H   0  0  0  0  0  0  0  0  0  0  0  0
   46.1660   33.5810   45.2480 C   0  0  2  0  0  0  0  0  0  0  0  0
   44.9600   34.6760   45.4920 C   0  0  0  0  0  0  0  0  0  0  0  0
   44.7260   35.6140   44.4290 C   0  0  0  0  0  0  0  0  0  0  0  0
   45.5220   35.5490   43.2010 C   0  0  1  0  0  0  0  0  0  0  0  0
   46.5780   34.5440   43.1410 C   0  0  0  0  0  0  0  0  0  0  0  0
   46.1280   33.3060   43.8810 C   0  0  0  0  0  0  0  0  0  0  0  0
   46.9830   34.2920   45.5790 H   0  0  0  0  0  0  0  0  0  0  0  0
   44.2900   34.8210   46.3310 H   0  0  0  0  0  0  0  0  0  0  0  0
   43.9600   36.3350   44.5520 H   0  0  0  0  0  0  0  0  0  0  0  0
   45.9620   36.5510   42.9980 H   0  0  0  0  0  0  0  0  0  0  0  0
   46.8710   34.3600   42.0890 H   0  0  0  0  0  0  0  0  0  0  0  0
   47.4990   34.9250   43.6600 H   0  0  0  0  0  0  0  0  0  0  0  0
   46.9740   32.6530   43.5430 H   0  0  0  0  0  0  0  0  0  0  0  0
   45.1700   32.9970   43.4110 H   0  0  0  0  0  0  0  0  0  0  0  0
   44.5010   35.2920   42.0510 C   0  0  0  0  0  0  0  0  0  0  0  0
   43.4360   34.5050   42.4510 F   0  0  0  0  0  0  0  0  0  0  0  0
   43.9700   36.5360   41.7190 F   0  0  0  0  0  0  0  0  0  0  0  0
   45.1680   34.8280   40.9360 F   0  0  0  0  0  0  0  0  0  0  0  0
   46.7510   30.5760   44.8810 C   0  0  0  0  0  0  0  0  0  0  0  0
   46.3650   29.8360   43.8110 C   0  0  0  0  0  0  0  0  0  0  0  0
   47.5180   29.4280   43.1230 C   0  0  0  0  0  0  0  0  0  0  0  0
   48.5400   29.9390   43.8100 N   0  0  0  0  0  0  0  0  0  0  0  0
   48.1150   30.6200   44.8480 N   0  0  0  0  0  0  0  0  0  0  0  0
   45.3050   29.6890   43.6670 H   0  0  0  0  0  0  0  0  0  0  0  0
   47.4340   28.8230   42.2320 H   0  0  0  0  0  0  0  0  0  0  0  0
   49.9100   29.7360   43.4100 C   0  0  0  0  0  0  0  0  0  0  0  0
   50.4960   28.4680   43.3900 C   0  0  0  0  0  3  0  0  0  0  0  0
   51.7830   28.6950   42.9620 C   0  0  0  0  0  0  0  0  0  0  0  0
   52.4680   27.8670   42.8550 H   0  0  0  0  0  0  0  0  0  0  0  0
   51.9530   30.0300   42.7380 N   0  0  0  0  0  0  0  0  0  0  0  0
   50.8020   30.6630   43.0150 N   0  0  0  0  0  0  0  0  0  0  0  0
   52.8720   30.3960   42.4060 H   0  0  0  0  0  0  0  0  0  0  0  0
  1  8  1  0  0  0  0
  1  6  1  0  0  0  0
  2  1  2  0  0  0  0
  3  2  1  0  0  0  0
  3  4  2  0  0  0  0
  4  5  1  0  0  0  0
  5  6  2  0  0  0  0
  5  7  1  0  0  0  0
  7  9  1  0  0  0  0
  7 10  1  0  0  0  0
 11 12  1  0  0  0  0
 11 17  1  1  0  0  0
 11  2  1  0  0  0  0
 12 18  1  0  0  0  0
 13 19  1  0  0  0  0
 13 12  2  0  0  0  0
 14 20  1  6  0  0  0
 14 13  1  0  0  0  0
 15 14  1  0  0  0  0
 15 22  1  0  0  0  0
 15 16  1  0  0  0  0
 16 11  1  0  0  0  0
 21 15  1  0  0  0  0
 23 16  1  0  0  0  0
 24 16  1  0  0  0  0
 25 26  1  0  0  0  0
 25 14  1  0  0  0  0
 27 25  1  0  0  0  0
 28 25  1  0  0  0  0
 29  3  1  0  0  0  0
 30 29  1  0  0  0  0
 31 32  1  0  0  0  0
 31 30  2  0  0  0  0
 32 33  1  0  0  0  0
 33 29  2  0  0  0  0
 34 30  1  0  0  0  0
 35 31  1  0  0  0  0
 36 32  1  0  0  0  0
 37 36  1  0  0  0  0
 38 37  2  0  0  0  0
 39 38  1  0  0  0  0
 40 38  1  0  0  0  0
 40 41  1  0  0  0  0
 41 36  2  0  0  0  0
 42 40  1  0  0  0  0
M  END
>  <minimizedAffinity>
-5.99183655

>  <minimizedRMSD>
0.104126684

$$$$
