
 OpenBabel03232521013D

 42 45  0  0  1  0  0  0  0  0999 V2000
   45.3710   32.8450   47.4850 C   0  0  0  0  0  0  0  0  0  0  0  0
   45.9290   32.6050   46.2680 C   0  0  0  0  0  0  0  0  0  0  0  0
   46.2040   31.2600   46.0080 C   0  0  0  0  0  0  0  0  0  0  0  0
   45.9420   30.2540   46.8800 N   0  0  0  0  0  0  0  0  0  0  0  0
   45.3720   30.5520   48.1080 C   0  0  0  0  0  0  0  0  0  0  0  0
   45.1040   31.8240   48.3780 N   0  0  0  0  0  0  0  0  0  0  0  0
   45.1050   29.5240   49.0490 N   0  0  0  0  0  0  0  0  0  0  0  0
   45.1240   33.8490   47.7900 H   0  0  0  0  0  0  0  0  0  0  0  0
   45.8240   28.8190   49.3820 H   0  0  0  0  0  0  0  0  0  0  0  0
   44.1450   29.4440   49.4470 H   0  0  0  0  0  0  0  0  0  0  0  0
   46.1720   33.5730   45.2540 C   0  0  2  0  0  0  0  0  0  0  0  0
   44.9600   34.6610   45.5010 C   0  0  0  0  0  0  0  0  0  0  0  0
   44.7270   35.6060   44.4440 C   0  0  0  0  0  0  0  0  0  0  0  0
   45.5300   35.5550   43.2200 C   0  0  1  0  0  0  0  0  0  0  0  0
   46.5910   34.5550   43.1580 C   0  0  0  0  0  0  0  0  0  0  0  0
   46.1420   33.3090   43.8850 C   0  0  0  0  0  0  0  0  0  0  0  0
   46.9840   34.2850   45.5960 H   0  0  0  0  0  0  0  0  0  0  0  0
   44.2850   34.7950   46.3380 H   0  0  0  0  0  0  0  0  0  0  0  0
   43.9570   36.3230   44.5690 H   0  0  0  0  0  0  0  0  0  0  0  0
   45.9660   36.5600   43.0280 H   0  0  0  0  0  0  0  0  0  0  0  0
   46.8900   34.3820   42.1050 H   0  0  0  0  0  0  0  0  0  0  0  0
   47.5070   34.9360   43.6850 H   0  0  0  0  0  0  0  0  0  0  0  0
   46.9930   32.6630   43.5460 H   0  0  0  0  0  0  0  0  0  0  0  0
   45.1890   33.0000   43.4080 H   0  0  0  0  0  0  0  0  0  0  0  0
   44.5160   35.3030   42.0630 C   0  0  0  0  0  0  0  0  0  0  0  0
   43.4440   34.5210   42.4550 F   0  0  0  0  0  0  0  0  0  0  0  0
   43.9930   36.5490   41.7270 F   0  0  0  0  0  0  0  0  0  0  0  0
   45.1890   34.8360   40.9520 F   0  0  0  0  0  0  0  0  0  0  0  0
   46.8510   30.5870   44.8970 C   0  0  0  0  0  0  0  0  0  0  0  0
   46.5160   29.8350   43.8180 C   0  0  0  0  0  0  0  0  0  0  0  0
   47.6990   29.4660   43.1590 C   0  0  0  0  0  0  0  0  0  0  0  0
   48.6860   30.0100   43.8700 N   0  0  0  0  0  0  0  0  0  0  0  0
   48.2140   30.6750   44.8970 N   0  0  0  0  0  0  0  0  0  0  0  0
   45.4650   29.6530   43.6480 H   0  0  0  0  0  0  0  0  0  0  0  0
   47.6570   28.8590   42.2660 H   0  0  0  0  0  0  0  0  0  0  0  0
   50.0720   29.8520   43.5040 C   0  0  0  0  0  0  0  0  0  0  0  0
   50.5000   29.9240   42.1770 C   0  0  0  0  0  3  0  0  0  0  0  0
   51.8590   29.7270   42.2470 C   0  0  0  0  0  0  0  0  0  0  0  0
   52.4520   29.7330   41.3440 H   0  0  0  0  0  0  0  0  0  0  0  0
   52.2190   29.5460   43.5510 N   0  0  0  0  0  0  0  0  0  0  0  0
   51.1190   29.6250   44.3160 N   0  0  0  0  0  0  0  0  0  0  0  0
   53.2190   29.3810   43.8040 H   0  0  0  0  0  0  0  0  0  0  0  0
  1  8  1  0  0  0  0
  1  6  1  0  0  0  0
  2  1  2  0  0  0  0
  3  2  1  0  0  0  0
  3  4  2  0  0  0  0
  4  5  1  0  0  0  0
  5  6  2  0  0  0  0
  5  7  1  0  0  0  0
  7  9  1  0  0  0  0
  7 10  1  0  0  0  0
 11 12  1  0  0  0  0
 11 17  1  1  0  0  0
 11  2  1  0  0  0  0
 12 18  1  0  0  0  0
 13 19  1  0  0  0  0
 13 12  2  0  0  0  0
 14 20  1  6  0  0  0
 14 13  1  0  0  0  0
 15 14  1  0  0  0  0
 15 22  1  0  0  0  0
 15 16  1  0  0  0  0
 16 11  1  0  0  0  0
 21 15  1  0  0  0  0
 23 16  1  0  0  0  0
 24 16  1  0  0  0  0
 25 26  1  0  0  0  0
 25 14  1  0  0  0  0
 27 25  1  0  0  0  0
 28 25  1  0  0  0  0
 29 33  2  0  0  0  0
 29  3  1  0  0  0  0
 30 29  1  0  0  0  0
 31 30  2  0  0  0  0
 31 32  1  0  0  0  0
 32 33  1  0  0  0  0
 34 30  1  0  0  0  0
 35 31  1  0  0  0  0
 36 32  1  0  0  0  0
 36 41  2  0  0  0  0
 37 38  2  0  0  0  0
 37 36  1  0  0  0  0
 38 40  1  0  0  0  0
 39 38  1  0  0  0  0
 40 42  1  0  0  0  0
 40 41  1  0  0  0  0
M  END
>  <minimizedAffinity>
-5.97085857

>  <minimizedRMSD>
0.177717507

$$$$
