
 OpenBabel03232519523D

 41 44  0  0  1  0  0  0  0  0999 V2000
   45.9960   33.6980   42.1480 N   0  0  0  0  0  0  0  0  0  0  0  0
   47.1890   33.9810   41.3520 C   0  0  0  0  0  0  0  0  0  0  0  0
   46.6110   33.8520   39.9610 C   0  0  0  0  0  0  0  0  0  0  0  0
   45.9150   32.5210   40.0790 C   0  0  0  0  0  0  0  0  0  0  0  0
   45.3270   32.5900   41.4530 C   0  0  2  0  0  0  0  0  0  0  0  0
   47.6010   34.9720   41.5640 H   0  0  0  0  0  0  0  0  0  0  0  0
   47.9450   33.1680   41.4800 H   0  0  0  0  0  0  0  0  0  0  0  0
   47.4110   33.7580   39.2050 H   0  0  0  0  0  0  0  0  0  0  0  0
   45.8770   34.6380   39.7400 H   0  0  0  0  0  0  0  0  0  0  0  0
   46.7100   31.7280   39.9690 H   0  0  0  0  0  0  0  0  0  0  0  0
   45.1510   32.3480   39.3080 H   0  0  0  0  0  0  0  0  0  0  0  0
   45.7060   31.6870   41.9850 H   0  0  0  0  0  0  0  0  0  0  0  0
   44.5340   36.1150   44.5620 C   0  0  0  0  0  0  0  0  0  0  0  0
   44.9740   35.5780   43.3510 C   0  0  0  0  0  0  0  0  0  0  0  0
   45.5340   34.3060   43.3180 C   0  0  0  0  0  0  0  0  0  0  0  0
   45.6200   33.6430   44.5120 N   0  0  0  0  0  0  0  0  0  0  0  0
   45.1930   34.1700   45.6790 C   0  0  0  0  0  0  0  0  0  0  0  0
   44.6540   35.3990   45.6970 N   0  0  0  0  0  0  0  0  0  0  0  0
   45.3650   33.3320   46.8200 N   0  0  0  0  0  0  0  0  0  0  0  0
   44.1100   37.1000   44.5320 H   0  0  0  0  0  0  0  0  0  0  0  0
   44.8830   36.1360   42.4460 H   0  0  0  0  0  0  0  0  0  0  0  0
   46.2370   32.8480   47.1550 H   0  0  0  0  0  0  0  0  0  0  0  0
   44.5500   33.1250   47.4610 H   0  0  0  0  0  0  0  0  0  0  0  0
   43.9060   32.6240   41.5370 N   0  0  0  0  0  0  0  0  0  0  0  0
   43.0960   33.4990   40.9130 C   0  0  0  0  0  0  0  0  0  0  0  0
   41.7280   33.4590   41.0490 C   0  0  0  0  0  0  0  0  0  0  0  0
   41.1320   32.4960   41.8510 C   0  0  0  0  0  0  0  0  0  0  0  0
   39.8730   32.4130   42.0120 O   0  0  0  0  0  0  0  0  0  0  0  0
   41.9520   31.6340   42.4640 N   0  0  0  0  0  0  0  0  0  0  0  0
   43.2630   31.7110   42.3020 C   0  0  0  0  0  0  0  0  0  0  0  0
   43.9650   30.8430   42.9300 O   0  0  0  0  0  0  0  0  0  0  0  0
   43.5670   34.2530   40.2850 H   0  0  0  0  0  0  0  0  0  0  0  0
   41.5010   30.9110   43.0650 H   0  0  0  0  0  0  0  0  0  0  0  0
   40.8270   34.4230   40.3640 C   0  0  0  0  0  0  0  0  0  0  0  0
   40.2140   34.9470   41.1560 H   0  0  0  0  0  0  0  0  0  0  0  0
   41.4700   35.2360   39.9620 H   0  0  0  0  0  0  0  0  0  0  0  0
   39.9410   33.8280   39.3990 C   0  0  0  0  0  0  0  0  0  0  0  0
   38.6490   33.9540   39.0330 C   0  0  0  0  0  0  0  0  0  0  0  0
   38.0830   33.2190   38.0390 C   0  0  0  0  0  0  0  0  0  0  0  0
   38.9840   32.2850   37.3970 C   0  0  0  0  0  0  0  0  0  0  0  0
   40.6170   32.5150   38.2690 S   0  0  0  0  0  0  0  0  0  0  0  0
  1 15  1  0  0  0  0
  2  7  1  0  0  0  0
  2  6  1  0  0  0  0
  2  1  1  0  0  0  0
  3  4  1  0  0  0  0
  3  2  1  0  0  0  0
  4  5  1  0  0  0  0
  5 24  1  0  0  0  0
  5 12  1  1  0  0  0
  5  1  1  0  0  0  0
  8  3  1  0  0  0  0
  9  3  1  0  0  0  0
 10  4  1  0  0  0  0
 11  4  1  0  0  0  0
 13 18  1  0  0  0  0
 14 13  2  0  0  0  0
 15 14  1  0  0  0  0
 15 16  2  0  0  0  0
 16 17  1  0  0  0  0
 17 18  2  0  0  0  0
 17 19  1  0  0  0  0
 19 22  1  0  0  0  0
 19 23  1  0  0  0  0
 20 13  1  0  0  0  0
 21 14  1  0  0  0  0
 24 30  1  0  0  0  0
 25 26  2  0  0  0  0
 25 24  1  0  0  0  0
 26 27  1  0  0  0  0
 27 28  2  0  0  0  0
 27 29  1  0  0  0  0
 29 33  1  0  0  0  0
 30 29  1  0  0  0  0
 30 31  2  0  0  0  0
 32 25  1  0  0  0  0
 34 26  1  0  0  0  0
 34 35  1  0  0  0  0
 36 34  1  0  0  0  0
 37 34  1  0  0  0  0
 38 37  2  0  0  0  0
 39 38  1  0  0  0  0
 40 39  2  0  0  0  0
 40 41  1  0  0  0  0
 41 37  1  0  0  0  0
M  END
>  <minimizedAffinity>
-6.41710043

>  <minimizedRMSD>
1.3226763

$$$$
