
 OpenBabel03232521003D

 42 45  0  0  1  0  0  0  0  0999 V2000
   45.4690   32.8610   47.5250 C   0  0  0  0  0  0  0  0  0  0  0  0
   45.9420   32.6070   46.2750 C   0  0  0  0  0  0  0  0  0  0  0  0
   46.1220   31.2520   45.9850 C   0  0  0  0  0  0  0  0  0  0  0  0
   45.8520   30.2500   46.8600 N   0  0  0  0  0  0  0  0  0  0  0  0
   45.3710   30.5630   48.1220 C   0  0  0  0  0  0  0  0  0  0  0  0
   45.1940   31.8450   48.4210 N   0  0  0  0  0  0  0  0  0  0  0  0
   45.0980   29.5390   49.0650 N   0  0  0  0  0  0  0  0  0  0  0  0
   45.2990   33.8730   47.8550 H   0  0  0  0  0  0  0  0  0  0  0  0
   45.7920   28.7890   49.3480 H   0  0  0  0  0  0  0  0  0  0  0  0
   44.1580   29.5090   49.5170 H   0  0  0  0  0  0  0  0  0  0  0  0
   46.1840   33.5740   45.2610 C   0  0  2  0  0  0  0  0  0  0  0  0
   44.9620   34.6530   45.4970 C   0  0  0  0  0  0  0  0  0  0  0  0
   44.7290   35.5940   44.4360 C   0  0  0  0  0  0  0  0  0  0  0  0
   45.5380   35.5450   43.2170 C   0  0  1  0  0  0  0  0  0  0  0  0
   46.6070   34.5530   43.1640 C   0  0  0  0  0  0  0  0  0  0  0  0
   46.1640   33.3060   43.8920 C   0  0  0  0  0  0  0  0  0  0  0  0
   46.9880   34.2930   45.6040 H   0  0  0  0  0  0  0  0  0  0  0  0
   44.2810   34.7850   46.3290 H   0  0  0  0  0  0  0  0  0  0  0  0
   43.9520   36.3050   44.5540 H   0  0  0  0  0  0  0  0  0  0  0  0
   45.9680   36.5530   43.0240 H   0  0  0  0  0  0  0  0  0  0  0  0
   46.9140   34.3790   42.1130 H   0  0  0  0  0  0  0  0  0  0  0  0
   47.5170   34.9430   43.6950 H   0  0  0  0  0  0  0  0  0  0  0  0
   47.0220   32.6650   43.5590 H   0  0  0  0  0  0  0  0  0  0  0  0
   45.2150   32.9880   43.4100 H   0  0  0  0  0  0  0  0  0  0  0  0
   44.5340   35.2820   42.0540 C   0  0  0  0  0  0  0  0  0  0  0  0
   43.4670   34.4900   42.4410 F   0  0  0  0  0  0  0  0  0  0  0  0
   44.0000   36.5230   41.7150 F   0  0  0  0  0  0  0  0  0  0  0  0
   45.2170   34.8210   40.9480 F   0  0  0  0  0  0  0  0  0  0  0  0
   46.6650   30.5590   44.8320 C   0  0  0  0  0  0  0  0  0  0  0  0
   46.2250   29.9200   43.7180 C   0  0  0  0  0  0  0  0  0  0  0  0
   47.3420   29.4290   43.0250 C   0  0  0  0  0  0  0  0  0  0  0  0
   48.3980   29.7930   43.7520 N   0  0  0  0  0  0  0  0  0  0  0  0
   48.0270   30.4600   44.8190 N   0  0  0  0  0  0  0  0  0  0  0  0
   45.1570   29.8940   43.5520 H   0  0  0  0  0  0  0  0  0  0  0  0
   47.2120   28.8840   42.1010 H   0  0  0  0  0  0  0  0  0  0  0  0
   49.7470   29.4670   43.3600 C   0  0  0  0  0  0  0  0  0  0  0  0
   50.0230   28.6830   42.2380 C   0  0  0  0  0  3  0  0  0  0  0  0
   51.3950   28.6050   42.2080 C   0  0  0  0  0  0  0  0  0  0  0  0
   51.8860   28.0450   41.4250 H   0  0  0  0  0  0  0  0  0  0  0  0
   51.9080   29.3080   43.2590 N   0  0  0  0  0  0  0  0  0  0  0  0
   50.8930   29.8330   43.9610 N   0  0  0  0  0  0  0  0  0  0  0  0
   52.9410   29.3640   43.4030 H   0  0  0  0  0  0  0  0  0  0  0  0
  1  8  1  0  0  0  0
  1  6  1  0  0  0  0
  2  1  2  0  0  0  0
  3  2  1  0  0  0  0
  3  4  2  0  0  0  0
  4  5  1  0  0  0  0
  5  6  2  0  0  0  0
  5  7  1  0  0  0  0
  7  9  1  0  0  0  0
  7 10  1  0  0  0  0
 11 12  1  0  0  0  0
 11 17  1  1  0  0  0
 11  2  1  0  0  0  0
 12 18  1  0  0  0  0
 13 19  1  0  0  0  0
 13 12  2  0  0  0  0
 14 20  1  6  0  0  0
 14 13  1  0  0  0  0
 15 14  1  0  0  0  0
 15 22  1  0  0  0  0
 15 16  1  0  0  0  0
 16 11  1  0  0  0  0
 21 15  1  0  0  0  0
 23 16  1  0  0  0  0
 24 16  1  0  0  0  0
 25 26  1  0  0  0  0
 25 14  1  0  0  0  0
 27 25  1  0  0  0  0
 28 25  1  0  0  0  0
 29  3  1  0  0  0  0
 30 29  1  0  0  0  0
 31 30  2  0  0  0  0
 31 32  1  0  0  0  0
 32 33  1  0  0  0  0
 33 29  2  0  0  0  0
 34 30  1  0  0  0  0
 35 31  1  0  0  0  0
 36 32  1  0  0  0  0
 36 41  2  0  0  0  0
 37 36  1  0  0  0  0
 38 37  2  0  0  0  0
 38 40  1  0  0  0  0
 39 38  1  0  0  0  0
 40 42  1  0  0  0  0
 40 41  1  0  0  0  0
M  END
>  <minimizedAffinity>
-5.91663408

>  <minimizedRMSD>
0.163599417

$$$$
