
 OpenBabel03232519073D

 35 37  0  0  0  0  0  0  0  0999 V2000
   48.7030   34.7640   41.6680 C   0  0  0  0  0  0  0  0  0  0  0  0
   46.3910   33.8440   44.3860 C   0  0  0  0  0  0  0  0  0  0  0  0
   45.3030   34.5630   44.0130 C   0  0  0  0  0  0  0  0  0  0  0  0
   45.8570   35.3890   42.4950 S   0  0  0  0  0  0  0  0  0  0  0  0
   47.5670   34.5710   42.6320 C   0  0  0  0  0  0  0  0  0  0  0  0
   47.4140   33.9600   43.5990 N   0  0  0  0  0  0  0  0  0  0  0  0
   44.3040   34.6810   44.4490 H   0  0  0  0  0  0  0  0  0  0  0  0
   45.5410   32.4740   47.8360 C   0  0  0  0  0  0  0  0  0  0  0  0
   45.5500   33.2680   46.6990 C   0  0  0  0  0  0  0  0  0  0  0  0
   46.3630   33.0100   45.6050 C   0  0  0  0  0  0  0  0  0  0  0  0
   47.1270   31.9190   45.7780 N   0  0  0  0  0  0  0  0  0  0  0  0
   47.1630   31.1250   46.8360 C   0  0  0  0  0  0  0  0  0  0  0  0
   46.3600   31.4150   47.8650 N   0  0  0  0  0  0  0  0  0  0  0  0
   44.8590   32.7540   48.6540 H   0  0  0  0  0  0  0  0  0  0  0  0
   44.8880   34.1460   46.6450 H   0  0  0  0  0  0  0  0  0  0  0  0
   47.8250   30.2670   46.8570 H   0  0  0  0  0  0  0  0  0  0  0  0
   49.0900   36.2170   41.7560 C   0  0  0  0  0  0  0  0  0  0  0  0
   49.7190   36.5000   40.8830 H   0  0  0  0  0  0  0  0  0  0  0  0
   48.2020   36.8760   41.8210 H   0  0  0  0  0  0  0  0  0  0  0  0
   49.6930   36.3370   42.6810 H   0  0  0  0  0  0  0  0  0  0  0  0
   48.1690   34.4270   40.3120 C   0  0  0  0  0  0  0  0  0  0  0  0
   47.4060   33.6400   40.3640 H   0  0  0  0  0  0  0  0  0  0  0  0
   47.5750   35.3460   40.0010 H   0  0  0  0  0  0  0  0  0  0  0  0
   48.9250   34.3370   39.5330 H   0  0  0  0  0  0  0  0  0  0  0  0
   49.8600   33.8870   42.0500 C   0  0  0  0  0  0  0  0  0  0  0  0
   50.7170   34.1110   41.3870 H   0  0  0  0  0  0  0  0  0  0  0  0
   50.1380   34.1040   43.0820 H   0  0  0  0  0  0  0  0  0  0  0  0
   49.4420   32.5130   41.9340 N   0  0  0  0  0  0  0  0  0  0  0  0
   48.7660   32.2460   41.1530 H   0  0  0  0  0  0  0  0  0  0  0  0
   49.7200   31.3270   42.6450 C   0  0  0  0  0  0  0  0  0  0  0  0
   51.0260   31.0200   42.7980 N   0  0  0  0  0  0  0  0  0  0  0  0
   51.0350   29.9090   43.4700 O   0  0  0  0  0  0  0  0  0  0  0  0
   49.8230   29.5020   43.7460 C   0  0  0  0  0  0  0  0  0  0  0  0
   49.4260   28.6430   44.2760 H   0  0  0  0  0  0  0  0  0  0  0  0
   48.9410   30.4000   43.2250 N   0  0  0  0  0  0  0  0  0  0  0  0
  1 17  1  0  0  0  0
  1 25  1  0  0  0  0
  1  5  1  0  0  0  0
  2 10  1  0  0  0  0
  3  2  2  0  0  0  0
  3  7  1  0  0  0  0
  4  5  1  0  0  0  0
  4  3  1  0  0  0  0
  5  6  2  0  0  0  0
  6  2  1  0  0  0  0
  8 13  1  0  0  0  0
  8 14  1  0  0  0  0
  9  8  2  0  0  0  0
 10 11  2  0  0  0  0
 10  9  1  0  0  0  0
 11 12  1  0  0  0  0
 12 16  1  0  0  0  0
 12 13  2  0  0  0  0
 15  9  1  0  0  0  0
 17 19  1  0  0  0  0
 17 20  1  0  0  0  0
 18 17  1  0  0  0  0
 21 22  1  0  0  0  0
 21  1  1  0  0  0  0
 23 21  1  0  0  0  0
 24 21  1  0  0  0  0
 25 27  1  0  0  0  0
 26 25  1  0  0  0  0
 28 25  1  0  0  0  0
 28 30  1  0  0  0  0
 29 28  1  0  0  0  0
 30 31  2  0  0  0  0
 30 35  1  0  0  0  0
 31 32  1  0  0  0  0
 32 33  1  0  0  0  0
 33 34  1  0  0  0  0
 35 33  2  0  0  0  0
M  END
>  <minimizedAffinity>
-4.9244442

>  <minimizedRMSD>
2.11841607

$$$$
