
 OpenBabel03232521013D

 42 45  0  0  1  0  0  0  0  0999 V2000
   45.4560   32.8520   47.5110 C   0  0  0  0  0  0  0  0  0  0  0  0
   45.9410   32.6010   46.2650 C   0  0  0  0  0  0  0  0  0  0  0  0
   46.1360   31.2480   45.9780 C   0  0  0  0  0  0  0  0  0  0  0  0
   45.8680   30.2440   46.8520 N   0  0  0  0  0  0  0  0  0  0  0  0
   45.3740   30.5540   48.1090 C   0  0  0  0  0  0  0  0  0  0  0  0
   45.1820   31.8340   48.4050 N   0  0  0  0  0  0  0  0  0  0  0  0
   45.1030   29.5290   49.0510 N   0  0  0  0  0  0  0  0  0  0  0  0
   45.2740   33.8630   47.8380 H   0  0  0  0  0  0  0  0  0  0  0  0
   45.8010   28.7850   49.3410 H   0  0  0  0  0  0  0  0  0  0  0  0
   44.1590   29.4910   49.4960 H   0  0  0  0  0  0  0  0  0  0  0  0
   46.1820   33.5690   45.2510 C   0  0  2  0  0  0  0  0  0  0  0  0
   44.9670   34.6540   45.4960 C   0  0  0  0  0  0  0  0  0  0  0  0
   44.7320   35.5970   44.4380 C   0  0  0  0  0  0  0  0  0  0  0  0
   45.5360   35.5470   43.2140 C   0  0  1  0  0  0  0  0  0  0  0  0
   46.6000   34.5510   43.1540 C   0  0  0  0  0  0  0  0  0  0  0  0
   46.1540   33.3040   43.8820 C   0  0  0  0  0  0  0  0  0  0  0  0
   46.9920   34.2840   45.5920 H   0  0  0  0  0  0  0  0  0  0  0  0
   44.2910   34.7870   46.3320 H   0  0  0  0  0  0  0  0  0  0  0  0
   43.9600   36.3120   44.5620 H   0  0  0  0  0  0  0  0  0  0  0  0
   45.9690   36.5540   43.0220 H   0  0  0  0  0  0  0  0  0  0  0  0
   46.9010   34.3770   42.1020 H   0  0  0  0  0  0  0  0  0  0  0  0
   47.5140   34.9350   43.6810 H   0  0  0  0  0  0  0  0  0  0  0  0
   47.0080   32.6600   43.5440 H   0  0  0  0  0  0  0  0  0  0  0  0
   45.2020   32.9910   43.4040 H   0  0  0  0  0  0  0  0  0  0  0  0
   44.5240   35.2910   42.0570 C   0  0  0  0  0  0  0  0  0  0  0  0
   43.4560   34.5030   42.4470 F   0  0  0  0  0  0  0  0  0  0  0  0
   43.9940   36.5350   41.7230 F   0  0  0  0  0  0  0  0  0  0  0  0
   45.2000   34.8300   40.9460 F   0  0  0  0  0  0  0  0  0  0  0  0
   46.6940   30.5580   44.8300 C   0  0  0  0  0  0  0  0  0  0  0  0
   46.2680   29.8810   43.7330 C   0  0  0  0  0  0  0  0  0  0  0  0
   47.3970   29.4270   43.0340 C   0  0  0  0  0  0  0  0  0  0  0  0
   48.4450   29.8490   43.7400 N   0  0  0  0  0  0  0  0  0  0  0  0
   48.0590   30.5180   44.8010 N   0  0  0  0  0  0  0  0  0  0  0  0
   45.2010   29.8060   43.5820 H   0  0  0  0  0  0  0  0  0  0  0  0
   47.2790   28.8600   42.1220 H   0  0  0  0  0  0  0  0  0  0  0  0
   49.8020   29.5750   43.3370 C   0  0  0  0  0  0  0  0  0  0  0  0
   50.1090   29.0550   42.0780 C   0  0  0  0  0  3  0  0  0  0  0  0
   51.4790   28.9390   42.0830 C   0  0  0  0  0  0  0  0  0  0  0  0
   51.9910   28.5540   41.2130 H   0  0  0  0  0  0  0  0  0  0  0  0
   51.9610   29.3700   43.2850 N   0  0  0  0  0  0  0  0  0  0  0  0
   50.9290   29.7580   44.0490 N   0  0  0  0  0  0  0  0  0  0  0  0
   52.9870   29.3570   43.4770 H   0  0  0  0  0  0  0  0  0  0  0  0
  1  8  1  0  0  0  0
  1  6  1  0  0  0  0
  2  1  2  0  0  0  0
  3  2  1  0  0  0  0
  3  4  2  0  0  0  0
  4  5  1  0  0  0  0
  5  6  2  0  0  0  0
  5  7  1  0  0  0  0
  7  9  1  0  0  0  0
  7 10  1  0  0  0  0
 11 12  1  0  0  0  0
 11 17  1  1  0  0  0
 11  2  1  0  0  0  0
 12 18  1  0  0  0  0
 13 19  1  0  0  0  0
 13 12  2  0  0  0  0
 14 20  1  6  0  0  0
 14 13  1  0  0  0  0
 15 14  1  0  0  0  0
 15 22  1  0  0  0  0
 15 16  1  0  0  0  0
 16 11  1  0  0  0  0
 21 15  1  0  0  0  0
 23 16  1  0  0  0  0
 24 16  1  0  0  0  0
 25 26  1  0  0  0  0
 25 14  1  0  0  0  0
 27 25  1  0  0  0  0
 28 25  1  0  0  0  0
 29  3  1  0  0  0  0
 30 29  1  0  0  0  0
 31 30  2  0  0  0  0
 31 32  1  0  0  0  0
 32 33  1  0  0  0  0
 33 29  2  0  0  0  0
 34 30  1  0  0  0  0
 35 31  1  0  0  0  0
 36 32  1  0  0  0  0
 36 41  2  0  0  0  0
 37 38  2  0  0  0  0
 37 36  1  0  0  0  0
 38 40  1  0  0  0  0
 39 38  1  0  0  0  0
 40 42  1  0  0  0  0
 40 41  1  0  0  0  0
M  END
>  <minimizedAffinity>
-5.92877769

>  <minimizedRMSD>
0.128241926

$$$$
