
 OpenBabel03232520553D

 33 35  0  0  1  0  0  0  0  0999 V2000
   46.1040   33.6100   45.3390 C   0  0  2  0  0  0  0  0  0  0  0  0
   44.9710   34.6860   45.5190 C   0  0  0  0  0  0  0  0  0  0  0  0
   44.7430   35.5930   44.4260 C   0  0  0  0  0  0  0  0  0  0  0  0
   45.5330   35.4990   43.2050 C   0  0  1  0  0  0  0  0  0  0  0  0
   46.6230   34.5170   43.2000 C   0  0  0  0  0  0  0  0  0  0  0  0
   46.1970   33.2760   43.9490 C   0  0  0  0  0  0  0  0  0  0  0  0
   46.9520   34.2910   45.6880 H   0  0  0  0  0  0  0  0  0  0  0  0
   44.2760   34.9240   46.3170 H   0  0  0  0  0  0  0  0  0  0  0  0
   43.9890   36.3450   44.4860 H   0  0  0  0  0  0  0  0  0  0  0  0
   45.9660   36.5140   42.9930 H   0  0  0  0  0  0  0  0  0  0  0  0
   47.5800   34.8680   43.6390 H   0  0  0  0  0  0  0  0  0  0  0  0
   46.8220   34.2210   42.1300 H   0  0  0  0  0  0  0  0  0  0  0  0
   45.1730   33.0130   43.5520 H   0  0  0  0  0  0  0  0  0  0  0  0
   46.8700   32.5230   43.5930 H   0  0  0  0  0  0  0  0  0  0  0  0
   45.3240   32.8810   47.5500 C   0  0  0  0  0  0  0  0  0  0  0  0
   45.8840   32.6090   46.3360 C   0  0  0  0  0  0  0  0  0  0  0  0
   46.2020   31.2630   46.0860 C   0  0  0  0  0  0  0  0  0  0  0  0
   45.9660   30.3110   46.9910 N   0  0  0  0  0  0  0  0  0  0  0  0
   45.4000   30.6120   48.2090 C   0  0  0  0  0  0  0  0  0  0  0  0
   45.0890   31.8790   48.4690 N   0  0  0  0  0  0  0  0  0  0  0  0
   45.1650   29.5800   49.1610 N   0  0  0  0  0  0  0  0  0  0  0  0
   45.0530   33.8710   47.8240 H   0  0  0  0  0  0  0  0  0  0  0  0
   45.8800   29.0680   49.7150 H   0  0  0  0  0  0  0  0  0  0  0  0
   44.1680   29.3030   49.3240 H   0  0  0  0  0  0  0  0  0  0  0  0
   46.7730   30.5740   44.9820 N   0  0  0  0  0  0  0  0  0  0  0  0
   46.1640   29.9520   43.9210 C   0  0  0  0  0  0  0  0  0  0  0  0
   47.1760   29.4810   43.1090 C   0  0  0  0  0  0  0  0  0  0  0  0
   48.3740   29.7910   43.6360 N   0  0  0  0  0  0  0  0  0  0  0  0
   48.1300   30.4680   44.7970 C   0  0  0  0  0  0  0  0  0  0  0  0
   44.5570   35.2060   42.0440 C   0  0  0  0  0  0  0  0  0  0  0  0
   43.5370   34.3440   42.4080 F   0  0  0  0  0  0  0  0  0  0  0  0
   43.9420   36.4160   41.7230 F   0  0  0  0  0  0  0  0  0  0  0  0
   45.2600   34.7860   40.9250 F   0  0  0  0  0  0  0  0  0  0  0  0
  1  2  1  0  0  0  0
  1  7  1  1  0  0  0
  1 16  1  0  0  0  0
  2  8  1  0  0  0  0
  3  9  1  0  0  0  0
  3  2  2  0  0  0  0
  4 10  1  6  0  0  0
  4  3  1  0  0  0  0
  5  4  1  0  0  0  0
  5 11  1  0  0  0  0
  5  6  1  0  0  0  0
  6  1  1  0  0  0  0
 12  5  1  0  0  0  0
 13  6  1  0  0  0  0
 14  6  1  0  0  0  0
 15 22  1  0  0  0  0
 15 20  1  0  0  0  0
 16 15  2  0  0  0  0
 17 16  1  0  0  0  0
 17 18  2  0  0  0  0
 18 19  1  0  0  0  0
 19 20  2  0  0  0  0
 19 21  1  0  0  0  0
 21 24  1  0  0  0  0
 21 23  1  0  0  0  0
 25 17  1  0  0  0  0
 26 25  1  0  0  0  0
 27 28  1  0  0  0  0
 27 26  2  0  0  0  0
 28 29  2  0  0  0  0
 29 25  1  0  0  0  0
 30 31  1  0  0  0  0
 30  4  1  0  0  0  0
 32 30  1  0  0  0  0
 33 30  1  0  0  0  0
M  END
>  <minimizedAffinity>
-5.61240911

>  <minimizedRMSD>
0.310780525

$$$$
