
 OpenBabel03232521013D

 42 45  0  0  1  0  0  0  0  0999 V2000
   45.4320   32.9280   47.4570 C   0  0  0  0  0  0  0  0  0  0  0  0
   45.9260   32.6510   46.2210 C   0  0  0  0  0  0  0  0  0  0  0  0
   46.1410   31.2930   45.9710 C   0  0  0  0  0  0  0  0  0  0  0  0
   45.8840   30.3100   46.8710 N   0  0  0  0  0  0  0  0  0  0  0  0
   45.3800   30.6460   48.1170 C   0  0  0  0  0  0  0  0  0  0  0  0
   45.1690   31.9310   48.3780 N   0  0  0  0  0  0  0  0  0  0  0  0
   45.1200   29.6430   49.0860 N   0  0  0  0  0  0  0  0  0  0  0  0
   45.2340   33.9450   47.7570 H   0  0  0  0  0  0  0  0  0  0  0  0
   45.8280   28.9180   49.3980 H   0  0  0  0  0  0  0  0  0  0  0  0
   44.1760   29.6030   49.5280 H   0  0  0  0  0  0  0  0  0  0  0  0
   46.1570   33.5940   45.1820 C   0  0  2  0  0  0  0  0  0  0  0  0
   44.9680   34.7060   45.4370 C   0  0  0  0  0  0  0  0  0  0  0  0
   44.7230   35.6330   44.3670 C   0  0  0  0  0  0  0  0  0  0  0  0
   45.4920   35.5440   43.1240 C   0  0  1  0  0  0  0  0  0  0  0  0
   46.5360   34.5270   43.0550 C   0  0  0  0  0  0  0  0  0  0  0  0
   46.0880   33.3030   43.8190 C   0  0  0  0  0  0  0  0  0  0  0  0
   46.9880   34.3000   45.4870 H   0  0  0  0  0  0  0  0  0  0  0  0
   44.3180   34.8680   46.2880 H   0  0  0  0  0  0  0  0  0  0  0  0
   43.9670   36.3640   44.4970 H   0  0  0  0  0  0  0  0  0  0  0  0
   45.9390   36.5390   42.9000 H   0  0  0  0  0  0  0  0  0  0  0  0
   46.8060   34.3280   41.9990 H   0  0  0  0  0  0  0  0  0  0  0  0
   47.4710   34.9040   43.5510 H   0  0  0  0  0  0  0  0  0  0  0  0
   46.9200   32.6370   43.4720 H   0  0  0  0  0  0  0  0  0  0  0  0
   45.1180   32.9990   43.3730 H   0  0  0  0  0  0  0  0  0  0  0  0
   44.4450   35.2850   41.9990 C   0  0  0  0  0  0  0  0  0  0  0  0
   43.3910   34.4950   42.4240 F   0  0  0  0  0  0  0  0  0  0  0  0
   43.9030   36.5280   41.6800 F   0  0  0  0  0  0  0  0  0  0  0  0
   45.0870   34.8230   40.8680 F   0  0  0  0  0  0  0  0  0  0  0  0
   46.7150   30.5810   44.8440 C   0  0  0  0  0  0  0  0  0  0  0  0
   46.3090   29.8020   43.8100 C   0  0  0  0  0  0  0  0  0  0  0  0
   47.4460   29.4000   43.0920 C   0  0  0  0  0  0  0  0  0  0  0  0
   48.4790   29.9530   43.7270 N   0  0  0  0  0  0  0  0  0  0  0  0
   48.0760   30.6540   44.7610 N   0  0  0  0  0  0  0  0  0  0  0  0
   45.2470   29.6270   43.7090 H   0  0  0  0  0  0  0  0  0  0  0  0
   47.3440   28.7680   42.2220 H   0  0  0  0  0  0  0  0  0  0  0  0
   49.8380   29.7690   43.2840 C   0  0  0  0  0  0  0  0  0  0  0  0
   50.6210   30.8350   42.8350 C   0  0  0  0  0  3  0  0  0  0  0  0
   51.8270   30.2570   42.5110 C   0  0  0  0  0  0  0  0  0  0  0  0
   52.6330   30.8690   42.1290 H   0  0  0  0  0  0  0  0  0  0  0  0
   51.7620   28.9170   42.7560 N   0  0  0  0  0  0  0  0  0  0  0  0
   50.5410   28.6240   43.2300 N   0  0  0  0  0  0  0  0  0  0  0  0
   52.5890   28.3060   42.5690 H   0  0  0  0  0  0  0  0  0  0  0  0
  1  8  1  0  0  0  0
  1  6  1  0  0  0  0
  2  1  2  0  0  0  0
  3  2  1  0  0  0  0
  3  4  2  0  0  0  0
  4  5  1  0  0  0  0
  5  6  2  0  0  0  0
  5  7  1  0  0  0  0
  7  9  1  0  0  0  0
  7 10  1  0  0  0  0
 11 12  1  0  0  0  0
 11 17  1  1  0  0  0
 11  2  1  0  0  0  0
 12 18  1  0  0  0  0
 13 19  1  0  0  0  0
 13 12  2  0  0  0  0
 14 20  1  6  0  0  0
 14 13  1  0  0  0  0
 15 14  1  0  0  0  0
 15 22  1  0  0  0  0
 15 16  1  0  0  0  0
 16 11  1  0  0  0  0
 21 15  1  0  0  0  0
 23 16  1  0  0  0  0
 24 16  1  0  0  0  0
 25 26  1  0  0  0  0
 25 14  1  0  0  0  0
 27 25  1  0  0  0  0
 28 25  1  0  0  0  0
 29  3  1  0  0  0  0
 30 29  1  0  0  0  0
 31 32  1  0  0  0  0
 31 30  2  0  0  0  0
 32 33  1  0  0  0  0
 33 29  2  0  0  0  0
 34 30  1  0  0  0  0
 35 31  1  0  0  0  0
 36 32  1  0  0  0  0
 37 36  1  0  0  0  0
 38 40  1  0  0  0  0
 38 37  2  0  0  0  0
 39 38  1  0  0  0  0
 40 41  1  0  0  0  0
 41 36  2  0  0  0  0
 42 40  1  0  0  0  0
M  END
>  <minimizedAffinity>
-6.01969242

>  <minimizedRMSD>
0.193083584

$$$$
