
 OpenBabel03232521003D

 42 45  0  0  1  0  0  0  0  0999 V2000
   45.5340   32.9030   47.4470 C   0  0  0  0  0  0  0  0  0  0  0  0
   45.9690   32.6440   46.1850 C   0  0  0  0  0  0  0  0  0  0  0  0
   46.1330   31.2880   45.8920 C   0  0  0  0  0  0  0  0  0  0  0  0
   45.8840   30.2890   46.7760 N   0  0  0  0  0  0  0  0  0  0  0  0
   45.4420   30.6060   48.0510 C   0  0  0  0  0  0  0  0  0  0  0  0
   45.2800   31.8900   48.3530 N   0  0  0  0  0  0  0  0  0  0  0  0
   45.1920   29.5860   49.0040 N   0  0  0  0  0  0  0  0  0  0  0  0
   45.3790   33.9160   47.7800 H   0  0  0  0  0  0  0  0  0  0  0  0
   45.8910   28.8330   49.2680 H   0  0  0  0  0  0  0  0  0  0  0  0
   44.2660   29.5620   49.4840 H   0  0  0  0  0  0  0  0  0  0  0  0
   46.1850   33.6070   45.1610 C   0  0  2  0  0  0  0  0  0  0  0  0
   44.9680   34.6870   45.4240 C   0  0  0  0  0  0  0  0  0  0  0  0
   44.7090   35.6240   44.3650 C   0  0  0  0  0  0  0  0  0  0  0  0
   45.4890   35.5710   43.1260 C   0  0  1  0  0  0  0  0  0  0  0  0
   46.5570   34.5800   43.0510 C   0  0  0  0  0  0  0  0  0  0  0  0
   46.1320   33.3350   43.7940 C   0  0  0  0  0  0  0  0  0  0  0  0
   46.9970   34.3280   45.4830 H   0  0  0  0  0  0  0  0  0  0  0  0
   44.3080   34.8210   46.2710 H   0  0  0  0  0  0  0  0  0  0  0  0
   43.9350   36.3350   44.5000 H   0  0  0  0  0  0  0  0  0  0  0  0
   45.9130   36.5790   42.9200 H   0  0  0  0  0  0  0  0  0  0  0  0
   46.8380   34.4020   41.9940 H   0  0  0  0  0  0  0  0  0  0  0  0
   47.4790   34.9720   43.5580 H   0  0  0  0  0  0  0  0  0  0  0  0
   46.9820   32.6930   43.4430 H   0  0  0  0  0  0  0  0  0  0  0  0
   45.1720   33.0140   43.3360 H   0  0  0  0  0  0  0  0  0  0  0  0
   44.4560   35.3030   41.9900 C   0  0  0  0  0  0  0  0  0  0  0  0
   43.3990   34.5130   42.4060 F   0  0  0  0  0  0  0  0  0  0  0  0
   43.9150   36.5430   41.6580 F   0  0  0  0  0  0  0  0  0  0  0  0
   45.1120   34.8380   40.8690 F   0  0  0  0  0  0  0  0  0  0  0  0
   46.6380   30.5890   44.7250 C   0  0  0  0  0  0  0  0  0  0  0  0
   46.1610   29.9340   43.6360 C   0  0  0  0  0  0  0  0  0  0  0  0
   47.2560   29.4490   42.9030 C   0  0  0  0  0  0  0  0  0  0  0  0
   48.3360   29.8330   43.5830 N   0  0  0  0  0  0  0  0  0  0  0  0
   48.0000   30.5060   44.6590 N   0  0  0  0  0  0  0  0  0  0  0  0
   45.0890   29.8940   43.5130 H   0  0  0  0  0  0  0  0  0  0  0  0
   47.0950   28.8930   41.9910 H   0  0  0  0  0  0  0  0  0  0  0  0
   49.6710   29.5190   43.1420 C   0  0  0  0  0  0  0  0  0  0  0  0
   50.7890   30.2180   43.6050 C   0  0  0  0  0  3  0  0  0  0  0  0
   51.8510   29.6290   42.9610 C   0  0  0  0  0  0  0  0  0  0  0  0
   52.8540   29.9840   43.1400 H   0  0  0  0  0  0  0  0  0  0  0  0
   51.3870   28.6300   42.1540 N   0  0  0  0  0  0  0  0  0  0  0  0
   50.0510   28.5680   42.2700 N   0  0  0  0  0  0  0  0  0  0  0  0
   52.0510   28.0650   41.5800 H   0  0  0  0  0  0  0  0  0  0  0  0
  1  8  1  0  0  0  0
  1  6  1  0  0  0  0
  2  1  2  0  0  0  0
  3  2  1  0  0  0  0
  3  4  2  0  0  0  0
  4  5  1  0  0  0  0
  5  6  2  0  0  0  0
  5  7  1  0  0  0  0
  7  9  1  0  0  0  0
  7 10  1  0  0  0  0
 11 12  1  0  0  0  0
 11 17  1  1  0  0  0
 11  2  1  0  0  0  0
 12 18  1  0  0  0  0
 13 19  1  0  0  0  0
 13 12  2  0  0  0  0
 14 20  1  6  0  0  0
 14 13  1  0  0  0  0
 15 14  1  0  0  0  0
 15 22  1  0  0  0  0
 15 16  1  0  0  0  0
 16 11  1  0  0  0  0
 21 15  1  0  0  0  0
 23 16  1  0  0  0  0
 24 16  1  0  0  0  0
 25 26  1  0  0  0  0
 25 14  1  0  0  0  0
 27 25  1  0  0  0  0
 28 25  1  0  0  0  0
 29  3  1  0  0  0  0
 30 29  1  0  0  0  0
 31 32  1  0  0  0  0
 31 30  2  0  0  0  0
 32 33  1  0  0  0  0
 33 29  2  0  0  0  0
 34 30  1  0  0  0  0
 35 31  1  0  0  0  0
 36 32  1  0  0  0  0
 36 37  1  0  0  0  0
 38 39  1  0  0  0  0
 38 37  2  0  0  0  0
 40 41  1  0  0  0  0
 40 38  1  0  0  0  0
 41 36  2  0  0  0  0
 42 40  1  0  0  0  0
M  END
>  <minimizedAffinity>
-5.86532736

>  <minimizedRMSD>
0.278776199

$$$$
