
 OpenBabel03232519333D

 42 44  0  0  1  0  0  0  0  0999 V2000
   46.8080   34.3600   40.4170 C   0  0  1  0  0  0  0  0  0  0  0  0
   48.0410   33.9790   39.5770 C   0  0  0  0  0  0  0  0  0  0  0  0
   47.4880   33.6720   38.1880 C   0  0  0  0  0  0  0  0  0  0  0  0
   46.6870   32.4050   38.2520 C   0  0  0  0  0  0  0  0  0  0  0  0
   46.4010   32.0350   39.6720 C   0  0  0  0  0  0  0  0  0  0  0  0
   45.8760   33.2510   40.4800 C   0  0  2  0  0  0  0  0  0  0  0  0
   46.5110   35.3200   40.0060 H   0  0  0  0  0  0  0  0  0  0  0  0
   48.5830   33.1320   39.9870 H   0  0  0  0  0  0  0  0  0  0  0  0
   48.6950   34.8840   39.5050 H   0  0  0  0  0  0  0  0  0  0  0  0
   46.9840   34.5340   37.7570 H   0  0  0  0  0  0  0  0  0  0  0  0
   48.4160   33.5370   37.5590 H   0  0  0  0  0  0  0  0  0  0  0  0
   45.7910   32.3960   37.5980 H   0  0  0  0  0  0  0  0  0  0  0  0
   47.3250   31.5870   37.8530 H   0  0  0  0  0  0  0  0  0  0  0  0
   45.5540   31.3030   39.6510 H   0  0  0  0  0  0  0  0  0  0  0  0
   47.2800   31.5750   40.1430 H   0  0  0  0  0  0  0  0  0  0  0  0
   45.8180   32.6580   41.4220 H   0  0  0  0  0  0  0  0  0  0  0  0
   47.2840   34.7510   41.8400 C   0  0  0  0  0  0  0  0  0  0  0  0
   47.0880   35.7970   42.0680 H   0  0  0  0  0  0  0  0  0  0  0  0
   48.4220   34.7070   41.7390 H   0  0  0  0  0  0  0  0  0  0  0  0
   46.7660   33.7150   42.7430 C   0  0  0  0  0  0  0  0  0  0  0  0
   47.6290   33.1140   43.1310 H   0  0  0  0  0  0  0  0  0  0  0  0
   45.9350   33.0580   42.3850 H   0  0  0  0  0  0  0  0  0  0  0  0
   46.0110   33.5770   45.0290 C   0  0  0  0  0  0  0  0  0  0  0  0
   46.0120   34.2950   43.8310 C   0  0  0  0  0  0  0  0  0  0  0  0
   45.3020   35.4330   43.6860 C   0  0  0  0  0  0  0  0  0  0  0  0
   44.5750   35.8640   44.7470 N   0  0  0  0  0  0  0  0  0  0  0  0
   44.5490   35.1970   45.9160 C   0  0  0  0  0  0  0  0  0  0  0  0
   45.2670   34.0470   46.0650 N   0  0  0  0  0  0  0  0  0  0  0  0
   46.5820   32.6650   45.1460 H   0  0  0  0  0  0  0  0  0  0  0  0
   45.2170   36.0660   42.8260 H   0  0  0  0  0  0  0  0  0  0  0  0
   43.9510   35.5800   46.7410 H   0  0  0  0  0  0  0  0  0  0  0  0
   44.5730   33.5540   39.8260 C   0  0  0  0  0  0  0  0  0  0  0  0
   44.5740   33.7410   38.7560 H   0  0  0  0  0  0  0  0  0  0  0  0
   43.9210   32.6500   39.9790 H   0  0  0  0  0  0  0  0  0  0  0  0
   43.8490   34.7020   40.5220 C   0  0  0  0  0  0  0  0  0  0  0  0
   44.2960   35.6810   40.1670 H   0  0  0  0  0  0  0  0  0  0  0  0
   43.6620   34.6110   41.5620 H   0  0  0  0  0  0  0  0  0  0  0  0
   42.4860   34.7820   39.8370 C   0  0  0  0  0  0  0  0  0  0  0  0
   42.2550   35.2840   38.5440 C   0  0  0  0  0  0  0  0  0  0  0  0
   40.9610   35.2560   38.1430 C   0  0  0  0  0  0  0  0  0  0  0  0
   39.9870   34.7630   38.9790 C   0  0  0  0  0  0  0  0  0  0  0  0
   41.0330   34.2950   40.4850 S   0  0  0  0  0  0  0  0  0  0  0  0
  1  7  1  6  0  0  0
  1  6  1  0  0  0  0
  1 17  1  0  0  0  0
  2  8  1  0  0  0  0
  2  1  1  0  0  0  0
  3  4  1  0  0  0  0
  3  2  1  0  0  0  0
  4  5  1  0  0  0  0
  5 15  1  0  0  0  0
  5  6  1  0  0  0  0
  6 16  1  1  0  0  0
  9  2  1  0  0  0  0
 10  3  1  0  0  0  0
 11  3  1  0  0  0  0
 12  4  1  0  0  0  0
 13  4  1  0  0  0  0
 14  5  1  0  0  0  0
 17 18  1  0  0  0  0
 17 20  1  0  0  0  0
 19 17  1  0  0  0  0
 20 21  1  0  0  0  0
 20 24  1  0  0  0  0
 22 20  1  0  0  0  0
 23 29  1  0  0  0  0
 23 28  1  0  0  0  0
 24 23  2  0  0  0  0
 25 24  1  0  0  0  0
 25 26  2  0  0  0  0
 26 27  1  0  0  0  0
 27 28  2  0  0  0  0
 27 31  1  0  0  0  0
 30 25  1  0  0  0  0
 32 34  1  0  0  0  0
 32  6  1  0  0  0  0
 32 35  1  0  0  0  0
 33 32  1  0  0  0  0
 35 37  1  0  0  0  0
 36 35  1  0  0  0  0
 38 42  1  0  0  0  0
 38 35  1  0  0  0  0
 39 38  2  0  0  0  0
 40 39  1  0  0  0  0
 40 41  2  0  0  0  0
 41 42  1  0  0  0  0
M  END
>  <minimizedAffinity>
-5.02971554

>  <minimizedRMSD>
2.01023793

$$$$
