
 OpenBabel03232520153D

 30 32  0  0  0  0  0  0  0  0999 V2000
   47.4290   34.0010   42.4200 C   0  0  0  0  0  0  0  0  0  0  0  0
   48.1600   35.1660   41.8000 C   0  0  0  0  0  0  0  0  0  0  0  0
   49.5470   35.3760   42.2610 C   0  0  0  0  0  0  0  0  0  0  0  0
   50.3500   34.1190   42.4360 C   0  0  0  0  0  0  0  0  0  0  0  0
   49.5550   32.8630   42.1970 C   0  0  0  0  0  0  0  0  0  0  0  0
   48.2930   32.9750   43.0430 C   0  0  0  0  0  0  0  0  0  0  0  0
   47.5710   36.0990   42.0200 H   0  0  0  0  0  0  0  0  0  0  0  0
   48.1690   35.1320   40.6790 H   0  0  0  0  0  0  0  0  0  0  0  0
   50.0780   35.9970   41.5100 H   0  0  0  0  0  0  0  0  0  0  0  0
   49.5300   36.0250   43.1830 H   0  0  0  0  0  0  0  0  0  0  0  0
   50.6330   34.0900   43.5290 H   0  0  0  0  0  0  0  0  0  0  0  0
   51.3210   34.1490   41.9080 H   0  0  0  0  0  0  0  0  0  0  0  0
   50.1780   32.0110   42.5380 H   0  0  0  0  0  0  0  0  0  0  0  0
   49.3500   32.8260   41.1150 H   0  0  0  0  0  0  0  0  0  0  0  0
   48.6300   33.3560   44.0380 H   0  0  0  0  0  0  0  0  0  0  0  0
   47.7730   32.0170   43.1350 H   0  0  0  0  0  0  0  0  0  0  0  0
   45.3650   34.2580   45.4870 C   0  0  0  0  0  0  0  0  0  0  0  0
   44.5790   35.4040   45.2300 C   0  0  0  0  0  0  0  0  0  0  0  0
   44.7680   36.0650   44.0200 C   0  0  0  0  0  0  0  0  0  0  0  0
   45.6950   35.5760   43.1530 N   0  0  0  0  0  0  0  0  0  0  0  0
   46.4330   34.4800   43.4220 C   0  0  0  0  0  0  0  0  0  0  0  0
   46.2580   33.8260   44.5990 N   0  0  0  0  0  0  0  0  0  0  0  0
   45.2420   33.7280   46.4100 H   0  0  0  0  0  0  0  0  0  0  0  0
   43.8600   35.7680   45.9200 H   0  0  0  0  0  0  0  0  0  0  0  0
   44.2190   36.9460   43.7280 H   0  0  0  0  0  0  0  0  0  0  0  0
   46.6020   33.4580   41.3280 N   0  0  0  0  0  0  0  0  0  0  0  0
   45.6990   32.4700   41.3850 C   0  0  0  0  0  0  0  0  0  0  0  0
   45.1290   32.2470   40.1500 C   0  0  0  0  0  0  0  0  0  0  0  0
   45.7070   33.1280   39.3310 N   0  0  0  0  0  0  0  0  0  0  0  0
   46.5910   33.8560   40.0330 C   0  0  0  0  0  0  0  0  0  0  0  0
  1  6  1  0  0  0  0
  1 21  1  0  0  0  0
  2  7  1  0  0  0  0
  2  3  1  0  0  0  0
  2  1  1  0  0  0  0
  3  4  1  0  0  0  0
  3 10  1  0  0  0  0
  4 11  1  0  0  0  0
  5  4  1  0  0  0  0
  5 13  1  0  0  0  0
  5  6  1  0  0  0  0
  6 16  1  0  0  0  0
  6 15  1  0  0  0  0
  8  2  1  0  0  0  0
  9  3  1  0  0  0  0
 12  4  1  0  0  0  0
 14  5  1  0  0  0  0
 17 23  1  0  0  0  0
 18 17  1  0  0  0  0
 18 24  1  0  0  0  0
 19 18  2  0  0  0  0
 20 21  2  0  0  0  0
 20 19  1  0  0  0  0
 21 22  1  0  0  0  0
 22 17  2  0  0  0  0
 25 19  1  0  0  0  0
 26 27  1  0  0  0  0
 26  1  1  0  0  0  0
 28 27  2  0  0  0  0
 29 30  2  0  0  0  0
 29 28  1  0  0  0  0
 30 26  1  0  0  0  0
M  END
>  <minimizedAffinity>
-5.16820097

>  <minimizedRMSD>
0.416728765

$$$$
