
 OpenBabel03232521013D

 42 45  0  0  1  0  0  0  0  0999 V2000
   45.5710   32.8430   47.5220 C   0  0  0  0  0  0  0  0  0  0  0  0
   45.9750   32.5980   46.2480 C   0  0  0  0  0  0  0  0  0  0  0  0
   46.0860   31.2400   45.9260 C   0  0  0  0  0  0  0  0  0  0  0  0
   45.8160   30.2340   46.7950 N   0  0  0  0  0  0  0  0  0  0  0  0
   45.4050   30.5370   48.0850 C   0  0  0  0  0  0  0  0  0  0  0  0
   45.2940   31.8200   48.4140 N   0  0  0  0  0  0  0  0  0  0  0  0
   45.1250   29.5090   49.0140 N   0  0  0  0  0  0  0  0  0  0  0  0
   45.4570   33.8560   47.8790 H   0  0  0  0  0  0  0  0  0  0  0  0
   44.8480   28.5290   48.7330 H   0  0  0  0  0  0  0  0  0  0  0  0
   45.1880   29.7090   50.0280 H   0  0  0  0  0  0  0  0  0  0  0  0
   46.2070   33.5730   45.2380 C   0  0  2  0  0  0  0  0  0  0  0  0
   44.9750   34.6390   45.4870 C   0  0  0  0  0  0  0  0  0  0  0  0
   44.7280   35.5820   44.4350 C   0  0  0  0  0  0  0  0  0  0  0  0
   45.5330   35.5490   43.2090 C   0  0  1  0  0  0  0  0  0  0  0  0
   46.6100   34.5640   43.1430 C   0  0  0  0  0  0  0  0  0  0  0  0
   46.1810   33.3110   43.8700 C   0  0  0  0  0  0  0  0  0  0  0  0
   47.0040   34.2990   45.5820 H   0  0  0  0  0  0  0  0  0  0  0  0
   44.2950   34.7610   46.3210 H   0  0  0  0  0  0  0  0  0  0  0  0
   43.9480   36.2870   44.5540 H   0  0  0  0  0  0  0  0  0  0  0  0
   45.9450   36.5670   43.0300 H   0  0  0  0  0  0  0  0  0  0  0  0
   47.6100   34.8970   43.5220 H   0  0  0  0  0  0  0  0  0  0  0  0
   46.8010   34.3510   42.0500 H   0  0  0  0  0  0  0  0  0  0  0  0
   45.2360   32.9450   43.4150 H   0  0  0  0  0  0  0  0  0  0  0  0
   47.0500   32.6840   43.5330 H   0  0  0  0  0  0  0  0  0  0  0  0
   44.5270   35.2850   42.0490 C   0  0  0  0  0  0  0  0  0  0  0  0
   43.4660   34.4850   42.4370 F   0  0  0  0  0  0  0  0  0  0  0  0
   43.9840   36.5210   41.7140 F   0  0  0  0  0  0  0  0  0  0  0  0
   45.2080   34.8250   40.9360 F   0  0  0  0  0  0  0  0  0  0  0  0
   46.5440   30.5490   44.7350 C   0  0  0  0  0  0  0  0  0  0  0  0
   46.0290   29.9960   43.6080 C   0  0  0  0  0  0  0  0  0  0  0  0
   47.0820   29.4330   42.8740 C   0  0  0  0  0  0  0  0  0  0  0  0
   48.1800   29.6750   43.5900 N   0  0  0  0  0  0  0  0  0  0  0  0
   47.8900   30.3300   44.6890 N   0  0  0  0  0  0  0  0  0  0  0  0
   44.9650   30.0690   43.4630 H   0  0  0  0  0  0  0  0  0  0  0  0
   46.8920   28.9390   41.9410 H   0  0  0  0  0  0  0  0  0  0  0  0
   52.0170   31.8660   43.7470 H   0  0  0  0  0  0  0  0  0  0  0  0
   51.8160   31.1550   43.0130 N   0  0  0  0  0  0  0  0  0  0  0  0
   51.8620   29.8420   43.6590 C   0  0  0  0  0  2  0  0  0  0  0  0
   50.5110   29.5610   44.2560 C   0  0  0  0  0  2  0  0  0  0  0  0
   49.5140   29.2370   43.1510 C   0  0  0  0  0  3  0  0  0  0  0  0
   49.9130   30.0880   41.9670 C   0  0  0  0  0  2  0  0  0  0  0  0
   50.5220   31.4020   42.4350 C   0  0  0  0  0  2  0  0  0  0  0  0
  1  8  1  0  0  0  0
  1  6  1  0  0  0  0
  2  1  2  0  0  0  0
  3  2  1  0  0  0  0
  3  4  2  0  0  0  0
  4  5  1  0  0  0  0
  5  6  2  0  0  0  0
  5  7  1  0  0  0  0
  7 10  1  0  0  0  0
  9  7  1  0  0  0  0
 11 12  1  0  0  0  0
 11 17  1  1  0  0  0
 11  2  1  0  0  0  0
 12 18  1  0  0  0  0
 13 19  1  0  0  0  0
 13 12  2  0  0  0  0
 14 20  1  6  0  0  0
 14 13  1  0  0  0  0
 15 14  1  0  0  0  0
 15 21  1  0  0  0  0
 15 16  1  0  0  0  0
 16 11  1  0  0  0  0
 22 15  1  0  0  0  0
 23 16  1  0  0  0  0
 24 16  1  0  0  0  0
 25 26  1  0  0  0  0
 25 14  1  0  0  0  0
 27 25  1  0  0  0  0
 28 25  1  0  0  0  0
 29  3  1  0  0  0  0
 30 29  1  0  0  0  0
 31 32  1  0  0  0  0
 31 30  2  0  0  0  0
 32 33  1  0  0  0  0
 33 29  2  0  0  0  0
 34 30  1  0  0  0  0
 35 31  1  0  0  0  0
 37 38  1  0  0  0  0
 37 36  1  0  0  0  0
 38 39  1  0  0  0  0
 40 32  1  0  0  0  0
 40 39  1  0  0  0  0
 41 42  1  0  0  0  0
 41 40  1  0  0  0  0
 42 37  1  0  0  0  0
M  END
>  <minimizedAffinity>
-6.02459192

>  <minimizedRMSD>
0.369983107

$$$$
