
 OpenBabel03232519553D

 26 28  0  0  0  0  0  0  0  0999 V2000
   45.1170   33.9020   41.5700 N   0  0  0  0  0  0  0  0  0  0  0  0
   46.1660   33.4840   40.8730 C   0  0  0  0  0  0  0  0  0  0  0  0
   45.7580   33.2340   39.5530 C   0  0  0  0  0  0  0  0  0  0  0  0
   44.4520   33.5130   39.4870 N   0  0  0  0  0  0  0  0  0  0  0  0
   44.0520   33.9220   40.7150 C   0  0  0  0  0  0  0  0  0  0  0  0
   46.3810   32.8780   38.7240 H   0  0  0  0  0  0  0  0  0  0  0  0
   43.0190   34.1990   40.8800 H   0  0  0  0  0  0  0  0  0  0  0  0
   47.5110   33.2850   41.2650 N   0  0  0  0  0  0  0  0  0  0  0  0
   47.9770   32.0980   41.7530 C   0  0  0  0  0  0  0  0  0  0  0  0
   49.2650   31.8610   42.1490 C   0  0  0  0  0  0  0  0  0  0  0  0
   49.6900   30.5390   42.6690 C   0  0  0  0  0  0  0  0  0  0  0  0
   50.1850   32.8860   42.0580 C   0  0  0  0  0  0  0  0  0  0  0  0
   51.3760   32.7470   42.3990 O   0  0  0  0  0  0  0  0  0  0  0  0
   49.7430   34.0640   41.5790 N   0  0  0  0  0  0  0  0  0  0  0  0
   48.4670   34.2590   41.1990 C   0  0  0  0  0  0  0  0  0  0  0  0
   48.1170   35.3780   40.7610 O   0  0  0  0  0  0  0  0  0  0  0  0
   50.3970   34.8810   41.4860 H   0  0  0  0  0  0  0  0  0  0  0  0
   44.5850   35.6000   43.1680 C   0  0  0  0  0  0  0  0  0  0  0  0
   45.0390   34.2670   42.9120 C   0  0  0  0  0  0  0  0  0  0  0  0
   45.3630   33.4440   44.0040 C   0  0  0  0  0  0  0  0  0  0  0  0
   45.2300   33.9580   45.2660 N   0  0  0  0  0  0  0  0  0  0  0  0
   44.7930   35.2350   45.4610 C   0  0  0  0  0  0  0  0  0  0  0  0
   44.4700   36.0550   44.4230 N   0  0  0  0  0  0  0  0  0  0  0  0
   44.3240   36.2690   42.3880 H   0  0  0  0  0  0  0  0  0  0  0  0
   45.6940   32.4650   43.8200 H   0  0  0  0  0  0  0  0  0  0  0  0
   44.7400   35.4960   46.5130 H   0  0  0  0  0  0  0  0  0  0  0  0
  1 19  1  0  0  0  0
  2  8  1  0  0  0  0
  2  1  1  0  0  0  0
  3  2  2  0  0  0  0
  4  3  1  0  0  0  0
  4  5  2  0  0  0  0
  5  7  1  0  0  0  0
  5  1  1  0  0  0  0
  6  3  1  0  0  0  0
  8  9  1  0  0  0  0
  9 10  2  0  0  0  0
 10 11  1  0  0  0  0
 12 10  1  0  0  0  0
 12 13  2  0  0  0  0
 14 12  1  0  0  0  0
 15  8  1  0  0  0  0
 15 14  1  0  0  0  0
 16 15  2  0  0  0  0
 17 14  1  0  0  0  0
 18 23  1  0  0  0  0
 19 18  2  0  0  0  0
 19 20  1  0  0  0  0
 20 21  2  0  0  0  0
 21 22  1  0  0  0  0
 22 26  1  0  0  0  0
 23 22  2  0  0  0  0
 24 18  1  0  0  0  0
 25 20  1  0  0  0  0
M  END
>  <minimizedAffinity>
-4.78396702

>  <minimizedRMSD>
2.99608517

$$$$
