
 OpenBabel03232519253D

 22 23  0  0  0  0  0  0  0  0999 V2000
   46.5710   34.8200   41.6940 C   0  0  0  0  0  0  0  0  0  0  0  0
   46.5540   33.8060   41.2610 H   0  0  0  0  0  0  0  0  0  0  0  0
   46.0680   35.4900   40.9760 H   0  0  0  0  0  0  0  0  0  0  0  0
   45.1520   36.0730   43.2960 C   0  0  0  0  0  0  0  0  0  0  0  0
   45.9380   34.9430   42.9950 C   0  0  0  0  0  0  0  0  0  0  0  0
   46.0630   33.9800   44.0050 C   0  0  0  0  0  0  0  0  0  0  0  0
   45.4320   34.1890   45.1880 N   0  0  0  0  0  0  0  0  0  0  0  0
   44.6940   35.2800   45.4290 C   0  0  0  0  0  0  0  0  0  0  0  0
   44.5560   36.2170   44.4850 N   0  0  0  0  0  0  0  0  0  0  0  0
   45.0290   36.8510   42.5320 H   0  0  0  0  0  0  0  0  0  0  0  0
   46.6500   33.1000   43.8330 H   0  0  0  0  0  0  0  0  0  0  0  0
   44.1740   35.4900   46.3530 H   0  0  0  0  0  0  0  0  0  0  0  0
   47.9940   35.3310   41.8010 C   0  0  0  0  0  0  0  0  0  0  0  0
   48.1120   35.7150   42.8510 H   0  0  0  0  0  0  0  0  0  0  0  0
   48.1520   36.1790   41.1320 H   0  0  0  0  0  0  0  0  0  0  0  0
   48.9890   34.2420   41.6760 C   0  0  0  0  0  0  0  0  0  0  0  0
   50.1300   34.1930   42.4490 C   0  0  0  0  0  0  0  0  0  0  0  0
   51.0480   33.1550   42.3090 C   0  0  0  0  0  0  0  0  0  0  0  0
   50.7810   32.1950   41.3870 N   0  0  0  0  0  0  0  0  0  0  0  0
   49.6670   32.2390   40.6300 C   0  0  0  0  0  0  0  0  0  0  0  0
   49.3960   31.5080   39.8800 H   0  0  0  0  0  0  0  0  0  0  0  0
   48.7770   33.2460   40.7660 N   0  0  0  0  0  0  0  0  0  0  0  0
  1 13  1  0  0  0  0
  1  5  1  0  0  0  0
  2  1  1  0  0  0  0
  3  1  1  0  0  0  0
  4  9  1  0  0  0  0
  5  4  2  0  0  0  0
  5  6  1  0  0  0  0
  6  7  2  0  0  0  0
  7  8  1  0  0  0  0
  8 12  1  0  0  0  0
  9  8  2  0  0  0  0
 10  4  1  0  0  0  0
 11  6  1  0  0  0  0
 13 14  1  0  0  0  0
 15 13  1  0  0  0  0
 16 13  1  0  0  0  0
 16 17  1  0  0  0  0
 18 17  2  0  0  0  0
 19 18  1  0  0  0  0
 20 22  1  0  0  0  0
 20 19  2  0  0  0  0
 21 20  1  0  0  0  0
 22 16  2  0  0  0  0
M  END
>  <minimizedAffinity>
-4.60204744

>  <minimizedRMSD>
2.71766663

$$$$
