
 OpenBabel03232521013D

 42 45  0  0  1  0  0  0  0  0999 V2000
   45.3870   32.8580   47.4950 C   0  0  0  0  0  0  0  0  0  0  0  0
   45.9340   32.6190   46.2740 C   0  0  0  0  0  0  0  0  0  0  0  0
   46.1970   31.2690   46.0110 C   0  0  0  0  0  0  0  0  0  0  0  0
   45.9320   30.2640   46.8840 N   0  0  0  0  0  0  0  0  0  0  0  0
   45.3710   30.5610   48.1180 C   0  0  0  0  0  0  0  0  0  0  0  0
   45.1150   31.8360   48.3900 N   0  0  0  0  0  0  0  0  0  0  0  0
   45.0920   29.5350   49.0500 N   0  0  0  0  0  0  0  0  0  0  0  0
   45.1490   33.8640   47.8040 H   0  0  0  0  0  0  0  0  0  0  0  0
   44.9330   28.5280   48.7760 H   0  0  0  0  0  0  0  0  0  0  0  0
   45.0370   29.7660   50.0570 H   0  0  0  0  0  0  0  0  0  0  0  0
   46.1780   33.5850   45.2590 C   0  0  2  0  0  0  0  0  0  0  0  0
   44.9580   34.6660   45.5010 C   0  0  0  0  0  0  0  0  0  0  0  0
   44.7220   35.6060   44.4430 C   0  0  0  0  0  0  0  0  0  0  0  0
   45.5270   35.5560   43.2180 C   0  0  1  0  0  0  0  0  0  0  0  0
   46.5930   34.5590   43.1580 C   0  0  0  0  0  0  0  0  0  0  0  0
   46.1500   33.3150   43.8920 C   0  0  0  0  0  0  0  0  0  0  0  0
   46.9830   34.3040   45.5990 H   0  0  0  0  0  0  0  0  0  0  0  0
   44.2790   34.8000   46.3340 H   0  0  0  0  0  0  0  0  0  0  0  0
   43.9490   36.3190   44.5580 H   0  0  0  0  0  0  0  0  0  0  0  0
   45.9510   36.5680   43.0330 H   0  0  0  0  0  0  0  0  0  0  0  0
   47.5970   34.8830   43.5360 H   0  0  0  0  0  0  0  0  0  0  0  0
   46.7830   34.3370   42.0660 H   0  0  0  0  0  0  0  0  0  0  0  0
   45.2010   32.9560   43.4390 H   0  0  0  0  0  0  0  0  0  0  0  0
   47.0120   32.6760   43.5600 H   0  0  0  0  0  0  0  0  0  0  0  0
   44.5200   35.2960   42.0590 C   0  0  0  0  0  0  0  0  0  0  0  0
   43.4500   34.5090   42.4500 F   0  0  0  0  0  0  0  0  0  0  0  0
   43.9890   36.5360   41.7180 F   0  0  0  0  0  0  0  0  0  0  0  0
   45.1960   34.8240   40.9480 F   0  0  0  0  0  0  0  0  0  0  0  0
   46.8290   30.5930   44.8940 C   0  0  0  0  0  0  0  0  0  0  0  0
   46.4800   29.8520   43.8120 C   0  0  0  0  0  0  0  0  0  0  0  0
   47.6520   29.4640   43.1480 C   0  0  0  0  0  0  0  0  0  0  0  0
   48.6500   29.9890   43.8580 N   0  0  0  0  0  0  0  0  0  0  0  0
   48.1920   30.6580   44.8900 N   0  0  0  0  0  0  0  0  0  0  0  0
   45.4300   29.6870   43.6430 H   0  0  0  0  0  0  0  0  0  0  0  0
   47.6010   28.8650   42.2600 H   0  0  0  0  0  0  0  0  0  0  0  0
   50.8850   26.2320   43.1870 H   0  0  0  0  0  0  0  0  0  0  0  0
   51.3480   27.0980   43.5360 N   0  0  0  0  0  0  0  0  0  0  0  0
   51.4200   28.0320   42.4120 C   0  0  0  0  0  2  0  0  0  0  0  0
   50.1250   28.7930   42.3460 C   0  0  0  0  0  2  0  0  0  0  0  0
   50.0610   29.8060   43.4820 C   0  0  0  0  0  3  0  0  0  0  0  0
   50.7710   29.1660   44.6520 C   0  0  0  0  0  2  0  0  0  0  0  0
   50.5900   27.6530   44.6250 C   0  0  0  0  0  2  0  0  0  0  0  0
  1  8  1  0  0  0  0
  1  6  1  0  0  0  0
  2  1  2  0  0  0  0
  3  2  1  0  0  0  0
  3  4  2  0  0  0  0
  4  5  1  0  0  0  0
  5  6  2  0  0  0  0
  5  7  1  0  0  0  0
  7 10  1  0  0  0  0
  9  7  1  0  0  0  0
 11 12  1  0  0  0  0
 11 17  1  1  0  0  0
 11  2  1  0  0  0  0
 12 18  1  0  0  0  0
 13 19  1  0  0  0  0
 13 12  2  0  0  0  0
 14 20  1  6  0  0  0
 14 13  1  0  0  0  0
 15 14  1  0  0  0  0
 15 21  1  0  0  0  0
 15 16  1  0  0  0  0
 16 11  1  0  0  0  0
 22 15  1  0  0  0  0
 23 16  1  0  0  0  0
 24 16  1  0  0  0  0
 25 26  1  0  0  0  0
 25 14  1  0  0  0  0
 27 25  1  0  0  0  0
 28 25  1  0  0  0  0
 29  3  1  0  0  0  0
 30 29  1  0  0  0  0
 31 30  2  0  0  0  0
 31 32  1  0  0  0  0
 32 33  1  0  0  0  0
 33 29  2  0  0  0  0
 34 30  1  0  0  0  0
 35 31  1  0  0  0  0
 36 37  1  0  0  0  0
 37 42  1  0  0  0  0
 38 37  1  0  0  0  0
 39 38  1  0  0  0  0
 39 40  1  0  0  0  0
 40 32  1  0  0  0  0
 40 41  1  0  0  0  0
 42 41  1  0  0  0  0
M  END
>  <minimizedAffinity>
-5.6182704

>  <minimizedRMSD>
0.924269021

$$$$
