
 OpenBabel03232521013D

 42 45  0  0  1  0  0  0  0  0999 V2000
   45.5080   33.0300   47.2630 C   0  0  0  0  0  0  0  0  0  0  0  0
   45.9510   32.7680   46.0050 C   0  0  0  0  0  0  0  0  0  0  0  0
   46.1800   31.4120   45.7420 C   0  0  0  0  0  0  0  0  0  0  0  0
   45.9800   30.4220   46.6480 N   0  0  0  0  0  0  0  0  0  0  0  0
   45.5250   30.7420   47.9190 C   0  0  0  0  0  0  0  0  0  0  0  0
   45.3020   32.0240   48.1930 N   0  0  0  0  0  0  0  0  0  0  0  0
   45.3160   29.7330   48.8860 N   0  0  0  0  0  0  0  0  0  0  0  0
   45.3040   34.0420   47.5750 H   0  0  0  0  0  0  0  0  0  0  0  0
   45.1260   28.7230   48.6430 H   0  0  0  0  0  0  0  0  0  0  0  0
   45.3450   29.9780   49.8920 H   0  0  0  0  0  0  0  0  0  0  0  0
   46.1180   33.7170   44.9580 C   0  0  2  0  0  0  0  0  0  0  0  0
   44.9200   34.8030   45.2730 C   0  0  0  0  0  0  0  0  0  0  0  0
   44.6050   35.7260   44.2200 C   0  0  0  0  0  0  0  0  0  0  0  0
   45.3170   35.6550   42.9400 C   0  0  1  0  0  0  0  0  0  0  0  0
   46.3760   34.6560   42.8170 C   0  0  0  0  0  0  0  0  0  0  0  0
   45.9890   33.4250   43.6020 C   0  0  0  0  0  0  0  0  0  0  0  0
   46.9460   34.4410   45.2260 H   0  0  0  0  0  0  0  0  0  0  0  0
   44.3040   34.9520   46.1520 H   0  0  0  0  0  0  0  0  0  0  0  0
   43.8430   36.4420   44.3810 H   0  0  0  0  0  0  0  0  0  0  0  0
   45.7250   36.6630   42.7070 H   0  0  0  0  0  0  0  0  0  0  0  0
   47.4040   34.9850   43.1130 H   0  0  0  0  0  0  0  0  0  0  0  0
   46.4830   34.4160   41.7180 H   0  0  0  0  0  0  0  0  0  0  0  0
   45.0090   33.0600   43.2270 H   0  0  0  0  0  0  0  0  0  0  0  0
   46.8230   32.7800   43.2170 H   0  0  0  0  0  0  0  0  0  0  0  0
   44.2250   35.3780   41.8640 C   0  0  0  0  0  0  0  0  0  0  0  0
   43.1620   34.6440   42.3610 F   0  0  0  0  0  0  0  0  0  0  0  0
   43.7100   36.6180   41.5010 F   0  0  0  0  0  0  0  0  0  0  0  0
   44.8100   34.8350   40.7340 F   0  0  0  0  0  0  0  0  0  0  0  0
   46.7140   30.7140   44.5870 C   0  0  0  0  0  0  0  0  0  0  0  0
   46.3450   29.7420   43.7150 C   0  0  0  0  0  0  0  0  0  0  0  0
   47.4090   29.5170   42.8310 C   0  0  0  0  0  0  0  0  0  0  0  0
   48.3670   30.3640   43.2100 N   0  0  0  0  0  0  0  0  0  0  0  0
   47.9820   31.0790   44.2400 N   0  0  0  0  0  0  0  0  0  0  0  0
   45.3600   29.3220   43.8300 H   0  0  0  0  0  0  0  0  0  0  0  0
   47.3270   28.7810   42.0560 H   0  0  0  0  0  0  0  0  0  0  0  0
   49.8100   33.3800   40.3160 H   0  0  0  0  0  0  0  0  0  0  0  0
   50.1350   32.3900   40.2920 N   0  0  0  0  0  0  0  0  0  0  0  0
   51.0270   32.2010   41.4380 C   0  0  0  0  0  2  0  0  0  0  0  0
   50.1890   31.8630   42.6390 C   0  0  0  0  0  2  0  0  0  0  0  0
   49.6650   30.4380   42.5200 C   0  0  0  0  0  3  0  0  0  0  0  0
   49.4180   30.2050   41.0470 C   0  0  0  0  0  2  0  0  0  0  0  0
   49.0060   31.5030   40.3630 C   0  0  0  0  0  2  0  0  0  0  0  0
  1  8  1  0  0  0  0
  1  6  1  0  0  0  0
  2  1  2  0  0  0  0
  3  2  1  0  0  0  0
  3  4  2  0  0  0  0
  4  5  1  0  0  0  0
  5  6  2  0  0  0  0
  5  7  1  0  0  0  0
  7 10  1  0  0  0  0
  9  7  1  0  0  0  0
 11 17  1  1  0  0  0
 11 12  1  0  0  0  0
 11  2  1  0  0  0  0
 12 18  1  0  0  0  0
 13 19  1  0  0  0  0
 13 12  2  0  0  0  0
 14 20  1  6  0  0  0
 14 13  1  0  0  0  0
 15 14  1  0  0  0  0
 15 21  1  0  0  0  0
 15 16  1  0  0  0  0
 16 11  1  0  0  0  0
 22 15  1  0  0  0  0
 23 16  1  0  0  0  0
 24 16  1  0  0  0  0
 25 26  1  0  0  0  0
 25 14  1  0  0  0  0
 27 25  1  0  0  0  0
 28 25  1  0  0  0  0
 29  3  1  0  0  0  0
 30 34  1  0  0  0  0
 30 29  1  0  0  0  0
 31 32  1  0  0  0  0
 31 30  2  0  0  0  0
 32 33  1  0  0  0  0
 33 29  2  0  0  0  0
 35 31  1  0  0  0  0
 37 36  1  0  0  0  0
 37 42  1  0  0  0  0
 37 38  1  0  0  0  0
 38 39  1  0  0  0  0
 40 39  1  0  0  0  0
 40 32  1  0  0  0  0
 41 40  1  0  0  0  0
 42 41  1  0  0  0  0
M  END
>  <minimizedAffinity>
-6.12653017

>  <minimizedRMSD>
1.1387254

$$$$
