
 OpenBabel03232520153D

 35 37  0  0  0  0  0  0  0  0999 V2000
   47.5010   34.1040   42.1690 C   0  0  0  0  0  0  0  0  0  0  0  0
   48.4640   35.2210   41.7940 C   0  0  0  0  0  0  0  0  0  0  0  0
   49.7910   35.1940   42.4560 C   0  0  0  0  0  0  0  0  0  0  0  0
   50.4150   33.8330   42.4290 C   0  0  0  0  0  0  0  0  0  0  0  0
   49.4690   32.7110   42.0530 C   0  0  0  0  0  0  0  0  0  0  0  0
   48.1850   32.9610   42.8160 C   0  0  0  0  0  0  0  0  0  0  0  0
   47.9530   36.1810   42.0060 H   0  0  0  0  0  0  0  0  0  0  0  0
   48.6710   35.1780   40.7060 H   0  0  0  0  0  0  0  0  0  0  0  0
   50.4000   35.9850   42.0170 H   0  0  0  0  0  0  0  0  0  0  0  0
   49.6390   35.4420   43.5480 H   0  0  0  0  0  0  0  0  0  0  0  0
   51.1950   33.8570   41.6170 H   0  0  0  0  0  0  0  0  0  0  0  0
   50.9540   33.6050   43.3610 H   0  0  0  0  0  0  0  0  0  0  0  0
   49.2810   32.6970   40.9830 H   0  0  0  0  0  0  0  0  0  0  0  0
   49.9720   31.7690   42.4050 H   0  0  0  0  0  0  0  0  0  0  0  0
   48.5220   33.3150   43.8300 H   0  0  0  0  0  0  0  0  0  0  0  0
   47.6510   32.0350   42.9170 H   0  0  0  0  0  0  0  0  0  0  0  0
   46.7520   33.8120   40.9720 N   0  0  0  0  0  0  0  0  0  0  0  0
   45.5010   33.3110   41.2110 C   0  0  0  0  0  0  0  0  0  0  0  0
   44.6230   32.9640   40.2320 C   0  0  0  0  0  0  0  0  0  0  0  0
   43.2590   32.4180   40.4820 C   0  0  0  0  0  0  0  0  0  0  0  0
   44.9680   33.1070   38.9070 C   0  0  0  0  0  0  0  0  0  0  0  0
   44.1950   32.8020   37.9640 O   0  0  0  0  0  0  0  0  0  0  0  0
   46.1870   33.5950   38.6680 N   0  0  0  0  0  0  0  0  0  0  0  0
   47.0170   33.9230   39.6650 C   0  0  0  0  0  0  0  0  0  0  0  0
   48.1470   34.3760   39.3750 O   0  0  0  0  0  0  0  0  0  0  0  0
   46.5170   33.7310   37.6950 H   0  0  0  0  0  0  0  0  0  0  0  0
   45.2620   34.4370   45.1120 C   0  0  0  0  0  0  0  0  0  0  0  0
   44.5710   35.6350   44.8510 C   0  0  0  0  0  0  0  0  0  0  0  0
   44.8810   36.3250   43.6690 C   0  0  0  0  0  0  0  0  0  0  0  0
   45.8280   35.7850   42.8620 N   0  0  0  0  0  0  0  0  0  0  0  0
   46.4750   34.6450   43.1220 C   0  0  0  0  0  0  0  0  0  0  0  0
   46.1840   33.9700   44.2600 N   0  0  0  0  0  0  0  0  0  0  0  0
   45.0260   33.9040   46.0170 H   0  0  0  0  0  0  0  0  0  0  0  0
   43.8200   36.0510   45.5040 H   0  0  0  0  0  0  0  0  0  0  0  0
   44.4070   37.2510   43.3810 H   0  0  0  0  0  0  0  0  0  0  0  0
  1  6  1  0  0  0  0
  1 31  1  0  0  0  0
  2  7  1  0  0  0  0
  2  1  1  0  0  0  0
  2  3  1  0  0  0  0
  3 10  1  0  0  0  0
  4  3  1  0  0  0  0
  4 12  1  0  0  0  0
  5 14  1  0  0  0  0
  5  4  1  0  0  0  0
  5  6  1  0  0  0  0
  6 16  1  0  0  0  0
  6 15  1  0  0  0  0
  8  2  1  0  0  0  0
  9  3  1  0  0  0  0
 11  4  1  0  0  0  0
 13  5  1  0  0  0  0
 17 18  1  0  0  0  0
 17  1  1  0  0  0  0
 19 20  1  0  0  0  0
 19 18  2  0  0  0  0
 21 19  1  0  0  0  0
 22 21  2  0  0  0  0
 23 21  1  0  0  0  0
 23 24  1  0  0  0  0
 24 17  1  0  0  0  0
 25 24  2  0  0  0  0
 26 23  1  0  0  0  0
 27 33  1  0  0  0  0
 28 27  1  0  0  0  0
 28 34  1  0  0  0  0
 29 28  2  0  0  0  0
 30 31  2  0  0  0  0
 30 29  1  0  0  0  0
 31 32  1  0  0  0  0
 32 27  2  0  0  0  0
 35 29  1  0  0  0  0
M  END
>  <minimizedAffinity>
-6.10128021

>  <minimizedRMSD>
0.952870011

$$$$
