
 OpenBabel03232520493D

 33 35  0  0  1  0  0  0  0  0999 V2000
   46.0820   33.3190   45.6330 C   0  0  2  0  0  0  0  0  0  0  0  0
   45.1090   34.4640   45.8100 C   0  0  0  0  0  0  0  0  0  0  0  0
   44.9300   35.3430   44.6720 C   0  0  0  0  0  0  0  0  0  0  0  0
   45.6640   35.1210   43.4220 C   0  0  1  0  0  0  0  0  0  0  0  0
   46.6730   34.0290   43.4270 C   0  0  0  0  0  0  0  0  0  0  0  0
   46.0900   32.8550   44.2080 C   0  0  0  0  0  0  0  0  0  0  0  0
   47.1010   33.7390   45.8710 H   0  0  0  0  0  0  0  0  0  0  0  0
   44.4980   34.7780   46.6260 H   0  0  0  0  0  0  0  0  0  0  0  0
   44.2600   36.1610   44.7380 H   0  0  0  0  0  0  0  0  0  0  0  0
   46.2180   36.0690   43.2210 H   0  0  0  0  0  0  0  0  0  0  0  0
   46.8770   33.6520   42.4290 H   0  0  0  0  0  0  0  0  0  0  0  0
   47.6200   34.3170   43.9090 H   0  0  0  0  0  0  0  0  0  0  0  0
   45.0250   32.7040   43.8910 H   0  0  0  0  0  0  0  0  0  0  0  0
   46.6650   31.9440   44.0650 H   0  0  0  0  0  0  0  0  0  0  0  0
   44.7090   35.0080   42.3340 N   0  0  0  0  0  0  0  0  0  0  0  0
   43.3850   35.2150   42.4340 C   0  0  0  0  0  0  0  0  0  0  0  0
   42.5680   35.0840   41.3510 C   0  0  0  0  0  0  0  0  0  0  0  0
   41.1000   35.3080   41.4420 C   0  0  0  0  0  0  0  0  0  0  0  0
   43.1120   34.7300   40.1220 C   0  0  0  0  0  0  0  0  0  0  0  0
   42.3710   34.6040   39.1060 O   0  0  0  0  0  0  0  0  0  0  0  0
   44.4470   34.5190   40.0130 N   0  0  0  0  0  0  0  0  0  0  0  0
   45.2180   34.6620   41.1150 C   0  0  0  0  0  0  0  0  0  0  0  0
   46.4640   34.4560   40.9760 O   0  0  0  0  0  0  0  0  0  0  0  0
   44.8840   34.2540   39.1060 H   0  0  0  0  0  0  0  0  0  0  0  0
   45.3250   32.6370   47.8910 C   0  0  0  0  0  0  0  0  0  0  0  0
   45.8030   32.2850   46.6300 C   0  0  0  0  0  0  0  0  0  0  0  0
   46.0090   30.9120   46.3640 C   0  0  0  0  0  0  0  0  0  0  0  0
   45.7360   30.0130   47.3330 N   0  0  0  0  0  0  0  0  0  0  0  0
   45.2720   30.3870   48.5500 C   0  0  0  0  0  0  0  0  0  0  0  0
   45.0710   31.6880   48.8200 N   0  0  0  0  0  0  0  0  0  0  0  0
   45.1380   33.6610   48.1820 H   0  0  0  0  0  0  0  0  0  0  0  0
   46.3750   30.5360   45.4250 H   0  0  0  0  0  0  0  0  0  0  0  0
   45.0450   29.6950   49.3440 H   0  0  0  0  0  0  0  0  0  0  0  0
  1  2  1  0  0  0  0
  1  7  1  1  0  0  0
  1 26  1  0  0  0  0
  2  8  1  0  0  0  0
  3  9  1  0  0  0  0
  3  2  2  0  0  0  0
  4 10  1  6  0  0  0
  4  5  1  0  0  0  0
  4  3  1  0  0  0  0
  5 12  1  0  0  0  0
  5  6  1  0  0  0  0
  6  1  1  0  0  0  0
 11  5  1  0  0  0  0
 13  6  1  0  0  0  0
 14  6  1  0  0  0  0
 15 16  1  0  0  0  0
 15  4  1  0  0  0  0
 17 18  1  0  0  0  0
 17 16  2  0  0  0  0
 19 17  1  0  0  0  0
 20 19  2  0  0  0  0
 21 19  1  0  0  0  0
 21 22  1  0  0  0  0
 22 15  1  0  0  0  0
 23 22  2  0  0  0  0
 24 21  1  0  0  0  0
 25 31  1  0  0  0  0
 25 30  1  0  0  0  0
 26 25  2  0  0  0  0
 27 26  1  0  0  0  0
 27 28  2  0  0  0  0
 28 29  1  0  0  0  0
 29 30  2  0  0  0  0
 29 33  1  0  0  0  0
 32 27  1  0  0  0  0
M  END
>  <minimizedAffinity>
-6.19176626

>  <minimizedRMSD>
0.786594391

$$$$
