REMARK  Name = 
REMARK  4 active torsions:
REMARK  status: ('A' for Active; 'I' for Inactive)
REMARK    1  A    between atoms: C_1  and  C_8
REMARK    2  A    between atoms: C_4  and  C_19
REMARK    3  A    between atoms: C_9  and  C_14
REMARK    4  A    between atoms: N_17  and  C_40
REMARK                            x       y       z     vdW  Elec       q    Type
REMARK                         _______ _______ _______ _____ _____    ______ ____
ROOT
ATOM      1  C   UNL     1      45.402  32.885  47.530  0.00  0.00    +0.000 A 
ATOM      2  C   UNL     1      45.921  32.638  46.298  0.00  0.00    +0.000 A 
ATOM      3  C   UNL     1      46.154  31.284  46.028  0.00  0.00    +0.000 A 
ATOM      4  N   UNL     1      45.889  30.283  46.905  0.00  0.00    +0.000 NA
ATOM      5  C   UNL     1      45.358  30.588  48.150  0.00  0.00    +0.000 A 
ATOM      6  N   UNL     1      45.130  31.867  48.429  0.00  0.00    +0.000 NA
ATOM      7  N   UNL     1      45.080  29.566  49.086  0.00  0.00    +0.000 N 
ATOM      8  H   UNL     1      45.188  33.895  47.845  0.00  0.00    +0.000 HD
ATOM      9  H   UNL     1      44.897  28.562  48.815  0.00  0.00    +0.000 HD
ATOM     10  H   UNL     1      45.049  29.796  50.095  0.00  0.00    +0.000 HD
ENDROOT
BRANCH   2  11
ATOM     11  C   UNL     1      46.161  33.601  45.279  0.00  0.00    +0.000 C 
ATOM     12  C   UNL     1      44.922  34.665  45.500  0.00  0.00    +0.000 C 
ATOM     13  C   UNL     1      44.684  35.594  44.433  0.00  0.00    +0.000 C 
ATOM     14  C   UNL     1      45.504  35.549  43.218  0.00  0.00    +0.000 C 
ATOM     15  C   UNL     1      46.586  34.568  43.177  0.00  0.00    +0.000 C 
ATOM     16  C   UNL     1      46.154  33.322  43.914  0.00  0.00    +0.000 C 
ATOM     17  H   UNL     1      46.951  34.335  45.624  0.00  0.00    +0.000 HD
ATOM     18  H   UNL     1      44.231  34.794  46.324  0.00  0.00    +0.000 HD
ATOM     19  H   UNL     1      43.899  36.296  44.534  0.00  0.00    +0.000 HD
ATOM     20  H   UNL     1      45.914  36.566  43.031  0.00  0.00    +0.000 HD
ATOM     21  H   UNL     1      47.580  34.910  43.564  0.00  0.00    +0.000 HD
ATOM     22  H   UNL     1      46.792  34.342  42.089  0.00  0.00    +0.000 HD
ATOM     23  H   UNL     1      45.216  32.946  43.452  0.00  0.00    +0.000 HD
ATOM     24  H   UNL     1      47.029  32.695  43.596  0.00  0.00    +0.000 HD
BRANCH  14  25
ATOM     25  C   UNL     1      44.514  35.266  42.049  0.00  0.00    +0.000 C 
ATOM     26  F   UNL     1      43.460  34.453  42.429  0.00  0.00    +0.000 F 
ATOM     27  F   UNL     1      43.957  36.493  41.703  0.00  0.00    +0.000 F 
ATOM     28  F   UNL     1      45.212  34.811  40.945  0.00  0.00    +0.000 F 
ENDBRANCH  14  25
ENDBRANCH   2  11
BRANCH   3  29
ATOM     29  C   UNL     1      46.752  30.599  44.898  0.00  0.00    +0.000 A 
ATOM     30  C   UNL     1      46.366  29.922  43.787  0.00  0.00    +0.000 A 
ATOM     31  C   UNL     1      47.516  29.468  43.127  0.00  0.00    +0.000 A 
ATOM     32  N   UNL     1      48.539  29.893  43.868  0.00  0.00    +0.000 N 
ATOM     33  N   UNL     1      48.116  30.561  44.915  0.00  0.00    +0.000 NA
ATOM     34  H   UNL     1      45.309  29.843  43.598  0.00  0.00    +0.000 HD
ATOM     35  H   UNL     1      47.435  28.904  42.218  0.00  0.00    +0.000 HD
BRANCH  32  40
ATOM     36  H   UNL     1      52.204  30.483  46.271  0.00  0.00    +0.000 HD
ATOM     37  N   UNL     1      52.208  30.546  45.231  0.00  0.00    +0.000 NA
ATOM     38  C   UNL     1      52.057  29.185  44.715  0.00  0.00    +0.000 C 
ATOM     39  C   UNL     1      50.590  28.862  44.657  0.00  0.00    +0.000 C 
ATOM     40  C   UNL     1      49.938  29.616  43.505  0.00  0.00    +0.000 C 
ATOM     41  C   UNL     1      50.661  30.939  43.412  0.00  0.00    +0.000 C 
ATOM     42  C   UNL     1      51.130  31.391  44.789  0.00  0.00    +0.000 C 
ENDBRANCH  32  40
ENDBRANCH   3  29
TORSDOF 4
