
 OpenBabel03232517583D

 29 29  0  0  0  0  0  0  0  0999 V2000
   46.9000   33.3440   40.9560 C   0  0  0  0  0  0  0  0  0  0  0  0
   44.6150   35.4490   43.1450 C   0  0  0  0  0  0  0  0  0  0  0  0
   45.7450   34.7060   42.7600 C   0  0  0  0  0  0  0  0  0  0  0  0
   45.7770   34.1450   41.4820 C   0  0  0  0  0  0  0  0  0  0  0  0
   44.6970   34.3490   40.6600 N   0  0  0  0  0  0  0  0  0  0  0  0
   43.6330   35.0740   41.0820 C   0  0  0  0  0  0  0  0  0  0  0  0
   43.5850   35.6190   42.3000 N   0  0  0  0  0  0  0  0  0  0  0  0
   46.6180   34.5100   43.3520 H   0  0  0  0  0  0  0  0  0  0  0  0
   42.7750   35.2460   40.4510 H   0  0  0  0  0  0  0  0  0  0  0  0
   44.6730   35.9990   44.5050 C   0  0  0  0  0  0  0  0  0  0  0  0
   44.5580   35.3640   45.5460 O   0  0  0  0  0  0  0  0  0  0  0  0
   44.8360   37.0820   44.5890 H   0  0  0  0  0  0  0  0  0  0  0  0
   47.2240   33.8550   39.5660 C   0  0  0  0  0  0  0  0  0  0  0  0
   46.3450   34.4300   39.1520 H   0  0  0  0  0  0  0  0  0  0  0  0
   48.1040   34.5230   39.5450 H   0  0  0  0  0  0  0  0  0  0  0  0
   47.3810   33.0310   38.8290 H   0  0  0  0  0  0  0  0  0  0  0  0
   46.4210   31.9160   40.7580 C   0  0  0  0  0  0  0  0  0  0  0  0
   45.4540   31.8910   40.2180 H   0  0  0  0  0  0  0  0  0  0  0  0
   47.2020   31.2910   40.2910 H   0  0  0  0  0  0  0  0  0  0  0  0
   46.2550   31.4760   41.7710 H   0  0  0  0  0  0  0  0  0  0  0  0
   48.0970   33.3120   41.8050 C   0  0  0  0  0  0  0  0  0  0  0  0
   47.8310   33.6780   42.8330 H   0  0  0  0  0  0  0  0  0  0  0  0
   48.5700   32.3230   41.9520 H   0  0  0  0  0  0  0  0  0  0  0  0
   49.0160   34.2240   41.2620 O   0  0  0  0  0  0  0  0  0  0  0  0
   49.4600   35.3520   41.9530 C   0  0  0  0  0  0  0  0  0  0  0  0
   50.1680   35.0460   43.1460 N   0  0  0  0  0  0  0  0  0  0  0  0
   49.2480   36.5250   41.5520 O   0  0  0  0  0  0  0  0  0  0  0  0
   49.9110   34.3150   43.8460 H   0  0  0  0  0  0  0  0  0  0  0  0
   51.0540   35.5530   43.4450 H   0  0  0  0  0  0  0  0  0  0  0  0
  1  4  1  0  0  0  0
  1 21  1  0  0  0  0
  2 10  1  0  0  0  0
  3  2  1  0  0  0  0
  3  8  1  0  0  0  0
  4  3  2  0  0  0  0
  5  6  2  0  0  0  0
  5  4  1  0  0  0  0
  6  7  1  0  0  0  0
  7  2  2  0  0  0  0
  9  6  1  0  0  0  0
 10 12  1  0  0  0  0
 10 11  2  0  0  0  0
 13  1  1  0  0  0  0
 14 13  1  0  0  0  0
 15 13  1  0  0  0  0
 16 13  1  0  0  0  0
 17  1  1  0  0  0  0
 17 20  1  0  0  0  0
 18 17  1  0  0  0  0
 19 17  1  0  0  0  0
 21 23  1  0  0  0  0
 21 22  1  0  0  0  0
 24 21  1  0  0  0  0
 24 25  1  0  0  0  0
 25 26  1  0  0  0  0
 26 29  1  0  0  0  0
 26 28  1  0  0  0  0
 27 25  2  0  0  0  0
M  END
>  <minimizedAffinity>
-4.70582247

>  <minimizedRMSD>
1.71169591

$$$$
