
 OpenBabel03232513083D

 41 44  0  0  0  0  0  0  0  0999 V2000
   44.5820   35.7230   44.8930 C   0  0  0  0  0  0  0  0  0  0  0  0
   45.1310   35.7760   43.6110 C   0  0  0  0  0  0  0  0  0  0  0  0
   46.0360   34.8320   43.1560 C   0  0  0  0  0  0  0  0  0  0  0  0
   46.3280   33.8580   44.0890 N   0  0  0  0  0  0  0  0  0  0  0  0
   45.7940   33.8190   45.3170 C   0  0  0  0  0  0  0  0  0  0  0  0
   44.9340   34.7490   45.6960 N   0  0  0  0  0  0  0  0  0  0  0  0
   46.1910   32.7470   46.1780 N   0  0  0  0  0  0  0  0  0  0  0  0
   45.5380   32.6000   47.3670 C   0  0  0  0  0  0  0  0  0  0  0  0
   45.9410   31.5540   48.1760 C   0  0  0  0  0  0  0  0  0  0  0  0
   46.9660   30.7340   47.7340 C   0  0  0  0  0  0  0  0  0  0  0  0
   47.3300   29.7800   48.4790 O   0  0  0  0  0  0  0  0  0  0  0  0
   47.5670   30.9250   46.5660 N   0  0  0  0  0  0  0  0  0  0  0  0
   47.1720   31.9360   45.7930 C   0  0  0  0  0  0  0  0  0  0  0  0
   47.7740   32.0740   44.6950 O   0  0  0  0  0  0  0  0  0  0  0  0
   43.8800   36.5100   45.1500 H   0  0  0  0  0  0  0  0  0  0  0  0
   44.9110   36.5350   42.8650 H   0  0  0  0  0  0  0  0  0  0  0  0
   44.7330   33.2700   47.6750 H   0  0  0  0  0  0  0  0  0  0  0  0
   48.3460   30.2800   46.2580 H   0  0  0  0  0  0  0  0  0  0  0  0
   46.7040   34.7160   41.8990 C   0  0  0  0  0  0  0  0  0  0  0  0
   47.9200   35.3480   41.7460 C   0  0  0  0  0  0  0  0  0  0  0  0
   48.6570   35.3050   40.5860 C   0  0  0  0  0  0  0  0  0  0  0  0
   48.1820   34.6020   39.5090 C   0  0  0  0  0  0  0  0  0  0  0  0
   46.9690   33.9400   39.5850 C   0  0  0  0  0  0  0  0  0  0  0  0
   46.4780   33.2320   38.5090 C   0  0  0  0  0  0  0  0  0  0  0  0
   45.2890   32.5730   38.5540 C   0  0  0  0  0  0  0  0  0  0  0  0
   44.6090   32.6650   39.7540 C   0  0  0  0  0  0  0  0  0  0  0  0
   45.1030   33.3660   40.8060 C   0  0  0  0  0  0  0  0  0  0  0  0
   46.2940   34.0280   40.7650 C   0  0  0  0  0  0  0  0  0  0  0  0
   48.3730   35.9230   42.5440 H   0  0  0  0  0  0  0  0  0  0  0  0
   49.6170   35.8090   40.4830 H   0  0  0  0  0  0  0  0  0  0  0  0
   48.7710   34.5740   38.5980 H   0  0  0  0  0  0  0  0  0  0  0  0
   47.0490   33.1840   37.5790 H   0  0  0  0  0  0  0  0  0  0  0  0
   44.8490   32.0020   37.7530 H   0  0  0  0  0  0  0  0  0  0  0  0
   43.6390   32.1560   39.8640 H   0  0  0  0  0  0  0  0  0  0  0  0
   44.3510   33.4120   41.9900 O   0  0  0  0  0  0  0  0  0  0  0  0
   44.1080   32.5630   42.4530 H   0  0  0  0  0  0  0  0  0  0  0  0
   45.2900   31.3130   49.5000 C   0  0  0  0  0  0  0  0  0  0  0  0
   44.3770   31.9300   49.6100 H   0  0  0  0  0  0  0  0  0  0  0  0
   45.9750   31.5730   50.3450 H   0  0  0  0  0  0  0  0  0  0  0  0
   44.8690   29.9800   49.5470 O   0  0  0  0  0  0  0  0  0  0  0  0
   44.2080   29.9170   50.2830 H   0  0  0  0  0  0  0  0  0  0  0  0
  1 15  1  0  0  0  0
  1  6  1  0  0  0  0
  2  1  2  0  0  0  0
  3  2  1  0  0  0  0
  3  4  2  0  0  0  0
  4  5  1  0  0  0  0
  5  6  2  0  0  0  0
  5  7  1  0  0  0  0
  7  8  1  0  0  0  0
  8 17  1  0  0  0  0
  8  9  2  0  0  0  0
  9 37  1  0  0  0  0
 10  9  1  0  0  0  0
 10 11  2  0  0  0  0
 12 10  1  0  0  0  0
 13  7  1  0  0  0  0
 13 12  1  0  0  0  0
 14 13  2  0  0  0  0
 16  2  1  0  0  0  0
 18 12  1  0  0  0  0
 19  3  1  0  0  0  0
 20 19  1  0  0  0  0
 20 29  1  0  0  0  0
 21 20  2  0  0  0  0
 22 23  2  0  0  0  0
 22 21  1  0  0  0  0
 23 28  1  0  0  0  0
 24 25  2  0  0  0  0
 24 23  1  0  0  0  0
 25 26  1  0  0  0  0
 26 34  1  0  0  0  0
 26 27  2  0  0  0  0
 27 35  1  0  0  0  0
 28 27  1  0  0  0  0
 28 19  2  0  0  0  0
 30 21  1  0  0  0  0
 31 22  1  0  0  0  0
 32 24  1  0  0  0  0
 33 25  1  0  0  0  0
 35 36  1  0  0  0  0
 37 40  1  0  0  0  0
 37 38  1  0  0  0  0
 37 39  1  0  0  0  0
 40 41  1  0  0  0  0
M  END
>  <minimizedAffinity>
-7.59785509

>  <minimizedRMSD>
0.245161474

$$$$
