
 OpenBabel03232511593D

 38 40  0  0  0  0  0  0  0  0999 V2000
   50.7560   33.0600   42.0390 C   0  0  0  0  0  0  0  0  0  0  0  0
   50.7570   31.6700   41.9220 C   0  0  0  0  0  0  0  0  0  0  0  0
   49.6260   31.0040   42.3770 C   0  0  0  0  0  0  0  0  0  0  0  0
   48.5980   31.7390   42.9030 N   0  0  0  0  0  0  0  0  0  0  0  0
   48.6420   33.0780   42.9960 C   0  0  0  0  0  0  0  0  0  0  0  0
   49.7070   33.7030   42.5670 N   0  0  0  0  0  0  0  0  0  0  0  0
   47.4950   33.6730   43.5650 N   0  0  0  0  0  0  0  0  0  0  0  0
   47.0890   33.1800   44.7530 C   0  0  0  0  0  0  0  0  0  0  0  0
   45.9770   33.6910   45.4030 C   0  0  0  0  0  0  0  0  0  0  0  0
   45.2790   34.7300   44.8060 C   0  0  0  0  0  0  0  0  0  0  0  0
   44.2680   35.2190   45.3660 O   0  0  0  0  0  0  0  0  0  0  0  0
   45.6990   35.2150   43.6110 N   0  0  0  0  0  0  0  0  0  0  0  0
   46.7870   34.6970   43.0020 C   0  0  0  0  0  0  0  0  0  0  0  0
   47.2030   35.1190   41.9010 O   0  0  0  0  0  0  0  0  0  0  0  0
   51.6280   33.5990   41.6910 H   0  0  0  0  0  0  0  0  0  0  0  0
   51.6120   31.1590   41.4930 H   0  0  0  0  0  0  0  0  0  0  0  0
   49.5770   29.9250   42.3080 H   0  0  0  0  0  0  0  0  0  0  0  0
   47.6140   32.3740   45.2360 H   0  0  0  0  0  0  0  0  0  0  0  0
   45.5650   33.1190   46.7270 C   0  0  0  0  0  0  0  0  0  0  0  0
   46.1460   33.6920   47.5010 H   0  0  0  0  0  0  0  0  0  0  0  0
   44.5090   33.3300   46.9460 H   0  0  0  0  0  0  0  0  0  0  0  0
   45.8630   32.0660   46.8160 H   0  0  0  0  0  0  0  0  0  0  0  0
   44.9450   36.2880   43.0300 C   0  0  0  0  0  0  0  0  0  0  0  0
   45.6630   37.0490   42.6590 H   0  0  0  0  0  0  0  0  0  0  0  0
   44.3840   36.8180   43.8490 H   0  0  0  0  0  0  0  0  0  0  0  0
   44.0340   35.7560   42.0010 C   0  0  0  0  0  0  0  0  0  0  0  0
   44.6460   35.0070   41.4190 H   0  0  0  0  0  0  0  0  0  0  0  0
   43.8620   36.5970   41.2620 H   0  0  0  0  0  0  0  0  0  0  0  0
   42.7420   35.2820   42.4250 N   0  0  0  0  0  0  0  0  0  0  0  0
   41.6460   35.3050   41.5580 C   0  0  0  0  0  0  0  0  0  0  0  0
   40.9640   36.3380   41.1790 O   0  0  0  0  0  0  0  0  0  0  0  0
   42.3330   34.8420   43.3070 H   0  0  0  0  0  0  0  0  0  0  0  0
   40.9800   34.2030   40.8670 N   0  0  0  0  0  0  0  0  0  0  0  0
   39.8810   33.5200   41.5180 C   0  0  0  0  0  0  0  0  0  0  0  0
   38.7540   33.7020   40.5020 C   0  0  0  0  0  0  0  0  0  0  0  0
   39.4950   33.3820   39.2200 C   0  0  0  0  0  0  0  0  0  0  0  0
   40.9730   33.4190   39.6390 C   0  0  0  0  0  0  0  0  0  0  0  0
   41.5000   33.9420   38.8040 H   0  0  0  0  0  0  0  0  0  0  0  0
  1  6  1  0  0  0  0
  2  1  2  0  0  0  0
  2  3  1  0  0  0  0
  3  4  2  0  0  0  0
  4  5  1  0  0  0  0
  5  7  1  0  0  0  0
  6  5  2  0  0  0  0
  7  8  1  0  0  0  0
  8 18  1  0  0  0  0
  8  9  2  0  0  0  0
  9 19  1  0  0  0  0
 10 11  2  0  0  0  0
 10  9  1  0  0  0  0
 12 10  1  0  0  0  0
 13  7  1  0  0  0  0
 13 12  1  0  0  0  0
 14 13  2  0  0  0  0
 15  1  1  0  0  0  0
 16  2  1  0  0  0  0
 17  3  1  0  0  0  0
 19 22  1  0  0  0  0
 19 21  1  0  0  0  0
 19 20  1  0  0  0  0
 23 12  1  0  0  0  0
 23 25  1  0  0  0  0
 24 23  1  0  0  0  0
 26 29  1  0  0  0  0
 26 23  1  0  0  0  0
 27 26  1  0  0  0  0
 28 26  1  0  0  0  0
 29 32  1  0  0  0  0
 30 29  1  0  0  0  0
 31 30  2  0  0  0  0
 33 34  1  0  0  0  0
 33 30  1  0  0  0  0
 35 34  1  0  0  0  0
 36 37  1  0  0  0  0
 36 35  1  0  0  0  0
 37 33  1  0  0  0  0
 38 37  1  0  0  0  0
M  END
>  <minimizedAffinity>
-6.87496948

>  <minimizedRMSD>
0.30491209

$$$$
