
 OpenBabel03232519173D

 36 38  0  0  1  0  0  0  0  0999 V2000
   43.4140   33.6300   41.3120 C   0  0  1  0  0  0  0  0  0  0  0  0
   43.6820   32.6790   41.8440 H   0  0  0  0  0  0  0  0  0  0  0  0
   41.9470   33.6520   41.1600 C   0  0  0  0  0  0  0  0  0  0  0  0
   41.3110   34.8730   40.7840 C   0  0  0  0  0  0  0  0  0  0  0  0
   39.9160   34.9310   40.6320 C   0  0  0  0  0  0  0  0  0  0  0  0
   39.2380   33.7850   40.8600 N   0  0  0  0  0  0  0  0  0  0  0  0
   39.8390   32.6520   41.2100 C   0  0  0  0  0  0  0  0  0  0  0  0
   41.1960   32.5570   41.3690 N   0  0  0  0  0  0  0  0  0  0  0  0
   41.9430   35.7340   40.6250 H   0  0  0  0  0  0  0  0  0  0  0  0
   39.4460   35.8610   40.3480 H   0  0  0  0  0  0  0  0  0  0  0  0
   39.0750   31.4160   41.4540 C   0  0  0  0  0  0  0  0  0  0  0  0
   39.7460   30.3280   42.0470 C   0  0  0  0  0  0  0  0  0  0  0  0
   38.3390   29.0830   42.1100 S   0  0  0  0  0  0  0  0  0  0  0  0
   37.1380   30.3070   41.3180 C   0  0  0  0  0  0  0  0  0  0  0  0
   37.8120   31.1760   41.1860 N   0  0  0  0  0  0  0  0  0  0  0  0
   40.7240   30.2210   42.3630 H   0  0  0  0  0  0  0  0  0  0  0  0
   36.0370   30.2320   41.0340 H   0  0  0  0  0  0  0  0  0  0  0  0
   44.0670   33.6760   39.9570 C   0  0  0  0  0  0  0  0  0  0  0  0
   44.0020   34.6860   39.5370 H   0  0  0  0  0  0  0  0  0  0  0  0
   43.6820   32.8710   39.3010 H   0  0  0  0  0  0  0  0  0  0  0  0
   45.1540   33.4810   40.1130 H   0  0  0  0  0  0  0  0  0  0  0  0
   43.9090   34.7500   42.1630 C   0  0  0  0  0  0  0  0  0  0  0  0
   43.0860   35.0610   42.8280 H   0  0  0  0  0  0  0  0  0  0  0  0
   44.1390   35.6130   41.5010 H   0  0  0  0  0  0  0  0  0  0  0  0
   45.0740   34.4440   42.9190 N   0  0  0  0  0  0  0  0  0  0  0  0
   45.3720   33.6660   44.0830 C   0  0  0  0  0  0  0  0  0  0  0  0
   45.7050   32.3410   43.8870 C   0  0  0  0  0  0  0  0  0  0  0  0
   46.0110   31.5000   44.9460 C   0  0  0  0  0  0  0  0  0  0  0  0
   46.2780   30.4460   44.8290 H   0  0  0  0  0  0  0  0  0  0  0  0
   45.9630   32.0520   46.1660 N   0  0  0  0  0  0  0  0  0  0  0  0
   45.6340   33.3580   46.3460 C   0  0  0  0  0  0  0  0  0  0  0  0
   45.3360   34.1810   45.3220 N   0  0  0  0  0  0  0  0  0  0  0  0
   46.2630   35.1010   42.5840 C   0  0  0  0  0  0  0  0  0  0  0  0
   47.2940   34.7230   43.4160 F   0  0  0  0  0  0  0  0  0  0  0  0
   46.0350   36.4710   42.8640 F   0  0  0  0  0  0  0  0  0  0  0  0
   46.6490   34.9560   41.2670 F   0  0  0  0  0  0  0  0  0  0  0  0
  1  2  1  1  0  0  0
  1 22  1  0  0  0  0
  3  1  1  0  0  0  0
  3  8  1  0  0  0  0
  4  3  2  0  0  0  0
  5  4  1  0  0  0  0
  5  6  2  0  0  0  0
  6  7  1  0  0  0  0
  7  8  2  0  0  0  0
  7 11  1  0  0  0  0
  9  4  1  0  0  0  0
 10  5  1  0  0  0  0
 11 12  2  0  0  0  0
 12 13  1  0  0  0  0
 12 16  1  0  0  0  0
 14 13  1  0  0  0  0
 15 14  2  0  0  0  0
 15 11  1  0  0  0  0
 17 14  1  0  0  0  0
 18 21  1  0  0  0  0
 18  1  1  0  0  0  0
 19 18  1  0  0  0  0
 20 18  1  0  0  0  0
 22 23  1  0  0  0  0
 22 25  1  0  0  0  0
 24 22  1  0  0  0  0
 25 26  1  0  0  0  0
 26 32  1  0  0  0  0
 27 26  2  0  0  0  0
 27 28  1  0  0  0  0
 28 30  2  0  0  0  0
 29 28  1  0  0  0  0
 30 31  1  0  0  0  0
 32 31  2  0  0  0  0
 33 35  1  0  0  0  0
 33 25  1  0  0  0  0
 33 34  1  0  0  0  0
 36 33  1  0  0  0  0
M  END
>  <minimizedAffinity>
-5.57923651

>  <minimizedRMSD>
6.92955017

$$$$
