
 OpenBabel03232519013D

 36 39  0  0  1  0  0  0  0  0999 V2000
   44.4590   36.1060   44.8210 C   0  0  0  0  0  0  0  0  0  0  0  0
   44.9200   36.2390   43.4920 C   0  0  0  0  0  0  0  0  0  0  0  0
   45.7780   35.2550   42.9830 C   0  0  0  0  0  0  0  0  0  0  0  0
   46.1310   34.2040   43.8020 N   0  0  0  0  0  0  0  0  0  0  0  0
   45.6660   34.1190   45.0620 C   0  0  0  0  0  0  0  0  0  0  0  0
   44.8400   35.0500   45.5790 N   0  0  0  0  0  0  0  0  0  0  0  0
   46.0730   33.0060   45.8490 N   0  0  0  0  0  0  0  0  0  0  0  0
   45.3180   32.7840   47.0760 C   0  0  0  0  0  0  0  0  0  0  0  0
   45.9150   31.7430   47.9710 C   0  0  0  0  0  0  0  0  0  0  0  0
   47.2020   31.3780   47.6040 O   0  0  0  0  0  0  0  0  0  0  0  0
   47.1440   30.9070   46.3030 C   0  0  0  0  0  0  0  0  0  0  0  0
   47.1730   32.1590   45.4350 C   0  0  1  0  0  0  0  0  0  0  0  0
   43.7980   36.8200   45.2830 H   0  0  0  0  0  0  0  0  0  0  0  0
   44.5740   37.0990   42.9600 H   0  0  0  0  0  0  0  0  0  0  0  0
   46.1190   35.3620   41.9860 H   0  0  0  0  0  0  0  0  0  0  0  0
   45.1530   33.7550   47.5900 H   0  0  0  0  0  0  0  0  0  0  0  0
   44.3040   32.4220   46.7790 H   0  0  0  0  0  0  0  0  0  0  0  0
   45.2980   30.8170   48.0330 H   0  0  0  0  0  0  0  0  0  0  0  0
   46.0090   32.1750   48.9920 H   0  0  0  0  0  0  0  0  0  0  0  0
   46.1430   30.4200   46.1720 H   0  0  0  0  0  0  0  0  0  0  0  0
   47.9680   30.2180   46.0550 H   0  0  0  0  0  0  0  0  0  0  0  0
   48.0940   32.7100   45.7720 H   0  0  0  0  0  0  0  0  0  0  0  0
   47.2360   31.8850   44.0450 N   0  0  0  0  0  0  0  0  0  0  0  0
   46.3070   31.2040   43.3180 C   0  0  0  0  0  0  0  0  0  0  0  0
   46.6580   31.1090   42.0080 N   0  0  0  0  0  0  0  0  0  0  0  0
   47.8360   31.7460   41.9140 C   0  0  0  0  0  0  0  0  0  0  0  0
   48.6100   31.9280   40.7850 C   0  0  0  0  0  0  0  0  0  0  0  0
   48.2570   31.4810   39.6640 O   0  0  0  0  0  0  0  0  0  0  0  0
   49.7780   32.6070   40.9060 N   0  0  0  0  0  0  0  0  0  0  0  0
   50.1040   33.0630   42.1330 C   0  0  0  0  0  0  0  0  0  0  0  0
   51.3350   33.7660   42.2040 N   0  0  0  0  0  0  0  0  0  0  0  0
   49.3290   32.8750   43.2360 N   0  0  0  0  0  0  0  0  0  0  0  0
   48.1750   32.2150   43.1720 C   0  0  0  0  0  0  0  0  0  0  0  0
   50.3820   32.7600   40.0750 H   0  0  0  0  0  0  0  0  0  0  0  0
   51.7960   34.7020   42.2120 H   0  0  0  0  0  0  0  0  0  0  0  0
   52.0410   33.0010   42.2750 H   0  0  0  0  0  0  0  0  0  0  0  0
  1 13  1  0  0  0  0
  1  6  1  0  0  0  0
  2  1  2  0  0  0  0
  3  2  1  0  0  0  0
  3  4  2  0  0  0  0
  4  5  1  0  0  0  0
  5  6  2  0  0  0  0
  5  7  1  0  0  0  0
  7  8  1  0  0  0  0
  8 16  1  0  0  0  0
  8  9  1  0  0  0  0
  9 18  1  0  0  0  0
  9 19  1  0  0  0  0
 10  9  1  0  0  0  0
 11 10  1  0  0  0  0
 12 22  1  1  0  0  0
 12  7  1  0  0  0  0
 12 11  1  0  0  0  0
 14  2  1  0  0  0  0
 15  3  1  0  0  0  0
 17  8  1  0  0  0  0
 20 11  1  0  0  0  0
 21 11  1  0  0  0  0
 23 12  1  0  0  0  0
 24 23  1  0  0  0  0
 25 24  2  0  0  0  0
 26 25  1  0  0  0  0
 26 33  2  0  0  0  0
 27 29  1  0  0  0  0
 27 26  1  0  0  0  0
 28 27  2  0  0  0  0
 29 30  1  0  0  0  0
 30 31  1  0  0  0  0
 30 32  2  0  0  0  0
 31 35  1  0  0  0  0
 31 36  1  0  0  0  0
 33 32  1  0  0  0  0
 33 23  1  0  0  0  0
 34 29  1  0  0  0  0
M  END
>  <minimizedAffinity>
-5.80255318

>  <minimizedRMSD>
1.20115983

$$$$
