
 OpenBabel03232518103D

 26 28  0  0  0  0  0  0  0  0999 V2000
   47.2280   34.7520   42.6880 C   0  0  0  0  0  0  0  0  0  0  0  0
   47.7150   33.5630   43.2570 C   0  0  0  0  0  0  0  0  0  0  0  0
   46.9110   32.8660   44.1490 C   0  0  0  0  0  0  0  0  0  0  0  0
   45.6690   33.3820   44.4300 N   0  0  0  0  0  0  0  0  0  0  0  0
   45.2460   34.5240   43.8610 C   0  0  0  0  0  0  0  0  0  0  0  0
   46.0120   35.2010   43.0020 N   0  0  0  0  0  0  0  0  0  0  0  0
   48.6790   33.1460   43.0490 H   0  0  0  0  0  0  0  0  0  0  0  0
   44.2650   34.9140   44.0950 H   0  0  0  0  0  0  0  0  0  0  0  0
   48.1960   35.3820   41.7590 C   0  0  0  0  0  0  0  0  0  0  0  0
   48.1070   35.0610   40.7200 H   0  0  0  0  0  0  0  0  0  0  0  0
   47.9780   36.4900   41.7900 H   0  0  0  0  0  0  0  0  0  0  0  0
   49.6030   35.2180   42.2710 C   0  0  0  0  0  0  0  0  0  0  0  0
   50.1990   36.0770   41.8970 H   0  0  0  0  0  0  0  0  0  0  0  0
   50.0640   34.2700   41.9200 H   0  0  0  0  0  0  0  0  0  0  0  0
   49.6450   35.2480   43.3730 H   0  0  0  0  0  0  0  0  0  0  0  0
   47.4110   31.3750   44.9200 S   0  0  0  0  0  0  0  0  0  0  0  0
   46.3690   30.9170   46.2950 C   0  0  0  0  0  0  0  0  0  0  0  0
   45.6720   31.5250   47.3390 C   0  0  0  0  0  0  0  0  0  0  0  0
   45.0670   30.5240   48.0360 C   0  0  0  0  0  0  0  0  0  0  0  0
   45.3690   29.3400   47.4570 N   0  0  0  0  0  0  0  0  0  0  0  0
   46.1590   29.5770   46.4020 N   0  0  0  0  0  0  0  0  0  0  0  0
   45.7690   32.5960   47.3510 H   0  0  0  0  0  0  0  0  0  0  0  0
   44.4720   30.7810   48.8910 H   0  0  0  0  0  0  0  0  0  0  0  0
   44.8600   28.1070   47.9910 C   0  0  0  0  0  0  0  0  0  0  0  0
   45.4850   26.7940   47.7560 C   0  0  0  0  0  0  0  0  0  0  0  0
   44.1760   27.1120   47.0830 C   0  0  0  0  0  0  0  0  0  0  0  0
  1  6  2  0  0  0  0
  1  2  1  0  0  0  0
  2  3  2  0  0  0  0
  3  4  1  0  0  0  0
  3 16  1  0  0  0  0
  5  8  1  0  0  0  0
  5  4  2  0  0  0  0
  6  5  1  0  0  0  0
  7  2  1  0  0  0  0
  9 11  1  0  0  0  0
  9 12  1  0  0  0  0
  9  1  1  0  0  0  0
 10  9  1  0  0  0  0
 12 15  1  0  0  0  0
 13 12  1  0  0  0  0
 14 12  1  0  0  0  0
 16 17  1  0  0  0  0
 17 21  2  0  0  0  0
 17 18  1  0  0  0  0
 18 22  1  0  0  0  0
 18 19  2  0  0  0  0
 19 23  1  0  0  0  0
 20 24  1  0  0  0  0
 20 19  1  0  0  0  0
 21 20  1  0  0  0  0
 25 24  1  0  0  0  0
 26 25  1  0  0  0  0
 26 24  1  0  0  0  0
M  END
>  <minimizedAffinity>
-4.1644907

>  <minimizedRMSD>
0.963481188

$$$$
