
 OpenBabel03232519543D

 30 33  0  0  0  0  0  0  0  0999 V2000
   43.7270   34.5890   41.6120 N   0  0  0  0  0  0  0  0  0  0  0  0
   44.1540   34.0920   40.4730 C   0  0  0  0  0  0  0  0  0  0  0  0
   43.2740   34.4320   39.4590 C   0  0  0  0  0  0  0  0  0  0  0  0
   42.2920   35.1540   40.0070 N   0  0  0  0  0  0  0  0  0  0  0  0
   42.5650   35.2560   41.3400 C   0  0  0  0  0  0  0  0  0  0  0  0
   43.2960   34.2030   38.4040 H   0  0  0  0  0  0  0  0  0  0  0  0
   41.9000   35.8040   41.9960 H   0  0  0  0  0  0  0  0  0  0  0  0
   45.3190   33.3160   40.2070 N   0  0  0  0  0  0  0  0  0  0  0  0
   45.2450   32.0470   39.7090 C   0  0  0  0  0  0  0  0  0  0  0  0
   46.4730   31.5260   39.5470 N   0  0  0  0  0  0  0  0  0  0  0  0
   47.3580   32.4510   39.9380 C   0  0  0  0  0  0  0  0  0  0  0  0
   48.7350   32.5150   40.0100 C   0  0  0  0  0  0  0  0  0  0  0  0
   49.4360   31.5420   39.6530 O   0  0  0  0  0  0  0  0  0  0  0  0
   49.2910   33.6660   40.4780 N   0  0  0  0  0  0  0  0  0  0  0  0
   48.5530   34.7210   40.8650 C   0  0  0  0  0  0  0  0  0  0  0  0
   49.1990   35.9000   41.3470 N   0  0  0  0  0  0  0  0  0  0  0  0
   47.1930   34.7260   40.8210 N   0  0  0  0  0  0  0  0  0  0  0  0
   46.6540   33.5670   40.3500 C   0  0  0  0  0  0  0  0  0  0  0  0
   50.3490   33.6930   40.5250 H   0  0  0  0  0  0  0  0  0  0  0  0
   49.5490   36.2980   40.4280 H   0  0  0  0  0  0  0  0  0  0  0  0
   49.3400   36.3290   42.2840 H   0  0  0  0  0  0  0  0  0  0  0  0
   44.2010   35.6950   43.6840 C   0  0  0  0  0  0  0  0  0  0  0  0
   44.2770   34.5040   42.8880 C   0  0  0  0  0  0  0  0  0  0  0  0
   44.8800   33.3890   43.4470 C   0  0  0  0  0  0  0  0  0  0  0  0
   45.3660   33.4930   44.7230 N   0  0  0  0  0  0  0  0  0  0  0  0
   45.2800   34.6200   45.4430 C   0  0  0  0  0  0  0  0  0  0  0  0
   44.6950   35.7280   44.9250 N   0  0  0  0  0  0  0  0  0  0  0  0
   43.7460   36.6210   43.3360 H   0  0  0  0  0  0  0  0  0  0  0  0
   44.9380   32.4910   42.8510 H   0  0  0  0  0  0  0  0  0  0  0  0
   45.7360   34.4310   46.4050 H   0  0  0  0  0  0  0  0  0  0  0  0
  1 23  1  0  0  0  0
  2  1  1  0  0  0  0
  3  4  1  0  0  0  0
  3  2  2  0  0  0  0
  4  5  2  0  0  0  0
  5  1  1  0  0  0  0
  5  7  1  0  0  0  0
  6  3  1  0  0  0  0
  8 18  1  0  0  0  0
  8  2  1  0  0  0  0
  9  8  1  0  0  0  0
 10  9  2  0  0  0  0
 10 11  1  0  0  0  0
 11 12  1  0  0  0  0
 11 18  2  0  0  0  0
 12 14  1  0  0  0  0
 13 12  2  0  0  0  0
 14 19  1  0  0  0  0
 14 15  1  0  0  0  0
 15 16  1  0  0  0  0
 16 21  1  0  0  0  0
 17 15  2  0  0  0  0
 18 17  1  0  0  0  0
 20 16  1  0  0  0  0
 22 27  1  0  0  0  0
 23 24  1  0  0  0  0
 23 22  2  0  0  0  0
 24 25  2  0  0  0  0
 25 26  1  0  0  0  0
 26 30  1  0  0  0  0
 27 26  2  0  0  0  0
 28 22  1  0  0  0  0
 29 24  1  0  0  0  0
M  END
>  <minimizedAffinity>
-5.35210991

>  <minimizedRMSD>
1.0458647

$$$$
