
 OpenBabel03232521013D

 38 41  0  0  1  0  0  0  0  0999 V2000
   45.3660   32.8780   47.5000 C   0  0  0  0  0  0  0  0  0  0  0  0
   45.9190   32.6290   46.2890 C   0  0  0  0  0  0  0  0  0  0  0  0
   46.1900   31.2820   46.0330 C   0  0  0  0  0  0  0  0  0  0  0  0
   45.9280   30.2820   46.9110 N   0  0  0  0  0  0  0  0  0  0  0  0
   45.3610   30.5940   48.1370 C   0  0  0  0  0  0  0  0  0  0  0  0
   45.0970   31.8600   48.3980 N   0  0  0  0  0  0  0  0  0  0  0  0
   45.1060   29.5660   49.0880 N   0  0  0  0  0  0  0  0  0  0  0  0
   45.1220   33.8840   47.8000 H   0  0  0  0  0  0  0  0  0  0  0  0
   45.9040   29.7010   49.7490 H   0  0  0  0  0  0  0  0  0  0  0  0
   44.2930   28.8850   49.0560 H   0  0  0  0  0  0  0  0  0  0  0  0
   46.1670   33.5870   45.2630 C   0  0  2  0  0  0  0  0  0  0  0  0
   44.9550   34.6760   45.4980 C   0  0  0  0  0  0  0  0  0  0  0  0
   44.7300   35.6130   44.4320 C   0  0  0  0  0  0  0  0  0  0  0  0
   45.5330   35.5510   43.2100 C   0  0  1  0  0  0  0  0  0  0  0  0
   46.5920   34.5520   43.1600 C   0  0  0  0  0  0  0  0  0  0  0  0
   46.1440   33.3110   43.8980 C   0  0  0  0  0  0  0  0  0  0  0  0
   46.9460   34.3290   45.6010 H   0  0  0  0  0  0  0  0  0  0  0  0
   44.2740   34.8190   46.3270 H   0  0  0  0  0  0  0  0  0  0  0  0
   43.9650   36.3310   44.5400 H   0  0  0  0  0  0  0  0  0  0  0  0
   45.9560   36.5620   43.0160 H   0  0  0  0  0  0  0  0  0  0  0  0
   46.8480   34.3500   42.0850 H   0  0  0  0  0  0  0  0  0  0  0  0
   47.5210   34.9120   43.6500 H   0  0  0  0  0  0  0  0  0  0  0  0
   45.2130   32.9450   43.4190 H   0  0  0  0  0  0  0  0  0  0  0  0
   47.0020   32.6680   43.5690 H   0  0  0  0  0  0  0  0  0  0  0  0
   44.5210   35.2890   42.0550 C   0  0  0  0  0  0  0  0  0  0  0  0
   43.4570   34.4950   42.4450 F   0  0  0  0  0  0  0  0  0  0  0  0
   43.9840   36.5300   41.7190 F   0  0  0  0  0  0  0  0  0  0  0  0
   45.1950   34.8270   40.9420 F   0  0  0  0  0  0  0  0  0  0  0  0
   46.8300   30.5960   44.9210 C   0  0  0  0  0  0  0  0  0  0  0  0
   46.4790   29.8590   43.8370 C   0  0  0  0  0  0  0  0  0  0  0  0
   47.6570   29.4580   43.1890 C   0  0  0  0  0  0  0  0  0  0  0  0
   48.6560   29.9690   43.9100 N   0  0  0  0  0  0  0  0  0  0  0  0
   48.1940   30.6430   44.9340 N   0  0  0  0  0  0  0  0  0  0  0  0
   45.4300   29.7090   43.6550 H   0  0  0  0  0  0  0  0  0  0  0  0
   47.6220   28.8610   42.2990 H   0  0  0  0  0  0  0  0  0  0  0  0
   50.0760   29.7780   43.5670 C   0  0  0  0  0  3  0  0  0  0  0  0
   50.3110   29.6200   42.0720 C   0  0  0  0  0  2  0  0  0  0  0  0
   50.7060   30.9030   42.7190 C   0  0  0  0  0  2  0  0  0  0  0  0
  1  8  1  0  0  0  0
  1  6  1  0  0  0  0
  2  1  2  0  0  0  0
  3  2  1  0  0  0  0
  3  4  2  0  0  0  0
  4  5  1  0  0  0  0
  5  6  2  0  0  0  0
  5  7  1  0  0  0  0
  7  9  1  0  0  0  0
 10  7  1  0  0  0  0
 11 12  1  0  0  0  0
 11 17  1  1  0  0  0
 11  2  1  0  0  0  0
 12 18  1  0  0  0  0
 13 19  1  0  0  0  0
 13 12  2  0  0  0  0
 14 20  1  6  0  0  0
 14 13  1  0  0  0  0
 15 14  1  0  0  0  0
 15 22  1  0  0  0  0
 15 16  1  0  0  0  0
 16 11  1  0  0  0  0
 21 15  1  0  0  0  0
 23 16  1  0  0  0  0
 24 16  1  0  0  0  0
 25 26  1  0  0  0  0
 25 14  1  0  0  0  0
 27 25  1  0  0  0  0
 28 25  1  0  0  0  0
 29 33  2  0  0  0  0
 29  3  1  0  0  0  0
 30 29  1  0  0  0  0
 31 30  2  0  0  0  0
 31 32  1  0  0  0  0
 32 33  1  0  0  0  0
 34 30  1  0  0  0  0
 35 31  1  0  0  0  0
 36 32  1  0  0  0  0
 37 38  1  0  0  0  0
 37 36  1  0  0  0  0
 38 36  1  0  0  0  0
M  END
>  <minimizedAffinity>
-5.59249163

>  <minimizedRMSD>
0.0858860239

$$$$
