
 OpenBabel03232520533D

 40 43  0  0  1  0  0  0  0  0999 V2000
   47.6800   31.2140   46.6450 C   0  0  0  0  0  0  0  0  0  0  0  0
   46.7970   31.4960   45.6190 C   0  0  0  0  0  0  0  0  0  0  0  0
   45.9680   30.4500   45.1910 C   0  0  0  0  0  0  0  0  0  0  0  0
   46.0500   29.2350   45.7680 N   0  0  0  0  0  0  0  0  0  0  0  0
   46.9320   28.9860   46.7790 C   0  0  0  0  0  0  0  0  0  0  0  0
   47.7330   29.9730   47.2030 N   0  0  0  0  0  0  0  0  0  0  0  0
   48.3860   31.8980   47.0920 H   0  0  0  0  0  0  0  0  0  0  0  0
   45.2720   30.6150   44.4070 H   0  0  0  0  0  0  0  0  0  0  0  0
   47.0110   27.7060   47.3790 N   0  0  0  0  0  0  0  0  0  0  0  0
   48.0150   27.0280   47.9690 C   0  0  0  0  0  0  0  0  0  0  0  0
   47.5390   25.8260   48.3780 N   0  0  0  0  0  0  0  0  0  0  0  0
   46.2280   25.7430   48.0460 C   0  0  0  0  0  0  0  0  0  0  0  0
   45.3120   24.7270   48.2460 C   0  0  0  0  0  0  0  0  0  0  0  0
   45.6020   23.6470   48.8150 O   0  0  0  0  0  0  0  0  0  0  0  0
   44.0350   24.8720   47.8180 N   0  0  0  0  0  0  0  0  0  0  0  0
   43.7520   26.0450   47.2090 C   0  0  0  0  0  0  0  0  0  0  0  0
   42.4420   26.3150   46.7170 N   0  0  0  0  0  0  0  0  0  0  0  0
   44.6040   27.0620   46.9900 N   0  0  0  0  0  0  0  0  0  0  0  0
   45.8910   26.9380   47.4100 C   0  0  0  0  0  0  0  0  0  0  0  0
   43.2630   24.1700   47.9180 H   0  0  0  0  0  0  0  0  0  0  0  0
   41.5720   26.2780   47.3160 H   0  0  0  0  0  0  0  0  0  0  0  0
   42.0530   26.5790   45.7790 H   0  0  0  0  0  0  0  0  0  0  0  0
   46.7720   32.8260   45.0390 C   0  0  2  0  0  0  0  0  0  0  0  0
   45.5330   33.5580   45.4910 C   0  0  0  0  0  0  0  0  0  0  0  0
   45.1130   34.6880   44.6950 C   0  0  0  0  0  0  0  0  0  0  0  0
   45.8550   35.0950   43.5160 C   0  0  1  0  0  0  0  0  0  0  0  0
   47.1020   34.3540   43.2150 C   0  0  0  0  0  0  0  0  0  0  0  0
   46.9380   32.9020   43.5610 C   0  0  0  0  0  0  0  0  0  0  0  0
   47.6300   33.3970   45.5070 H   0  0  0  0  0  0  0  0  0  0  0  0
   44.8220   33.4620   46.3000 H   0  0  0  0  0  0  0  0  0  0  0  0
   44.2360   35.2680   44.9480 H   0  0  0  0  0  0  0  0  0  0  0  0
   46.0950   36.1760   43.6230 H   0  0  0  0  0  0  0  0  0  0  0  0
   47.3730   34.4730   42.1530 H   0  0  0  0  0  0  0  0  0  0  0  0
   47.9860   34.7170   43.8000 H   0  0  0  0  0  0  0  0  0  0  0  0
   46.0590   32.5360   43.0090 H   0  0  0  0  0  0  0  0  0  0  0  0
   47.8800   32.4030   43.2930 H   0  0  0  0  0  0  0  0  0  0  0  0
   44.9070   35.0160   42.3110 C   0  0  0  0  0  0  0  0  0  0  0  0
   43.8950   34.1010   42.4880 F   0  0  0  0  0  0  0  0  0  0  0  0
   44.2920   36.2650   42.1860 F   0  0  0  0  0  0  0  0  0  0  0  0
   45.6340   34.8010   41.1540 F   0  0  0  0  0  0  0  0  0  0  0  0
  1  7  1  0  0  0  0
  1  6  1  0  0  0  0
  2  1  2  0  0  0  0
  3  2  1  0  0  0  0
  3  4  2  0  0  0  0
  4  5  1  0  0  0  0
  5  6  2  0  0  0  0
  5  9  1  0  0  0  0
  8  3  1  0  0  0  0
  9 19  1  0  0  0  0
  9 10  1  0  0  0  0
 10 11  2  0  0  0  0
 12 13  1  0  0  0  0
 12 11  1  0  0  0  0
 13 14  2  0  0  0  0
 15 20  1  0  0  0  0
 15 13  1  0  0  0  0
 16 15  1  0  0  0  0
 17 16  1  0  0  0  0
 17 21  1  0  0  0  0
 18 16  2  0  0  0  0
 18 19  1  0  0  0  0
 19 12  2  0  0  0  0
 22 17  1  0  0  0  0
 23 24  1  0  0  0  0
 23 29  1  1  0  0  0
 23  2  1  0  0  0  0
 24 30  1  0  0  0  0
 25 31  1  0  0  0  0
 25 24  2  0  0  0  0
 26 32  1  1  0  0  0
 26 25  1  0  0  0  0
 27 26  1  0  0  0  0
 27 28  1  0  0  0  0
 27 34  1  0  0  0  0
 28 23  1  0  0  0  0
 33 27  1  0  0  0  0
 35 28  1  0  0  0  0
 36 28  1  0  0  0  0
 37 38  1  0  0  0  0
 37 26  1  0  0  0  0
 39 37  1  0  0  0  0
 40 37  1  0  0  0  0
M  END
>  <minimizedAffinity>
-5.82734108

>  <minimizedRMSD>
2.24168897

$$$$
