
 OpenBabel03232519123D

 31 33  0  0  1  0  0  0  0  0999 V2000
   44.4590   35.4940   43.3220 C   0  0  1  0  0  0  0  0  0  0  0  0
   43.5110   35.2840   43.8860 H   0  0  0  0  0  0  0  0  0  0  0  0
   45.4550   34.5110   43.7460 C   0  0  0  0  0  0  0  0  0  0  0  0
   46.4620   34.1450   42.8060 C   0  0  0  0  0  0  0  0  0  0  0  0
   47.4460   33.2000   43.1730 C   0  0  0  0  0  0  0  0  0  0  0  0
   47.3630   32.6920   44.4330 N   0  0  0  0  0  0  0  0  0  0  0  0
   46.4140   33.0540   45.2830 C   0  0  0  0  0  0  0  0  0  0  0  0
   45.4570   33.9550   44.9630 N   0  0  0  0  0  0  0  0  0  0  0  0
   46.4840   34.5840   41.8050 H   0  0  0  0  0  0  0  0  0  0  0  0
   48.2090   32.9170   42.4740 H   0  0  0  0  0  0  0  0  0  0  0  0
   46.3370   32.4790   46.6430 C   0  0  0  0  0  0  0  0  0  0  0  0
   47.3330   31.5590   47.0080 C   0  0  0  0  0  0  0  0  0  0  0  0
   46.7930   31.1250   48.7460 S   0  0  0  0  0  0  0  0  0  0  0  0
   45.3240   32.2940   48.6000 C   0  0  0  0  0  0  0  0  0  0  0  0
   45.4290   32.7110   47.5720 N   0  0  0  0  0  0  0  0  0  0  0  0
   48.1720   31.1520   46.5530 H   0  0  0  0  0  0  0  0  0  0  0  0
   44.3270   32.7310   49.2430 H   0  0  0  0  0  0  0  0  0  0  0  0
   44.8640   36.8840   43.7160 C   0  0  0  0  0  0  0  0  0  0  0  0
   45.0610   36.9570   44.7850 H   0  0  0  0  0  0  0  0  0  0  0  0
   44.1260   37.6420   43.4470 H   0  0  0  0  0  0  0  0  0  0  0  0
   45.7920   37.1600   43.1410 H   0  0  0  0  0  0  0  0  0  0  0  0
   44.1680   35.4240   41.8310 C   0  0  0  0  0  0  0  0  0  0  0  0
   44.9220   34.7670   41.3380 H   0  0  0  0  0  0  0  0  0  0  0  0
   44.2580   36.4210   41.3560 H   0  0  0  0  0  0  0  0  0  0  0  0
   42.7960   34.8920   41.6250 C   0  0  0  0  0  0  0  0  0  0  0  0
   41.6050   35.5830   41.5960 C   0  0  0  0  0  0  0  0  0  0  0  0
   40.4180   34.9140   41.3920 C   0  0  0  0  0  0  0  0  0  0  0  0
   40.3450   33.5630   41.2100 C   0  0  0  0  0  0  0  0  0  0  0  0
   39.4390   32.9960   41.0480 H   0  0  0  0  0  0  0  0  0  0  0  0
   41.5550   32.8960   41.2460 C   0  0  0  0  0  0  0  0  0  0  0  0
   42.7170   33.5450   41.4450 N   0  0  0  0  0  0  0  0  0  0  0  0
  1 18  1  0  0  0  0
  1  3  1  0  0  0  0
  1  2  1  1  0  0  0
  3  8  1  0  0  0  0
  4  5  1  0  0  0  0
  4  3  2  0  0  0  0
  5  6  2  0  0  0  0
  6  7  1  0  0  0  0
  7 11  1  0  0  0  0
  8  7  2  0  0  0  0
  9  4  1  0  0  0  0
 10  5  1  0  0  0  0
 11 12  2  0  0  0  0
 11 15  1  0  0  0  0
 12 13  1  0  0  0  0
 14 13  1  0  0  0  0
 14 17  1  0  0  0  0
 15 14  2  0  0  0  0
 16 12  1  0  0  0  0
 18 19  1  0  0  0  0
 20 18  1  0  0  0  0
 21 18  1  0  0  0  0
 22  1  1  0  0  0  0
 23 22  1  0  0  0  0
 24 22  1  0  0  0  0
 25 22  1  0  0  0  0
 26 25  1  0  0  0  0
 27 26  2  0  0  0  0
 28 30  2  0  0  0  0
 28 27  1  0  0  0  0
 29 28  1  0  0  0  0
 30 31  1  0  0  0  0
 31 25  2  0  0  0  0
M  END
>  <minimizedAffinity>
-5.24875355

>  <minimizedRMSD>
1.40319872

$$$$
