
 OpenBabel03232521003D

 38 41  0  0  1  0  0  0  0  0999 V2000
   45.3650   32.8730   47.4940 C   0  0  0  0  0  0  0  0  0  0  0  0
   45.9210   32.6270   46.2830 C   0  0  0  0  0  0  0  0  0  0  0  0
   46.1950   31.2810   46.0270 C   0  0  0  0  0  0  0  0  0  0  0  0
   45.9340   30.2790   46.9030 N   0  0  0  0  0  0  0  0  0  0  0  0
   45.3650   30.5880   48.1290 C   0  0  0  0  0  0  0  0  0  0  0  0
   45.0980   31.8530   48.3910 N   0  0  0  0  0  0  0  0  0  0  0  0
   45.1110   29.5590   49.0780 N   0  0  0  0  0  0  0  0  0  0  0  0
   45.1180   33.8780   47.7950 H   0  0  0  0  0  0  0  0  0  0  0  0
   45.9080   29.6950   49.7400 H   0  0  0  0  0  0  0  0  0  0  0  0
   44.3000   28.8750   49.0440 H   0  0  0  0  0  0  0  0  0  0  0  0
   46.1670   33.5870   45.2590 C   0  0  2  0  0  0  0  0  0  0  0  0
   44.9560   34.6750   45.4970 C   0  0  0  0  0  0  0  0  0  0  0  0
   44.7310   35.6140   44.4340 C   0  0  0  0  0  0  0  0  0  0  0  0
   45.5310   35.5540   43.2100 C   0  0  1  0  0  0  0  0  0  0  0  0
   46.5900   34.5550   43.1570 C   0  0  0  0  0  0  0  0  0  0  0  0
   46.1430   33.3130   43.8930 C   0  0  0  0  0  0  0  0  0  0  0  0
   46.9470   34.3280   45.5970 H   0  0  0  0  0  0  0  0  0  0  0  0
   44.2760   34.8170   46.3270 H   0  0  0  0  0  0  0  0  0  0  0  0
   43.9650   36.3320   44.5430 H   0  0  0  0  0  0  0  0  0  0  0  0
   45.9550   36.5650   43.0180 H   0  0  0  0  0  0  0  0  0  0  0  0
   46.8440   34.3550   42.0810 H   0  0  0  0  0  0  0  0  0  0  0  0
   47.5190   34.9130   43.6470 H   0  0  0  0  0  0  0  0  0  0  0  0
   45.2110   32.9480   43.4160 H   0  0  0  0  0  0  0  0  0  0  0  0
   47.0000   32.6700   43.5620 H   0  0  0  0  0  0  0  0  0  0  0  0
   44.5180   35.2940   42.0560 C   0  0  0  0  0  0  0  0  0  0  0  0
   43.4510   34.5050   42.4470 F   0  0  0  0  0  0  0  0  0  0  0  0
   43.9860   36.5370   41.7190 F   0  0  0  0  0  0  0  0  0  0  0  0
   45.1900   34.8290   40.9430 F   0  0  0  0  0  0  0  0  0  0  0  0
   46.8390   30.5970   44.9140 C   0  0  0  0  0  0  0  0  0  0  0  0
   46.4900   29.8700   43.8230 C   0  0  0  0  0  0  0  0  0  0  0  0
   47.6700   29.4650   43.1810 C   0  0  0  0  0  0  0  0  0  0  0  0
   48.6680   29.9650   43.9120 N   0  0  0  0  0  0  0  0  0  0  0  0
   48.2020   30.6360   44.9380 N   0  0  0  0  0  0  0  0  0  0  0  0
   45.4420   29.7270   43.6330 H   0  0  0  0  0  0  0  0  0  0  0  0
   47.6370   28.8740   42.2870 H   0  0  0  0  0  0  0  0  0  0  0  0
   50.0880   29.7670   43.5780 C   0  0  0  0  0  3  0  0  0  0  0  0
   50.3320   29.6060   42.0840 C   0  0  0  0  0  2  0  0  0  0  0  0
   50.7290   30.8870   42.7320 C   0  0  0  0  0  2  0  0  0  0  0  0
  1  8  1  0  0  0  0
  1  6  1  0  0  0  0
  2  1  2  0  0  0  0
  3  2  1  0  0  0  0
  3  4  2  0  0  0  0
  4  5  1  0  0  0  0
  5  6  2  0  0  0  0
  5  7  1  0  0  0  0
  7  9  1  0  0  0  0
 10  7  1  0  0  0  0
 11 12  1  0  0  0  0
 11 17  1  1  0  0  0
 11  2  1  0  0  0  0
 12 18  1  0  0  0  0
 13 19  1  0  0  0  0
 13 12  2  0  0  0  0
 14 20  1  6  0  0  0
 14 13  1  0  0  0  0
 15 14  1  0  0  0  0
 15 22  1  0  0  0  0
 15 16  1  0  0  0  0
 16 11  1  0  0  0  0
 21 15  1  0  0  0  0
 23 16  1  0  0  0  0
 24 16  1  0  0  0  0
 25 26  1  0  0  0  0
 25 14  1  0  0  0  0
 27 25  1  0  0  0  0
 28 25  1  0  0  0  0
 29 33  2  0  0  0  0
 29  3  1  0  0  0  0
 30 29  1  0  0  0  0
 31 30  2  0  0  0  0
 31 32  1  0  0  0  0
 32 33  1  0  0  0  0
 34 30  1  0  0  0  0
 35 31  1  0  0  0  0
 36 32  1  0  0  0  0
 37 38  1  0  0  0  0
 37 36  1  0  0  0  0
 38 36  1  0  0  0  0
M  END
>  <minimizedAffinity>
-5.58825302

>  <minimizedRMSD>
0.139066145

$$$$
