
 OpenBabel03232521003D

 38 41  0  0  1  0  0  0  0  0999 V2000
   45.3640   32.8640   47.4890 C   0  0  0  0  0  0  0  0  0  0  0  0
   45.9210   32.6210   46.2790 C   0  0  0  0  0  0  0  0  0  0  0  0
   46.1980   31.2750   46.0210 C   0  0  0  0  0  0  0  0  0  0  0  0
   45.9370   30.2720   46.8950 N   0  0  0  0  0  0  0  0  0  0  0  0
   45.3660   30.5790   48.1210 C   0  0  0  0  0  0  0  0  0  0  0  0
   45.0970   31.8430   48.3850 N   0  0  0  0  0  0  0  0  0  0  0  0
   45.1130   29.5480   49.0690 N   0  0  0  0  0  0  0  0  0  0  0  0
   45.1160   33.8690   47.7910 H   0  0  0  0  0  0  0  0  0  0  0  0
   45.9080   29.6840   49.7320 H   0  0  0  0  0  0  0  0  0  0  0  0
   44.3020   28.8630   49.0320 H   0  0  0  0  0  0  0  0  0  0  0  0
   46.1680   33.5830   45.2560 C   0  0  2  0  0  0  0  0  0  0  0  0
   44.9580   34.6720   45.4980 C   0  0  0  0  0  0  0  0  0  0  0  0
   44.7320   35.6130   44.4360 C   0  0  0  0  0  0  0  0  0  0  0  0
   45.5320   35.5540   43.2120 C   0  0  1  0  0  0  0  0  0  0  0  0
   46.5900   34.5550   43.1560 C   0  0  0  0  0  0  0  0  0  0  0  0
   46.1430   33.3120   43.8900 C   0  0  0  0  0  0  0  0  0  0  0  0
   46.9490   34.3220   45.5950 H   0  0  0  0  0  0  0  0  0  0  0  0
   44.2780   34.8120   46.3280 H   0  0  0  0  0  0  0  0  0  0  0  0
   43.9670   36.3310   44.5470 H   0  0  0  0  0  0  0  0  0  0  0  0
   45.9560   36.5660   43.0210 H   0  0  0  0  0  0  0  0  0  0  0  0
   46.8430   34.3570   42.0790 H   0  0  0  0  0  0  0  0  0  0  0  0
   47.5200   34.9120   43.6460 H   0  0  0  0  0  0  0  0  0  0  0  0
   45.2100   32.9490   43.4120 H   0  0  0  0  0  0  0  0  0  0  0  0
   46.9990   32.6690   43.5570 H   0  0  0  0  0  0  0  0  0  0  0  0
   44.5180   35.2980   42.0580 C   0  0  0  0  0  0  0  0  0  0  0  0
   43.4480   34.5120   42.4500 F   0  0  0  0  0  0  0  0  0  0  0  0
   43.9890   36.5420   41.7210 F   0  0  0  0  0  0  0  0  0  0  0  0
   45.1880   34.8300   40.9450 F   0  0  0  0  0  0  0  0  0  0  0  0
   46.8430   30.5950   44.9080 C   0  0  0  0  0  0  0  0  0  0  0  0
   46.4970   29.8710   43.8140 C   0  0  0  0  0  0  0  0  0  0  0  0
   47.6780   29.4670   43.1740 C   0  0  0  0  0  0  0  0  0  0  0  0
   48.6740   29.9630   43.9090 N   0  0  0  0  0  0  0  0  0  0  0  0
   48.2070   30.6310   44.9350 N   0  0  0  0  0  0  0  0  0  0  0  0
   45.4490   29.7310   43.6200 H   0  0  0  0  0  0  0  0  0  0  0  0
   47.6460   28.8780   42.2780 H   0  0  0  0  0  0  0  0  0  0  0  0
   50.0950   29.7640   43.5780 C   0  0  0  0  0  3  0  0  0  0  0  0
   50.3420   29.6040   42.0830 C   0  0  0  0  0  2  0  0  0  0  0  0
   50.7380   30.8840   42.7330 C   0  0  0  0  0  2  0  0  0  0  0  0
  1  8  1  0  0  0  0
  1  6  1  0  0  0  0
  2  1  2  0  0  0  0
  3  2  1  0  0  0  0
  3  4  2  0  0  0  0
  4  5  1  0  0  0  0
  5  6  2  0  0  0  0
  5  7  1  0  0  0  0
  7  9  1  0  0  0  0
 10  7  1  0  0  0  0
 11 12  1  0  0  0  0
 11 17  1  1  0  0  0
 11  2  1  0  0  0  0
 12 18  1  0  0  0  0
 13 19  1  0  0  0  0
 13 12  2  0  0  0  0
 14 20  1  6  0  0  0
 14 13  1  0  0  0  0
 15 14  1  0  0  0  0
 15 22  1  0  0  0  0
 15 16  1  0  0  0  0
 16 11  1  0  0  0  0
 21 15  1  0  0  0  0
 23 16  1  0  0  0  0
 24 16  1  0  0  0  0
 25 26  1  0  0  0  0
 25 14  1  0  0  0  0
 27 25  1  0  0  0  0
 28 25  1  0  0  0  0
 29 33  2  0  0  0  0
 29  3  1  0  0  0  0
 30 29  1  0  0  0  0
 31 30  2  0  0  0  0
 31 32  1  0  0  0  0
 32 33  1  0  0  0  0
 34 30  1  0  0  0  0
 35 31  1  0  0  0  0
 36 32  1  0  0  0  0
 37 38  1  0  0  0  0
 37 36  1  0  0  0  0
 38 36  1  0  0  0  0
M  END
>  <minimizedAffinity>
-5.58436966

>  <minimizedRMSD>
0.406423777

$$$$
