
 OpenBabel03232520273D

 50 55  0  0  1  0  0  0  0  0999 V2000
   49.2350   35.6560   41.9460 C   0  0  0  0  0  0  0  0  0  0  0  0
   48.5920   36.3090   42.5630 H   0  0  0  0  0  0  0  0  0  0  0  0
   49.9560   36.3200   41.4250 H   0  0  0  0  0  0  0  0  0  0  0  0
   47.0700   34.5300   41.2620 C   0  0  0  0  0  0  0  0  0  0  0  0
   48.3480   34.9830   40.9750 C   0  0  0  0  0  0  0  0  0  0  0  0
   48.6550   34.7240   39.7040 N   0  0  0  0  0  0  0  0  0  0  0  0
   47.5830   34.1070   39.1700 C   0  0  0  0  0  0  0  0  0  0  0  0
   47.3670   33.6200   37.8810 C   0  0  0  0  0  0  0  0  0  0  0  0
   46.1790   33.0260   37.5860 C   0  0  0  0  0  0  0  0  0  0  0  0
   45.1400   32.8610   38.4870 C   0  0  0  0  0  0  0  0  0  0  0  0
   45.3940   33.3570   39.7520 C   0  0  0  0  0  0  0  0  0  0  0  0
   46.5700   33.9630   40.1050 C   0  0  0  0  0  0  0  0  0  0  0  0
   49.5350   34.9250   39.1410 H   0  0  0  0  0  0  0  0  0  0  0  0
   48.1110   33.6970   37.1030 H   0  0  0  0  0  0  0  0  0  0  0  0
   46.0050   32.6410   36.5720 H   0  0  0  0  0  0  0  0  0  0  0  0
   44.1970   32.4050   38.3020 H   0  0  0  0  0  0  0  0  0  0  0  0
   44.6630   33.2900   40.5470 H   0  0  0  0  0  0  0  0  0  0  0  0
   44.8280   35.7780   43.9750 C   0  0  0  0  0  0  0  0  0  0  0  0
   45.4990   35.7000   42.7430 C   0  0  0  0  0  0  0  0  0  0  0  0
   46.3630   34.6230   42.5450 C   0  0  0  0  0  0  0  0  0  0  0  0
   46.5310   33.6900   43.5350 N   0  0  0  0  0  0  0  0  0  0  0  0
   45.8500   33.8290   44.7030 C   0  0  0  0  0  0  0  0  0  0  0  0
   45.0090   34.8510   44.9310 N   0  0  0  0  0  0  0  0  0  0  0  0
   44.1530   36.5770   44.1890 H   0  0  0  0  0  0  0  0  0  0  0  0
   45.3310   36.4630   41.9950 H   0  0  0  0  0  0  0  0  0  0  0  0
   46.1140   32.9950   45.3590 H   0  0  0  0  0  0  0  0  0  0  0  0
   50.0050   34.6670   42.7670 C   0  0  0  0  0  0  0  0  0  0  0  0
   50.8330   35.2260   43.2910 H   0  0  0  0  0  0  0  0  0  0  0  0
   49.3260   34.3400   43.5940 H   0  0  0  0  0  0  0  0  0  0  0  0
   50.5750   33.5280   41.9890 C   0  0  1  0  0  0  0  0  0  0  0  0
   51.0160   32.2870   42.6390 C   0  0  0  0  0  0  0  0  0  0  0  0
   49.6890   32.2670   41.9970 C   0  0  2  0  0  0  0  0  0  0  0  0
   51.0290   33.8190   41.0310 H   0  0  0  0  0  0  0  0  0  0  0  0
   51.0830   32.3550   43.7610 H   0  0  0  0  0  0  0  0  0  0  0  0
   51.9200   31.8220   42.2130 H   0  0  0  0  0  0  0  0  0  0  0  0
   48.8350   32.2530   42.7070 H   0  0  0  0  0  0  0  0  0  0  0  0
   49.6040   31.4600   40.7980 N   0  0  0  0  0  0  0  0  0  0  0  0
   48.5090   30.7120   40.5240 C   0  0  0  0  0  0  0  0  0  0  0  0
   48.6520   30.0360   39.3450 N   0  0  0  0  0  0  0  0  0  0  0  0
   49.8510   30.3510   38.8540 C   0  0  0  0  0  0  0  0  0  0  0  0
   50.6310   30.0590   37.7530 C   0  0  0  0  0  0  0  0  0  0  0  0
   50.1360   29.2530   36.8950 O   0  0  0  0  0  0  0  0  0  0  0  0
   51.8590   30.5710   37.5500 N   0  0  0  0  0  0  0  0  0  0  0  0
   52.3880   31.4320   38.4680 C   0  0  0  0  0  0  0  0  0  0  0  0
   53.6890   31.9320   38.1850 N   0  0  0  0  0  0  0  0  0  0  0  0
   51.6500   31.7390   39.5560 N   0  0  0  0  0  0  0  0  0  0  0  0
   50.4230   31.2240   39.7550 C   0  0  0  0  0  0  0  0  0  0  0  0
   52.3490   30.2640   36.6650 H   0  0  0  0  0  0  0  0  0  0  0  0
   54.0080   32.5250   37.3720 H   0  0  0  0  0  0  0  0  0  0  0  0
   54.3150   31.6060   38.9450 H   0  0  0  0  0  0  0  0  0  0  0  0
  1  2  1  0  0  0  0
  1 27  1  0  0  0  0
  3  1  1  0  0  0  0
  4 20  1  0  0  0  0
  5  4  2  0  0  0  0
  5  1  1  0  0  0  0
  6  5  1  0  0  0  0
  7  6  1  0  0  0  0
  7 12  1  0  0  0  0
  8  7  2  0  0  0  0
  9  8  1  0  0  0  0
  9 10  2  0  0  0  0
 10 11  1  0  0  0  0
 11 12  2  0  0  0  0
 11 17  1  0  0  0  0
 12  4  1  0  0  0  0
 13  6  1  0  0  0  0
 14  8  1  0  0  0  0
 15  9  1  0  0  0  0
 16 10  1  0  0  0  0
 18 24  1  0  0  0  0
 18 23  1  0  0  0  0
 19 18  2  0  0  0  0
 20 19  1  0  0  0  0
 20 21  2  0  0  0  0
 21 22  1  0  0  0  0
 22 23  2  0  0  0  0
 22 26  1  0  0  0  0
 25 19  1  0  0  0  0
 27 28  1  0  0  0  0
 27 29  1  0  0  0  0
 30 33  1  6  0  0  0
 30 32  1  0  0  0  0
 30 31  1  0  0  0  0
 30 27  1  0  0  0  0
 31 34  1  0  0  0  0
 32 31  1  0  0  0  0
 32 36  1  1  0  0  0
 35 31  1  0  0  0  0
 37 32  1  0  0  0  0
 38 37  1  0  0  0  0
 39 38  2  0  0  0  0
 40 39  1  0  0  0  0
 40 47  2  0  0  0  0
 41 40  1  0  0  0  0
 42 41  2  0  0  0  0
 43 41  1  0  0  0  0
 43 44  1  0  0  0  0
 44 46  2  0  0  0  0
 45 44  1  0  0  0  0
 45 50  1  0  0  0  0
 46 47  1  0  0  0  0
 47 37  1  0  0  0  0
 48 43  1  0  0  0  0
 49 45  1  0  0  0  0
M  END
>  <minimizedAffinity>
-6.64750433

>  <minimizedRMSD>
1.49047875

$$$$
