
 OpenBabel03232519483D

 48 52  0  0  1  0  0  0  0  0999 V2000
   45.6670   33.5150   41.2550 N   0  0  0  0  0  0  0  0  0  0  0  0
   46.8730   33.4990   40.4330 C   0  0  0  0  0  0  0  0  0  0  0  0
   46.2550   33.5540   39.0560 C   0  0  0  0  0  0  0  0  0  0  0  0
   45.2200   32.4700   39.1690 C   0  0  0  0  0  0  0  0  0  0  0  0
   44.6950   32.6620   40.5550 C   0  0  2  0  0  0  0  0  0  0  0  0
   47.4750   32.5930   40.5710 H   0  0  0  0  0  0  0  0  0  0  0  0
   47.4300   34.4370   40.6430 H   0  0  0  0  0  0  0  0  0  0  0  0
   47.0470   33.2500   38.3350 H   0  0  0  0  0  0  0  0  0  0  0  0
   45.8490   34.5500   38.8600 H   0  0  0  0  0  0  0  0  0  0  0  0
   45.7480   31.5110   38.9950 H   0  0  0  0  0  0  0  0  0  0  0  0
   44.4390   32.5580   38.3890 H   0  0  0  0  0  0  0  0  0  0  0  0
   44.8310   31.6650   41.0480 H   0  0  0  0  0  0  0  0  0  0  0  0
   44.7890   36.1030   43.7690 C   0  0  0  0  0  0  0  0  0  0  0  0
   45.0110   35.5050   42.5140 C   0  0  0  0  0  0  0  0  0  0  0  0
   45.4260   34.1760   42.4560 C   0  0  0  0  0  0  0  0  0  0  0  0
   45.5900   33.5360   43.6510 N   0  0  0  0  0  0  0  0  0  0  0  0
   45.3780   34.1060   44.8460 C   0  0  0  0  0  0  0  0  0  0  0  0
   44.9760   35.3920   44.8980 N   0  0  0  0  0  0  0  0  0  0  0  0
   44.4670   37.1390   43.7730 H   0  0  0  0  0  0  0  0  0  0  0  0
   44.8740   36.0330   41.5910 H   0  0  0  0  0  0  0  0  0  0  0  0
   45.5680   33.3800   46.0560 N   0  0  0  0  0  0  0  0  0  0  0  0
   44.9570   33.7310   47.2220 C   0  0  0  0  0  0  0  0  0  0  0  0
   45.2680   32.9150   48.2550 N   0  0  0  0  0  0  0  0  0  0  0  0
   46.1170   31.9980   47.7210 C   0  0  0  0  0  0  0  0  0  0  0  0
   46.8070   30.8960   48.2020 C   0  0  0  0  0  0  0  0  0  0  0  0
   46.6800   30.5870   49.4180 O   0  0  0  0  0  0  0  0  0  0  0  0
   47.5900   30.1840   47.3700 N   0  0  0  0  0  0  0  0  0  0  0  0
   47.7480   30.4920   46.0510 C   0  0  0  0  0  0  0  0  0  0  0  0
   48.6040   29.6640   45.2700 N   0  0  0  0  0  0  0  0  0  0  0  0
   47.0790   31.5730   45.5560 N   0  0  0  0  0  0  0  0  0  0  0  0
   46.2920   32.2920   46.3810 C   0  0  0  0  0  0  0  0  0  0  0  0
   48.0880   29.3600   47.7940 H   0  0  0  0  0  0  0  0  0  0  0  0
   48.2020   28.7300   45.0300 H   0  0  0  0  0  0  0  0  0  0  0  0
   49.5750   29.8600   44.9070 H   0  0  0  0  0  0  0  0  0  0  0  0
   43.3520   33.0980   40.6670 N   0  0  0  0  0  0  0  0  0  0  0  0
   42.7520   34.0760   39.9920 C   0  0  0  0  0  0  0  0  0  0  0  0
   41.4210   34.4190   40.1840 C   0  0  0  0  0  0  0  0  0  0  0  0
   40.6650   33.7340   41.1080 C   0  0  0  0  0  0  0  0  0  0  0  0
   39.4320   34.0070   41.3270 O   0  0  0  0  0  0  0  0  0  0  0  0
   41.2740   32.7500   41.7860 N   0  0  0  0  0  0  0  0  0  0  0  0
   42.5480   32.4570   41.5680 C   0  0  0  0  0  0  0  0  0  0  0  0
   43.0280   31.5070   42.2650 O   0  0  0  0  0  0  0  0  0  0  0  0
   43.3670   34.6080   39.2630 H   0  0  0  0  0  0  0  0  0  0  0  0
   40.6940   32.2370   42.4840 H   0  0  0  0  0  0  0  0  0  0  0  0
   40.7840   35.5150   39.4140 C   0  0  0  0  0  0  0  0  0  0  0  0
   41.3800   35.7480   38.4920 H   0  0  0  0  0  0  0  0  0  0  0  0
   39.7810   35.1280   39.0820 H   0  0  0  0  0  0  0  0  0  0  0  0
   40.5990   36.3840   40.0510 H   0  0  0  0  0  0  0  0  0  0  0  0
  1 15  1  0  0  0  0
  2  6  1  0  0  0  0
  2  7  1  0  0  0  0
  2  1  1  0  0  0  0
  3  4  1  0  0  0  0
  3  2  1  0  0  0  0
  4  5  1  0  0  0  0
  5 35  1  0  0  0  0
  5 12  1  1  0  0  0
  5  1  1  0  0  0  0
  8  3  1  0  0  0  0
  9  3  1  0  0  0  0
 10  4  1  0  0  0  0
 11  4  1  0  0  0  0
 13 19  1  0  0  0  0
 13 18  1  0  0  0  0
 14 13  2  0  0  0  0
 15 14  1  0  0  0  0
 15 16  2  0  0  0  0
 16 17  1  0  0  0  0
 17 18  2  0  0  0  0
 17 21  1  0  0  0  0
 20 14  1  0  0  0  0
 21 31  1  0  0  0  0
 21 22  1  0  0  0  0
 22 23  2  0  0  0  0
 24 25  1  0  0  0  0
 24 23  1  0  0  0  0
 25 26  2  0  0  0  0
 27 32  1  0  0  0  0
 27 25  1  0  0  0  0
 28 27  1  0  0  0  0
 29 28  1  0  0  0  0
 30 28  2  0  0  0  0
 30 31  1  0  0  0  0
 31 24  2  0  0  0  0
 33 29  1  0  0  0  0
 34 29  1  0  0  0  0
 35 41  1  0  0  0  0
 36 37  2  0  0  0  0
 36 35  1  0  0  0  0
 37 38  1  0  0  0  0
 38 39  2  0  0  0  0
 38 40  1  0  0  0  0
 40 44  1  0  0  0  0
 41 40  1  0  0  0  0
 41 42  2  0  0  0  0
 43 36  1  0  0  0  0
 45 48  1  0  0  0  0
 45 37  1  0  0  0  0
 46 45  1  0  0  0  0
 47 45  1  0  0  0  0
M  END
>  <minimizedAffinity>
-6.96665478

>  <minimizedRMSD>
1.1613096

$$$$
