
 OpenBabel03232520323D

 47 52  0  0  1  0  0  0  0  0999 V2000
   49.2190   35.3850   41.9780 C   0  0  0  0  0  0  0  0  0  0  0  0
   49.7640   36.2320   41.5100 H   0  0  0  0  0  0  0  0  0  0  0  0
   48.6550   35.8220   42.8270 H   0  0  0  0  0  0  0  0  0  0  0  0
   46.9510   34.4620   41.3540 C   0  0  0  0  0  0  0  0  0  0  0  0
   48.2500   34.7830   41.0230 C   0  0  0  0  0  0  0  0  0  0  0  0
   48.5040   34.4810   39.7540 N   0  0  0  0  0  0  0  0  0  0  0  0
   47.3630   33.9600   39.2510 C   0  0  0  0  0  0  0  0  0  0  0  0
   47.0910   33.4830   37.9640 C   0  0  0  0  0  0  0  0  0  0  0  0
   45.8410   33.0000   37.7070 C   0  0  0  0  0  0  0  0  0  0  0  0
   44.8120   32.9440   38.6250 C   0  0  0  0  0  0  0  0  0  0  0  0
   45.1410   33.4290   39.8760 C   0  0  0  0  0  0  0  0  0  0  0  0
   46.3720   33.9280   40.2090 C   0  0  0  0  0  0  0  0  0  0  0  0
   49.3900   34.5950   39.1780 H   0  0  0  0  0  0  0  0  0  0  0  0
   47.8360   33.4870   37.1780 H   0  0  0  0  0  0  0  0  0  0  0  0
   45.6460   32.6310   36.6950 H   0  0  0  0  0  0  0  0  0  0  0  0
   43.8220   32.5630   38.4250 H   0  0  0  0  0  0  0  0  0  0  0  0
   44.4190   33.4430   40.6970 H   0  0  0  0  0  0  0  0  0  0  0  0
   44.8080   35.8790   44.0550 C   0  0  0  0  0  0  0  0  0  0  0  0
   45.4510   35.7350   42.8120 C   0  0  0  0  0  0  0  0  0  0  0  0
   46.2750   34.6290   42.6330 C   0  0  0  0  0  0  0  0  0  0  0  0
   46.4300   33.7320   43.6590 N   0  0  0  0  0  0  0  0  0  0  0  0
   45.7820   33.9220   44.8410 C   0  0  0  0  0  0  0  0  0  0  0  0
   44.9740   34.9920   45.0370 N   0  0  0  0  0  0  0  0  0  0  0  0
   44.1830   36.7670   44.1160 H   0  0  0  0  0  0  0  0  0  0  0  0
   45.3500   36.4260   41.9830 H   0  0  0  0  0  0  0  0  0  0  0  0
   45.9120   33.2010   45.6490 H   0  0  0  0  0  0  0  0  0  0  0  0
   50.1540   34.3620   42.5290 C   0  0  0  0  0  0  0  0  0  0  0  0
   51.2010   34.7150   42.3400 H   0  0  0  0  0  0  0  0  0  0  0  0
   50.0840   34.2700   43.6450 H   0  0  0  0  0  0  0  0  0  0  0  0
   50.0570   33.0050   41.8850 C   0  0  1  0  0  0  0  0  0  0  0  0
   51.2030   32.2450   41.4110 C   0  0  0  0  0  0  0  0  0  0  0  0
   50.6480   31.8680   42.7410 C   0  0  2  0  0  0  0  0  0  0  0  0
   49.0820   32.7680   41.3730 H   0  0  0  0  0  0  0  0  0  0  0  0
   52.1850   32.7670   41.4420 H   0  0  0  0  0  0  0  0  0  0  0  0
   51.0970   31.5580   40.5520 H   0  0  0  0  0  0  0  0  0  0  0  0
   51.2240   32.1340   43.6470 H   0  0  0  0  0  0  0  0  0  0  0  0
   49.9690   30.6780   42.8140 O   0  0  0  0  0  0  0  0  0  0  0  0
   46.9410   28.9120   47.2280 H   0  0  0  0  0  0  0  0  0  0  0  0
   47.3460   29.3570   46.3750 N   0  0  0  0  0  0  0  0  0  0  0  0
   46.7570   30.3050   45.6070 C   0  0  0  0  0  0  0  0  0  0  0  0
   47.5590   30.6650   44.5740 N   0  0  0  0  0  0  0  0  0  0  0  0
   48.6800   29.9550   44.6570 C   0  0  0  0  0  0  0  0  0  0  0  0
   49.8490   29.8650   43.9250 C   0  0  0  0  0  0  0  0  0  0  0  0
   50.8490   29.0280   44.2570 N   0  0  0  0  0  0  0  0  0  0  0  0
   50.6860   28.2560   45.3480 C   0  0  0  0  0  0  0  0  0  0  0  0
   49.5610   28.2880   46.1210 N   0  0  0  0  0  0  0  0  0  0  0  0
   48.5520   29.1360   45.7810 C   0  0  0  0  0  0  0  0  0  0  0  0
  1 27  1  0  0  0  0
  1  3  1  0  0  0  0
  2  1  1  0  0  0  0
  4 20  1  0  0  0  0
  5  4  2  0  0  0  0
  5  1  1  0  0  0  0
  6  5  1  0  0  0  0
  7  6  1  0  0  0  0
  7 12  1  0  0  0  0
  8  7  2  0  0  0  0
  9  8  1  0  0  0  0
  9 10  2  0  0  0  0
 10 11  1  0  0  0  0
 11 12  2  0  0  0  0
 11 17  1  0  0  0  0
 12  4  1  0  0  0  0
 13  6  1  0  0  0  0
 14  8  1  0  0  0  0
 15  9  1  0  0  0  0
 16 10  1  0  0  0  0
 18 24  1  0  0  0  0
 18 23  1  0  0  0  0
 19 18  2  0  0  0  0
 20 19  1  0  0  0  0
 20 21  2  0  0  0  0
 21 22  1  0  0  0  0
 22 23  2  0  0  0  0
 22 26  1  0  0  0  0
 25 19  1  0  0  0  0
 27 29  1  0  0  0  0
 28 27  1  0  0  0  0
 30 33  1  6  0  0  0
 30 27  1  0  0  0  0
 30 32  1  0  0  0  0
 31 34  1  0  0  0  0
 31 30  1  0  0  0  0
 31 32  1  0  0  0  0
 32 37  1  0  0  0  0
 32 36  1  1  0  0  0
 35 31  1  0  0  0  0
 37 43  1  0  0  0  0
 39 38  1  0  0  0  0
 40 39  1  0  0  0  0
 41 42  1  0  0  0  0
 41 40  2  0  0  0  0
 42 47  1  0  0  0  0
 43 44  1  0  0  0  0
 43 42  2  0  0  0  0
 44 45  2  0  0  0  0
 45 46  1  0  0  0  0
 47 46  2  0  0  0  0
 47 39  1  0  0  0  0
M  END
>  <minimizedAffinity>
-5.90230083

>  <minimizedRMSD>
2.80153465

$$$$
