
 OpenBabel03232519593D

 30 33  0  0  1  0  0  0  0  0999 V2000
   45.7040   34.0190   42.2470 N   0  0  0  0  0  0  0  0  0  0  0  0
   46.6870   34.5050   41.5390 C   0  0  0  0  0  0  0  0  0  0  0  0
   46.5420   34.0600   40.2080 C   0  0  0  0  0  0  0  0  0  0  0  0
   45.4490   33.3040   40.1670 N   0  0  0  0  0  0  0  0  0  0  0  0
   44.9180   33.2660   41.4110 C   0  0  0  0  0  0  0  0  0  0  0  0
   47.1110   34.2130   39.3000 H   0  0  0  0  0  0  0  0  0  0  0  0
   44.0210   32.7220   41.6740 H   0  0  0  0  0  0  0  0  0  0  0  0
   44.7280   35.3980   43.9350 C   0  0  0  0  0  0  0  0  0  0  0  0
   45.4340   34.1880   43.5950 C   0  0  0  0  0  0  0  0  0  0  0  0
   45.7430   33.3670   44.6450 C   0  0  0  0  0  0  0  0  0  0  0  0
   45.3870   33.7120   45.9010 N   0  0  0  0  0  0  0  0  0  0  0  0
   44.7350   34.8370   46.1900 C   0  0  0  0  0  0  0  0  0  0  0  0
   44.4000   35.6930   45.1970 N   0  0  0  0  0  0  0  0  0  0  0  0
   44.4290   36.1270   43.1910 H   0  0  0  0  0  0  0  0  0  0  0  0
   46.2650   32.4880   44.3200 H   0  0  0  0  0  0  0  0  0  0  0  0
   44.4950   35.0260   47.2260 H   0  0  0  0  0  0  0  0  0  0  0  0
   47.8400   35.3810   41.8390 C   0  0  2  0  0  0  0  0  0  0  0  0
   48.9250   35.5340   40.8110 C   0  0  0  0  0  0  0  0  0  0  0  0
   49.2010   34.7190   42.0330 C   0  0  2  0  0  0  0  0  0  0  0  0
   47.5920   36.2280   42.4820 H   0  0  0  0  0  0  0  0  0  0  0  0
   49.4080   36.5460   40.7320 H   0  0  0  0  0  0  0  0  0  0  0  0
   48.9620   34.9910   39.8770 H   0  0  0  0  0  0  0  0  0  0  0  0
   49.8210   35.2250   42.7980 H   0  0  0  0  0  0  0  0  0  0  0  0
   49.2970   33.2860   41.9470 N   0  0  0  0  0  0  0  0  0  0  0  0
   48.9140   32.6210   43.0470 N   0  0  0  0  0  0  0  0  0  0  0  0
   49.0530   31.2920   42.8350 C   0  0  0  0  0  0  0  0  0  0  0  0
   48.8180   30.4920   43.5550 H   0  0  0  0  0  0  0  0  0  0  0  0
   49.5380   31.0900   41.5680 C   0  0  0  0  0  0  0  0  0  0  0  0
   49.6700   32.3680   41.0630 C   0  0  0  0  0  0  0  0  0  0  0  0
   50.0180   32.7110   40.0950 H   0  0  0  0  0  0  0  0  0  0  0  0
  1  9  1  0  0  0  0
  2 17  1  0  0  0  0
  2  1  1  0  0  0  0
  3  2  2  0  0  0  0
  4  3  1  0  0  0  0
  4  5  2  0  0  0  0
  5  7  1  0  0  0  0
  5  1  1  0  0  0  0
  6  3  1  0  0  0  0
  8 13  1  0  0  0  0
  9  8  2  0  0  0  0
  9 10  1  0  0  0  0
 10 11  2  0  0  0  0
 11 12  1  0  0  0  0
 12 16  1  0  0  0  0
 13 12  2  0  0  0  0
 14  8  1  0  0  0  0
 15 10  1  0  0  0  0
 17 19  1  0  0  0  0
 17 20  1  1  0  0  0
 18 17  1  0  0  0  0
 18 19  1  0  0  0  0
 19 23  1  1  0  0  0
 21 18  1  0  0  0  0
 22 18  1  0  0  0  0
 24 19  1  0  0  0  0
 24 25  1  0  0  0  0
 26 25  2  0  0  0  0
 26 27  1  0  0  0  0
 28 26  1  0  0  0  0
 29 28  2  0  0  0  0
 29 24  1  0  0  0  0
 30 29  1  0  0  0  0
M  END
>  <minimizedAffinity>
-4.58935404

>  <minimizedRMSD>
0.65496403

$$$$
