
 OpenBabel03232516033D

 42 45  0  0  0  0  0  0  0  0999 V2000
   47.9390   33.1080   42.2890 C   0  0  0  0  0  0  0  0  0  0  0  0
   49.0160   33.3560   42.5020 H   0  0  0  0  0  0  0  0  0  0  0  0
   47.5860   32.6310   43.2470 H   0  0  0  0  0  0  0  0  0  0  0  0
   47.2480   34.4190   42.0450 C   0  0  0  0  0  0  0  0  0  0  0  0
   44.6630   35.9860   44.3340 C   0  0  0  0  0  0  0  0  0  0  0  0
   45.4730   35.8160   43.1830 C   0  0  0  0  0  0  0  0  0  0  0  0
   46.3560   34.7240   43.1510 C   0  0  0  0  0  0  0  0  0  0  0  0
   46.3740   33.9120   44.2200 N   0  0  0  0  0  0  0  0  0  0  0  0
   45.5810   34.1060   45.3090 C   0  0  0  0  0  0  0  0  0  0  0  0
   44.7360   35.1340   45.3590 N   0  0  0  0  0  0  0  0  0  0  0  0
   43.9820   36.8260   44.3570 H   0  0  0  0  0  0  0  0  0  0  0  0
   45.4510   36.4650   42.3410 H   0  0  0  0  0  0  0  0  0  0  0  0
   45.6060   33.4390   46.1680 H   0  0  0  0  0  0  0  0  0  0  0  0
   46.3670   34.2060   40.8010 C   0  0  0  0  0  0  0  0  0  0  0  0
   45.6340   33.4040   41.0370 H   0  0  0  0  0  0  0  0  0  0  0  0
   45.8160   35.1210   40.5330 H   0  0  0  0  0  0  0  0  0  0  0  0
   47.0650   33.8880   39.9940 H   0  0  0  0  0  0  0  0  0  0  0  0
   48.2660   35.4510   41.7400 C   0  0  0  0  0  0  0  0  0  0  0  0
   47.8450   36.4510   42.0150 H   0  0  0  0  0  0  0  0  0  0  0  0
   49.2120   35.2570   42.3030 H   0  0  0  0  0  0  0  0  0  0  0  0
   48.4990   35.5120   40.6700 H   0  0  0  0  0  0  0  0  0  0  0  0
   47.7940   32.2290   41.2160 O   0  0  0  0  0  0  0  0  0  0  0  0
   48.9270   31.8240   40.5300 C   0  0  0  0  0  0  0  0  0  0  0  0
   50.1850   32.2460   40.8850 N   0  0  0  0  0  0  0  0  0  0  0  0
   51.0450   31.7160   40.0810 O   0  0  0  0  0  0  0  0  0  0  0  0
   50.4770   30.9670   39.2060 C   0  0  0  0  0  0  0  0  0  0  0  0
   49.1860   31.0270   39.4740 N   0  0  0  0  0  0  0  0  0  0  0  0
   51.0550   30.2310   38.1820 O   0  0  0  0  0  0  0  0  0  0  0  0
   51.5950   30.4300   34.7910 N   0  0  0  0  0  0  0  0  0  0  0  0
   51.8380   30.0440   36.0600 N   0  0  0  0  0  0  0  0  0  0  0  0
   50.8730   30.5790   36.8670 C   0  0  0  0  0  0  0  0  0  0  0  0
   50.0390   31.2960   36.0550 C   0  0  0  0  0  0  0  0  0  0  0  0
   50.4960   31.1980   34.7610 C   0  0  0  0  0  0  0  0  0  0  0  0
   52.1070   30.2240   33.9070 H   0  0  0  0  0  0  0  0  0  0  0  0
   49.2070   31.7970   36.5140 H   0  0  0  0  0  0  0  0  0  0  0  0
   49.8510   31.8350   33.6650 N   0  0  0  0  0  0  0  0  0  0  0  0
   48.8960   32.7470   33.5810 N   0  0  0  0  0  0  0  0  0  0  0  0
   48.6270   33.0260   32.2880 C   0  0  0  0  0  0  0  0  0  0  0  0
   47.8910   33.7360   31.9460 H   0  0  0  0  0  0  0  0  0  0  0  0
   49.4710   32.2340   31.5120 C   0  0  0  0  0  0  0  0  0  0  0  0
   50.2190   31.5040   32.3990 C   0  0  0  0  0  0  0  0  0  0  0  0
   50.9540   30.8100   32.0050 H   0  0  0  0  0  0  0  0  0  0  0  0
  1  2  1  0  0  0  0
  1  3  1  0  0  0  0
  4  1  1  0  0  0  0
  4  7  1  0  0  0  0
  5 11  1  0  0  0  0
  5 10  1  0  0  0  0
  6  5  2  0  0  0  0
  7  6  1  0  0  0  0
  7  8  2  0  0  0  0
  8  9  1  0  0  0  0
  9 10  2  0  0  0  0
  9 13  1  0  0  0  0
 12  6  1  0  0  0  0
 14 15  1  0  0  0  0
 14  4  1  0  0  0  0
 16 14  1  0  0  0  0
 17 14  1  0  0  0  0
 18 19  1  0  0  0  0
 18  4  1  0  0  0  0
 18 20  1  0  0  0  0
 21 18  1  0  0  0  0
 22  1  1  0  0  0  0
 23 24  2  0  0  0  0
 23 22  1  0  0  0  0
 25 24  1  0  0  0  0
 26 27  2  0  0  0  0
 26 25  1  0  0  0  0
 27 23  1  0  0  0  0
 28 26  1  0  0  0  0
 29 30  1  0  0  0  0
 30 31  2  0  0  0  0
 31 28  1  0  0  0  0
 32 35  1  0  0  0  0
 32 31  1  0  0  0  0
 33 29  1  0  0  0  0
 33 32  2  0  0  0  0
 34 29  1  0  0  0  0
 36 33  1  0  0  0  0
 37 36  1  0  0  0  0
 38 37  2  0  0  0  0
 39 38  1  0  0  0  0
 40 38  1  0  0  0  0
 40 41  2  0  0  0  0
 41 36  1  0  0  0  0
 42 41  1  0  0  0  0
M  END
>  <minimizedAffinity>
-5.38122177

>  <minimizedRMSD>
1.11647701

$$$$
