REMARK  Name = 
REMARK  4 active torsions:
REMARK  status: ('A' for Active; 'I' for Inactive)
REMARK    1  A    between atoms: C_1  and  C_8
REMARK    2  A    between atoms: C_4  and  C_19
REMARK    3  A    between atoms: C_9  and  C_14
REMARK    4  A    between atoms: N_17  and  C_36
REMARK                            x       y       z     vdW  Elec       q    Type
REMARK                         _______ _______ _______ _____ _____    ______ ____
ROOT
ATOM      1  C   UNL     1      45.404  32.886  47.530  0.00  0.00    +0.000 A 
ATOM      2  C   UNL     1      45.921  32.637  46.301  0.00  0.00    +0.000 A 
ATOM      3  C   UNL     1      46.151  31.285  46.028  0.00  0.00    +0.000 A 
ATOM      4  N   UNL     1      45.887  30.282  46.904  0.00  0.00    +0.000 NA
ATOM      5  C   UNL     1      45.359  30.589  48.150  0.00  0.00    +0.000 A 
ATOM      6  N   UNL     1      45.133  31.868  48.429  0.00  0.00    +0.000 NA
ATOM      7  N   UNL     1      45.083  29.569  49.091  0.00  0.00    +0.000 N 
ATOM      8  H   UNL     1      45.193  33.897  47.843  0.00  0.00    +0.000 HD
ATOM      9  H   UNL     1      44.266  28.918  48.933  0.00  0.00    +0.000 HD
ATOM     10  H   UNL     1      45.755  29.560  49.897  0.00  0.00    +0.000 HD
ENDROOT
BRANCH   2  11
ATOM     11  C   UNL     1      46.163  33.599  45.279  0.00  0.00    +0.000 C 
ATOM     12  C   UNL     1      44.915  34.659  45.496  0.00  0.00    +0.000 C 
ATOM     13  C   UNL     1      44.680  35.595  44.431  0.00  0.00    +0.000 C 
ATOM     14  C   UNL     1      45.505  35.549  43.219  0.00  0.00    +0.000 C 
ATOM     15  C   UNL     1      46.586  34.571  43.181  0.00  0.00    +0.000 C 
ATOM     16  C   UNL     1      46.155  33.323  43.915  0.00  0.00    +0.000 C 
ATOM     17  H   UNL     1      46.908  34.371  45.640  0.00  0.00    +0.000 HD
ATOM     18  H   UNL     1      44.220  34.779  46.318  0.00  0.00    +0.000 HD
ATOM     19  H   UNL     1      43.888  36.295  44.535  0.00  0.00    +0.000 HD
ATOM     20  H   UNL     1      45.913  36.565  43.036  0.00  0.00    +0.000 HD
ATOM     21  H   UNL     1      47.508  34.943  43.683  0.00  0.00    +0.000 HD
ATOM     22  H   UNL     1      46.839  34.370  42.099  0.00  0.00    +0.000 HD
ATOM     23  H   UNL     1      47.019  32.690  43.583  0.00  0.00    +0.000 HD
ATOM     24  H   UNL     1      45.196  32.939  43.508  0.00  0.00    +0.000 HD
BRANCH  14  25
ATOM     25  C   UNL     1      44.515  35.266  42.049  0.00  0.00    +0.000 C 
ATOM     26  F   UNL     1      43.462  34.451  42.424  0.00  0.00    +0.000 F 
ATOM     27  F   UNL     1      43.957  36.494  41.705  0.00  0.00    +0.000 F 
ATOM     28  F   UNL     1      45.215  34.814  40.946  0.00  0.00    +0.000 F 
ENDBRANCH  14  25
ENDBRANCH   2  11
BRANCH   3  29
ATOM     29  C   UNL     1      46.750  30.598  44.898  0.00  0.00    +0.000 A 
ATOM     30  C   UNL     1      46.367  29.921  43.785  0.00  0.00    +0.000 A 
ATOM     31  C   UNL     1      47.514  29.470  43.126  0.00  0.00    +0.000 A 
ATOM     32  N   UNL     1      48.540  29.893  43.866  0.00  0.00    +0.000 N 
ATOM     33  N   UNL     1      48.114  30.559  44.913  0.00  0.00    +0.000 NA
ATOM     34  H   UNL     1      45.309  29.842  43.596  0.00  0.00    +0.000 HD
ATOM     35  H   UNL     1      47.440  28.902  42.209  0.00  0.00    +0.000 HD
BRANCH  32  36
ATOM     36  C   UNL     1      49.941  29.620  43.510  0.00  0.00    +0.000 C 
ATOM     37  C   UNL     1      50.509  28.771  44.578  0.00  0.00    +0.000 C 
ATOM     38  C   UNL     1      51.366  27.629  44.167  0.00  0.00    +0.000 C 
ATOM     39  C   UNL     1      50.778  26.924  42.940  0.00  0.00    +0.000 C 
ATOM     40  C   UNL     1      50.919  27.972  41.846  0.00  0.00    +0.000 C 
ATOM     41  C   UNL     1      50.000  29.102  42.130  0.00  0.00    +0.000 C 
ENDBRANCH  32  36
ENDBRANCH   3  29
TORSDOF 4
