
 OpenBabel03232520423D

 41 44  0  0  1  0  0  0  0  0999 V2000
   38.5840   33.2890   38.7040 N   0  0  0  0  0  0  0  0  0  0  0  0
   38.3900   34.0530   39.9090 C   0  0  0  0  0  0  0  0  0  0  0  0
   39.4440   33.7130   40.9560 C   0  0  0  0  0  0  0  0  0  0  0  0
   40.7930   34.0350   40.3680 C   0  0  1  0  0  0  0  0  0  0  0  0
   40.7430   34.4490   38.9230 C   0  0  0  0  0  0  0  0  0  0  0  0
   39.8860   33.4970   38.1120 C   0  0  1  0  0  0  0  0  0  0  0  0
   37.7870   33.4290   38.0750 H   0  0  0  0  0  0  0  0  0  0  0  0
   38.3280   35.1420   39.7300 H   0  0  0  0  0  0  0  0  0  0  0  0
   37.4280   33.7150   40.3590 H   0  0  0  0  0  0  0  0  0  0  0  0
   39.2280   34.2480   41.8810 H   0  0  0  0  0  0  0  0  0  0  0  0
   39.3120   32.6330   41.1870 H   0  0  0  0  0  0  0  0  0  0  0  0
   41.3760   33.0930   40.4020 H   0  0  0  0  0  0  0  0  0  0  0  0
   40.2800   35.4570   38.8540 H   0  0  0  0  0  0  0  0  0  0  0  0
   41.7680   34.3920   38.5360 H   0  0  0  0  0  0  0  0  0  0  0  0
   39.6870   34.0270   37.1390 H   0  0  0  0  0  0  0  0  0  0  0  0
   40.5230   32.2500   37.8230 N   0  0  0  0  0  0  0  0  0  0  0  0
   41.8060   31.9450   37.6560 N   0  0  0  0  0  0  0  0  0  0  0  0
   41.9330   30.6230   37.3960 C   0  0  0  0  0  0  0  0  0  0  0  0
   42.7740   29.9720   37.2010 H   0  0  0  0  0  0  0  0  0  0  0  0
   40.6370   30.0950   37.4080 C   0  0  0  0  0  0  0  0  0  0  0  0
   39.7770   31.1360   37.6770 C   0  0  0  0  0  0  0  0  0  0  0  0
   38.6930   31.0030   37.7440 H   0  0  0  0  0  0  0  0  0  0  0  0
   41.5580   35.2990   41.3780 S   0  0  0  0  0  0  0  0  0  0  0  0
   44.0180   35.4980   42.6530 C   0  0  0  0  0  0  0  0  0  0  0  0
   43.3280   35.0240   41.5390 C   0  0  0  0  0  0  0  0  0  0  0  0
   44.0360   34.3520   40.5870 C   0  0  0  0  0  0  0  0  0  0  0  0
   45.3760   34.1470   40.7190 N   0  0  0  0  0  0  0  0  0  0  0  0
   46.0210   34.6230   41.8200 C   0  0  0  0  0  0  0  0  0  0  0  0
   45.3480   35.2940   42.7820 N   0  0  0  0  0  0  0  0  0  0  0  0
   43.5020   36.0310   43.4250 H   0  0  0  0  0  0  0  0  0  0  0  0
   43.5950   33.9570   39.7060 H   0  0  0  0  0  0  0  0  0  0  0  0
   47.4490   34.4490   42.0390 C   0  0  0  0  0  0  0  0  0  0  0  0
   48.3030   35.4990   41.9470 C   0  0  0  0  0  0  0  0  0  0  0  0
   49.6750   35.3610   42.1520 C   0  0  0  0  0  0  0  0  0  0  0  0
   50.2020   34.1340   42.4570 C   0  0  0  0  0  0  0  0  0  0  0  0
   49.3110   33.0780   42.5470 C   0  0  0  0  0  0  0  0  0  0  0  0
   48.0000   33.2640   42.3400 N   0  0  0  0  0  0  0  0  0  0  0  0
   47.9490   36.5060   41.7050 H   0  0  0  0  0  0  0  0  0  0  0  0
   50.3560   36.2090   42.0750 H   0  0  0  0  0  0  0  0  0  0  0  0
   51.2480   33.9250   42.6340 H   0  0  0  0  0  0  0  0  0  0  0  0
   49.5970   32.0530   42.7820 H   0  0  0  0  0  0  0  0  0  0  0  0
  1  2  1  0  0  0  0
  2  9  1  0  0  0  0
  2  3  1  0  0  0  0
  3 11  1  0  0  0  0
  3 10  1  0  0  0  0
  4 12  1  1  0  0  0
  4  3  1  0  0  0  0
  4 23  1  0  0  0  0
  5  4  1  0  0  0  0
  6 15  1  6  0  0  0
  6  1  1  0  0  0  0
  6  5  1  0  0  0  0
  7  1  1  0  0  0  0
  8  2  1  0  0  0  0
 13  5  1  0  0  0  0
 14  5  1  0  0  0  0
 16  6  1  0  0  0  0
 17 16  1  0  0  0  0
 18 20  1  0  0  0  0
 18 17  2  0  0  0  0
 19 18  1  0  0  0  0
 20 21  2  0  0  0  0
 21 22  1  0  0  0  0
 21 16  1  0  0  0  0
 23 25  1  0  0  0  0
 24 29  1  0  0  0  0
 24 30  1  0  0  0  0
 25 24  2  0  0  0  0
 26 27  2  0  0  0  0
 26 25  1  0  0  0  0
 27 28  1  0  0  0  0
 28 32  1  0  0  0  0
 28 29  2  0  0  0  0
 31 26  1  0  0  0  0
 32 37  1  0  0  0  0
 33 32  2  0  0  0  0
 33 34  1  0  0  0  0
 34 35  2  0  0  0  0
 35 36  1  0  0  0  0
 35 40  1  0  0  0  0
 36 41  1  0  0  0  0
 37 36  2  0  0  0  0
 38 33  1  0  0  0  0
 39 34  1  0  0  0  0
M  END
>  <minimizedAffinity>
-5.87325573

>  <minimizedRMSD>
1.00150454

$$$$
