
 OpenBabel03232521013D

 41 44  0  0  1  0  0  0  0  0999 V2000
   45.3970   32.8470   47.4840 C   0  0  0  0  0  0  0  0  0  0  0  0
   45.9400   32.6030   46.2650 C   0  0  0  0  0  0  0  0  0  0  0  0
   46.1940   31.2540   45.9980 C   0  0  0  0  0  0  0  0  0  0  0  0
   45.9300   30.2490   46.8720 N   0  0  0  0  0  0  0  0  0  0  0  0
   45.3750   30.5510   48.1070 C   0  0  0  0  0  0  0  0  0  0  0  0
   45.1250   31.8270   48.3800 N   0  0  0  0  0  0  0  0  0  0  0  0
   45.0970   29.5280   49.0450 N   0  0  0  0  0  0  0  0  0  0  0  0
   45.1650   33.8550   47.7910 H   0  0  0  0  0  0  0  0  0  0  0  0
   44.2930   28.8650   48.8740 H   0  0  0  0  0  0  0  0  0  0  0  0
   45.7550   29.5310   49.8630 H   0  0  0  0  0  0  0  0  0  0  0  0
   46.1860   33.5670   45.2450 C   0  0  2  0  0  0  0  0  0  0  0  0
   44.9670   34.6540   45.4920 C   0  0  0  0  0  0  0  0  0  0  0  0
   44.7340   35.6030   44.4380 C   0  0  0  0  0  0  0  0  0  0  0  0
   45.5360   35.5470   43.2110 C   0  0  1  0  0  0  0  0  0  0  0  0
   46.5940   34.5440   43.1470 C   0  0  0  0  0  0  0  0  0  0  0  0
   46.1470   33.3010   43.8800 C   0  0  0  0  0  0  0  0  0  0  0  0
   46.9550   34.3190   45.5980 H   0  0  0  0  0  0  0  0  0  0  0  0
   44.2890   34.7840   46.3270 H   0  0  0  0  0  0  0  0  0  0  0  0
   43.9610   36.3200   44.5610 H   0  0  0  0  0  0  0  0  0  0  0  0
   45.9650   36.5540   43.0280 H   0  0  0  0  0  0  0  0  0  0  0  0
   47.5330   34.8910   43.6350 H   0  0  0  0  0  0  0  0  0  0  0  0
   46.8230   34.3460   42.0590 H   0  0  0  0  0  0  0  0  0  0  0  0
   46.9900   32.6510   43.5280 H   0  0  0  0  0  0  0  0  0  0  0  0
   45.1720   32.9430   43.4870 H   0  0  0  0  0  0  0  0  0  0  0  0
   44.5190   35.2950   42.0570 C   0  0  0  0  0  0  0  0  0  0  0  0
   43.4500   34.5090   42.4470 F   0  0  0  0  0  0  0  0  0  0  0  0
   43.9910   36.5400   41.7260 F   0  0  0  0  0  0  0  0  0  0  0  0
   45.1880   34.8270   40.9410 F   0  0  0  0  0  0  0  0  0  0  0  0
   46.8240   30.5740   44.8810 C   0  0  0  0  0  0  0  0  0  0  0  0
   46.4750   29.8210   43.8060 C   0  0  0  0  0  0  0  0  0  0  0  0
   47.6400   29.4430   43.1350 C   0  0  0  0  0  0  0  0  0  0  0  0
   48.6430   29.9820   43.8300 N   0  0  0  0  0  0  0  0  0  0  0  0
   48.1860   30.6530   44.8600 N   0  0  0  0  0  0  0  0  0  0  0  0
   45.4230   29.6440   43.6490 H   0  0  0  0  0  0  0  0  0  0  0  0
   47.5940   28.8320   42.2440 H   0  0  0  0  0  0  0  0  0  0  0  0
   50.0540   29.8150   43.4470 C   0  0  0  0  0  3  0  0  0  0  0  0
   50.1710   28.5120   42.7560 C   0  0  0  0  0  2  0  0  0  0  0  0
   51.0060   28.4560   41.5290 C   0  0  0  0  0  2  0  0  0  0  0  0
   50.7780   29.6990   40.6620 C   0  0  0  0  0  2  0  0  0  0  0  0
   51.3570   30.8190   41.5140 C   0  0  0  0  0  2  0  0  0  0  0  0
   50.5030   31.0120   42.7110 C   0  0  0  0  0  2  0  0  0  0  0  0
  1  8  1  0  0  0  0
  1  6  1  0  0  0  0
  2  1  2  0  0  0  0
  3  2  1  0  0  0  0
  3  4  2  0  0  0  0
  4  5  1  0  0  0  0
  5  6  2  0  0  0  0
  5  7  1  0  0  0  0
  7 10  1  0  0  0  0
  9  7  1  0  0  0  0
 11 12  1  0  0  0  0
 11 17  1  1  0  0  0
 11  2  1  0  0  0  0
 12 18  1  0  0  0  0
 13 19  1  0  0  0  0
 13 12  2  0  0  0  0
 14 20  1  6  0  0  0
 14 13  1  0  0  0  0
 15 14  1  0  0  0  0
 15 21  1  0  0  0  0
 15 16  1  0  0  0  0
 16 11  1  0  0  0  0
 22 15  1  0  0  0  0
 23 16  1  0  0  0  0
 24 16  1  0  0  0  0
 25 26  1  0  0  0  0
 25 14  1  0  0  0  0
 27 25  1  0  0  0  0
 28 25  1  0  0  0  0
 29  3  1  0  0  0  0
 30 29  1  0  0  0  0
 31 30  2  0  0  0  0
 31 32  1  0  0  0  0
 32 33  1  0  0  0  0
 33 29  2  0  0  0  0
 34 30  1  0  0  0  0
 35 31  1  0  0  0  0
 36 32  1  0  0  0  0
 37 36  1  0  0  0  0
 38 37  1  0  0  0  0
 39 40  1  0  0  0  0
 39 38  1  0  0  0  0
 40 41  1  0  0  0  0
 41 36  1  0  0  0  0
M  END
>  <minimizedAffinity>
-5.77987385

>  <minimizedRMSD>
0.126129135

$$$$
