
 OpenBabel03232521003D

 41 44  0  0  1  0  0  0  0  0999 V2000
   45.3530   32.9040   47.5080 C   0  0  0  0  0  0  0  0  0  0  0  0
   45.9170   32.6460   46.3020 C   0  0  0  0  0  0  0  0  0  0  0  0
   46.1930   31.2960   46.0640 C   0  0  0  0  0  0  0  0  0  0  0  0
   45.9280   30.3030   46.9520 N   0  0  0  0  0  0  0  0  0  0  0  0
   45.3500   30.6190   48.1730 C   0  0  0  0  0  0  0  0  0  0  0  0
   45.0800   31.8970   48.4190 N   0  0  0  0  0  0  0  0  0  0  0  0
   45.0720   29.6110   49.1250 N   0  0  0  0  0  0  0  0  0  0  0  0
   45.1040   33.9150   47.7940 H   0  0  0  0  0  0  0  0  0  0  0  0
   44.2780   28.9340   48.9540 H   0  0  0  0  0  0  0  0  0  0  0  0
   45.7160   29.6360   49.9530 H   0  0  0  0  0  0  0  0  0  0  0  0
   46.1660   33.5950   45.2690 C   0  0  2  0  0  0  0  0  0  0  0  0
   44.9500   34.6880   45.5000 C   0  0  0  0  0  0  0  0  0  0  0  0
   44.7210   35.6220   44.4320 C   0  0  0  0  0  0  0  0  0  0  0  0
   45.5230   35.5470   43.2060 C   0  0  1  0  0  0  0  0  0  0  0  0
   46.5780   34.5410   43.1570 C   0  0  0  0  0  0  0  0  0  0  0  0
   46.1280   33.3100   43.9080 C   0  0  0  0  0  0  0  0  0  0  0  0
   46.9370   34.3500   45.6120 H   0  0  0  0  0  0  0  0  0  0  0  0
   44.2720   34.8310   46.3320 H   0  0  0  0  0  0  0  0  0  0  0  0
   43.9490   36.3430   44.5440 H   0  0  0  0  0  0  0  0  0  0  0  0
   45.9540   36.5510   43.0090 H   0  0  0  0  0  0  0  0  0  0  0  0
   47.5180   34.8920   43.6410 H   0  0  0  0  0  0  0  0  0  0  0  0
   46.8070   34.3260   42.0730 H   0  0  0  0  0  0  0  0  0  0  0  0
   46.9690   32.6520   43.5660 H   0  0  0  0  0  0  0  0  0  0  0  0
   45.1520   32.9480   43.5200 H   0  0  0  0  0  0  0  0  0  0  0  0
   44.5070   35.2810   42.0550 C   0  0  0  0  0  0  0  0  0  0  0  0
   43.4480   34.4820   42.4500 F   0  0  0  0  0  0  0  0  0  0  0  0
   43.9610   36.5190   41.7240 F   0  0  0  0  0  0  0  0  0  0  0  0
   45.1780   34.8200   40.9380 F   0  0  0  0  0  0  0  0  0  0  0  0
   46.8480   30.6040   44.9690 C   0  0  0  0  0  0  0  0  0  0  0  0
   46.5240   29.8320   43.9000 C   0  0  0  0  0  0  0  0  0  0  0  0
   47.7050   29.4530   43.2550 C   0  0  0  0  0  0  0  0  0  0  0  0
   48.6900   30.0120   43.9590 N   0  0  0  0  0  0  0  0  0  0  0  0
   48.2090   30.6950   44.9710 N   0  0  0  0  0  0  0  0  0  0  0  0
   45.4770   29.6430   43.7280 H   0  0  0  0  0  0  0  0  0  0  0  0
   47.6790   28.8290   42.3730 H   0  0  0  0  0  0  0  0  0  0  0  0
   50.1090   29.8520   43.6030 C   0  0  0  0  0  3  0  0  0  0  0  0
   50.5790   28.5960   44.2250 C   0  0  0  0  0  2  0  0  0  0  0  0
   51.4430   27.7050   43.4080 C   0  0  0  0  0  2  0  0  0  0  0  0
   50.9350   27.6330   41.9640 C   0  0  0  0  0  2  0  0  0  0  0  0
   51.1780   29.0440   41.4470 C   0  0  0  0  0  2  0  0  0  0  0  0
   50.2610   29.9830   42.1420 C   0  0  0  0  0  2  0  0  0  0  0  0
  1  8  1  0  0  0  0
  1  6  1  0  0  0  0
  2  1  2  0  0  0  0
  3  2  1  0  0  0  0
  3  4  2  0  0  0  0
  4  5  1  0  0  0  0
  5  6  2  0  0  0  0
  5  7  1  0  0  0  0
  7 10  1  0  0  0  0
  9  7  1  0  0  0  0
 11 12  1  0  0  0  0
 11 17  1  1  0  0  0
 11  2  1  0  0  0  0
 12 18  1  0  0  0  0
 13 19  1  0  0  0  0
 13 12  2  0  0  0  0
 14 20  1  6  0  0  0
 14 13  1  0  0  0  0
 15 14  1  0  0  0  0
 15 21  1  0  0  0  0
 15 16  1  0  0  0  0
 16 11  1  0  0  0  0
 22 15  1  0  0  0  0
 23 16  1  0  0  0  0
 24 16  1  0  0  0  0
 25 26  1  0  0  0  0
 25 14  1  0  0  0  0
 27 25  1  0  0  0  0
 28 25  1  0  0  0  0
 29 33  2  0  0  0  0
 29  3  1  0  0  0  0
 30 29  1  0  0  0  0
 31 30  2  0  0  0  0
 31 32  1  0  0  0  0
 32 33  1  0  0  0  0
 34 30  1  0  0  0  0
 35 31  1  0  0  0  0
 36 32  1  0  0  0  0
 36 37  1  0  0  0  0
 38 37  1  0  0  0  0
 39 38  1  0  0  0  0
 40 39  1  0  0  0  0
 40 41  1  0  0  0  0
 41 36  1  0  0  0  0
M  END
>  <minimizedAffinity>
-5.63504028

>  <minimizedRMSD>
0.205772385

$$$$
