
 OpenBabel03232521003D

 41 44  0  0  1  0  0  0  0  0999 V2000
   45.3440   32.9160   47.4870 C   0  0  0  0  0  0  0  0  0  0  0  0
   45.9090   32.6590   46.2810 C   0  0  0  0  0  0  0  0  0  0  0  0
   46.1930   31.3100   46.0460 C   0  0  0  0  0  0  0  0  0  0  0  0
   45.9330   30.3170   46.9350 N   0  0  0  0  0  0  0  0  0  0  0  0
   45.3550   30.6330   48.1560 C   0  0  0  0  0  0  0  0  0  0  0  0
   45.0780   31.9090   48.3990 N   0  0  0  0  0  0  0  0  0  0  0  0
   45.0820   29.6240   49.1100 N   0  0  0  0  0  0  0  0  0  0  0  0
   45.0900   33.9260   47.7710 H   0  0  0  0  0  0  0  0  0  0  0  0
   44.2920   28.9430   48.9400 H   0  0  0  0  0  0  0  0  0  0  0  0
   45.7270   29.6540   49.9370 H   0  0  0  0  0  0  0  0  0  0  0  0
   46.1530   33.6070   45.2460 C   0  0  2  0  0  0  0  0  0  0  0  0
   44.9410   34.7030   45.4860 C   0  0  0  0  0  0  0  0  0  0  0  0
   44.7060   35.6390   44.4210 C   0  0  0  0  0  0  0  0  0  0  0  0
   45.4990   35.5610   43.1890 C   0  0  1  0  0  0  0  0  0  0  0  0
   46.5510   34.5520   43.1310 C   0  0  0  0  0  0  0  0  0  0  0  0
   46.1030   33.3220   43.8850 C   0  0  0  0  0  0  0  0  0  0  0  0
   46.9280   34.3600   45.5830 H   0  0  0  0  0  0  0  0  0  0  0  0
   44.2710   34.8490   46.3240 H   0  0  0  0  0  0  0  0  0  0  0  0
   43.9370   36.3620   44.5390 H   0  0  0  0  0  0  0  0  0  0  0  0
   45.9310   36.5640   42.9880 H   0  0  0  0  0  0  0  0  0  0  0  0
   47.4950   34.9010   43.6080 H   0  0  0  0  0  0  0  0  0  0  0  0
   46.7710   34.3370   42.0450 H   0  0  0  0  0  0  0  0  0  0  0  0
   46.9400   32.6630   43.5360 H   0  0  0  0  0  0  0  0  0  0  0  0
   45.1230   32.9630   43.5050 H   0  0  0  0  0  0  0  0  0  0  0  0
   44.4720   35.2990   42.0460 C   0  0  0  0  0  0  0  0  0  0  0  0
   43.4130   34.5060   42.4500 F   0  0  0  0  0  0  0  0  0  0  0  0
   43.9310   36.5380   41.7160 F   0  0  0  0  0  0  0  0  0  0  0  0
   45.1330   34.8320   40.9250 F   0  0  0  0  0  0  0  0  0  0  0  0
   46.8510   30.6200   44.9510 C   0  0  0  0  0  0  0  0  0  0  0  0
   46.5340   29.8150   43.9040 C   0  0  0  0  0  0  0  0  0  0  0  0
   47.7160   29.4650   43.2440 C   0  0  0  0  0  0  0  0  0  0  0  0
   48.6940   30.0730   43.9170 N   0  0  0  0  0  0  0  0  0  0  0  0
   48.2080   30.7580   44.9250 N   0  0  0  0  0  0  0  0  0  0  0  0
   45.4920   29.5870   43.7550 H   0  0  0  0  0  0  0  0  0  0  0  0
   47.6960   28.8230   42.3740 H   0  0  0  0  0  0  0  0  0  0  0  0
   50.1100   29.9550   43.5370 C   0  0  0  0  0  3  0  0  0  0  0  0
   50.6580   28.7740   44.2380 C   0  0  0  0  0  2  0  0  0  0  0  0
   51.5460   27.8660   43.4670 C   0  0  0  0  0  2  0  0  0  0  0  0
   51.0100   27.6610   42.0470 C   0  0  0  0  0  2  0  0  0  0  0  0
   51.1690   29.0380   41.4200 C   0  0  0  0  0  2  0  0  0  0  0  0
   50.2240   29.9810   42.0660 C   0  0  0  0  0  2  0  0  0  0  0  0
  1  8  1  0  0  0  0
  1  6  1  0  0  0  0
  2  1  2  0  0  0  0
  3  2  1  0  0  0  0
  3  4  2  0  0  0  0
  4  5  1  0  0  0  0
  5  6  2  0  0  0  0
  5  7  1  0  0  0  0
  7 10  1  0  0  0  0
  9  7  1  0  0  0  0
 11 12  1  0  0  0  0
 11 17  1  1  0  0  0
 11  2  1  0  0  0  0
 12 18  1  0  0  0  0
 13 19  1  0  0  0  0
 13 12  2  0  0  0  0
 14 20  1  6  0  0  0
 14 13  1  0  0  0  0
 15 14  1  0  0  0  0
 15 21  1  0  0  0  0
 15 16  1  0  0  0  0
 16 11  1  0  0  0  0
 22 15  1  0  0  0  0
 23 16  1  0  0  0  0
 24 16  1  0  0  0  0
 25 26  1  0  0  0  0
 25 14  1  0  0  0  0
 27 25  1  0  0  0  0
 28 25  1  0  0  0  0
 29  3  1  0  0  0  0
 30 29  1  0  0  0  0
 31 30  2  0  0  0  0
 31 32  1  0  0  0  0
 32 33  1  0  0  0  0
 33 29  2  0  0  0  0
 34 30  1  0  0  0  0
 35 31  1  0  0  0  0
 36 32  1  0  0  0  0
 36 37  1  0  0  0  0
 38 37  1  0  0  0  0
 39 38  1  0  0  0  0
 40 39  1  0  0  0  0
 40 41  1  0  0  0  0
 41 36  1  0  0  0  0
M  END
>  <minimizedAffinity>
-5.64119911

>  <minimizedRMSD>
0.286856472

$$$$
