
 OpenBabel03232520043D

 31 34  0  0  0  0  0  0  0  0999 V2000
   46.1750   30.3810   49.1540 N   0  0  0  0  0  0  0  0  0  0  0  0
   45.3260   31.3970   49.4470 C   0  0  0  0  0  0  0  0  0  0  0  0
   45.2440   32.2370   48.3860 N   0  0  0  0  0  0  0  0  0  0  0  0
   46.0680   31.6940   47.4530 C   0  0  0  0  0  0  0  0  0  0  0  0
   46.3090   32.2070   46.1950 C   0  0  0  0  0  0  0  0  0  0  0  0
   47.1750   31.5090   45.3990 N   0  0  0  0  0  0  0  0  0  0  0  0
   47.7650   30.3690   45.8290 C   0  0  0  0  0  0  0  0  0  0  0  0
   47.4940   29.9200   47.0570 N   0  0  0  0  0  0  0  0  0  0  0  0
   46.6600   30.5410   47.8980 C   0  0  0  0  0  0  0  0  0  0  0  0
   46.4710   29.5580   49.7390 H   0  0  0  0  0  0  0  0  0  0  0  0
   44.8120   31.4810   50.4040 H   0  0  0  0  0  0  0  0  0  0  0  0
   48.6590   29.6800   44.9620 N   0  0  0  0  0  0  0  0  0  0  0  0
   49.3870   28.5880   45.0200 N   0  0  0  0  0  0  0  0  0  0  0  0
   50.0570   28.4110   43.8830 C   0  0  0  0  0  0  0  0  0  0  0  0
   50.7290   27.6020   43.6510 H   0  0  0  0  0  0  0  0  0  0  0  0
   49.7360   29.4630   43.0390 C   0  0  0  0  0  0  0  0  0  0  0  0
   48.8430   30.2550   43.7570 C   0  0  0  0  0  0  0  0  0  0  0  0
   48.4660   31.1430   43.2640 H   0  0  0  0  0  0  0  0  0  0  0  0
   45.6350   33.6700   45.4620 S   0  0  0  0  0  0  0  0  0  0  0  0
   47.7980   34.7110   42.3570 C   0  0  0  0  0  0  0  0  0  0  0  0
   47.0800   34.3130   41.2240 C   0  0  0  0  0  0  0  0  0  0  0  0
   45.8590   33.6890   41.4380 C   0  0  0  0  0  0  0  0  0  0  0  0
   45.4260   33.4970   42.7200 N   0  0  0  0  0  0  0  0  0  0  0  0
   46.1670   33.9030   43.7770 C   0  0  0  0  0  0  0  0  0  0  0  0
   47.3240   34.4950   43.5770 N   0  0  0  0  0  0  0  0  0  0  0  0
   47.3990   34.4540   40.2170 H   0  0  0  0  0  0  0  0  0  0  0  0
   45.2210   33.3410   40.6340 H   0  0  0  0  0  0  0  0  0  0  0  0
   49.0950   35.3740   42.1460 C   0  0  0  0  0  0  0  0  0  0  0  0
   49.2460   36.1440   41.1680 O   0  0  0  0  0  0  0  0  0  0  0  0
   50.1170   35.1380   43.0250 O   0  0  0  0  0  0  0  0  0  0  0  0
   50.9880   35.6100   42.9810 H   0  0  0  0  0  0  0  0  0  0  0  0
  1  2  1  0  0  0  0
  1 10  1  0  0  0  0
  2 11  1  0  0  0  0
  3  2  2  0  0  0  0
  4  9  1  0  0  0  0
  4  3  1  0  0  0  0
  5  4  2  0  0  0  0
  6  7  2  0  0  0  0
  6  5  1  0  0  0  0
  7  8  1  0  0  0  0
  8  9  2  0  0  0  0
  9  1  1  0  0  0  0
 12 13  1  0  0  0  0
 12  7  1  0  0  0  0
 14 13  2  0  0  0  0
 15 14  1  0  0  0  0
 16 17  2  0  0  0  0
 16 14  1  0  0  0  0
 17 12  1  0  0  0  0
 18 17  1  0  0  0  0
 19  5  1  0  0  0  0
 20 25  1  0  0  0  0
 21 22  1  0  0  0  0
 21 20  2  0  0  0  0
 22 23  2  0  0  0  0
 23 24  1  0  0  0  0
 24 19  1  0  0  0  0
 25 24  2  0  0  0  0
 26 21  1  0  0  0  0
 27 22  1  0  0  0  0
 28 20  1  0  0  0  0
 28 30  1  0  0  0  0
 29 28  2  0  0  0  0
 31 30  1  0  0  0  0
M  END
>  <minimizedAffinity>
-6.02346611

>  <minimizedRMSD>
0.110833801

$$$$
