
 OpenBabel03232518423D

 23 24  0  0  0  0  0  0  0  0999 V2000
   44.7110   35.4710   45.0420 C   0  0  0  0  0  0  0  0  0  0  0  0
   45.4950   34.9980   44.0080 C   0  0  0  0  0  0  0  0  0  0  0  0
   46.1690   33.8160   44.2180 C   0  0  0  0  0  0  0  0  0  0  0  0
   46.0400   33.1730   45.4130 N   0  0  0  0  0  0  0  0  0  0  0  0
   45.2690   33.6560   46.4040 C   0  0  0  0  0  0  0  0  0  0  0  0
   44.6030   34.8150   46.2090 N   0  0  0  0  0  0  0  0  0  0  0  0
   44.1490   36.3920   44.9590 H   0  0  0  0  0  0  0  0  0  0  0  0
   47.0050   33.2410   43.2170 N   0  0  0  0  0  0  0  0  0  0  0  0
   48.3160   33.4520   43.3400 N   0  0  0  0  0  0  0  0  0  0  0  0
   48.9910   32.8580   42.3360 C   0  0  0  0  0  0  0  0  0  0  0  0
   50.0520   32.8250   42.1280 H   0  0  0  0  0  0  0  0  0  0  0  0
   48.0280   32.2500   41.5540 C   0  0  0  0  0  0  0  0  0  0  0  0
   46.7950   32.4860   42.0980 C   0  0  0  0  0  0  0  0  0  0  0  0
   45.7750   32.2210   41.8470 H   0  0  0  0  0  0  0  0  0  0  0  0
   45.6030   35.7270   42.7360 C   0  0  0  0  0  0  0  0  0  0  0  0
   45.0080   36.9790   42.9130 F   0  0  0  0  0  0  0  0  0  0  0  0
   44.8510   35.1300   41.7410 F   0  0  0  0  0  0  0  0  0  0  0  0
   46.8930   35.8750   42.3070 F   0  0  0  0  0  0  0  0  0  0  0  0
   45.1060   33.0420   47.6330 O   0  0  0  0  0  0  0  0  0  0  0  0
   46.0630   32.2100   48.2160 C   0  0  0  0  0  0  0  0  0  0  0  0
   47.3280   32.7830   48.1750 F   0  0  0  0  0  0  0  0  0  0  0  0
   46.0290   30.9420   47.7130 F   0  0  0  0  0  0  0  0  0  0  0  0
   45.7680   32.1540   49.5880 F   0  0  0  0  0  0  0  0  0  0  0  0
  1  6  1  0  0  0  0
  2  3  1  0  0  0  0
  2  1  2  0  0  0  0
  3  4  2  0  0  0  0
  4  5  1  0  0  0  0
  5 19  1  0  0  0  0
  6  5  2  0  0  0  0
  7  1  1  0  0  0  0
  8  9  1  0  0  0  0
  8  3  1  0  0  0  0
 10  9  2  0  0  0  0
 11 10  1  0  0  0  0
 12 13  2  0  0  0  0
 12 10  1  0  0  0  0
 13  8  1  0  0  0  0
 14 13  1  0  0  0  0
 15 16  1  0  0  0  0
 15  2  1  0  0  0  0
 17 15  1  0  0  0  0
 18 15  1  0  0  0  0
 19 20  1  0  0  0  0
 20 23  1  0  0  0  0
 21 20  1  0  0  0  0
 22 20  1  0  0  0  0
M  END
>  <minimizedAffinity>
-5.30977964

>  <minimizedRMSD>
0.257336766

$$$$
