
 OpenBabel03232520453D

 39 42  0  0  0  0  0  0  0  0999 V2000
   46.4110   34.6380   42.2010 C   0  0  0  0  0  0  0  0  0  0  0  0
   47.7240   34.9950   42.0600 C   0  0  0  0  0  0  0  0  0  0  0  0
   48.4160   34.8050   40.8580 C   0  0  0  0  0  0  0  0  0  0  0  0
   47.7590   34.2370   39.7690 C   0  0  0  0  0  0  0  0  0  0  0  0
   46.4460   33.8810   39.9170 C   0  0  0  0  0  0  0  0  0  0  0  0
   45.7860   34.0830   41.1230 C   0  0  0  0  0  0  0  0  0  0  0  0
   48.2550   35.4390   42.8940 H   0  0  0  0  0  0  0  0  0  0  0  0
   49.4570   35.1010   40.7840 H   0  0  0  0  0  0  0  0  0  0  0  0
   48.3310   34.1130   38.8760 H   0  0  0  0  0  0  0  0  0  0  0  0
   45.9890   33.4470   39.0400 H   0  0  0  0  0  0  0  0  0  0  0  0
   44.3840   36.0660   45.0370 C   0  0  0  0  0  0  0  0  0  0  0  0
   44.9420   35.9390   43.7690 C   0  0  0  0  0  0  0  0  0  0  0  0
   45.7770   34.8720   43.4800 C   0  0  0  0  0  0  0  0  0  0  0  0
   46.0110   33.9880   44.4690 N   0  0  0  0  0  0  0  0  0  0  0  0
   45.4600   34.1250   45.7010 C   0  0  0  0  0  0  0  0  0  0  0  0
   44.6510   35.1600   45.9830 N   0  0  0  0  0  0  0  0  0  0  0  0
   43.7470   36.9180   45.1930 H   0  0  0  0  0  0  0  0  0  0  0  0
   44.7470   36.6500   42.9900 H   0  0  0  0  0  0  0  0  0  0  0  0
   45.7120   33.1840   46.7510 N   0  0  0  0  0  0  0  0  0  0  0  0
   46.9700   32.7250   46.7250 N   0  0  0  0  0  0  0  0  0  0  0  0
   47.1490   31.8500   47.7260 C   0  0  0  0  0  0  0  0  0  0  0  0
   47.9960   31.2620   48.0560 H   0  0  0  0  0  0  0  0  0  0  0  0
   45.9490   31.7580   48.4080 C   0  0  0  0  0  0  0  0  0  0  0  0
   45.0570   32.6120   47.7700 C   0  0  0  0  0  0  0  0  0  0  0  0
   44.0090   32.9290   47.8720 H   0  0  0  0  0  0  0  0  0  0  0  0
   44.4220   33.7000   41.2310 N   0  0  0  0  0  0  0  0  0  0  0  0
   43.6100   34.6610   40.6870 C   0  0  0  0  0  0  0  0  0  0  0  0
   42.2200   34.4930   40.6820 C   0  0  0  0  0  0  0  0  0  0  0  0
   41.7130   33.3280   41.2460 C   0  0  0  0  0  0  0  0  0  0  0  0
   40.4750   33.1130   41.2750 O   0  0  0  0  0  0  0  0  0  0  0  0
   42.5590   32.4160   41.7670 N   0  0  0  0  0  0  0  0  0  0  0  0
   43.8850   32.5950   41.7620 C   0  0  0  0  0  0  0  0  0  0  0  0
   44.7380   31.8070   42.2210 O   0  0  0  0  0  0  0  0  0  0  0  0
   43.9210   35.5750   40.2390 H   0  0  0  0  0  0  0  0  0  0  0  0
   42.1980   31.5350   42.1950 H   0  0  0  0  0  0  0  0  0  0  0  0
   41.3020   35.5090   40.1020 C   0  0  0  0  0  0  0  0  0  0  0  0
   41.6220   36.4950   40.5490 H   0  0  0  0  0  0  0  0  0  0  0  0
   40.2900   35.3290   40.4940 H   0  0  0  0  0  0  0  0  0  0  0  0
   41.3510   35.5330   38.9990 H   0  0  0  0  0  0  0  0  0  0  0  0
  1 13  1  0  0  0  0
  2  1  1  0  0  0  0
  2  7  1  0  0  0  0
  3  2  2  0  0  0  0
  4  5  2  0  0  0  0
  4  3  1  0  0  0  0
  5  6  1  0  0  0  0
  6 26  1  0  0  0  0
  6  1  2  0  0  0  0
  8  3  1  0  0  0  0
  9  4  1  0  0  0  0
 10  5  1  0  0  0  0
 11 17  1  0  0  0  0
 11 16  1  0  0  0  0
 12 11  2  0  0  0  0
 13 12  1  0  0  0  0
 13 14  2  0  0  0  0
 14 15  1  0  0  0  0
 15 16  2  0  0  0  0
 15 19  1  0  0  0  0
 18 12  1  0  0  0  0
 19 24  1  0  0  0  0
 20 19  1  0  0  0  0
 20 21  2  0  0  0  0
 21 22  1  0  0  0  0
 21 23  1  0  0  0  0
 24 25  1  0  0  0  0
 24 23  2  0  0  0  0
 26 32  1  0  0  0  0
 27 26  1  0  0  0  0
 28 27  2  0  0  0  0
 28 29  1  0  0  0  0
 29 30  2  0  0  0  0
 29 31  1  0  0  0  0
 31 35  1  0  0  0  0
 32 31  1  0  0  0  0
 32 33  2  0  0  0  0
 34 27  1  0  0  0  0
 36 38  1  0  0  0  0
 36 37  1  0  0  0  0
 36 28  1  0  0  0  0
 39 36  1  0  0  0  0
M  END
>  <minimizedAffinity>
-7.78004837

>  <minimizedRMSD>
0.115366951

$$$$
