
 OpenBabel03232516513D

 42 44  0  0  1  0  0  0  0  0999 V2000
   42.2880   34.8910   40.7830 C   0  0  2  0  0  0  0  0  0  0  0  0
   41.0490   35.3920   41.5150 C   0  0  0  0  0  0  0  0  0  0  0  0
   40.1620   36.0540   40.4640 C   0  0  0  0  0  0  0  0  0  0  0  0
   40.5520   35.6930   39.0640 C   0  0  0  0  0  0  0  0  0  0  0  0
   40.8980   34.2280   38.9000 C   0  0  0  0  0  0  0  0  0  0  0  0
   41.8940   33.7580   39.9170 C   0  0  1  0  0  0  0  0  0  0  0  0
   42.6430   35.7500   40.1400 H   0  0  0  0  0  0  0  0  0  0  0  0
   40.5370   34.4870   41.8990 H   0  0  0  0  0  0  0  0  0  0  0  0
   41.3660   36.0920   42.2940 H   0  0  0  0  0  0  0  0  0  0  0  0
   40.2330   37.1470   40.5900 H   0  0  0  0  0  0  0  0  0  0  0  0
   39.1150   35.7300   40.6490 H   0  0  0  0  0  0  0  0  0  0  0  0
   39.6720   35.8760   38.4020 H   0  0  0  0  0  0  0  0  0  0  0  0
   41.3540   36.3520   38.6530 H   0  0  0  0  0  0  0  0  0  0  0  0
   41.3200   34.1370   37.8700 H   0  0  0  0  0  0  0  0  0  0  0  0
   39.9470   33.6690   38.8880 H   0  0  0  0  0  0  0  0  0  0  0  0
   41.3210   33.0380   40.5750 H   0  0  0  0  0  0  0  0  0  0  0  0
   43.0270   33.0810   39.3050 N   0  0  0  0  0  0  0  0  0  0  0  0
   43.8370   33.5460   38.3430 N   0  0  0  0  0  0  0  0  0  0  0  0
   44.7500   32.6340   38.0520 C   0  0  0  0  0  0  0  0  0  0  0  0
   45.5430   32.7550   37.2960 H   0  0  0  0  0  0  0  0  0  0  0  0
   44.5160   31.5320   38.8640 C   0  0  0  0  0  0  0  0  0  0  0  0
   43.4140   31.8390   39.6530 C   0  0  0  0  0  0  0  0  0  0  0  0
   43.0280   31.1300   40.3800 H   0  0  0  0  0  0  0  0  0  0  0  0
   43.3170   34.6340   41.6560 O   0  0  0  0  0  0  0  0  0  0  0  0
   44.0930   35.7820   41.9280 C   0  0  0  0  0  0  0  0  0  0  0  0
   43.5780   36.5610   42.4620 H   0  0  0  0  0  0  0  0  0  0  0  0
   44.2630   36.2650   40.8560 H   0  0  0  0  0  0  0  0  0  0  0  0
   45.4410   35.3140   42.2930 C   0  0  1  0  0  0  0  0  0  0  0  0
   46.1320   36.2170   42.3330 H   0  0  0  0  0  0  0  0  0  0  0  0
   45.4780   34.7580   43.6910 C   0  0  0  0  0  0  0  0  0  0  0  0
   44.6710   35.4570   44.6150 C   0  0  0  0  0  0  0  0  0  0  0  0
   44.6560   34.9920   45.9380 C   0  0  0  0  0  0  0  0  0  0  0  0
   45.4320   33.8870   46.2330 N   0  0  0  0  0  0  0  0  0  0  0  0
   46.1830   33.2570   45.3160 C   0  0  0  0  0  0  0  0  0  0  0  0
   46.2200   33.6800   44.0270 N   0  0  0  0  0  0  0  0  0  0  0  0
   44.0910   36.3140   44.3120 H   0  0  0  0  0  0  0  0  0  0  0  0
   44.0590   35.4840   46.6900 H   0  0  0  0  0  0  0  0  0  0  0  0
   46.7480   32.4040   45.6600 H   0  0  0  0  0  0  0  0  0  0  0  0
   46.0520   34.3540   41.2780 C   0  0  0  0  0  0  0  0  0  0  0  0
   46.9420   34.7600   40.7750 H   0  0  0  0  0  0  0  0  0  0  0  0
   46.2370   33.3960   41.8190 H   0  0  0  0  0  0  0  0  0  0  0  0
   45.2950   34.1360   40.4880 H   0  0  0  0  0  0  0  0  0  0  0  0
  1  7  1  6  0  0  0
  1  2  1  0  0  0  0
  1 24  1  0  0  0  0
  2  8  1  0  0  0  0
  2  9  1  0  0  0  0
  3 10  1  0  0  0  0
  3 11  1  0  0  0  0
  3  2  1  0  0  0  0
  4  3  1  0  0  0  0
  5  4  1  0  0  0  0
  5  6  1  0  0  0  0
  6 16  1  1  0  0  0
  6  1  1  0  0  0  0
 12  4  1  0  0  0  0
 13  4  1  0  0  0  0
 14  5  1  0  0  0  0
 15  5  1  0  0  0  0
 17 22  1  0  0  0  0
 17  6  1  0  0  0  0
 18 17  1  0  0  0  0
 19 18  2  0  0  0  0
 19 21  1  0  0  0  0
 20 19  1  0  0  0  0
 21 22  2  0  0  0  0
 22 23  1  0  0  0  0
 24 25  1  0  0  0  0
 25 28  1  0  0  0  0
 25 26  1  0  0  0  0
 27 25  1  0  0  0  0
 28 29  1  1  0  0  0
 28 30  1  0  0  0  0
 30 35  2  0  0  0  0
 30 31  1  0  0  0  0
 31 32  2  0  0  0  0
 32 33  1  0  0  0  0
 32 37  1  0  0  0  0
 34 38  1  0  0  0  0
 34 33  2  0  0  0  0
 35 34  1  0  0  0  0
 36 31  1  0  0  0  0
 39 41  1  0  0  0  0
 39 28  1  0  0  0  0
 40 39  1  0  0  0  0
 42 39  1  0  0  0  0
M  END
>  <minimizedAffinity>
-5.07844305

>  <minimizedRMSD>
4.08908892

$$$$
