
 OpenBabel03232520403D

 25 27  0  0  0  0  0  0  0  0999 V2000
   44.1090   35.7690   42.6620 C   0  0  0  0  0  0  0  0  0  0  0  0
   43.3330   35.1590   41.6530 C   0  0  0  0  0  0  0  0  0  0  0  0
   43.9640   34.2990   40.7860 C   0  0  0  0  0  0  0  0  0  0  0  0
   45.3090   34.0400   40.8970 N   0  0  0  0  0  0  0  0  0  0  0  0
   46.0080   34.6520   41.8820 C   0  0  0  0  0  0  0  0  0  0  0  0
   45.4150   35.5050   42.7530 N   0  0  0  0  0  0  0  0  0  0  0  0
   43.6020   36.4440   43.3390 H   0  0  0  0  0  0  0  0  0  0  0  0
   43.4330   33.7960   39.9930 H   0  0  0  0  0  0  0  0  0  0  0  0
   47.4470   34.4310   42.0740 C   0  0  0  0  0  0  0  0  0  0  0  0
   48.3220   35.4860   41.9800 C   0  0  0  0  0  0  0  0  0  0  0  0
   49.6900   35.2790   42.1640 C   0  0  0  0  0  0  0  0  0  0  0  0
   50.1930   34.0260   42.4410 C   0  0  0  0  0  0  0  0  0  0  0  0
   49.2770   32.9990   42.5240 C   0  0  0  0  0  0  0  0  0  0  0  0
   47.9730   33.2350   42.3430 N   0  0  0  0  0  0  0  0  0  0  0  0
   48.0180   36.4930   41.7690 H   0  0  0  0  0  0  0  0  0  0  0  0
   50.4160   36.0780   42.1000 H   0  0  0  0  0  0  0  0  0  0  0  0
   51.2030   33.7370   42.6010 H   0  0  0  0  0  0  0  0  0  0  0  0
   49.4380   31.9450   42.7300 H   0  0  0  0  0  0  0  0  0  0  0  0
   41.5640   35.4960   41.5210 S   0  0  0  0  0  0  0  0  0  0  0  0
   40.9170   34.6180   40.1050 C   0  0  0  0  0  0  0  0  0  0  0  0
   41.5840   35.0000   38.8060 C   0  0  0  0  0  0  0  0  0  0  0  0
   40.5590   35.5440   37.8210 C   0  0  0  0  0  0  0  0  0  0  0  0
   39.5600   34.4590   37.4700 C   0  0  0  0  0  0  0  0  0  0  0  0
   39.0830   33.8040   38.7590 C   0  0  0  0  0  0  0  0  0  0  0  0
   39.4250   34.7070   39.9500 C   0  0  0  0  0  0  0  0  0  0  0  0
  1  6  1  0  0  0  0
  1  7  1  0  0  0  0
  2  1  2  0  0  0  0
  3  4  2  0  0  0  0
  3  2  1  0  0  0  0
  4  5  1  0  0  0  0
  5  9  1  0  0  0  0
  5  6  2  0  0  0  0
  8  3  1  0  0  0  0
  9 14  1  0  0  0  0
 10  9  2  0  0  0  0
 10 11  1  0  0  0  0
 11 12  2  0  0  0  0
 12 13  1  0  0  0  0
 12 17  1  0  0  0  0
 13 18  1  0  0  0  0
 14 13  2  0  0  0  0
 15 10  1  0  0  0  0
 16 11  1  0  0  0  0
 19  2  1  0  0  0  0
 20 19  1  0  0  0  0
 21 20  1  0  0  0  0
 22 21  1  0  0  0  0
 23 22  1  0  0  0  0
 23 24  1  0  0  0  0
 24 25  1  0  0  0  0
 25 20  1  0  0  0  0
M  END
>  <minimizedAffinity>
-5.92858791

>  <minimizedRMSD>
0.728549063

$$$$
