
 OpenBabel03232521013D

 41 44  0  0  1  0  0  0  0  0999 V2000
   45.5910   32.7570   47.5170 C   0  0  0  0  0  0  0  0  0  0  0  0
   46.0400   32.5090   46.2610 C   0  0  0  0  0  0  0  0  0  0  0  0
   46.1920   31.1530   45.9530 C   0  0  0  0  0  0  0  0  0  0  0  0
   45.9190   30.1460   46.8220 N   0  0  0  0  0  0  0  0  0  0  0  0
   45.4620   30.4520   48.0960 C   0  0  0  0  0  0  0  0  0  0  0  0
   45.3110   31.7340   48.4080 N   0  0  0  0  0  0  0  0  0  0  0  0
   45.1790   29.4270   49.0290 N   0  0  0  0  0  0  0  0  0  0  0  0
   45.4430   33.7700   47.8580 H   0  0  0  0  0  0  0  0  0  0  0  0
   44.3250   28.8190   48.8960 H   0  0  0  0  0  0  0  0  0  0  0  0
   45.8850   29.3690   49.8040 H   0  0  0  0  0  0  0  0  0  0  0  0
   46.2830   33.4790   45.2470 C   0  0  2  0  0  0  0  0  0  0  0  0
   45.0430   34.5450   45.4820 C   0  0  0  0  0  0  0  0  0  0  0  0
   44.8090   35.4930   44.4270 C   0  0  0  0  0  0  0  0  0  0  0  0
   45.6270   35.4530   43.2100 C   0  0  1  0  0  0  0  0  0  0  0  0
   46.7010   34.4680   43.1570 C   0  0  0  0  0  0  0  0  0  0  0  0
   46.2660   33.2160   43.8810 C   0  0  0  0  0  0  0  0  0  0  0  0
   47.0350   34.2420   45.6120 H   0  0  0  0  0  0  0  0  0  0  0  0
   44.3540   34.6620   46.3090 H   0  0  0  0  0  0  0  0  0  0  0  0
   44.0220   36.1970   44.5420 H   0  0  0  0  0  0  0  0  0  0  0  0
   46.0410   36.4680   43.0350 H   0  0  0  0  0  0  0  0  0  0  0  0
   47.6280   34.8290   43.6570 H   0  0  0  0  0  0  0  0  0  0  0  0
   46.9460   34.2760   42.0710 H   0  0  0  0  0  0  0  0  0  0  0  0
   47.1230   32.5810   43.5380 H   0  0  0  0  0  0  0  0  0  0  0  0
   45.3020   32.8430   43.4760 H   0  0  0  0  0  0  0  0  0  0  0  0
   44.6280   35.1880   42.0430 C   0  0  0  0  0  0  0  0  0  0  0  0
   43.5950   34.3430   42.4040 F   0  0  0  0  0  0  0  0  0  0  0  0
   44.0440   36.4160   41.7440 F   0  0  0  0  0  0  0  0  0  0  0  0
   45.3230   34.7840   40.9190 F   0  0  0  0  0  0  0  0  0  0  0  0
   46.7060   30.4620   44.7850 C   0  0  0  0  0  0  0  0  0  0  0  0
   46.2590   29.9690   43.6010 C   0  0  0  0  0  0  0  0  0  0  0  0
   47.3310   29.3620   42.9420 C   0  0  0  0  0  0  0  0  0  0  0  0
   48.3800   29.5140   43.7520 N   0  0  0  0  0  0  0  0  0  0  0  0
   48.0350   30.1580   44.8420 N   0  0  0  0  0  0  0  0  0  0  0  0
   45.2160   30.1130   43.3700 H   0  0  0  0  0  0  0  0  0  0  0  0
   47.1970   28.9000   41.9740 H   0  0  0  0  0  0  0  0  0  0  0  0
   49.7200   29.0050   43.4190 C   0  0  0  0  0  3  0  0  0  0  0  0
   50.6050   30.1780   43.2540 C   0  0  0  0  0  2  0  0  0  0  0  0
   51.9630   30.1060   43.8510 C   0  0  0  0  0  2  0  0  0  0  0  0
   51.9130   29.4470   45.2340 C   0  0  0  0  0  2  0  0  0  0  0  0
   51.5160   28.0130   44.9120 C   0  0  0  0  0  2  0  0  0  0  0  0
   50.1180   27.9930   44.4150 C   0  0  0  0  0  2  0  0  0  0  0  0
  1  8  1  0  0  0  0
  1  6  1  0  0  0  0
  2  1  2  0  0  0  0
  3  2  1  0  0  0  0
  3  4  2  0  0  0  0
  4  5  1  0  0  0  0
  5  6  2  0  0  0  0
  5  7  1  0  0  0  0
  7 10  1  0  0  0  0
  9  7  1  0  0  0  0
 11 12  1  0  0  0  0
 11 17  1  1  0  0  0
 11  2  1  0  0  0  0
 12 18  1  0  0  0  0
 13 19  1  0  0  0  0
 13 12  2  0  0  0  0
 14 20  1  6  0  0  0
 14 13  1  0  0  0  0
 15 14  1  0  0  0  0
 15 21  1  0  0  0  0
 15 16  1  0  0  0  0
 16 11  1  0  0  0  0
 22 15  1  0  0  0  0
 23 16  1  0  0  0  0
 24 16  1  0  0  0  0
 25 26  1  0  0  0  0
 25 14  1  0  0  0  0
 27 25  1  0  0  0  0
 28 25  1  0  0  0  0
 29 33  2  0  0  0  0
 29  3  1  0  0  0  0
 30 29  1  0  0  0  0
 31 30  2  0  0  0  0
 31 32  1  0  0  0  0
 32 33  1  0  0  0  0
 34 30  1  0  0  0  0
 35 31  1  0  0  0  0
 36 32  1  0  0  0  0
 36 41  1  0  0  0  0
 37 36  1  0  0  0  0
 37 38  1  0  0  0  0
 38 39  1  0  0  0  0
 40 39  1  0  0  0  0
 41 40  1  0  0  0  0
M  END
>  <minimizedAffinity>
-5.76272774

>  <minimizedRMSD>
0.54663229

$$$$
