
 OpenBabel03232521013D

 40 43  0  0  1  0  0  0  0  0999 V2000
   45.3850   32.8640   47.4930 C   0  0  0  0  0  0  0  0  0  0  0  0
   45.9350   32.6240   46.2770 C   0  0  0  0  0  0  0  0  0  0  0  0
   46.1990   31.2740   46.0140 C   0  0  0  0  0  0  0  0  0  0  0  0
   45.9340   30.2680   46.8850 N   0  0  0  0  0  0  0  0  0  0  0  0
   45.3700   30.5650   48.1170 C   0  0  0  0  0  0  0  0  0  0  0  0
   45.1130   31.8410   48.3880 N   0  0  0  0  0  0  0  0  0  0  0  0
   45.0890   29.5420   49.0490 N   0  0  0  0  0  0  0  0  0  0  0  0
   45.1450   33.8680   47.8040 H   0  0  0  0  0  0  0  0  0  0  0  0
   44.6500   28.6640   48.6590 H   0  0  0  0  0  0  0  0  0  0  0  0
   45.2650   29.5570   50.0630 H   0  0  0  0  0  0  0  0  0  0  0  0
   46.1780   33.5880   45.2570 C   0  0  2  0  0  0  0  0  0  0  0  0
   44.9550   34.6670   45.4960 C   0  0  0  0  0  0  0  0  0  0  0  0
   44.7230   35.6050   44.4350 C   0  0  0  0  0  0  0  0  0  0  0  0
   45.5230   35.5560   43.2130 C   0  0  1  0  0  0  0  0  0  0  0  0
   46.5900   34.5590   43.1520 C   0  0  0  0  0  0  0  0  0  0  0  0
   46.1530   33.3160   43.8910 C   0  0  0  0  0  0  0  0  0  0  0  0
   46.9480   34.3390   45.6040 H   0  0  0  0  0  0  0  0  0  0  0  0
   44.2770   34.7910   46.3300 H   0  0  0  0  0  0  0  0  0  0  0  0
   43.9530   36.3190   44.5420 H   0  0  0  0  0  0  0  0  0  0  0  0
   45.9340   36.5730   43.0200 H   0  0  0  0  0  0  0  0  0  0  0  0
   46.7480   34.3200   42.0590 H   0  0  0  0  0  0  0  0  0  0  0  0
   47.5980   34.9000   43.4920 H   0  0  0  0  0  0  0  0  0  0  0  0
   47.0130   32.6770   43.5600 H   0  0  0  0  0  0  0  0  0  0  0  0
   45.2070   32.9700   43.4250 H   0  0  0  0  0  0  0  0  0  0  0  0
   44.5130   35.2890   42.0560 C   0  0  0  0  0  0  0  0  0  0  0  0
   43.4540   34.4930   42.4430 F   0  0  0  0  0  0  0  0  0  0  0  0
   43.9680   36.5250   41.7210 F   0  0  0  0  0  0  0  0  0  0  0  0
   45.1910   34.8300   40.9420 F   0  0  0  0  0  0  0  0  0  0  0  0
   46.8370   30.5980   44.8980 C   0  0  0  0  0  0  0  0  0  0  0  0
   46.4940   29.8400   43.8240 C   0  0  0  0  0  0  0  0  0  0  0  0
   47.6700   29.4670   43.1580 C   0  0  0  0  0  0  0  0  0  0  0  0
   48.6640   30.0140   43.8580 N   0  0  0  0  0  0  0  0  0  0  0  0
   48.1980   30.6840   44.8840 N   0  0  0  0  0  0  0  0  0  0  0  0
   45.4400   29.6590   43.6660 H   0  0  0  0  0  0  0  0  0  0  0  0
   47.5200   28.8560   42.2810 H   0  0  0  0  0  0  0  0  0  0  0  0
   50.0290   29.8030   43.4090 C   0  0  0  0  0  3  0  0  0  0  0  0
   50.1640   28.6560   42.4690 C   0  0  0  0  0  2  0  0  0  0  0  0
   50.9350   29.1940   41.2580 C   0  0  0  0  0  2  0  0  0  0  0  0
   51.6590   30.3990   41.8290 C   0  0  0  0  0  2  0  0  0  0  0  0
   50.5580   31.0150   42.6650 C   0  0  0  0  0  2  0  0  0  0  0  0
  1  8  1  0  0  0  0
  1  6  1  0  0  0  0
  2  1  2  0  0  0  0
  3  2  1  0  0  0  0
  3  4  2  0  0  0  0
  4  5  1  0  0  0  0
  5  6  2  0  0  0  0
  5  7  1  0  0  0  0
  7 10  1  0  0  0  0
  9  7  1  0  0  0  0
 11 12  1  0  0  0  0
 11 17  1  1  0  0  0
 11  2  1  0  0  0  0
 12 18  1  0  0  0  0
 13 19  1  0  0  0  0
 13 12  2  0  0  0  0
 14 20  1  6  0  0  0
 14 13  1  0  0  0  0
 15 14  1  0  0  0  0
 15 22  1  0  0  0  0
 15 16  1  0  0  0  0
 16 11  1  0  0  0  0
 21 15  1  0  0  0  0
 23 16  1  0  0  0  0
 24 16  1  0  0  0  0
 25 26  1  0  0  0  0
 25 14  1  0  0  0  0
 27 25  1  0  0  0  0
 28 25  1  0  0  0  0
 29  3  1  0  0  0  0
 30 29  1  0  0  0  0
 31 30  2  0  0  0  0
 31 32  1  0  0  0  0
 32 33  1  0  0  0  0
 33 29  2  0  0  0  0
 34 30  1  0  0  0  0
 35 31  1  0  0  0  0
 36 32  1  0  0  0  0
 37 36  1  0  0  0  0
 38 39  1  0  0  0  0
 38 37  1  0  0  0  0
 39 40  1  0  0  0  0
 40 36  1  0  0  0  0
M  END
>  <minimizedAffinity>
-5.73444176

>  <minimizedRMSD>
0.225773931

$$$$
