
 OpenBabel03232520503D

 28 30  0  0  1  0  0  0  0  0999 V2000
   46.0890   33.6620   45.4820 C   0  0  2  0  0  0  0  0  0  0  0  0
   44.9790   34.6730   45.6080 C   0  0  0  0  0  0  0  0  0  0  0  0
   44.7400   35.5440   44.4820 C   0  0  0  0  0  0  0  0  0  0  0  0
   45.5530   35.4370   43.2710 C   0  0  1  0  0  0  0  0  0  0  0  0
   46.6890   34.4950   43.3140 C   0  0  0  0  0  0  0  0  0  0  0  0
   46.3070   33.2460   44.0620 C   0  0  0  0  0  0  0  0  0  0  0  0
   46.9950   34.2170   45.8640 H   0  0  0  0  0  0  0  0  0  0  0  0
   44.3110   34.8530   46.4370 H   0  0  0  0  0  0  0  0  0  0  0  0
   43.9710   36.2670   44.5290 H   0  0  0  0  0  0  0  0  0  0  0  0
   45.9500   36.4520   43.0380 H   0  0  0  0  0  0  0  0  0  0  0  0
   47.5490   34.9920   43.8320 H   0  0  0  0  0  0  0  0  0  0  0  0
   47.0250   34.3020   42.2740 H   0  0  0  0  0  0  0  0  0  0  0  0
   45.3670   32.8280   43.6790 H   0  0  0  0  0  0  0  0  0  0  0  0
   47.1550   32.5340   44.0400 H   0  0  0  0  0  0  0  0  0  0  0  0
   45.3010   32.8200   47.6620 C   0  0  0  0  0  0  0  0  0  0  0  0
   45.8430   32.5480   46.4060 C   0  0  0  0  0  0  0  0  0  0  0  0
   46.1440   31.1940   46.1000 C   0  0  0  0  0  0  0  0  0  0  0  0
   45.8910   30.2420   47.0400 N   0  0  0  0  0  0  0  0  0  0  0  0
   45.3630   30.5500   48.2510 C   0  0  0  0  0  0  0  0  0  0  0  0
   45.0710   31.8350   48.5580 N   0  0  0  0  0  0  0  0  0  0  0  0
   45.0300   33.8050   48.0170 H   0  0  0  0  0  0  0  0  0  0  0  0
   46.5610   30.9540   45.1390 H   0  0  0  0  0  0  0  0  0  0  0  0
   45.1970   29.7250   48.9360 H   0  0  0  0  0  0  0  0  0  0  0  0
   44.6190   35.1120   42.1800 N   0  0  0  0  0  0  0  0  0  0  0  0
   44.8620   34.5130   40.9950 C   0  0  0  0  0  0  0  0  0  0  0  0
   43.7260   34.4150   40.3060 N   0  0  0  0  0  0  0  0  0  0  0  0
   42.7350   34.9550   41.0490 C   0  0  0  0  0  0  0  0  0  0  0  0
   43.3170   35.3670   42.1790 N   0  0  0  0  0  0  0  0  0  0  0  0
  1  2  1  0  0  0  0
  1  7  1  1  0  0  0
  1 16  1  0  0  0  0
  2  8  1  0  0  0  0
  3  9  1  0  0  0  0
  3  2  2  0  0  0  0
  4 10  1  6  0  0  0
  4  5  1  0  0  0  0
  4  3  1  0  0  0  0
  5 11  1  0  0  0  0
  5  6  1  0  0  0  0
  6  1  1  0  0  0  0
 12  5  1  0  0  0  0
 13  6  1  0  0  0  0
 14  6  1  0  0  0  0
 15 21  1  0  0  0  0
 15 20  1  0  0  0  0
 16 15  2  0  0  0  0
 17 16  1  0  0  0  0
 17 18  2  0  0  0  0
 18 19  1  0  0  0  0
 19 20  2  0  0  0  0
 19 23  1  0  0  0  0
 22 17  1  0  0  0  0
 24  4  1  0  0  0  0
 25 24  1  0  0  0  0
 26 25  2  0  0  0  0
 26 27  1  0  0  0  0
 27 28  2  0  0  0  0
 28 24  1  0  0  0  0
M  END
>  <minimizedAffinity>
-5.07447815

>  <minimizedRMSD>
0.432522684

$$$$
