
 OpenBabel03232516483D

 26 27  0  0  1  0  0  0  0  0999 V2000
   44.6140   35.5180   43.2740 C   0  0  1  0  0  0  0  0  0  0  0  0
   43.6100   35.5630   43.7110 H   0  0  0  0  0  0  0  0  0  0  0  0
   45.4040   34.5530   44.1070 C   0  0  0  0  0  0  0  0  0  0  0  0
   46.4660   33.8710   43.4530 C   0  0  0  0  0  0  0  0  0  0  0  0
   47.2110   32.9790   44.2050 C   0  0  0  0  0  0  0  0  0  0  0  0
   46.8910   32.8040   45.5180 N   0  0  0  0  0  0  0  0  0  0  0  0
   45.8840   33.4620   46.1050 C   0  0  0  0  0  0  0  0  0  0  0  0
   45.1390   34.3380   45.4030 N   0  0  0  0  0  0  0  0  0  0  0  0
   46.6350   34.0840   42.4070 H   0  0  0  0  0  0  0  0  0  0  0  0
   48.0330   32.4440   43.7170 H   0  0  0  0  0  0  0  0  0  0  0  0
   45.7300   33.2370   47.1520 H   0  0  0  0  0  0  0  0  0  0  0  0
   45.1730   36.9310   43.3840 C   0  0  0  0  0  0  0  0  0  0  0  0
   45.8390   37.1290   42.5150 H   0  0  0  0  0  0  0  0  0  0  0  0
   45.8300   37.0450   44.2770 H   0  0  0  0  0  0  0  0  0  0  0  0
   44.3920   37.6890   43.3520 H   0  0  0  0  0  0  0  0  0  0  0  0
   44.6070   35.0930   41.8340 C   0  0  0  0  0  0  0  0  0  0  0  0
   45.5400   35.5210   41.3810 H   0  0  0  0  0  0  0  0  0  0  0  0
   44.6350   34.0250   41.6710 H   0  0  0  0  0  0  0  0  0  0  0  0
   43.5240   35.7420   41.2410 O   0  0  0  0  0  0  0  0  0  0  0  0
   39.0740   35.9660   39.9160 H   0  0  0  0  0  0  0  0  0  0  0  0
   39.7560   35.1890   39.7670 N   0  0  0  0  0  0  0  0  0  0  0  0
   40.0400   34.5710   41.0510 C   0  0  0  0  0  0  0  0  0  0  0  0
   41.1770   35.3810   41.6900 C   0  0  0  0  0  0  0  0  0  0  0  0
   42.4270   34.9580   40.9950 C   0  0  0  0  0  0  0  0  0  0  0  0
   42.1210   34.7730   39.5370 C   0  0  0  0  0  0  0  0  0  0  0  0
   40.9360   35.6450   39.1030 C   0  0  0  0  0  0  0  0  0  0  0  0
  1 12  1  0  0  0  0
  1  2  1  1  0  0  0
  1  3  1  0  0  0  0
  3  8  1  0  0  0  0
  4  3  2  0  0  0  0
  4  5  1  0  0  0  0
  5  6  2  0  0  0  0
  6  7  1  0  0  0  0
  7 11  1  0  0  0  0
  8  7  2  0  0  0  0
  9  4  1  0  0  0  0
 10  5  1  0  0  0  0
 12 14  1  0  0  0  0
 13 12  1  0  0  0  0
 15 12  1  0  0  0  0
 16  1  1  0  0  0  0
 17 16  1  0  0  0  0
 18 16  1  0  0  0  0
 19 16  1  0  0  0  0
 21 20  1  0  0  0  0
 21 22  1  0  0  0  0
 22 23  1  0  0  0  0
 24 19  1  0  0  0  0
 24 23  1  0  0  0  0
 25 24  1  0  0  0  0
 26 25  1  0  0  0  0
 26 21  1  0  0  0  0
M  END
>  <minimizedAffinity>
-4.54454327

>  <minimizedRMSD>
1.79756117

$$$$
