
 OpenBabel03232519593D

 28 31  0  0  1  0  0  0  0  0999 V2000
   45.7260   34.0060   42.2750 N   0  0  0  0  0  0  0  0  0  0  0  0
   46.7100   34.5220   41.5810 C   0  0  0  0  0  0  0  0  0  0  0  0
   46.5970   34.0540   40.2540 C   0  0  0  0  0  0  0  0  0  0  0  0
   45.5360   33.2640   40.2080 N   0  0  0  0  0  0  0  0  0  0  0  0
   44.9870   33.2230   41.4470 C   0  0  0  0  0  0  0  0  0  0  0  0
   47.1630   34.2030   39.3440 H   0  0  0  0  0  0  0  0  0  0  0  0
   44.0990   32.6570   41.7380 H   0  0  0  0  0  0  0  0  0  0  0  0
   44.7350   35.4070   43.9390 C   0  0  0  0  0  0  0  0  0  0  0  0
   45.4360   34.1890   43.6230 C   0  0  0  0  0  0  0  0  0  0  0  0
   45.7230   33.3790   44.6880 C   0  0  0  0  0  0  0  0  0  0  0  0
   45.3440   33.7530   45.9350 N   0  0  0  0  0  0  0  0  0  0  0  0
   44.6960   34.8890   46.1870 C   0  0  0  0  0  0  0  0  0  0  0  0
   44.3880   35.7200   45.1920 N   0  0  0  0  0  0  0  0  0  0  0  0
   44.4290   36.1650   43.2100 H   0  0  0  0  0  0  0  0  0  0  0  0
   46.2440   32.4790   44.4380 H   0  0  0  0  0  0  0  0  0  0  0  0
   44.5110   34.9490   47.2640 H   0  0  0  0  0  0  0  0  0  0  0  0
   47.8330   35.4410   41.8830 C   0  0  2  0  0  0  0  0  0  0  0  0
   48.9780   35.5290   40.9160 C   0  0  0  0  0  0  0  0  0  0  0  0
   49.1870   34.8090   42.1990 C   0  0  2  0  0  0  0  0  0  0  0  0
   47.5400   36.3210   42.4530 H   0  0  0  0  0  0  0  0  0  0  0  0
   49.0690   34.9190   40.0260 H   0  0  0  0  0  0  0  0  0  0  0  0
   49.4990   36.5210   40.7990 H   0  0  0  0  0  0  0  0  0  0  0  0
   49.7510   35.3560   42.9810 H   0  0  0  0  0  0  0  0  0  0  0  0
   49.2060   33.3620   42.2500 N   0  0  0  0  0  0  0  0  0  0  0  0
   49.8310   32.6270   41.2820 C   0  0  0  0  0  0  0  0  0  0  0  0
   49.7320   31.3060   41.5170 N   0  0  0  0  0  0  0  0  0  0  0  0
   49.0200   31.2170   42.6710 C   0  0  0  0  0  0  0  0  0  0  0  0
   48.7280   32.4450   43.0750 N   0  0  0  0  0  0  0  0  0  0  0  0
  1  9  1  0  0  0  0
  2 17  1  0  0  0  0
  2  1  1  0  0  0  0
  3  2  2  0  0  0  0
  4  3  1  0  0  0  0
  4  5  2  0  0  0  0
  5  7  1  0  0  0  0
  5  1  1  0  0  0  0
  6  3  1  0  0  0  0
  8 13  1  0  0  0  0
  9  8  2  0  0  0  0
  9 10  1  0  0  0  0
 10 11  2  0  0  0  0
 11 12  1  0  0  0  0
 12 16  1  0  0  0  0
 13 12  2  0  0  0  0
 14  8  1  0  0  0  0
 15 10  1  0  0  0  0
 17 19  1  0  0  0  0
 17 20  1  1  0  0  0
 18 17  1  0  0  0  0
 18 19  1  0  0  0  0
 19 24  1  0  0  0  0
 19 23  1  1  0  0  0
 21 18  1  0  0  0  0
 22 18  1  0  0  0  0
 24 28  1  0  0  0  0
 25 26  2  0  0  0  0
 25 24  1  0  0  0  0
 26 27  1  0  0  0  0
 27 28  2  0  0  0  0
M  END
>  <minimizedAffinity>
-4.61516285

>  <minimizedRMSD>
0.784280121

$$$$
