
 OpenBabel03232519293D

 36 38  0  0  1  0  0  0  0  0999 V2000
   47.1200   34.2890   40.2790 C   0  0  1  0  0  0  0  0  0  0  0  0
   48.2180   34.1950   39.2260 C   0  0  0  0  0  0  0  0  0  0  0  0
   47.5220   33.8070   37.9290 C   0  0  0  0  0  0  0  0  0  0  0  0
   47.0270   32.3770   38.0410 C   0  0  0  0  0  0  0  0  0  0  0  0
   47.0900   31.8900   39.4750 C   0  0  0  0  0  0  0  0  0  0  0  0
   46.5430   32.9140   40.4610 C   0  0  2  0  0  0  0  0  0  0  0  0
   46.4240   35.0560   39.9470 H   0  0  0  0  0  0  0  0  0  0  0  0
   48.9940   33.4690   39.5190 H   0  0  0  0  0  0  0  0  0  0  0  0
   48.6620   35.2080   39.0320 H   0  0  0  0  0  0  0  0  0  0  0  0
   48.1890   33.9420   37.0540 H   0  0  0  0  0  0  0  0  0  0  0  0
   46.6230   34.4450   37.8600 H   0  0  0  0  0  0  0  0  0  0  0  0
   46.0230   32.2770   37.5850 H   0  0  0  0  0  0  0  0  0  0  0  0
   47.7390   31.7500   37.4580 H   0  0  0  0  0  0  0  0  0  0  0  0
   46.4520   31.0000   39.5840 H   0  0  0  0  0  0  0  0  0  0  0  0
   48.1150   31.6330   39.7420 H   0  0  0  0  0  0  0  0  0  0  0  0
   46.8760   32.5200   41.4460 H   0  0  0  0  0  0  0  0  0  0  0  0
   45.1020   32.8530   40.2770 N   0  0  0  0  0  0  0  0  0  0  0  0
   44.2280   33.8550   40.0670 C   0  0  0  0  0  0  0  0  0  0  0  0
   43.0040   33.2620   39.9610 N   0  0  0  0  0  0  0  0  0  0  0  0
   43.1640   31.9310   40.1060 C   0  0  0  0  0  0  0  0  0  0  0  0
   44.4670   31.6970   40.3010 N   0  0  0  0  0  0  0  0  0  0  0  0
   47.7030   34.7900   41.6130 C   0  0  0  0  0  0  0  0  0  0  0  0
   48.8050   34.6370   41.4780 H   0  0  0  0  0  0  0  0  0  0  0  0
   47.5190   35.8280   41.8150 H   0  0  0  0  0  0  0  0  0  0  0  0
   47.2800   33.7900   42.6560 C   0  0  0  0  0  0  0  0  0  0  0  0
   48.1410   33.3470   43.2100 H   0  0  0  0  0  0  0  0  0  0  0  0
   46.7340   32.9080   42.1990 H   0  0  0  0  0  0  0  0  0  0  0  0
   46.1470   33.7660   44.8220 C   0  0  0  0  0  0  0  0  0  0  0  0
   46.3440   34.3790   43.5690 C   0  0  0  0  0  0  0  0  0  0  0  0
   45.6300   35.5100   43.2600 C   0  0  0  0  0  0  0  0  0  0  0  0
   44.7530   35.9970   44.1850 N   0  0  0  0  0  0  0  0  0  0  0  0
   44.5650   35.4030   45.3900 C   0  0  0  0  0  0  0  0  0  0  0  0
   45.2660   34.2850   45.7030 N   0  0  0  0  0  0  0  0  0  0  0  0
   46.7030   32.8890   45.0550 H   0  0  0  0  0  0  0  0  0  0  0  0
   45.6620   36.0860   42.3500 H   0  0  0  0  0  0  0  0  0  0  0  0
   43.8400   35.8780   46.0460 H   0  0  0  0  0  0  0  0  0  0  0  0
  1  7  1  6  0  0  0
  1  6  1  0  0  0  0
  1 22  1  0  0  0  0
  2  8  1  0  0  0  0
  2  1  1  0  0  0  0
  3  4  1  0  0  0  0
  3  2  1  0  0  0  0
  4  5  1  0  0  0  0
  5 14  1  0  0  0  0
  5 15  1  0  0  0  0
  5  6  1  0  0  0  0
  6 16  1  1  0  0  0
  9  2  1  0  0  0  0
 10  3  1  0  0  0  0
 11  3  1  0  0  0  0
 12  4  1  0  0  0  0
 13  4  1  0  0  0  0
 17 21  1  0  0  0  0
 17  6  1  0  0  0  0
 18 17  1  0  0  0  0
 19 18  2  0  0  0  0
 19 20  1  0  0  0  0
 20 21  2  0  0  0  0
 22 24  1  0  0  0  0
 22 25  1  0  0  0  0
 23 22  1  0  0  0  0
 25 26  1  0  0  0  0
 25 29  1  0  0  0  0
 27 25  1  0  0  0  0
 28 34  1  0  0  0  0
 28 33  1  0  0  0  0
 29 28  2  0  0  0  0
 30 29  1  0  0  0  0
 30 31  2  0  0  0  0
 31 32  1  0  0  0  0
 32 33  2  0  0  0  0
 32 36  1  0  0  0  0
 35 30  1  0  0  0  0
M  END
>  <minimizedAffinity>
-4.36045647

>  <minimizedRMSD>
1.626212

$$$$
