
 OpenBabel03232521013D

 40 43  0  0  1  0  0  0  0  0999 V2000
   45.3790   32.8550   47.4860 C   0  0  0  0  0  0  0  0  0  0  0  0
   45.9360   32.6180   46.2710 C   0  0  0  0  0  0  0  0  0  0  0  0
   46.2070   31.2680   46.0090 C   0  0  0  0  0  0  0  0  0  0  0  0
   45.9430   30.2610   46.8790 N   0  0  0  0  0  0  0  0  0  0  0  0
   45.3720   30.5560   48.1090 C   0  0  0  0  0  0  0  0  0  0  0  0
   45.1080   31.8300   48.3800 N   0  0  0  0  0  0  0  0  0  0  0  0
   45.0910   29.5310   49.0400 N   0  0  0  0  0  0  0  0  0  0  0  0
   45.1340   33.8580   47.7950 H   0  0  0  0  0  0  0  0  0  0  0  0
   44.6580   28.6520   48.6480 H   0  0  0  0  0  0  0  0  0  0  0  0
   45.2630   29.5480   50.0550 H   0  0  0  0  0  0  0  0  0  0  0  0
   46.1780   33.5820   45.2530 C   0  0  2  0  0  0  0  0  0  0  0  0
   44.9600   34.6640   45.4970 C   0  0  0  0  0  0  0  0  0  0  0  0
   44.7270   35.6050   44.4380 C   0  0  0  0  0  0  0  0  0  0  0  0
   45.5230   35.5560   43.2140 C   0  0  1  0  0  0  0  0  0  0  0  0
   46.5870   34.5560   43.1480 C   0  0  0  0  0  0  0  0  0  0  0  0
   46.1480   33.3130   43.8860 C   0  0  0  0  0  0  0  0  0  0  0  0
   46.9510   34.3300   45.5980 H   0  0  0  0  0  0  0  0  0  0  0  0
   44.2840   34.7890   46.3340 H   0  0  0  0  0  0  0  0  0  0  0  0
   43.9590   36.3210   44.5490 H   0  0  0  0  0  0  0  0  0  0  0  0
   45.9370   36.5720   43.0220 H   0  0  0  0  0  0  0  0  0  0  0  0
   46.7410   34.3180   42.0540 H   0  0  0  0  0  0  0  0  0  0  0  0
   47.5970   34.8930   43.4860 H   0  0  0  0  0  0  0  0  0  0  0  0
   47.0060   32.6720   43.5520 H   0  0  0  0  0  0  0  0  0  0  0  0
   45.2000   32.9700   43.4220 H   0  0  0  0  0  0  0  0  0  0  0  0
   44.5090   35.2940   42.0600 C   0  0  0  0  0  0  0  0  0  0  0  0
   43.4450   34.5060   42.4500 F   0  0  0  0  0  0  0  0  0  0  0  0
   43.9710   36.5330   41.7240 F   0  0  0  0  0  0  0  0  0  0  0  0
   45.1820   34.8290   40.9450 F   0  0  0  0  0  0  0  0  0  0  0  0
   46.8520   30.5950   44.8960 C   0  0  0  0  0  0  0  0  0  0  0  0
   46.5170   29.8350   43.8210 C   0  0  0  0  0  0  0  0  0  0  0  0
   47.6980   29.4670   43.1600 C   0  0  0  0  0  0  0  0  0  0  0  0
   48.6860   30.0200   43.8630 N   0  0  0  0  0  0  0  0  0  0  0  0
   48.2130   30.6890   44.8870 N   0  0  0  0  0  0  0  0  0  0  0  0
   45.4640   29.6490   43.6600 H   0  0  0  0  0  0  0  0  0  0  0  0
   47.5530   28.8550   42.2830 H   0  0  0  0  0  0  0  0  0  0  0  0
   50.0540   29.8170   43.4200 C   0  0  0  0  0  3  0  0  0  0  0  0
   50.9330   29.2540   44.4810 C   0  0  0  0  0  2  0  0  0  0  0  0
   51.6310   28.0430   43.8500 C   0  0  0  0  0  2  0  0  0  0  0  0
   51.5440   28.3430   42.3660 C   0  0  0  0  0  2  0  0  0  0  0  0
   50.1180   28.8370   42.2630 C   0  0  0  0  0  2  0  0  0  0  0  0
  1  8  1  0  0  0  0
  1  6  1  0  0  0  0
  2  1  2  0  0  0  0
  3  2  1  0  0  0  0
  3  4  2  0  0  0  0
  4  5  1  0  0  0  0
  5  6  2  0  0  0  0
  5  7  1  0  0  0  0
  7 10  1  0  0  0  0
  9  7  1  0  0  0  0
 11 12  1  0  0  0  0
 11 17  1  1  0  0  0
 11  2  1  0  0  0  0
 12 18  1  0  0  0  0
 13 19  1  0  0  0  0
 13 12  2  0  0  0  0
 14 20  1  6  0  0  0
 14 13  1  0  0  0  0
 15 14  1  0  0  0  0
 15 22  1  0  0  0  0
 15 16  1  0  0  0  0
 16 11  1  0  0  0  0
 21 15  1  0  0  0  0
 23 16  1  0  0  0  0
 24 16  1  0  0  0  0
 25 26  1  0  0  0  0
 25 14  1  0  0  0  0
 27 25  1  0  0  0  0
 28 25  1  0  0  0  0
 29  3  1  0  0  0  0
 30 29  1  0  0  0  0
 31 30  2  0  0  0  0
 31 32  1  0  0  0  0
 32 33  1  0  0  0  0
 33 29  2  0  0  0  0
 34 30  1  0  0  0  0
 35 31  1  0  0  0  0
 36 32  1  0  0  0  0
 36 37  1  0  0  0  0
 38 37  1  0  0  0  0
 39 38  1  0  0  0  0
 40 39  1  0  0  0  0
 40 36  1  0  0  0  0
M  END
>  <minimizedAffinity>
-5.61116982

>  <minimizedRMSD>
0.189595461

$$$$
