
 OpenBabel03232513473D

 48 50  0  0  1  0  0  0  0  0999 V2000
   47.7110   30.0100   44.8870 C   0  0  0  0  0  0  0  0  0  0  0  0
   46.3600   33.4390   45.0920 C   0  0  0  0  0  0  0  0  0  0  0  0
   45.3120   33.4770   44.1610 C   0  0  0  0  0  0  0  0  0  0  0  0
   45.1040   32.2700   43.4720 C   0  0  0  0  0  0  0  0  0  0  0  0
   45.8810   31.1980   43.7300 N   0  0  0  0  0  0  0  0  0  0  0  0
   46.8860   31.2170   44.6440 C   0  0  0  0  0  0  0  0  0  0  0  0
   47.0990   32.3520   45.3080 N   0  0  0  0  0  0  0  0  0  0  0  0
   46.5530   34.3500   45.6430 H   0  0  0  0  0  0  0  0  0  0  0  0
   44.3260   32.2030   42.7430 H   0  0  0  0  0  0  0  0  0  0  0  0
   44.5080   34.6290   43.9130 N   0  0  0  0  0  0  0  0  0  0  0  0
   44.7420   35.5460   42.8460 C   0  0  0  0  0  0  0  0  0  0  0  0
   45.9840   35.7980   42.5800 N   0  0  0  0  0  0  0  0  0  0  0  0
   43.5580   36.0600   42.2180 N   0  0  0  0  0  0  0  0  0  0  0  0
   46.2670   36.4500   41.8170 H   0  0  0  0  0  0  0  0  0  0  0  0
   43.7110   34.7350   44.6060 H   0  0  0  0  0  0  0  0  0  0  0  0
   42.7500   36.3230   42.8200 H   0  0  0  0  0  0  0  0  0  0  0  0
   43.4820   36.1790   41.1750 H   0  0  0  0  0  0  0  0  0  0  0  0
   47.0720   28.8420   44.0650 C   0  0  0  0  0  0  0  0  0  0  0  0
   45.9990   28.7650   44.3010 H   0  0  0  0  0  0  0  0  0  0  0  0
   47.2400   29.0540   42.9900 H   0  0  0  0  0  0  0  0  0  0  0  0
   47.6420   27.9190   44.3400 H   0  0  0  0  0  0  0  0  0  0  0  0
   49.0510   30.2640   44.2700 C   0  0  0  0  0  0  0  0  0  0  0  0
   49.6380   29.3350   44.1370 H   0  0  0  0  0  0  0  0  0  0  0  0
   49.6250   30.9300   44.9490 H   0  0  0  0  0  0  0  0  0  0  0  0
   48.8600   30.7460   43.2910 H   0  0  0  0  0  0  0  0  0  0  0  0
   47.7180   29.5540   46.3040 C   0  0  0  0  0  0  0  0  0  0  0  0
   47.7340   28.4320   46.4010 H   0  0  0  0  0  0  0  0  0  0  0  0
   46.7050   29.8270   46.7190 H   0  0  0  0  0  0  0  0  0  0  0  0
   48.7050   30.0500   47.1620 N   0  0  0  0  0  0  0  0  0  0  0  0
   49.7020   29.1860   47.6640 C   0  0  0  0  0  0  0  0  0  0  0  0
   49.5760   28.9670   49.1660 C   0  0  0  0  0  0  0  0  0  0  0  0
   49.4030   30.2300   49.9440 C   0  0  0  0  0  0  0  0  0  0  0  0
   49.2400   31.4650   49.0920 C   0  0  0  0  0  0  0  0  0  0  0  0
   48.2700   31.1070   47.9800 C   0  0  2  0  0  0  0  0  0  0  0  0
   49.7070   28.2000   47.1960 H   0  0  0  0  0  0  0  0  0  0  0  0
   50.7010   29.6330   47.4740 H   0  0  0  0  0  0  0  0  0  0  0  0
   48.8360   28.1810   49.4210 H   0  0  0  0  0  0  0  0  0  0  0  0
   50.5700   28.5280   49.4770 H   0  0  0  0  0  0  0  0  0  0  0  0
   50.2360   30.4280   50.6490 H   0  0  0  0  0  0  0  0  0  0  0  0
   48.4880   30.1310   50.5660 H   0  0  0  0  0  0  0  0  0  0  0  0
   50.1670   31.8200   48.6440 H   0  0  0  0  0  0  0  0  0  0  0  0
   48.7240   32.2350   49.7020 H   0  0  0  0  0  0  0  0  0  0  0  0
   48.2680   32.0250   47.3280 H   0  0  0  0  0  0  0  0  0  0  0  0
   46.9120   30.9980   48.4830 N   0  0  0  0  0  0  0  0  0  0  0  0
   46.1230   31.8990   49.1140 C   0  0  0  0  0  0  0  0  0  0  0  0
   44.9330   31.3990   49.4140 N   0  0  0  0  0  0  0  0  0  0  0  0
   44.9440   30.1320   48.9660 C   0  0  0  0  0  0  0  0  0  0  0  0
   46.1430   29.9000   48.4060 N   0  0  0  0  0  0  0  0  0  0  0  0
  1 26  1  0  0  0  0
  2  7  1  0  0  0  0
  2  8  1  0  0  0  0
  3  2  2  0  0  0  0
  4  5  2  0  0  0  0
  4  3  1  0  0  0  0
  5  6  1  0  0  0  0
  6  1  1  0  0  0  0
  6  7  2  0  0  0  0
  9  4  1  0  0  0  0
 10  3  1  0  0  0  0
 10 15  1  0  0  0  0
 11 10  1  0  0  0  0
 12 11  2  0  0  0  0
 13 16  1  0  0  0  0
 13 11  1  0  0  0  0
 14 12  1  0  0  0  0
 17 13  1  0  0  0  0
 18 19  1  0  0  0  0
 18 21  1  0  0  0  0
 18  1  1  0  0  0  0
 20 18  1  0  0  0  0
 22  1  1  0  0  0  0
 22 24  1  0  0  0  0
 23 22  1  0  0  0  0
 25 22  1  0  0  0  0
 26 27  1  0  0  0  0
 26 28  1  0  0  0  0
 26 29  1  0  0  0  0
 29 30  1  0  0  0  0
 29 34  1  0  0  0  0
 30 31  1  0  0  0  0
 31 37  1  0  0  0  0
 31 38  1  0  0  0  0
 31 32  1  0  0  0  0
 32 40  1  0  0  0  0
 32 39  1  0  0  0  0
 33 42  1  0  0  0  0
 33 32  1  0  0  0  0
 34 43  1  6  0  0  0
 34 44  1  0  0  0  0
 34 33  1  0  0  0  0
 35 30  1  0  0  0  0
 36 30  1  0  0  0  0
 41 33  1  0  0  0  0
 44 45  1  0  0  0  0
 45 46  2  0  0  0  0
 47 46  1  0  0  0  0
 48 44  1  0  0  0  0
 48 47  2  0  0  0  0
M  END
>  <minimizedAffinity>
-4.82135677

>  <minimizedRMSD>
1.53149331

$$$$
