
 OpenBabel03232520333D

 44 48  0  0  1  0  0  0  0  0999 V2000
   46.9060   34.5260   41.3390 C   0  0  0  0  0  0  0  0  0  0  0  0
   48.1750   34.9390   40.9680 C   0  0  0  0  0  0  0  0  0  0  0  0
   48.4410   34.6100   39.7070 N   0  0  0  0  0  0  0  0  0  0  0  0
   47.3440   33.9790   39.2420 C   0  0  0  0  0  0  0  0  0  0  0  0
   47.0770   33.4240   37.9830 C   0  0  0  0  0  0  0  0  0  0  0  0
   45.8670   32.8330   37.7720 C   0  0  0  0  0  0  0  0  0  0  0  0
   44.8700   32.7340   38.7030 C   0  0  0  0  0  0  0  0  0  0  0  0
   45.1770   33.2900   39.9170 C   0  0  0  0  0  0  0  0  0  0  0  0
   46.3620   33.9020   40.2220 C   0  0  0  0  0  0  0  0  0  0  0  0
   49.2900   34.7670   39.1200 H   0  0  0  0  0  0  0  0  0  0  0  0
   47.8310   33.4710   37.1970 H   0  0  0  0  0  0  0  0  0  0  0  0
   45.7160   32.4180   36.7700 H   0  0  0  0  0  0  0  0  0  0  0  0
   43.9470   32.2560   38.4650 H   0  0  0  0  0  0  0  0  0  0  0  0
   44.4360   33.2560   40.7250 H   0  0  0  0  0  0  0  0  0  0  0  0
   44.7620   35.9270   44.0420 C   0  0  0  0  0  0  0  0  0  0  0  0
   45.3970   35.7890   42.7850 C   0  0  0  0  0  0  0  0  0  0  0  0
   46.2410   34.6910   42.6220 C   0  0  0  0  0  0  0  0  0  0  0  0
   46.4270   33.8040   43.6510 N   0  0  0  0  0  0  0  0  0  0  0  0
   45.7840   33.9960   44.8380 C   0  0  0  0  0  0  0  0  0  0  0  0
   44.9570   35.0510   45.0340 N   0  0  0  0  0  0  0  0  0  0  0  0
   44.0990   36.7650   44.2140 H   0  0  0  0  0  0  0  0  0  0  0  0
   45.2020   36.5210   42.0340 H   0  0  0  0  0  0  0  0  0  0  0  0
   45.9920   33.2470   45.5890 H   0  0  0  0  0  0  0  0  0  0  0  0
   49.0960   35.6540   41.8870 C   0  0  0  0  0  0  0  0  0  0  0  0
   48.5070   36.2460   42.6060 H   0  0  0  0  0  0  0  0  0  0  0  0
   49.7420   36.3250   41.2780 H   0  0  0  0  0  0  0  0  0  0  0  0
   49.9940   34.7150   42.6210 C   0  0  0  0  0  0  0  0  0  0  0  0
   49.5940   34.5670   43.6560 H   0  0  0  0  0  0  0  0  0  0  0  0
   50.9820   35.2060   42.7760 H   0  0  0  0  0  0  0  0  0  0  0  0
   50.2400   33.4120   41.9270 C   0  0  1  0  0  0  0  0  0  0  0  0
   51.0500   32.3200   42.4720 C   0  0  0  0  0  0  0  0  0  0  0  0
   49.5670   32.2040   42.6070 C   0  0  2  0  0  0  0  0  0  0  0  0
   50.1250   33.3980   40.8130 H   0  0  0  0  0  0  0  0  0  0  0  0
   51.6110   32.5060   43.4180 H   0  0  0  0  0  0  0  0  0  0  0  0
   51.5620   31.6270   41.8050 H   0  0  0  0  0  0  0  0  0  0  0  0
   49.1390   32.3170   43.6030 H   0  0  0  0  0  0  0  0  0  0  0  0
   48.9590   31.2430   41.8260 O   0  0  0  0  0  0  0  0  0  0  0  0
   45.2840   30.0790   43.4720 H   0  0  0  0  0  0  0  0  0  0  0  0
   45.9830   29.4870   43.9820 N   0  0  0  0  0  0  0  0  0  0  0  0
   46.6340   28.6780   42.9710 C   0  0  0  0  0  0  0  0  0  0  0  0
   47.2240   29.5600   41.8710 C   0  0  0  0  0  0  0  0  0  0  0  0
   47.8380   30.7960   42.4780 C   0  0  0  0  0  0  0  0  0  0  0  0
   48.2120   30.4020   43.9120 C   0  0  0  0  0  0  0  0  0  0  0  0
   46.9070   30.3490   44.6760 C   0  0  0  0  0  0  0  0  0  0  0  0
  1 17  1  0  0  0  0
  2  1  2  0  0  0  0
  2 24  1  0  0  0  0
  3  2  1  0  0  0  0
  4  3  1  0  0  0  0
  4  9  1  0  0  0  0
  5  4  2  0  0  0  0
  6  5  1  0  0  0  0
  6  7  2  0  0  0  0
  7  8  1  0  0  0  0
  8  9  2  0  0  0  0
  8 14  1  0  0  0  0
  9  1  1  0  0  0  0
 10  3  1  0  0  0  0
 11  5  1  0  0  0  0
 12  6  1  0  0  0  0
 13  7  1  0  0  0  0
 15 21  1  0  0  0  0
 15 20  1  0  0  0  0
 16 15  2  0  0  0  0
 17 16  1  0  0  0  0
 17 18  2  0  0  0  0
 18 19  1  0  0  0  0
 19 20  2  0  0  0  0
 19 23  1  0  0  0  0
 22 16  1  0  0  0  0
 24 25  1  0  0  0  0
 24 27  1  0  0  0  0
 26 24  1  0  0  0  0
 27 29  1  0  0  0  0
 27 28  1  0  0  0  0
 30 33  1  6  0  0  0
 30 31  1  0  0  0  0
 30 32  1  0  0  0  0
 30 27  1  0  0  0  0
 31 32  1  0  0  0  0
 31 34  1  0  0  0  0
 32 36  1  1  0  0  0
 35 31  1  0  0  0  0
 37 42  1  0  0  0  0
 37 32  1  0  0  0  0
 38 39  1  0  0  0  0
 39 44  1  0  0  0  0
 40 39  1  0  0  0  0
 41 42  1  0  0  0  0
 41 40  1  0  0  0  0
 42 43  1  0  0  0  0
 43 44  1  0  0  0  0
M  END
>  <minimizedAffinity>
-5.62234211

>  <minimizedRMSD>
0.192958847

$$$$
