
 OpenBabel03232520503D

 33 36  0  0  1  0  0  0  0  0999 V2000
   46.3220   33.4640   45.3880 C   0  0  2  0  0  0  0  0  0  0  0  0
   45.1900   34.4500   45.2420 C   0  0  0  0  0  0  0  0  0  0  0  0
   45.1230   35.2600   44.0400 C   0  0  0  0  0  0  0  0  0  0  0  0
   46.1500   35.0900   43.0140 C   0  0  1  0  0  0  0  0  0  0  0  0
   47.3180   34.2580   43.3490 C   0  0  0  0  0  0  0  0  0  0  0  0
   46.8400   33.0180   44.0620 C   0  0  0  0  0  0  0  0  0  0  0  0
   47.1150   34.0460   45.9460 H   0  0  0  0  0  0  0  0  0  0  0  0
   44.3720   34.6710   45.9100 H   0  0  0  0  0  0  0  0  0  0  0  0
   44.3330   35.9600   43.9180 H   0  0  0  0  0  0  0  0  0  0  0  0
   46.4980   36.1020   42.7170 H   0  0  0  0  0  0  0  0  0  0  0  0
   47.9580   34.8250   44.0780 H   0  0  0  0  0  0  0  0  0  0  0  0
   47.8600   34.0200   42.4140 H   0  0  0  0  0  0  0  0  0  0  0  0
   47.6720   32.3060   44.2400 H   0  0  0  0  0  0  0  0  0  0  0  0
   46.0210   32.5820   43.4750 H   0  0  0  0  0  0  0  0  0  0  0  0
   45.4690   34.5780   41.8140 N   0  0  0  0  0  0  0  0  0  0  0  0
   46.0900   33.8510   40.8580 C   0  0  0  0  0  0  0  0  0  0  0  0
   45.2000   33.5250   39.8780 N   0  0  0  0  0  0  0  0  0  0  0  0
   44.0070   34.0520   40.2170 C   0  0  0  0  0  0  0  0  0  0  0  0
   42.7440   34.1000   39.7020 C   0  0  0  0  0  0  0  0  0  0  0  0
   42.5480   33.6030   38.7570 H   0  0  0  0  0  0  0  0  0  0  0  0
   41.7220   34.7410   40.3220 N   0  0  0  0  0  0  0  0  0  0  0  0
   41.9310   35.3620   41.4860 C   0  0  0  0  0  0  0  0  0  0  0  0
   43.1630   35.3240   42.0030 N   0  0  0  0  0  0  0  0  0  0  0  0
   44.1900   34.6980   41.4130 C   0  0  0  0  0  0  0  0  0  0  0  0
   45.4020   32.7010   47.5410 C   0  0  0  0  0  0  0  0  0  0  0  0
   45.9220   32.3760   46.2880 C   0  0  0  0  0  0  0  0  0  0  0  0
   46.0540   31.0050   45.9580 C   0  0  0  0  0  0  0  0  0  0  0  0
   45.6700   30.0860   46.8740 N   0  0  0  0  0  0  0  0  0  0  0  0
   45.1670   30.4290   48.0850 C   0  0  0  0  0  0  0  0  0  0  0  0
   45.0330   31.7340   48.4170 N   0  0  0  0  0  0  0  0  0  0  0  0
   45.2520   33.7070   47.9110 H   0  0  0  0  0  0  0  0  0  0  0  0
   46.4500   30.7120   45.0030 H   0  0  0  0  0  0  0  0  0  0  0  0
   44.9160   29.5660   48.6790 H   0  0  0  0  0  0  0  0  0  0  0  0
  1  7  1  1  0  0  0
  1 26  1  0  0  0  0
  2  1  1  0  0  0  0
  2  8  1  0  0  0  0
  3  2  2  0  0  0  0
  4 10  1  6  0  0  0
  4  5  1  0  0  0  0
  4  3  1  0  0  0  0
  5  6  1  0  0  0  0
  5 11  1  0  0  0  0
  6 13  1  0  0  0  0
  6  1  1  0  0  0  0
  9  3  1  0  0  0  0
 12  5  1  0  0  0  0
 14  6  1  0  0  0  0
 15  4  1  0  0  0  0
 16 15  1  0  0  0  0
 17 18  1  0  0  0  0
 17 16  2  0  0  0  0
 18 24  1  0  0  0  0
 19 18  2  0  0  0  0
 19 21  1  0  0  0  0
 20 19  1  0  0  0  0
 21 22  2  0  0  0  0
 22 23  1  0  0  0  0
 24 15  1  0  0  0  0
 24 23  2  0  0  0  0
 25 31  1  0  0  0  0
 25 30  1  0  0  0  0
 26 25  2  0  0  0  0
 27 26  1  0  0  0  0
 27 28  2  0  0  0  0
 28 29  1  0  0  0  0
 29 30  2  0  0  0  0
 29 33  1  0  0  0  0
 32 27  1  0  0  0  0
M  END
>  <minimizedAffinity>
-5.89363766

>  <minimizedRMSD>
1.29475999

$$$$
