
 OpenBabel03232520453D

 42 46  0  0  0  0  0  0  0  0999 V2000
   46.4170   34.6400   42.1050 C   0  0  0  0  0  0  0  0  0  0  0  0
   47.7250   34.9910   41.9440 C   0  0  0  0  0  0  0  0  0  0  0  0
   48.4000   34.7980   40.7290 C   0  0  0  0  0  0  0  0  0  0  0  0
   47.7250   34.2290   39.6390 C   0  0  0  0  0  0  0  0  0  0  0  0
   46.4190   33.8850   39.8220 C   0  0  0  0  0  0  0  0  0  0  0  0
   45.7800   34.0870   41.0280 C   0  0  0  0  0  0  0  0  0  0  0  0
   48.2750   35.4340   42.7680 H   0  0  0  0  0  0  0  0  0  0  0  0
   49.4460   35.0900   40.6390 H   0  0  0  0  0  0  0  0  0  0  0  0
   48.2430   34.0790   38.7030 H   0  0  0  0  0  0  0  0  0  0  0  0
   45.8640   33.4390   38.9890 H   0  0  0  0  0  0  0  0  0  0  0  0
   44.4830   36.0920   44.9850 C   0  0  0  0  0  0  0  0  0  0  0  0
   45.0280   35.9870   43.7070 C   0  0  0  0  0  0  0  0  0  0  0  0
   45.7940   34.8740   43.3930 C   0  0  0  0  0  0  0  0  0  0  0  0
   45.9760   33.9420   44.3470 N   0  0  0  0  0  0  0  0  0  0  0  0
   45.4330   34.0690   45.5860 C   0  0  0  0  0  0  0  0  0  0  0  0
   44.6900   35.1440   45.8960 N   0  0  0  0  0  0  0  0  0  0  0  0
   43.8960   36.9690   45.1850 H   0  0  0  0  0  0  0  0  0  0  0  0
   44.9000   36.7140   42.9220 H   0  0  0  0  0  0  0  0  0  0  0  0
   45.6330   33.0760   46.5860 N   0  0  0  0  0  0  0  0  0  0  0  0
   44.9890   33.1160   47.7870 C   0  0  0  0  0  0  0  0  0  0  0  0
   45.3640   32.0620   48.5310 N   0  0  0  0  0  0  0  0  0  0  0  0
   46.2430   31.3280   47.8430 C   0  0  0  0  0  0  0  0  0  0  0  0
   46.9390   30.1630   48.1170 C   0  0  0  0  0  0  0  0  0  0  0  0
   46.7480   29.7300   49.0940 H   0  0  0  0  0  0  0  0  0  0  0  0
   47.7650   29.6920   47.1620 N   0  0  0  0  0  0  0  0  0  0  0  0
   47.9010   30.3400   45.9900 C   0  0  0  0  0  0  0  0  0  0  0  0
   47.2250   31.4890   45.7000 N   0  0  0  0  0  0  0  0  0  0  0  0
   46.3930   31.9810   46.6360 C   0  0  0  0  0  0  0  0  0  0  0  0
   44.4160   33.7090   41.1530 N   0  0  0  0  0  0  0  0  0  0  0  0
   43.5890   34.6760   40.6410 C   0  0  0  0  0  0  0  0  0  0  0  0
   42.2060   34.5170   40.6570 C   0  0  0  0  0  0  0  0  0  0  0  0
   41.7060   33.3480   41.2090 C   0  0  0  0  0  0  0  0  0  0  0  0
   40.4680   33.1370   41.2560 O   0  0  0  0  0  0  0  0  0  0  0  0
   42.5530   32.4270   41.6980 N   0  0  0  0  0  0  0  0  0  0  0  0
   43.8840   32.5950   41.6760 C   0  0  0  0  0  0  0  0  0  0  0  0
   44.7390   31.7940   42.1070 O   0  0  0  0  0  0  0  0  0  0  0  0
   43.9070   35.6020   40.2010 H   0  0  0  0  0  0  0  0  0  0  0  0
   42.2250   31.5290   42.1250 H   0  0  0  0  0  0  0  0  0  0  0  0
   41.2780   35.5440   40.1120 C   0  0  0  0  0  0  0  0  0  0  0  0
   40.4170   34.9910   39.6660 H   0  0  0  0  0  0  0  0  0  0  0  0
   40.9080   36.2470   40.8730 H   0  0  0  0  0  0  0  0  0  0  0  0
   41.7570   36.1000   39.2770 H   0  0  0  0  0  0  0  0  0  0  0  0
  1 13  1  0  0  0  0
  2  1  1  0  0  0  0
  2  7  1  0  0  0  0
  3  2  2  0  0  0  0
  4  5  2  0  0  0  0
  4  3  1  0  0  0  0
  5  6  1  0  0  0  0
  6 29  1  0  0  0  0
  6  1  2  0  0  0  0
  8  3  1  0  0  0  0
  9  4  1  0  0  0  0
 10  5  1  0  0  0  0
 11 17  1  0  0  0  0
 11 16  1  0  0  0  0
 12 11  2  0  0  0  0
 13 12  1  0  0  0  0
 13 14  2  0  0  0  0
 14 15  1  0  0  0  0
 15 16  2  0  0  0  0
 15 19  1  0  0  0  0
 18 12  1  0  0  0  0
 19 28  1  0  0  0  0
 19 20  1  0  0  0  0
 20 21  2  0  0  0  0
 22 23  1  0  0  0  0
 22 21  1  0  0  0  0
 23 24  1  0  0  0  0
 25 23  2  0  0  0  0
 26 25  1  0  0  0  0
 27 26  2  0  0  0  0
 27 28  1  0  0  0  0
 28 22  2  0  0  0  0
 29 35  1  0  0  0  0
 30 31  2  0  0  0  0
 30 29  1  0  0  0  0
 31 32  1  0  0  0  0
 32 33  2  0  0  0  0
 32 34  1  0  0  0  0
 34 38  1  0  0  0  0
 35 34  1  0  0  0  0
 35 36  2  0  0  0  0
 37 30  1  0  0  0  0
 39 31  1  0  0  0  0
 39 41  1  0  0  0  0
 40 39  1  0  0  0  0
 42 39  1  0  0  0  0
M  END
>  <minimizedAffinity>
-8.2367382

>  <minimizedRMSD>
0.110663161

$$$$
