REMARK  Name = 
REMARK  4 active torsions:
REMARK  status: ('A' for Active; 'I' for Inactive)
REMARK    1  A    between atoms: C_1  and  C_8
REMARK    2  A    between atoms: C_4  and  C_19
REMARK    3  A    between atoms: C_9  and  C_14
REMARK    4  A    between atoms: N_17  and  C_36
REMARK                            x       y       z     vdW  Elec       q    Type
REMARK                         _______ _______ _______ _____ _____    ______ ____
ROOT
ATOM      1  C   UNL     1      45.400  32.884  47.529  0.00  0.00    +0.000 A 
ATOM      2  C   UNL     1      45.918  32.636  46.298  0.00  0.00    +0.000 A 
ATOM      3  C   UNL     1      46.151  31.284  46.026  0.00  0.00    +0.000 A 
ATOM      4  N   UNL     1      45.888  30.283  46.905  0.00  0.00    +0.000 NA
ATOM      5  C   UNL     1      45.359  30.587  48.150  0.00  0.00    +0.000 A 
ATOM      6  N   UNL     1      45.130  31.868  48.428  0.00  0.00    +0.000 NA
ATOM      7  N   UNL     1      45.085  29.566  49.090  0.00  0.00    +0.000 N 
ATOM      8  H   UNL     1      45.186  33.893  47.845  0.00  0.00    +0.000 HD
ATOM      9  H   UNL     1      45.028  29.837  50.096  0.00  0.00    +0.000 HD
ATOM     10  H   UNL     1      44.944  28.567  48.782  0.00  0.00    +0.000 HD
ENDROOT
BRANCH   2  11
ATOM     11  C   UNL     1      46.158  33.599  45.279  0.00  0.00    +0.000 C 
ATOM     12  C   UNL     1      44.924  34.665  45.499  0.00  0.00    +0.000 C 
ATOM     13  C   UNL     1      44.688  35.596  44.430  0.00  0.00    +0.000 C 
ATOM     14  C   UNL     1      45.505  35.548  43.216  0.00  0.00    +0.000 C 
ATOM     15  C   UNL     1      46.587  34.569  43.178  0.00  0.00    +0.000 C 
ATOM     16  C   UNL     1      46.154  33.322  43.913  0.00  0.00    +0.000 C 
ATOM     17  H   UNL     1      46.954  34.327  45.618  0.00  0.00    +0.000 HD
ATOM     18  H   UNL     1      44.234  34.798  46.323  0.00  0.00    +0.000 HD
ATOM     19  H   UNL     1      43.904  36.300  44.537  0.00  0.00    +0.000 HD
ATOM     20  H   UNL     1      45.918  36.564  43.021  0.00  0.00    +0.000 HD
ATOM     21  H   UNL     1      46.850  34.367  42.099  0.00  0.00    +0.000 HD
ATOM     22  H   UNL     1      47.508  34.951  43.682  0.00  0.00    +0.000 HD
ATOM     23  H   UNL     1      47.030  32.695  43.594  0.00  0.00    +0.000 HD
ATOM     24  H   UNL     1      45.256  32.872  43.445  0.00  0.00    +0.000 HD
BRANCH  14  25
ATOM     25  C   UNL     1      44.513  35.266  42.049  0.00  0.00    +0.000 C 
ATOM     26  F   UNL     1      43.458  34.454  42.431  0.00  0.00    +0.000 F 
ATOM     27  F   UNL     1      43.957  36.494  41.704  0.00  0.00    +0.000 F 
ATOM     28  F   UNL     1      45.211  34.813  40.946  0.00  0.00    +0.000 F 
ENDBRANCH  14  25
ENDBRANCH   2  11
BRANCH   3  29
ATOM     29  C   UNL     1      46.750  30.598  44.897  0.00  0.00    +0.000 A 
ATOM     30  C   UNL     1      46.367  29.921  43.785  0.00  0.00    +0.000 A 
ATOM     31  C   UNL     1      47.520  29.469  43.127  0.00  0.00    +0.000 A 
ATOM     32  N   UNL     1      48.541  29.893  43.871  0.00  0.00    +0.000 N 
ATOM     33  N   UNL     1      48.114  30.560  44.917  0.00  0.00    +0.000 NA
ATOM     34  H   UNL     1      45.315  29.839  43.588  0.00  0.00    +0.000 HD
ATOM     35  H   UNL     1      47.459  28.900  42.210  0.00  0.00    +0.000 HD
BRANCH  32  36
ATOM     36  C   UNL     1      49.923  29.636  43.541  0.00  0.00    +0.000 A 
ATOM     37  C   UNL     1      50.261  28.506  42.803  0.00  0.00    +0.000 A 
ATOM     38  H   UNL     1      49.426  27.855  42.505  0.00  0.00    +0.000 HD
ATOM     39  C   UNL     1      51.577  28.209  42.456  0.00  0.00    +0.000 A 
ATOM     40  C   UNL     1      52.575  29.067  42.860  0.00  0.00    +0.000 A 
ATOM     41  H   UNL     1      53.562  28.796  42.570  0.00  0.00    +0.000 HD
ATOM     42  C   UNL     1      52.246  30.194  43.594  0.00  0.00    +0.000 A 
ATOM     43  H   UNL     1      53.030  30.862  43.908  0.00  0.00    +0.000 HD
ATOM     44  C   UNL     1      50.929  30.478  43.934  0.00  0.00    +0.000 A 
ENDBRANCH  32  36
ENDBRANCH   3  29
TORSDOF 4
