
 OpenBabel03232518513D

 35 38  0  0  0  0  0  0  0  0999 V2000
   47.4030   33.0960   43.6710 C   0  0  0  0  0  0  0  0  0  0  0  0
   47.5530   31.8550   43.5360 O   0  0  0  0  0  0  0  0  0  0  0  0
   44.7210   35.3190   44.9570 C   0  0  0  0  0  0  0  0  0  0  0  0
   45.6440   34.8350   44.0400 C   0  0  0  0  0  0  0  0  0  0  0  0
   46.4050   33.7530   44.4420 C   0  0  0  0  0  0  0  0  0  0  0  0
   46.2190   33.2250   45.6850 N   0  0  0  0  0  0  0  0  0  0  0  0
   45.3370   33.6960   46.5440 C   0  0  0  0  0  0  0  0  0  0  0  0
   44.6060   34.7340   46.1620 N   0  0  0  0  0  0  0  0  0  0  0  0
   44.1040   36.1600   44.6910 H   0  0  0  0  0  0  0  0  0  0  0  0
   45.8170   35.4250   42.7130 C   0  0  0  0  0  0  0  0  0  0  0  0
   44.9560   36.5290   42.6430 F   0  0  0  0  0  0  0  0  0  0  0  0
   45.3360   34.5850   41.7260 F   0  0  0  0  0  0  0  0  0  0  0  0
   47.0960   35.8050   42.4440 F   0  0  0  0  0  0  0  0  0  0  0  0
   45.1070   33.2050   47.8070 O   0  0  0  0  0  0  0  0  0  0  0  0
   45.8450   32.1420   48.3670 C   0  0  0  0  0  0  0  0  0  0  0  0
   47.1910   32.4880   48.4560 F   0  0  0  0  0  0  0  0  0  0  0  0
   45.6400   30.9500   47.7410 F   0  0  0  0  0  0  0  0  0  0  0  0
   45.4340   32.0420   49.7090 F   0  0  0  0  0  0  0  0  0  0  0  0
   48.4830   33.3760   42.8540 O   0  0  0  0  0  0  0  0  0  0  0  0
   48.6900   32.8870   41.6040 C   0  0  0  0  0  0  0  0  0  0  0  0
   47.6490   32.7630   40.5350 C   0  0  0  0  0  0  0  0  0  0  0  0
   48.6130   32.0490   39.1800 S   0  0  0  0  0  0  0  0  0  0  0  0
   50.2040   32.0220   40.1960 C   0  0  0  0  0  0  0  0  0  0  0  0
   49.8930   32.4750   41.2660 N   0  0  0  0  0  0  0  0  0  0  0  0
   46.5070   33.0160   40.4320 H   0  0  0  0  0  0  0  0  0  0  0  0
   51.4440   31.5260   39.6430 N   0  0  0  0  0  0  0  0  0  0  0  0
   52.6100   31.3420   40.2610 C   0  0  0  0  0  0  0  0  0  0  0  0
   53.4720   30.8650   39.3410 N   0  0  0  0  0  0  0  0  0  0  0  0
   52.8080   30.7680   38.1650 C   0  0  0  0  0  0  0  0  0  0  0  0
   53.2570   30.3290   36.9150 C   0  0  0  0  0  0  0  0  0  0  0  0
   54.2760   30.0000   36.7770 H   0  0  0  0  0  0  0  0  0  0  0  0
   52.3470   30.3410   35.8970 N   0  0  0  0  0  0  0  0  0  0  0  0
   51.0770   30.7630   36.1160 C   0  0  0  0  0  0  0  0  0  0  0  0
   50.6490   31.1850   37.3200 N   0  0  0  0  0  0  0  0  0  0  0  0
   51.4970   31.1950   38.3650 C   0  0  0  0  0  0  0  0  0  0  0  0
  1  5  1  0  0  0  0
  2  1  2  0  0  0  0
  3  8  1  0  0  0  0
  4  5  1  0  0  0  0
  4  3  2  0  0  0  0
  5  6  2  0  0  0  0
  6  7  1  0  0  0  0
  7 14  1  0  0  0  0
  8  7  2  0  0  0  0
  9  3  1  0  0  0  0
 10  4  1  0  0  0  0
 11 10  1  0  0  0  0
 12 10  1  0  0  0  0
 13 10  1  0  0  0  0
 14 15  1  0  0  0  0
 15 16  1  0  0  0  0
 15 18  1  0  0  0  0
 17 15  1  0  0  0  0
 19  1  1  0  0  0  0
 20 19  1  0  0  0  0
 21 20  2  0  0  0  0
 22 23  1  0  0  0  0
 22 21  1  0  0  0  0
 23 24  2  0  0  0  0
 24 20  1  0  0  0  0
 25 21  1  0  0  0  0
 26 23  1  0  0  0  0
 26 27  1  0  0  0  0
 28 27  2  0  0  0  0
 29 35  1  0  0  0  0
 29 28  1  0  0  0  0
 30 29  2  0  0  0  0
 31 30  1  0  0  0  0
 32 33  2  0  0  0  0
 32 30  1  0  0  0  0
 33 34  1  0  0  0  0
 34 35  2  0  0  0  0
 35 26  1  0  0  0  0
M  END
>  <minimizedAffinity>
-6.52084398

>  <minimizedRMSD>
0.43948558

$$$$
