
     RDKit          3D

 46 49  0  0  0  0  0  0  0  0999 V2000
   46.1579   33.5988   45.2785 C   0  0  2  0  0  0  0  0  0  0  0  0
   44.9241   34.6652   45.4990 C   0  0  0  0  0  0  0  0  0  0  0  0
   44.6884   35.5961   44.4304 C   0  0  0  0  0  0  0  0  0  0  0  0
   45.5054   35.5478   43.2163 C   0  0  1  0  0  0  0  0  0  0  0  0
   46.5869   34.5689   43.1783 C   0  0  0  0  0  0  0  0  0  0  0  0
   46.1540   33.3215   43.9129 C   0  0  0  0  0  0  0  0  0  0  0  0
   45.3997   32.8837   47.5295 C   0  0  0  0  0  0  0  0  0  0  0  0
   45.9178   32.6355   46.2979 C   0  0  0  0  0  0  0  0  0  0  0  0
   46.1510   31.2839   46.0265 C   0  0  0  0  0  0  0  0  0  0  0  0
   45.8877   30.2828   46.9046 N   0  0  0  0  0  0  0  0  0  0  0  0
   45.3590   30.5875   48.1496 C   0  0  0  0  0  0  0  0  0  0  0  0
   45.1304   31.8684   48.4284 N   0  0  0  0  0  0  0  0  0  0  0  0
   45.0853   29.5662   49.0905 N   0  0  0  0  0  0  0  0  0  0  0  0
   46.7498   30.5984   44.8969 C   0  0  0  0  0  0  0  0  0  0  0  0
   46.3669   29.9212   43.7846 C   0  0  0  0  0  0  0  0  0  0  0  0
   47.5198   29.4686   43.1271 C   0  0  0  0  0  0  0  0  0  0  0  0
   48.5409   29.8933   43.8709 N   0  0  0  0  0  0  0  0  0  0  0  0
   48.1137   30.5600   44.9168 N   0  0  0  0  0  0  0  0  0  0  0  0
   44.5132   35.2660   42.0489 C   0  0  0  0  0  0  0  0  0  0  0  0
   43.4584   34.4539   42.4305 F   0  0  0  0  0  0  0  0  0  0  0  0
   43.9566   36.4944   41.7039 F   0  0  0  0  0  0  0  0  0  0  0  0
   45.2111   34.8132   40.9460 F   0  0  0  0  0  0  0  0  0  0  0  0
   46.9538   34.3268   45.6176 H   0  0  0  0  0  0  0  0  0  0  0  0
   44.2341   34.7976   46.3233 H   0  0  0  0  0  0  0  0  0  0  0  0
   43.9040   36.2995   44.5366 H   0  0  0  0  0  0  0  0  0  0  0  0
   45.9178   36.5638   43.0213 H   0  0  0  0  0  0  0  0  0  0  0  0
   46.8499   34.3666   42.0992 H   0  0  0  0  0  0  0  0  0  0  0  0
   47.5080   34.9510   43.6820 H   0  0  0  0  0  0  0  0  0  0  0  0
   47.0297   32.6954   43.5937 H   0  0  0  0  0  0  0  0  0  0  0  0
   45.2557   32.8722   43.4446 H   0  0  0  0  0  0  0  0  0  0  0  0
   45.1856   33.8928   47.8450 H   0  0  0  0  0  0  0  0  0  0  0  0
   45.0284   29.8375   50.0959 H   0  0  0  0  0  0  0  0  0  0  0  0
   44.9444   28.5666   48.7818 H   0  0  0  0  0  0  0  0  0  0  0  0
   45.3149   29.8392   43.5884 H   0  0  0  0  0  0  0  0  0  0  0  0
   47.4586   28.9003   42.2104 H   0  0  0  0  0  0  0  0  0  0  0  0
   49.9228   29.6364   43.5406 C   0  0  0  0  0  0  0  0  0  0  0  0
   50.2407   28.9556   42.3695 C   0  0  0  0  0  0  0  0  0  0  0  0
   49.3911   28.6435   41.7448 H   0  0  0  0  0  0  0  0  0  0  0  0
   51.5562   28.6803   42.0010 C   0  0  0  0  0  0  0  0  0  0  0  0
   52.5740   29.0992   42.8288 C   0  0  0  0  0  0  0  0  0  0  0  0
   53.5590   28.8651   42.5035 H   0  0  0  0  0  0  0  0  0  0  0  0
   52.2646   29.7772   43.9955 C   0  0  0  0  0  0  0  0  0  0  0  0
   53.0639   30.1028   44.6396 H   0  0  0  0  0  0  0  0  0  0  0  0
   50.9479   30.0450   44.3510 C   0  0  0  0  0  0  0  0  0  0  0  0
   51.6407   28.1366   41.0508 H   0  0  0  0  0  0  0  0  0  0  0  0
   50.7445   30.5843   45.2827 H   0  0  0  0  0  0  0  0  0  0  0  0
  1  2  1  0
  1  8  1  0
  3  2  2  0
  4  3  1  0
  5  4  1  0
  5  6  1  0
  6  1  1  0
  7 12  2  0
  8  7  1  0
  9  8  2  0
  9 10  1  0
 10 11  2  0
 11 12  1  0
 11 13  1  0
 14 18  2  0
 14  9  1  0
 15 14  1  0
 16 15  2  0
 16 17  1  0
 17 18  1  0
 19 20  1  0
 19  4  1  0
 21 19  1  0
 22 19  1  0
  1 23  1  1
  2 24  1  0
  3 25  1  0
  4 26  1  6
  5 27  1  0
  5 28  1  0
  6 29  1  0
  6 30  1  0
  7 31  1  0
 13 32  1  0
 13 33  1  0
 15 34  1  0
 16 35  1  0
 36 37  2  0
 37 38  1  0
 37 39  1  0
 39 40  2  0
 40 41  1  0
 40 42  1  0
 42 43  1  0
 42 44  2  0
 44 36  1  0
 39 45  1  0
 44 46  1  0
 17 36  1  0
M  ISO  8  23  13  24  13  25  13  26  13  27  13  28  13  29  13  30  13
M  ISO  6  31  14  34  14  35  14  38  16  41  16  43  16
M  END
>  <DihAtoms>  (1) 
15,16,35,36

>  <DihDeg>  (1) 
-177.60019750175783

$$$$
