
 OpenBabel03232521013D

 44 47  0  0  1  0  0  0  0  0999 V2000
   45.3470   32.9250   47.5040 C   0  0  0  0  0  0  0  0  0  0  0  0
   45.9000   32.6610   46.2920 C   0  0  0  0  0  0  0  0  0  0  0  0
   46.1670   31.3080   46.0560 C   0  0  0  0  0  0  0  0  0  0  0  0
   45.9040   30.3220   46.9520 N   0  0  0  0  0  0  0  0  0  0  0  0
   45.3390   30.6420   48.1770 C   0  0  0  0  0  0  0  0  0  0  0  0
   45.0770   31.9240   48.4200 N   0  0  0  0  0  0  0  0  0  0  0  0
   45.0630   29.6370   49.1330 N   0  0  0  0  0  0  0  0  0  0  0  0
   45.1050   33.9360   47.7920 H   0  0  0  0  0  0  0  0  0  0  0  0
   44.9760   29.9290   50.1310 H   0  0  0  0  0  0  0  0  0  0  0  0
   44.9500   28.6290   48.8450 H   0  0  0  0  0  0  0  0  0  0  0  0
   46.1450   33.6050   45.2570 C   0  0  2  0  0  0  0  0  0  0  0  0
   44.9460   34.7080   45.4900 C   0  0  0  0  0  0  0  0  0  0  0  0
   44.7130   35.6330   44.4160 C   0  0  0  0  0  0  0  0  0  0  0  0
   45.5020   35.5490   43.1860 C   0  0  1  0  0  0  0  0  0  0  0  0
   46.5550   34.5400   43.1360 C   0  0  0  0  0  0  0  0  0  0  0  0
   46.1040   33.3140   43.8950 C   0  0  0  0  0  0  0  0  0  0  0  0
   46.9680   34.3150   45.5710 H   0  0  0  0  0  0  0  0  0  0  0  0
   44.2770   34.8690   46.3270 H   0  0  0  0  0  0  0  0  0  0  0  0
   43.9510   36.3600   44.5310 H   0  0  0  0  0  0  0  0  0  0  0  0
   45.9380   36.5510   42.9700 H   0  0  0  0  0  0  0  0  0  0  0  0
   46.7900   34.3190   42.0540 H   0  0  0  0  0  0  0  0  0  0  0  0
   47.4970   34.9020   43.6160 H   0  0  0  0  0  0  0  0  0  0  0  0
   46.9550   32.6590   43.5640 H   0  0  0  0  0  0  0  0  0  0  0  0
   45.1840   32.8840   43.4510 H   0  0  0  0  0  0  0  0  0  0  0  0
   44.4780   35.2820   42.0430 C   0  0  0  0  0  0  0  0  0  0  0  0
   43.4220   34.4830   42.4500 F   0  0  0  0  0  0  0  0  0  0  0  0
   43.9300   36.5180   41.7130 F   0  0  0  0  0  0  0  0  0  0  0  0
   45.1420   34.8210   40.9230 F   0  0  0  0  0  0  0  0  0  0  0  0
   46.8080   30.6100   44.9580 C   0  0  0  0  0  0  0  0  0  0  0  0
   46.4720   29.8160   43.9100 C   0  0  0  0  0  0  0  0  0  0  0  0
   47.6490   29.4440   43.2460 C   0  0  0  0  0  0  0  0  0  0  0  0
   48.6370   30.0280   43.9220 N   0  0  0  0  0  0  0  0  0  0  0  0
   48.1670   30.7200   44.9330 N   0  0  0  0  0  0  0  0  0  0  0  0
   45.4300   29.6070   43.7560 H   0  0  0  0  0  0  0  0  0  0  0  0
   47.6260   28.8060   42.3730 H   0  0  0  0  0  0  0  0  0  0  0  0
   50.0290   29.8980   43.5630 C   0  0  0  0  0  0  0  0  0  0  0  0
   50.9060   29.2370   44.4160 C   0  0  0  0  0  0  0  0  0  0  0  0
   50.4720   28.8390   45.3450 H   0  0  0  0  0  0  0  0  0  0  0  0
   52.2590   29.0810   44.1210 C   0  0  0  0  0  3  0  0  0  0  0  0
   52.7400   29.6030   42.9400 C   0  0  0  0  0  0  0  0  0  0  0  0
   53.7790   29.4590   42.7610 H   0  0  0  0  0  0  0  0  0  0  0  0
   51.8730   30.2620   42.0870 C   0  0  0  0  0  0  0  0  0  0  0  0
   52.2530   30.6690   41.1640 H   0  0  0  0  0  0  0  0  0  0  0  0
   50.5250   30.4110   42.3940 C   0  0  0  0  0  3  0  0  0  0  0  0
  1  8  1  0  0  0  0
  1  6  1  0  0  0  0
  2  1  2  0  0  0  0
  3  2  1  0  0  0  0
  3  4  2  0  0  0  0
  4  5  1  0  0  0  0
  5  6  2  0  0  0  0
  5  7  1  0  0  0  0
  7  9  1  0  0  0  0
 10  7  1  0  0  0  0
 11 12  1  0  0  0  0
 11 17  1  1  0  0  0
 11  2  1  0  0  0  0
 12 18  1  0  0  0  0
 13 19  1  0  0  0  0
 13 12  2  0  0  0  0
 14 20  1  6  0  0  0
 14 13  1  0  0  0  0
 15 14  1  0  0  0  0
 15 22  1  0  0  0  0
 15 16  1  0  0  0  0
 16 11  1  0  0  0  0
 21 15  1  0  0  0  0
 23 16  1  0  0  0  0
 24 16  1  0  0  0  0
 25 26  1  0  0  0  0
 25 14  1  0  0  0  0
 27 25  1  0  0  0  0
 28 25  1  0  0  0  0
 29  3  1  0  0  0  0
 30 29  1  0  0  0  0
 31 30  2  0  0  0  0
 31 32  1  0  0  0  0
 32 33  1  0  0  0  0
 33 29  2  0  0  0  0
 34 30  1  0  0  0  0
 35 31  1  0  0  0  0
 36 32  1  0  0  0  0
 36 37  1  0  0  0  0
 37 38  1  0  0  0  0
 39 37  2  0  0  0  0
 40 39  1  0  0  0  0
 41 40  1  0  0  0  0
 42 44  1  0  0  0  0
 42 40  2  0  0  0  0
 43 42  1  0  0  0  0
 44 36  2  0  0  0  0
M  END
>  <minimizedAffinity>
-5.91047096

>  <minimizedRMSD>
0.602907896

$$$$
