
 OpenBabel03232521013D

 44 47  0  0  1  0  0  0  0  0999 V2000
   45.3510   32.9150   47.5190 C   0  0  0  0  0  0  0  0  0  0  0  0
   45.9070   32.6540   46.3080 C   0  0  0  0  0  0  0  0  0  0  0  0
   46.1740   31.3020   46.0690 C   0  0  0  0  0  0  0  0  0  0  0  0
   45.9080   30.3130   46.9610 N   0  0  0  0  0  0  0  0  0  0  0  0
   45.3400   30.6300   48.1850 C   0  0  0  0  0  0  0  0  0  0  0  0
   45.0770   31.9120   48.4310 N   0  0  0  0  0  0  0  0  0  0  0  0
   45.0610   29.6230   49.1380 N   0  0  0  0  0  0  0  0  0  0  0  0
   45.1080   33.9260   47.8090 H   0  0  0  0  0  0  0  0  0  0  0  0
   44.9710   29.9120   50.1360 H   0  0  0  0  0  0  0  0  0  0  0  0
   44.9490   28.6150   48.8460 H   0  0  0  0  0  0  0  0  0  0  0  0
   46.1550   33.6010   45.2760 C   0  0  2  0  0  0  0  0  0  0  0  0
   44.9480   34.6970   45.5010 C   0  0  0  0  0  0  0  0  0  0  0  0
   44.7180   35.6230   44.4260 C   0  0  0  0  0  0  0  0  0  0  0  0
   45.5180   35.5450   43.2020 C   0  0  1  0  0  0  0  0  0  0  0  0
   46.5780   34.5410   43.1600 C   0  0  0  0  0  0  0  0  0  0  0  0
   46.1270   33.3120   43.9130 C   0  0  0  0  0  0  0  0  0  0  0  0
   46.9710   34.3150   45.5980 H   0  0  0  0  0  0  0  0  0  0  0  0
   44.2720   34.8530   46.3330 H   0  0  0  0  0  0  0  0  0  0  0  0
   43.9520   36.3450   44.5370 H   0  0  0  0  0  0  0  0  0  0  0  0
   45.9510   36.5490   42.9920 H   0  0  0  0  0  0  0  0  0  0  0  0
   46.8220   34.3230   42.0800 H   0  0  0  0  0  0  0  0  0  0  0  0
   47.5130   34.9080   43.6480 H   0  0  0  0  0  0  0  0  0  0  0  0
   46.9840   32.6620   43.5890 H   0  0  0  0  0  0  0  0  0  0  0  0
   45.2130   32.8770   43.4610 H   0  0  0  0  0  0  0  0  0  0  0  0
   44.5050   35.2740   42.0510 C   0  0  0  0  0  0  0  0  0  0  0  0
   43.4500   34.4690   42.4480 F   0  0  0  0  0  0  0  0  0  0  0  0
   43.9530   36.5070   41.7190 F   0  0  0  0  0  0  0  0  0  0  0  0
   45.1810   34.8180   40.9360 F   0  0  0  0  0  0  0  0  0  0  0  0
   46.8180   30.6070   44.9710 C   0  0  0  0  0  0  0  0  0  0  0  0
   46.4820   29.8310   43.9090 C   0  0  0  0  0  0  0  0  0  0  0  0
   47.6620   29.4480   43.2550 C   0  0  0  0  0  0  0  0  0  0  0  0
   48.6510   30.0080   43.9520 N   0  0  0  0  0  0  0  0  0  0  0  0
   48.1790   30.6950   44.9650 N   0  0  0  0  0  0  0  0  0  0  0  0
   45.4400   29.6410   43.7380 H   0  0  0  0  0  0  0  0  0  0  0  0
   47.6410   28.8210   42.3740 H   0  0  0  0  0  0  0  0  0  0  0  0
   50.0450   29.8590   43.6090 C   0  0  0  0  0  0  0  0  0  0  0  0
   50.5280   30.3930   42.4180 C   0  0  0  0  0  0  0  0  0  0  0  0
   49.7910   30.9150   41.7880 H   0  0  0  0  0  0  0  0  0  0  0  0
   51.8630   30.2790   42.0360 C   0  0  0  0  0  3  0  0  0  0  0  0
   52.7320   29.6140   42.8710 C   0  0  0  0  0  0  0  0  0  0  0  0
   53.7400   29.5550   42.5370 H   0  0  0  0  0  0  0  0  0  0  0  0
   52.2590   29.0800   44.0580 C   0  0  0  0  0  0  0  0  0  0  0  0
   52.9430   28.5610   44.7080 H   0  0  0  0  0  0  0  0  0  0  0  0
   50.9240   29.2010   44.4260 C   0  0  0  0  0  3  0  0  0  0  0  0
  1  8  1  0  0  0  0
  1  6  1  0  0  0  0
  2  1  2  0  0  0  0
  3  2  1  0  0  0  0
  3  4  2  0  0  0  0
  4  5  1  0  0  0  0
  5  6  2  0  0  0  0
  5  7  1  0  0  0  0
  7  9  1  0  0  0  0
 10  7  1  0  0  0  0
 11 12  1  0  0  0  0
 11 17  1  1  0  0  0
 11  2  1  0  0  0  0
 12 18  1  0  0  0  0
 13 19  1  0  0  0  0
 13 12  2  0  0  0  0
 14 20  1  6  0  0  0
 14 13  1  0  0  0  0
 15 14  1  0  0  0  0
 15 22  1  0  0  0  0
 15 16  1  0  0  0  0
 16 11  1  0  0  0  0
 21 15  1  0  0  0  0
 23 16  1  0  0  0  0
 24 16  1  0  0  0  0
 25 26  1  0  0  0  0
 25 14  1  0  0  0  0
 27 25  1  0  0  0  0
 28 25  1  0  0  0  0
 29  3  1  0  0  0  0
 30 29  1  0  0  0  0
 31 30  2  0  0  0  0
 31 32  1  0  0  0  0
 32 33  1  0  0  0  0
 33 29  2  0  0  0  0
 34 30  1  0  0  0  0
 35 31  1  0  0  0  0
 36 32  1  0  0  0  0
 36 44  1  0  0  0  0
 37 36  2  0  0  0  0
 38 37  1  0  0  0  0
 39 37  1  0  0  0  0
 39 40  2  0  0  0  0
 40 42  1  0  0  0  0
 41 40  1  0  0  0  0
 42 44  2  0  0  0  0
 42 43  1  0  0  0  0
M  END
>  <minimizedAffinity>
-5.90808201

>  <minimizedRMSD>
0.224785343

$$$$
