
 OpenBabel03232519383D

 39 43  0  0  0  0  0  0  0  0999 V2000
   46.5640   32.8790   38.8050 C   0  0  0  0  0  0  0  0  0  0  0  0
   45.4950   33.1630   37.9710 C   0  0  0  0  0  0  0  0  0  0  0  0
   45.1450   32.2740   36.9770 C   0  0  0  0  0  0  0  0  0  0  0  0
   45.8570   31.0790   36.7930 C   0  0  0  0  0  0  0  0  0  0  0  0
   46.9120   30.8290   37.6380 C   0  0  0  0  0  0  0  0  0  0  0  0
   47.3110   31.6950   38.6650 C   0  0  0  0  0  0  0  0  0  0  0  0
   44.9730   34.1020   38.1510 H   0  0  0  0  0  0  0  0  0  0  0  0
   44.3130   32.4950   36.3280 H   0  0  0  0  0  0  0  0  0  0  0  0
   45.5720   30.4000   36.0160 H   0  0  0  0  0  0  0  0  0  0  0  0
   47.4630   29.8990   37.4920 H   0  0  0  0  0  0  0  0  0  0  0  0
   46.6420   34.4280   42.0150 N   0  0  0  0  0  0  0  0  0  0  0  0
   47.7080   35.2870   41.9010 C   0  0  0  0  0  0  0  0  0  0  0  0
   48.4340   35.3740   40.7460 C   0  0  0  0  0  0  0  0  0  0  0  0
   48.0500   34.5500   39.6720 C   0  0  0  0  0  0  0  0  0  0  0  0
   48.6920   34.6020   38.5980 O   0  0  0  0  0  0  0  0  0  0  0  0
   46.9980   33.7360   39.8570 N   0  0  0  0  0  0  0  0  0  0  0  0
   46.3080   33.6710   40.9960 C   0  0  0  0  0  0  0  0  0  0  0  0
   45.3430   32.9480   41.2160 O   0  0  0  0  0  0  0  0  0  0  0  0
   48.0600   35.9440   42.6730 H   0  0  0  0  0  0  0  0  0  0  0  0
   49.2770   36.0300   40.6080 H   0  0  0  0  0  0  0  0  0  0  0  0
   44.5830   35.6640   44.8340 C   0  0  0  0  0  0  0  0  0  0  0  0
   45.1590   35.5790   43.5350 C   0  0  0  0  0  0  0  0  0  0  0  0
   46.0500   34.5270   43.3260 C   0  0  0  0  0  0  0  0  0  0  0  0
   46.3340   33.6460   44.3240 N   0  0  0  0  0  0  0  0  0  0  0  0
   45.7540   33.7780   45.5460 C   0  0  0  0  0  0  0  0  0  0  0  0
   44.8870   34.7740   45.8020 N   0  0  0  0  0  0  0  0  0  0  0  0
   43.8860   36.4660   45.0410 H   0  0  0  0  0  0  0  0  0  0  0  0
   44.9120   36.2940   42.7670 H   0  0  0  0  0  0  0  0  0  0  0  0
   46.0900   32.9980   46.2120 H   0  0  0  0  0  0  0  0  0  0  0  0
   48.4130   31.3800   39.5080 N   0  0  0  0  0  0  0  0  0  0  0  0
   48.2350   30.9580   40.7890 C   0  0  0  0  0  0  0  0  0  0  0  0
   49.3930   30.7220   41.3910 N   0  0  0  0  0  0  0  0  0  0  0  0
   50.3630   30.9820   40.5270 C   0  0  0  0  0  0  0  0  0  0  0  0
   51.7540   30.9560   40.4830 C   0  0  0  0  0  0  0  0  0  0  0  0
   52.2310   30.6290   41.4180 H   0  0  0  0  0  0  0  0  0  0  0  0
   52.4550   31.3080   39.3660 N   0  0  0  0  0  0  0  0  0  0  0  0
   51.7910   31.7000   38.2540 C   0  0  0  0  0  0  0  0  0  0  0  0
   50.4260   31.7430   38.2450 N   0  0  0  0  0  0  0  0  0  0  0  0
   49.7510   31.3900   39.3620 C   0  0  0  0  0  0  0  0  0  0  0  0
  1 16  1  0  0  0  0
  2  7  1  0  0  0  0
  2  1  2  0  0  0  0
  3  2  1  0  0  0  0
  4  3  2  0  0  0  0
  4  5  1  0  0  0  0
  5  6  2  0  0  0  0
  6  1  1  0  0  0  0
  6 30  1  0  0  0  0
  8  3  1  0  0  0  0
  9  4  1  0  0  0  0
 10  5  1  0  0  0  0
 11 23  1  0  0  0  0
 12 11  1  0  0  0  0
 12 19  1  0  0  0  0
 13 12  2  0  0  0  0
 14 16  1  0  0  0  0
 14 13  1  0  0  0  0
 15 14  2  0  0  0  0
 16 17  1  0  0  0  0
 17 18  2  0  0  0  0
 17 11  1  0  0  0  0
 20 13  1  0  0  0  0
 21 27  1  0  0  0  0
 21 26  1  0  0  0  0
 22 21  2  0  0  0  0
 23 22  1  0  0  0  0
 23 24  2  0  0  0  0
 24 25  1  0  0  0  0
 25 26  2  0  0  0  0
 25 29  1  0  0  0  0
 28 22  1  0  0  0  0
 30 31  1  0  0  0  0
 31 32  2  0  0  0  0
 33 32  1  0  0  0  0
 34 33  1  0  0  0  0
 34 35  1  0  0  0  0
 36 34  2  0  0  0  0
 37 36  1  0  0  0  0
 38 37  2  0  0  0  0
 38 39  1  0  0  0  0
 39 30  1  0  0  0  0
 39 33  2  0  0  0  0
M  END
>  <minimizedAffinity>
-5.95511436

>  <minimizedRMSD>
1.77410507

$$$$
