
 OpenBabel03232520413D

 28 30  0  0  0  0  0  0  0  0999 V2000
   43.4840   35.5880   42.1670 C   0  0  0  0  0  0  0  0  0  0  0  0
   42.5810   35.3410   41.1230 C   0  0  0  0  0  0  0  0  0  0  0  0
   43.0140   34.5900   40.0280 C   0  0  0  0  0  0  0  0  0  0  0  0
   44.2950   34.1180   40.0020 N   0  0  0  0  0  0  0  0  0  0  0  0
   45.1320   34.3830   41.0350 C   0  0  0  0  0  0  0  0  0  0  0  0
   44.7330   35.1090   42.1070 N   0  0  0  0  0  0  0  0  0  0  0  0
   43.0710   36.1710   42.9660 H   0  0  0  0  0  0  0  0  0  0  0  0
   42.3430   34.3810   39.2080 H   0  0  0  0  0  0  0  0  0  0  0  0
   46.5130   33.9060   41.0650 C   0  0  0  0  0  0  0  0  0  0  0  0
   47.5220   34.7420   41.4560 C   0  0  0  0  0  0  0  0  0  0  0  0
   48.8500   34.3610   41.5080 C   0  0  0  0  0  0  0  0  0  0  0  0
   49.1890   33.0690   41.1490 C   0  0  0  0  0  0  0  0  0  0  0  0
   48.1490   32.2430   40.7570 C   0  0  0  0  0  0  0  0  0  0  0  0
   46.8600   32.6460   40.7160 N   0  0  0  0  0  0  0  0  0  0  0  0
   47.3670   35.7700   41.7570 H   0  0  0  0  0  0  0  0  0  0  0  0
   49.6440   35.0080   41.8130 H   0  0  0  0  0  0  0  0  0  0  0  0
   50.1900   32.6630   41.1520 H   0  0  0  0  0  0  0  0  0  0  0  0
   48.2630   31.2110   40.4500 H   0  0  0  0  0  0  0  0  0  0  0  0
   40.8780   35.9560   41.1360 S   0  0  0  0  0  0  0  0  0  0  0  0
   39.8600   34.5430   40.7050 C   0  0  0  0  0  0  0  0  0  0  0  0
   39.9380   33.4620   41.5920 C   0  0  0  0  0  0  0  0  0  0  0  0
   40.5700   33.4910   42.4690 H   0  0  0  0  0  0  0  0  0  0  0  0
   39.2010   32.3160   41.3690 C   0  0  0  0  0  0  0  0  0  0  0  0
   38.3980   32.2880   40.2490 C   0  0  0  0  0  0  0  0  0  0  0  0
   37.8170   31.3880   40.0700 H   0  0  0  0  0  0  0  0  0  0  0  0
   38.3340   33.3630   39.3870 C   0  0  0  0  0  0  0  0  0  0  0  0
   37.7010   33.3420   38.5020 H   0  0  0  0  0  0  0  0  0  0  0  0
   39.0670   34.5250   39.5930 C   0  0  0  0  0  0  0  0  0  0  0  0
  1  7  1  0  0  0  0
  2 19  1  0  0  0  0
  2  1  2  0  0  0  0
  3  2  1  0  0  0  0
  4  3  2  0  0  0  0
  4  5  1  0  0  0  0
  5  9  1  0  0  0  0
  5  6  2  0  0  0  0
  6  1  1  0  0  0  0
  8  3  1  0  0  0  0
  9 10  1  0  0  0  0
 10 11  2  0  0  0  0
 10 15  1  0  0  0  0
 11 16  1  0  0  0  0
 12 17  1  0  0  0  0
 12 11  1  0  0  0  0
 13 12  2  0  0  0  0
 14 13  1  0  0  0  0
 14  9  2  0  0  0  0
 18 13  1  0  0  0  0
 20 19  1  0  0  0  0
 20 21  1  0  0  0  0
 21 22  1  0  0  0  0
 23 21  2  0  0  0  0
 24 23  1  0  0  0  0
 25 24  1  0  0  0  0
 26 28  1  0  0  0  0
 26 24  2  0  0  0  0
 27 26  1  0  0  0  0
 28 20  2  0  0  0  0
M  END
>  <minimizedAffinity>
-5.31846142

>  <minimizedRMSD>
1.93584836

$$$$
