
 OpenBabel03232518253D

 19 20  0  0  0  0  0  0  0  0999 V2000
   46.7990   32.1930   44.5630 S   0  0  0  0  0  0  0  0  0  0  0  0
   44.6000   35.4010   45.3670 C   0  0  0  0  0  0  0  0  0  0  0  0
   44.7140   36.1840   44.2180 C   0  0  0  0  0  0  0  0  0  0  0  0
   45.4960   35.7130   43.1500 C   0  0  0  0  0  0  0  0  0  0  0  0
   46.1050   34.4980   43.3090 N   0  0  0  0  0  0  0  0  0  0  0  0
   45.9730   33.7740   44.4260 C   0  0  0  0  0  0  0  0  0  0  0  0
   45.2330   34.2080   45.4490 N   0  0  0  0  0  0  0  0  0  0  0  0
   44.0060   35.7140   46.2320 H   0  0  0  0  0  0  0  0  0  0  0  0
   44.2020   37.1350   44.1680 H   0  0  0  0  0  0  0  0  0  0  0  0
   45.6060   36.2800   42.2610 H   0  0  0  0  0  0  0  0  0  0  0  0
   47.1440   31.7420   46.2480 C   0  0  0  0  0  0  0  0  0  0  0  0
   47.1240   32.5480   47.3690 C   0  0  0  0  0  0  0  0  0  0  0  0
   46.8610   33.5760   47.1540 H   0  0  0  0  0  0  0  0  0  0  0  0
   47.4210   32.0210   48.6070 C   0  0  0  0  0  0  0  0  0  0  0  0
   47.7460   30.6930   48.7740 C   0  0  0  0  0  0  0  0  0  0  0  0
   47.9750   30.2830   49.7250 H   0  0  0  0  0  0  0  0  0  0  0  0
   47.7670   29.8810   47.6500 C   0  0  0  0  0  0  0  0  0  0  0  0
   48.0210   28.8430   47.7890 H   0  0  0  0  0  0  0  0  0  0  0  0
   47.4690   30.3920   46.3830 C   0  0  0  0  0  0  0  0  0  0  0  0
  1 11  1  0  0  0  0
  2  7  1  0  0  0  0
  2  8  1  0  0  0  0
  3  2  2  0  0  0  0
  4  5  2  0  0  0  0
  4  3  1  0  0  0  0
  5  6  1  0  0  0  0
  6  1  1  0  0  0  0
  6  7  2  0  0  0  0
  9  3  1  0  0  0  0
 10  4  1  0  0  0  0
 11 19  2  0  0  0  0
 11 12  1  0  0  0  0
 12 14  2  0  0  0  0
 13 12  1  0  0  0  0
 14 15  1  0  0  0  0
 15 16  1  0  0  0  0
 17 18  1  0  0  0  0
 17 15  2  0  0  0  0
 19 17  1  0  0  0  0
M  END
>  <minimizedAffinity>
-4.11135626

>  <minimizedRMSD>
2.30851936

$$$$
