
 OpenBabel03232521013D

 45 48  0  0  1  0  0  0  0  0999 V2000
   45.2810   32.9030   47.5040 C   0  0  0  0  0  0  0  0  0  0  0  0
   45.8830   32.6550   46.3150 C   0  0  0  0  0  0  0  0  0  0  0  0
   46.2020   31.3120   46.0960 C   0  0  0  0  0  0  0  0  0  0  0  0
   45.9380   30.3240   46.9880 N   0  0  0  0  0  0  0  0  0  0  0  0
   45.3200   30.6400   48.1870 C   0  0  0  0  0  0  0  0  0  0  0  0
   45.0080   31.9180   48.4130 N   0  0  0  0  0  0  0  0  0  0  0  0
   45.0710   29.6210   49.1470 N   0  0  0  0  0  0  0  0  0  0  0  0
   44.9950   33.9070   47.7770 H   0  0  0  0  0  0  0  0  0  0  0  0
   45.9220   29.2410   49.6180 H   0  0  0  0  0  0  0  0  0  0  0  0
   44.1260   29.2830   49.3640 H   0  0  0  0  0  0  0  0  0  0  0  0
   46.1380   33.6010   45.2830 C   0  0  2  0  0  0  0  0  0  0  0  0
   44.9370   34.7050   45.5070 C   0  0  0  0  0  0  0  0  0  0  0  0
   44.7180   35.6320   44.4340 C   0  0  0  0  0  0  0  0  0  0  0  0
   45.5220   35.5510   43.2090 C   0  0  1  0  0  0  0  0  0  0  0  0
   46.5730   34.5420   43.1690 C   0  0  0  0  0  0  0  0  0  0  0  0
   46.1110   33.3140   43.9200 C   0  0  0  0  0  0  0  0  0  0  0  0
   46.9400   34.3260   45.6150 H   0  0  0  0  0  0  0  0  0  0  0  0
   44.2620   34.8600   46.3400 H   0  0  0  0  0  0  0  0  0  0  0  0
   43.9570   36.3580   44.5390 H   0  0  0  0  0  0  0  0  0  0  0  0
   45.9570   36.5590   43.0190 H   0  0  0  0  0  0  0  0  0  0  0  0
   46.8350   34.3320   42.1010 H   0  0  0  0  0  0  0  0  0  0  0  0
   47.5180   34.9320   43.6380 H   0  0  0  0  0  0  0  0  0  0  0  0
   45.1680   32.9630   43.4520 H   0  0  0  0  0  0  0  0  0  0  0  0
   46.9570   32.6570   43.5920 H   0  0  0  0  0  0  0  0  0  0  0  0
   44.5090   35.2890   42.0570 C   0  0  0  0  0  0  0  0  0  0  0  0
   43.4430   34.4970   42.4520 F   0  0  0  0  0  0  0  0  0  0  0  0
   43.9740   36.5310   41.7190 F   0  0  0  0  0  0  0  0  0  0  0  0
   45.1800   34.8240   40.9440 F   0  0  0  0  0  0  0  0  0  0  0  0
   46.8970   30.6250   45.0210 C   0  0  0  0  0  0  0  0  0  0  0  0
   46.6070   29.8170   43.9700 C   0  0  0  0  0  0  0  0  0  0  0  0
   47.8160   29.4690   43.3460 C   0  0  0  0  0  0  0  0  0  0  0  0
   48.7690   30.0830   44.0480 N   0  0  0  0  0  0  0  0  0  0  0  0
   48.2550   30.7700   45.0390 N   0  0  0  0  0  0  0  0  0  0  0  0
   45.5720   29.5840   43.7920 H   0  0  0  0  0  0  0  0  0  0  0  0
   47.7700   28.8270   42.4860 H   0  0  0  0  0  0  0  0  0  0  0  0
   52.7510   29.4630   42.7300 C   0  0  0  0  0  0  0  0  0  0  0  0
   51.8900   30.2590   42.0020 C   0  0  0  0  0  3  0  0  0  0  0  0
   50.5960   30.4500   42.4460 C   0  0  0  0  0  3  0  0  0  0  0  0
   50.1130   29.8770   43.5970 C   0  0  0  0  0  0  0  0  0  0  0  0
   50.9610   29.0760   44.3430 C   0  0  0  0  0  3  0  0  0  0  0  0
   52.2660   28.8860   43.8890 C   0  0  0  0  0  3  0  0  0  0  0  0
   54.6080   27.8130   42.1930 H   0  0  0  0  0  0  0  0  0  0  0  0
   54.4150   29.1550   42.2540 S   0  0  0  0  0  0  0  0  0  0  0  0
   54.7060   29.8680   40.9660 O   0  0  0  0  0  0  0  0  0  0  0  0
   55.3360   29.6810   43.3430 O   0  0  0  0  0  0  0  0  0  0  0  0
  1  8  1  0  0  0  0
  1  6  1  0  0  0  0
  2  1  2  0  0  0  0
  3  2  1  0  0  0  0
  3  4  2  0  0  0  0
  4  5  1  0  0  0  0
  5  6  2  0  0  0  0
  5  7  1  0  0  0  0
  7 10  1  0  0  0  0
  7  9  1  0  0  0  0
 11 12  1  0  0  0  0
 11 17  1  1  0  0  0
 11  2  1  0  0  0  0
 12 18  1  0  0  0  0
 13 19  1  0  0  0  0
 13 12  2  0  0  0  0
 14 20  1  6  0  0  0
 14 13  1  0  0  0  0
 15 14  1  0  0  0  0
 15 22  1  0  0  0  0
 15 16  1  0  0  0  0
 16 11  1  0  0  0  0
 21 15  1  0  0  0  0
 23 16  1  0  0  0  0
 24 16  1  0  0  0  0
 25 26  1  0  0  0  0
 25 14  1  0  0  0  0
 27 25  1  0  0  0  0
 28 25  1  0  0  0  0
 29 33  2  0  0  0  0
 29  3  1  0  0  0  0
 30 29  1  0  0  0  0
 31 30  2  0  0  0  0
 31 32  1  0  0  0  0
 32 33  1  0  0  0  0
 34 30  1  0  0  0  0
 35 31  1  0  0  0  0
 36 41  1  0  0  0  0
 37 38  1  0  0  0  0
 37 36  2  0  0  0  0
 38 39  2  0  0  0  0
 39 32  1  0  0  0  0
 39 40  1  0  0  0  0
 41 40  2  0  0  0  0
 42 43  1  0  0  0  0
 43 36  1  0  0  0  0
 43 45  2  0  0  0  0
 44 43  2  0  0  0  0
M  END
>  <minimizedAffinity>
-5.83832502

>  <minimizedRMSD>
0.421745956

$$$$
