
 OpenBabel03232518483D

 25 26  0  0  0  0  0  0  0  0999 V2000
   44.7640   35.4430   45.0800 C   0  0  0  0  0  0  0  0  0  0  0  0
   45.4410   34.8250   44.0510 C   0  0  0  0  0  0  0  0  0  0  0  0
   45.9820   33.5840   44.3010 C   0  0  0  0  0  0  0  0  0  0  0  0
   45.8200   33.0340   45.5450 N   0  0  0  0  0  0  0  0  0  0  0  0
   45.1620   33.6480   46.5230 C   0  0  0  0  0  0  0  0  0  0  0  0
   44.6490   34.8390   46.2690 N   0  0  0  0  0  0  0  0  0  0  0  0
   44.3360   36.4230   44.8880 H   0  0  0  0  0  0  0  0  0  0  0  0
   45.5930   35.4430   42.7330 C   0  0  0  0  0  0  0  0  0  0  0  0
   44.8930   36.6580   42.7650 F   0  0  0  0  0  0  0  0  0  0  0  0
   44.9390   34.7100   41.7480 F   0  0  0  0  0  0  0  0  0  0  0  0
   46.8780   35.6630   42.3700 F   0  0  0  0  0  0  0  0  0  0  0  0
   46.7190   32.7550   43.3990 C   0  0  0  0  0  0  0  0  0  0  0  0
   46.2620   31.7480   42.8020 O   0  0  0  0  0  0  0  0  0  0  0  0
   47.9570   32.6410   42.8570 O   0  0  0  0  0  0  0  0  0  0  0  0
   48.4460   32.8070   41.6040 C   0  0  0  0  0  0  0  0  0  0  0  0
   49.6000   33.8170   41.7260 C   0  0  0  0  0  0  0  0  0  0  0  0
   50.7630   33.0660   42.3340 C   0  0  0  0  0  0  0  0  0  0  0  0
   51.3800   32.1470   41.3070 C   0  0  0  0  0  0  0  0  0  0  0  0
   50.3470   31.8620   40.2430 C   0  0  0  0  0  0  0  0  0  0  0  0
   49.0410   31.5670   40.9650 C   0  0  0  0  0  0  0  0  0  0  0  0
   44.9710   33.1410   47.7920 O   0  0  0  0  0  0  0  0  0  0  0  0
   45.7910   32.1570   48.3610 C   0  0  0  0  0  0  0  0  0  0  0  0
   47.1100   32.5450   48.3550 F   0  0  0  0  0  0  0  0  0  0  0  0
   45.6030   30.9180   47.8130 F   0  0  0  0  0  0  0  0  0  0  0  0
   45.4590   32.1110   49.7280 F   0  0  0  0  0  0  0  0  0  0  0  0
  1  6  1  0  0  0  0
  2  3  1  0  0  0  0
  2  1  2  0  0  0  0
  3  4  2  0  0  0  0
  4  5  1  0  0  0  0
  5 21  1  0  0  0  0
  6  5  2  0  0  0  0
  7  1  1  0  0  0  0
  8  9  1  0  0  0  0
  8  2  1  0  0  0  0
 10  8  1  0  0  0  0
 11  8  1  0  0  0  0
 12  3  1  0  0  0  0
 13 12  2  0  0  0  0
 14 12  1  0  0  0  0
 15 16  1  0  0  0  0
 15 14  1  0  0  0  0
 16 17  1  0  0  0  0
 18 17  1  0  0  0  0
 19 20  1  0  0  0  0
 19 18  1  0  0  0  0
 20 15  1  0  0  0  0
 21 22  1  0  0  0  0
 22 25  1  0  0  0  0
 23 22  1  0  0  0  0
 24 22  1  0  0  0  0
M  END
>  <minimizedAffinity>
-5.62700844

>  <minimizedRMSD>
1.35367835

$$$$
