
 OpenBabel03232519233D

 38 41  0  0  1  0  0  0  0  0999 V2000
   46.9170   30.4690   47.8240 N   0  0  0  0  0  0  0  0  0  0  0  0
   46.8580   30.8330   49.2470 C   0  0  0  0  0  0  0  0  0  0  0  0
   45.7140   31.7890   49.2570 C   0  0  0  0  0  0  0  0  0  0  0  0
   44.6960   31.1340   48.3780 C   0  0  0  0  0  0  0  0  0  0  0  0
   45.6100   30.3990   47.3760 C   0  0  2  0  0  0  0  0  0  0  0  0
   47.5500   31.1810   47.4320 H   0  0  0  0  0  0  0  0  0  0  0  0
   47.8100   31.2990   49.5880 H   0  0  0  0  0  0  0  0  0  0  0  0
   46.6620   29.9020   49.8140 H   0  0  0  0  0  0  0  0  0  0  0  0
   45.3910   31.9370   50.3000 H   0  0  0  0  0  0  0  0  0  0  0  0
   46.0630   32.7220   48.7550 H   0  0  0  0  0  0  0  0  0  0  0  0
   44.1120   30.4650   49.0040 H   0  0  0  0  0  0  0  0  0  0  0  0
   44.0510   31.8480   47.8230 H   0  0  0  0  0  0  0  0  0  0  0  0
   45.0420   29.0180   47.3230 C   0  0  0  0  0  0  0  0  0  0  0  0
   45.0930   27.8410   48.0490 C   0  0  0  0  0  0  0  0  0  0  0  0
   44.3070   26.9190   47.4290 C   0  0  0  0  0  0  0  0  0  0  0  0
   43.7760   27.5120   46.3350 N   0  0  0  0  0  0  0  0  0  0  0  0
   44.2180   28.7720   46.2710 N   0  0  0  0  0  0  0  0  0  0  0  0
   45.7240   27.8800   48.9370 H   0  0  0  0  0  0  0  0  0  0  0  0
   44.2100   25.9250   47.8400 H   0  0  0  0  0  0  0  0  0  0  0  0
   43.1290   27.0110   45.6790 H   0  0  0  0  0  0  0  0  0  0  0  0
   45.4940   30.8480   46.0830 O   0  0  0  0  0  0  0  0  0  0  0  0
   46.3790   31.7720   45.4340 C   0  0  0  0  0  0  0  0  0  0  0  0
   47.5380   31.4370   45.2040 O   0  0  0  0  0  0  0  0  0  0  0  0
   44.7830   35.0490   45.7100 C   0  0  0  0  0  0  0  0  0  0  0  0
   44.6410   35.4540   44.3740 C   0  0  0  0  0  0  0  0  0  0  0  0
   45.0980   34.5930   43.3890 C   0  0  0  0  0  0  0  0  0  0  0  0
   45.6550   33.4070   43.7810 N   0  0  0  0  0  0  0  0  0  0  0  0
   45.7600   33.0800   45.1030 C   0  0  0  0  0  0  0  0  0  0  0  0
   45.3330   33.8840   46.0470 N   0  0  0  0  0  0  0  0  0  0  0  0
   44.4240   35.7290   46.4740 H   0  0  0  0  0  0  0  0  0  0  0  0
   44.1970   36.3970   44.1100 H   0  0  0  0  0  0  0  0  0  0  0  0
   45.0080   34.8890   42.0390 O   0  0  0  0  0  0  0  0  0  0  0  0
   46.1370   34.8570   41.2270 C   0  0  0  0  0  0  0  0  0  0  0  0
   47.4400   34.8710   41.9970 C   0  0  0  0  0  0  0  0  0  0  0  0
   48.4950   35.4170   41.0580 C   0  0  0  0  0  0  0  0  0  0  0  0
   48.4040   34.6730   39.7590 C   0  0  0  0  0  0  0  0  0  0  0  0
   47.6190   33.3870   39.8550 C   0  0  0  0  0  0  0  0  0  0  0  0
   46.2010   33.6340   40.3370 C   0  0  0  0  0  0  0  0  0  0  0  0
  1  2  1  0  0  0  0
  2  3  1  0  0  0  0
  2  7  1  0  0  0  0
  2  8  1  0  0  0  0
  3  9  1  0  0  0  0
  4 11  1  0  0  0  0
  4  3  1  0  0  0  0
  5 21  1  6  0  0  0
  5  1  1  0  0  0  0
  5  4  1  0  0  0  0
  6  1  1  0  0  0  0
 10  3  1  0  0  0  0
 12  4  1  0  0  0  0
 13  5  1  0  0  0  0
 13 14  1  0  0  0  0
 14 18  1  0  0  0  0
 15 19  1  0  0  0  0
 15 14  2  0  0  0  0
 16 15  1  0  0  0  0
 17 16  1  0  0  0  0
 17 13  2  0  0  0  0
 20 16  1  0  0  0  0
 22 21  1  0  0  0  0
 23 22  2  0  0  0  0
 24 29  1  0  0  0  0
 24 30  1  0  0  0  0
 25 24  2  0  0  0  0
 26 27  2  0  0  0  0
 26 25  1  0  0  0  0
 27 28  1  0  0  0  0
 28 22  1  0  0  0  0
 28 29  2  0  0  0  0
 31 25  1  0  0  0  0
 32 26  1  0  0  0  0
 33 34  1  0  0  0  0
 33 32  1  0  0  0  0
 35 34  1  0  0  0  0
 36 37  1  0  0  0  0
 36 35  1  0  0  0  0
 37 38  1  0  0  0  0
 38 33  1  0  0  0  0
M  END
>  <minimizedAffinity>
-5.87559223

>  <minimizedRMSD>
1.03326142

$$$$
