REMARK  Name = 
REMARK  5 active torsions:
REMARK  status: ('A' for Active; 'I' for Inactive)
REMARK    1  A    between atoms: C_1  and  C_8
REMARK    2  A    between atoms: C_4  and  C_19
REMARK    3  A    between atoms: C_9  and  C_14
REMARK    4  A    between atoms: N_17  and  C_43
REMARK    5  A    between atoms: S_37  and  C_40
REMARK                            x       y       z     vdW  Elec       q    Type
REMARK                         _______ _______ _______ _____ _____    ______ ____
ROOT
ATOM      1  C   UNL     1      45.390  32.875  47.530  0.00  0.00    +0.000 A 
ATOM      2  C   UNL     1      45.911  32.634  46.301  0.00  0.00    +0.000 A 
ATOM      3  C   UNL     1      46.152  31.285  46.028  0.00  0.00    +0.000 A 
ATOM      4  N   UNL     1      45.892  30.285  46.907  0.00  0.00    +0.000 NA
ATOM      5  C   UNL     1      45.360  30.593  48.148  0.00  0.00    +0.000 A 
ATOM      6  N   UNL     1      45.123  31.877  48.426  0.00  0.00    +0.000 NA
ATOM      7  N   UNL     1      45.117  29.559  49.093  0.00  0.00    +0.000 N 
ATOM      8  H   UNL     1      45.169  33.882  47.846  0.00  0.00    +0.000 HD
ATOM      9  H   UNL     1      45.974  29.126  49.503  0.00  0.00    +0.000 HD
ATOM     10  H   UNL     1      44.171  29.259  49.356  0.00  0.00    +0.000 HD
ENDROOT
BRANCH   2  11
ATOM     11  C   UNL     1      46.152  33.598  45.282  0.00  0.00    +0.000 C 
ATOM     12  C   UNL     1      44.914  34.662  45.498  0.00  0.00    +0.000 C 
ATOM     13  C   UNL     1      44.682  35.592  44.430  0.00  0.00    +0.000 C 
ATOM     14  C   UNL     1      45.507  35.548  43.217  0.00  0.00    +0.000 C 
ATOM     15  C   UNL     1      46.589  34.572  43.184  0.00  0.00    +0.000 C 
ATOM     16  C   UNL     1      46.154  33.323  43.916  0.00  0.00    +0.000 C 
ATOM     17  H   UNL     1      46.926  34.344  45.633  0.00  0.00    +0.000 HD
ATOM     18  H   UNL     1      44.222  34.788  46.322  0.00  0.00    +0.000 HD
ATOM     19  H   UNL     1      43.898  36.293  44.530  0.00  0.00    +0.000 HD
ATOM     20  H   UNL     1      45.913  36.571  43.043  0.00  0.00    +0.000 HD
ATOM     21  H   UNL     1      46.873  34.381  42.118  0.00  0.00    +0.000 HD
ATOM     22  H   UNL     1      47.514  34.987  43.670  0.00  0.00    +0.000 HD
ATOM     23  H   UNL     1      45.229  32.948  43.431  0.00  0.00    +0.000 HD
ATOM     24  H   UNL     1      47.025  32.696  43.595  0.00  0.00    +0.000 HD
BRANCH  14  25
ATOM     25  C   UNL     1      44.519  35.266  42.047  0.00  0.00    +0.000 C 
ATOM     26  F   UNL     1      43.463  34.453  42.424  0.00  0.00    +0.000 F 
ATOM     27  F   UNL     1      43.966  36.497  41.700  0.00  0.00    +0.000 F 
ATOM     28  F   UNL     1      45.219  34.815  40.946  0.00  0.00    +0.000 F 
ENDBRANCH  14  25
ENDBRANCH   2  11
BRANCH   3  29
ATOM     29  C   UNL     1      46.751  30.599  44.896  0.00  0.00    +0.000 A 
ATOM     30  C   UNL     1      46.357  29.922  43.788  0.00  0.00    +0.000 A 
ATOM     31  C   UNL     1      47.510  29.467  43.127  0.00  0.00    +0.000 A 
ATOM     32  N   UNL     1      48.535  29.892  43.866  0.00  0.00    +0.000 N 
ATOM     33  N   UNL     1      48.116  30.561  44.913  0.00  0.00    +0.000 NA
ATOM     34  H   UNL     1      45.301  29.843  43.602  0.00  0.00    +0.000 HD
ATOM     35  H   UNL     1      47.380  28.906  42.220  0.00  0.00    +0.000 HD
BRANCH  32  39
ATOM     36  C   UNL     1      52.402  28.858  42.468  0.00  0.00    +0.000 A 
ATOM     37  C   UNL     1      51.585  29.680  41.719  0.00  0.00    +0.000 A 
ATOM     38  C   UNL     1      50.328  30.006  42.189  0.00  0.00    +0.000 A 
ATOM     39  C   UNL     1      49.841  29.546  43.388  0.00  0.00    +0.000 A 
ATOM     40  C   UNL     1      50.645  28.721  44.156  0.00  0.00    +0.000 A 
ATOM     41  C   UNL     1      51.913  28.394  43.675  0.00  0.00    +0.000 A 
BRANCH  36  43
ATOM     42  H   UNL     1      54.049  27.032  41.826  0.00  0.00    +0.000 HD
ATOM     43  S   UNL     1      54.017  28.382  41.961  0.00  0.00    +0.000 S 
ATOM     44  O   UNL     1      54.387  29.125  40.711  0.00  0.00    +0.000 OA
ATOM     45  O   UNL     1      54.996  28.735  43.069  0.00  0.00    +0.000 OA
ENDBRANCH  36  43
ENDBRANCH  32  39
ENDBRANCH   3  29
TORSDOF 5
