
     RDKit          3D

 49 52  0  0  0  0  0  0  0  0999 V2000
   46.1521   33.5980   45.2820 C   0  0  2  0  0  0  0  0  0  0  0  0
   44.9137   34.6622   45.4977 C   0  0  0  0  0  0  0  0  0  0  0  0
   44.6819   35.5921   44.4301 C   0  0  0  0  0  0  0  0  0  0  0  0
   45.5074   35.5483   43.2169 C   0  0  1  0  0  0  0  0  0  0  0  0
   46.5888   34.5725   43.1841 C   0  0  0  0  0  0  0  0  0  0  0  0
   46.1540   33.3231   43.9160 C   0  0  0  0  0  0  0  0  0  0  0  0
   45.3899   32.8749   47.5297 C   0  0  0  0  0  0  0  0  0  0  0  0
   45.9107   32.6343   46.3012 C   0  0  0  0  0  0  0  0  0  0  0  0
   46.1517   31.2854   46.0281 C   0  0  0  0  0  0  0  0  0  0  0  0
   45.8915   30.2850   46.9071 N   0  0  0  0  0  0  0  0  0  0  0  0
   45.3602   30.5926   48.1478 C   0  0  0  0  0  0  0  0  0  0  0  0
   45.1228   31.8774   48.4263 N   0  0  0  0  0  0  0  0  0  0  0  0
   45.1166   29.5591   49.0935 N   0  0  0  0  0  0  0  0  0  0  0  0
   46.7512   30.5988   44.8961 C   0  0  0  0  0  0  0  0  0  0  0  0
   46.3574   29.9217   43.7881 C   0  0  0  0  0  0  0  0  0  0  0  0
   47.5099   29.4673   43.1268 C   0  0  0  0  0  0  0  0  0  0  0  0
   48.5349   29.8918   43.8659 N   0  0  0  0  0  0  0  0  0  0  0  0
   48.1156   30.5606   44.9132 N   0  0  0  0  0  0  0  0  0  0  0  0
   44.5185   35.2658   42.0466 C   0  0  0  0  0  0  0  0  0  0  0  0
   43.4634   34.4526   42.4244 F   0  0  0  0  0  0  0  0  0  0  0  0
   43.9663   36.4967   41.7002 F   0  0  0  0  0  0  0  0  0  0  0  0
   45.2195   34.8148   40.9460 F   0  0  0  0  0  0  0  0  0  0  0  0
   46.9258   34.3443   45.6326 H   0  0  0  0  0  0  0  0  0  0  0  0
   44.2219   34.7878   46.3216 H   0  0  0  0  0  0  0  0  0  0  0  0
   43.8975   36.2931   44.5303 H   0  0  0  0  0  0  0  0  0  0  0  0
   45.9130   36.5706   43.0432 H   0  0  0  0  0  0  0  0  0  0  0  0
   46.8731   34.3807   42.1177 H   0  0  0  0  0  0  0  0  0  0  0  0
   47.5144   34.9871   43.6699 H   0  0  0  0  0  0  0  0  0  0  0  0
   45.2289   32.9481   43.4307 H   0  0  0  0  0  0  0  0  0  0  0  0
   47.0254   32.6955   43.5952 H   0  0  0  0  0  0  0  0  0  0  0  0
   45.1693   33.8820   47.8458 H   0  0  0  0  0  0  0  0  0  0  0  0
   45.9744   29.1262   49.5026 H   0  0  0  0  0  0  0  0  0  0  0  0
   44.1713   29.2588   49.3565 H   0  0  0  0  0  0  0  0  0  0  0  0
   45.3008   29.8435   43.6015 H   0  0  0  0  0  0  0  0  0  0  0  0
   47.3804   28.9059   42.2202 H   0  0  0  0  0  0  0  0  0  0  0  0
   53.8352   28.0269   40.5223 H   0  0  0  0  0  0  0  0  0  0  0  0
   53.9609   28.3392   41.8376 S   0  0  0  0  0  0  0  0  0  0  0  0
   54.9752   29.4104   42.1116 O   0  0  0  0  0  0  0  0  0  0  0  0
   54.3654   27.0616   42.5548 O   0  0  0  0  0  0  0  0  0  0  0  0
   52.3923   28.8506   42.4460 C   0  0  0  0  0  0  0  0  0  0  0  0
   52.1520   30.1101   42.9563 C   0  0  0  0  0  0  0  0  0  0  0  0
   50.8894   30.4320   43.4143 C   0  0  0  0  0  0  0  0  0  0  0  0
   49.8407   29.5464   43.3877 C   0  0  0  0  0  0  0  0  0  0  0  0
   50.0602   28.2769   42.8797 C   0  0  0  0  0  0  0  0  0  0  0  0
   51.3374   27.9569   42.4183 C   0  0  0  0  0  0  0  0  0  0  0  0
   52.9956   30.8062   42.9718 H   0  0  0  0  0  0  0  0  0  0  0  0
   50.7015   31.4197   43.8141 H   0  0  0  0  0  0  0  0  0  0  0  0
   49.2587   27.5270   42.8336 H   0  0  0  0  0  0  0  0  0  0  0  0
   51.5258   26.9698   42.0184 H   0  0  0  0  0  0  0  0  0  0  0  0
  1  2  1  0
  1  8  1  0
  3  2  2  0
  4  3  1  0
  5  4  1  0
  5  6  1  0
  6  1  1  0
  7 12  2  0
  8  7  1  0
  9  8  2  0
  9 10  1  0
 10 11  2  0
 11 12  1  0
 11 13  1  0
 14 18  2  0
 14  9  1  0
 15 14  1  0
 16 15  2  0
 16 17  1  0
 17 18  1  0
 19 20  1  0
 19  4  1  0
 21 19  1  0
 22 19  1  0
  1 23  1  1
  2 24  1  0
  3 25  1  0
  4 26  1  6
  5 27  1  0
  5 28  1  0
  6 29  1  0
  6 30  1  0
  7 31  1  0
 13 32  1  0
 13 33  1  0
 15 34  1  0
 16 35  1  0
 36 37  1  0
 37 38  2  0
 37 39  2  0
 37 40  1  0
 40 41  2  0
 41 42  1  0
 42 43  2  0
 43 44  1  0
 44 45  2  0
 45 40  1  0
 41 46  1  0
 42 47  1  0
 44 48  1  0
 45 49  1  0
 17 43  1  0
M  ISO  8  23  13  24  13  25  13  26  13  27  13  28  13  29  13  30  13
M  ISO  4  31  14  34  14  35  14  36  12
M  END
>  <DihAtoms>  (1) 
15,16,42,41

>  <DihDeg>  (1) 
-86.48493382234952

$$$$
