
 OpenBabel03232521013D

 45 48  0  0  1  0  0  0  0  0999 V2000
   45.3330   32.9300   47.5020 C   0  0  0  0  0  0  0  0  0  0  0  0
   45.8830   32.6700   46.2900 C   0  0  0  0  0  0  0  0  0  0  0  0
   46.1550   31.3190   46.0550 C   0  0  0  0  0  0  0  0  0  0  0  0
   45.8950   30.3360   46.9520 N   0  0  0  0  0  0  0  0  0  0  0  0
   45.3320   30.6630   48.1740 C   0  0  0  0  0  0  0  0  0  0  0  0
   45.0660   31.9480   48.4170 N   0  0  0  0  0  0  0  0  0  0  0  0
   45.0890   29.6470   49.1390 N   0  0  0  0  0  0  0  0  0  0  0  0
   45.0870   33.9390   47.7900 H   0  0  0  0  0  0  0  0  0  0  0  0
   45.9450   29.2400   49.5760 H   0  0  0  0  0  0  0  0  0  0  0  0
   44.1430   29.3350   49.3890 H   0  0  0  0  0  0  0  0  0  0  0  0
   46.1270   33.6140   45.2540 C   0  0  2  0  0  0  0  0  0  0  0  0
   44.9310   34.7200   45.4900 C   0  0  0  0  0  0  0  0  0  0  0  0
   44.7000   35.6450   44.4170 C   0  0  0  0  0  0  0  0  0  0  0  0
   45.4900   35.5600   43.1830 C   0  0  1  0  0  0  0  0  0  0  0  0
   46.5380   34.5490   43.1330 C   0  0  0  0  0  0  0  0  0  0  0  0
   46.0830   33.3240   43.8920 C   0  0  0  0  0  0  0  0  0  0  0  0
   46.9340   34.3380   45.5750 H   0  0  0  0  0  0  0  0  0  0  0  0
   44.2660   34.8780   46.3310 H   0  0  0  0  0  0  0  0  0  0  0  0
   43.9420   36.3720   44.5300 H   0  0  0  0  0  0  0  0  0  0  0  0
   45.9240   36.5680   42.9860 H   0  0  0  0  0  0  0  0  0  0  0  0
   46.7870   34.3370   42.0620 H   0  0  0  0  0  0  0  0  0  0  0  0
   47.4890   34.9400   43.5890 H   0  0  0  0  0  0  0  0  0  0  0  0
   45.1340   32.9730   43.4360 H   0  0  0  0  0  0  0  0  0  0  0  0
   46.9250   32.6650   43.5550 H   0  0  0  0  0  0  0  0  0  0  0  0
   44.4620   35.2980   42.0440 C   0  0  0  0  0  0  0  0  0  0  0  0
   43.4050   34.5010   42.4510 F   0  0  0  0  0  0  0  0  0  0  0  0
   43.9180   36.5380   41.7160 F   0  0  0  0  0  0  0  0  0  0  0  0
   45.1200   34.8380   40.9210 F   0  0  0  0  0  0  0  0  0  0  0  0
   46.7900   30.6180   44.9520 C   0  0  0  0  0  0  0  0  0  0  0  0
   46.4560   29.7370   43.9760 C   0  0  0  0  0  0  0  0  0  0  0  0
   47.6210   29.4300   43.2540 C   0  0  0  0  0  0  0  0  0  0  0  0
   48.5930   30.1400   43.8280 N   0  0  0  0  0  0  0  0  0  0  0  0
   48.1300   30.8480   44.8300 N   0  0  0  0  0  0  0  0  0  0  0  0
   45.4270   29.4310   43.9110 H   0  0  0  0  0  0  0  0  0  0  0  0
   47.5370   28.7400   42.4350 H   0  0  0  0  0  0  0  0  0  0  0  0
   52.4550   29.7230   42.1290 C   0  0  0  0  0  0  0  0  0  0  0  0
   52.0460   28.8880   43.1480 C   0  0  0  0  0  3  0  0  0  0  0  0
   50.7850   29.0380   43.6900 C   0  0  0  0  0  3  0  0  0  0  0  0
   49.9000   29.9940   43.2580 C   0  0  0  0  0  0  0  0  0  0  0  0
   50.2890   30.8420   42.2350 C   0  0  0  0  0  3  0  0  0  0  0  0
   51.5640   30.6870   41.6920 C   0  0  0  0  0  3  0  0  0  0  0  0
   54.9510   30.2020   42.1880 H   0  0  0  0  0  0  0  0  0  0  0  0
   54.0380   29.6180   41.3700 S   0  0  0  0  0  0  0  0  0  0  0  0
   54.3420   28.1840   41.0490 O   0  0  0  0  0  0  0  0  0  0  0  0
   54.0160   30.4310   40.0850 O   0  0  0  0  0  0  0  0  0  0  0  0
  1  8  1  0  0  0  0
  1  6  1  0  0  0  0
  2  1  2  0  0  0  0
  3  2  1  0  0  0  0
  3  4  2  0  0  0  0
  4  5  1  0  0  0  0
  5  6  2  0  0  0  0
  5  7  1  0  0  0  0
  7 10  1  0  0  0  0
  7  9  1  0  0  0  0
 11 12  1  0  0  0  0
 11 17  1  1  0  0  0
 11  2  1  0  0  0  0
 12 18  1  0  0  0  0
 13 19  1  0  0  0  0
 13 12  2  0  0  0  0
 14 20  1  6  0  0  0
 14 13  1  0  0  0  0
 15 14  1  0  0  0  0
 15 22  1  0  0  0  0
 15 16  1  0  0  0  0
 16 11  1  0  0  0  0
 21 15  1  0  0  0  0
 23 16  1  0  0  0  0
 24 16  1  0  0  0  0
 25 26  1  0  0  0  0
 25 14  1  0  0  0  0
 27 25  1  0  0  0  0
 28 25  1  0  0  0  0
 29  3  1  0  0  0  0
 30 29  1  0  0  0  0
 31 32  1  0  0  0  0
 31 30  2  0  0  0  0
 32 33  1  0  0  0  0
 33 29  2  0  0  0  0
 34 30  1  0  0  0  0
 35 31  1  0  0  0  0
 36 37  1  0  0  0  0
 37 38  2  0  0  0  0
 39 38  1  0  0  0  0
 39 32  1  0  0  0  0
 40 39  2  0  0  0  0
 41 36  2  0  0  0  0
 41 40  1  0  0  0  0
 43 36  1  0  0  0  0
 43 42  1  0  0  0  0
 44 43  2  0  0  0  0
 45 43  2  0  0  0  0
M  END
>  <minimizedAffinity>
-5.88377428

>  <minimizedRMSD>
0.620869994

$$$$
