
 OpenBabel03232521013D

 45 48  0  0  1  0  0  0  0  0999 V2000
   45.3480   32.9140   47.4590 C   0  0  0  0  0  0  0  0  0  0  0  0
   45.9130   32.6750   46.2490 C   0  0  0  0  0  0  0  0  0  0  0  0
   46.2160   31.3320   46.0060 C   0  0  0  0  0  0  0  0  0  0  0  0
   45.9710   30.3370   46.8950 N   0  0  0  0  0  0  0  0  0  0  0  0
   45.3920   30.6430   48.1150 C   0  0  0  0  0  0  0  0  0  0  0  0
   45.0960   31.9210   48.3640 N   0  0  0  0  0  0  0  0  0  0  0  0
   45.1630   29.6150   49.0700 N   0  0  0  0  0  0  0  0  0  0  0  0
   45.0780   33.9160   47.7510 H   0  0  0  0  0  0  0  0  0  0  0  0
   46.0250   29.2240   49.5120 H   0  0  0  0  0  0  0  0  0  0  0  0
   44.2230   29.2810   49.3120 H   0  0  0  0  0  0  0  0  0  0  0  0
   46.1450   33.6310   45.2210 C   0  0  2  0  0  0  0  0  0  0  0  0
   44.9350   34.7200   45.4690 C   0  0  0  0  0  0  0  0  0  0  0  0
   44.6920   35.6520   44.4050 C   0  0  0  0  0  0  0  0  0  0  0  0
   45.4810   35.5890   43.1690 C   0  0  1  0  0  0  0  0  0  0  0  0
   46.5420   34.5910   43.1080 C   0  0  0  0  0  0  0  0  0  0  0  0
   46.1030   33.3530   43.8560 C   0  0  0  0  0  0  0  0  0  0  0  0
   46.9430   34.3620   45.5480 H   0  0  0  0  0  0  0  0  0  0  0  0
   44.2700   34.8620   46.3120 H   0  0  0  0  0  0  0  0  0  0  0  0
   43.9250   36.3690   44.5250 H   0  0  0  0  0  0  0  0  0  0  0  0
   45.9030   36.6030   42.9810 H   0  0  0  0  0  0  0  0  0  0  0  0
   46.7910   34.3920   42.0350 H   0  0  0  0  0  0  0  0  0  0  0  0
   47.4880   34.9880   43.5670 H   0  0  0  0  0  0  0  0  0  0  0  0
   45.1570   32.9950   43.3990 H   0  0  0  0  0  0  0  0  0  0  0  0
   46.9510   32.7070   43.5130 H   0  0  0  0  0  0  0  0  0  0  0  0
   44.4550   35.3240   42.0290 C   0  0  0  0  0  0  0  0  0  0  0  0
   43.3870   34.5450   42.4410 F   0  0  0  0  0  0  0  0  0  0  0  0
   43.9280   36.5670   41.6840 F   0  0  0  0  0  0  0  0  0  0  0  0
   45.1120   34.8430   40.9140 F   0  0  0  0  0  0  0  0  0  0  0  0
   46.8740   30.6530   44.9040 C   0  0  0  0  0  0  0  0  0  0  0  0
   46.5560   29.8130   43.8860 C   0  0  0  0  0  0  0  0  0  0  0  0
   47.7390   29.5020   43.1970 C   0  0  0  0  0  0  0  0  0  0  0  0
   48.7060   30.1670   43.8300 N   0  0  0  0  0  0  0  0  0  0  0  0
   48.2240   30.8530   44.8380 N   0  0  0  0  0  0  0  0  0  0  0  0
   45.5230   29.5360   43.7740 H   0  0  0  0  0  0  0  0  0  0  0  0
   47.6690   28.8410   42.3520 H   0  0  0  0  0  0  0  0  0  0  0  0
   52.6150   29.7040   42.2530 C   0  0  0  0  0  0  0  0  0  0  0  0
   52.3030   29.2150   43.5050 C   0  0  0  0  0  3  0  0  0  0  0  0
   51.0260   29.3740   44.0030 C   0  0  0  0  0  3  0  0  0  0  0  0
   50.0290   30.0070   43.3030 C   0  0  0  0  0  0  0  0  0  0  0  0
   50.3190   30.5060   42.0440 C   0  0  0  0  0  3  0  0  0  0  0  0
   51.6120   30.3420   41.5460 C   0  0  0  0  0  3  0  0  0  0  0  0
   54.6990   30.7980   41.2940 H   0  0  0  0  0  0  0  0  0  0  0  0
   54.2090   29.5540   41.5270 S   0  0  0  0  0  0  0  0  0  0  0  0
   55.0830   28.7160   42.4120 O   0  0  0  0  0  0  0  0  0  0  0  0
   54.0630   28.8800   40.1720 O   0  0  0  0  0  0  0  0  0  0  0  0
  1  8  1  0  0  0  0
  1  6  1  0  0  0  0
  2  1  2  0  0  0  0
  3  2  1  0  0  0  0
  3  4  2  0  0  0  0
  4  5  1  0  0  0  0
  5  6  2  0  0  0  0
  5  7  1  0  0  0  0
  7 10  1  0  0  0  0
  7  9  1  0  0  0  0
 11 12  1  0  0  0  0
 11 17  1  1  0  0  0
 11  2  1  0  0  0  0
 12 18  1  0  0  0  0
 13 19  1  0  0  0  0
 13 12  2  0  0  0  0
 14 20  1  6  0  0  0
 14 13  1  0  0  0  0
 15 14  1  0  0  0  0
 15 22  1  0  0  0  0
 15 16  1  0  0  0  0
 16 11  1  0  0  0  0
 21 15  1  0  0  0  0
 23 16  1  0  0  0  0
 24 16  1  0  0  0  0
 25 26  1  0  0  0  0
 25 14  1  0  0  0  0
 27 25  1  0  0  0  0
 28 25  1  0  0  0  0
 29  3  1  0  0  0  0
 30 29  1  0  0  0  0
 31 32  1  0  0  0  0
 31 30  2  0  0  0  0
 32 33  1  0  0  0  0
 33 29  2  0  0  0  0
 34 30  1  0  0  0  0
 35 31  1  0  0  0  0
 36 37  1  0  0  0  0
 37 38  2  0  0  0  0
 39 32  1  0  0  0  0
 39 38  1  0  0  0  0
 40 39  2  0  0  0  0
 41 40  1  0  0  0  0
 41 36  2  0  0  0  0
 42 43  1  0  0  0  0
 43 36  1  0  0  0  0
 43 44  2  0  0  0  0
 45 43  2  0  0  0  0
M  END
>  <minimizedAffinity>
-5.7687912

>  <minimizedRMSD>
0.489117086

$$$$
