
 OpenBabel03232518253D

 20 21  0  0  0  0  0  0  0  0999 V2000
   45.9390   32.1890   44.7150 S   0  0  0  0  0  0  0  0  0  0  0  0
   46.7540   35.2030   42.2690 C   0  0  0  0  0  0  0  0  0  0  0  0
   48.1240   35.1020   42.0310 C   0  0  0  0  0  0  0  0  0  0  0  0
   48.8330   34.0600   42.6500 C   0  0  0  0  0  0  0  0  0  0  0  0
   48.1280   33.1980   43.4570 N   0  0  0  0  0  0  0  0  0  0  0  0
   46.8060   33.3400   43.6540 C   0  0  0  0  0  0  0  0  0  0  0  0
   46.1020   34.3310   43.0720 N   0  0  0  0  0  0  0  0  0  0  0  0
   46.2330   36.0160   41.7790 H   0  0  0  0  0  0  0  0  0  0  0  0
   48.6820   35.7760   41.3990 H   0  0  0  0  0  0  0  0  0  0  0  0
   49.8930   33.8820   42.5400 H   0  0  0  0  0  0  0  0  0  0  0  0
   48.3160   30.9520   48.3970 C   0  0  0  0  0  0  0  0  0  0  0  0
   48.1560   30.1360   47.2980 C   0  0  0  0  0  0  0  0  0  0  0  0
   47.4140   30.5770   46.2000 C   0  0  0  0  0  0  0  0  0  0  0  0
   46.8360   31.8460   46.2220 C   0  0  0  0  0  0  0  0  0  0  0  0
   47.0000   32.6580   47.3250 C   0  0  0  0  0  0  0  0  0  0  0  0
   47.7380   32.1970   48.3950 C   0  0  0  0  0  0  0  0  0  0  0  0
   48.4440   29.8760   50.7440 H   0  0  0  0  0  0  0  0  0  0  0  0
   49.2460   30.4150   49.7870 S   0  0  0  0  0  0  0  0  0  0  0  0
   50.2860   29.4630   49.2670 O   0  0  0  0  0  0  0  0  0  0  0  0
   49.9990   31.6030   50.3110 O   0  0  0  0  0  0  0  0  0  0  0  0
  1 14  1  0  0  0  0
  2  7  1  0  0  0  0
  3  2  2  0  0  0  0
  3  4  1  0  0  0  0
  4  5  2  0  0  0  0
  5  6  1  0  0  0  0
  6  1  1  0  0  0  0
  7  6  2  0  0  0  0
  8  2  1  0  0  0  0
  9  3  1  0  0  0  0
 10  4  1  0  0  0  0
 11 18  1  0  0  0  0
 12 11  2  0  0  0  0
 13 14  2  0  0  0  0
 13 12  1  0  0  0  0
 14 15  1  0  0  0  0
 15 16  2  0  0  0  0
 16 11  1  0  0  0  0
 18 20  2  0  0  0  0
 18 17  1  0  0  0  0
 19 18  2  0  0  0  0
M  END
>  <minimizedAffinity>
-4.06180477

>  <minimizedRMSD>
3.07298517

$$$$
