
 OpenBabel03232521013D

 45 48  0  0  1  0  0  0  0  0999 V2000
   45.3710   33.0650   47.4540 C   0  0  0  0  0  0  0  0  0  0  0  0
   45.8780   32.8080   46.2220 C   0  0  0  0  0  0  0  0  0  0  0  0
   46.1370   31.4580   45.9720 C   0  0  0  0  0  0  0  0  0  0  0  0
   45.9060   30.4720   46.8740 N   0  0  0  0  0  0  0  0  0  0  0  0
   45.3880   30.7960   48.1170 C   0  0  0  0  0  0  0  0  0  0  0  0
   45.1340   32.0810   48.3730 N   0  0  0  0  0  0  0  0  0  0  0  0
   45.1760   29.7770   49.0850 N   0  0  0  0  0  0  0  0  0  0  0  0
   45.1390   34.0750   47.7540 H   0  0  0  0  0  0  0  0  0  0  0  0
   46.0460   29.3660   49.4900 H   0  0  0  0  0  0  0  0  0  0  0  0
   44.2390   29.4670   49.3690 H   0  0  0  0  0  0  0  0  0  0  0  0
   46.0880   33.7560   45.1810 C   0  0  2  0  0  0  0  0  0  0  0  0
   44.8670   34.8330   45.4280 C   0  0  0  0  0  0  0  0  0  0  0  0
   44.6020   35.7500   44.3560 C   0  0  0  0  0  0  0  0  0  0  0  0
   45.3810   35.6820   43.1140 C   0  0  1  0  0  0  0  0  0  0  0  0
   46.4530   34.6960   43.0540 C   0  0  0  0  0  0  0  0  0  0  0  0
   46.0360   33.4610   43.8200 C   0  0  0  0  0  0  0  0  0  0  0  0
   46.8800   34.5000   45.4920 H   0  0  0  0  0  0  0  0  0  0  0  0
   44.2080   34.9770   46.2760 H   0  0  0  0  0  0  0  0  0  0  0  0
   43.8280   36.4590   44.4750 H   0  0  0  0  0  0  0  0  0  0  0  0
   45.7880   36.6990   42.9100 H   0  0  0  0  0  0  0  0  0  0  0  0
   46.6950   34.4880   41.9810 H   0  0  0  0  0  0  0  0  0  0  0  0
   47.3990   35.1100   43.4990 H   0  0  0  0  0  0  0  0  0  0  0  0
   45.0900   33.0870   43.3760 H   0  0  0  0  0  0  0  0  0  0  0  0
   46.8890   32.8230   43.4750 H   0  0  0  0  0  0  0  0  0  0  0  0
   44.3470   35.3920   41.9860 C   0  0  0  0  0  0  0  0  0  0  0  0
   43.2790   34.6270   42.4240 F   0  0  0  0  0  0  0  0  0  0  0  0
   43.8220   36.6270   41.6130 F   0  0  0  0  0  0  0  0  0  0  0  0
   44.9970   34.8800   40.8800 F   0  0  0  0  0  0  0  0  0  0  0  0
   46.7300   30.7600   44.8440 C   0  0  0  0  0  0  0  0  0  0  0  0
   46.3910   29.8030   43.9440 C   0  0  0  0  0  0  0  0  0  0  0  0
   47.5080   29.5630   43.1270 C   0  0  0  0  0  0  0  0  0  0  0  0
   48.4580   30.3850   43.5740 N   0  0  0  0  0  0  0  0  0  0  0  0
   48.0260   31.1000   44.5840 N   0  0  0  0  0  0  0  0  0  0  0  0
   45.3930   29.4040   43.9920 H   0  0  0  0  0  0  0  0  0  0  0  0
   47.4140   28.8260   42.3510 H   0  0  0  0  0  0  0  0  0  0  0  0
   52.1730   30.2260   41.5350 C   0  0  0  0  0  0  0  0  0  0  0  0
   51.7720   29.1790   42.3410 C   0  0  0  0  0  3  0  0  0  0  0  0
   50.5600   29.2480   42.9970 C   0  0  0  0  0  3  0  0  0  0  0  0
   49.7150   30.3240   42.8880 C   0  0  0  0  0  0  0  0  0  0  0  0
   50.0970   31.3850   42.0840 C   0  0  0  0  0  3  0  0  0  0  0  0
   51.3230   31.3110   41.4230 C   0  0  0  0  0  3  0  0  0  0  0  0
   54.6660   30.7160   41.4760 H   0  0  0  0  0  0  0  0  0  0  0  0
   53.6960   30.2390   40.6550 S   0  0  0  0  0  0  0  0  0  0  0  0
   53.9750   28.8640   40.1210 O   0  0  0  0  0  0  0  0  0  0  0  0
   53.5790   31.2180   39.4990 O   0  0  0  0  0  0  0  0  0  0  0  0
  1  8  1  0  0  0  0
  1  6  1  0  0  0  0
  2  1  2  0  0  0  0
  3  2  1  0  0  0  0
  3  4  2  0  0  0  0
  4  5  1  0  0  0  0
  5  6  2  0  0  0  0
  5  7  1  0  0  0  0
  7 10  1  0  0  0  0
  7  9  1  0  0  0  0
 11 12  1  0  0  0  0
 11 17  1  1  0  0  0
 11  2  1  0  0  0  0
 12 18  1  0  0  0  0
 13 19  1  0  0  0  0
 13 12  2  0  0  0  0
 14 20  1  6  0  0  0
 14 13  1  0  0  0  0
 15 14  1  0  0  0  0
 15 22  1  0  0  0  0
 15 16  1  0  0  0  0
 16 11  1  0  0  0  0
 21 15  1  0  0  0  0
 23 16  1  0  0  0  0
 24 16  1  0  0  0  0
 25 26  1  0  0  0  0
 25 14  1  0  0  0  0
 27 25  1  0  0  0  0
 28 25  1  0  0  0  0
 29  3  1  0  0  0  0
 30 34  1  0  0  0  0
 30 29  1  0  0  0  0
 31 32  1  0  0  0  0
 31 30  2  0  0  0  0
 32 33  1  0  0  0  0
 33 29  2  0  0  0  0
 35 31  1  0  0  0  0
 36 37  1  0  0  0  0
 37 38  2  0  0  0  0
 39 38  1  0  0  0  0
 39 32  1  0  0  0  0
 40 39  2  0  0  0  0
 41 36  2  0  0  0  0
 41 40  1  0  0  0  0
 43 42  1  0  0  0  0
 43 36  1  0  0  0  0
 44 43  2  0  0  0  0
 45 43  2  0  0  0  0
M  END
>  <minimizedAffinity>
-6.04495668

>  <minimizedRMSD>
0.970234334

$$$$
