
 OpenBabel03232510163D

 21 22  0  0  1  0  0  0  0  0999 V2000
   45.1970   34.7370   42.7120 C   0  0  0  0  0  0  0  0  0  0  0  0
   46.2820   35.1540   41.8880 C   0  0  0  0  0  0  0  0  0  0  0  0
   47.5770   34.8020   42.2910 C   0  0  0  0  0  0  0  0  0  0  0  0
   47.7410   34.0850   43.4380 N   0  0  0  0  0  0  0  0  0  0  0  0
   46.6930   33.7070   44.1940 C   0  0  0  0  0  0  0  0  0  0  0  0
   45.4400   34.0330   43.8290 N   0  0  0  0  0  0  0  0  0  0  0  0
   44.1810   34.9840   42.4430 H   0  0  0  0  0  0  0  0  0  0  0  0
   46.0700   35.7200   40.9900 H   0  0  0  0  0  0  0  0  0  0  0  0
   46.9470   32.9170   45.4120 C   0  0  1  0  0  0  0  0  0  0  0  0
   45.9270   31.9550   45.9200 C   0  0  0  0  0  0  0  0  0  0  0  0
   47.1190   31.4460   45.1770 C   0  0  1  0  0  0  0  0  0  0  0  0
   47.5670   33.3770   46.2040 H   0  0  0  0  0  0  0  0  0  0  0  0
   45.8750   31.7460   47.0000 H   0  0  0  0  0  0  0  0  0  0  0  0
   44.9370   32.0600   45.4430 H   0  0  0  0  0  0  0  0  0  0  0  0
   47.8420   30.8540   45.7510 H   0  0  0  0  0  0  0  0  0  0  0  0
   46.6550   30.7660   43.5480 S   0  0  0  0  0  0  0  0  0  0  0  0
   47.5430   29.7940   43.1130 H   0  0  0  0  0  0  0  0  0  0  0  0
   48.7330   35.2420   41.4460 C   0  0  0  0  0  0  0  0  0  0  0  0
   48.9970   36.5440   41.8640 F   0  0  0  0  0  0  0  0  0  0  0  0
   49.8620   34.4890   41.6960 F   0  0  0  0  0  0  0  0  0  0  0  0
   48.4200   35.2400   40.1130 F   0  0  0  0  0  0  0  0  0  0  0  0
  1  6  1  0  0  0  0
  2  3  1  0  0  0  0
  2  1  2  0  0  0  0
  3  4  2  0  0  0  0
  4  5  1  0  0  0  0
  5  9  1  0  0  0  0
  6  5  2  0  0  0  0
  7  1  1  0  0  0  0
  8  2  1  0  0  0  0
  9 10  1  0  0  0  0
  9 12  1  1  0  0  0
 10 13  1  0  0  0  0
 11  9  1  0  0  0  0
 11 15  1  1  0  0  0
 11 10  1  0  0  0  0
 14 10  1  0  0  0  0
 16 11  1  0  0  0  0
 17 16  1  0  0  0  0
 18 20  1  0  0  0  0
 18 19  1  0  0  0  0
 18  3  1  0  0  0  0
 21 18  1  0  0  0  0
M  END
>  <minimizedAffinity>
-4.16676426

>  <minimizedRMSD>
2.60881805

$$$$
