
 OpenBabel03232518103D

 33 35  0  0  0  0  0  0  0  0999 V2000
   46.0200   30.6590   45.1280 C   0  0  0  0  0  0  0  0  0  0  0  0
   46.0700   31.2780   46.3920 C   0  0  0  0  0  0  0  0  0  0  0  0
   46.0490   30.2530   47.2910 C   0  0  0  0  0  0  0  0  0  0  0  0
   45.9890   29.0760   46.6390 N   0  0  0  0  0  0  0  0  0  0  0  0
   45.9720   29.3240   45.3320 N   0  0  0  0  0  0  0  0  0  0  0  0
   46.1100   32.3420   46.3530 H   0  0  0  0  0  0  0  0  0  0  0  0
   46.0800   30.5000   48.3430 H   0  0  0  0  0  0  0  0  0  0  0  0
   45.9980   25.3910   48.7080 C   0  0  0  0  0  0  0  0  0  0  0  0
   47.1120   25.9000   48.0700 C   0  0  0  0  0  0  0  0  0  0  0  0
   47.1360   27.1110   47.3820 C   0  0  0  0  0  0  0  0  0  0  0  0
   45.9570   27.8390   47.3450 C   0  0  0  0  0  0  0  0  0  0  0  0
   44.8050   27.3890   47.9610 C   0  0  0  0  0  0  0  0  0  0  0  0
   44.8350   26.1650   48.6400 C   0  0  0  0  0  0  0  0  0  0  0  0
   45.0950   22.9790   49.0740 H   0  0  0  0  0  0  0  0  0  0  0  0
   46.0410   23.8630   49.5530 S   0  0  0  0  0  0  0  0  0  0  0  0
   47.3920   23.2130   49.5180 O   0  0  0  0  0  0  0  0  0  0  0  0
   45.6390   24.1230   50.9910 O   0  0  0  0  0  0  0  0  0  0  0  0
   46.0030   31.1460   43.4120 S   0  0  0  0  0  0  0  0  0  0  0  0
   47.1740   34.8810   42.3880 C   0  0  0  0  0  0  0  0  0  0  0  0
   47.1790   33.4760   42.5130 C   0  0  0  0  0  0  0  0  0  0  0  0
   46.1180   32.8780   43.1850 C   0  0  0  0  0  0  0  0  0  0  0  0
   45.1300   33.6940   43.6850 N   0  0  0  0  0  0  0  0  0  0  0  0
   45.1740   35.0240   43.5370 C   0  0  0  0  0  0  0  0  0  0  0  0
   46.1850   35.6170   42.8940 N   0  0  0  0  0  0  0  0  0  0  0  0
   47.9520   32.8190   42.1250 H   0  0  0  0  0  0  0  0  0  0  0  0
   44.3600   35.5900   43.9580 H   0  0  0  0  0  0  0  0  0  0  0  0
   48.3730   35.3670   41.6460 C   0  0  0  0  0  0  0  0  0  0  0  0
   48.4980   34.8690   40.6560 H   0  0  0  0  0  0  0  0  0  0  0  0
   48.2920   36.4650   41.5380 H   0  0  0  0  0  0  0  0  0  0  0  0
   49.6310   35.0820   42.4290 C   0  0  0  0  0  0  0  0  0  0  0  0
   50.1380   34.1690   42.0600 H   0  0  0  0  0  0  0  0  0  0  0  0
   50.3460   35.9480   42.3160 H   0  0  0  0  0  0  0  0  0  0  0  0
   49.4500   35.0220   43.5240 H   0  0  0  0  0  0  0  0  0  0  0  0
  1  5  2  0  0  0  0
  1  2  1  0  0  0  0
  2  3  2  0  0  0  0
  3  7  1  0  0  0  0
  4  3  1  0  0  0  0
  4 11  1  0  0  0  0
  5  4  1  0  0  0  0
  6  2  1  0  0  0  0
  8 15  1  0  0  0  0
  9  8  2  0  0  0  0
 10  9  1  0  0  0  0
 11 10  2  0  0  0  0
 11 12  1  0  0  0  0
 12 13  2  0  0  0  0
 13  8  1  0  0  0  0
 14 15  1  0  0  0  0
 15 17  2  0  0  0  0
 16 15  2  0  0  0  0
 18  1  1  0  0  0  0
 19 20  2  0  0  0  0
 19 24  1  0  0  0  0
 20 21  1  0  0  0  0
 21 18  1  0  0  0  0
 21 22  2  0  0  0  0
 23 22  1  0  0  0  0
 23 26  1  0  0  0  0
 24 23  2  0  0  0  0
 25 20  1  0  0  0  0
 27 19  1  0  0  0  0
 27 30  1  0  0  0  0
 28 27  1  0  0  0  0
 29 27  1  0  0  0  0
 30 33  1  0  0  0  0
 31 30  1  0  0  0  0
 32 30  1  0  0  0  0
M  END
>  <minimizedAffinity>
-4.71730375

>  <minimizedRMSD>
2.88018966

$$$$
