
 OpenBabel03232520573D

 33 35  0  0  1  0  0  0  0  0999 V2000
   46.1110   33.4950   45.1340 C   0  0  2  0  0  0  0  0  0  0  0  0
   45.0580   34.6560   45.4160 C   0  0  0  0  0  0  0  0  0  0  0  0
   44.8110   35.5830   44.3420 C   0  0  0  0  0  0  0  0  0  0  0  0
   45.4980   35.4460   43.0650 C   0  0  1  0  0  0  0  0  0  0  0  0
   46.4910   34.3410   42.9490 C   0  0  0  0  0  0  0  0  0  0  0  0
   45.9630   33.1610   43.7520 C   0  0  0  0  0  0  0  0  0  0  0  0
   47.0050   34.1220   45.3820 H   0  0  0  0  0  0  0  0  0  0  0  0
   44.4430   34.9360   46.2630 H   0  0  0  0  0  0  0  0  0  0  0  0
   44.1220   36.3800   44.4600 H   0  0  0  0  0  0  0  0  0  0  0  0
   45.9670   36.4160   42.8030 H   0  0  0  0  0  0  0  0  0  0  0  0
   46.5410   34.0470   41.8840 H   0  0  0  0  0  0  0  0  0  0  0  0
   47.5010   34.6630   43.2600 H   0  0  0  0  0  0  0  0  0  0  0  0
   46.1770   32.2940   43.2190 H   0  0  0  0  0  0  0  0  0  0  0  0
   44.8000   33.2560   43.5490 H   0  0  0  0  0  0  0  0  0  0  0  0
   45.4610   32.8060   47.4370 C   0  0  0  0  0  0  0  0  0  0  0  0
   45.9000   32.5190   46.1610 C   0  0  0  0  0  0  0  0  0  0  0  0
   46.0310   31.1790   45.9030 C   0  0  0  0  0  0  0  0  0  0  0  0
   45.7430   30.2400   46.8240 N   0  0  0  0  0  0  0  0  0  0  0  0
   45.3130   30.5560   48.0670 C   0  0  0  0  0  0  0  0  0  0  0  0
   45.1760   31.8410   48.3680 N   0  0  0  0  0  0  0  0  0  0  0  0
   45.0760   29.5240   49.0250 N   0  0  0  0  0  0  0  0  0  0  0  0
   45.3310   33.8260   47.7480 H   0  0  0  0  0  0  0  0  0  0  0  0
   44.1930   29.4300   49.5690 H   0  0  0  0  0  0  0  0  0  0  0  0
   45.8470   28.8290   49.1750 H   0  0  0  0  0  0  0  0  0  0  0  0
   46.8070   30.5630   44.7460 C   0  0  0  0  0  0  0  0  0  0  0  0
   46.0040   29.7410   43.7950 C   0  0  0  0  0  3  0  0  0  0  0  0
   46.7590   29.2750   42.7680 C   0  0  0  0  0  3  0  0  0  0  0  0
   48.1080   29.5030   42.5760 C   0  0  0  0  0  3  0  0  0  0  0  0
   48.3880   30.5660   44.1110 S   0  0  0  0  0  0  0  0  0  0  0  0
   44.4110   35.2320   41.9800 C   0  0  0  0  0  0  0  0  0  0  0  0
   43.3550   34.4690   42.4190 F   0  0  0  0  0  0  0  0  0  0  0  0
   43.8960   36.4940   41.6910 F   0  0  0  0  0  0  0  0  0  0  0  0
   44.9890   34.7500   40.8180 F   0  0  0  0  0  0  0  0  0  0  0  0
  1  7  1  1  0  0  0
  1  2  1  0  0  0  0
  1 16  1  0  0  0  0
  2  8  1  0  0  0  0
  3  9  1  0  0  0  0
  3  2  2  0  0  0  0
  4 10  1  6  0  0  0
  4  3  1  0  0  0  0
  5  4  1  0  0  0  0
  5 12  1  0  0  0  0
  5  6  1  0  0  0  0
  6  1  1  0  0  0  0
 11  5  1  0  0  0  0
 13  6  1  0  0  0  0
 14  6  1  0  0  0  0
 15 22  1  0  0  0  0
 15 20  1  0  0  0  0
 16 15  2  0  0  0  0
 17 16  1  0  0  0  0
 17 18  2  0  0  0  0
 18 19  1  0  0  0  0
 19 20  2  0  0  0  0
 19 21  1  0  0  0  0
 21 24  1  0  0  0  0
 21 23  1  0  0  0  0
 25 17  1  0  0  0  0
 26 25  2  0  0  0  0
 27 26  1  0  0  0  0
 28 27  2  0  0  0  0
 28 29  1  0  0  0  0
 29 25  1  0  0  0  0
 30 31  1  0  0  0  0
 30  4  1  0  0  0  0
 32 30  1  0  0  0  0
 33 30  1  0  0  0  0
M  END
>  <minimizedAffinity>
-5.35485983

>  <minimizedRMSD>
0.589689314

$$$$
