
     RDKit          3D

 36 38  0  0  0  0  0  0  0  0999 V2000
   46.1459   33.6614   45.3183 C   0  0  2  0  0  0  0  0  0  0  0  0
   44.9466   34.6969   45.4808 C   0  0  0  0  0  0  0  0  0  0  0  0
   44.7033   35.5871   44.3758 C   0  0  0  0  0  0  0  0  0  0  0  0
   45.5216   35.5245   43.1726 C   0  0  1  0  0  0  0  0  0  0  0  0
   46.6393   34.5392   43.1682 C   0  0  0  0  0  0  0  0  0  0  0  0
   46.1708   33.3095   43.9333 C   0  0  0  0  0  0  0  0  0  0  0  0
   45.3062   32.8960   47.5337 C   0  0  0  0  0  0  0  0  0  0  0  0
   45.9472   32.6699   46.3326 C   0  0  0  0  0  0  0  0  0  0  0  0
   46.3058   31.3630   46.1284 C   0  0  0  0  0  0  0  0  0  0  0  0
   46.0390   30.3966   47.0267 N   0  0  0  0  0  0  0  0  0  0  0  0
   45.4082   30.6530   48.1959 C   0  0  0  0  0  0  0  0  0  0  0  0
   45.0446   31.9047   48.4445 N   0  0  0  0  0  0  0  0  0  0  0  0
   45.2004   29.6018   49.1402 N   0  0  0  0  0  0  0  0  0  0  0  0
   44.5769   35.1867   41.9924 C   0  0  0  0  0  0  0  0  0  0  0  0
   43.5868   34.2954   42.3317 F   0  0  0  0  0  0  0  0  0  0  0  0
   43.9383   36.3772   41.6515 F   0  0  0  0  0  0  0  0  0  0  0  0
   45.3160   34.7891   40.8914 F   0  0  0  0  0  0  0  0  0  0  0  0
   46.9359   34.3856   45.6417 H   0  0  0  0  0  0  0  0  0  0  0  0
   44.2252   34.9083   46.2608 H   0  0  0  0  0  0  0  0  0  0  0  0
   43.9209   36.3024   44.4160 H   0  0  0  0  0  0  0  0  0  0  0  0
   45.9025   36.5415   42.9443 H   0  0  0  0  0  0  0  0  0  0  0  0
   46.8252   34.2491   42.1165 H   0  0  0  0  0  0  0  0  0  0  0  0
   47.5715   34.9727   43.5696 H   0  0  0  0  0  0  0  0  0  0  0  0
   46.5319   32.4703   43.4346 H   0  0  0  0  0  0  0  0  0  0  0  0
   45.0299   33.2712   43.6171 H   0  0  0  0  0  0  0  0  0  0  0  0
   44.9879   33.8867   47.8005 H   0  0  0  0  0  0  0  0  0  0  0  0
   44.2771   29.3814   49.5677 H   0  0  0  0  0  0  0  0  0  0  0  0
   46.0378   29.0304   49.4057 H   0  0  0  0  0  0  0  0  0  0  0  0
   47.3095   30.8630   45.0969 C   0  0  0  0  0  0  0  0  0  0  0  0
   48.4126   31.8070   44.7596 C   0  0  0  0  0  0  0  0  0  0  0  0
   49.2896   31.2657   43.8770 C   0  0  0  0  0  0  0  0  0  0  0  0
   49.2183   30.0011   43.3257 C   0  0  0  0  0  0  0  0  0  0  0  0
   47.6333   29.4547   44.1950 S   0  0  0  0  0  0  0  0  0  0  0  0
   48.5325   32.8051   45.1509 H   0  0  0  0  0  0  0  0  0  0  0  0
   50.1586   31.7900   43.5087 H   0  0  0  0  0  0  0  0  0  0  0  0
   49.6987   29.4084   42.7011 H   0  0  0  0  0  0  0  0  0  0  0  0
  1  2  1  0
  1  8  1  0
  3  2  2  0
  4  5  1  0
  4  3  1  0
  5  6  1  0
  6  1  1  0
  7 12  2  0
  8  7  1  0
  9  8  2  0
  9 10  1  0
 10 11  2  0
 11 12  1  0
 11 13  1  0
 14 15  1  0
 14  4  1  0
 16 14  1  0
 17 14  1  0
  1 18  1  1
  2 19  1  0
  3 20  1  0
  4 21  1  6
  5 22  1  0
  5 23  1  0
  6 24  1  0
  6 25  1  0
  7 26  1  0
 13 27  1  0
 13 28  1  0
 29 30  2  0
 30 31  1  0
 31 32  2  0
 32 33  1  0
 33 29  1  0
 30 34  1  0
 31 35  1  0
 32 36  1  0
  9 29  1  0
M  ISO  8  18  13  19  13  20  13  21  13  22  13  23  13  24  13  25  13
M  ISO  1  26  14
M  END
>  <DihAtoms>  (1) 
7,8,28,29

>  <DihDeg>  (1) 
-149.65945291099436

$$$$
