REMARK  Name = 
REMARK  4 active torsions:
REMARK  status: ('A' for Active; 'I' for Inactive)
REMARK    1  A    between atoms: C_1  and  C_8
REMARK    2  A    between atoms: C_4  and  C_19
REMARK    3  A    between atoms: C_9  and  C_14
REMARK    4  A    between atoms: N_17  and  C_36
REMARK                            x       y       z     vdW  Elec       q    Type
REMARK                         _______ _______ _______ _____ _____    ______ ____
ROOT
ATOM      1  C   UNL     1      45.415  32.882  47.535  0.00  0.00    +0.000 A 
ATOM      2  C   UNL     1      45.929  32.638  46.302  0.00  0.00    +0.000 A 
ATOM      3  C   UNL     1      46.151  31.281  46.030  0.00  0.00    +0.000 A 
ATOM      4  N   UNL     1      45.882  30.279  46.904  0.00  0.00    +0.000 NA
ATOM      5  C   UNL     1      45.358  30.587  48.148  0.00  0.00    +0.000 A 
ATOM      6  N   UNL     1      45.138  31.878  48.434  0.00  0.00    +0.000 NA
ATOM      7  N   UNL     1      45.074  29.564  49.083  0.00  0.00    +0.000 N 
ATOM      8  H   UNL     1      45.209  33.866  47.854  0.00  0.00    +0.000 HD
ATOM      9  H   UNL     1      44.231  29.733  49.709  0.00  0.00    +0.000 HD
ATOM     10  H   UNL     1      45.649  28.696  49.161  0.00  0.00    +0.000 HD
ENDROOT
BRANCH   2  11
ATOM     11  C   UNL     1      46.164  33.601  45.280  0.00  0.00    +0.000 C 
ATOM     12  C   UNL     1      44.915  34.657  45.496  0.00  0.00    +0.000 C 
ATOM     13  C   UNL     1      44.680  35.589  44.429  0.00  0.00    +0.000 C 
ATOM     14  C   UNL     1      45.508  35.543  43.216  0.00  0.00    +0.000 C 
ATOM     15  C   UNL     1      46.583  34.562  43.176  0.00  0.00    +0.000 C 
ATOM     16  C   UNL     1      46.148  33.320  43.915  0.00  0.00    +0.000 C 
ATOM     17  H   UNL     1      46.910  34.371  45.634  0.00  0.00    +0.000 HD
ATOM     18  H   UNL     1      44.227  34.765  46.327  0.00  0.00    +0.000 HD
ATOM     19  H   UNL     1      43.872  36.297  44.539  0.00  0.00    +0.000 HD
ATOM     20  H   UNL     1      45.915  36.560  43.036  0.00  0.00    +0.000 HD
ATOM     21  H   UNL     1      46.813  34.342  42.091  0.00  0.00    +0.000 HD
ATOM     22  H   UNL     1      47.551  34.886  43.598  0.00  0.00    +0.000 HD
ATOM     23  H   UNL     1      47.011  32.683  43.587  0.00  0.00    +0.000 HD
ATOM     24  H   UNL     1      45.190  32.934  43.489  0.00  0.00    +0.000 HD
BRANCH  14  25
ATOM     25  C   UNL     1      44.515  35.271  42.048  0.00  0.00    +0.000 C 
ATOM     26  F   UNL     1      43.462  34.450  42.423  0.00  0.00    +0.000 F 
ATOM     27  F   UNL     1      43.959  36.500  41.705  0.00  0.00    +0.000 F 
ATOM     28  F   UNL     1      45.212  34.817  40.946  0.00  0.00    +0.000 F 
ENDBRANCH  14  25
ENDBRANCH   2  11
BRANCH   3  29
ATOM     29  C   UNL     1      46.747  30.594  44.898  0.00  0.00    +0.000 A 
ATOM     30  C   UNL     1      46.356  29.913  43.790  0.00  0.00    +0.000 A 
ATOM     31  C   UNL     1      47.522  29.471  43.129  0.00  0.00    +0.000 A 
ATOM     32  N   UNL     1      48.541  29.906  43.866  0.00  0.00    +0.000 N 
ATOM     33  N   UNL     1      48.121  30.570  44.915  0.00  0.00    +0.000 NA
ATOM     34  H   UNL     1      45.306  29.827  43.609  0.00  0.00    +0.000 HD
ATOM     35  H   UNL     1      47.446  28.906  42.223  0.00  0.00    +0.000 HD
BRANCH  32  36
ATOM     36  C   UNL     1      49.922  29.654  43.513  0.00  0.00    +0.000 A 
ATOM     37  C   UNL     1      50.770  28.858  44.296  0.00  0.00    +0.000 A 
ATOM     38  N   UNL     1      51.980  28.818  43.704  0.00  0.00    +0.000 N 
ATOM     39  C   UNL     1      51.942  29.555  42.576  0.00  0.00    +0.000 A 
ATOM     40  C   UNL     1      52.919  29.821  41.633  0.00  0.00    +0.000 A 
ATOM     41  C   UNL     1      52.541  30.628  40.580  0.00  0.00    +0.000 A 
ATOM     42  C   UNL     1      51.271  31.161  40.435  0.00  0.00    +0.000 A 
ATOM     43  C   UNL     1      50.311  30.884  41.385  0.00  0.00    +0.000 A 
ATOM     44  C   UNL     1      50.658  30.090  42.435  0.00  0.00    +0.000 A 
ATOM     45  H   UNL     1      52.784  28.277  44.112  0.00  0.00    +0.000 HD
ENDBRANCH  32  36
ENDBRANCH   3  29
TORSDOF 4
