
 OpenBabel03232520563D

 33 35  0  0  1  0  0  0  0  0999 V2000
   46.1030   33.5170   45.2250 C   0  0  2  0  0  0  0  0  0  0  0  0
   45.0150   34.6500   45.4890 C   0  0  0  0  0  0  0  0  0  0  0  0
   44.7800   35.5860   44.4200 C   0  0  0  0  0  0  0  0  0  0  0  0
   45.5090   35.4820   43.1630 C   0  0  1  0  0  0  0  0  0  0  0  0
   46.5310   34.4020   43.0640 C   0  0  0  0  0  0  0  0  0  0  0  0
   46.0060   33.1990   43.8350 C   0  0  0  0  0  0  0  0  0  0  0  0
   46.9740   34.1620   45.5090 H   0  0  0  0  0  0  0  0  0  0  0  0
   44.3670   34.9050   46.3190 H   0  0  0  0  0  0  0  0  0  0  0  0
   44.0690   36.3660   44.5260 H   0  0  0  0  0  0  0  0  0  0  0  0
   45.9640   36.4660   42.9280 H   0  0  0  0  0  0  0  0  0  0  0  0
   46.6210   34.1230   41.9970 H   0  0  0  0  0  0  0  0  0  0  0  0
   47.5230   34.7420   43.4100 H   0  0  0  0  0  0  0  0  0  0  0  0
   46.2570   32.3440   43.2980 H   0  0  0  0  0  0  0  0  0  0  0  0
   44.8480   33.2700   43.5960 H   0  0  0  0  0  0  0  0  0  0  0  0
   45.4790   32.7910   47.5240 C   0  0  0  0  0  0  0  0  0  0  0  0
   45.8830   32.5230   46.2320 C   0  0  0  0  0  0  0  0  0  0  0  0
   45.9690   31.1860   45.9390 C   0  0  0  0  0  0  0  0  0  0  0  0
   45.6700   30.2340   46.8430 N   0  0  0  0  0  0  0  0  0  0  0  0
   45.2750   30.5320   48.1020 C   0  0  0  0  0  0  0  0  0  0  0  0
   45.1830   31.8130   48.4370 N   0  0  0  0  0  0  0  0  0  0  0  0
   45.0260   29.4840   49.0390 N   0  0  0  0  0  0  0  0  0  0  0  0
   45.3860   33.8060   47.8620 H   0  0  0  0  0  0  0  0  0  0  0  0
   44.1520   29.4020   49.5990 H   0  0  0  0  0  0  0  0  0  0  0  0
   45.7780   28.7620   49.1560 H   0  0  0  0  0  0  0  0  0  0  0  0
   46.7020   30.5770   44.7520 C   0  0  0  0  0  0  0  0  0  0  0  0
   48.1840   30.4840   44.8870 C   0  0  0  0  0  3  0  0  0  0  0  0
   48.7540   29.8820   43.8120 C   0  0  0  0  0  3  0  0  0  0  0  0
   48.0900   29.3960   42.7020 C   0  0  0  0  0  3  0  0  0  0  0  0
   46.3440   29.8600   43.2490 S   0  0  0  0  0  0  0  0  0  0  0  0
   44.4620   35.2580   42.0420 C   0  0  0  0  0  0  0  0  0  0  0  0
   43.4020   34.4790   42.4430 F   0  0  0  0  0  0  0  0  0  0  0  0
   43.9390   36.5140   41.7410 F   0  0  0  0  0  0  0  0  0  0  0  0
   45.0840   34.7880   40.8980 F   0  0  0  0  0  0  0  0  0  0  0  0
  1  2  1  0  0  0  0
  1  7  1  1  0  0  0
  1 16  1  0  0  0  0
  2  8  1  0  0  0  0
  3  9  1  0  0  0  0
  3  2  2  0  0  0  0
  4 10  1  6  0  0  0
  4  3  1  0  0  0  0
  5  4  1  0  0  0  0
  5 12  1  0  0  0  0
  5  6  1  0  0  0  0
  6  1  1  0  0  0  0
 11  5  1  0  0  0  0
 13  6  1  0  0  0  0
 14  6  1  0  0  0  0
 15 22  1  0  0  0  0
 15 20  1  0  0  0  0
 16 15  2  0  0  0  0
 17 16  1  0  0  0  0
 17 18  2  0  0  0  0
 18 19  1  0  0  0  0
 19 20  2  0  0  0  0
 19 21  1  0  0  0  0
 21 24  1  0  0  0  0
 21 23  1  0  0  0  0
 25 26  2  0  0  0  0
 25 17  1  0  0  0  0
 27 26  1  0  0  0  0
 28 29  1  0  0  0  0
 28 27  2  0  0  0  0
 29 25  1  0  0  0  0
 30 31  1  0  0  0  0
 30  4  1  0  0  0  0
 32 30  1  0  0  0  0
 33 30  1  0  0  0  0
M  END
>  <minimizedAffinity>
-5.50674868

>  <minimizedRMSD>
0.682343781

$$$$
