
 OpenBabel03232520023D

 23 25  0  0  0  0  0  0  0  0999 V2000
   48.5810   34.5190   41.4020 C   0  0  0  0  0  0  0  0  0  0  0  0
   48.3700   34.6220   40.0320 C   0  0  0  0  0  0  0  0  0  0  0  0
   47.5220   33.6810   39.4510 C   0  0  0  0  0  0  0  0  0  0  0  0
   46.9500   32.7190   40.2480 N   0  0  0  0  0  0  0  0  0  0  0  0
   47.1990   32.6790   41.5740 C   0  0  0  0  0  0  0  0  0  0  0  0
   48.0060   33.5680   42.1420 N   0  0  0  0  0  0  0  0  0  0  0  0
   48.8150   35.3740   39.4070 H   0  0  0  0  0  0  0  0  0  0  0  0
   47.2980   33.6830   38.3900 H   0  0  0  0  0  0  0  0  0  0  0  0
   49.4760   35.5070   42.0330 C   0  0  0  0  0  0  0  0  0  0  0  0
   49.4710   36.7040   41.6000 O   0  0  0  0  0  0  0  0  0  0  0  0
   50.2860   35.1250   43.0630 O   0  0  0  0  0  0  0  0  0  0  0  0
   50.6570   35.8530   43.6860 H   0  0  0  0  0  0  0  0  0  0  0  0
   46.4770   31.4480   42.6350 S   0  0  0  0  0  0  0  0  0  0  0  0
   46.0070   32.3240   44.1420 C   0  0  0  0  0  0  0  0  0  0  0  0
   46.1340   31.8560   45.4330 C   0  0  0  0  0  0  0  0  0  0  0  0
   45.6760   32.7990   46.2640 N   0  0  0  0  0  0  0  0  0  0  0  0
   45.2740   33.8310   45.5130 C   0  0  0  0  0  0  0  0  0  0  0  0
   44.7220   35.0500   45.8850 C   0  0  0  0  0  0  0  0  0  0  0  0
   44.3890   35.9560   44.8930 C   0  0  0  0  0  0  0  0  0  0  0  0
   44.5660   35.7320   43.5490 C   0  0  0  0  0  0  0  0  0  0  0  0
   45.1200   34.5040   43.1810 C   0  0  0  0  0  0  0  0  0  0  0  0
   45.4580   33.5910   44.1560 C   0  0  0  0  0  0  0  0  0  0  0  0
   45.6680   32.6780   47.2840 H   0  0  0  0  0  0  0  0  0  0  0  0
  1  9  1  0  0  0  0
  1  6  1  0  0  0  0
  2  1  2  0  0  0  0
  3  2  1  0  0  0  0
  3  4  2  0  0  0  0
  4  5  1  0  0  0  0
  5  6  2  0  0  0  0
  5 13  1  0  0  0  0
  7  2  1  0  0  0  0
  8  3  1  0  0  0  0
  9 11  1  0  0  0  0
 10  9  2  0  0  0  0
 11 12  1  0  0  0  0
 13 14  1  0  0  0  0
 14 22  1  0  0  0  0
 14 15  2  0  0  0  0
 15 16  1  0  0  0  0
 16 23  1  0  0  0  0
 17 18  1  0  0  0  0
 17 16  1  0  0  0  0
 19 18  2  0  0  0  0
 20 19  1  0  0  0  0
 21 20  2  0  0  0  0
 21 22  1  0  0  0  0
 22 17  2  0  0  0  0
M  END
>  <minimizedAffinity>
-5.64860201

>  <minimizedRMSD>
2.17746329

$$$$
