
 OpenBabel03232520533D

 31 33  0  0  1  0  0  0  0  0999 V2000
   44.4520   34.0290   41.7740 C   0  0  2  0  0  0  0  0  0  0  0  0
   43.6330   35.2360   42.1630 C   0  0  0  0  0  0  0  0  0  0  0  0
   42.6800   35.7270   41.1990 C   0  0  0  0  0  0  0  0  0  0  0  0
   42.5260   35.0750   39.9100 C   0  0  1  0  0  0  0  0  0  0  0  0
   43.4400   33.9520   39.5930 C   0  0  0  0  0  0  0  0  0  0  0  0
   43.6970   33.1540   40.8380 C   0  0  0  0  0  0  0  0  0  0  0  0
   45.3490   34.4360   41.2190 H   0  0  0  0  0  0  0  0  0  0  0  0
   43.5610   35.8760   43.0320 H   0  0  0  0  0  0  0  0  0  0  0  0
   42.0590   36.5690   41.3830 H   0  0  0  0  0  0  0  0  0  0  0  0
   42.6420   35.8360   39.1030 H   0  0  0  0  0  0  0  0  0  0  0  0
   44.3990   34.3110   39.1910 H   0  0  0  0  0  0  0  0  0  0  0  0
   42.9590   33.2920   38.8440 H   0  0  0  0  0  0  0  0  0  0  0  0
   44.3020   32.2880   40.5670 H   0  0  0  0  0  0  0  0  0  0  0  0
   42.7280   32.8990   41.3100 H   0  0  0  0  0  0  0  0  0  0  0  0
   45.3200   34.1640   44.0590 C   0  0  0  0  0  0  0  0  0  0  0  0
   44.9740   33.3870   42.9700 C   0  0  0  0  0  0  0  0  0  0  0  0
   45.1660   32.0050   43.0920 C   0  0  0  0  0  0  0  0  0  0  0  0
   45.6660   31.4720   44.2290 N   0  0  0  0  0  0  0  0  0  0  0  0
   45.9970   32.2710   45.2860 C   0  0  0  0  0  0  0  0  0  0  0  0
   45.8230   33.6040   45.1950 N   0  0  0  0  0  0  0  0  0  0  0  0
   45.2390   35.2390   44.1330 H   0  0  0  0  0  0  0  0  0  0  0  0
   44.9150   31.3690   42.2830 H   0  0  0  0  0  0  0  0  0  0  0  0
   46.5370   31.6340   46.4950 C   0  0  0  0  0  0  0  0  0  0  0  0
   47.1870   32.4340   47.3390 C   0  0  0  0  0  0  0  0  0  0  0  0
   47.8000   32.1990   48.5200 C   0  0  0  0  0  0  0  0  0  0  0  0
   47.5980   30.7020   48.7450 C   0  0  0  0  0  0  0  0  0  0  0  0
   46.6040   30.0630   47.2270 S   0  0  0  0  0  0  0  0  0  0  0  0
   41.0660   34.6060   39.7970 C   0  0  0  0  0  0  0  0  0  0  0  0
   40.5720   34.1050   40.9730 F   0  0  0  0  0  0  0  0  0  0  0  0
   40.2990   35.7180   39.4830 F   0  0  0  0  0  0  0  0  0  0  0  0
   40.9470   33.7180   38.7310 F   0  0  0  0  0  0  0  0  0  0  0  0
  1  7  1  6  0  0  0
  1  2  1  0  0  0  0
  1 16  1  0  0  0  0
  2  8  1  0  0  0  0
  3  9  1  0  0  0  0
  3  2  2  0  0  0  0
  4 10  1  6  0  0  0
  4  3  1  0  0  0  0
  5  4  1  0  0  0  0
  5  6  1  0  0  0  0
  6 14  1  0  0  0  0
  6  1  1  0  0  0  0
 11  5  1  0  0  0  0
 12  5  1  0  0  0  0
 13  6  1  0  0  0  0
 15 21  1  0  0  0  0
 15 20  1  0  0  0  0
 16 17  1  0  0  0  0
 16 15  2  0  0  0  0
 17 18  2  0  0  0  0
 18 19  1  0  0  0  0
 19 23  1  0  0  0  0
 20 19  2  0  0  0  0
 22 17  1  0  0  0  0
 23 27  1  0  0  0  0
 23 24  2  0  0  0  0
 24 25  1  0  0  0  0
 25 26  2  0  0  0  0
 27 26  1  0  0  0  0
 28  4  1  0  0  0  0
 28 29  1  0  0  0  0
 30 28  1  0  0  0  0
 31 28  1  0  0  0  0
M  END
>  <minimizedAffinity>
-5.14073038

>  <minimizedRMSD>
4.03508139

$$$$
