
 OpenBabel03232520513D

 28 30  0  0  1  0  0  0  0  0999 V2000
   46.2600   33.7400   45.4900 C   0  0  2  0  0  0  0  0  0  0  0  0
   45.0320   34.6260   45.5480 C   0  0  0  0  0  0  0  0  0  0  0  0
   44.7080   35.4030   44.3740 C   0  0  0  0  0  0  0  0  0  0  0  0
   45.5510   35.3170   43.1950 C   0  0  1  0  0  0  0  0  0  0  0  0
   46.7260   34.4390   43.2400 C   0  0  0  0  0  0  0  0  0  0  0  0
   46.4530   33.2310   44.0920 C   0  0  0  0  0  0  0  0  0  0  0  0
   47.1030   34.4630   45.6970 H   0  0  0  0  0  0  0  0  0  0  0  0
   44.3400   34.7670   46.3600 H   0  0  0  0  0  0  0  0  0  0  0  0
   43.8580   36.0300   44.3850 H   0  0  0  0  0  0  0  0  0  0  0  0
   45.9650   36.3680   43.0050 H   0  0  0  0  0  0  0  0  0  0  0  0
   47.5790   35.0010   43.7290 H   0  0  0  0  0  0  0  0  0  0  0  0
   47.0420   34.1680   42.2100 H   0  0  0  0  0  0  0  0  0  0  0  0
   45.5680   32.6620   43.7420 H   0  0  0  0  0  0  0  0  0  0  0  0
   47.3520   32.5670   44.0820 H   0  0  0  0  0  0  0  0  0  0  0  0
   45.2580   32.8680   47.5610 C   0  0  0  0  0  0  0  0  0  0  0  0
   46.1550   32.6920   46.5100 C   0  0  0  0  0  0  0  0  0  0  0  0
   46.9390   31.5080   46.4910 C   0  0  0  0  0  0  0  0  0  0  0  0
   46.7720   30.6110   47.4980 N   0  0  0  0  0  0  0  0  0  0  0  0
   45.8890   30.8140   48.5070 C   0  0  0  0  0  0  0  0  0  0  0  0
   45.1350   31.9370   48.5390 N   0  0  0  0  0  0  0  0  0  0  0  0
   44.6120   33.7280   47.6770 H   0  0  0  0  0  0  0  0  0  0  0  0
   47.6440   31.3320   45.6940 H   0  0  0  0  0  0  0  0  0  0  0  0
   45.9110   29.9920   49.1940 H   0  0  0  0  0  0  0  0  0  0  0  0
   44.6760   35.0170   42.0160 C   0  0  0  0  0  0  0  0  0  0  0  0
   43.4280   35.4830   41.7120 C   0  0  0  0  0  0  0  0  0  0  0  0
   42.8090   35.0650   40.5750 C   0  0  0  0  0  0  0  0  0  0  0  0
   43.5380   34.1460   39.7720 C   0  0  0  0  0  0  0  0  0  0  0  0
   45.1090   33.9250   40.7100 S   0  0  0  0  0  0  0  0  0  0  0  0
  1  2  1  0  0  0  0
  1  7  1  1  0  0  0
  1 16  1  0  0  0  0
  2  8  1  0  0  0  0
  3  9  1  0  0  0  0
  3  2  2  0  0  0  0
  4 10  1  6  0  0  0
  4  5  1  0  0  0  0
  4  3  1  0  0  0  0
  5 11  1  0  0  0  0
  5  6  1  0  0  0  0
  6  1  1  0  0  0  0
 12  5  1  0  0  0  0
 13  6  1  0  0  0  0
 14  6  1  0  0  0  0
 15 21  1  0  0  0  0
 15 20  1  0  0  0  0
 16 15  2  0  0  0  0
 17 16  1  0  0  0  0
 17 18  2  0  0  0  0
 18 19  1  0  0  0  0
 19 20  2  0  0  0  0
 19 23  1  0  0  0  0
 22 17  1  0  0  0  0
 24  4  1  0  0  0  0
 25 24  2  0  0  0  0
 26 25  1  0  0  0  0
 27 26  2  0  0  0  0
 27 28  1  0  0  0  0
 28 24  1  0  0  0  0
M  END
>  <minimizedAffinity>
-5.22761822

>  <minimizedRMSD>
0.724710822

$$$$
