
 OpenBabel03232520573D

 35 37  0  0  1  0  0  0  0  0999 V2000
   46.0760   33.6160   45.2700 C   0  0  2  0  0  0  0  0  0  0  0  0
   44.9660   34.7280   45.4960 C   0  0  0  0  0  0  0  0  0  0  0  0
   44.7330   35.6450   44.4100 C   0  0  0  0  0  0  0  0  0  0  0  0
   45.4760   35.5410   43.1710 C   0  0  1  0  0  0  0  0  0  0  0  0
   46.5470   34.5180   43.1240 C   0  0  0  0  0  0  0  0  0  0  0  0
   46.0510   33.2950   43.8800 C   0  0  0  0  0  0  0  0  0  0  0  0
   46.9350   34.2890   45.5770 H   0  0  0  0  0  0  0  0  0  0  0  0
   44.2950   34.9900   46.3070 H   0  0  0  0  0  0  0  0  0  0  0  0
   44.0150   36.4160   44.4710 H   0  0  0  0  0  0  0  0  0  0  0  0
   45.9310   36.5260   42.9310 H   0  0  0  0  0  0  0  0  0  0  0  0
   47.5010   34.8520   43.5770 H   0  0  0  0  0  0  0  0  0  0  0  0
   46.7650   34.2450   42.0730 H   0  0  0  0  0  0  0  0  0  0  0  0
   44.9340   33.2480   43.5680 H   0  0  0  0  0  0  0  0  0  0  0  0
   46.4800   32.4850   43.3700 H   0  0  0  0  0  0  0  0  0  0  0  0
   45.3340   32.9110   47.5240 C   0  0  0  0  0  0  0  0  0  0  0  0
   45.8480   32.6410   46.2880 C   0  0  0  0  0  0  0  0  0  0  0  0
   46.1000   31.2930   46.0290 C   0  0  0  0  0  0  0  0  0  0  0  0
   45.8520   30.3250   46.9310 N   0  0  0  0  0  0  0  0  0  0  0  0
   45.3350   30.6370   48.1670 C   0  0  0  0  0  0  0  0  0  0  0  0
   45.0870   31.9130   48.4410 N   0  0  0  0  0  0  0  0  0  0  0  0
   45.0990   29.6210   49.1360 N   0  0  0  0  0  0  0  0  0  0  0  0
   45.1060   33.8960   47.8330 H   0  0  0  0  0  0  0  0  0  0  0  0
   46.0060   29.1620   49.3960 H   0  0  0  0  0  0  0  0  0  0  0  0
   44.1690   29.3700   49.5270 H   0  0  0  0  0  0  0  0  0  0  0  0
   46.6880   30.6080   44.8870 C   0  0  0  0  0  0  0  0  0  0  0  0
   48.0630   30.5600   44.7080 C   0  0  0  0  0  3  0  0  0  0  0  0
   48.7400   30.0110   43.6390 C   0  0  0  0  0  3  0  0  0  0  0  0
   47.9640   29.4730   42.6830 N   0  0  0  0  0  0  0  0  0  0  0  0
   46.6280   29.4920   42.8060 C   0  0  0  0  0  0  0  0  0  0  0  0
   45.9510   29.0660   42.0500 H   0  0  0  0  0  0  0  0  0  0  0  0
   46.0120   30.0380   43.8660 N   0  0  0  0  0  0  0  0  0  0  0  0
   44.4580   35.2720   42.0360 C   0  0  0  0  0  0  0  0  0  0  0  0
   43.4100   34.4780   42.4350 F   0  0  0  0  0  0  0  0  0  0  0  0
   43.9180   36.5110   41.7010 F   0  0  0  0  0  0  0  0  0  0  0  0
   45.1230   34.8050   40.9110 F   0  0  0  0  0  0  0  0  0  0  0  0
  1  2  1  0  0  0  0
  1  7  1  1  0  0  0
  1 16  1  0  0  0  0
  2  8  1  0  0  0  0
  3  9  1  0  0  0  0
  3  2  2  0  0  0  0
  4 10  1  6  0  0  0
  4  3  1  0  0  0  0
  5  4  1  0  0  0  0
  5 11  1  0  0  0  0
  5  6  1  0  0  0  0
  6  1  1  0  0  0  0
 12  5  1  0  0  0  0
 13  6  1  0  0  0  0
 14  6  1  0  0  0  0
 15 22  1  0  0  0  0
 15 20  1  0  0  0  0
 16 15  2  0  0  0  0
 17 16  1  0  0  0  0
 17 18  2  0  0  0  0
 18 19  1  0  0  0  0
 19 20  2  0  0  0  0
 19 21  1  0  0  0  0
 21 23  1  0  0  0  0
 21 24  1  0  0  0  0
 25 17  1  0  0  0  0
 26 25  1  0  0  0  0
 27 26  2  0  0  0  0
 28 29  2  0  0  0  0
 28 27  1  0  0  0  0
 29 31  1  0  0  0  0
 30 29  1  0  0  0  0
 31 25  2  0  0  0  0
 32 33  1  0  0  0  0
 32  4  1  0  0  0  0
 34 32  1  0  0  0  0
 35 32  1  0  0  0  0
M  END
>  <minimizedAffinity>
-5.63607788

>  <minimizedRMSD>
0.288430184

$$$$
