
 OpenBabel03232520473D

 39 42  0  0  0  0  0  0  0  0999 V2000
   46.5640   34.4540   42.4780 C   0  0  0  0  0  0  0  0  0  0  0  0
   47.8740   34.8250   42.3570 C   0  0  0  0  0  0  0  0  0  0  0  0
   48.5330   34.8130   41.1250 C   0  0  0  0  0  0  0  0  0  0  0  0
   47.8380   34.4080   39.9660 C   0  0  0  0  0  0  0  0  0  0  0  0
   46.5310   34.0410   40.1100 C   0  0  0  0  0  0  0  0  0  0  0  0
   45.9130   34.0650   41.3430 C   0  0  0  0  0  0  0  0  0  0  0  0
   48.4900   35.1520   43.1930 H   0  0  0  0  0  0  0  0  0  0  0  0
   49.5700   35.1100   41.0480 H   0  0  0  0  0  0  0  0  0  0  0  0
   48.3150   34.3860   38.9970 H   0  0  0  0  0  0  0  0  0  0  0  0
   45.9670   33.7250   39.2500 H   0  0  0  0  0  0  0  0  0  0  0  0
   44.5510   33.6730   41.4300 N   0  0  0  0  0  0  0  0  0  0  0  0
   43.7200   34.6700   40.9860 C   0  0  0  0  0  0  0  0  0  0  0  0
   42.3410   34.5080   40.9810 C   0  0  0  0  0  0  0  0  0  0  0  0
   41.8430   33.3010   41.4410 C   0  0  0  0  0  0  0  0  0  0  0  0
   40.6020   33.0800   41.4660 O   0  0  0  0  0  0  0  0  0  0  0  0
   42.6830   32.3520   41.8670 N   0  0  0  0  0  0  0  0  0  0  0  0
   44.0160   32.5230   41.8660 C   0  0  0  0  0  0  0  0  0  0  0  0
   44.8700   31.6930   42.2450 O   0  0  0  0  0  0  0  0  0  0  0  0
   44.0420   35.6310   40.6160 H   0  0  0  0  0  0  0  0  0  0  0  0
   42.3420   31.4250   42.2220 H   0  0  0  0  0  0  0  0  0  0  0  0
   41.4160   35.5710   40.5060 C   0  0  0  0  0  0  0  0  0  0  0  0
   40.8220   35.1200   39.6720 H   0  0  0  0  0  0  0  0  0  0  0  0
   40.8160   36.0040   41.3070 H   0  0  0  0  0  0  0  0  0  0  0  0
   42.0390   36.3560   40.0040 H   0  0  0  0  0  0  0  0  0  0  0  0
   44.5210   35.3910   45.4990 C   0  0  0  0  0  0  0  0  0  0  0  0
   45.0340   35.4490   44.1990 C   0  0  0  0  0  0  0  0  0  0  0  0
   45.9590   34.4980   43.8020 C   0  0  0  0  0  0  0  0  0  0  0  0
   46.3250   33.5630   44.6850 N   0  0  0  0  0  0  0  0  0  0  0  0
   45.8220   33.5160   45.9420 C   0  0  0  0  0  0  0  0  0  0  0  0
   44.9260   34.4290   46.3380 N   0  0  0  0  0  0  0  0  0  0  0  0
   43.8050   36.1590   45.7430 H   0  0  0  0  0  0  0  0  0  0  0  0
   44.7380   36.2050   43.4880 H   0  0  0  0  0  0  0  0  0  0  0  0
   46.2880   32.4510   46.8280 C   0  0  0  0  0  0  0  0  0  0  0  0
   45.7010   31.2040   46.8010 C   0  0  0  0  0  3  0  0  0  0  0  0
   46.2340   30.2880   47.6870 C   0  0  0  0  0  3  0  0  0  0  0  0
   47.2510   30.5440   48.5340 N   0  0  0  0  0  0  0  0  0  0  0  0
   47.7950   31.7960   48.5170 C   0  0  0  0  0  0  0  0  0  0  0  0
   48.6130   32.1060   49.1550 H   0  0  0  0  0  0  0  0  0  0  0  0
   47.3060   32.7220   47.6690 N   0  0  0  0  0  0  0  0  0  0  0  0
  1 27  1  0  0  0  0
  2  1  1  0  0  0  0
  2  7  1  0  0  0  0
  3  2  2  0  0  0  0
  4  5  2  0  0  0  0
  4  3  1  0  0  0  0
  5  6  1  0  0  0  0
  6 11  1  0  0  0  0
  6  1  2  0  0  0  0
  8  3  1  0  0  0  0
  9  4  1  0  0  0  0
 10  5  1  0  0  0  0
 11 17  1  0  0  0  0
 12 11  1  0  0  0  0
 13 12  2  0  0  0  0
 13 14  1  0  0  0  0
 14 15  2  0  0  0  0
 14 16  1  0  0  0  0
 16 20  1  0  0  0  0
 17 16  1  0  0  0  0
 17 18  2  0  0  0  0
 19 12  1  0  0  0  0
 21 13  1  0  0  0  0
 21 23  1  0  0  0  0
 22 21  1  0  0  0  0
 24 21  1  0  0  0  0
 25 31  1  0  0  0  0
 25 30  1  0  0  0  0
 26 25  2  0  0  0  0
 27 26  1  0  0  0  0
 27 28  2  0  0  0  0
 28 29  1  0  0  0  0
 29 30  2  0  0  0  0
 29 33  1  0  0  0  0
 32 26  1  0  0  0  0
 33 39  1  0  0  0  0
 34 33  2  0  0  0  0
 34 35  1  0  0  0  0
 35 36  2  0  0  0  0
 37 36  1  0  0  0  0
 37 38  1  0  0  0  0
 39 37  2  0  0  0  0
M  END
>  <minimizedAffinity>
-7.2716651

>  <minimizedRMSD>
0.672582209

$$$$
