REMARK  Name = 
REMARK  3 active torsions:
REMARK  status: ('A' for Active; 'I' for Inactive)
REMARK    1  A    between atoms: C_1  and  C_8
REMARK    2  A    between atoms: C_4  and  C_14
REMARK    3  A    between atoms: C_9  and  C_29
REMARK                            x       y       z     vdW  Elec       q    Type
REMARK                         _______ _______ _______ _____ _____    ______ ____
ROOT
ATOM      1  C   UNL     1      46.128  33.649  45.317  0.00  0.00    +0.000 C 
ATOM      2  C   UNL     1      44.944  34.694  45.478  0.00  0.00    +0.000 C 
ATOM      3  C   UNL     1      44.711  35.588  44.373  0.00  0.00    +0.000 C 
ATOM      4  C   UNL     1      45.518  35.521  43.173  0.00  0.00    +0.000 C 
ATOM      5  C   UNL     1      46.649  34.563  43.188  0.00  0.00    +0.000 C 
ATOM      6  C   UNL     1      46.190  33.318  43.931  0.00  0.00    +0.000 C 
ATOM      7  H   UNL     1      46.929  34.374  45.659  0.00  0.00    +0.000 HD
ATOM      8  H   UNL     1      44.220  34.921  46.253  0.00  0.00    +0.000 HD
ATOM      9  H   UNL     1      43.946  36.315  44.392  0.00  0.00    +0.000 HD
ATOM     10  H   UNL     1      45.925  36.529  42.946  0.00  0.00    +0.000 HD
ATOM     11  H   UNL     1      47.558  34.956  43.683  0.00  0.00    +0.000 HD
ATOM     12  H   UNL     1      46.934  34.296  42.151  0.00  0.00    +0.000 HD
ATOM     13  H   UNL     1      45.095  33.202  43.565  0.00  0.00    +0.000 HD
ATOM     14  H   UNL     1      46.691  32.531  43.450  0.00  0.00    +0.000 HD
ENDROOT
BRANCH   1  16
ATOM     15  C   UNL     1      45.295  32.910  47.528  0.00  0.00    +0.000 A 
ATOM     16  C   UNL     1      45.909  32.669  46.332  0.00  0.00    +0.000 A 
ATOM     17  C   UNL     1      46.280  31.342  46.110  0.00  0.00    +0.000 A 
ATOM     18  N   UNL     1      46.048  30.367  47.008  0.00  0.00    +0.000 NA
ATOM     19  C   UNL     1      45.428  30.649  48.203  0.00  0.00    +0.000 A 
ATOM     20  N   UNL     1      45.065  31.905  48.441  0.00  0.00    +0.000 NA
ATOM     21  N   UNL     1      45.207  29.627  49.169  0.00  0.00    +0.000 N 
ATOM     22  H   UNL     1      44.972  33.877  47.807  0.00  0.00    +0.000 HD
ATOM     23  H   UNL     1      46.127  29.242  49.494  0.00  0.00    +0.000 HD
ATOM     24  H   UNL     1      44.275  29.309  49.502  0.00  0.00    +0.000 HD
BRANCH  17  25
ATOM     25  C   UNL     1      46.993  30.694  45.019  0.00  0.00    +0.000 A 
ATOM     26  C   UNL     1      48.379  30.653  44.992  0.00  0.00    +0.000 A 
ATOM     27  C   UNL     1      49.172  30.139  43.986  0.00  0.00    +0.000 A 
ATOM     28  N   UNL     1      48.509  29.630  42.935  0.00  0.00    +0.000 NA
ATOM     29  C   UNL     1      47.168  29.644  42.910  0.00  0.00    +0.000 A 
ATOM     30  H   UNL     1      46.580  29.240  42.072  0.00  0.00    +0.000 HD
ATOM     31  N   UNL     1      46.436  30.155  43.912  0.00  0.00    +0.000 NA
ENDBRANCH  17  25
ENDBRANCH   1  16
BRANCH   4  32
ATOM     32  C   UNL     1      44.575  35.184  41.992  0.00  0.00    +0.000 C 
ATOM     33  F   UNL     1      43.582  34.298  42.337  0.00  0.00    +0.000 F 
ATOM     34  F   UNL     1      43.946  36.378  41.649  0.00  0.00    +0.000 F 
ATOM     35  F   UNL     1      45.324  34.791  40.892  0.00  0.00    +0.000 F 
ENDBRANCH   4  32
TORSDOF 3
