
 OpenBabel03232521013D

 45 49  0  0  1  0  0  0  0  0999 V2000
   45.3370   32.9510   47.4970 C   0  0  0  0  0  0  0  0  0  0  0  0
   45.8860   32.6630   46.2880 C   0  0  0  0  0  0  0  0  0  0  0  0
   46.1470   31.3040   46.0750 C   0  0  0  0  0  0  0  0  0  0  0  0
   45.8790   30.3330   46.9840 N   0  0  0  0  0  0  0  0  0  0  0  0
   45.3180   30.6750   48.2040 C   0  0  0  0  0  0  0  0  0  0  0  0
   45.0610   31.9690   48.4300 N   0  0  0  0  0  0  0  0  0  0  0  0
   45.0340   29.6880   49.1710 N   0  0  0  0  0  0  0  0  0  0  0  0
   45.1010   33.9690   47.7650 H   0  0  0  0  0  0  0  0  0  0  0  0
   45.5640   29.5770   50.0820 H   0  0  0  0  0  0  0  0  0  0  0  0
   44.2480   29.0390   48.9500 H   0  0  0  0  0  0  0  0  0  0  0  0
   46.1320   33.5890   45.2340 C   0  0  2  0  0  0  0  0  0  0  0  0
   44.9550   34.7170   45.4750 C   0  0  0  0  0  0  0  0  0  0  0  0
   44.7240   35.6330   44.3930 C   0  0  0  0  0  0  0  0  0  0  0  0
   45.4960   35.5170   43.1500 C   0  0  1  0  0  0  0  0  0  0  0  0
   46.5210   34.4830   43.0940 C   0  0  0  0  0  0  0  0  0  0  0  0
   46.0540   33.2790   43.8790 C   0  0  0  0  0  0  0  0  0  0  0  0
   46.9550   34.3020   45.5320 H   0  0  0  0  0  0  0  0  0  0  0  0
   44.3030   34.8980   46.3210 H   0  0  0  0  0  0  0  0  0  0  0  0
   43.9780   36.3760   44.5080 H   0  0  0  0  0  0  0  0  0  0  0  0
   45.9510   36.5050   42.9150 H   0  0  0  0  0  0  0  0  0  0  0  0
   46.7350   34.2440   42.0140 H   0  0  0  0  0  0  0  0  0  0  0  0
   47.4990   34.8120   43.5050 H   0  0  0  0  0  0  0  0  0  0  0  0
   46.8730   32.5950   43.5320 H   0  0  0  0  0  0  0  0  0  0  0  0
   45.0880   32.9410   43.4500 H   0  0  0  0  0  0  0  0  0  0  0  0
   44.4420   35.2630   42.0310 C   0  0  0  0  0  0  0  0  0  0  0  0
   43.3960   34.4620   42.4520 F   0  0  0  0  0  0  0  0  0  0  0  0
   43.8930   36.5040   41.7210 F   0  0  0  0  0  0  0  0  0  0  0  0
   45.0800   34.8070   40.8920 F   0  0  0  0  0  0  0  0  0  0  0  0
   46.7790   30.5840   44.9860 C   0  0  0  0  0  0  0  0  0  0  0  0
   46.4340   29.7420   43.9780 C   0  0  0  0  0  0  0  0  0  0  0  0
   47.6100   29.3790   43.2950 C   0  0  0  0  0  0  0  0  0  0  0  0
   48.5980   30.0180   43.9200 N   0  0  0  0  0  0  0  0  0  0  0  0
   48.1390   30.7340   44.9190 N   0  0  0  0  0  0  0  0  0  0  0  0
   45.3900   29.5010   43.8690 H   0  0  0  0  0  0  0  0  0  0  0  0
   47.5720   28.7210   42.4640 H   0  0  0  0  0  0  0  0  0  0  0  0
   49.9850   29.9110   43.5190 C   0  0  0  0  0  0  0  0  0  0  0  0
   50.1950   30.4590   42.2500 C   0  0  0  0  0  3  0  0  0  0  0  0
   51.5130   30.3970   41.7840 C   0  0  0  0  0  3  0  0  0  0  0  0
   52.5650   29.8310   42.5140 C   0  0  0  0  0  3  0  0  0  0  0  0
   52.2710   29.3150   43.7510 C   0  0  0  0  0  0  0  0  0  0  0  0
   53.2850   28.7450   44.5080 C   0  0  0  0  0  3  0  0  0  0  0  0
   52.9510   28.2390   45.7410 C   0  0  0  0  0  3  0  0  0  0  0  0
   51.6510   28.2760   46.2560 C   0  0  0  0  0  3  0  0  0  0  0  0
   50.6300   28.8500   45.4920 C   0  0  0  0  0  3  0  0  0  0  0  0
   50.9910   29.3530   44.2550 C   0  0  0  0  0  0  0  0  0  0  0  0
  1  8  1  0  0  0  0
  1  6  1  0  0  0  0
  2  1  2  0  0  0  0
  3  2  1  0  0  0  0
  3  4  2  0  0  0  0
  4  5  1  0  0  0  0
  5  6  2  0  0  0  0
  5  7  1  0  0  0  0
  7  9  1  0  0  0  0
 10  7  1  0  0  0  0
 11 12  1  0  0  0  0
 11 17  1  1  0  0  0
 11  2  1  0  0  0  0
 12 18  1  0  0  0  0
 13 19  1  0  0  0  0
 13 12  2  0  0  0  0
 14 20  1  6  0  0  0
 14 13  1  0  0  0  0
 15 14  1  0  0  0  0
 15 22  1  0  0  0  0
 15 16  1  0  0  0  0
 16 11  1  0  0  0  0
 21 15  1  0  0  0  0
 23 16  1  0  0  0  0
 24 16  1  0  0  0  0
 25 26  1  0  0  0  0
 25 14  1  0  0  0  0
 27 25  1  0  0  0  0
 28 25  1  0  0  0  0
 29  3  1  0  0  0  0
 30 29  1  0  0  0  0
 31 32  1  0  0  0  0
 31 30  2  0  0  0  0
 32 33  1  0  0  0  0
 33 29  2  0  0  0  0
 34 30  1  0  0  0  0
 35 31  1  0  0  0  0
 36 32  1  0  0  0  0
 36 45  1  0  0  0  0
 37 36  2  0  0  0  0
 38 37  1  0  0  0  0
 38 39  2  0  0  0  0
 39 40  1  0  0  0  0
 40 45  2  0  0  0  0
 40 41  1  0  0  0  0
 41 42  2  0  0  0  0
 42 43  1  0  0  0  0
 44 43  2  0  0  0  0
 45 44  1  0  0  0  0
M  END
>  <minimizedAffinity>
-6.15252542

>  <minimizedRMSD>
0.389084101

$$$$
