
 OpenBabel03232519503D

 41 44  0  0  1  0  0  0  0  0999 V2000
   46.7210   34.0530   42.6610 N   0  0  0  0  0  0  0  0  0  0  0  0
   48.0380   34.5090   42.2290 C   0  0  0  0  0  0  0  0  0  0  0  0
   47.7480   34.8340   40.7810 C   0  0  0  0  0  0  0  0  0  0  0  0
   47.0400   33.5730   40.3560 C   0  0  0  0  0  0  0  0  0  0  0  0
   46.1880   33.2600   41.5420 C   0  0  2  0  0  0  0  0  0  0  0  0
   48.7330   33.6510   42.2550 H   0  0  0  0  0  0  0  0  0  0  0  0
   48.3720   35.3710   42.8140 H   0  0  0  0  0  0  0  0  0  0  0  0
   47.0650   35.6780   40.7050 H   0  0  0  0  0  0  0  0  0  0  0  0
   48.6630   35.0250   40.1970 H   0  0  0  0  0  0  0  0  0  0  0  0
   47.7970   32.8170   40.1020 H   0  0  0  0  0  0  0  0  0  0  0  0
   46.4020   33.8380   39.4850 H   0  0  0  0  0  0  0  0  0  0  0  0
   46.4700   32.2130   41.8240 H   0  0  0  0  0  0  0  0  0  0  0  0
   44.7910   33.3700   41.3660 N   0  0  0  0  0  0  0  0  0  0  0  0
   44.1240   34.2870   40.6580 C   0  0  0  0  0  0  0  0  0  0  0  0
   42.7430   34.3030   40.5510 C   0  0  0  0  0  0  0  0  0  0  0  0
   41.9930   33.3350   41.1990 C   0  0  0  0  0  0  0  0  0  0  0  0
   40.7230   33.3000   41.1360 O   0  0  0  0  0  0  0  0  0  0  0  0
   42.6660   32.4220   41.9030 N   0  0  0  0  0  0  0  0  0  0  0  0
   43.9920   32.4460   41.9770 C   0  0  0  0  0  0  0  0  0  0  0  0
   44.5310   31.5300   42.6750 O   0  0  0  0  0  0  0  0  0  0  0  0
   44.7230   35.0390   40.1570 H   0  0  0  0  0  0  0  0  0  0  0  0
   42.1100   31.6860   42.3960 H   0  0  0  0  0  0  0  0  0  0  0  0
   42.0340   35.3290   39.7620 C   0  0  0  0  0  0  0  0  0  0  0  0
   41.1170   34.8660   39.3260 H   0  0  0  0  0  0  0  0  0  0  0  0
   41.6600   36.0780   40.4970 H   0  0  0  0  0  0  0  0  0  0  0  0
   42.6700   35.8430   39.0290 H   0  0  0  0  0  0  0  0  0  0  0  0
   44.5400   35.5290   45.2680 C   0  0  0  0  0  0  0  0  0  0  0  0
   45.1750   35.3550   44.0310 C   0  0  0  0  0  0  0  0  0  0  0  0
   46.0600   34.2830   43.8580 C   0  0  0  0  0  0  0  0  0  0  0  0
   46.2470   33.4630   44.9280 N   0  0  0  0  0  0  0  0  0  0  0  0
   45.6320   33.6350   46.1200 C   0  0  0  0  0  0  0  0  0  0  0  0
   44.7820   34.6690   46.2790 N   0  0  0  0  0  0  0  0  0  0  0  0
   43.8530   36.3360   45.4520 H   0  0  0  0  0  0  0  0  0  0  0  0
   44.9850   36.0360   43.2280 H   0  0  0  0  0  0  0  0  0  0  0  0
   45.8790   32.7140   47.2300 C   0  0  0  0  0  0  0  0  0  0  0  0
   47.1820   32.3900   47.5560 C   0  0  0  0  0  0  0  0  0  0  0  0
   47.3120   31.5120   48.6230 C   0  0  0  0  0  0  0  0  0  0  0  0
   46.2700   30.9910   49.3130 N   0  0  0  0  0  0  0  0  0  0  0  0
   45.0230   31.3430   48.9510 C   0  0  0  0  0  0  0  0  0  0  0  0
   44.0870   31.0250   49.3920 H   0  0  0  0  0  0  0  0  0  0  0  0
   44.8400   32.2010   47.9150 N   0  0  0  0  0  0  0  0  0  0  0  0
  1 29  1  0  0  0  0
  2  6  1  0  0  0  0
  2  1  1  0  0  0  0
  2  7  1  0  0  0  0
  3  2  1  0  0  0  0
  4  3  1  0  0  0  0
  4  5  1  0  0  0  0
  5 12  1  1  0  0  0
  5  1  1  0  0  0  0
  8  3  1  0  0  0  0
  9  3  1  0  0  0  0
 10  4  1  0  0  0  0
 11  4  1  0  0  0  0
 13  5  1  0  0  0  0
 13 19  1  0  0  0  0
 14 13  1  0  0  0  0
 15 14  2  0  0  0  0
 15 16  1  0  0  0  0
 16 18  1  0  0  0  0
 17 16  2  0  0  0  0
 18 19  1  0  0  0  0
 18 22  1  0  0  0  0
 19 20  2  0  0  0  0
 21 14  1  0  0  0  0
 23 25  1  0  0  0  0
 23 15  1  0  0  0  0
 24 23  1  0  0  0  0
 26 23  1  0  0  0  0
 27 33  1  0  0  0  0
 27 32  1  0  0  0  0
 28 27  2  0  0  0  0
 29 28  1  0  0  0  0
 29 30  2  0  0  0  0
 30 31  1  0  0  0  0
 31 32  2  0  0  0  0
 31 35  1  0  0  0  0
 34 28  1  0  0  0  0
 35 36  2  0  0  0  0
 35 41  1  0  0  0  0
 36 37  1  0  0  0  0
 37 38  2  0  0  0  0
 39 38  1  0  0  0  0
 39 40  1  0  0  0  0
 41 39  2  0  0  0  0
M  END
>  <minimizedAffinity>
-6.8568511

>  <minimizedRMSD>
0.977590144

$$$$
