
 OpenBabel03232521013D

 45 49  0  0  1  0  0  0  0  0999 V2000
   45.3620   32.9610   47.4930 C   0  0  0  0  0  0  0  0  0  0  0  0
   45.8950   32.6590   46.2810 C   0  0  0  0  0  0  0  0  0  0  0  0
   46.1400   31.2960   46.0750 C   0  0  0  0  0  0  0  0  0  0  0  0
   45.8710   30.3340   46.9940 N   0  0  0  0  0  0  0  0  0  0  0  0
   45.3260   30.6910   48.2160 C   0  0  0  0  0  0  0  0  0  0  0  0
   45.0850   31.9880   48.4360 N   0  0  0  0  0  0  0  0  0  0  0  0
   45.0420   29.7140   49.1930 N   0  0  0  0  0  0  0  0  0  0  0  0
   45.1390   33.9830   47.7560 H   0  0  0  0  0  0  0  0  0  0  0  0
   45.5790   29.6040   50.1000 H   0  0  0  0  0  0  0  0  0  0  0  0
   44.2460   29.0710   48.9840 H   0  0  0  0  0  0  0  0  0  0  0  0
   46.1400   33.5750   45.2170 C   0  0  2  0  0  0  0  0  0  0  0  0
   44.9760   34.7150   45.4600 C   0  0  0  0  0  0  0  0  0  0  0  0
   44.7430   35.6250   44.3730 C   0  0  0  0  0  0  0  0  0  0  0  0
   45.5030   35.4930   43.1250 C   0  0  1  0  0  0  0  0  0  0  0  0
   46.5190   34.4500   43.0680 C   0  0  0  0  0  0  0  0  0  0  0  0
   46.0480   33.2560   43.8650 C   0  0  0  0  0  0  0  0  0  0  0  0
   46.9720   34.2840   45.5030 H   0  0  0  0  0  0  0  0  0  0  0  0
   44.3320   34.9080   46.3100 H   0  0  0  0  0  0  0  0  0  0  0  0
   44.0040   36.3750   44.4890 H   0  0  0  0  0  0  0  0  0  0  0  0
   45.9650   36.4750   42.8780 H   0  0  0  0  0  0  0  0  0  0  0  0
   46.7220   34.2010   41.9880 H   0  0  0  0  0  0  0  0  0  0  0  0
   47.5030   34.7740   43.4680 H   0  0  0  0  0  0  0  0  0  0  0  0
   46.8580   32.5620   43.5170 H   0  0  0  0  0  0  0  0  0  0  0  0
   45.0760   32.9230   43.4470 H   0  0  0  0  0  0  0  0  0  0  0  0
   44.4380   35.2400   42.0170 C   0  0  0  0  0  0  0  0  0  0  0  0
   43.3950   34.4420   42.4490 F   0  0  0  0  0  0  0  0  0  0  0  0
   43.8880   36.4820   41.7100 F   0  0  0  0  0  0  0  0  0  0  0  0
   45.0640   34.7810   40.8720 F   0  0  0  0  0  0  0  0  0  0  0  0
   46.7550   30.5620   44.9850 C   0  0  0  0  0  0  0  0  0  0  0  0
   46.3950   29.6920   44.0050 C   0  0  0  0  0  0  0  0  0  0  0  0
   47.5590   29.3330   43.2990 C   0  0  0  0  0  0  0  0  0  0  0  0
   48.5520   30.0020   43.8820 N   0  0  0  0  0  0  0  0  0  0  0  0
   48.1090   30.7320   44.8770 N   0  0  0  0  0  0  0  0  0  0  0  0
   45.3530   29.4320   43.9310 H   0  0  0  0  0  0  0  0  0  0  0  0
   47.5090   28.6560   42.4830 H   0  0  0  0  0  0  0  0  0  0  0  0
   49.9300   29.9080   43.4440 C   0  0  0  0  0  0  0  0  0  0  0  0
   50.6940   29.1320   44.3210 C   0  0  0  0  0  3  0  0  0  0  0  0
   52.0410   28.9900   43.9700 C   0  0  0  0  0  3  0  0  0  0  0  0
   52.6090   29.5720   42.8300 C   0  0  0  0  0  3  0  0  0  0  0  0
   51.7880   30.3180   42.0230 C   0  0  0  0  0  0  0  0  0  0  0  0
   52.3100   30.9120   40.8830 C   0  0  0  0  0  3  0  0  0  0  0  0
   51.4550   31.6510   40.1030 C   0  0  0  0  0  3  0  0  0  0  0  0
   50.1010   31.8270   40.4060 C   0  0  0  0  0  3  0  0  0  0  0  0
   49.5750   31.2270   41.5550 C   0  0  0  0  0  3  0  0  0  0  0  0
   50.4550   30.4880   42.3250 C   0  0  0  0  0  0  0  0  0  0  0  0
  1  8  1  0  0  0  0
  1  6  1  0  0  0  0
  2  1  2  0  0  0  0
  3  2  1  0  0  0  0
  3  4  2  0  0  0  0
  4  5  1  0  0  0  0
  5  6  2  0  0  0  0
  5  7  1  0  0  0  0
  7  9  1  0  0  0  0
 10  7  1  0  0  0  0
 11 12  1  0  0  0  0
 11 17  1  1  0  0  0
 11  2  1  0  0  0  0
 12 18  1  0  0  0  0
 13 19  1  0  0  0  0
 13 12  2  0  0  0  0
 14 20  1  6  0  0  0
 14 13  1  0  0  0  0
 15 14  1  0  0  0  0
 15 22  1  0  0  0  0
 15 16  1  0  0  0  0
 16 11  1  0  0  0  0
 21 15  1  0  0  0  0
 23 16  1  0  0  0  0
 24 16  1  0  0  0  0
 25 26  1  0  0  0  0
 25 14  1  0  0  0  0
 27 25  1  0  0  0  0
 28 25  1  0  0  0  0
 29  3  1  0  0  0  0
 30 29  1  0  0  0  0
 31 32  1  0  0  0  0
 31 30  2  0  0  0  0
 32 33  1  0  0  0  0
 33 29  2  0  0  0  0
 34 30  1  0  0  0  0
 35 31  1  0  0  0  0
 36 32  1  0  0  0  0
 36 37  1  0  0  0  0
 38 37  2  0  0  0  0
 39 38  1  0  0  0  0
 40 45  1  0  0  0  0
 40 39  2  0  0  0  0
 41 40  1  0  0  0  0
 42 43  1  0  0  0  0
 42 41  2  0  0  0  0
 43 44  2  0  0  0  0
 44 45  1  0  0  0  0
 45 36  2  0  0  0  0
M  END
>  <minimizedAffinity>
-6.48186016

>  <minimizedRMSD>
1.49140441

$$$$
