
 OpenBabel03232520463D

 39 42  0  0  0  0  0  0  0  0999 V2000
   46.4650   34.6210   42.2100 C   0  0  0  0  0  0  0  0  0  0  0  0
   47.7670   34.9920   42.0680 C   0  0  0  0  0  0  0  0  0  0  0  0
   48.4590   34.8510   40.8620 C   0  0  0  0  0  0  0  0  0  0  0  0
   47.7960   34.3060   39.7480 C   0  0  0  0  0  0  0  0  0  0  0  0
   46.4850   33.9330   39.8930 C   0  0  0  0  0  0  0  0  0  0  0  0
   45.8450   34.0960   41.1130 C   0  0  0  0  0  0  0  0  0  0  0  0
   48.3700   35.4210   42.8580 H   0  0  0  0  0  0  0  0  0  0  0  0
   49.4980   35.1490   40.7520 H   0  0  0  0  0  0  0  0  0  0  0  0
   48.2720   34.1680   38.7810 H   0  0  0  0  0  0  0  0  0  0  0  0
   45.9520   33.5100   39.0450 H   0  0  0  0  0  0  0  0  0  0  0  0
   44.4870   33.6950   41.2150 N   0  0  0  0  0  0  0  0  0  0  0  0
   43.6480   34.6450   40.6900 C   0  0  0  0  0  0  0  0  0  0  0  0
   42.2710   34.4630   40.6850 C   0  0  0  0  0  0  0  0  0  0  0  0
   41.7830   33.2900   41.2270 C   0  0  0  0  0  0  0  0  0  0  0  0
   40.5470   33.0510   41.2580 O   0  0  0  0  0  0  0  0  0  0  0  0
   42.6290   32.3860   41.7300 N   0  0  0  0  0  0  0  0  0  0  0  0
   43.9610   32.5720   41.7310 C   0  0  0  0  0  0  0  0  0  0  0  0
   44.8240   31.7840   42.1770 O   0  0  0  0  0  0  0  0  0  0  0  0
   43.9650   35.5800   40.2530 H   0  0  0  0  0  0  0  0  0  0  0  0
   42.3320   31.4750   42.1570 H   0  0  0  0  0  0  0  0  0  0  0  0
   41.3350   35.4760   40.1220 C   0  0  0  0  0  0  0  0  0  0  0  0
   40.6790   35.9280   40.8930 H   0  0  0  0  0  0  0  0  0  0  0  0
   40.6480   34.9120   39.4280 H   0  0  0  0  0  0  0  0  0  0  0  0
   41.8810   36.1940   39.4970 H   0  0  0  0  0  0  0  0  0  0  0  0
   44.4240   35.9150   45.0920 C   0  0  0  0  0  0  0  0  0  0  0  0
   44.9690   35.8450   43.8070 C   0  0  0  0  0  0  0  0  0  0  0  0
   45.8360   34.8070   43.4990 C   0  0  0  0  0  0  0  0  0  0  0  0
   46.1040   33.9150   44.4710 N   0  0  0  0  0  0  0  0  0  0  0  0
   45.5640   34.0060   45.7070 C   0  0  0  0  0  0  0  0  0  0  0  0
   44.7280   35.0070   46.0050 N   0  0  0  0  0  0  0  0  0  0  0  0
   43.7460   36.7340   45.3210 H   0  0  0  0  0  0  0  0  0  0  0  0
   44.7590   36.5560   43.0200 H   0  0  0  0  0  0  0  0  0  0  0  0
   45.9050   32.9970   46.7090 C   0  0  0  0  0  0  0  0  0  0  0  0
   45.0770   32.8240   47.8030 C   0  0  0  0  0  0  0  0  0  0  0  0
   45.4120   31.8670   48.7430 C   0  0  0  0  0  0  0  0  0  0  0  0
   46.5590   31.1220   48.5540 C   0  0  0  0  0  0  0  0  0  0  0  0
   46.8410   30.3600   49.2860 H   0  0  0  0  0  0  0  0  0  0  0  0
   47.3880   31.3060   47.4440 C   0  0  0  0  0  0  0  0  0  0  0  0
   47.0170   32.2530   46.5560 N   0  0  0  0  0  0  0  0  0  0  0  0
  1 27  1  0  0  0  0
  2  1  1  0  0  0  0
  2  7  1  0  0  0  0
  3  2  2  0  0  0  0
  4  5  2  0  0  0  0
  4  3  1  0  0  0  0
  5  6  1  0  0  0  0
  6 11  1  0  0  0  0
  6  1  2  0  0  0  0
  8  3  1  0  0  0  0
  9  4  1  0  0  0  0
 10  5  1  0  0  0  0
 11 17  1  0  0  0  0
 12 11  1  0  0  0  0
 13 12  2  0  0  0  0
 13 14  1  0  0  0  0
 14 15  2  0  0  0  0
 14 16  1  0  0  0  0
 16 17  1  0  0  0  0
 16 20  1  0  0  0  0
 17 18  2  0  0  0  0
 19 12  1  0  0  0  0
 21 13  1  0  0  0  0
 21 22  1  0  0  0  0
 23 21  1  0  0  0  0
 24 21  1  0  0  0  0
 25 31  1  0  0  0  0
 25 30  1  0  0  0  0
 26 25  2  0  0  0  0
 27 26  1  0  0  0  0
 27 28  2  0  0  0  0
 28 29  1  0  0  0  0
 29 30  2  0  0  0  0
 29 33  1  0  0  0  0
 32 26  1  0  0  0  0
 33 34  1  0  0  0  0
 34 35  2  0  0  0  0
 36 35  1  0  0  0  0
 36 37  1  0  0  0  0
 38 36  2  0  0  0  0
 39 33  2  0  0  0  0
 39 38  1  0  0  0  0
M  END
>  <minimizedAffinity>
-7.78698778

>  <minimizedRMSD>
0.299266309

$$$$
