
 OpenBabel03232520533D

 33 35  0  0  1  0  0  0  0  0999 V2000
   46.6440   32.7180   45.0180 C   0  0  2  0  0  0  0  0  0  0  0  0
   45.5160   33.6200   45.4920 C   0  0  0  0  0  0  0  0  0  0  0  0
   45.2160   34.7780   44.6840 C   0  0  0  0  0  0  0  0  0  0  0  0
   45.9680   35.0570   43.4750 C   0  0  1  0  0  0  0  0  0  0  0  0
   47.0810   34.1490   43.1450 C   0  0  0  0  0  0  0  0  0  0  0  0
   46.7440   32.7380   43.5330 C   0  0  0  0  0  0  0  0  0  0  0  0
   47.5590   33.2070   45.4540 H   0  0  0  0  0  0  0  0  0  0  0  0
   44.8250   33.6360   46.3240 H   0  0  0  0  0  0  0  0  0  0  0  0
   44.4290   35.4730   44.9480 H   0  0  0  0  0  0  0  0  0  0  0  0
   46.3780   36.0890   43.5370 H   0  0  0  0  0  0  0  0  0  0  0  0
   47.2280   34.1510   42.0360 H   0  0  0  0  0  0  0  0  0  0  0  0
   48.0500   34.3900   43.6590 H   0  0  0  0  0  0  0  0  0  0  0  0
   45.8180   32.4540   43.0300 H   0  0  0  0  0  0  0  0  0  0  0  0
   47.6090   32.1010   43.2550 H   0  0  0  0  0  0  0  0  0  0  0  0
   45.7850   31.2670   46.8090 C   0  0  0  0  0  0  0  0  0  0  0  0
   46.5000   31.4110   45.6350 C   0  0  0  0  0  0  0  0  0  0  0  0
   47.0700   30.2500   45.1020 C   0  0  0  0  0  0  0  0  0  0  0  0
   46.9150   29.0650   45.7210 N   0  0  0  0  0  0  0  0  0  0  0  0
   46.2020   28.9530   46.8810 C   0  0  0  0  0  0  0  0  0  0  0  0
   45.6420   30.0760   47.4100 N   0  0  0  0  0  0  0  0  0  0  0  0
   45.2890   32.0610   47.3460 H   0  0  0  0  0  0  0  0  0  0  0  0
   47.6330   30.2850   44.2040 H   0  0  0  0  0  0  0  0  0  0  0  0
   46.0260   27.6750   47.5640 C   0  0  0  0  0  0  0  0  0  0  0  0
   44.7750   27.4240   48.1220 C   0  0  0  0  0  0  0  0  0  0  0  0
   44.5280   26.2360   48.7860 C   0  0  0  0  0  0  0  0  0  0  0  0
   45.5790   25.3420   48.8540 C   0  0  0  0  0  0  0  0  0  0  0  0
   45.4750   24.3750   49.3600 H   0  0  0  0  0  0  0  0  0  0  0  0
   46.8360   25.5810   48.3000 C   0  0  0  0  0  0  0  0  0  0  0  0
   47.0190   26.7660   47.6590 N   0  0  0  0  0  0  0  0  0  0  0  0
   44.9740   35.0830   42.3050 C   0  0  0  0  0  0  0  0  0  0  0  0
   43.8990   34.2450   42.4990 F   0  0  0  0  0  0  0  0  0  0  0  0
   44.4420   36.3790   42.2330 F   0  0  0  0  0  0  0  0  0  0  0  0
   45.6350   34.8420   41.1160 F   0  0  0  0  0  0  0  0  0  0  0  0
  1  7  1  1  0  0  0
  1  2  1  0  0  0  0
  1 16  1  0  0  0  0
  2  8  1  0  0  0  0
  3  9  1  0  0  0  0
  3  2  2  0  0  0  0
  4 10  1  1  0  0  0
  4  3  1  0  0  0  0
  5  4  1  0  0  0  0
  5  6  1  0  0  0  0
  5 12  1  0  0  0  0
  6  1  1  0  0  0  0
 11  5  1  0  0  0  0
 13  6  1  0  0  0  0
 14  6  1  0  0  0  0
 15 21  1  0  0  0  0
 15 20  1  0  0  0  0
 16 15  2  0  0  0  0
 17 16  1  0  0  0  0
 17 18  2  0  0  0  0
 18 19  1  0  0  0  0
 19 20  2  0  0  0  0
 19 23  1  0  0  0  0
 22 17  1  0  0  0  0
 23 29  2  0  0  0  0
 23 24  1  0  0  0  0
 24 25  2  0  0  0  0
 25 26  1  0  0  0  0
 26 27  1  0  0  0  0
 28 26  2  0  0  0  0
 29 28  1  0  0  0  0
 30 31  1  0  0  0  0
 30  4  1  0  0  0  0
 32 30  1  0  0  0  0
 33 30  1  0  0  0  0
M  END
>  <minimizedAffinity>
-4.99432516

>  <minimizedRMSD>
2.09432864

$$$$
