
 OpenBabel03232519253D

 22 23  0  0  0  0  0  0  0  0999 V2000
   46.9030   34.5150   41.7750 C   0  0  0  0  0  0  0  0  0  0  0  0
   46.2810   34.6330   40.8820 H   0  0  0  0  0  0  0  0  0  0  0  0
   47.3130   33.4630   41.8350 H   0  0  0  0  0  0  0  0  0  0  0  0
   45.3770   35.9240   43.0650 C   0  0  0  0  0  0  0  0  0  0  0  0
   46.1610   34.7680   42.9820 C   0  0  0  0  0  0  0  0  0  0  0  0
   46.1730   33.9160   44.0790 C   0  0  0  0  0  0  0  0  0  0  0  0
   45.4190   34.2530   45.1740 N   0  0  0  0  0  0  0  0  0  0  0  0
   44.6710   35.3830   45.2170 C   0  0  0  0  0  0  0  0  0  0  0  0
   44.6510   36.2070   44.1730 N   0  0  0  0  0  0  0  0  0  0  0  0
   45.3420   36.6170   42.2250 H   0  0  0  0  0  0  0  0  0  0  0  0
   46.7660   33.0070   44.0650 H   0  0  0  0  0  0  0  0  0  0  0  0
   44.0850   35.6310   46.0850 H   0  0  0  0  0  0  0  0  0  0  0  0
   48.1230   35.4200   41.7510 C   0  0  0  0  0  0  0  0  0  0  0  0
   48.0790   36.1960   42.5290 H   0  0  0  0  0  0  0  0  0  0  0  0
   48.2050   35.9600   40.7850 H   0  0  0  0  0  0  0  0  0  0  0  0
   49.2920   34.5120   41.9890 C   0  0  0  0  0  0  0  0  0  0  0  0
   49.2800   33.2390   41.4490 C   0  0  0  0  0  0  0  0  0  0  0  0
   50.4560   32.5820   41.7970 C   0  0  0  0  0  0  0  0  0  0  0  0
   50.9040   31.6160   41.6290 H   0  0  0  0  0  0  0  0  0  0  0  0
   51.1340   33.5000   42.5400 N   0  0  0  0  0  0  0  0  0  0  0  0
   50.4690   34.6390   42.6660 N   0  0  0  0  0  0  0  0  0  0  0  0
   52.0670   33.4110   42.9980 H   0  0  0  0  0  0  0  0  0  0  0  0
  1  3  1  0  0  0  0
  1  5  1  0  0  0  0
  2  1  1  0  0  0  0
  4  9  1  0  0  0  0
  5  4  2  0  0  0  0
  5  6  1  0  0  0  0
  6  7  2  0  0  0  0
  7  8  1  0  0  0  0
  8 12  1  0  0  0  0
  9  8  2  0  0  0  0
 10  4  1  0  0  0  0
 11  6  1  0  0  0  0
 13  1  1  0  0  0  0
 13 16  1  0  0  0  0
 13 14  1  0  0  0  0
 15 13  1  0  0  0  0
 16 21  2  0  0  0  0
 17 18  2  0  0  0  0
 17 16  1  0  0  0  0
 18 20  1  0  0  0  0
 19 18  1  0  0  0  0
 20 21  1  0  0  0  0
 20 22  1  0  0  0  0
M  END
>  <minimizedAffinity>
-4.63696718

>  <minimizedRMSD>
2.72201419

$$$$
