
 OpenBabel03232520333D

 47 51  0  0  1  0  0  0  0  0999 V2000
   49.0650   35.5530   41.9090 C   0  0  0  0  0  0  0  0  0  0  0  0
   48.5310   36.1230   42.6970 H   0  0  0  0  0  0  0  0  0  0  0  0
   49.6650   36.2730   41.3340 H   0  0  0  0  0  0  0  0  0  0  0  0
   46.8120   34.5320   41.3740 C   0  0  0  0  0  0  0  0  0  0  0  0
   48.1080   34.8730   40.9910 C   0  0  0  0  0  0  0  0  0  0  0  0
   48.3430   34.5150   39.7460 N   0  0  0  0  0  0  0  0  0  0  0  0
   47.2250   33.9380   39.2860 C   0  0  0  0  0  0  0  0  0  0  0  0
   46.9470   33.3890   38.0330 C   0  0  0  0  0  0  0  0  0  0  0  0
   45.6930   32.8520   37.8240 C   0  0  0  0  0  0  0  0  0  0  0  0
   44.6920   32.8140   38.7530 C   0  0  0  0  0  0  0  0  0  0  0  0
   45.0160   33.3690   39.9720 C   0  0  0  0  0  0  0  0  0  0  0  0
   46.2390   33.9250   40.2680 C   0  0  0  0  0  0  0  0  0  0  0  0
   49.2220   34.6300   39.1600 H   0  0  0  0  0  0  0  0  0  0  0  0
   47.6930   33.3840   37.2480 H   0  0  0  0  0  0  0  0  0  0  0  0
   45.5220   32.4340   36.8290 H   0  0  0  0  0  0  0  0  0  0  0  0
   43.7170   32.3800   38.5450 H   0  0  0  0  0  0  0  0  0  0  0  0
   44.2930   33.3910   40.7820 H   0  0  0  0  0  0  0  0  0  0  0  0
   44.7350   36.0730   44.0540 C   0  0  0  0  0  0  0  0  0  0  0  0
   45.3610   35.8810   42.8030 C   0  0  0  0  0  0  0  0  0  0  0  0
   46.1590   34.7470   42.6530 C   0  0  0  0  0  0  0  0  0  0  0  0
   46.3050   33.8750   43.7080 N   0  0  0  0  0  0  0  0  0  0  0  0
   45.6730   34.1250   44.8800 C   0  0  0  0  0  0  0  0  0  0  0  0
   44.8920   35.2130   45.0590 N   0  0  0  0  0  0  0  0  0  0  0  0
   44.1140   36.9520   44.1750 H   0  0  0  0  0  0  0  0  0  0  0  0
   45.2250   36.5860   41.9970 H   0  0  0  0  0  0  0  0  0  0  0  0
   45.7760   33.4490   45.7220 H   0  0  0  0  0  0  0  0  0  0  0  0
   49.9630   34.5790   42.5910 C   0  0  0  0  0  0  0  0  0  0  0  0
   49.6520   34.4520   43.6550 H   0  0  0  0  0  0  0  0  0  0  0  0
   50.9920   35.0040   42.6120 H   0  0  0  0  0  0  0  0  0  0  0  0
   50.0880   33.2420   41.8930 C   0  0  1  0  0  0  0  0  0  0  0  0
   50.9970   32.1870   42.3320 C   0  0  0  0  0  0  0  0  0  0  0  0
   49.5760   32.0610   42.7380 C   0  0  2  0  0  0  0  0  0  0  0  0
   49.7990   33.2190   40.8140 H   0  0  0  0  0  0  0  0  0  0  0  0
   51.4720   31.5420   41.5730 H   0  0  0  0  0  0  0  0  0  0  0  0
   51.7180   32.4790   43.1230 H   0  0  0  0  0  0  0  0  0  0  0  0
   49.3400   32.2470   43.8110 H   0  0  0  0  0  0  0  0  0  0  0  0
   48.8300   31.0880   42.1170 O   0  0  0  0  0  0  0  0  0  0  0  0
   44.8970   29.9060   42.7120 C   0  0  0  0  0  0  0  0  0  0  0  0
   45.6870   30.1450   43.8190 C   0  0  0  0  0  0  0  0  0  0  0  0
   47.0060   30.5420   43.7010 C   0  0  0  0  0  0  0  0  0  0  0  0
   47.5390   30.7000   42.4360 C   0  0  0  0  0  0  0  0  0  0  0  0
   46.7770   30.4690   41.2840 C   0  0  0  0  0  0  0  0  0  0  0  0
   45.4450   30.0690   41.4480 C   0  0  0  0  0  0  0  0  0  0  0  0
   42.9840   28.3980   42.0390 H   0  0  0  0  0  0  0  0  0  0  0  0
   43.2300   29.4050   42.9160 S   0  0  0  0  0  0  0  0  0  0  0  0
   42.3180   30.5780   42.7120 O   0  0  0  0  0  0  0  0  0  0  0  0
   42.9850   28.8770   44.3010 O   0  0  0  0  0  0  0  0  0  0  0  0
  1 27  1  0  0  0  0
  1  2  1  0  0  0  0
  3  1  1  0  0  0  0
  4 20  1  0  0  0  0
  5  4  2  0  0  0  0
  5  1  1  0  0  0  0
  6  5  1  0  0  0  0
  7  6  1  0  0  0  0
  7 12  1  0  0  0  0
  8  7  2  0  0  0  0
  9  8  1  0  0  0  0
  9 10  2  0  0  0  0
 10 11  1  0  0  0  0
 11 12  2  0  0  0  0
 11 17  1  0  0  0  0
 12  4  1  0  0  0  0
 13  6  1  0  0  0  0
 14  8  1  0  0  0  0
 15  9  1  0  0  0  0
 16 10  1  0  0  0  0
 18 24  1  0  0  0  0
 18 23  1  0  0  0  0
 19 18  2  0  0  0  0
 20 19  1  0  0  0  0
 20 21  2  0  0  0  0
 21 22  1  0  0  0  0
 22 23  2  0  0  0  0
 22 26  1  0  0  0  0
 25 19  1  0  0  0  0
 27 29  1  0  0  0  0
 27 28  1  0  0  0  0
 30 33  1  6  0  0  0
 30 31  1  0  0  0  0
 30 27  1  0  0  0  0
 30 32  1  0  0  0  0
 31 32  1  0  0  0  0
 31 35  1  0  0  0  0
 32 36  1  1  0  0  0
 34 31  1  0  0  0  0
 37 41  1  0  0  0  0
 37 32  1  0  0  0  0
 38 45  1  0  0  0  0
 38 39  1  0  0  0  0
 40 39  2  0  0  0  0
 41 40  1  0  0  0  0
 42 43  1  0  0  0  0
 42 41  2  0  0  0  0
 43 38  2  0  0  0  0
 44 45  1  0  0  0  0
 45 47  2  0  0  0  0
 46 45  2  0  0  0  0
M  END
>  <minimizedAffinity>
-5.57294273

>  <minimizedRMSD>
1.12282336

$$$$
