
 OpenBabel03232521013D

 43 46  0  0  1  0  0  0  0  0999 V2000
   45.3110   32.9060   47.5070 C   0  0  0  0  0  0  0  0  0  0  0  0
   45.8900   32.6450   46.3080 C   0  0  0  0  0  0  0  0  0  0  0  0
   46.1910   31.3000   46.0800 C   0  0  0  0  0  0  0  0  0  0  0  0
   45.9300   30.3130   46.9730 N   0  0  0  0  0  0  0  0  0  0  0  0
   45.3370   30.6290   48.1850 C   0  0  0  0  0  0  0  0  0  0  0  0
   45.0450   31.9030   48.4200 N   0  0  0  0  0  0  0  0  0  0  0  0
   45.0780   29.6230   49.1490 N   0  0  0  0  0  0  0  0  0  0  0  0
   45.0410   33.9120   47.7900 H   0  0  0  0  0  0  0  0  0  0  0  0
   45.7480   29.7520   49.9560 H   0  0  0  0  0  0  0  0  0  0  0  0
   44.3770   28.8500   49.1570 H   0  0  0  0  0  0  0  0  0  0  0  0
   46.1490   33.5930   45.2790 C   0  0  2  0  0  0  0  0  0  0  0  0
   44.9470   34.6950   45.5050 C   0  0  0  0  0  0  0  0  0  0  0  0
   44.7230   35.6260   44.4330 C   0  0  0  0  0  0  0  0  0  0  0  0
   45.5250   35.5470   43.2110 C   0  0  1  0  0  0  0  0  0  0  0  0
   46.5780   34.5350   43.1640 C   0  0  0  0  0  0  0  0  0  0  0  0
   46.1190   33.3060   43.9150 C   0  0  0  0  0  0  0  0  0  0  0  0
   46.9900   34.2800   45.6030 H   0  0  0  0  0  0  0  0  0  0  0  0
   44.2670   34.8590   46.3310 H   0  0  0  0  0  0  0  0  0  0  0  0
   43.9470   36.3610   44.5490 H   0  0  0  0  0  0  0  0  0  0  0  0
   45.9730   36.5340   42.9710 H   0  0  0  0  0  0  0  0  0  0  0  0
   46.7660   34.2950   42.0760 H   0  0  0  0  0  0  0  0  0  0  0  0
   47.5690   34.8790   43.5440 H   0  0  0  0  0  0  0  0  0  0  0  0
   45.1700   32.9670   43.4490 H   0  0  0  0  0  0  0  0  0  0  0  0
   46.9770   32.6560   43.5950 H   0  0  0  0  0  0  0  0  0  0  0  0
   44.5100   35.2790   42.0580 C   0  0  0  0  0  0  0  0  0  0  0  0
   43.4510   34.4810   42.4500 F   0  0  0  0  0  0  0  0  0  0  0  0
   43.9640   36.5170   41.7220 F   0  0  0  0  0  0  0  0  0  0  0  0
   45.1870   34.8210   40.9420 F   0  0  0  0  0  0  0  0  0  0  0  0
   46.8520   30.6080   44.9900 C   0  0  0  0  0  0  0  0  0  0  0  0
   46.5330   29.8130   43.9370 C   0  0  0  0  0  0  0  0  0  0  0  0
   47.7230   29.4480   43.2890 C   0  0  0  0  0  0  0  0  0  0  0  0
   48.6970   30.0400   43.9810 N   0  0  0  0  0  0  0  0  0  0  0  0
   48.2110   30.7280   44.9870 N   0  0  0  0  0  0  0  0  0  0  0  0
   45.4890   29.6020   43.7740 H   0  0  0  0  0  0  0  0  0  0  0  0
   47.6930   28.8140   42.4210 H   0  0  0  0  0  0  0  0  0  0  0  0
   50.0670   29.8800   43.5940 C   0  0  0  0  0  0  0  0  0  0  0  0
   50.9590   29.1920   44.4070 C   0  0  0  0  0  3  0  0  0  0  0  0
   52.2630   29.0570   44.0070 C   0  0  0  0  0  0  0  0  0  0  0  0
   52.9340   28.5090   44.6730 H   0  0  0  0  0  0  0  0  0  0  0  0
   52.7130   29.5960   42.8020 C   0  0  0  0  0  3  0  0  0  0  0  0
   51.7870   30.2770   42.0190 C   0  0  0  0  0  0  0  0  0  0  0  0
   52.0980   30.7090   41.0790 H   0  0  0  0  0  0  0  0  0  0  0  0
   50.4750   30.4360   42.3800 C   0  0  0  0  0  3  0  0  0  0  0  0
  1  8  1  0  0  0  0
  1  6  1  0  0  0  0
  2  1  2  0  0  0  0
  3  2  1  0  0  0  0
  3  4  2  0  0  0  0
  4  5  1  0  0  0  0
  5  6  2  0  0  0  0
  5  7  1  0  0  0  0
  7 10  1  0  0  0  0
  7  9  1  0  0  0  0
 11 12  1  0  0  0  0
 11 17  1  1  0  0  0
 11  2  1  0  0  0  0
 12 18  1  0  0  0  0
 13 19  1  0  0  0  0
 13 12  2  0  0  0  0
 14 20  1  6  0  0  0
 14 13  1  0  0  0  0
 15 14  1  0  0  0  0
 15 22  1  0  0  0  0
 15 16  1  0  0  0  0
 16 11  1  0  0  0  0
 21 15  1  0  0  0  0
 23 16  1  0  0  0  0
 24 16  1  0  0  0  0
 25 26  1  0  0  0  0
 25 14  1  0  0  0  0
 27 25  1  0  0  0  0
 28 25  1  0  0  0  0
 29  3  1  0  0  0  0
 30 29  1  0  0  0  0
 31 30  2  0  0  0  0
 31 32  1  0  0  0  0
 32 33  1  0  0  0  0
 33 29  2  0  0  0  0
 34 30  1  0  0  0  0
 35 31  1  0  0  0  0
 36 32  1  0  0  0  0
 36 37  1  0  0  0  0
 38 37  2  0  0  0  0
 38 39  1  0  0  0  0
 40 38  1  0  0  0  0
 41 43  1  0  0  0  0
 41 40  2  0  0  0  0
 42 41  1  0  0  0  0
 43 36  2  0  0  0  0
M  END
>  <minimizedAffinity>
-5.87538719

>  <minimizedRMSD>
0.709702194

$$$$
