
 OpenBabel03232519393D

 36 39  0  0  0  0  0  0  0  0999 V2000
   46.5530   34.4570   42.0400 N   0  0  0  0  0  0  0  0  0  0  0  0
   47.6510   35.2730   41.9150 C   0  0  0  0  0  0  0  0  0  0  0  0
   48.4080   35.2890   40.7660 C   0  0  0  0  0  0  0  0  0  0  0  0
   48.0230   34.4470   39.7250 C   0  0  0  0  0  0  0  0  0  0  0  0
   48.6840   34.4320   38.6650 O   0  0  0  0  0  0  0  0  0  0  0  0
   46.9380   33.6770   39.9170 N   0  0  0  0  0  0  0  0  0  0  0  0
   46.2190   33.6770   41.0400 C   0  0  0  0  0  0  0  0  0  0  0  0
   45.2220   32.9930   41.2620 O   0  0  0  0  0  0  0  0  0  0  0  0
   48.0160   35.9520   42.6690 H   0  0  0  0  0  0  0  0  0  0  0  0
   49.2770   35.9140   40.6270 H   0  0  0  0  0  0  0  0  0  0  0  0
   46.5010   32.7930   38.8900 C   0  0  0  0  0  0  0  0  0  0  0  0
   45.5210   33.1400   37.9450 C   0  0  0  0  0  0  0  0  0  0  0  0
   45.1350   32.2550   36.9730 C   0  0  0  0  0  0  0  0  0  0  0  0
   45.7120   30.9940   36.9100 C   0  0  0  0  0  0  0  0  0  0  0  0
   46.6640   30.6820   37.8440 C   0  0  0  0  0  0  0  0  0  0  0  0
   47.0900   31.5430   38.8480 C   0  0  0  0  0  0  0  0  0  0  0  0
   45.1290   34.1490   38.0780 H   0  0  0  0  0  0  0  0  0  0  0  0
   44.3880   32.5810   36.2880 H   0  0  0  0  0  0  0  0  0  0  0  0
   45.4050   30.3060   36.1480 H   0  0  0  0  0  0  0  0  0  0  0  0
   47.0810   29.6930   37.7530 H   0  0  0  0  0  0  0  0  0  0  0  0
   48.1010   31.1790   39.8230 C   0  0  0  0  0  0  0  0  0  0  0  0
   47.8070   30.6120   41.0420 C   0  0  0  0  0  0  0  0  0  0  0  0
   48.7410   30.2530   41.9930 C   0  0  0  0  0  0  0  0  0  0  0  0
   50.0760   30.4680   41.7290 C   0  0  0  0  0  0  0  0  0  0  0  0
   50.8820   30.2260   42.4000 H   0  0  0  0  0  0  0  0  0  0  0  0
   50.3640   31.0320   40.5160 C   0  0  0  0  0  0  0  0  0  0  0  0
   49.4210   31.3540   39.6460 N   0  0  0  0  0  0  0  0  0  0  0  0
   44.5070   35.8650   44.7830 C   0  0  0  0  0  0  0  0  0  0  0  0
   45.1000   35.7160   43.5000 C   0  0  0  0  0  0  0  0  0  0  0  0
   45.9450   34.6240   43.3180 C   0  0  0  0  0  0  0  0  0  0  0  0
   46.1720   33.7470   44.3590 N   0  0  0  0  0  0  0  0  0  0  0  0
   45.5700   33.9510   45.5620 C   0  0  0  0  0  0  0  0  0  0  0  0
   44.7500   34.9890   45.7780 N   0  0  0  0  0  0  0  0  0  0  0  0
   43.8490   36.6930   44.9690 H   0  0  0  0  0  0  0  0  0  0  0  0
   44.8670   36.4440   42.7560 H   0  0  0  0  0  0  0  0  0  0  0  0
   45.8380   33.1870   46.2830 H   0  0  0  0  0  0  0  0  0  0  0  0
  1 30  1  0  0  0  0
  2  1  1  0  0  0  0
  2  9  1  0  0  0  0
  3  2  2  0  0  0  0
  4  6  1  0  0  0  0
  4  3  1  0  0  0  0
  5  4  2  0  0  0  0
  6  7  1  0  0  0  0
  7  8  2  0  0  0  0
  7  1  1  0  0  0  0
 10  3  1  0  0  0  0
 11  6  1  0  0  0  0
 12 17  1  0  0  0  0
 12 11  2  0  0  0  0
 13 12  1  0  0  0  0
 14 13  2  0  0  0  0
 14 15  1  0  0  0  0
 15 16  2  0  0  0  0
 16 11  1  0  0  0  0
 16 21  1  0  0  0  0
 18 13  1  0  0  0  0
 19 14  1  0  0  0  0
 20 15  1  0  0  0  0
 21 22  1  0  0  0  0
 22 23  2  0  0  0  0
 24 23  1  0  0  0  0
 24 25  1  0  0  0  0
 26 24  2  0  0  0  0
 27 21  2  0  0  0  0
 27 26  1  0  0  0  0
 28 34  1  0  0  0  0
 28 33  1  0  0  0  0
 29 28  2  0  0  0  0
 30 29  1  0  0  0  0
 30 31  2  0  0  0  0
 31 32  1  0  0  0  0
 32 33  2  0  0  0  0
 32 36  1  0  0  0  0
 35 29  1  0  0  0  0
M  END
>  <minimizedAffinity>
-5.3552084

>  <minimizedRMSD>
0.642554998

$$$$
