
 OpenBabel03232519443D

 44 47  0  0  0  0  0  0  0  0999 V2000
   46.5690   34.3650   42.0020 N   0  0  0  0  0  0  0  0  0  0  0  0
   47.6920   35.1640   41.8860 C   0  0  0  0  0  0  0  0  0  0  0  0
   48.4130   35.2240   40.7170 C   0  0  0  0  0  0  0  0  0  0  0  0
   47.9660   34.4430   39.6470 C   0  0  0  0  0  0  0  0  0  0  0  0
   48.5990   34.4840   38.5820 O   0  0  0  0  0  0  0  0  0  0  0  0
   46.8690   33.6850   39.8230 N   0  0  0  0  0  0  0  0  0  0  0  0
   46.1860   33.6510   40.9750 C   0  0  0  0  0  0  0  0  0  0  0  0
   45.1920   32.9970   41.1930 O   0  0  0  0  0  0  0  0  0  0  0  0
   48.0880   35.7910   42.6750 H   0  0  0  0  0  0  0  0  0  0  0  0
   49.2850   35.8320   40.5950 H   0  0  0  0  0  0  0  0  0  0  0  0
   46.3870   32.8730   38.7750 C   0  0  0  0  0  0  0  0  0  0  0  0
   45.4310   33.2720   37.8680 C   0  0  0  0  0  0  0  0  0  0  0  0
   45.0060   32.4280   36.8710 C   0  0  0  0  0  0  0  0  0  0  0  0
   45.5300   31.1560   36.7570 C   0  0  0  0  0  0  0  0  0  0  0  0
   46.4700   30.7860   37.6630 C   0  0  0  0  0  0  0  0  0  0  0  0
   46.9450   31.5990   38.7020 C   0  0  0  0  0  0  0  0  0  0  0  0
   45.0410   34.2850   37.9910 H   0  0  0  0  0  0  0  0  0  0  0  0
   44.2550   32.8210   36.2040 H   0  0  0  0  0  0  0  0  0  0  0  0
   45.1920   30.4930   35.9690 H   0  0  0  0  0  0  0  0  0  0  0  0
   46.8600   29.7660   37.5350 H   0  0  0  0  0  0  0  0  0  0  0  0
   47.9830   31.0920   39.6410 C   0  0  0  0  0  0  0  0  0  0  0  0
   48.1640   30.0250   39.2880 H   0  0  0  0  0  0  0  0  0  0  0  0
   49.2810   31.8150   39.6080 C   0  0  0  0  0  0  0  0  0  0  0  0
   49.5850   32.3750   40.5070 H   0  0  0  0  0  0  0  0  0  0  0  0
   50.0310   30.9500   39.8280 H   0  0  0  0  0  0  0  0  0  0  0  0
   49.7030   32.0680   38.6440 H   0  0  0  0  0  0  0  0  0  0  0  0
   47.5300   31.0500   41.0670 C   0  0  0  0  0  0  0  0  0  0  0  0
   48.0360   31.7390   41.7650 H   0  0  0  0  0  0  0  0  0  0  0  0
   46.5310   30.7120   41.2670 H   0  0  0  0  0  0  0  0  0  0  0  0
   48.0780   30.1060   41.4690 H   0  0  0  0  0  0  0  0  0  0  0  0
   44.5960   35.6600   44.8500 C   0  0  0  0  0  0  0  0  0  0  0  0
   45.1530   35.5450   43.5500 C   0  0  0  0  0  0  0  0  0  0  0  0
   46.0050   34.4810   43.3130 C   0  0  0  0  0  0  0  0  0  0  0  0
   46.2800   33.5930   44.3130 N   0  0  0  0  0  0  0  0  0  0  0  0
   45.7190   33.7480   45.5420 C   0  0  0  0  0  0  0  0  0  0  0  0
   44.8970   34.7530   45.8120 N   0  0  0  0  0  0  0  0  0  0  0  0
   43.9310   36.4440   45.1250 H   0  0  0  0  0  0  0  0  0  0  0  0
   44.8820   36.2970   42.8070 H   0  0  0  0  0  0  0  0  0  0  0  0
   46.0350   32.7700   46.6080 C   0  0  0  0  0  0  0  0  0  0  0  0
   47.0840   31.7770   46.5460 C   0  0  0  0  0  0  0  0  0  0  0  0
   46.8630   30.9710   48.1850 S   0  0  0  0  0  0  0  0  0  0  0  0
   45.4120   32.1110   48.6470 C   0  0  0  0  0  0  0  0  0  0  0  0
   44.8430   32.0640   49.6180 H   0  0  0  0  0  0  0  0  0  0  0  0
   45.2150   32.9250   47.6520 N   0  0  0  0  0  0  0  0  0  0  0  0
  1 33  1  0  0  0  0
  2  1  1  0  0  0  0
  2  9  1  0  0  0  0
  3  2  2  0  0  0  0
  4  6  1  0  0  0  0
  4  3  1  0  0  0  0
  5  4  2  0  0  0  0
  6  7  1  0  0  0  0
  7  8  2  0  0  0  0
  7  1  1  0  0  0  0
 10  3  1  0  0  0  0
 11  6  1  0  0  0  0
 12 17  1  0  0  0  0
 12 11  2  0  0  0  0
 13 12  1  0  0  0  0
 14 13  2  0  0  0  0
 14 15  1  0  0  0  0
 15 16  2  0  0  0  0
 16 11  1  0  0  0  0
 16 21  1  0  0  0  0
 18 13  1  0  0  0  0
 19 14  1  0  0  0  0
 20 15  1  0  0  0  0
 21 27  1  0  0  0  0
 22 21  1  0  0  0  0
 23 21  1  0  0  0  0
 23 25  1  0  0  0  0
 23 24  1  0  0  0  0
 26 23  1  0  0  0  0
 27 29  1  0  0  0  0
 27 30  1  0  0  0  0
 27 28  1  0  0  0  0
 31 37  1  0  0  0  0
 31 36  1  0  0  0  0
 32 31  2  0  0  0  0
 33 32  1  0  0  0  0
 33 34  2  0  0  0  0
 34 35  1  0  0  0  0
 35 36  2  0  0  0  0
 35 39  1  0  0  0  0
 38 32  1  0  0  0  0
 39 44  1  0  0  0  0
 40 39  2  0  0  0  0
 40 41  1  0  0  0  0
 41 42  1  0  0  0  0
 42 43  1  0  0  0  0
 44 42  2  0  0  0  0
M  END
>  <minimizedAffinity>
-6.21981668

>  <minimizedRMSD>
0.404337794

$$$$
