
 OpenBabel03232516513D

 41 43  0  0  1  0  0  0  0  0999 V2000
   41.5400   33.9820   39.4450 C   0  0  2  0  0  0  0  0  0  0  0  0
   41.8770   35.3650   38.9150 C   0  0  0  0  0  0  0  0  0  0  0  0
   40.9210   35.5980   37.7500 C   0  0  0  0  0  0  0  0  0  0  0  0
   39.7510   34.6630   37.7560 C   0  0  0  0  0  0  0  0  0  0  0  0
   39.1850   34.4840   39.1470 C   0  0  0  0  0  0  0  0  0  0  0  0
   40.2170   34.0340   40.1340 C   0  0  1  0  0  0  0  0  0  0  0  0
   41.4810   33.3550   38.5320 H   0  0  0  0  0  0  0  0  0  0  0  0
   42.9070   35.4370   38.5330 H   0  0  0  0  0  0  0  0  0  0  0  0
   41.7530   36.0940   39.7250 H   0  0  0  0  0  0  0  0  0  0  0  0
   41.4730   35.4500   36.7930 H   0  0  0  0  0  0  0  0  0  0  0  0
   40.5810   36.6670   37.7360 H   0  0  0  0  0  0  0  0  0  0  0  0
   39.9460   33.7060   37.2340 H   0  0  0  0  0  0  0  0  0  0  0  0
   38.9260   35.1390   37.1680 H   0  0  0  0  0  0  0  0  0  0  0  0
   38.8060   35.4750   39.4730 H   0  0  0  0  0  0  0  0  0  0  0  0
   38.3210   33.7980   39.0720 H   0  0  0  0  0  0  0  0  0  0  0  0
   40.3010   34.7350   41.0000 H   0  0  0  0  0  0  0  0  0  0  0  0
   39.8710   32.6630   40.5910 C   0  0  0  0  0  0  0  0  0  0  0  0
   39.8300   32.1710   41.9980 C   0  0  0  0  0  0  0  0  0  0  0  0
   39.3200   30.3700   41.7090 S   0  0  0  0  0  0  0  0  0  0  0  0
   39.2680   30.6140   39.8880 C   0  0  0  0  0  0  0  0  0  0  0  0
   38.9950   29.7410   39.3540 H   0  0  0  0  0  0  0  0  0  0  0  0
   39.5770   31.8150   39.6200 N   0  0  0  0  0  0  0  0  0  0  0  0
   42.5440   33.4750   40.2420 O   0  0  0  0  0  0  0  0  0  0  0  0
   43.7740   34.1140   40.0450 C   0  0  0  0  0  0  0  0  0  0  0  0
   43.7660   34.9160   39.3270 H   0  0  0  0  0  0  0  0  0  0  0  0
   44.3760   33.2420   39.5160 H   0  0  0  0  0  0  0  0  0  0  0  0
   44.4000   34.2510   41.3740 C   0  0  1  0  0  0  0  0  0  0  0  0
   44.2490   33.2690   41.9210 H   0  0  0  0  0  0  0  0  0  0  0  0
   45.8920   34.4360   41.2700 C   0  0  0  0  0  0  0  0  0  0  0  0
   46.4560   33.8850   40.1000 C   0  0  0  0  0  0  0  0  0  0  0  0
   47.8390   34.0200   39.9230 C   0  0  0  0  0  0  0  0  0  0  0  0
   48.5420   34.6850   40.9120 N   0  0  0  0  0  0  0  0  0  0  0  0
   47.9600   35.1910   42.0090 C   0  0  0  0  0  0  0  0  0  0  0  0
   46.6210   35.0770   42.2100 N   0  0  0  0  0  0  0  0  0  0  0  0
   45.8770   33.3800   39.3630 H   0  0  0  0  0  0  0  0  0  0  0  0
   48.3670   33.6360   39.0670 H   0  0  0  0  0  0  0  0  0  0  0  0
   48.5970   35.6940   42.7220 H   0  0  0  0  0  0  0  0  0  0  0  0
   43.7460   35.2940   42.2550 C   0  0  0  0  0  0  0  0  0  0  0  0
   43.8980   36.3120   41.8850 H   0  0  0  0  0  0  0  0  0  0  0  0
   42.6870   35.0410   42.2990 H   0  0  0  0  0  0  0  0  0  0  0  0
   44.1540   35.1410   43.2970 H   0  0  0  0  0  0  0  0  0  0  0  0
  1  7  1  6  0  0  0
  1  6  1  0  0  0  0
  1 23  1  0  0  0  0
  2  1  1  0  0  0  0
  2  9  1  0  0  0  0
  3  4  1  0  0  0  0
  3  2  1  0  0  0  0
  4  5  1  0  0  0  0
  5 14  1  0  0  0  0
  5  6  1  0  0  0  0
  6 17  1  0  0  0  0
  6 16  1  1  0  0  0
  8  2  1  0  0  0  0
 10  3  1  0  0  0  0
 11  3  1  0  0  0  0
 12  4  1  0  0  0  0
 13  4  1  0  0  0  0
 15  5  1  0  0  0  0
 17 18  2  0  0  0  0
 19 18  1  0  0  0  0
 20 19  1  0  0  0  0
 21 20  1  0  0  0  0
 22 20  2  0  0  0  0
 22 17  1  0  0  0  0
 24 23  1  0  0  0  0
 24 27  1  0  0  0  0
 25 24  1  0  0  0  0
 26 24  1  0  0  0  0
 27 28  1  1  0  0  0
 27 38  1  0  0  0  0
 29 27  1  0  0  0  0
 29 34  1  0  0  0  0
 30 29  2  0  0  0  0
 31 30  1  0  0  0  0
 31 32  2  0  0  0  0
 32 33  1  0  0  0  0
 33 34  2  0  0  0  0
 33 37  1  0  0  0  0
 35 30  1  0  0  0  0
 36 31  1  0  0  0  0
 38 40  1  0  0  0  0
 38 41  1  0  0  0  0
 39 38  1  0  0  0  0
M  END
>  <minimizedAffinity>
-5.26474905

>  <minimizedRMSD>
3.73253965

$$$$
