
 OpenBabel03232517563D

 31 34  0  0  0  0  0  0  0  0999 V2000
   45.5670   34.0220   45.7170 N   0  0  0  0  0  0  0  0  0  0  0  0
   44.5460   34.8800   45.9070 C   0  0  0  0  0  0  0  0  0  0  0  0
   44.4520   35.6640   44.8060 N   0  0  0  0  0  0  0  0  0  0  0  0
   45.4050   35.2950   43.9400 C   0  0  0  0  0  0  0  0  0  0  0  0
   45.8040   35.7130   42.6700 C   0  0  0  0  0  0  0  0  0  0  0  0
   46.8290   35.0950   42.0920 N   0  0  0  0  0  0  0  0  0  0  0  0
   47.5270   34.0890   42.6270 C   0  0  0  0  0  0  0  0  0  0  0  0
   47.1640   33.6550   43.8710 N   0  0  0  0  0  0  0  0  0  0  0  0
   46.1180   34.2560   44.5070 C   0  0  0  0  0  0  0  0  0  0  0  0
   43.9520   34.8740   46.8200 H   0  0  0  0  0  0  0  0  0  0  0  0
   45.2650   36.5250   42.2020 H   0  0  0  0  0  0  0  0  0  0  0  0
   45.7680   31.8930   48.7300 C   0  0  0  0  0  0  0  0  0  0  0  0
   45.3420   32.8710   47.8280 C   0  0  0  0  0  0  0  0  0  0  0  0
   46.0290   33.0220   46.6030 C   0  0  0  0  0  0  0  0  0  0  0  0
   47.0750   32.1930   46.3790 N   0  0  0  0  0  0  0  0  0  0  0  0
   47.4730   31.2600   47.2520 C   0  0  0  0  0  0  0  0  0  0  0  0
   46.8280   31.1060   48.4210 N   0  0  0  0  0  0  0  0  0  0  0  0
   45.1650   31.6470   49.9830 N   0  0  0  0  0  0  0  0  0  0  0  0
   44.4980   33.4720   48.1130 H   0  0  0  0  0  0  0  0  0  0  0  0
   48.3210   30.6350   46.9960 H   0  0  0  0  0  0  0  0  0  0  0  0
   44.2370   31.1550   49.8730 H   0  0  0  0  0  0  0  0  0  0  0  0
   45.6450   31.9490   50.8650 H   0  0  0  0  0  0  0  0  0  0  0  0
   48.6490   33.4920   41.8690 C   0  0  0  0  0  0  0  0  0  0  0  0
   48.4210   33.4760   40.8080 H   0  0  0  0  0  0  0  0  0  0  0  0
   48.6950   32.4150   42.1840 H   0  0  0  0  0  0  0  0  0  0  0  0
   49.9700   34.0860   42.2050 C   0  0  0  0  0  0  0  0  0  0  0  0
   49.9220   34.6190   43.1690 H   0  0  0  0  0  0  0  0  0  0  0  0
   50.2860   34.8730   41.4630 H   0  0  0  0  0  0  0  0  0  0  0  0
   50.9770   32.9780   42.3020 C   0  0  0  0  0  0  0  0  0  0  0  0
   51.1990   32.0270   41.1930 C   0  0  0  0  0  0  0  0  0  0  0  0
   50.3520   31.5870   42.3860 C   0  0  0  0  0  0  0  0  0  0  0  0
  1  2  1  0  0  0  0
  1 14  1  0  0  0  0
  2 10  1  0  0  0  0
  3  2  2  0  0  0  0
  4  9  1  0  0  0  0
  4  3  1  0  0  0  0
  5  4  2  0  0  0  0
  6  7  2  0  0  0  0
  6  5  1  0  0  0  0
  7  8  1  0  0  0  0
  8  9  2  0  0  0  0
  9  1  1  0  0  0  0
 11  5  1  0  0  0  0
 12 18  1  0  0  0  0
 13 19  1  0  0  0  0
 13 12  2  0  0  0  0
 14 13  1  0  0  0  0
 15 14  2  0  0  0  0
 15 16  1  0  0  0  0
 16 17  2  0  0  0  0
 17 12  1  0  0  0  0
 18 22  1  0  0  0  0
 20 16  1  0  0  0  0
 21 18  1  0  0  0  0
 23 25  1  0  0  0  0
 23 26  1  0  0  0  0
 23  7  1  0  0  0  0
 24 23  1  0  0  0  0
 26 29  1  0  0  0  0
 26 27  1  0  0  0  0
 28 26  1  0  0  0  0
 29 31  1  0  0  0  0
 30 29  1  0  0  0  0
 30 31  1  0  0  0  0
M  END
>  <minimizedAffinity>
-5.94196463

>  <minimizedRMSD>
4.24006987

$$$$
