
     RDKit          3D

 30 32  0  0  0  0  0  0  0  0999 V2000
   45.2489   32.9682   47.4583 C   0  0  0  0  0  0  0  0  0  0  0  0
   45.7891   32.7620   46.1899 C   0  0  0  0  0  0  0  0  0  0  0  0
   46.1395   31.4339   45.8205 C   0  0  0  0  0  0  0  0  0  0  0  0
   45.9347   30.4327   46.7114 N   0  0  0  0  0  0  0  0  0  0  0  0
   45.4063   30.6768   47.9357 C   0  0  0  0  0  0  0  0  0  0  0  0
   45.0690   31.9265   48.3019 N   0  0  0  0  0  0  0  0  0  0  0  0
   45.9864   33.9091   45.2855 C   0  0  2  0  0  0  0  0  0  0  0  0
   44.8808   34.9146   45.5089 C   0  0  0  0  0  0  0  0  0  0  0  0
   44.5405   35.8191   44.4148 C   0  0  0  0  0  0  0  0  0  0  0  0
   45.2585   35.7231   43.1527 C   0  0  1  0  0  0  0  0  0  0  0  0
   46.3976   34.7978   43.0943 C   0  0  0  0  0  0  0  0  0  0  0  0
   46.0907   33.5370   43.8410 C   0  0  0  0  0  0  0  0  0  0  0  0
   44.9505   33.9327   47.8397 H   0  0  0  0  0  0  0  0  0  0  0  0
   46.5601   31.2180   44.8515 H   0  0  0  0  0  0  0  0  0  0  0  0
   45.2278   29.9032   48.6745 H   0  0  0  0  0  0  0  0  0  0  0  0
   46.9093   34.4712   45.5826 H   0  0  0  0  0  0  0  0  0  0  0  0
   44.2466   35.1215   46.3565 H   0  0  0  0  0  0  0  0  0  0  0  0
   43.7685   36.5349   44.5461 H   0  0  0  0  0  0  0  0  0  0  0  0
   45.6692   36.7575   42.9474 H   0  0  0  0  0  0  0  0  0  0  0  0
   46.6037   34.5628   42.0127 H   0  0  0  0  0  0  0  0  0  0  0  0
   47.3081   35.2886   43.4943 H   0  0  0  0  0  0  0  0  0  0  0  0
   46.9746   32.8437   43.7662 H   0  0  0  0  0  0  0  0  0  0  0  0
   45.1634   33.0846   43.4774 H   0  0  0  0  0  0  0  0  0  0  0  0
   44.2683   35.4944   42.0330 C   0  0  0  0  0  0  0  0  0  0  0  0
   44.4477   34.6493   40.8801 C   0  0  0  0  0  0  0  0  0  0  0  0
   42.9101   34.8627   40.0111 S   0  0  0  0  0  0  0  0  0  0  0  0
   42.2299   36.0675   41.3247 C   0  0  0  0  0  0  0  0  0  0  0  0
   41.2334   36.5132   41.2316 H   0  0  0  0  0  0  0  0  0  0  0  0
   43.0954   36.1384   42.1061 N   0  0  0  0  0  0  0  0  0  0  0  0
   45.3323   34.0991   40.7264 H   0  0  0  0  0  0  0  0  0  0  0  0
  1  6  2  0
  2  1  1  0
  3  2  2  0
  3  4  1  0
  4  5  2  0
  5  6  1  0
  7  8  1  0
  7  2  1  0
  9  8  2  0
 10  9  1  0
 11 10  1  0
 11 12  1  0
 12  7  1  0
  1 13  1  0
  3 14  1  0
  5 15  1  0
  7 16  1  1
  8 17  1  0
  9 18  1  0
 10 19  1  6
 11 20  1  0
 11 21  1  0
 12 22  1  0
 12 23  1  0
 24 25  2  0
 25 26  1  0
 26 27  1  0
 27 28  1  0
 27 29  2  0
 29 24  1  0
 25 30  1  0
 10 24  1  0
M  ISO  8  13  14  14  14  15  14  16  13  17  13  18  13  19  13  20  13
M  ISO  4  21  13  22  13  23  13  28  14
M  END
>  <DihAtoms>  (1) 
8,9,23,24

>  <DihDeg>  (1) 
112.83055111380128

$$$$
