REMARK  Name = 
REMARK  2 active torsions:
REMARK  status: ('A' for Active; 'I' for Inactive)
REMARK    1  A    between atoms: C_2  and  C_7
REMARK    2  A    between atoms: C_10  and  C_24
REMARK                            x       y       z     vdW  Elec       q    Type
REMARK                         _______ _______ _______ _____ _____    ______ ____
ROOT
ATOM      1  C   UNL     1      45.986  33.909  45.285  0.00  0.00    +0.000 C 
ATOM      2  C   UNL     1      44.881  34.915  45.509  0.00  0.00    +0.000 C 
ATOM      3  C   UNL     1      44.541  35.819  44.415  0.00  0.00    +0.000 C 
ATOM      4  C   UNL     1      45.258  35.723  43.153  0.00  0.00    +0.000 C 
ATOM      5  C   UNL     1      46.398  34.798  43.094  0.00  0.00    +0.000 C 
ATOM      6  C   UNL     1      46.091  33.537  43.841  0.00  0.00    +0.000 C 
ATOM      7  H   UNL     1      46.909  34.471  45.583  0.00  0.00    +0.000 HD
ATOM      8  H   UNL     1      44.247  35.121  46.356  0.00  0.00    +0.000 HD
ATOM      9  H   UNL     1      43.769  36.535  44.546  0.00  0.00    +0.000 HD
ATOM     10  H   UNL     1      45.669  36.758  42.947  0.00  0.00    +0.000 HD
ATOM     11  H   UNL     1      46.604  34.563  42.013  0.00  0.00    +0.000 HD
ATOM     12  H   UNL     1      47.308  35.289  43.494  0.00  0.00    +0.000 HD
ATOM     13  H   UNL     1      46.975  32.844  43.766  0.00  0.00    +0.000 HD
ATOM     14  H   UNL     1      45.163  33.085  43.477  0.00  0.00    +0.000 HD
ENDROOT
BRANCH   1  16
ATOM     15  C   UNL     1      45.249  32.968  47.458  0.00  0.00    +0.000 A 
ATOM     16  C   UNL     1      45.789  32.762  46.190  0.00  0.00    +0.000 A 
ATOM     17  C   UNL     1      46.139  31.434  45.821  0.00  0.00    +0.000 A 
ATOM     18  N   UNL     1      45.935  30.433  46.711  0.00  0.00    +0.000 NA
ATOM     19  C   UNL     1      45.406  30.677  47.936  0.00  0.00    +0.000 A 
ATOM     20  N   UNL     1      45.069  31.927  48.302  0.00  0.00    +0.000 NA
ATOM     21  H   UNL     1      44.950  33.933  47.840  0.00  0.00    +0.000 HD
ATOM     22  H   UNL     1      46.560  31.218  44.852  0.00  0.00    +0.000 HD
ATOM     23  H   UNL     1      45.228  29.903  48.675  0.00  0.00    +0.000 HD
ENDBRANCH   1  16
BRANCH   4  24
ATOM     24  C   UNL     1      44.268  35.494  42.033  0.00  0.00    +0.000 A 
ATOM     25  C   UNL     1      44.448  34.649  40.880  0.00  0.00    +0.000 A 
ATOM     26  S   UNL     1      42.910  34.863  40.011  0.00  0.00    +0.000 S 
ATOM     27  C   UNL     1      42.230  36.068  41.325  0.00  0.00    +0.000 A 
ATOM     28  H   UNL     1      41.233  36.513  41.232  0.00  0.00    +0.000 HD
ATOM     29  N   UNL     1      43.095  36.138  42.106  0.00  0.00    +0.000 NA
ENDBRANCH   4  24
TORSDOF 2
