
 OpenBabel03232520293D

 42 46  0  0  1  0  0  0  0  0999 V2000
   46.9270   34.5060   41.2840 C   0  0  0  0  0  0  0  0  0  0  0  0
   48.1830   34.9510   40.9310 C   0  0  0  0  0  0  0  0  0  0  0  0
   48.4450   34.6370   39.6680 N   0  0  0  0  0  0  0  0  0  0  0  0
   47.3710   33.9930   39.1910 C   0  0  0  0  0  0  0  0  0  0  0  0
   47.1150   33.4510   37.9380 C   0  0  0  0  0  0  0  0  0  0  0  0
   45.9110   32.8300   37.7040 C   0  0  0  0  0  0  0  0  0  0  0  0
   44.9090   32.7020   38.6470 C   0  0  0  0  0  0  0  0  0  0  0  0
   45.2060   33.2550   39.8790 C   0  0  0  0  0  0  0  0  0  0  0  0
   46.3820   33.8870   40.1830 C   0  0  0  0  0  0  0  0  0  0  0  0
   49.3070   34.8250   39.0780 H   0  0  0  0  0  0  0  0  0  0  0  0
   47.8610   33.5140   37.1380 H   0  0  0  0  0  0  0  0  0  0  0  0
   45.7600   32.4240   36.7110 H   0  0  0  0  0  0  0  0  0  0  0  0
   43.9790   32.2030   38.4110 H   0  0  0  0  0  0  0  0  0  0  0  0
   44.4590   33.1850   40.6610 H   0  0  0  0  0  0  0  0  0  0  0  0
   44.7850   35.8610   44.0340 C   0  0  0  0  0  0  0  0  0  0  0  0
   45.4160   35.7430   42.7760 C   0  0  0  0  0  0  0  0  0  0  0  0
   46.2590   34.6490   42.5840 C   0  0  0  0  0  0  0  0  0  0  0  0
   46.4450   33.7400   43.6060 N   0  0  0  0  0  0  0  0  0  0  0  0
   45.8060   33.9190   44.7880 C   0  0  0  0  0  0  0  0  0  0  0  0
   44.9830   34.9610   45.0120 N   0  0  0  0  0  0  0  0  0  0  0  0
   44.1350   36.7430   44.1160 H   0  0  0  0  0  0  0  0  0  0  0  0
   45.2690   36.4480   41.9890 H   0  0  0  0  0  0  0  0  0  0  0  0
   45.9940   33.1650   45.5560 H   0  0  0  0  0  0  0  0  0  0  0  0
   49.0950   35.6730   41.8500 C   0  0  0  0  0  0  0  0  0  0  0  0
   48.4680   36.3210   42.5090 H   0  0  0  0  0  0  0  0  0  0  0  0
   49.7770   36.2990   41.2360 H   0  0  0  0  0  0  0  0  0  0  0  0
   49.9260   34.7240   42.6710 C   0  0  0  0  0  0  0  0  0  0  0  0
   49.3340   34.5240   43.6080 H   0  0  0  0  0  0  0  0  0  0  0  0
   50.8280   35.2550   43.0250 H   0  0  0  0  0  0  0  0  0  0  0  0
   50.3070   33.4660   41.9600 C   0  0  1  0  0  0  0  0  0  0  0  0
   51.0390   32.3880   42.6260 C   0  0  0  0  0  0  0  0  0  0  0  0
   49.5660   32.2200   42.4660 C   0  0  2  0  0  0  0  0  0  0  0  0
   50.3920   33.5380   40.8470 H   0  0  0  0  0  0  0  0  0  0  0  0
   51.3680   32.5750   43.6690 H   0  0  0  0  0  0  0  0  0  0  0  0
   51.7650   31.8120   42.0250 H   0  0  0  0  0  0  0  0  0  0  0  0
   48.9220   32.3220   43.3700 H   0  0  0  0  0  0  0  0  0  0  0  0
   49.2050   31.2000   41.4260 C   0  0  0  0  0  0  0  0  0  0  0  0
   48.6290   29.9820   41.7750 C   0  0  0  0  0  0  0  0  0  0  0  0
   48.4120   29.1600   40.1050 S   0  0  0  0  0  0  0  0  0  0  0  0
   49.1590   30.6600   39.2560 C   0  0  0  0  0  0  0  0  0  0  0  0
   49.3390   30.8380   38.1550 H   0  0  0  0  0  0  0  0  0  0  0  0
   49.3890   31.3500   40.1300 N   0  0  0  0  0  0  0  0  0  0  0  0
  1 17  1  0  0  0  0
  2  1  2  0  0  0  0
  2 24  1  0  0  0  0
  3  2  1  0  0  0  0
  4  3  1  0  0  0  0
  4  9  1  0  0  0  0
  5  4  2  0  0  0  0
  6  5  1  0  0  0  0
  6  7  2  0  0  0  0
  7  8  1  0  0  0  0
  8  9  2  0  0  0  0
  8 14  1  0  0  0  0
  9  1  1  0  0  0  0
 10  3  1  0  0  0  0
 11  5  1  0  0  0  0
 12  6  1  0  0  0  0
 13  7  1  0  0  0  0
 15 21  1  0  0  0  0
 15 20  1  0  0  0  0
 16 15  2  0  0  0  0
 17 16  1  0  0  0  0
 17 18  2  0  0  0  0
 18 19  1  0  0  0  0
 19 20  2  0  0  0  0
 19 23  1  0  0  0  0
 22 16  1  0  0  0  0
 24 25  1  0  0  0  0
 24 27  1  0  0  0  0
 26 24  1  0  0  0  0
 27 29  1  0  0  0  0
 27 28  1  0  0  0  0
 30 33  1  6  0  0  0
 30 32  1  0  0  0  0
 30 31  1  0  0  0  0
 30 27  1  0  0  0  0
 31 34  1  0  0  0  0
 32 31  1  0  0  0  0
 32 36  1  1  0  0  0
 35 31  1  0  0  0  0
 37 38  2  0  0  0  0
 37 32  1  0  0  0  0
 39 38  1  0  0  0  0
 40 39  1  0  0  0  0
 40 42  2  0  0  0  0
 41 40  1  0  0  0  0
 42 37  1  0  0  0  0
M  END
>  <minimizedAffinity>
-5.71786833

>  <minimizedRMSD>
0.216029719

$$$$
