
 OpenBabel03232519053D

 42 43  0  0  1  0  0  0  0  0999 V2000
   44.6370   35.4100   45.4630 C   0  0  0  0  0  0  0  0  0  0  0  0
   44.5760   36.1000   44.2460 C   0  0  0  0  0  0  0  0  0  0  0  0
   45.4850   35.6350   43.2780 C   0  0  0  0  0  0  0  0  0  0  0  0
   45.7140   34.2900   43.3350 N   0  0  0  0  0  0  0  0  0  0  0  0
   45.8080   33.6830   44.5070 C   0  0  0  0  0  0  0  0  0  0  0  0
   45.2530   34.2370   45.6080 N   0  0  0  0  0  0  0  0  0  0  0  0
   46.4530   32.4650   44.5950 N   0  0  0  0  0  0  0  0  0  0  0  0
   45.9650   31.5590   45.6660 C   0  0  0  0  0  0  0  0  0  0  0  0
   46.8850   30.3860   45.9040 C   0  0  0  0  0  0  0  0  0  0  0  0
   48.0670   30.4460   45.2170 O   0  0  0  0  0  0  0  0  0  0  0  0
   47.8370   30.6530   43.8790 C   0  0  0  0  0  0  0  0  0  0  0  0
   47.5540   32.1320   43.7580 C   0  0  1  0  0  0  0  0  0  0  0  0
   44.0450   35.6010   46.3680 H   0  0  0  0  0  0  0  0  0  0  0  0
   43.8470   36.8720   44.2440 H   0  0  0  0  0  0  0  0  0  0  0  0
   45.3450   36.2680   42.3650 H   0  0  0  0  0  0  0  0  0  0  0  0
   46.4650   36.1880   43.6780 H   0  0  0  0  0  0  0  0  0  0  0  0
   45.6410   34.7430   42.5850 H   0  0  0  0  0  0  0  0  0  0  0  0
   45.9520   32.1750   46.5850 H   0  0  0  0  0  0  0  0  0  0  0  0
   44.9210   31.2570   45.4610 H   0  0  0  0  0  0  0  0  0  0  0  0
   47.1470   30.3390   46.9890 H   0  0  0  0  0  0  0  0  0  0  0  0
   46.3600   29.4530   45.6500 H   0  0  0  0  0  0  0  0  0  0  0  0
   48.6860   30.3360   43.2500 H   0  0  0  0  0  0  0  0  0  0  0  0
   46.9280   30.0840   43.5890 H   0  0  0  0  0  0  0  0  0  0  0  0
   48.4470   32.6400   44.1880 H   0  0  0  0  0  0  0  0  0  0  0  0
   47.1880   32.6620   42.5230 N   0  0  1  0  0  0  0  0  0  0  0  0
   45.9150   32.4610   42.1180 C   0  0  0  0  0  0  0  0  0  0  0  0
   45.8090   33.1080   40.7540 C   0  0  0  0  0  0  0  0  0  0  0  0
   47.0580   33.9960   40.6900 C   0  0  0  0  0  0  0  0  0  0  0  0
   47.6900   33.8150   42.0690 C   0  0  2  0  0  0  0  0  0  0  0  0
   46.1710   31.4180   41.7760 H   0  0  0  0  0  0  0  0  0  0  0  0
   45.0330   32.0510   42.5930 H   0  0  0  0  0  0  0  0  0  0  0  0
   44.9200   33.7710   40.6890 H   0  0  0  0  0  0  0  0  0  0  0  0
   45.7450   32.4490   39.8840 H   0  0  0  0  0  0  0  0  0  0  0  0
   47.6880   33.6900   39.8420 H   0  0  0  0  0  0  0  0  0  0  0  0
   46.8230   35.0570   40.4930 H   0  0  0  0  0  0  0  0  0  0  0  0
   48.2180   34.6710   42.4280 H   0  0  0  0  0  0  0  0  0  0  0  0
   49.0270   33.1500   41.7100 C   0  0  0  0  0  0  0  0  0  0  0  0
   49.0040   32.3100   40.4350 C   0  0  0  0  0  0  0  0  0  0  0  0
   50.6860   31.6930   40.3160 S   0  0  0  0  0  0  0  0  0  0  0  0
   51.2180   32.5590   41.8810 C   0  0  0  0  0  0  0  0  0  0  0  0
   52.0750   32.8010   42.6600 H   0  0  0  0  0  0  0  0  0  0  0  0
   50.2400   33.0970   42.2190 N   0  0  0  0  0  0  0  0  0  0  0  0
  1  6  2  0  0  0  0
  1 13  1  0  0  0  0
  2  1  1  0  0  0  0
  3 16  1  0  0  0  0
  4  5  2  0  0  0  0
  5  7  1  0  0  0  0
  5  6  1  0  0  0  0
  7  8  1  0  0  0  0
  8  9  1  0  0  0  0
  8 18  1  0  0  0  0
  9 20  1  0  0  0  0
 10  9  1  0  0  0  0
 11 10  1  0  0  0  0
 12 11  1  0  0  0  0
 12 24  1  1  0  0  0
 12  7  1  0  0  0  0
 14  2  1  0  0  0  0
 15  3  1  0  0  0  0
 17  4  1  0  0  0  0
 19  8  1  0  0  0  0
 21  9  1  0  0  0  0
 22 11  1  0  0  0  0
 23 11  1  0  0  0  0
 25 26  1  1  0  0  0
 25 12  1  0  0  0  0
 26 31  1  0  0  0  0
 27 26  1  0  0  0  0
 28 27  1  0  0  0  0
 28 29  1  0  0  0  0
 29 36  1  1  0  0  0
 29 25  1  0  0  0  0
 30 26  1  0  0  0  0
 32 27  1  0  0  0  0
 33 27  1  0  0  0  0
 34 28  1  0  0  0  0
 35 28  1  0  0  0  0
 37 29  1  0  0  0  0
 37 42  1  0  0  0  0
 38 37  2  0  0  0  0
 39 38  1  0  0  0  0
 39 40  1  0  0  0  0
 40 42  2  0  0  0  0
 40 41  1  0  0  0  0
M  END
>  <minimizedAffinity>
-4.98503065

>  <minimizedRMSD>
2.85543776

$$$$
