
 OpenBabel03232520573D

 34 36  0  0  1  0  0  0  0  0999 V2000
   46.3280   32.6330   44.1220 C   0  0  2  0  0  0  0  0  0  0  0  0
   46.5870   34.2020   44.0980 C   0  0  0  0  0  0  0  0  0  0  0  0
   46.0660   34.9370   42.9720 C   0  0  0  0  0  0  0  0  0  0  0  0
   45.3250   34.2550   41.9250 C   0  0  1  0  0  0  0  0  0  0  0  0
   45.2160   32.7730   42.0290 C   0  0  0  0  0  0  0  0  0  0  0  0
   45.0610   32.4290   43.5010 C   0  0  0  0  0  0  0  0  0  0  0  0
   47.2160   32.3860   43.4670 H   0  0  0  0  0  0  0  0  0  0  0  0
   47.0890   34.9110   44.7550 H   0  0  0  0  0  0  0  0  0  0  0  0
   46.1990   35.9890   42.8850 H   0  0  0  0  0  0  0  0  0  0  0  0
   45.7490   34.4980   40.9200 H   0  0  0  0  0  0  0  0  0  0  0  0
   44.2850   32.4610   41.5180 H   0  0  0  0  0  0  0  0  0  0  0  0
   46.0880   32.2250   41.6230 H   0  0  0  0  0  0  0  0  0  0  0  0
   44.3660   33.2830   43.8760 H   0  0  0  0  0  0  0  0  0  0  0  0
   44.4330   31.5860   43.5200 H   0  0  0  0  0  0  0  0  0  0  0  0
   46.3010   32.9670   46.5750 C   0  0  0  0  0  0  0  0  0  0  0  0
   46.5970   32.2210   45.4670 C   0  0  0  0  0  0  0  0  0  0  0  0
   47.1230   30.9640   45.7210 C   0  0  0  0  0  0  0  0  0  0  0  0
   47.3250   30.5120   46.9640 N   0  0  0  0  0  0  0  0  0  0  0  0
   47.0180   31.2880   48.0580 C   0  0  0  0  0  0  0  0  0  0  0  0
   46.5120   32.4980   47.8480 N   0  0  0  0  0  0  0  0  0  0  0  0
   47.2820   30.8120   49.3800 N   0  0  0  0  0  0  0  0  0  0  0  0
   45.8980   33.9420   46.4980 H   0  0  0  0  0  0  0  0  0  0  0  0
   48.0600   30.1600   49.5780 H   0  0  0  0  0  0  0  0  0  0  0  0
   46.6400   31.1660   50.1290 H   0  0  0  0  0  0  0  0  0  0  0  0
   47.6190   29.9260   44.8240 C   0  0  0  0  0  0  0  0  0  0  0  0
   46.8380   28.9010   44.2250 C   0  0  0  0  0  3  0  0  0  0  0  0
   48.1290   27.9180   43.3490 S   0  0  0  0  0  0  0  0  0  0  0  0
   49.4980   29.0850   43.9610 C   0  0  0  0  0  0  0  0  0  0  0  0
   50.6020   28.9610   43.7130 H   0  0  0  0  0  0  0  0  0  0  0  0
   48.9340   29.8470   44.5760 N   0  0  0  0  0  0  0  0  0  0  0  0
   43.8990   34.8620   41.8980 C   0  0  0  0  0  0  0  0  0  0  0  0
   43.5850   35.5510   43.0470 F   0  0  0  0  0  0  0  0  0  0  0  0
   43.8980   35.7930   40.8610 F   0  0  0  0  0  0  0  0  0  0  0  0
   42.9730   33.8930   41.5660 F   0  0  0  0  0  0  0  0  0  0  0  0
  1  7  1  6  0  0  0
  1 16  1  0  0  0  0
  2  1  1  0  0  0  0
  2  8  1  0  0  0  0
  3  2  2  0  0  0  0
  4 10  1  6  0  0  0
  4  5  1  0  0  0  0
  4  3  1  0  0  0  0
  5  6  1  0  0  0  0
  6 14  1  0  0  0  0
  6 13  1  0  0  0  0
  6  1  1  0  0  0  0
  9  3  1  0  0  0  0
 11  5  1  0  0  0  0
 12  5  1  0  0  0  0
 15 20  1  0  0  0  0
 16 17  1  0  0  0  0
 16 15  2  0  0  0  0
 17 18  2  0  0  0  0
 18 19  1  0  0  0  0
 19 21  1  0  0  0  0
 20 19  2  0  0  0  0
 21 23  1  0  0  0  0
 21 24  1  0  0  0  0
 22 15  1  0  0  0  0
 25 17  1  0  0  0  0
 26 25  2  0  0  0  0
 27 28  1  0  0  0  0
 27 26  1  0  0  0  0
 28 30  2  0  0  0  0
 29 28  1  0  0  0  0
 30 25  1  0  0  0  0
 31  4  1  0  0  0  0
 31 32  1  0  0  0  0
 33 31  1  0  0  0  0
 34 31  1  0  0  0  0
M  END
>  <minimizedAffinity>
-4.742764

>  <minimizedRMSD>
1.79026794

$$$$
