
 OpenBabel03232519063D

 30 32  0  0  0  0  0  0  0  0999 V2000
   45.5030   33.7170   46.0920 C   0  0  0  0  0  0  0  0  0  0  0  0
   44.6980   34.7630   46.3640 C   0  0  0  0  0  0  0  0  0  0  0  0
   44.4830   35.5540   44.7440 S   0  0  0  0  0  0  0  0  0  0  0  0
   45.5870   34.2540   43.9360 C   0  0  0  0  0  0  0  0  0  0  0  0
   45.8600   33.5930   44.8540 N   0  0  0  0  0  0  0  0  0  0  0  0
   44.2740   35.0610   47.3350 H   0  0  0  0  0  0  0  0  0  0  0  0
   45.4760   31.2930   49.0420 C   0  0  0  0  0  0  0  0  0  0  0  0
   45.0390   32.1610   48.0400 C   0  0  0  0  0  0  0  0  0  0  0  0
   45.9400   32.7820   47.1720 C   0  0  0  0  0  0  0  0  0  0  0  0
   47.2180   32.4670   47.3950 N   0  0  0  0  0  0  0  0  0  0  0  0
   47.6750   31.6420   48.3440 C   0  0  0  0  0  0  0  0  0  0  0  0
   46.7890   31.0750   49.1440 N   0  0  0  0  0  0  0  0  0  0  0  0
   44.6960   30.8700   49.6540 H   0  0  0  0  0  0  0  0  0  0  0  0
   43.9830   32.3720   47.9130 H   0  0  0  0  0  0  0  0  0  0  0  0
   48.7370   31.4460   48.4490 H   0  0  0  0  0  0  0  0  0  0  0  0
   45.9510   34.1930   42.4580 C   0  0  0  0  0  0  0  0  0  0  0  0
   44.6310   34.3680   41.7260 C   0  0  0  0  0  0  0  0  0  0  0  0
   43.7820   34.0660   42.3810 H   0  0  0  0  0  0  0  0  0  0  0  0
   44.6020   33.8790   40.7560 H   0  0  0  0  0  0  0  0  0  0  0  0
   44.5040   35.4600   41.5880 H   0  0  0  0  0  0  0  0  0  0  0  0
   46.5610   32.8460   42.2140 C   0  0  0  0  0  0  0  0  0  0  0  0
   46.2790   32.1100   43.0060 H   0  0  0  0  0  0  0  0  0  0  0  0
   46.2500   32.3770   41.2520 H   0  0  0  0  0  0  0  0  0  0  0  0
   47.6770   32.9170   42.2970 H   0  0  0  0  0  0  0  0  0  0  0  0
   46.8880   35.2950   42.1160 C   0  0  0  0  0  0  0  0  0  0  0  0
   46.3110   36.0150   41.4570 H   0  0  0  0  0  0  0  0  0  0  0  0
   47.0320   35.9060   43.0550 H   0  0  0  0  0  0  0  0  0  0  0  0
   48.2050   34.9380   41.5520 C   0  0  0  0  0  0  0  0  0  0  0  0
   48.7670   35.3500   40.2790 C   0  0  0  0  0  0  0  0  0  0  0  0
   49.2130   36.0930   41.4920 C   0  0  0  0  0  0  0  0  0  0  0  0
  1  2  2  0  0  0  0
  1  9  1  0  0  0  0
  2  6  1  0  0  0  0
  3  2  1  0  0  0  0
  4  3  1  0  0  0  0
  4  5  2  0  0  0  0
  5  1  1  0  0  0  0
  7 12  1  0  0  0  0
  7 13  1  0  0  0  0
  8  7  2  0  0  0  0
  9 10  2  0  0  0  0
  9  8  1  0  0  0  0
 10 11  1  0  0  0  0
 11 15  1  0  0  0  0
 11 12  2  0  0  0  0
 14  8  1  0  0  0  0
 16  4  1  0  0  0  0
 17 18  1  0  0  0  0
 17 16  1  0  0  0  0
 19 17  1  0  0  0  0
 20 17  1  0  0  0  0
 21 24  1  0  0  0  0
 21 16  1  0  0  0  0
 21 22  1  0  0  0  0
 23 21  1  0  0  0  0
 25 16  1  0  0  0  0
 25 27  1  0  0  0  0
 26 25  1  0  0  0  0
 28 25  1  0  0  0  0
 29 30  1  0  0  0  0
 29 28  1  0  0  0  0
 30 28  1  0  0  0  0
M  END
>  <minimizedAffinity>
-5.33785677

>  <minimizedRMSD>
2.29024386

$$$$
