
 OpenBabel03232520563D

 34 36  0  0  1  0  0  0  0  0999 V2000
   46.0910   33.6000   45.2640 C   0  0  2  0  0  0  0  0  0  0  0  0
   44.9740   34.7060   45.4970 C   0  0  0  0  0  0  0  0  0  0  0  0
   44.7370   35.6370   44.4210 C   0  0  0  0  0  0  0  0  0  0  0  0
   45.4890   35.5400   43.1810 C   0  0  1  0  0  0  0  0  0  0  0  0
   46.5590   34.5050   43.1200 C   0  0  0  0  0  0  0  0  0  0  0  0
   46.0580   33.2840   43.8730 C   0  0  0  0  0  0  0  0  0  0  0  0
   46.9470   34.2710   45.5710 H   0  0  0  0  0  0  0  0  0  0  0  0
   44.2960   34.9590   46.3110 H   0  0  0  0  0  0  0  0  0  0  0  0
   44.0060   36.4060   44.5020 H   0  0  0  0  0  0  0  0  0  0  0  0
   45.9470   36.5240   42.9200 H   0  0  0  0  0  0  0  0  0  0  0  0
   46.6870   34.2080   42.0600 H   0  0  0  0  0  0  0  0  0  0  0  0
   47.5230   34.8240   43.5560 H   0  0  0  0  0  0  0  0  0  0  0  0
   44.9360   33.2560   43.5670 H   0  0  0  0  0  0  0  0  0  0  0  0
   46.4650   32.4620   43.3620 H   0  0  0  0  0  0  0  0  0  0  0  0
   45.3380   32.8790   47.5100 C   0  0  0  0  0  0  0  0  0  0  0  0
   45.8700   32.6130   46.2780 C   0  0  0  0  0  0  0  0  0  0  0  0
   46.1280   31.2750   46.0200 C   0  0  0  0  0  0  0  0  0  0  0  0
   45.8710   30.3120   46.9130 N   0  0  0  0  0  0  0  0  0  0  0  0
   45.3360   30.6140   48.1440 C   0  0  0  0  0  0  0  0  0  0  0  0
   45.0780   31.8870   48.4230 N   0  0  0  0  0  0  0  0  0  0  0  0
   45.1100   29.5820   49.1080 N   0  0  0  0  0  0  0  0  0  0  0  0
   45.1050   33.8660   47.8130 H   0  0  0  0  0  0  0  0  0  0  0  0
   45.6980   28.7330   49.1420 H   0  0  0  0  0  0  0  0  0  0  0  0
   44.3160   29.7440   49.7710 H   0  0  0  0  0  0  0  0  0  0  0  0
   46.7450   30.6150   44.8750 C   0  0  0  0  0  0  0  0  0  0  0  0
   46.0640   29.8630   43.8800 C   0  0  0  0  0  3  0  0  0  0  0  0
   47.4690   29.2470   42.8560 S   0  0  0  0  0  0  0  0  0  0  0  0
   48.7290   30.1280   43.9720 C   0  0  0  0  0  0  0  0  0  0  0  0
   49.8550   30.0990   43.8110 H   0  0  0  0  0  0  0  0  0  0  0  0
   48.0800   30.6290   44.7520 N   0  0  0  0  0  0  0  0  0  0  0  0
   44.4690   35.2770   42.0430 C   0  0  0  0  0  0  0  0  0  0  0  0
   43.4150   34.4860   42.4370 F   0  0  0  0  0  0  0  0  0  0  0  0
   43.9350   36.5210   41.7130 F   0  0  0  0  0  0  0  0  0  0  0  0
   45.1190   34.8100   40.9190 F   0  0  0  0  0  0  0  0  0  0  0  0
  1  2  1  0  0  0  0
  1  7  1  1  0  0  0
  1 16  1  0  0  0  0
  2  8  1  0  0  0  0
  3  9  1  0  0  0  0
  3  2  2  0  0  0  0
  4 10  1  6  0  0  0
  4  3  1  0  0  0  0
  5  4  1  0  0  0  0
  5 12  1  0  0  0  0
  5  6  1  0  0  0  0
  6  1  1  0  0  0  0
 11  5  1  0  0  0  0
 13  6  1  0  0  0  0
 14  6  1  0  0  0  0
 15 22  1  0  0  0  0
 15 20  1  0  0  0  0
 16 15  2  0  0  0  0
 17 16  1  0  0  0  0
 17 18  2  0  0  0  0
 18 19  1  0  0  0  0
 19 20  2  0  0  0  0
 19 21  1  0  0  0  0
 21 23  1  0  0  0  0
 21 24  1  0  0  0  0
 25 17  1  0  0  0  0
 26 25  2  0  0  0  0
 27 26  1  0  0  0  0
 27 28  1  0  0  0  0
 28 30  2  0  0  0  0
 29 28  1  0  0  0  0
 30 25  1  0  0  0  0
 31 32  1  0  0  0  0
 31  4  1  0  0  0  0
 33 31  1  0  0  0  0
 34 31  1  0  0  0  0
M  END
>  <minimizedAffinity>
-5.57872725

>  <minimizedRMSD>
0.541976631

$$$$
