
 OpenBabel03232519163D

 33 35  0  0  1  0  0  0  0  0999 V2000
   44.5270   35.6340   43.4890 C   0  0  1  0  0  0  0  0  0  0  0  0
   43.6900   35.5650   44.2120 H   0  0  0  0  0  0  0  0  0  0  0  0
   45.5330   34.6290   43.8870 C   0  0  0  0  0  0  0  0  0  0  0  0
   46.5770   34.3230   42.9690 C   0  0  0  0  0  0  0  0  0  0  0  0
   47.5510   33.3740   43.3170 C   0  0  0  0  0  0  0  0  0  0  0  0
   47.4290   32.7980   44.5370 N   0  0  0  0  0  0  0  0  0  0  0  0
   46.4580   33.0930   45.3720 C   0  0  0  0  0  0  0  0  0  0  0  0
   45.5050   34.0040   45.0620 N   0  0  0  0  0  0  0  0  0  0  0  0
   46.6020   34.8240   42.0260 H   0  0  0  0  0  0  0  0  0  0  0  0
   48.3520   33.1280   42.6350 H   0  0  0  0  0  0  0  0  0  0  0  0
   46.3360   32.4640   46.6940 C   0  0  0  0  0  0  0  0  0  0  0  0
   47.3470   31.5830   47.1060 C   0  0  0  0  0  0  0  0  0  0  0  0
   46.7170   31.0880   48.7920 S   0  0  0  0  0  0  0  0  0  0  0  0
   45.2010   32.1770   48.6100 C   0  0  0  0  0  0  0  0  0  0  0  0
   45.3950   32.5960   47.5950 N   0  0  0  0  0  0  0  0  0  0  0  0
   48.2780   31.1900   46.7040 H   0  0  0  0  0  0  0  0  0  0  0  0
   44.2630   32.4430   49.2560 H   0  0  0  0  0  0  0  0  0  0  0  0
   45.1260   37.0350   43.5780 C   0  0  0  0  0  0  0  0  0  0  0  0
   45.8750   37.1100   42.7830 H   0  0  0  0  0  0  0  0  0  0  0  0
   45.5150   37.1870   44.5850 H   0  0  0  0  0  0  0  0  0  0  0  0
   44.2960   37.7290   43.3600 H   0  0  0  0  0  0  0  0  0  0  0  0
   43.9970   35.4140   42.1140 C   0  0  0  0  0  0  0  0  0  0  0  0
   43.9550   36.3800   41.5700 H   0  0  0  0  0  0  0  0  0  0  0  0
   44.6980   34.7820   41.4940 H   0  0  0  0  0  0  0  0  0  0  0  0
   42.7370   34.7620   42.0880 N   0  0  0  0  0  0  0  0  0  0  0  0
   42.3390   34.5350   43.0120 H   0  0  0  0  0  0  0  0  0  0  0  0
   39.0100   34.8750   38.6020 H   0  0  0  0  0  0  0  0  0  0  0  0
   39.9080   34.6250   39.0590 N   0  0  0  0  0  0  0  0  0  0  0  0
   39.7830   34.0560   40.3620 C   0  0  0  0  0  0  0  0  0  0  0  0
   40.3700   34.8860   41.4650 C   0  0  0  0  0  0  0  0  0  0  0  0
   41.7720   35.3600   41.1880 C   0  0  0  0  0  0  0  0  0  0  0  0
   42.1280   35.1340   39.7450 C   0  0  0  0  0  0  0  0  0  0  0  0
   40.9260   35.6230   38.9330 C   0  0  0  0  0  0  0  0  0  0  0  0
  1 18  1  0  0  0  0
  1  3  1  0  0  0  0
  1  2  1  1  0  0  0
  3  8  1  0  0  0  0
  4  5  1  0  0  0  0
  4  3  2  0  0  0  0
  5  6  2  0  0  0  0
  6  7  1  0  0  0  0
  7 11  1  0  0  0  0
  8  7  2  0  0  0  0
  9  4  1  0  0  0  0
 10  5  1  0  0  0  0
 11 12  2  0  0  0  0
 11 15  1  0  0  0  0
 12 13  1  0  0  0  0
 14 13  1  0  0  0  0
 14 17  1  0  0  0  0
 15 14  2  0  0  0  0
 16 12  1  0  0  0  0
 18 20  1  0  0  0  0
 19 18  1  0  0  0  0
 21 18  1  0  0  0  0
 22  1  1  0  0  0  0
 23 22  1  0  0  0  0
 24 22  1  0  0  0  0
 25 22  1  0  0  0  0
 25 26  1  0  0  0  0
 27 28  1  0  0  0  0
 28 29  1  0  0  0  0
 29 30  1  0  0  0  0
 31 30  1  0  0  0  0
 31 25  1  0  0  0  0
 32 31  1  0  0  0  0
 33 28  1  0  0  0  0
 33 32  1  0  0  0  0
M  END
>  <minimizedAffinity>
-5.52665663

>  <minimizedRMSD>
1.43231189

$$$$
