
 OpenBabel03232520423D

 40 43  0  0  1  0  0  0  0  0999 V2000
   38.0290   33.4780   40.0430 N   0  0  0  0  0  0  0  0  0  0  0  0
   38.8180   32.9070   41.0310 C   0  0  0  0  0  0  0  0  0  0  0  0
   39.9520   33.5700   41.6110 C   0  0  0  0  0  0  0  0  0  0  0  0
   40.6850   34.3690   40.5960 C   0  0  1  0  0  0  0  0  0  0  0  0
   39.7370   34.9740   39.6490 C   0  0  0  0  0  0  0  0  0  0  0  0
   38.8410   33.9910   38.9560 C   0  0  1  0  0  0  0  0  0  0  0  0
   37.3670   32.7680   39.6640 H   0  0  0  0  0  0  0  0  0  0  0  0
   39.1920   31.9180   40.6220 H   0  0  0  0  0  0  0  0  0  0  0  0
   38.1370   32.5570   41.8500 H   0  0  0  0  0  0  0  0  0  0  0  0
   40.6670   32.8380   42.0590 H   0  0  0  0  0  0  0  0  0  0  0  0
   39.5940   34.1530   42.5060 H   0  0  0  0  0  0  0  0  0  0  0  0
   41.3860   33.6660   40.0710 H   0  0  0  0  0  0  0  0  0  0  0  0
   40.3290   35.4710   38.8280 H   0  0  0  0  0  0  0  0  0  0  0  0
   39.1140   35.7270   40.1320 H   0  0  0  0  0  0  0  0  0  0  0  0
   38.2170   34.5090   38.2040 H   0  0  0  0  0  0  0  0  0  0  0  0
   39.5830   32.8420   38.3710 C   0  0  0  0  0  0  0  0  0  0  0  0
   38.9090   31.7120   37.8980 C   0  0  0  0  0  0  0  0  0  0  0  0
   39.8620   30.8180   37.4140 C   0  0  0  0  0  0  0  0  0  0  0  0
   41.0620   31.4640   37.6240 C   0  0  0  0  0  0  0  0  0  0  0  0
   41.9970   30.9940   37.3380 H   0  0  0  0  0  0  0  0  0  0  0  0
   40.8640   32.6270   38.1770 O   0  0  0  0  0  0  0  0  0  0  0  0
   41.5200   35.5940   41.5840 S   0  0  0  0  0  0  0  0  0  0  0  0
   44.0190   35.6370   42.8060 C   0  0  0  0  0  0  0  0  0  0  0  0
   43.2890   35.2280   41.6880 C   0  0  0  0  0  0  0  0  0  0  0  0
   43.9410   34.5500   40.6870 C   0  0  0  0  0  0  0  0  0  0  0  0
   45.2720   34.2980   40.8100 N   0  0  0  0  0  0  0  0  0  0  0  0
   45.9560   34.7080   41.9100 C   0  0  0  0  0  0  0  0  0  0  0  0
   45.3410   35.3750   42.9080 N   0  0  0  0  0  0  0  0  0  0  0  0
   43.4910   36.1740   43.5950 H   0  0  0  0  0  0  0  0  0  0  0  0
   43.4150   34.2240   39.8210 H   0  0  0  0  0  0  0  0  0  0  0  0
   47.3810   34.4610   42.0860 C   0  0  0  0  0  0  0  0  0  0  0  0
   48.2900   35.4610   41.9730 C   0  0  0  0  0  0  0  0  0  0  0  0
   49.6460   35.2350   42.1380 C   0  0  0  0  0  0  0  0  0  0  0  0
   50.1220   33.9770   42.4250 C   0  0  0  0  0  0  0  0  0  0  0  0
   49.1730   32.9720   42.5360 C   0  0  0  0  0  0  0  0  0  0  0  0
   47.8620   33.2230   42.3690 N   0  0  0  0  0  0  0  0  0  0  0  0
   47.9450   36.4630   41.7470 H   0  0  0  0  0  0  0  0  0  0  0  0
   50.3960   36.0120   42.0540 H   0  0  0  0  0  0  0  0  0  0  0  0
   51.1470   33.6640   42.5780 H   0  0  0  0  0  0  0  0  0  0  0  0
   49.4750   31.9480   42.7620 H   0  0  0  0  0  0  0  0  0  0  0  0
  1  2  1  0  0  0  0
  2  3  1  0  0  0  0
  2  9  1  0  0  0  0
  3 10  1  0  0  0  0
  3 11  1  0  0  0  0
  4 12  1  6  0  0  0
  4 22  1  0  0  0  0
  4  3  1  0  0  0  0
  5 14  1  0  0  0  0
  5  4  1  0  0  0  0
  6 15  1  6  0  0  0
  6  5  1  0  0  0  0
  6  1  1  0  0  0  0
  7  1  1  0  0  0  0
  8  2  1  0  0  0  0
 13  5  1  0  0  0  0
 16  6  1  0  0  0  0
 17 16  2  0  0  0  0
 18 19  2  0  0  0  0
 18 17  1  0  0  0  0
 19 21  1  0  0  0  0
 20 19  1  0  0  0  0
 21 16  1  0  0  0  0
 22 24  1  0  0  0  0
 23 28  1  0  0  0  0
 23 29  1  0  0  0  0
 24 23  2  0  0  0  0
 25 26  2  0  0  0  0
 25 24  1  0  0  0  0
 26 27  1  0  0  0  0
 27 31  1  0  0  0  0
 27 28  2  0  0  0  0
 30 25  1  0  0  0  0
 31 36  1  0  0  0  0
 32 31  2  0  0  0  0
 32 33  1  0  0  0  0
 33 34  2  0  0  0  0
 34 35  1  0  0  0  0
 34 39  1  0  0  0  0
 35 40  1  0  0  0  0
 36 35  2  0  0  0  0
 37 32  1  0  0  0  0
 38 33  1  0  0  0  0
M  END
>  <minimizedAffinity>
-6.57925129

>  <minimizedRMSD>
0.830780268

$$$$
