
 OpenBabel03232520093D

 22 24  0  0  0  0  0  0  0  0999 V2000
   46.0450   32.9420   45.9850 C   0  0  0  0  0  0  0  0  0  0  0  0
   45.6990   32.6810   47.2960 C   0  0  0  0  0  0  0  0  0  0  0  0
   46.1800   31.5570   47.8980 C   0  0  0  0  0  0  0  0  0  0  0  0
   47.0050   30.7440   47.1160 C   0  0  0  0  0  0  0  0  0  0  0  0
   47.0880   31.5750   45.5460 S   0  0  0  0  0  0  0  0  0  0  0  0
   45.0500   33.3930   47.7990 H   0  0  0  0  0  0  0  0  0  0  0  0
   45.9620   31.2750   48.9150 H   0  0  0  0  0  0  0  0  0  0  0  0
   44.4630   36.0130   44.7650 C   0  0  0  0  0  0  0  0  0  0  0  0
   45.0210   36.1120   43.4580 C   0  0  0  0  0  0  0  0  0  0  0  0
   45.9330   35.1100   43.0340 C   0  0  0  0  0  0  0  0  0  0  0  0
   46.2230   34.1010   43.9130 N   0  0  0  0  0  0  0  0  0  0  0  0
   45.6670   34.0540   45.1400 C   0  0  0  0  0  0  0  0  0  0  0  0
   44.7970   34.9940   45.5670 N   0  0  0  0  0  0  0  0  0  0  0  0
   43.7840   36.8120   45.0020 H   0  0  0  0  0  0  0  0  0  0  0  0
   44.8320   36.8700   42.7380 H   0  0  0  0  0  0  0  0  0  0  0  0
   46.3840   35.1330   42.0600 H   0  0  0  0  0  0  0  0  0  0  0  0
   47.6600   29.5080   47.4540 C   0  0  0  0  0  0  0  0  0  0  0  0
   48.8850   29.4040   48.0750 C   0  0  0  0  0  0  0  0  0  0  0  0
   49.0710   28.0220   48.1760 C   0  0  0  0  0  0  0  0  0  0  0  0
   47.9590   27.4040   47.6170 C   0  0  0  0  0  0  0  0  0  0  0  0
   47.9580   26.3180   47.6220 H   0  0  0  0  0  0  0  0  0  0  0  0
   47.1370   28.3360   47.1960 O   0  0  0  0  0  0  0  0  0  0  0  0
  1  2  2  0  0  0  0
  2  6  1  0  0  0  0
  2  3  1  0  0  0  0
  3  7  1  0  0  0  0
  4 17  1  0  0  0  0
  4  3  2  0  0  0  0
  5  1  1  0  0  0  0
  5  4  1  0  0  0  0
  8 14  1  0  0  0  0
  8 13  1  0  0  0  0
  9  8  2  0  0  0  0
 10  9  1  0  0  0  0
 10 11  2  0  0  0  0
 11 12  1  0  0  0  0
 12 13  2  0  0  0  0
 12  1  1  0  0  0  0
 15  9  1  0  0  0  0
 16 10  1  0  0  0  0
 17 18  2  0  0  0  0
 18 19  1  0  0  0  0
 20 21  1  0  0  0  0
 20 19  2  0  0  0  0
 22 17  1  0  0  0  0
 22 20  1  0  0  0  0
M  END
>  <minimizedAffinity>
-4.40379047

>  <minimizedRMSD>
1.40426278

$$$$
