REMARK  Name = 
REMARK  4 active torsions:
REMARK  status: ('A' for Active; 'I' for Inactive)
REMARK    1  A    between atoms: C_1  and  C_18
REMARK    2  A    between atoms: C_6  and  N_7
REMARK    3  A    between atoms: C_9  and  C_10
REMARK    4  A    between atoms: C_20  and  C_33
REMARK                            x       y       z     vdW  Elec       q    Type
REMARK                         _______ _______ _______ _____ _____    ______ ____
ROOT
ATOM      1  C   UNL     1      46.413  34.666  42.179  0.00  0.00    +0.000 A 
ATOM      2  C   UNL     1      47.724  35.019  42.035  0.00  0.00    +0.000 A 
ATOM      3  C   UNL     1      48.423  34.823  40.847  0.00  0.00    +0.000 A 
ATOM      4  C   UNL     1      47.767  34.240  39.747  0.00  0.00    +0.000 A 
ATOM      5  C   UNL     1      46.451  33.885  39.891  0.00  0.00    +0.000 A 
ATOM      6  C   UNL     1      45.795  34.102  41.101  0.00  0.00    +0.000 A 
ATOM      7  H   UNL     1      48.248  35.470  42.871  0.00  0.00    +0.000 HD
ATOM      8  H   UNL     1      49.460  35.134  40.824  0.00  0.00    +0.000 HD
ATOM      9  H   UNL     1      48.359  34.120  38.873  0.00  0.00    +0.000 HD
ATOM     10  H   UNL     1      45.951  33.440  39.050  0.00  0.00    +0.000 HD
ENDROOT
BRANCH   6  11
ATOM     11  N   UNL     1      44.432  33.718  41.203  0.00  0.00    +0.000 N 
ATOM     12  C   UNL     1      43.608  34.676  40.669  0.00  0.00    +0.000 A 
ATOM     13  C   UNL     1      42.229  34.507  40.663  0.00  0.00    +0.000 A 
ATOM     14  C   UNL     1      41.724  33.338  41.215  0.00  0.00    +0.000 A 
ATOM     15  O   UNL     1      40.485  33.121  41.242  0.00  0.00    +0.000 OA
ATOM     16  N   UNL     1      42.568  32.428  41.726  0.00  0.00    +0.000 N 
ATOM     17  C   UNL     1      43.895  32.604  41.725  0.00  0.00    +0.000 A 
ATOM     18  O   UNL     1      44.748  31.812  42.178  0.00  0.00    +0.000 OA
ATOM     19  H   UNL     1      43.928  35.598  40.228  0.00  0.00    +0.000 HD
ATOM     20  H   UNL     1      42.227  31.523  42.156  0.00  0.00    +0.000 HD
BRANCH  13  21
ATOM     21  C   UNL     1      41.306  35.526  40.092  0.00  0.00    +0.000 C 
ATOM     22  H   UNL     1      40.313  35.092  40.017  0.00  0.00    +0.000 HD
ATOM     23  H   UNL     1      41.647  35.869  39.093  0.00  0.00    +0.000 HD
ATOM     24  H   UNL     1      41.267  36.363  40.824  0.00  0.00    +0.000 HD
ENDBRANCH  13  21
ENDBRANCH   6  11
BRANCH   1  27
ATOM     25  C   UNL     1      44.424  36.139  45.012  0.00  0.00    +0.000 A 
ATOM     26  C   UNL     1      44.990  36.025  43.742  0.00  0.00    +0.000 A 
ATOM     27  C   UNL     1      45.767  34.910  43.456  0.00  0.00    +0.000 A 
ATOM     28  N   UNL     1      45.928  34.002  44.425  0.00  0.00    +0.000 NA
ATOM     29  C   UNL     1      45.370  34.126  45.656  0.00  0.00    +0.000 A 
ATOM     30  N   UNL     1      44.614  35.209  45.938  0.00  0.00    +0.000 NA
ATOM     31  H   UNL     1      43.817  37.023  45.215  0.00  0.00    +0.000 HD
ATOM     32  H   UNL     1      44.857  36.760  42.965  0.00  0.00    +0.000 HD
BRANCH  29  33
ATOM     33  C   UNL     1      45.635  33.054  46.610  0.00  0.00    +0.000 A 
ATOM     34  C   UNL     1      46.485  32.038  46.238  0.00  0.00    +0.000 A 
ATOM     35  C   UNL     1      46.568  31.152  47.314  0.00  0.00    +0.000 A 
ATOM     36  C   UNL     1      45.740  31.709  48.289  0.00  0.00    +0.000 A 
ATOM     37  H   UNL     1      45.505  31.352  49.297  0.00  0.00    +0.000 HD
ATOM     38  O   UNL     1      45.209  32.833  47.831  0.00  0.00    +0.000 OA
ENDBRANCH  29  33
ENDBRANCH   1  27
TORSDOF 4
