
     RDKit          3D

 40 43  0  0  0  0  0  0  0  0999 V2000
   46.4135   34.6657   42.1789 C   0  0  0  0  0  0  0  0  0  0  0  0
   47.7238   35.0194   42.0355 C   0  0  0  0  0  0  0  0  0  0  0  0
   48.4226   34.8229   40.8468 C   0  0  0  0  0  0  0  0  0  0  0  0
   47.7673   34.2403   39.7473 C   0  0  0  0  0  0  0  0  0  0  0  0
   46.4514   33.8850   39.8913 C   0  0  0  0  0  0  0  0  0  0  0  0
   45.7952   34.1019   41.1007 C   0  0  0  0  0  0  0  0  0  0  0  0
   44.4317   33.7180   41.2029 N   0  0  0  0  0  0  0  0  0  0  0  0
   43.6083   34.6763   40.6688 C   0  0  0  0  0  0  0  0  0  0  0  0
   42.2291   34.5068   40.6628 C   0  0  0  0  0  0  0  0  0  0  0  0
   41.3061   35.5255   40.0920 C   0  0  0  0  0  0  0  0  0  0  0  0
   41.7240   33.3381   41.2146 C   0  0  0  0  0  0  0  0  0  0  0  0
   40.4854   33.1208   41.2418 O   0  0  0  0  0  0  0  0  0  0  0  0
   42.5677   32.4281   41.7258 N   0  0  0  0  0  0  0  0  0  0  0  0
   43.8949   32.6043   41.7250 C   0  0  0  0  0  0  0  0  0  0  0  0
   44.7476   31.8125   42.1776 O   0  0  0  0  0  0  0  0  0  0  0  0
   44.4236   36.1387   45.0119 C   0  0  0  0  0  0  0  0  0  0  0  0
   44.9901   36.0247   43.7422 C   0  0  0  0  0  0  0  0  0  0  0  0
   45.7670   34.9095   43.4563 C   0  0  0  0  0  0  0  0  0  0  0  0
   45.9278   34.0019   44.4247 N   0  0  0  0  0  0  0  0  0  0  0  0
   45.3705   34.1261   45.6555 C   0  0  0  0  0  0  0  0  0  0  0  0
   44.6142   35.2086   45.9385 N   0  0  0  0  0  0  0  0  0  0  0  0
   48.2479   35.4702   42.8713 H   0  0  0  0  0  0  0  0  0  0  0  0
   49.4600   35.1342   40.8237 H   0  0  0  0  0  0  0  0  0  0  0  0
   48.3593   34.1198   38.8731 H   0  0  0  0  0  0  0  0  0  0  0  0
   45.9511   33.4397   39.0503 H   0  0  0  0  0  0  0  0  0  0  0  0
   43.9275   35.5984   40.2282 H   0  0  0  0  0  0  0  0  0  0  0  0
   40.3129   35.0924   40.0168 H   0  0  0  0  0  0  0  0  0  0  0  0
   41.6465   35.8690   39.0935 H   0  0  0  0  0  0  0  0  0  0  0  0
   41.2665   36.3634   40.8238 H   0  0  0  0  0  0  0  0  0  0  0  0
   42.2266   31.5235   42.1562 H   0  0  0  0  0  0  0  0  0  0  0  0
   43.8166   37.0235   45.2148 H   0  0  0  0  0  0  0  0  0  0  0  0
   44.8568   36.7598   42.9655 H   0  0  0  0  0  0  0  0  0  0  0  0
   45.6350   33.0539   46.6098 C   0  0  0  0  0  0  0  0  0  0  0  0
   46.7027   32.2169   46.3791 C   0  0  0  0  0  0  0  0  0  0  0  0
   46.7368   31.2910   47.4233 C   0  0  0  0  0  0  0  0  0  0  0  0
   45.6582   31.6414   48.2355 C   0  0  0  0  0  0  0  0  0  0  0  0
   45.3048   31.1868   49.1677 H   0  0  0  0  0  0  0  0  0  0  0  0
   45.0337   32.6892   47.7175 O   0  0  0  0  0  0  0  0  0  0  0  0
   47.4344   32.1805   45.5927 H   0  0  0  0  0  0  0  0  0  0  0  0
   47.3774   30.4536   47.6770 H   0  0  0  0  0  0  0  0  0  0  0  0
  1 18  1  0
  2  1  2  0
  3  2  1  0
  4  5  1  0
  4  3  2  0
  5  6  2  0
  6  7  1  0
  6  1  1  0
  7 14  1  0
  8  7  1  0
  9  8  2  0
  9 11  1  0
 10  9  1  0
 11 12  2  0
 11 13  1  0
 14 13  1  0
 14 15  2  0
 16 21  2  0
 17 16  1  0
 18 17  2  0
 18 19  1  0
 19 20  2  0
 20 21  1  0
  2 22  1  0
  3 23  1  0
  4 24  1  0
  5 25  1  0
  8 26  1  0
 10 27  1  0
 10 28  1  0
 10 29  1  0
 13 30  1  0
 16 31  1  0
 17 32  1  0
 33 34  2  0
 34 35  1  0
 35 36  2  0
 36 37  1  0
 36 38  1  0
 38 33  1  0
 34 39  1  0
 35 40  1  0
 20 33  1  0
M  ISO  8  22  14  23  14  24  14  25  14  26  14  27   8  28   8  29   8
M  ISO  4  30   9  31  14  32  14  37  14
M  END
>  <DihAtoms>  (1) 
18,19,32,33

>  <DihDeg>  (1) 
-116.22045348408344

$$$$
