
 OpenBabel03232519573D

 22 24  0  0  0  0  0  0  0  0999 V2000
   44.1100   33.9090   41.5660 N   0  0  0  0  0  0  0  0  0  0  0  0
   44.8870   33.8370   40.4850 C   0  0  0  0  0  0  0  0  0  0  0  0
   43.9990   33.5370   39.4070 C   0  0  0  0  0  0  0  0  0  0  0  0
   42.7460   33.4500   39.8800 N   0  0  0  0  0  0  0  0  0  0  0  0
   42.7970   33.6770   41.2040 C   0  0  0  0  0  0  0  0  0  0  0  0
   44.1360   33.3790   38.3620 H   0  0  0  0  0  0  0  0  0  0  0  0
   41.9560   33.6790   41.8810 H   0  0  0  0  0  0  0  0  0  0  0  0
   44.1650   35.4390   43.4010 C   0  0  0  0  0  0  0  0  0  0  0  0
   44.4900   34.1270   42.8910 C   0  0  0  0  0  0  0  0  0  0  0  0
   45.1260   33.2140   43.7490 C   0  0  0  0  0  0  0  0  0  0  0  0
   45.4160   33.5980   45.0240 N   0  0  0  0  0  0  0  0  0  0  0  0
   45.0930   34.8520   45.4710 C   0  0  0  0  0  0  0  0  0  0  0  0
   44.4720   35.7670   44.6670 N   0  0  0  0  0  0  0  0  0  0  0  0
   43.6790   36.1730   42.7910 H   0  0  0  0  0  0  0  0  0  0  0  0
   45.3550   32.2370   43.4240 H   0  0  0  0  0  0  0  0  0  0  0  0
   45.3800   35.0180   46.4960 H   0  0  0  0  0  0  0  0  0  0  0  0
   46.2860   34.0050   40.1880 C   0  0  0  0  0  0  0  0  0  0  0  0
   47.3580   34.5500   40.8330 C   0  0  0  0  0  0  0  0  0  0  0  0
   48.5230   34.4820   40.1250 C   0  0  0  0  0  0  0  0  0  0  0  0
   48.1000   33.8540   38.9850 C   0  0  0  0  0  0  0  0  0  0  0  0
   48.6190   33.5480   38.0810 H   0  0  0  0  0  0  0  0  0  0  0  0
   46.8260   33.6040   39.0660 O   0  0  0  0  0  0  0  0  0  0  0  0
  1  9  1  0  0  0  0
  2  1  1  0  0  0  0
  3  4  1  0  0  0  0
  3  2  2  0  0  0  0
  4  5  2  0  0  0  0
  5  1  1  0  0  0  0
  5  7  1  0  0  0  0
  6  3  1  0  0  0  0
  8 13  1  0  0  0  0
  9  8  2  0  0  0  0
  9 10  1  0  0  0  0
 10 11  2  0  0  0  0
 11 12  1  0  0  0  0
 12 16  1  0  0  0  0
 13 12  2  0  0  0  0
 14  8  1  0  0  0  0
 15 10  1  0  0  0  0
 17  2  1  0  0  0  0
 17 18  2  0  0  0  0
 19 18  1  0  0  0  0
 20 22  1  0  0  0  0
 20 19  2  0  0  0  0
 21 20  1  0  0  0  0
 22 17  1  0  0  0  0
M  END
>  <minimizedAffinity>
-4.0415411

>  <minimizedRMSD>
1.73436344

$$$$
