
 OpenBabel03232514413D

 34 37  0  0  1  0  0  0  0  0999 V2000
   45.1750   32.8190   47.6170 C   0  0  0  0  0  0  0  0  0  0  0  0
   45.7220   32.5250   46.3810 C   0  0  0  0  0  0  0  0  0  0  0  0
   46.2040   31.2000   46.1550 C   0  0  0  0  0  0  0  0  0  0  0  0
   46.1160   30.2920   47.1340 N   0  0  0  0  0  0  0  0  0  0  0  0
   45.5710   30.6190   48.3450 C   0  0  0  0  0  0  0  0  0  0  0  0
   45.1040   31.8740   48.5830 N   0  0  0  0  0  0  0  0  0  0  0  0
   44.7670   33.7290   47.9790 H   0  0  0  0  0  0  0  0  0  0  0  0
   45.4900   29.8860   49.1670 H   0  0  0  0  0  0  0  0  0  0  0  0
   45.8620   33.5970   45.3910 C   0  0  2  0  0  0  0  0  0  0  0  0
   44.9810   34.7740   45.8260 C   0  0  0  0  0  0  0  0  0  0  0  0
   44.4970   35.6980   44.8330 C   0  0  0  0  0  0  0  0  0  0  0  0
   44.8770   35.4950   43.4240 C   0  0  0  0  0  0  0  0  0  0  0  0
   45.8580   34.4340   43.1560 C   0  0  0  0  0  0  0  0  0  0  0  0
   45.5170   33.2180   44.0130 C   0  0  0  0  0  0  0  0  0  0  0  0
   46.9240   33.9080   45.3630 H   0  0  0  0  0  0  0  0  0  0  0  0
   44.5930   35.1400   46.7500 H   0  0  0  0  0  0  0  0  0  0  0  0
   43.8810   36.5390   45.0500 H   0  0  0  0  0  0  0  0  0  0  0  0
   43.9370   35.2730   42.8560 H   0  0  0  0  0  0  0  0  0  0  0  0
   45.2550   36.4620   43.0290 H   0  0  0  0  0  0  0  0  0  0  0  0
   45.8740   34.1950   42.0920 H   0  0  0  0  0  0  0  0  0  0  0  0
   46.8710   34.7650   43.4650 H   0  0  0  0  0  0  0  0  0  0  0  0
   46.1470   32.4580   43.5840 H   0  0  0  0  0  0  0  0  0  0  0  0
   44.4470   33.0160   43.8830 H   0  0  0  0  0  0  0  0  0  0  0  0
   46.7650   30.5790   44.9950 C   0  0  0  0  0  0  0  0  0  0  0  0
   48.0450   30.6910   44.7010 N   0  0  0  0  0  0  0  0  0  0  0  0
   48.2610   30.0280   43.5970 O   0  0  0  0  0  0  0  0  0  0  0  0
   47.2060   29.4770   43.1310 C   0  0  0  0  0  0  0  0  0  0  0  0
   46.2370   29.7970   43.9790 N   0  0  0  0  0  0  0  0  0  0  0  0
   47.0010   28.6580   41.9370 C   0  0  0  0  0  0  0  0  0  0  0  0
   47.3650   27.3320   41.7280 C   0  0  0  0  0  0  0  0  0  0  0  0
   46.9530   27.0240   40.4510 C   0  0  0  0  0  0  0  0  0  0  0  0
   46.3570   28.1680   39.9380 C   0  0  0  0  0  0  0  0  0  0  0  0
   45.9420   28.2010   38.9390 H   0  0  0  0  0  0  0  0  0  0  0  0
   46.4060   29.1060   40.8440 O   0  0  0  0  0  0  0  0  0  0  0  0
  1  7  1  0  0  0  0
  1  6  1  0  0  0  0
  2  1  2  0  0  0  0
  3  2  1  0  0  0  0
  3  4  2  0  0  0  0
  4  5  1  0  0  0  0
  5  6  2  0  0  0  0
  5  8  1  0  0  0  0
  9 15  1  1  0  0  0
  9 10  1  0  0  0  0
  9  2  1  0  0  0  0
 10 16  1  0  0  0  0
 11 17  1  0  0  0  0
 11 10  2  0  0  0  0
 12 11  1  0  0  0  0
 13 12  1  0  0  0  0
 13 21  1  0  0  0  0
 13 14  1  0  0  0  0
 14  9  1  0  0  0  0
 18 12  1  0  0  0  0
 19 12  1  0  0  0  0
 20 13  1  0  0  0  0
 22 14  1  0  0  0  0
 23 14  1  0  0  0  0
 24  3  1  0  0  0  0
 25 24  2  0  0  0  0
 26 25  1  0  0  0  0
 27 26  1  0  0  0  0
 27 28  2  0  0  0  0
 28 24  1  0  0  0  0
 29 27  1  0  0  0  0
 30 29  2  0  0  0  0
 31 30  1  0  0  0  0
 32 31  2  0  0  0  0
 32 34  1  0  0  0  0
 33 32  1  0  0  0  0
 34 29  1  0  0  0  0
M  END
>  <minimizedAffinity>
-3.9581151

>  <minimizedRMSD>
0.106673025

$$$$
