
 OpenBabel03232516143D

 41 44  0  0  1  0  0  0  0  0999 V2000
   40.9460   33.6480   39.4220 C   0  0  2  0  0  0  0  0  0  0  0  0
   40.5360   34.2370   38.1050 C   0  0  0  0  0  0  0  0  0  0  0  0
   39.1960   33.8130   37.5990 C   0  0  0  0  0  0  0  0  0  0  0  0
   38.1250   34.0940   38.6030 C   0  0  0  0  0  0  0  0  0  0  0  0
   38.7220   34.4260   39.9670 C   0  0  0  0  0  0  0  0  0  0  0  0
   39.7520   33.4490   40.2590 C   0  0  1  0  0  0  0  0  0  0  0  0
   41.4010   32.6580   39.2150 H   0  0  0  0  0  0  0  0  0  0  0  0
   41.3330   34.1520   37.3400 H   0  0  0  0  0  0  0  0  0  0  0  0
   40.4560   35.3490   38.2880 H   0  0  0  0  0  0  0  0  0  0  0  0
   39.0240   34.5080   36.6920 H   0  0  0  0  0  0  0  0  0  0  0  0
   39.1410   32.8260   37.1370 H   0  0  0  0  0  0  0  0  0  0  0  0
   37.4840   34.9240   38.2370 H   0  0  0  0  0  0  0  0  0  0  0  0
   37.4130   33.2310   38.7050 H   0  0  0  0  0  0  0  0  0  0  0  0
   37.8580   34.2290   40.6800 H   0  0  0  0  0  0  0  0  0  0  0  0
   38.8460   35.4730   39.9480 H   0  0  0  0  0  0  0  0  0  0  0  0
   39.9690   33.5300   41.3630 H   0  0  0  0  0  0  0  0  0  0  0  0
   42.3460   34.4770   41.4980 C   0  0  1  0  0  0  0  0  0  0  0  0
   41.5870   35.6970   40.9100 C   0  0  0  0  0  0  0  0  0  0  0  0
   41.9460   34.5660   40.1090 C   0  0  2  0  0  0  0  0  0  0  0  0
   41.8590   33.9770   42.3490 H   0  0  0  0  0  0  0  0  0  0  0  0
   40.7740   35.9640   41.5330 H   0  0  0  0  0  0  0  0  0  0  0  0
   42.2110   36.6380   40.7670 H   0  0  0  0  0  0  0  0  0  0  0  0
   42.8140   34.7040   39.3940 H   0  0  0  0  0  0  0  0  0  0  0  0
   46.0270   34.6300   41.3960 C   0  0  0  0  0  0  0  0  0  0  0  0
   46.3480   35.2560   42.6120 C   0  0  0  0  0  0  0  0  0  0  0  0
   45.2770   35.6390   43.4620 C   0  0  0  0  0  0  0  0  0  0  0  0
   44.0100   35.3780   43.0550 N   0  0  0  0  0  0  0  0  0  0  0  0
   43.7570   34.7760   41.8830 C   0  0  0  0  0  0  0  0  0  0  0  0
   44.7510   34.3920   41.0340 N   0  0  0  0  0  0  0  0  0  0  0  0
   47.3610   35.4450   42.8960 H   0  0  0  0  0  0  0  0  0  0  0  0
   45.5180   36.1210   44.3980 H   0  0  0  0  0  0  0  0  0  0  0  0
   47.1500   34.2190   40.5120 C   0  0  0  0  0  0  0  0  0  0  0  0
   46.7900   33.3590   39.9220 H   0  0  0  0  0  0  0  0  0  0  0  0
   47.4650   34.9950   39.8140 H   0  0  0  0  0  0  0  0  0  0  0  0
   47.9730   33.8620   41.1560 H   0  0  0  0  0  0  0  0  0  0  0  0
   39.2460   32.0640   40.1330 C   0  0  0  0  0  0  0  0  0  0  0  0
   38.1960   31.6210   40.9610 C   0  0  0  0  0  0  0  0  0  0  0  0
   37.8410   30.2830   40.7080 C   0  0  0  0  0  0  0  0  0  0  0  0
   38.7310   29.9780   39.7000 C   0  0  0  0  0  0  0  0  0  0  0  0
   38.8610   29.0340   39.1490 H   0  0  0  0  0  0  0  0  0  0  0  0
   39.4780   30.9920   39.4240 O   0  0  0  0  0  0  0  0  0  0  0  0
  1  7  1  6  0  0  0
  1 19  1  0  0  0  0
  1  6  1  0  0  0  0
  2  9  1  0  0  0  0
  2  1  1  0  0  0  0
  3  2  1  0  0  0  0
  3  4  1  0  0  0  0
  4 13  1  0  0  0  0
  4  5  1  0  0  0  0
  5  6  1  0  0  0  0
  5 14  1  0  0  0  0
  6 16  1  1  0  0  0
  8  2  1  0  0  0  0
 10  3  1  0  0  0  0
 11  3  1  0  0  0  0
 12  4  1  0  0  0  0
 15  5  1  0  0  0  0
 17 28  1  0  0  0  0
 17 20  1  1  0  0  0
 18 17  1  0  0  0  0
 18 21  1  0  0  0  0
 19 23  1  6  0  0  0
 19 18  1  0  0  0  0
 19 17  1  0  0  0  0
 22 18  1  0  0  0  0
 24 25  1  0  0  0  0
 25 30  1  0  0  0  0
 25 26  2  0  0  0  0
 26 31  1  0  0  0  0
 27 26  1  0  0  0  0
 28 27  2  0  0  0  0
 29 24  2  0  0  0  0
 29 28  1  0  0  0  0
 32 35  1  0  0  0  0
 32 24  1  0  0  0  0
 33 32  1  0  0  0  0
 34 32  1  0  0  0  0
 36  6  1  0  0  0  0
 36 37  2  0  0  0  0
 38 37  1  0  0  0  0
 39 38  2  0  0  0  0
 40 39  1  0  0  0  0
 41 39  1  0  0  0  0
 41 36  1  0  0  0  0
M  END
>  <minimizedAffinity>
-5.82932711

>  <minimizedRMSD>
1.23940504

$$$$
