
 OpenBabel03232520573D

 34 36  0  0  1  0  0  0  0  0999 V2000
   46.1520   33.5400   45.2760 C   0  0  2  0  0  0  0  0  0  0  0  0
   45.0620   34.6780   45.5060 C   0  0  0  0  0  0  0  0  0  0  0  0
   44.8210   35.5810   44.4130 C   0  0  0  0  0  0  0  0  0  0  0  0
   45.5520   35.4440   43.1570 C   0  0  1  0  0  0  0  0  0  0  0  0
   46.5870   34.3950   43.1080 C   0  0  0  0  0  0  0  0  0  0  0  0
   46.0700   33.1940   43.8960 C   0  0  0  0  0  0  0  0  0  0  0  0
   47.0290   34.2030   45.5380 H   0  0  0  0  0  0  0  0  0  0  0  0
   44.4130   34.9610   46.3260 H   0  0  0  0  0  0  0  0  0  0  0  0
   44.1030   36.3680   44.4990 H   0  0  0  0  0  0  0  0  0  0  0  0
   45.9980   36.4280   42.8970 H   0  0  0  0  0  0  0  0  0  0  0  0
   46.8510   34.1470   42.0820 H   0  0  0  0  0  0  0  0  0  0  0  0
   47.5110   34.7380   43.6280 H   0  0  0  0  0  0  0  0  0  0  0  0
   44.9210   33.2270   43.6370 H   0  0  0  0  0  0  0  0  0  0  0  0
   46.3780   32.3680   43.3450 H   0  0  0  0  0  0  0  0  0  0  0  0
   45.1950   32.8020   47.4450 C   0  0  0  0  0  0  0  0  0  0  0  0
   45.9400   32.5840   46.3140 C   0  0  0  0  0  0  0  0  0  0  0  0
   46.4190   31.3030   46.1910 C   0  0  0  0  0  0  0  0  0  0  0  0
   46.1480   30.3560   47.1230 N   0  0  0  0  0  0  0  0  0  0  0  0
   45.4090   30.6050   48.2270 C   0  0  0  0  0  0  0  0  0  0  0  0
   44.9310   31.8320   48.3890 N   0  0  0  0  0  0  0  0  0  0  0  0
   45.1770   29.5840   49.1800 N   0  0  0  0  0  0  0  0  0  0  0  0
   44.7700   33.7670   47.6610 H   0  0  0  0  0  0  0  0  0  0  0  0
   45.4230   29.6900   50.2030 H   0  0  0  0  0  0  0  0  0  0  0  0
   44.7520   28.6540   48.9610 H   0  0  0  0  0  0  0  0  0  0  0  0
   47.4710   30.8050   45.2730 C   0  0  0  0  0  0  0  0  0  0  0  0
   48.3800   29.7930   45.5940 C   0  0  0  0  0  0  0  0  0  0  0  0
   49.2360   29.5350   44.5520 C   0  0  0  0  0  0  0  0  0  0  0  0
   48.7990   30.4280   43.6110 C   0  0  0  0  0  0  0  0  0  0  0  0
   49.2260   30.5460   42.6160 H   0  0  0  0  0  0  0  0  0  0  0  0
   47.8100   31.1070   44.0790 O   0  0  0  0  0  0  0  0  0  0  0  0
   44.5030   35.1820   42.0470 C   0  0  0  0  0  0  0  0  0  0  0  0
   43.4780   34.3660   42.4550 F   0  0  0  0  0  0  0  0  0  0  0  0
   43.9350   36.4200   41.7470 F   0  0  0  0  0  0  0  0  0  0  0  0
   45.1360   34.7300   40.9000 F   0  0  0  0  0  0  0  0  0  0  0  0
  1  2  1  0  0  0  0
  1  7  1  1  0  0  0
  1 16  1  0  0  0  0
  2  8  1  0  0  0  0
  3  9  1  0  0  0  0
  3  2  2  0  0  0  0
  4 10  1  6  0  0  0
  4  3  1  0  0  0  0
  5  4  1  0  0  0  0
  5 12  1  0  0  0  0
  5  6  1  0  0  0  0
  6  1  1  0  0  0  0
 11  5  1  0  0  0  0
 13  6  1  0  0  0  0
 14  6  1  0  0  0  0
 15 22  1  0  0  0  0
 15 20  1  0  0  0  0
 16 15  2  0  0  0  0
 17 16  1  0  0  0  0
 17 18  2  0  0  0  0
 18 19  1  0  0  0  0
 19 20  2  0  0  0  0
 19 21  1  0  0  0  0
 21 23  1  0  0  0  0
 24 21  1  0  0  0  0
 25 26  2  0  0  0  0
 25 17  1  0  0  0  0
 27 26  1  0  0  0  0
 28 30  1  0  0  0  0
 28 27  2  0  0  0  0
 29 28  1  0  0  0  0
 30 25  1  0  0  0  0
 31 32  1  0  0  0  0
 31  4  1  0  0  0  0
 33 31  1  0  0  0  0
 34 31  1  0  0  0  0
M  END
>  <minimizedAffinity>
-5.78466082

>  <minimizedRMSD>
0.296697676

$$$$
