
 OpenBabel03232520123D

 37 40  0  0  1  0  0  0  0  0999 V2000
   49.2680   29.0420   48.9640 N   0  0  0  0  0  0  0  0  0  0  0  0
   49.5040   27.7550   48.3940 C   0  0  0  0  0  0  0  0  0  0  0  0
   50.9650   27.3920   48.3520 C   0  0  0  0  0  0  0  0  0  0  0  0
   51.6990   27.8870   49.5730 C   0  0  0  0  0  0  0  0  0  0  0  0
   50.7510   28.2460   50.6960 C   0  0  0  0  0  0  0  0  0  0  0  0
   49.8710   29.3550   50.2370 C   0  0  1  0  0  0  0  0  0  0  0  0
   49.1590   27.7760   47.3230 H   0  0  0  0  0  0  0  0  0  0  0  0
   48.8820   26.9490   48.8660 H   0  0  0  0  0  0  0  0  0  0  0  0
   51.0690   26.2960   48.3060 H   0  0  0  0  0  0  0  0  0  0  0  0
   51.4410   27.8070   47.4210 H   0  0  0  0  0  0  0  0  0  0  0  0
   52.2450   28.8080   49.2950 H   0  0  0  0  0  0  0  0  0  0  0  0
   52.4190   27.0900   49.9170 H   0  0  0  0  0  0  0  0  0  0  0  0
   51.3160   28.4770   51.6080 H   0  0  0  0  0  0  0  0  0  0  0  0
   50.1160   27.3430   50.9310 H   0  0  0  0  0  0  0  0  0  0  0  0
   49.0560   29.5800   50.9880 H   0  0  0  0  0  0  0  0  0  0  0  0
   47.2130   31.9630   47.0460 C   0  0  0  0  0  0  0  0  0  0  0  0
   47.0760   31.9850   48.4090 C   0  0  0  0  0  0  0  0  0  0  0  0
   47.7240   31.0500   49.1570 C   0  0  0  0  0  0  0  0  0  0  0  0
   48.4840   30.1340   48.4500 C   0  0  0  0  0  0  0  0  0  0  0  0
   48.2830   30.5950   46.7490 S   0  0  0  0  0  0  0  0  0  0  0  0
   46.4440   32.7620   48.8630 H   0  0  0  0  0  0  0  0  0  0  0  0
   47.6890   30.9730   50.2240 H   0  0  0  0  0  0  0  0  0  0  0  0
   45.0710   34.4760   45.4320 C   0  0  0  0  0  0  0  0  0  0  0  0
   45.5680   34.4620   44.1140 C   0  0  0  0  0  0  0  0  0  0  0  0
   46.6390   33.5810   43.8120 C   0  0  0  0  0  0  0  0  0  0  0  0
   47.1510   32.7770   44.8060 N   0  0  0  0  0  0  0  0  0  0  0  0
   46.6310   32.8360   46.0550 C   0  0  0  0  0  0  0  0  0  0  0  0
   45.6170   33.6670   46.3510 N   0  0  0  0  0  0  0  0  0  0  0  0
   44.2610   35.1340   45.6840 H   0  0  0  0  0  0  0  0  0  0  0  0
   45.1640   35.0930   43.3340 H   0  0  0  0  0  0  0  0  0  0  0  0
   47.0650   33.5230   42.8130 H   0  0  0  0  0  0  0  0  0  0  0  0
   50.6800   30.5890   50.0560 C   0  0  0  0  0  0  0  0  0  0  0  0
   50.7280   31.6320   50.9600 C   0  0  0  0  0  0  0  0  0  0  0  0
   51.5610   32.6230   50.5050 C   0  0  0  0  0  0  0  0  0  0  0  0
   52.0070   32.1430   49.3080 C   0  0  0  0  0  0  0  0  0  0  0  0
   52.6950   32.5900   48.5810 H   0  0  0  0  0  0  0  0  0  0  0  0
   51.4760   30.9880   49.1040 O   0  0  0  0  0  0  0  0  0  0  0  0
  1  6  1  0  0  0  0
  2  8  1  0  0  0  0
  2  1  1  0  0  0  0
  3  2  1  0  0  0  0
  3  4  1  0  0  0  0
  4 12  1  0  0  0  0
  4  5  1  0  0  0  0
  5 14  1  0  0  0  0
  5 13  1  0  0  0  0
  6  5  1  0  0  0  0
  6 15  1  1  0  0  0
  7  2  1  0  0  0  0
  9  3  1  0  0  0  0
 10  3  1  0  0  0  0
 11  4  1  0  0  0  0
 16 17  2  0  0  0  0
 17 21  1  0  0  0  0
 17 18  1  0  0  0  0
 18 22  1  0  0  0  0
 19  1  1  0  0  0  0
 19 18  2  0  0  0  0
 20 16  1  0  0  0  0
 20 19  1  0  0  0  0
 23 29  1  0  0  0  0
 23 28  1  0  0  0  0
 24 23  2  0  0  0  0
 25 24  1  0  0  0  0
 25 26  2  0  0  0  0
 26 27  1  0  0  0  0
 27 28  2  0  0  0  0
 27 16  1  0  0  0  0
 30 24  1  0  0  0  0
 31 25  1  0  0  0  0
 32  6  1  0  0  0  0
 32 33  2  0  0  0  0
 34 33  1  0  0  0  0
 35 34  2  0  0  0  0
 36 35  1  0  0  0  0
 37 35  1  0  0  0  0
 37 32  1  0  0  0  0
M  END
>  <minimizedAffinity>
-4.54812717

>  <minimizedRMSD>
2.33491731

$$$$
