
     RDKit          3D

 36 38  0  0  0  0  0  0  0  0999 V2000
   46.1414   33.6462   45.3099 C   0  0  2  0  0  0  0  0  0  0  0  0
   44.9542   34.6936   45.4777 C   0  0  0  0  0  0  0  0  0  0  0  0
   44.7117   35.5874   44.3773 C   0  0  0  0  0  0  0  0  0  0  0  0
   45.5267   35.5186   43.1678 C   0  0  1  0  0  0  0  0  0  0  0  0
   46.6412   34.5543   43.1779 C   0  0  0  0  0  0  0  0  0  0  0  0
   46.1725   33.3091   43.9257 C   0  0  0  0  0  0  0  0  0  0  0  0
   45.2957   32.8883   47.5182 C   0  0  0  0  0  0  0  0  0  0  0  0
   45.9405   32.6662   46.3283 C   0  0  0  0  0  0  0  0  0  0  0  0
   46.3207   31.3616   46.1257 C   0  0  0  0  0  0  0  0  0  0  0  0
   46.0554   30.3989   47.0429 N   0  0  0  0  0  0  0  0  0  0  0  0
   45.4158   30.6532   48.2072 C   0  0  0  0  0  0  0  0  0  0  0  0
   45.0364   31.9021   48.4455 N   0  0  0  0  0  0  0  0  0  0  0  0
   45.1851   29.6128   49.1390 N   0  0  0  0  0  0  0  0  0  0  0  0
   44.5715   35.1882   41.9928 C   0  0  0  0  0  0  0  0  0  0  0  0
   43.5840   34.2992   42.3351 F   0  0  0  0  0  0  0  0  0  0  0  0
   43.9371   36.3839   41.6580 F   0  0  0  0  0  0  0  0  0  0  0  0
   45.3070   34.7884   40.8890 F   0  0  0  0  0  0  0  0  0  0  0  0
   46.9455   34.3716   45.6291 H   0  0  0  0  0  0  0  0  0  0  0  0
   44.2356   34.9178   46.2571 H   0  0  0  0  0  0  0  0  0  0  0  0
   43.9315   36.3154   44.4217 H   0  0  0  0  0  0  0  0  0  0  0  0
   45.9109   36.5366   42.9415 H   0  0  0  0  0  0  0  0  0  0  0  0
   46.9872   34.3368   42.1692 H   0  0  0  0  0  0  0  0  0  0  0  0
   47.5015   34.9615   43.7561 H   0  0  0  0  0  0  0  0  0  0  0  0
   45.0420   33.2559   43.5961 H   0  0  0  0  0  0  0  0  0  0  0  0
   46.5763   32.5144   43.3907 H   0  0  0  0  0  0  0  0  0  0  0  0
   44.9547   33.8702   47.7982 H   0  0  0  0  0  0  0  0  0  0  0  0
   45.5109   29.6629   50.1443 H   0  0  0  0  0  0  0  0  0  0  0  0
   44.6830   28.7216   48.9207 H   0  0  0  0  0  0  0  0  0  0  0  0
   47.2666   30.8327   45.1150 C   0  0  0  0  0  0  0  0  0  0  0  0
   48.1861   29.8075   45.3587 C   0  0  0  0  0  0  0  0  0  0  0  0
   48.9290   29.5205   44.2403 C   0  0  0  0  0  0  0  0  0  0  0  0
   48.4166   30.4091   43.3346 C   0  0  0  0  0  0  0  0  0  0  0  0
   48.7434   30.5059   42.3013 H   0  0  0  0  0  0  0  0  0  0  0  0
   47.4903   31.1127   43.8891 O   0  0  0  0  0  0  0  0  0  0  0  0
   48.3264   29.2723   46.3149 H   0  0  0  0  0  0  0  0  0  0  0  0
   49.6932   28.7789   44.1726 H   0  0  0  0  0  0  0  0  0  0  0  0
  1  2  1  0
  1  8  1  0
  3  2  2  0
  4  5  1  0
  4  3  1  0
  5  6  1  0
  6  1  1  0
  7 12  2  0
  8  7  1  0
  9  8  2  0
  9 10  1  0
 10 11  2  0
 11 12  1  0
 11 13  1  0
 14 15  1  0
 14  4  1  0
 16 14  1  0
 17 14  1  0
  1 18  1  1
  2 19  1  0
  3 20  1  0
  4 21  1  6
  5 22  1  0
  5 23  1  0
  6 24  1  0
  6 25  1  0
  7 26  1  0
 13 27  1  0
 13 28  1  0
 29 30  2  0
 30 31  1  0
 31 32  2  0
 32 33  1  0
 32 34  1  0
 34 29  1  0
 30 35  1  0
 31 36  1  0
  9 29  1  0
M  ISO  8  18  13  19  13  20  13  21  13  22  13  23  13  24  13  25  13
M  ISO  2  26  14  33  14
M  END
>  <DihAtoms>  (1) 
7,8,28,29

>  <DihDeg>  (1) 
-159.04603194349392

$$$$
