
 OpenBabel03232517043D

 24 25  0  0  1  0  0  0  0  0999 V2000
   44.5740   34.9800   42.3940 C   0  0  1  0  0  0  0  0  0  0  0  0
   44.2240   33.9720   42.7110 H   0  0  0  0  0  0  0  0  0  0  0  0
   45.8470   34.7330   41.6640 C   0  0  0  0  0  0  0  0  0  0  0  0
   47.0070   35.2760   42.2550 C   0  0  0  0  0  0  0  0  0  0  0  0
   48.2360   35.0760   41.6140 C   0  0  0  0  0  0  0  0  0  0  0  0
   48.2340   34.3520   40.4360 N   0  0  0  0  0  0  0  0  0  0  0  0
   47.0950   33.8460   39.9050 C   0  0  0  0  0  0  0  0  0  0  0  0
   45.9350   34.0440   40.5210 N   0  0  0  0  0  0  0  0  0  0  0  0
   47.1570   35.8370   43.1390 H   0  0  0  0  0  0  0  0  0  0  0  0
   49.1960   35.4350   41.9550 H   0  0  0  0  0  0  0  0  0  0  0  0
   47.1330   33.2840   38.9810 H   0  0  0  0  0  0  0  0  0  0  0  0
   44.8220   35.7370   43.6840 C   0  0  0  0  0  0  0  0  0  0  0  0
   44.0580   35.5400   44.4360 H   0  0  0  0  0  0  0  0  0  0  0  0
   44.9820   36.7980   43.4610 H   0  0  0  0  0  0  0  0  0  0  0  0
   45.7710   35.3300   44.0990 H   0  0  0  0  0  0  0  0  0  0  0  0
   43.5610   35.6620   41.5060 C   0  0  0  0  0  0  0  0  0  0  0  0
   44.1280   35.9920   40.6030 H   0  0  0  0  0  0  0  0  0  0  0  0
   43.1950   36.5740   42.0040 H   0  0  0  0  0  0  0  0  0  0  0  0
   42.4310   34.7490   41.1090 C   0  0  0  0  0  0  0  0  0  0  0  0
   42.2160   34.6430   39.6480 C   0  0  0  0  0  0  0  0  0  0  0  0
   40.7700   34.1620   39.4500 C   0  0  0  0  0  0  0  0  0  0  0  0
   39.8050   35.2970   39.6580 C   0  0  0  0  0  0  0  0  0  0  0  0
   40.4360   36.2080   40.7050 C   0  0  0  0  0  0  0  0  0  0  0  0
   41.1610   35.3350   41.7160 C   0  0  0  0  0  0  0  0  0  0  0  0
  1  2  1  1  0  0  0
  1 12  1  0  0  0  0
  3  4  1  0  0  0  0
  3  1  1  0  0  0  0
  4  9  1  0  0  0  0
  5 10  1  0  0  0  0
  5  4  2  0  0  0  0
  6  5  1  0  0  0  0
  7  6  2  0  0  0  0
  7  8  1  0  0  0  0
  8  3  2  0  0  0  0
 11  7  1  0  0  0  0
 12 15  1  0  0  0  0
 12 13  1  0  0  0  0
 14 12  1  0  0  0  0
 16 18  1  0  0  0  0
 16  1  1  0  0  0  0
 17 16  1  0  0  0  0
 19 16  1  0  0  0  0
 19 24  1  0  0  0  0
 20 19  1  0  0  0  0
 21 20  1  0  0  0  0
 21 22  1  0  0  0  0
 22 23  1  0  0  0  0
 23 24  1  0  0  0  0
M  END
>  <minimizedAffinity>
-4.91755438

>  <minimizedRMSD>
3.26143384

$$$$
