
 OpenBabel03232520153D

 31 33  0  0  0  0  0  0  0  0999 V2000
   47.4960   34.0520   42.3550 C   0  0  0  0  0  0  0  0  0  0  0  0
   48.2960   35.2150   41.7980 C   0  0  0  0  0  0  0  0  0  0  0  0
   49.6620   35.3520   42.3550 C   0  0  0  0  0  0  0  0  0  0  0  0
   50.4160   34.0620   42.4410 C   0  0  0  0  0  0  0  0  0  0  0  0
   49.5810   32.8440   42.1890 C   0  0  0  0  0  0  0  0  0  0  0  0
   48.2990   32.9870   43.0010 C   0  0  0  0  0  0  0  0  0  0  0  0
   47.7630   36.1650   41.8340 H   0  0  0  0  0  0  0  0  0  0  0  0
   48.4180   34.9950   40.6970 H   0  0  0  0  0  0  0  0  0  0  0  0
   49.5550   35.7370   43.4070 H   0  0  0  0  0  0  0  0  0  0  0  0
   50.1800   36.1410   41.8060 H   0  0  0  0  0  0  0  0  0  0  0  0
   51.0190   33.9880   43.3820 H   0  0  0  0  0  0  0  0  0  0  0  0
   51.1890   34.1000   41.6210 H   0  0  0  0  0  0  0  0  0  0  0  0
   49.3360   32.7630   41.1180 H   0  0  0  0  0  0  0  0  0  0  0  0
   50.1860   31.9720   42.5430 H   0  0  0  0  0  0  0  0  0  0  0  0
   47.7420   32.0420   43.0020 H   0  0  0  0  0  0  0  0  0  0  0  0
   48.5640   33.2590   44.0420 H   0  0  0  0  0  0  0  0  0  0  0  0
   45.3250   34.3310   45.3380 C   0  0  0  0  0  0  0  0  0  0  0  0
   44.5590   35.4740   45.0690 C   0  0  0  0  0  0  0  0  0  0  0  0
   44.8010   36.1360   43.8650 C   0  0  0  0  0  0  0  0  0  0  0  0
   45.7460   35.6630   43.0150 N   0  0  0  0  0  0  0  0  0  0  0  0
   46.4650   34.5560   43.3100 C   0  0  0  0  0  0  0  0  0  0  0  0
   46.2530   33.8940   44.4710 N   0  0  0  0  0  0  0  0  0  0  0  0
   45.1810   33.7790   46.2560 H   0  0  0  0  0  0  0  0  0  0  0  0
   43.8270   35.8070   45.7720 H   0  0  0  0  0  0  0  0  0  0  0  0
   44.2330   37.0310   43.6060 H   0  0  0  0  0  0  0  0  0  0  0  0
   46.6940   33.4080   41.2550 C   0  0  0  0  0  0  0  0  0  0  0  0
   46.9050   33.8790   39.9540 C   0  0  0  0  0  0  0  0  0  0  0  0
   46.0590   33.1390   39.1260 C   0  0  0  0  0  0  0  0  0  0  0  0
   45.4030   32.2790   39.9850 C   0  0  0  0  0  0  0  0  0  0  0  0
   44.6720   31.5710   39.6310 H   0  0  0  0  0  0  0  0  0  0  0  0
   45.7970   32.4650   41.2050 O   0  0  0  0  0  0  0  0  0  0  0  0
  1  6  1  0  0  0  0
  1 21  1  0  0  0  0
  2  7  1  0  0  0  0
  2  1  1  0  0  0  0
  2  3  1  0  0  0  0
  3  4  1  0  0  0  0
  3  9  1  0  0  0  0
  4 11  1  0  0  0  0
  5  4  1  0  0  0  0
  5 14  1  0  0  0  0
  5  6  1  0  0  0  0
  6 15  1  0  0  0  0
  6 16  1  0  0  0  0
  8  2  1  0  0  0  0
 10  3  1  0  0  0  0
 12  4  1  0  0  0  0
 13  5  1  0  0  0  0
 17 23  1  0  0  0  0
 18 17  1  0  0  0  0
 18 24  1  0  0  0  0
 19 18  2  0  0  0  0
 20 21  2  0  0  0  0
 20 19  1  0  0  0  0
 21 22  1  0  0  0  0
 22 17  2  0  0  0  0
 25 19  1  0  0  0  0
 26  1  1  0  0  0  0
 27 26  2  0  0  0  0
 28 27  1  0  0  0  0
 28 29  2  0  0  0  0
 29 31  1  0  0  0  0
 30 29  1  0  0  0  0
 31 26  1  0  0  0  0
M  END
>  <minimizedAffinity>
-5.33615303

>  <minimizedRMSD>
0.729431629

$$$$
