
 OpenBabel03232520583D

 38 40  0  0  1  0  0  0  0  0999 V2000
   45.3830   32.9060   47.5140 C   0  0  0  0  0  0  0  0  0  0  0  0
   45.9250   32.6490   46.2980 C   0  0  0  0  0  0  0  0  0  0  0  0
   46.1810   31.2970   46.0470 C   0  0  0  0  0  0  0  0  0  0  0  0
   45.9170   30.3030   46.9310 N   0  0  0  0  0  0  0  0  0  0  0  0
   45.3610   30.6170   48.1630 C   0  0  0  0  0  0  0  0  0  0  0  0
   45.1120   31.8970   48.4210 N   0  0  0  0  0  0  0  0  0  0  0  0
   45.0860   29.6050   49.1140 N   0  0  0  0  0  0  0  0  0  0  0  0
   45.1500   33.9170   47.8100 H   0  0  0  0  0  0  0  0  0  0  0  0
   44.1770   29.2420   49.4340 H   0  0  0  0  0  0  0  0  0  0  0  0
   46.0270   29.2960   49.4340 H   0  0  0  0  0  0  0  0  0  0  0  0
   46.1700   33.6010   45.2680 C   0  0  2  0  0  0  0  0  0  0  0  0
   44.9480   34.6850   45.4930 C   0  0  0  0  0  0  0  0  0  0  0  0
   44.7210   35.6170   44.4240 C   0  0  0  0  0  0  0  0  0  0  0  0
   45.5240   35.5510   43.2030 C   0  0  1  0  0  0  0  0  0  0  0  0
   46.5870   34.5550   43.1590 C   0  0  0  0  0  0  0  0  0  0  0  0
   46.1450   33.3170   43.9040 C   0  0  0  0  0  0  0  0  0  0  0  0
   46.9330   34.3610   45.6110 H   0  0  0  0  0  0  0  0  0  0  0  0
   44.2640   34.8250   46.3210 H   0  0  0  0  0  0  0  0  0  0  0  0
   43.9480   36.3320   44.5300 H   0  0  0  0  0  0  0  0  0  0  0  0
   45.9410   36.5610   43.0070 H   0  0  0  0  0  0  0  0  0  0  0  0
   47.4970   34.9320   43.6600 H   0  0  0  0  0  0  0  0  0  0  0  0
   46.8670   34.3660   42.1020 H   0  0  0  0  0  0  0  0  0  0  0  0
   45.2140   32.8890   43.4780 H   0  0  0  0  0  0  0  0  0  0  0  0
   46.9990   32.6700   43.5700 H   0  0  0  0  0  0  0  0  0  0  0  0
   44.5140   35.2770   42.0480 C   0  0  0  0  0  0  0  0  0  0  0  0
   43.4610   34.4670   42.4370 F   0  0  0  0  0  0  0  0  0  0  0  0
   43.9570   36.5070   41.7150 F   0  0  0  0  0  0  0  0  0  0  0  0
   45.1960   34.8260   40.9340 F   0  0  0  0  0  0  0  0  0  0  0  0
   46.8090   30.6040   44.9350 C   0  0  0  0  0  0  0  0  0  0  0  0
   46.4510   29.8600   43.8580 C   0  0  0  0  0  0  0  0  0  0  0  0
   47.6170   29.4550   43.1980 C   0  0  0  0  0  0  0  0  0  0  0  0
   48.6230   29.9720   43.9040 N   0  0  0  0  0  0  0  0  0  0  0  0
   48.1720   30.6520   44.9300 N   0  0  0  0  0  0  0  0  0  0  0  0
   45.3900   29.7090   43.6920 H   0  0  0  0  0  0  0  0  0  0  0  0
   47.5410   28.8560   42.3200 H   0  0  0  0  0  0  0  0  0  0  0  0
   50.0200   29.7530   43.5060 C   0  0  0  0  0  2  0  0  0  0  0  0
   50.5090   30.9090   42.6500 C   0  0  0  0  0  2  0  0  0  0  0  0
   51.0070   30.5350   41.7290 H   0  0  0  0  0  0  0  0  0  0  0  0
  1  8  1  0  0  0  0
  1  6  1  0  0  0  0
  2  1  2  0  0  0  0
  3  2  1  0  0  0  0
  3  4  2  0  0  0  0
  4  5  1  0  0  0  0
  5  6  2  0  0  0  0
  5  7  1  0  0  0  0
  7  9  1  0  0  0  0
  7 10  1  0  0  0  0
 11 12  1  0  0  0  0
 11 17  1  1  0  0  0
 11  2  1  0  0  0  0
 12 18  1  0  0  0  0
 13 19  1  0  0  0  0
 13 12  2  0  0  0  0
 14 20  1  6  0  0  0
 14 13  1  0  0  0  0
 15 14  1  0  0  0  0
 15 21  1  0  0  0  0
 15 16  1  0  0  0  0
 16 11  1  0  0  0  0
 22 15  1  0  0  0  0
 23 16  1  0  0  0  0
 24 16  1  0  0  0  0
 25 26  1  0  0  0  0
 25 14  1  0  0  0  0
 27 25  1  0  0  0  0
 28 25  1  0  0  0  0
 29  3  1  0  0  0  0
 30 29  1  0  0  0  0
 31 30  2  0  0  0  0
 31 32  1  0  0  0  0
 32 33  1  0  0  0  0
 33 29  2  0  0  0  0
 34 30  1  0  0  0  0
 35 31  1  0  0  0  0
 36 32  1  0  0  0  0
 37 36  1  0  0  0  0
 38 37  1  0  0  0  0
M  END
>  <minimizedAffinity>
-5.52507257

>  <minimizedRMSD>
0.0806666389

$$$$
