
 OpenBabel03232519063D

 33 34  0  0  0  0  0  0  0  0999 V2000
   45.9300   34.2030   42.2650 C   0  0  0  0  0  0  0  0  0  0  0  0
   45.4980   33.8140   45.8960 C   0  0  0  0  0  0  0  0  0  0  0  0
   44.6840   34.8740   46.1470 C   0  0  0  0  0  0  0  0  0  0  0  0
   44.4710   35.6170   44.5020 S   0  0  0  0  0  0  0  0  0  0  0  0
   45.5870   34.2840   43.7160 C   0  0  0  0  0  0  0  0  0  0  0  0
   45.8380   33.6780   44.6650 N   0  0  0  0  0  0  0  0  0  0  0  0
   44.2380   35.2310   47.1090 H   0  0  0  0  0  0  0  0  0  0  0  0
   45.4960   31.6240   49.0190 C   0  0  0  0  0  0  0  0  0  0  0  0
   45.0750   32.4670   48.0020 C   0  0  0  0  0  0  0  0  0  0  0  0
   45.9330   32.9110   46.9930 C   0  0  0  0  0  0  0  0  0  0  0  0
   47.1740   32.4400   47.1210 N   0  0  0  0  0  0  0  0  0  0  0  0
   47.6250   31.6290   48.0800 C   0  0  0  0  0  0  0  0  0  0  0  0
   46.7650   31.2450   49.0050 N   0  0  0  0  0  0  0  0  0  0  0  0
   44.7850   31.3120   49.7770 H   0  0  0  0  0  0  0  0  0  0  0  0
   44.0310   32.8110   47.9680 H   0  0  0  0  0  0  0  0  0  0  0  0
   48.6710   31.3400   48.0340 H   0  0  0  0  0  0  0  0  0  0  0  0
   44.8340   34.8930   41.5160 C   0  0  0  0  0  0  0  0  0  0  0  0
   45.1340   35.9380   41.3110 H   0  0  0  0  0  0  0  0  0  0  0  0
   44.7390   34.3930   40.5160 H   0  0  0  0  0  0  0  0  0  0  0  0
   43.8540   34.9010   42.0550 H   0  0  0  0  0  0  0  0  0  0  0  0
   46.0280   32.7350   41.9300 C   0  0  0  0  0  0  0  0  0  0  0  0
   45.1160   32.3920   41.4230 H   0  0  0  0  0  0  0  0  0  0  0  0
   46.9100   32.6140   41.2500 H   0  0  0  0  0  0  0  0  0  0  0  0
   46.2230   32.1260   42.8330 H   0  0  0  0  0  0  0  0  0  0  0  0
   47.2490   34.8890   42.0000 C   0  0  0  0  0  0  0  0  0  0  0  0
   47.2060   35.9560   42.2770 H   0  0  0  0  0  0  0  0  0  0  0  0
   47.4870   34.7410   40.9200 H   0  0  0  0  0  0  0  0  0  0  0  0
   48.2850   34.1920   42.7460 N   0  0  0  0  0  0  0  0  0  0  0  0
   48.0850   33.7430   43.6810 H   0  0  0  0  0  0  0  0  0  0  0  0
   49.5920   34.1370   42.1660 C   0  0  0  0  0  0  0  0  0  0  0  0
   50.5670   34.8260   42.5560 O   0  0  0  0  0  0  0  0  0  0  0  0
   49.7420   33.2420   41.0990 O   0  0  0  0  0  0  0  0  0  0  0  0
   50.6680   32.9010   40.8380 H   0  0  0  0  0  0  0  0  0  0  0  0
  1  5  1  0  0  0  0
  2  3  2  0  0  0  0
  2 10  1  0  0  0  0
  3  7  1  0  0  0  0
  4  3  1  0  0  0  0
  5  4  1  0  0  0  0
  5  6  2  0  0  0  0
  6  2  1  0  0  0  0
  8 14  1  0  0  0  0
  9  8  2  0  0  0  0
 10 11  2  0  0  0  0
 10  9  1  0  0  0  0
 11 12  1  0  0  0  0
 12 13  2  0  0  0  0
 13  8  1  0  0  0  0
 15  9  1  0  0  0  0
 16 12  1  0  0  0  0
 17 20  1  0  0  0  0
 17  1  1  0  0  0  0
 18 17  1  0  0  0  0
 19 17  1  0  0  0  0
 21  1  1  0  0  0  0
 21 24  1  0  0  0  0
 22 21  1  0  0  0  0
 23 21  1  0  0  0  0
 25  1  1  0  0  0  0
 25 26  1  0  0  0  0
 25 28  1  0  0  0  0
 27 25  1  0  0  0  0
 28 29  1  0  0  0  0
 30 31  2  0  0  0  0
 30 28  1  0  0  0  0
 32 30  1  0  0  0  0
 33 32  1  0  0  0  0
M  END
>  <minimizedAffinity>
-5.16645479

>  <minimizedRMSD>
2.1856637

$$$$
