
 OpenBabel03232519163D

 33 34  0  0  1  0  0  0  0  0999 V2000
   44.5060   35.6460   43.1470 C   0  0  1  0  0  0  0  0  0  0  0  0
   43.5950   35.5420   43.7940 H   0  0  0  0  0  0  0  0  0  0  0  0
   45.4860   34.6540   43.6370 C   0  0  0  0  0  0  0  0  0  0  0  0
   46.6930   34.4840   42.9060 C   0  0  0  0  0  0  0  0  0  0  0  0
   47.6680   33.5600   43.3210 C   0  0  0  0  0  0  0  0  0  0  0  0
   47.3800   32.8580   44.4440 N   0  0  0  0  0  0  0  0  0  0  0  0
   46.2360   33.0210   45.1340 C   0  0  0  0  0  0  0  0  0  0  0  0
   45.2800   33.9150   44.7430 N   0  0  0  0  0  0  0  0  0  0  0  0
   46.9130   35.0350   42.0280 H   0  0  0  0  0  0  0  0  0  0  0  0
   48.5730   33.4410   42.7620 H   0  0  0  0  0  0  0  0  0  0  0  0
   45.9530   32.2410   46.3380 C   0  0  0  0  0  0  0  0  0  0  0  0
   46.0560   30.8330   46.2670 C   0  0  0  0  0  0  0  0  0  0  0  0
   45.6010   30.3810   48.0070 S   0  0  0  0  0  0  0  0  0  0  0  0
   45.3640   32.1920   48.4810 C   0  0  0  0  0  0  0  0  0  0  0  0
   45.6050   32.6690   47.5040 N   0  0  0  0  0  0  0  0  0  0  0  0
   46.3600   30.2070   45.3070 H   0  0  0  0  0  0  0  0  0  0  0  0
   45.0330   32.2520   49.6660 H   0  0  0  0  0  0  0  0  0  0  0  0
   45.0430   37.0250   43.2760 C   0  0  0  0  0  0  0  0  0  0  0  0
   44.4410   37.7770   42.7380 H   0  0  0  0  0  0  0  0  0  0  0  0
   46.1120   37.1240   43.0100 H   0  0  0  0  0  0  0  0  0  0  0  0
   44.9600   37.3030   44.3620 H   0  0  0  0  0  0  0  0  0  0  0  0
   44.0630   35.3400   41.7470 C   0  0  0  0  0  0  0  0  0  0  0  0
   44.6940   34.4920   41.3570 H   0  0  0  0  0  0  0  0  0  0  0  0
   44.3360   36.1960   41.0980 H   0  0  0  0  0  0  0  0  0  0  0  0
   42.6930   35.0500   41.5780 N   0  0  0  0  0  0  0  0  0  0  0  0
   41.5280   34.2830   41.8140 C   0  0  1  0  0  0  0  0  0  0  0  0
   41.0890   35.4840   41.9290 O   0  0  0  0  0  0  0  0  0  0  0  0
   42.0980   35.2200   40.3580 C   0  0  0  0  0  0  0  0  0  0  0  0
   40.9770   35.9730   40.3290 F   0  0  0  0  0  0  0  0  0  0  0  0
   41.6720   33.8720   40.0210 F   0  0  0  0  0  0  0  0  0  0  0  0
   42.9790   35.6080   39.3460 F   0  0  0  0  0  0  0  0  0  0  0  0
   40.1810   34.4080   42.1040 O   0  0  0  0  0  0  0  0  0  0  0  0
   39.5600   33.6240   41.8640 H   0  0  0  0  0  0  0  0  0  0  0  0
  1 18  1  0  0  0  0
  1  3  1  0  0  0  0
  1  2  1  1  0  0  0
  3  8  1  0  0  0  0
  4  5  1  0  0  0  0
  4  3  2  0  0  0  0
  5  6  2  0  0  0  0
  6  7  1  0  0  0  0
  7 11  1  0  0  0  0
  8  7  2  0  0  0  0
  9  4  1  0  0  0  0
 10  5  1  0  0  0  0
 11 15  1  0  0  0  0
 12 11  2  0  0  0  0
 12 13  1  0  0  0  0
 13 14  1  0  0  0  0
 14 17  1  0  0  0  0
 15 14  2  0  0  0  0
 16 12  1  0  0  0  0
 18 21  1  0  0  0  0
 19 18  1  0  0  0  0
 20 18  1  0  0  0  0
 22  1  1  0  0  0  0
 23 22  1  0  0  0  0
 24 22  1  0  0  0  0
 25 22  1  0  0  0  0
 25 26  1  0  0  0  0
 26 27  1  1  0  0  0
 26 32  1  0  0  0  0
 28 25  1  0  0  0  0
 29 28  1  0  0  0  0
 30 28  1  0  0  0  0
 31 28  1  0  0  0  0
 33 32  1  0  0  0  0
M  END
>  <minimizedAffinity>
-5.32112741

>  <minimizedRMSD>
0.991719663

$$$$
