
 OpenBabel03232519583D

 26 28  0  0  1  0  0  0  0  0999 V2000
   45.7820   34.0040   42.2700 N   0  0  0  0  0  0  0  0  0  0  0  0
   46.7870   34.4860   41.5790 C   0  0  0  0  0  0  0  0  0  0  0  0
   46.6820   34.0370   40.2560 C   0  0  0  0  0  0  0  0  0  0  0  0
   45.5930   33.2800   40.1890 N   0  0  0  0  0  0  0  0  0  0  0  0
   45.0280   33.2480   41.4180 C   0  0  0  0  0  0  0  0  0  0  0  0
   47.2850   34.1930   39.3690 H   0  0  0  0  0  0  0  0  0  0  0  0
   44.1180   32.7080   41.6900 H   0  0  0  0  0  0  0  0  0  0  0  0
   44.7500   35.4000   43.9000 C   0  0  0  0  0  0  0  0  0  0  0  0
   45.4770   34.1870   43.6110 C   0  0  0  0  0  0  0  0  0  0  0  0
   45.7640   33.3910   44.6860 C   0  0  0  0  0  0  0  0  0  0  0  0
   45.3610   33.7740   45.9250 N   0  0  0  0  0  0  0  0  0  0  0  0
   44.6890   34.9050   46.1530 C   0  0  0  0  0  0  0  0  0  0  0  0
   44.3730   35.7380   45.1340 N   0  0  0  0  0  0  0  0  0  0  0  0
   44.4830   36.0870   43.1020 H   0  0  0  0  0  0  0  0  0  0  0  0
   46.3080   32.4870   44.4510 H   0  0  0  0  0  0  0  0  0  0  0  0
   44.3780   35.1940   47.1370 H   0  0  0  0  0  0  0  0  0  0  0  0
   47.9360   35.3660   41.9200 C   0  0  2  0  0  0  0  0  0  0  0  0
   48.9910   35.6030   40.8830 C   0  0  0  0  0  0  0  0  0  0  0  0
   49.3120   34.7180   42.0240 C   0  0  1  0  0  0  0  0  0  0  0  0
   47.7520   36.0660   42.7440 H   0  0  0  0  0  0  0  0  0  0  0  0
   48.8860   35.2800   39.8560 H   0  0  0  0  0  0  0  0  0  0  0  0
   49.4630   36.6270   40.9730 H   0  0  0  0  0  0  0  0  0  0  0  0
   49.3900   33.6370   41.7650 H   0  0  0  0  0  0  0  0  0  0  0  0
   50.2250   35.1340   43.0440 N   0  0  0  0  0  0  0  0  0  0  0  0
   49.7790   35.6130   43.8540 H   0  0  0  0  0  0  0  0  0  0  0  0
   50.9160   34.4030   43.3140 H   0  0  0  0  0  0  0  0  0  0  0  0
  1  9  1  0  0  0  0
  2 17  1  0  0  0  0
  2  1  1  0  0  0  0
  3  2  2  0  0  0  0
  4  3  1  0  0  0  0
  4  5  2  0  0  0  0
  5  7  1  0  0  0  0
  5  1  1  0  0  0  0
  6  3  1  0  0  0  0
  8 13  1  0  0  0  0
  9  8  2  0  0  0  0
  9 10  1  0  0  0  0
 10 11  2  0  0  0  0
 11 12  1  0  0  0  0
 12 16  1  0  0  0  0
 13 12  2  0  0  0  0
 14  8  1  0  0  0  0
 15 10  1  0  0  0  0
 17 19  1  0  0  0  0
 17 20  1  1  0  0  0
 18 22  1  0  0  0  0
 18 17  1  0  0  0  0
 18 19  1  0  0  0  0
 19 23  1  6  0  0  0
 19 24  1  0  0  0  0
 21 18  1  0  0  0  0
 24 26  1  0  0  0  0
 24 25  1  0  0  0  0
M  END
>  <minimizedAffinity>
-5.15935755

>  <minimizedRMSD>
0.394484013

$$$$
