
 OpenBabel03232520593D

 38 40  0  0  1  0  0  0  0  0999 V2000
   45.3850   32.8630   47.4940 C   0  0  0  0  0  0  0  0  0  0  0  0
   45.9320   32.6180   46.2770 C   0  0  0  0  0  0  0  0  0  0  0  0
   46.1940   31.2690   46.0170 C   0  0  0  0  0  0  0  0  0  0  0  0
   45.9290   30.2670   46.8910 N   0  0  0  0  0  0  0  0  0  0  0  0
   45.3680   30.5690   48.1240 C   0  0  0  0  0  0  0  0  0  0  0  0
   45.1140   31.8460   48.3910 N   0  0  0  0  0  0  0  0  0  0  0  0
   45.0930   29.5490   49.0670 N   0  0  0  0  0  0  0  0  0  0  0  0
   45.1480   33.8710   47.7970 H   0  0  0  0  0  0  0  0  0  0  0  0
   44.1840   29.1800   49.3800 H   0  0  0  0  0  0  0  0  0  0  0  0
   46.0340   29.2400   49.3870 H   0  0  0  0  0  0  0  0  0  0  0  0
   46.1770   33.5780   45.2560 C   0  0  2  0  0  0  0  0  0  0  0  0
   44.9600   34.6650   45.4950 C   0  0  0  0  0  0  0  0  0  0  0  0
   44.7340   35.6090   44.4360 C   0  0  0  0  0  0  0  0  0  0  0  0
   45.5330   35.5510   43.2120 C   0  0  1  0  0  0  0  0  0  0  0  0
   46.5920   34.5510   43.1550 C   0  0  0  0  0  0  0  0  0  0  0  0
   46.1480   33.3080   43.8900 C   0  0  0  0  0  0  0  0  0  0  0  0
   46.9450   34.3330   45.6040 H   0  0  0  0  0  0  0  0  0  0  0  0
   44.2800   34.8000   46.3260 H   0  0  0  0  0  0  0  0  0  0  0  0
   43.9650   36.3250   44.5510 H   0  0  0  0  0  0  0  0  0  0  0  0
   45.9530   36.5610   43.0250 H   0  0  0  0  0  0  0  0  0  0  0  0
   47.5050   34.9200   43.6560 H   0  0  0  0  0  0  0  0  0  0  0  0
   46.8680   34.3710   42.0950 H   0  0  0  0  0  0  0  0  0  0  0  0
   45.2140   32.8870   43.4630 H   0  0  0  0  0  0  0  0  0  0  0  0
   46.9980   32.6610   43.5470 H   0  0  0  0  0  0  0  0  0  0  0  0
   44.5180   35.2920   42.0570 C   0  0  0  0  0  0  0  0  0  0  0  0
   43.4530   34.5000   42.4480 F   0  0  0  0  0  0  0  0  0  0  0  0
   43.9820   36.5310   41.7220 F   0  0  0  0  0  0  0  0  0  0  0  0
   45.1930   34.8280   40.9440 F   0  0  0  0  0  0  0  0  0  0  0  0
   46.8270   30.5870   44.9010 C   0  0  0  0  0  0  0  0  0  0  0  0
   46.4730   29.9080   43.7800 C   0  0  0  0  0  0  0  0  0  0  0  0
   47.6400   29.4640   43.1500 C   0  0  0  0  0  0  0  0  0  0  0  0
   48.6430   29.8940   43.9150 N   0  0  0  0  0  0  0  0  0  0  0  0
   48.1890   30.5580   44.9510 N   0  0  0  0  0  0  0  0  0  0  0  0
   45.4130   29.8240   43.5680 H   0  0  0  0  0  0  0  0  0  0  0  0
   47.5670   28.9060   42.2440 H   0  0  0  0  0  0  0  0  0  0  0  0
   50.0420   29.6130   43.5610 C   0  0  0  0  0  2  0  0  0  0  0  0
   50.1990   28.1580   43.1570 C   0  0  0  0  0  2  0  0  0  0  0  0
   51.0560   27.6910   43.6880 H   0  0  0  0  0  0  0  0  0  0  0  0
  1  8  1  0  0  0  0
  1  6  1  0  0  0  0
  2  1  2  0  0  0  0
  3  2  1  0  0  0  0
  3  4  2  0  0  0  0
  4  5  1  0  0  0  0
  5  6  2  0  0  0  0
  5  7  1  0  0  0  0
  7  9  1  0  0  0  0
  7 10  1  0  0  0  0
 11 12  1  0  0  0  0
 11 17  1  1  0  0  0
 11  2  1  0  0  0  0
 12 18  1  0  0  0  0
 13 19  1  0  0  0  0
 13 12  2  0  0  0  0
 14 20  1  6  0  0  0
 14 13  1  0  0  0  0
 15 14  1  0  0  0  0
 15 21  1  0  0  0  0
 15 16  1  0  0  0  0
 16 11  1  0  0  0  0
 22 15  1  0  0  0  0
 23 16  1  0  0  0  0
 24 16  1  0  0  0  0
 25 26  1  0  0  0  0
 25 14  1  0  0  0  0
 27 25  1  0  0  0  0
 28 25  1  0  0  0  0
 29 33  2  0  0  0  0
 29  3  1  0  0  0  0
 30 29  1  0  0  0  0
 31 30  2  0  0  0  0
 31 32  1  0  0  0  0
 32 33  1  0  0  0  0
 34 30  1  0  0  0  0
 35 31  1  0  0  0  0
 36 32  1  0  0  0  0
 37 36  1  0  0  0  0
 37 38  1  0  0  0  0
M  END
>  <minimizedAffinity>
-5.40241718

>  <minimizedRMSD>
0.0735203326

$$$$
