
 OpenBabel03232517433D

 36 39  0  0  0  0  0  0  0  0999 V2000
   47.3730   33.6260   38.6630 C   0  0  0  0  0  0  0  0  0  0  0  0
   46.5660   32.9610   39.6080 C   0  0  0  0  0  0  0  0  0  0  0  0
   47.0070   31.7530   40.0860 C   0  0  0  0  0  0  0  0  0  0  0  0
   48.2000   31.2510   39.6300 N   0  0  0  0  0  0  0  0  0  0  0  0
   48.9340   31.9090   38.7360 C   0  0  0  0  0  0  0  0  0  0  0  0
   48.5230   33.0850   38.2580 N   0  0  0  0  0  0  0  0  0  0  0  0
   47.0490   34.5820   38.2680 H   0  0  0  0  0  0  0  0  0  0  0  0
   49.8820   31.5350   38.3580 H   0  0  0  0  0  0  0  0  0  0  0  0
   46.1960   31.0900   41.0350 N   0  0  0  0  0  0  0  0  0  0  0  0
   45.0500   30.4940   40.6170 C   0  0  0  0  0  0  0  0  0  0  0  0
   44.2810   29.8570   41.5580 C   0  0  0  0  0  0  0  0  0  0  0  0
   44.6280   29.7990   42.8960 C   0  0  0  0  0  0  0  0  0  0  0  0
   43.8640   29.1950   43.6800 O   0  0  0  0  0  0  0  0  0  0  0  0
   45.7720   30.4000   43.2820 N   0  0  0  0  0  0  0  0  0  0  0  0
   46.5220   31.0230   42.3610 C   0  0  0  0  0  0  0  0  0  0  0  0
   47.5740   31.5660   42.7650 O   0  0  0  0  0  0  0  0  0  0  0  0
   44.7920   30.5490   39.5580 H   0  0  0  0  0  0  0  0  0  0  0  0
   46.0240   30.3550   44.2730 H   0  0  0  0  0  0  0  0  0  0  0  0
   43.0190   29.2080   41.0650 C   0  0  0  0  0  0  0  0  0  0  0  0
   42.6260   29.7270   40.1770 H   0  0  0  0  0  0  0  0  0  0  0  0
   43.3480   28.1790   40.7330 H   0  0  0  0  0  0  0  0  0  0  0  0
   42.2940   29.1710   41.8970 H   0  0  0  0  0  0  0  0  0  0  0  0
   45.3710   33.6020   39.9800 N   0  0  0  0  0  0  0  0  0  0  0  0
   44.2950   33.4820   39.2530 N   0  0  0  0  0  0  0  0  0  0  0  0
   43.2790   34.1810   39.8040 C   0  0  0  0  0  0  0  0  0  0  0  0
   43.8380   34.7490   40.9500 C   0  0  0  0  0  0  0  0  0  0  0  0
   45.1780   34.3800   41.0650 C   0  0  0  0  0  0  0  0  0  0  0  0
   42.2670   34.2810   39.4450 H   0  0  0  0  0  0  0  0  0  0  0  0
   43.2820   35.3700   41.6140 H   0  0  0  0  0  0  0  0  0  0  0  0
   46.1240   34.7420   42.0930 C   0  0  0  0  0  0  0  0  0  0  0  0
   47.3170   35.0470   41.8980 O   0  0  0  0  0  0  0  0  0  0  0  0
   45.6620   34.7580   43.4930 C   0  0  0  0  0  0  0  0  0  0  0  0
   45.9330   33.8380   44.5070 C   0  0  0  0  0  0  0  0  0  0  0  0
   45.3680   34.1040   45.7210 C   0  0  0  0  0  0  0  0  0  0  0  0
   44.5850   35.1940   45.9440 C   0  0  0  0  0  0  0  0  0  0  0  0
   44.6210   35.9990   44.2090 S   0  0  0  0  0  0  0  0  0  0  0  0
  1  2  1  0  0  0  0
  2 23  1  0  0  0  0
  2  3  2  0  0  0  0
  3  9  1  0  0  0  0
  4  3  1  0  0  0  0
  5  4  2  0  0  0  0
  6  1  2  0  0  0  0
  6  5  1  0  0  0  0
  7  1  1  0  0  0  0
  8  5  1  0  0  0  0
  9 15  1  0  0  0  0
 10  9  1  0  0  0  0
 10 11  2  0  0  0  0
 11 12  1  0  0  0  0
 12 14  1  0  0  0  0
 12 13  2  0  0  0  0
 14 18  1  0  0  0  0
 15 16  2  0  0  0  0
 15 14  1  0  0  0  0
 17 10  1  0  0  0  0
 19 11  1  0  0  0  0
 19 22  1  0  0  0  0
 20 19  1  0  0  0  0
 21 19  1  0  0  0  0
 23 27  1  0  0  0  0
 24 25  2  0  0  0  0
 24 23  1  0  0  0  0
 25 26  1  0  0  0  0
 26 27  2  0  0  0  0
 26 29  1  0  0  0  0
 27 30  1  0  0  0  0
 28 25  1  0  0  0  0
 30 32  1  0  0  0  0
 31 30  2  0  0  0  0
 32 36  1  0  0  0  0
 32 33  2  0  0  0  0
 33 34  1  0  0  0  0
 34 35  2  0  0  0  0
 36 35  1  0  0  0  0
M  END
>  <minimizedAffinity>
-4.41219568

>  <minimizedRMSD>
6.11702442

$$$$
