
 OpenBabel03232520303D

 41 44  0  0  1  0  0  0  0  0999 V2000
   46.9310   34.5100   41.3080 C   0  0  0  0  0  0  0  0  0  0  0  0
   48.1920   34.9390   40.9430 C   0  0  0  0  0  0  0  0  0  0  0  0
   48.4580   34.6370   39.6770 N   0  0  0  0  0  0  0  0  0  0  0  0
   47.3670   34.0070   39.2100 C   0  0  0  0  0  0  0  0  0  0  0  0
   47.1100   33.4750   37.9380 C   0  0  0  0  0  0  0  0  0  0  0  0
   45.9070   32.8750   37.7140 C   0  0  0  0  0  0  0  0  0  0  0  0
   44.9050   32.7450   38.6410 C   0  0  0  0  0  0  0  0  0  0  0  0
   45.2110   33.2860   39.8770 C   0  0  0  0  0  0  0  0  0  0  0  0
   46.3940   33.9040   40.1860 C   0  0  0  0  0  0  0  0  0  0  0  0
   49.3170   34.8180   39.0870 H   0  0  0  0  0  0  0  0  0  0  0  0
   47.8630   33.5410   37.1420 H   0  0  0  0  0  0  0  0  0  0  0  0
   45.7530   32.4750   36.7060 H   0  0  0  0  0  0  0  0  0  0  0  0
   43.9590   32.2630   38.4330 H   0  0  0  0  0  0  0  0  0  0  0  0
   44.4590   33.2190   40.6690 H   0  0  0  0  0  0  0  0  0  0  0  0
   44.7880   35.8470   44.0460 C   0  0  0  0  0  0  0  0  0  0  0  0
   45.4210   35.7320   42.7900 C   0  0  0  0  0  0  0  0  0  0  0  0
   46.2690   34.6460   42.5950 C   0  0  0  0  0  0  0  0  0  0  0  0
   46.4560   33.7420   43.6150 N   0  0  0  0  0  0  0  0  0  0  0  0
   45.8160   33.9150   44.7960 C   0  0  0  0  0  0  0  0  0  0  0  0
   44.9870   34.9570   45.0160 N   0  0  0  0  0  0  0  0  0  0  0  0
   44.1450   36.7140   44.1260 H   0  0  0  0  0  0  0  0  0  0  0  0
   45.2460   36.4700   42.0050 H   0  0  0  0  0  0  0  0  0  0  0  0
   45.9540   33.2090   45.6140 H   0  0  0  0  0  0  0  0  0  0  0  0
   49.1200   35.6500   41.8680 C   0  0  0  0  0  0  0  0  0  0  0  0
   49.6660   36.4240   41.2950 H   0  0  0  0  0  0  0  0  0  0  0  0
   48.5330   36.2100   42.6260 H   0  0  0  0  0  0  0  0  0  0  0  0
   50.0020   34.6980   42.6190 C   0  0  0  0  0  0  0  0  0  0  0  0
   49.6760   34.5300   43.6610 H   0  0  0  0  0  0  0  0  0  0  0  0
   51.0010   35.2030   42.7080 H   0  0  0  0  0  0  0  0  0  0  0  0
   50.2410   33.3930   41.9120 C   0  0  1  0  0  0  0  0  0  0  0  0
   51.0460   32.3110   42.4650 C   0  0  0  0  0  0  0  0  0  0  0  0
   49.5680   32.1900   42.5930 C   0  0  2  0  0  0  0  0  0  0  0  0
   50.1680   33.4180   40.8000 H   0  0  0  0  0  0  0  0  0  0  0  0
   51.6170   32.5220   43.3950 H   0  0  0  0  0  0  0  0  0  0  0  0
   51.5670   31.6140   41.7830 H   0  0  0  0  0  0  0  0  0  0  0  0
   49.1140   32.3250   43.5900 H   0  0  0  0  0  0  0  0  0  0  0  0
   48.9600   31.2310   41.8080 O   0  0  0  0  0  0  0  0  0  0  0  0
   47.8480   30.5600   42.3280 C   0  0  0  0  0  0  0  0  0  0  0  0
   47.9520   29.4100   42.8720 O   0  0  0  0  0  0  0  0  0  0  0  0
   46.5360   31.0480   42.3170 O   0  0  0  0  0  0  0  0  0  0  0  0
   45.7640   30.4570   41.9830 H   0  0  0  0  0  0  0  0  0  0  0  0
  1 17  1  0  0  0  0
  2  1  2  0  0  0  0
  2 24  1  0  0  0  0
  3  2  1  0  0  0  0
  4  3  1  0  0  0  0
  4  9  1  0  0  0  0
  5  4  2  0  0  0  0
  6  5  1  0  0  0  0
  6  7  2  0  0  0  0
  7  8  1  0  0  0  0
  8  9  2  0  0  0  0
  8 14  1  0  0  0  0
  9  1  1  0  0  0  0
 10  3  1  0  0  0  0
 11  5  1  0  0  0  0
 12  6  1  0  0  0  0
 13  7  1  0  0  0  0
 15 21  1  0  0  0  0
 15 20  1  0  0  0  0
 16 15  2  0  0  0  0
 17 16  1  0  0  0  0
 17 18  2  0  0  0  0
 18 19  1  0  0  0  0
 19 20  2  0  0  0  0
 19 23  1  0  0  0  0
 22 16  1  0  0  0  0
 24 27  1  0  0  0  0
 24 26  1  0  0  0  0
 25 24  1  0  0  0  0
 27 29  1  0  0  0  0
 27 28  1  0  0  0  0
 30 33  1  6  0  0  0
 30 31  1  0  0  0  0
 30 32  1  0  0  0  0
 30 27  1  0  0  0  0
 31 32  1  0  0  0  0
 31 34  1  0  0  0  0
 32 36  1  1  0  0  0
 35 31  1  0  0  0  0
 37 38  1  0  0  0  0
 37 32  1  0  0  0  0
 38 39  2  0  0  0  0
 40 38  1  0  0  0  0
 41 40  1  0  0  0  0
M  END
>  <minimizedAffinity>
-5.40537739

>  <minimizedRMSD>
0.105196945

$$$$
