
 OpenBabel03232510203D

 16 16  0  0  0  0  0  0  0  0999 V2000
   44.5100   35.8270   44.6260 C   0  0  0  0  0  0  0  0  0  0  0  0
   45.1730   35.7270   43.4010 C   0  0  0  0  0  0  0  0  0  0  0  0
   46.1260   34.7270   43.2550 C   0  0  0  0  0  0  0  0  0  0  0  0
   46.3560   33.9050   44.3180 N   0  0  0  0  0  0  0  0  0  0  0  0
   45.6980   34.0300   45.4830 C   0  0  0  0  0  0  0  0  0  0  0  0
   44.7680   34.9860   45.6630 N   0  0  0  0  0  0  0  0  0  0  0  0
   43.7570   36.5910   44.7860 H   0  0  0  0  0  0  0  0  0  0  0  0
   44.9730   36.3820   42.5900 H   0  0  0  0  0  0  0  0  0  0  0  0
   46.6950   34.5610   42.3540 H   0  0  0  0  0  0  0  0  0  0  0  0
   45.9740   33.1300   46.5950 C   0  0  0  0  0  0  0  0  0  0  0  0
   47.0600   32.4920   46.7020 O   0  0  0  0  0  0  0  0  0  0  0  0
   45.0220   32.9340   47.6120 O   0  0  0  0  0  0  0  0  0  0  0  0
   45.1100   31.8620   48.4870 C   0  0  0  0  0  0  0  0  0  0  0  0
   44.8020   30.7130   48.0250 O   0  0  0  0  0  0  0  0  0  0  0  0
   45.4970   31.9320   49.7990 O   0  0  0  0  0  0  0  0  0  0  0  0
   45.9020   31.1540   50.3240 H   0  0  0  0  0  0  0  0  0  0  0  0
  1  7  1  0  0  0  0
  1  6  1  0  0  0  0
  2  1  2  0  0  0  0
  3  2  1  0  0  0  0
  3  4  2  0  0  0  0
  4  5  1  0  0  0  0
  5  6  2  0  0  0  0
  5 10  1  0  0  0  0
  8  2  1  0  0  0  0
  9  3  1  0  0  0  0
 10 11  2  0  0  0  0
 10 12  1  0  0  0  0
 12 13  1  0  0  0  0
 13 15  1  0  0  0  0
 14 13  2  0  0  0  0
 15 16  1  0  0  0  0
M  END
>  <minimizedAffinity>
-4.39595222

>  <minimizedRMSD>
0.728376567

$$$$
