
 OpenBabel03232516163D

 42 44  0  0  1  0  0  0  0  0999 V2000
   41.1120   34.1330   39.1370 C   0  0  2  0  0  0  0  0  0  0  0  0
   39.9460   34.9900   38.7120 C   0  0  0  0  0  0  0  0  0  0  0  0
   38.7740   34.1680   38.2440 C   0  0  0  0  0  0  0  0  0  0  0  0
   38.2750   33.3410   39.3780 C   0  0  0  0  0  0  0  0  0  0  0  0
   39.3590   33.1380   40.4320 C   0  0  0  0  0  0  0  0  0  0  0  0
   40.6270   32.9030   39.7560 C   0  0  1  0  0  0  0  0  0  0  0  0
   41.6230   33.8820   38.1600 H   0  0  0  0  0  0  0  0  0  0  0  0
   40.2930   35.7000   37.9260 H   0  0  0  0  0  0  0  0  0  0  0  0
   39.5770   35.6430   39.5350 H   0  0  0  0  0  0  0  0  0  0  0  0
   38.0170   34.9160   37.8750 H   0  0  0  0  0  0  0  0  0  0  0  0
   38.9830   33.5290   37.3810 H   0  0  0  0  0  0  0  0  0  0  0  0
   37.8660   32.3580   39.0400 H   0  0  0  0  0  0  0  0  0  0  0  0
   37.3870   33.8880   39.8060 H   0  0  0  0  0  0  0  0  0  0  0  0
   39.1960   33.8970   41.1520 H   0  0  0  0  0  0  0  0  0  0  0  0
   39.0710   32.1680   40.9370 H   0  0  0  0  0  0  0  0  0  0  0  0
   41.3080   32.3820   40.4850 H   0  0  0  0  0  0  0  0  0  0  0  0
   42.4840   34.4530   41.3430 C   0  0  1  0  0  0  0  0  0  0  0  0
   41.6020   35.7290   41.1100 C   0  0  0  0  0  0  0  0  0  0  0  0
   42.0280   34.8990   40.0580 C   0  0  2  0  0  0  0  0  0  0  0  0
   42.0460   33.7250   42.0500 H   0  0  0  0  0  0  0  0  0  0  0  0
   40.7520   35.7420   41.7690 H   0  0  0  0  0  0  0  0  0  0  0  0
   42.1400   36.7170   41.2800 H   0  0  0  0  0  0  0  0  0  0  0  0
   42.8710   35.3210   39.4150 H   0  0  0  0  0  0  0  0  0  0  0  0
   46.1590   34.6950   41.4180 C   0  0  0  0  0  0  0  0  0  0  0  0
   46.4110   35.2740   42.6720 C   0  0  0  0  0  0  0  0  0  0  0  0
   45.2940   35.5880   43.4830 C   0  0  0  0  0  0  0  0  0  0  0  0
   44.0500   35.3150   43.0070 N   0  0  0  0  0  0  0  0  0  0  0  0
   43.8670   34.7670   41.8120 C   0  0  0  0  0  0  0  0  0  0  0  0
   44.9050   34.4340   40.9680 N   0  0  0  0  0  0  0  0  0  0  0  0
   47.4340   35.4560   42.9720 H   0  0  0  0  0  0  0  0  0  0  0  0
   45.4770   36.0330   44.4510 H   0  0  0  0  0  0  0  0  0  0  0  0
   47.3320   34.3340   40.5590 C   0  0  0  0  0  0  0  0  0  0  0  0
   47.9790   35.1860   40.3230 H   0  0  0  0  0  0  0  0  0  0  0  0
   46.9960   33.7340   39.7120 H   0  0  0  0  0  0  0  0  0  0  0  0
   47.9530   33.6530   41.1930 H   0  0  0  0  0  0  0  0  0  0  0  0
   40.4600   31.8510   38.7210 C   0  0  0  0  0  0  0  0  0  0  0  0
   39.7890   30.8130   38.6190 O   0  0  0  0  0  0  0  0  0  0  0  0
   41.2740   32.1280   37.6010 O   0  0  0  0  0  0  0  0  0  0  0  0
   42.4730   31.3080   37.4040 C   0  0  0  0  0  0  0  0  0  0  0  0
   43.0590   30.7630   38.3700 O   0  0  0  0  0  0  0  0  0  0  0  0
   42.9300   31.1650   36.0800 O   0  0  0  0  0  0  0  0  0  0  0  0
   43.6300   30.4430   35.8560 H   0  0  0  0  0  0  0  0  0  0  0  0
  1  7  1  6  0  0  0
  1  6  1  0  0  0  0
  1 19  1  0  0  0  0
  2  1  1  0  0  0  0
  2  9  1  0  0  0  0
  3  2  1  0  0  0  0
  3  4  1  0  0  0  0
  4 13  1  0  0  0  0
  4  5  1  0  0  0  0
  5 15  1  0  0  0  0
  5 14  1  0  0  0  0
  6  5  1  0  0  0  0
  6 16  1  1  0  0  0
  8  2  1  0  0  0  0
 10  3  1  0  0  0  0
 11  3  1  0  0  0  0
 12  4  1  0  0  0  0
 17 28  1  0  0  0  0
 17 20  1  1  0  0  0
 18 22  1  0  0  0  0
 18 17  1  0  0  0  0
 18 21  1  0  0  0  0
 19 23  1  6  0  0  0
 19 18  1  0  0  0  0
 19 17  1  0  0  0  0
 24 25  1  0  0  0  0
 25 30  1  0  0  0  0
 25 26  2  0  0  0  0
 26 31  1  0  0  0  0
 27 26  1  0  0  0  0
 28 27  2  0  0  0  0
 29 24  2  0  0  0  0
 29 28  1  0  0  0  0
 32 35  1  0  0  0  0
 32 24  1  0  0  0  0
 33 32  1  0  0  0  0
 34 32  1  0  0  0  0
 36  6  1  0  0  0  0
 37 36  2  0  0  0  0
 38 36  1  0  0  0  0
 39 38  1  0  0  0  0
 39 40  2  0  0  0  0
 41 39  1  0  0  0  0
 42 41  1  0  0  0  0
M  END
>  <minimizedAffinity>
-5.25584364

>  <minimizedRMSD>
0.814051926

$$$$
