REMARK  Name = 
REMARK  5 active torsions:
REMARK  status: ('A' for Active; 'I' for Inactive)
REMARK    1  A    between atoms: C_1  and  C_8
REMARK    2  A    between atoms: C_4  and  C_19
REMARK    3  A    between atoms: C_9  and  C_14
REMARK    4  A    between atoms: N_17  and  C_36
REMARK    5  A    between atoms: C_36  and  C_37
REMARK                            x       y       z     vdW  Elec       q    Type
REMARK                         _______ _______ _______ _____ _____    ______ ____
ROOT
ATOM      1  C   UNL     1      45.400  32.885  47.529  0.00  0.00    +0.000 A 
ATOM      2  C   UNL     1      45.919  32.637  46.301  0.00  0.00    +0.000 A 
ATOM      3  C   UNL     1      46.153  31.285  46.029  0.00  0.00    +0.000 A 
ATOM      4  N   UNL     1      45.889  30.283  46.904  0.00  0.00    +0.000 NA
ATOM      5  C   UNL     1      45.358  30.588  48.149  0.00  0.00    +0.000 A 
ATOM      6  N   UNL     1      45.130  31.868  48.427  0.00  0.00    +0.000 NA
ATOM      7  N   UNL     1      45.084  29.568  49.092  0.00  0.00    +0.000 N 
ATOM      8  H   UNL     1      45.186  33.895  47.842  0.00  0.00    +0.000 HD
ATOM      9  H   UNL     1      44.176  29.213  49.422  0.00  0.00    +0.000 HD
ATOM     10  H   UNL     1      46.026  29.242  49.392  0.00  0.00    +0.000 HD
ENDROOT
BRANCH   2  11
ATOM     11  C   UNL     1      46.160  33.598  45.279  0.00  0.00    +0.000 C 
ATOM     12  C   UNL     1      44.918  34.661  45.496  0.00  0.00    +0.000 C 
ATOM     13  C   UNL     1      44.688  35.596  44.430  0.00  0.00    +0.000 C 
ATOM     14  C   UNL     1      45.506  35.550  43.218  0.00  0.00    +0.000 C 
ATOM     15  C   UNL     1      46.586  34.571  43.181  0.00  0.00    +0.000 C 
ATOM     16  C   UNL     1      46.156  33.322  43.914  0.00  0.00    +0.000 C 
ATOM     17  H   UNL     1      46.907  34.369  45.636  0.00  0.00    +0.000 HD
ATOM     18  H   UNL     1      44.223  34.785  46.317  0.00  0.00    +0.000 HD
ATOM     19  H   UNL     1      43.903  36.297  44.531  0.00  0.00    +0.000 HD
ATOM     20  H   UNL     1      45.909  36.567  43.033  0.00  0.00    +0.000 HD
ATOM     21  H   UNL     1      47.484  34.960  43.694  0.00  0.00    +0.000 HD
ATOM     22  H   UNL     1      46.881  34.393  42.126  0.00  0.00    +0.000 HD
ATOM     23  H   UNL     1      45.237  32.881  43.475  0.00  0.00    +0.000 HD
ATOM     24  H   UNL     1      47.024  32.691  43.586  0.00  0.00    +0.000 HD
BRANCH  14  25
ATOM     25  C   UNL     1      44.514  35.266  42.050  0.00  0.00    +0.000 C 
ATOM     26  F   UNL     1      43.461  34.451  42.427  0.00  0.00    +0.000 F 
ATOM     27  F   UNL     1      43.955  36.492  41.705  0.00  0.00    +0.000 F 
ATOM     28  F   UNL     1      45.214  34.815  40.947  0.00  0.00    +0.000 F 
ENDBRANCH  14  25
ENDBRANCH   2  11
BRANCH   3  29
ATOM     29  C   UNL     1      46.753  30.598  44.898  0.00  0.00    +0.000 A 
ATOM     30  C   UNL     1      46.366  29.921  43.787  0.00  0.00    +0.000 A 
ATOM     31  C   UNL     1      47.514  29.469  43.127  0.00  0.00    +0.000 A 
ATOM     32  N   UNL     1      48.539  29.893  43.866  0.00  0.00    +0.000 N 
ATOM     33  N   UNL     1      48.116  30.560  44.913  0.00  0.00    +0.000 NA
ATOM     34  H   UNL     1      45.300  29.844  43.602  0.00  0.00    +0.000 HD
ATOM     35  H   UNL     1      47.414  28.911  42.224  0.00  0.00    +0.000 HD
BRANCH  32  36
ATOM     36  C   UNL     1      49.926  29.602  43.477  0.00  0.00    +0.000 C 
BRANCH  36  37
ATOM     37  C   UNL     1      50.342  30.486  42.314  0.00  0.00    +0.000 C 
ATOM     38  H   UNL     1      50.814  29.883  41.509  0.00  0.00    +0.000 HD
ENDBRANCH  36  37
ENDBRANCH  32  36
ENDBRANCH   3  29
TORSDOF 5
