
 OpenBabel03232520593D

 38 40  0  0  1  0  0  0  0  0999 V2000
   45.3670   32.8950   47.5400 C   0  0  0  0  0  0  0  0  0  0  0  0
   45.9280   32.6260   46.3350 C   0  0  0  0  0  0  0  0  0  0  0  0
   46.1950   31.2720   46.1060 C   0  0  0  0  0  0  0  0  0  0  0  0
   45.9230   30.2880   46.9990 N   0  0  0  0  0  0  0  0  0  0  0  0
   45.3480   30.6140   48.2180 C   0  0  0  0  0  0  0  0  0  0  0  0
   45.0880   31.8960   48.4560 N   0  0  0  0  0  0  0  0  0  0  0  0
   45.0640   29.6130   49.1790 N   0  0  0  0  0  0  0  0  0  0  0  0
   45.1240   33.9080   47.8200 H   0  0  0  0  0  0  0  0  0  0  0  0
   44.1530   29.2490   49.4900 H   0  0  0  0  0  0  0  0  0  0  0  0
   46.0020   29.3140   49.5160 H   0  0  0  0  0  0  0  0  0  0  0  0
   46.1830   33.5650   45.2960 C   0  0  2  0  0  0  0  0  0  0  0  0
   44.9690   34.6610   45.5080 C   0  0  0  0  0  0  0  0  0  0  0  0
   44.7510   35.5840   44.4290 C   0  0  0  0  0  0  0  0  0  0  0  0
   45.5570   35.5000   43.2110 C   0  0  1  0  0  0  0  0  0  0  0  0
   46.6130   34.4950   43.1800 C   0  0  0  0  0  0  0  0  0  0  0  0
   46.1600   33.2680   43.9360 C   0  0  0  0  0  0  0  0  0  0  0  0
   46.9510   34.3230   45.6350 H   0  0  0  0  0  0  0  0  0  0  0  0
   44.2840   34.8140   46.3330 H   0  0  0  0  0  0  0  0  0  0  0  0
   43.9840   36.3050   44.5260 H   0  0  0  0  0  0  0  0  0  0  0  0
   45.9830   36.5040   43.0070 H   0  0  0  0  0  0  0  0  0  0  0  0
   47.5250   34.8700   43.6790 H   0  0  0  0  0  0  0  0  0  0  0  0
   46.8940   34.2930   42.1250 H   0  0  0  0  0  0  0  0  0  0  0  0
   45.2260   32.8420   43.5120 H   0  0  0  0  0  0  0  0  0  0  0  0
   47.0090   32.6110   43.6100 H   0  0  0  0  0  0  0  0  0  0  0  0
   44.5480   35.2220   42.0560 C   0  0  0  0  0  0  0  0  0  0  0  0
   43.5130   34.3860   42.4380 F   0  0  0  0  0  0  0  0  0  0  0  0
   43.9660   36.4460   41.7430 F   0  0  0  0  0  0  0  0  0  0  0  0
   45.2340   34.8000   40.9330 F   0  0  0  0  0  0  0  0  0  0  0  0
   46.8430   30.5680   45.0120 C   0  0  0  0  0  0  0  0  0  0  0  0
   46.5050   29.9080   43.8750 C   0  0  0  0  0  0  0  0  0  0  0  0
   47.6770   29.4190   43.2880 C   0  0  0  0  0  0  0  0  0  0  0  0
   48.6660   29.8040   44.0930 N   0  0  0  0  0  0  0  0  0  0  0  0
   48.2000   30.4820   45.1150 N   0  0  0  0  0  0  0  0  0  0  0  0
   45.4510   29.8690   43.6220 H   0  0  0  0  0  0  0  0  0  0  0  0
   47.6160   28.8670   42.3770 H   0  0  0  0  0  0  0  0  0  0  0  0
   50.0640   29.4660   43.7930 C   0  0  0  0  0  2  0  0  0  0  0  0
   50.7710   28.9930   45.0510 C   0  0  0  0  0  2  0  0  0  0  0  0
   51.7430   29.5160   45.1800 H   0  0  0  0  0  0  0  0  0  0  0  0
  1  8  1  0  0  0  0
  1  6  1  0  0  0  0
  2  1  2  0  0  0  0
  3  2  1  0  0  0  0
  3  4  2  0  0  0  0
  4  5  1  0  0  0  0
  5  6  2  0  0  0  0
  5  7  1  0  0  0  0
  7  9  1  0  0  0  0
  7 10  1  0  0  0  0
 11 12  1  0  0  0  0
 11 17  1  1  0  0  0
 11  2  1  0  0  0  0
 12 18  1  0  0  0  0
 13 19  1  0  0  0  0
 13 12  2  0  0  0  0
 14 20  1  6  0  0  0
 14 13  1  0  0  0  0
 15 14  1  0  0  0  0
 15 21  1  0  0  0  0
 15 16  1  0  0  0  0
 16 11  1  0  0  0  0
 22 15  1  0  0  0  0
 23 16  1  0  0  0  0
 24 16  1  0  0  0  0
 25 26  1  0  0  0  0
 25 14  1  0  0  0  0
 27 25  1  0  0  0  0
 28 25  1  0  0  0  0
 29 33  2  0  0  0  0
 29  3  1  0  0  0  0
 30 29  1  0  0  0  0
 31 30  2  0  0  0  0
 31 32  1  0  0  0  0
 32 33  1  0  0  0  0
 34 30  1  0  0  0  0
 35 31  1  0  0  0  0
 36 32  1  0  0  0  0
 36 37  1  0  0  0  0
 37 38  1  0  0  0  0
M  END
>  <minimizedAffinity>
-5.50452995

>  <minimizedRMSD>
0.372472703

$$$$
