
 OpenBabel03232516453D

 26 27  0  0  1  0  0  0  0  0999 V2000
   46.6300   34.4610   41.1110 C   0  0  2  0  0  0  0  0  0  0  0  0
   47.4210   33.2590   41.0460 C   0  0  0  0  0  0  0  0  0  0  0  0
   47.8070   32.8570   42.4840 C   0  0  0  0  0  0  0  0  0  0  0  0
   47.1470   33.8390   43.4090 C   0  0  1  0  0  0  0  0  0  0  0  0
   46.9330   35.0220   42.5550 C   0  0  0  0  0  0  0  0  0  0  0  0
   47.0360   35.2750   40.4420 H   0  0  0  0  0  0  0  0  0  0  0  0
   46.9230   32.3640   40.6400 H   0  0  0  0  0  0  0  0  0  0  0  0
   48.3600   33.3540   40.4360 H   0  0  0  0  0  0  0  0  0  0  0  0
   48.9050   32.9670   42.5810 H   0  0  0  0  0  0  0  0  0  0  0  0
   47.5530   31.8320   42.7280 H   0  0  0  0  0  0  0  0  0  0  0  0
   47.8650   34.1210   44.2150 H   0  0  0  0  0  0  0  0  0  0  0  0
   46.0990   35.6890   42.8540 H   0  0  0  0  0  0  0  0  0  0  0  0
   47.8350   35.6590   42.4900 H   0  0  0  0  0  0  0  0  0  0  0  0
   45.1740   34.4050   41.0460 C   0  0  0  0  0  0  0  0  0  0  0  0
   44.5970   33.2660   40.4510 C   0  0  0  0  0  0  0  0  0  0  0  0
   43.2160   33.1320   40.3720 C   0  0  0  0  0  0  0  0  0  0  0  0
   42.4850   34.1820   40.9110 N   0  0  0  0  0  0  0  0  0  0  0  0
   43.0630   35.2500   41.4690 C   0  0  0  0  0  0  0  0  0  0  0  0
   44.4000   35.3630   41.5370 N   0  0  0  0  0  0  0  0  0  0  0  0
   45.0530   32.3980   40.0000 H   0  0  0  0  0  0  0  0  0  0  0  0
   42.6570   32.3310   39.9530 H   0  0  0  0  0  0  0  0  0  0  0  0
   42.4300   36.0440   41.8750 H   0  0  0  0  0  0  0  0  0  0  0  0
   45.6520   33.2270   44.1840 S   0  0  0  0  0  0  0  0  0  0  0  0
   45.3520   34.2360   45.6660 C   0  0  0  0  0  0  0  0  0  0  0  0
   44.5700   35.4530   45.2130 C   0  0  0  0  0  0  0  0  0  0  0  0
   43.4650   35.2450   45.2620 H   0  0  0  0  0  0  0  0  0  0  0  0
  1  6  1  6  0  0  0
  1  5  1  0  0  0  0
  2  1  1  0  0  0  0
  2  3  1  0  0  0  0
  3  9  1  0  0  0  0
  3 10  1  0  0  0  0
  3  4  1  0  0  0  0
  4 23  1  0  0  0  0
  4 11  1  1  0  0  0
  5 12  1  0  0  0  0
  5  4  1  0  0  0  0
  7  2  1  0  0  0  0
  8  2  1  0  0  0  0
 13  5  1  0  0  0  0
 14  1  1  0  0  0  0
 14 19  1  0  0  0  0
 15 14  2  0  0  0  0
 16 15  1  0  0  0  0
 16 17  2  0  0  0  0
 17 18  1  0  0  0  0
 18 19  2  0  0  0  0
 18 22  1  0  0  0  0
 20 15  1  0  0  0  0
 21 16  1  0  0  0  0
 23 24  1  0  0  0  0
 25 26  1  0  0  0  0
 25 24  1  0  0  0  0
M  END
>  <minimizedAffinity>
-3.67850876

>  <minimizedRMSD>
1.96383333

$$$$
