
     RDKit          3D

 47 51  0  0  0  0  0  0  0  0999 V2000
   46.4077   34.6759   42.1579 C   0  0  0  0  0  0  0  0  0  0  0  0
   47.7174   35.0343   42.0385 C   0  0  0  0  0  0  0  0  0  0  0  0
   48.4267   34.8241   40.8504 C   0  0  0  0  0  0  0  0  0  0  0  0
   47.7771   34.2317   39.7583 C   0  0  0  0  0  0  0  0  0  0  0  0
   46.4602   33.8799   39.9021 C   0  0  0  0  0  0  0  0  0  0  0  0
   45.7857   34.1015   41.0911 C   0  0  0  0  0  0  0  0  0  0  0  0
   44.4295   33.7185   41.1956 N   0  0  0  0  0  0  0  0  0  0  0  0
   43.6165   34.6829   40.6630 C   0  0  0  0  0  0  0  0  0  0  0  0
   42.2269   34.5037   40.6668 C   0  0  0  0  0  0  0  0  0  0  0  0
   41.3037   35.5231   40.1003 C   0  0  0  0  0  0  0  0  0  0  0  0
   41.7181   33.3412   41.2163 C   0  0  0  0  0  0  0  0  0  0  0  0
   40.4848   33.1271   41.2463 O   0  0  0  0  0  0  0  0  0  0  0  0
   42.5569   32.4293   41.7239 N   0  0  0  0  0  0  0  0  0  0  0  0
   43.9021   32.5927   41.7256 C   0  0  0  0  0  0  0  0  0  0  0  0
   44.7560   31.8015   42.1754 O   0  0  0  0  0  0  0  0  0  0  0  0
   44.4380   36.1265   45.0134 C   0  0  0  0  0  0  0  0  0  0  0  0
   44.9946   36.0152   43.7547 C   0  0  0  0  0  0  0  0  0  0  0  0
   45.7588   34.9248   43.4448 C   0  0  0  0  0  0  0  0  0  0  0  0
   45.9175   34.0032   44.4283 N   0  0  0  0  0  0  0  0  0  0  0  0
   45.3542   34.1379   45.6667 C   0  0  0  0  0  0  0  0  0  0  0  0
   44.6296   35.2001   45.9216 N   0  0  0  0  0  0  0  0  0  0  0  0
   48.2768   35.4950   42.8462 H   0  0  0  0  0  0  0  0  0  0  0  0
   49.4501   35.0855   40.7081 H   0  0  0  0  0  0  0  0  0  0  0  0
   48.2637   34.0407   38.8130 H   0  0  0  0  0  0  0  0  0  0  0  0
   45.9282   33.4169   39.0662 H   0  0  0  0  0  0  0  0  0  0  0  0
   43.9191   35.5986   40.2266 H   0  0  0  0  0  0  0  0  0  0  0  0
   41.7984   36.1868   39.3868 H   0  0  0  0  0  0  0  0  0  0  0  0
   40.4425   34.9941   39.6828 H   0  0  0  0  0  0  0  0  0  0  0  0
   40.9988   36.1616   40.9786 H   0  0  0  0  0  0  0  0  0  0  0  0
   42.2440   31.5143   42.1600 H   0  0  0  0  0  0  0  0  0  0  0  0
   43.8271   36.9579   45.3222 H   0  0  0  0  0  0  0  0  0  0  0  0
   44.8450   36.7705   43.0048 H   0  0  0  0  0  0  0  0  0  0  0  0
   45.8413   32.9033   46.2180 C   0  0  0  0  0  0  0  0  0  0  0  0
   46.2540   31.8571   46.6846 N   0  0  0  0  0  0  0  0  0  0  0  0
   46.6269   30.8693   47.2826 C   0  0  0  0  0  0  0  0  0  0  0  0
   46.9950   30.3167   46.1218 N   0  0  0  0  0  0  0  0  0  0  0  0
   46.8386   30.9599   44.9215 C   0  0  0  0  0  0  0  0  0  0  0  0
   47.2910   30.1947   43.8146 C   0  0  0  0  0  0  0  0  0  0  0  0
   47.1416   30.8113   42.6100 C   0  0  0  0  0  0  0  0  0  0  0  0
   47.4910   30.2110   41.7884 H   0  0  0  0  0  0  0  0  0  0  0  0
   46.6100   32.0605   42.4064 C   0  0  0  0  0  0  0  0  0  0  0  0
   46.4940   32.5391   41.4650 H   0  0  0  0  0  0  0  0  0  0  0  0
   46.2282   32.6483   43.5893 C   0  0  0  0  0  0  0  0  0  0  0  0
   46.2573   32.2628   44.9711 C   0  0  0  0  0  0  0  0  0  0  0  0
   46.6397   30.5892   48.3171 H   0  0  0  0  0  0  0  0  0  0  0  0
   47.7029   29.2221   43.9994 H   0  0  0  0  0  0  0  0  0  0  0  0
   45.8271   33.6036   43.3307 H   0  0  0  0  0  0  0  0  0  0  0  0
  1 18  1  0
  2  1  2  0
  3  2  1  0
  4  5  1  0
  4  3  2  0
  5  6  2  0
  6  7  1  0
  6  1  1  0
  7 14  1  0
  8  7  1  0
  9  8  2  0
  9 11  1  0
 10  9  1  0
 11 12  2  0
 11 13  1  0
 14 13  1  0
 14 15  2  0
 16 21  2  0
 17 16  1  0
 18 17  2  0
 18 19  1  0
 19 20  2  0
 20 21  1  0
  2 22  1  0
  3 23  1  0
  4 24  1  0
  5 25  1  0
  8 26  1  0
 10 27  1  0
 10 28  1  0
 10 29  1  0
 13 30  1  0
 16 31  1  0
 17 32  1  0
 33 34  2  0
 34 35  1  0
 35 36  2  0
 36 37  1  0
 37 38  2  0
 38 39  1  0
 39 40  1  0
 39 41  2  0
 41 42  1  0
 41 43  1  0
 43 44  2  0
 44 33  1  0
 44 37  1  0
 35 45  1  0
 38 46  1  0
 43 47  1  0
 20 33  1  0
M  ISO  8  22  14  23  14  24  14  25  14  26  14  27   8  28   8  29   8
M  ISO  5  30   9  31  14  32  14  40  16  42  16
M  END
>  <DihAtoms>  (1) 
18,19,32,33

>  <DihDeg>  (1) 
178.90276725378166

$$$$
