
 OpenBabel03232520333D

 45 49  0  0  1  0  0  0  0  0999 V2000
   46.8610   34.5160   41.3520 C   0  0  0  0  0  0  0  0  0  0  0  0
   48.1570   34.8760   40.9970 C   0  0  0  0  0  0  0  0  0  0  0  0
   48.4090   34.5430   39.7450 N   0  0  0  0  0  0  0  0  0  0  0  0
   47.2910   33.9640   39.2640 C   0  0  0  0  0  0  0  0  0  0  0  0
   47.0160   33.4310   38.0040 C   0  0  0  0  0  0  0  0  0  0  0  0
   45.7880   32.8930   37.7640 C   0  0  0  0  0  0  0  0  0  0  0  0
   44.7700   32.8300   38.6880 C   0  0  0  0  0  0  0  0  0  0  0  0
   45.0890   33.3700   39.9240 C   0  0  0  0  0  0  0  0  0  0  0  0
   46.2970   33.9250   40.2340 C   0  0  0  0  0  0  0  0  0  0  0  0
   49.2840   34.6670   39.1540 H   0  0  0  0  0  0  0  0  0  0  0  0
   47.7730   33.4460   37.2210 H   0  0  0  0  0  0  0  0  0  0  0  0
   45.6040   32.4880   36.7760 H   0  0  0  0  0  0  0  0  0  0  0  0
   43.8210   32.4050   38.4770 H   0  0  0  0  0  0  0  0  0  0  0  0
   44.3460   33.3680   40.7260 H   0  0  0  0  0  0  0  0  0  0  0  0
   44.7560   36.0110   44.0430 C   0  0  0  0  0  0  0  0  0  0  0  0
   45.3950   35.8370   42.8050 C   0  0  0  0  0  0  0  0  0  0  0  0
   46.1910   34.7060   42.6400 C   0  0  0  0  0  0  0  0  0  0  0  0
   46.3250   33.8160   43.6710 N   0  0  0  0  0  0  0  0  0  0  0  0
   45.6810   34.0430   44.8440 C   0  0  0  0  0  0  0  0  0  0  0  0
   44.9010   35.1300   45.0350 N   0  0  0  0  0  0  0  0  0  0  0  0
   44.1350   36.8950   44.1690 H   0  0  0  0  0  0  0  0  0  0  0  0
   45.3020   36.5230   41.9870 H   0  0  0  0  0  0  0  0  0  0  0  0
   45.8910   33.2460   45.5510 H   0  0  0  0  0  0  0  0  0  0  0  0
   49.0980   35.5430   41.9260 C   0  0  0  0  0  0  0  0  0  0  0  0
   48.5250   36.1950   42.6330 H   0  0  0  0  0  0  0  0  0  0  0  0
   49.7800   36.1940   41.3170 H   0  0  0  0  0  0  0  0  0  0  0  0
   49.8580   34.5580   42.7570 C   0  0  0  0  0  0  0  0  0  0  0  0
   50.7280   35.1240   43.1960 H   0  0  0  0  0  0  0  0  0  0  0  0
   49.2710   34.2070   43.6330 H   0  0  0  0  0  0  0  0  0  0  0  0
   50.4360   33.4080   41.9920 C   0  0  1  0  0  0  0  0  0  0  0  0
   51.0760   32.2540   42.6110 C   0  0  0  0  0  0  0  0  0  0  0  0
   49.6600   32.0730   42.1720 C   0  0  2  0  0  0  0  0  0  0  0  0
   50.6870   33.6150   40.9350 H   0  0  0  0  0  0  0  0  0  0  0  0
   51.8740   31.7300   42.0400 H   0  0  0  0  0  0  0  0  0  0  0  0
   51.3240   32.3360   43.6780 H   0  0  0  0  0  0  0  0  0  0  0  0
   48.9450   32.0500   43.0270 H   0  0  0  0  0  0  0  0  0  0  0  0
   49.4620   31.2910   41.0800 O   0  0  0  0  0  0  0  0  0  0  0  0
   48.2220   30.7490   40.8000 C   0  0  0  0  0  0  0  0  0  0  0  0
   47.6950   30.1590   39.6700 C   0  0  0  0  0  3  0  0  0  0  0  0
   46.3960   29.6980   39.6770 C   0  0  0  0  0  0  0  0  0  0  0  0
   46.0960   29.2590   38.7410 H   0  0  0  0  0  0  0  0  0  0  0  0
   45.5810   29.8000   40.7790 C   0  0  0  0  0  3  0  0  0  0  0  0
   46.0880   30.3870   41.9190 C   0  0  0  0  0  0  0  0  0  0  0  0
   45.4230   30.4510   42.7660 H   0  0  0  0  0  0  0  0  0  0  0  0
   47.4060   30.8600   41.9330 C   0  0  0  0  0  3  0  0  0  0  0  0
  1 17  1  0  0  0  0
  2  1  2  0  0  0  0
  2 24  1  0  0  0  0
  3  2  1  0  0  0  0
  4  3  1  0  0  0  0
  4  9  1  0  0  0  0
  5  4  2  0  0  0  0
  6  5  1  0  0  0  0
  6  7  2  0  0  0  0
  7  8  1  0  0  0  0
  8  9  2  0  0  0  0
  8 14  1  0  0  0  0
  9  1  1  0  0  0  0
 10  3  1  0  0  0  0
 11  5  1  0  0  0  0
 12  6  1  0  0  0  0
 13  7  1  0  0  0  0
 15 21  1  0  0  0  0
 15 20  1  0  0  0  0
 16 15  2  0  0  0  0
 17 16  1  0  0  0  0
 17 18  2  0  0  0  0
 18 19  1  0  0  0  0
 19 20  2  0  0  0  0
 19 23  1  0  0  0  0
 22 16  1  0  0  0  0
 24 25  1  0  0  0  0
 24 27  1  0  0  0  0
 26 24  1  0  0  0  0
 27 28  1  0  0  0  0
 27 29  1  0  0  0  0
 30 33  1  6  0  0  0
 30 32  1  0  0  0  0
 30 31  1  0  0  0  0
 30 27  1  0  0  0  0
 31 35  1  0  0  0  0
 32 31  1  0  0  0  0
 32 36  1  1  0  0  0
 34 31  1  0  0  0  0
 37 32  1  0  0  0  0
 38 37  1  0  0  0  0
 38 45  1  0  0  0  0
 39 40  1  0  0  0  0
 39 38  2  0  0  0  0
 40 42  2  0  0  0  0
 41 40  1  0  0  0  0
 42 43  1  0  0  0  0
 43 45  2  0  0  0  0
 43 44  1  0  0  0  0
M  END
>  <minimizedAffinity>
-5.38141918

>  <minimizedRMSD>
1.06745064

$$$$
