
     RDKit          3D

 48 52  0  0  0  0  0  0  0  0999 V2000
   46.9302   34.4937   41.2962 C   0  0  0  0  0  0  0  0  0  0  0  0
   48.2030   34.9213   40.9316 C   0  0  0  0  0  0  0  0  0  0  0  0
   48.4538   34.6218   39.6710 N   0  0  0  0  0  0  0  0  0  0  0  0
   47.3584   33.9986   39.1942 C   0  0  0  0  0  0  0  0  0  0  0  0
   47.0917   33.4754   37.9275 C   0  0  0  0  0  0  0  0  0  0  0  0
   45.8877   32.8841   37.6939 C   0  0  0  0  0  0  0  0  0  0  0  0
   44.8861   32.7568   38.6289 C   0  0  0  0  0  0  0  0  0  0  0  0
   45.1957   33.2901   39.8699 C   0  0  0  0  0  0  0  0  0  0  0  0
   46.3797   33.8960   40.1753 C   0  0  0  0  0  0  0  0  0  0  0  0
   44.7975   35.8443   44.0408 C   0  0  0  0  0  0  0  0  0  0  0  0
   45.4266   35.7218   42.7924 C   0  0  0  0  0  0  0  0  0  0  0  0
   46.2690   34.6300   42.5960 C   0  0  0  0  0  0  0  0  0  0  0  0
   46.4546   33.7266   43.6068 N   0  0  0  0  0  0  0  0  0  0  0  0
   45.8161   33.9026   44.7918 C   0  0  0  0  0  0  0  0  0  0  0  0
   44.9927   34.9508   45.0139 N   0  0  0  0  0  0  0  0  0  0  0  0
   49.1241   35.6159   41.8609 C   0  0  0  0  0  0  0  0  0  0  0  0
   49.9750   34.6547   42.6287 C   0  0  0  0  0  0  0  0  0  0  0  0
   50.2597   33.3664   41.9208 C   0  0  1  0  0  0  0  0  0  0  0  0
   51.0234   32.2683   42.4994 C   0  0  0  0  0  0  0  0  0  0  0  0
   49.5357   32.1343   42.5330 C   0  0  2  0  0  0  0  0  0  0  0  0
   48.9935   31.2205   41.6870 O   0  0  0  0  0  0  0  0  0  0  0  0
   49.3138   34.7966   39.0712 H   0  0  0  0  0  0  0  0  0  0  0  0
   47.8375   33.5393   37.1357 H   0  0  0  0  0  0  0  0  0  0  0  0
   45.7097   32.4873   36.7010 H   0  0  0  0  0  0  0  0  0  0  0  0
   43.9546   32.2910   38.4222 H   0  0  0  0  0  0  0  0  0  0  0  0
   44.4642   33.2386   40.6813 H   0  0  0  0  0  0  0  0  0  0  0  0
   44.1397   36.6979   44.1924 H   0  0  0  0  0  0  0  0  0  0  0  0
   45.2935   36.4193   41.9886 H   0  0  0  0  0  0  0  0  0  0  0  0
   46.0698   33.1033   45.4809 H   0  0  0  0  0  0  0  0  0  0  0  0
   48.5290   36.1971   42.6098 H   0  0  0  0  0  0  0  0  0  0  0  0
   49.7405   36.3369   41.2603 H   0  0  0  0  0  0  0  0  0  0  0  0
   50.9678   35.1672   42.7787 H   0  0  0  0  0  0  0  0  0  0  0  0
   49.5863   34.4759   43.6535 H   0  0  0  0  0  0  0  0  0  0  0  0
   50.1834   33.3995   40.8179 H   0  0  0  0  0  0  0  0  0  0  0  0
   51.5945   31.6081   41.8078 H   0  0  0  0  0  0  0  0  0  0  0  0
   51.5859   32.4826   43.4170 H   0  0  0  0  0  0  0  0  0  0  0  0
   49.1142   32.2884   43.5527 H   0  0  0  0  0  0  0  0  0  0  0  0
   47.9055   30.4543   42.0609 C   0  0  0  0  0  0  0  0  0  0  0  0
   47.4930   29.1860   41.7120 C   0  0  0  0  0  0  0  0  0  0  0  0
   46.3386   28.6634   42.2544 C   0  0  0  0  0  0  0  0  0  0  0  0
   46.1191   27.6686   41.9081 H   0  0  0  0  0  0  0  0  0  0  0  0
   45.5601   29.3604   43.1470 C   0  0  0  0  0  0  0  0  0  0  0  0
   45.9547   30.6311   43.5098 C   0  0  0  0  0  0  0  0  0  0  0  0
   45.3211   31.1508   44.2124 H   0  0  0  0  0  0  0  0  0  0  0  0
   47.1238   31.1796   42.9700 C   0  0  0  0  0  0  0  0  0  0  0  0
   48.1749   28.7355   41.0104 H   0  0  0  0  0  0  0  0  0  0  0  0
   44.6882   28.8455   43.4965 H   0  0  0  0  0  0  0  0  0  0  0  0
   47.3036   32.1930   43.3534 H   0  0  0  0  0  0  0  0  0  0  0  0
  1 12  1  0
  2  1  2  0
  2 16  1  0
  3  2  1  0
  4  3  1  0
  4  9  2  0
  5  4  1  0
  6  5  2  0
  6  7  1  0
  7  8  2  0
  8  9  1  0
  9  1  1  0
 10 15  2  0
 11 10  1  0
 12 11  2  0
 12 13  1  0
 13 14  2  0
 14 15  1  0
 16 17  1  0
 18 19  1  0
 18 20  1  0
 18 17  1  0
 19 20  1  0
 21 20  1  0
  3 22  1  0
  5 23  1  0
  6 24  1  0
  7 25  1  0
  8 26  1  0
 10 27  1  0
 11 28  1  0
 14 29  1  0
 16 30  1  0
 16 31  1  0
 17 32  1  0
 17 33  1  0
 18 34  1  6
 19 35  1  0
 19 36  1  0
 20 37  1  1
 38 39  2  0
 39 40  1  0
 40 41  1  0
 40 42  2  0
 42 43  1  0
 43 44  1  0
 43 45  2  0
 45 38  1  0
 39 46  1  0
 42 47  1  0
 45 48  1  0
 21 38  1  0
M  ISO  8  22   9  23  14  24  14  25  14  26  14  27  14  28  14  29  14
M  ISO  8  30   8  31   8  32   8  33   8  34  13  35  13  36  13  37  13
M  ISO  2  41  16  44  16
M  END
>  <DihAtoms>  (1) 
19,20,37,38

>  <DihDeg>  (1) 
-0.001113444512226502

$$$$
