
 OpenBabel03232520333D

 45 49  0  0  1  0  0  0  0  0999 V2000
   46.9720   34.5270   41.2950 C   0  0  0  0  0  0  0  0  0  0  0  0
   48.2540   34.9480   40.9570 C   0  0  0  0  0  0  0  0  0  0  0  0
   48.5230   34.6630   39.6970 N   0  0  0  0  0  0  0  0  0  0  0  0
   47.4300   34.0550   39.1940 C   0  0  0  0  0  0  0  0  0  0  0  0
   47.1810   33.5490   37.9180 C   0  0  0  0  0  0  0  0  0  0  0  0
   45.9760   32.9710   37.6560 C   0  0  0  0  0  0  0  0  0  0  0  0
   44.9580   32.8400   38.5730 C   0  0  0  0  0  0  0  0  0  0  0  0
   45.2520   33.3550   39.8260 C   0  0  0  0  0  0  0  0  0  0  0  0
   46.4350   33.9480   40.1580 C   0  0  0  0  0  0  0  0  0  0  0  0
   49.3940   34.8380   39.1130 H   0  0  0  0  0  0  0  0  0  0  0  0
   47.9390   33.6170   37.1390 H   0  0  0  0  0  0  0  0  0  0  0  0
   45.8110   32.5870   36.6560 H   0  0  0  0  0  0  0  0  0  0  0  0
   44.0270   32.3840   38.3450 H   0  0  0  0  0  0  0  0  0  0  0  0
   44.5060   33.3000   40.6240 H   0  0  0  0  0  0  0  0  0  0  0  0
   44.7990   35.8570   44.0190 C   0  0  0  0  0  0  0  0  0  0  0  0
   45.4480   35.7450   42.7790 C   0  0  0  0  0  0  0  0  0  0  0  0
   46.2900   34.6530   42.5860 C   0  0  0  0  0  0  0  0  0  0  0  0
   46.4580   33.7390   43.5900 N   0  0  0  0  0  0  0  0  0  0  0  0
   45.8000   33.9050   44.7670 C   0  0  0  0  0  0  0  0  0  0  0  0
   44.9770   34.9540   44.9860 N   0  0  0  0  0  0  0  0  0  0  0  0
   44.1420   36.7110   44.1680 H   0  0  0  0  0  0  0  0  0  0  0  0
   45.3300   36.4500   41.9810 H   0  0  0  0  0  0  0  0  0  0  0  0
   46.0410   33.0980   45.4520 H   0  0  0  0  0  0  0  0  0  0  0  0
   49.1650   35.6240   41.9100 C   0  0  0  0  0  0  0  0  0  0  0  0
   48.5700   36.2860   42.5880 H   0  0  0  0  0  0  0  0  0  0  0  0
   49.8700   36.2650   41.3160 H   0  0  0  0  0  0  0  0  0  0  0  0
   49.8910   34.6470   42.7790 C   0  0  0  0  0  0  0  0  0  0  0  0
   50.7240   35.2260   43.2720 H   0  0  0  0  0  0  0  0  0  0  0  0
   49.2600   34.2810   43.6170 H   0  0  0  0  0  0  0  0  0  0  0  0
   50.5350   33.5120   42.0440 C   0  0  1  0  0  0  0  0  0  0  0  0
   51.1200   32.3460   42.6920 C   0  0  0  0  0  0  0  0  0  0  0  0
   49.7470   32.1740   42.1300 C   0  0  2  0  0  0  0  0  0  0  0  0
   50.8740   33.7400   41.0160 H   0  0  0  0  0  0  0  0  0  0  0  0
   51.9650   31.8330   42.1800 H   0  0  0  0  0  0  0  0  0  0  0  0
   51.2760   32.4070   43.7770 H   0  0  0  0  0  0  0  0  0  0  0  0
   48.9610   32.1350   42.9190 H   0  0  0  0  0  0  0  0  0  0  0  0
   49.6450   31.4150   41.0090 O   0  0  0  0  0  0  0  0  0  0  0  0
   48.4480   30.8240   40.6490 C   0  0  0  0  0  0  0  0  0  0  0  0
   47.9990   30.2640   39.4720 C   0  0  0  0  0  3  0  0  0  0  0  0
   46.7280   29.7380   39.4000 C   0  0  0  0  0  0  0  0  0  0  0  0
   46.4900   29.3300   38.4340 H   0  0  0  0  0  0  0  0  0  0  0  0
   45.8630   29.7450   40.4690 C   0  0  0  0  0  3  0  0  0  0  0  0
   46.2920   30.3010   41.6570 C   0  0  0  0  0  0  0  0  0  0  0  0
   45.5890   30.2900   42.4750 H   0  0  0  0  0  0  0  0  0  0  0  0
   47.5800   30.8400   41.7500 C   0  0  0  0  0  3  0  0  0  0  0  0
  1 17  1  0  0  0  0
  2  1  2  0  0  0  0
  2 24  1  0  0  0  0
  3  2  1  0  0  0  0
  4  3  1  0  0  0  0
  4  9  1  0  0  0  0
  5  4  2  0  0  0  0
  6  5  1  0  0  0  0
  6  7  2  0  0  0  0
  7  8  1  0  0  0  0
  8  9  2  0  0  0  0
  8 14  1  0  0  0  0
  9  1  1  0  0  0  0
 10  3  1  0  0  0  0
 11  5  1  0  0  0  0
 12  6  1  0  0  0  0
 13  7  1  0  0  0  0
 15 21  1  0  0  0  0
 15 20  1  0  0  0  0
 16 15  2  0  0  0  0
 17 16  1  0  0  0  0
 17 18  2  0  0  0  0
 18 19  1  0  0  0  0
 19 20  2  0  0  0  0
 19 23  1  0  0  0  0
 22 16  1  0  0  0  0
 24 25  1  0  0  0  0
 24 27  1  0  0  0  0
 26 24  1  0  0  0  0
 27 28  1  0  0  0  0
 27 29  1  0  0  0  0
 30 33  1  6  0  0  0
 30 32  1  0  0  0  0
 30 31  1  0  0  0  0
 30 27  1  0  0  0  0
 31 35  1  0  0  0  0
 32 31  1  0  0  0  0
 32 36  1  1  0  0  0
 34 31  1  0  0  0  0
 37 32  1  0  0  0  0
 38 37  1  0  0  0  0
 38 45  1  0  0  0  0
 39 38  2  0  0  0  0
 40 39  1  0  0  0  0
 40 42  2  0  0  0  0
 41 40  1  0  0  0  0
 42 43  1  0  0  0  0
 43 45  2  0  0  0  0
 43 44  1  0  0  0  0
M  END
>  <minimizedAffinity>
-5.36843777

>  <minimizedRMSD>
1.09897995

$$$$
