
 OpenBabel03232520573D

 40 43  0  0  1  0  0  0  0  0999 V2000
   45.2290   32.6110   47.6190 C   0  0  0  0  0  0  0  0  0  0  0  0
   45.9530   32.3600   46.4500 C   0  0  0  0  0  0  0  0  0  0  0  0
   46.3090   31.0510   46.2730 C   0  0  0  0  0  0  0  0  0  0  0  0
   45.9450   30.1170   47.1860 N   0  0  0  0  0  0  0  0  0  0  0  0
   45.2470   30.3780   48.3060 C   0  0  0  0  0  0  0  0  0  0  0  0
   44.8880   31.6330   48.5240 N   0  0  0  0  0  0  0  0  0  0  0  0
   44.9600   29.3320   49.2260 N   0  0  0  0  0  0  0  0  0  0  0  0
   44.9030   33.5840   47.8770 H   0  0  0  0  0  0  0  0  0  0  0  0
   44.0220   29.2700   49.6670 H   0  0  0  0  0  0  0  0  0  0  0  0
   45.7190   28.6400   49.4380 H   0  0  0  0  0  0  0  0  0  0  0  0
   46.2230   33.3330   45.4430 C   0  0  2  0  0  0  0  0  0  0  0  0
   45.1160   34.4770   45.6380 C   0  0  0  0  0  0  0  0  0  0  0  0
   44.9320   35.4070   44.5600 C   0  0  0  0  0  0  0  0  0  0  0  0
   45.7280   35.2920   43.3420 C   0  0  1  0  0  0  0  0  0  0  0  0
   46.7640   34.2580   43.3370 C   0  0  0  0  0  0  0  0  0  0  0  0
   46.2010   33.0240   44.0600 C   0  0  0  0  0  0  0  0  0  0  0  0
   47.0730   33.9970   45.7700 H   0  0  0  0  0  0  0  0  0  0  0  0
   44.4290   34.7330   46.4360 H   0  0  0  0  0  0  0  0  0  0  0  0
   44.1980   36.1910   44.6490 H   0  0  0  0  0  0  0  0  0  0  0  0
   46.1770   36.2880   43.1400 H   0  0  0  0  0  0  0  0  0  0  0  0
   47.6430   34.6060   43.9330 H   0  0  0  0  0  0  0  0  0  0  0  0
   47.1160   34.0550   42.3300 H   0  0  0  0  0  0  0  0  0  0  0  0
   45.0490   33.1090   43.7350 H   0  0  0  0  0  0  0  0  0  0  0  0
   46.4800   32.2450   43.4470 H   0  0  0  0  0  0  0  0  0  0  0  0
   44.7490   35.0530   42.1670 C   0  0  0  0  0  0  0  0  0  0  0  0
   43.7410   34.1720   42.4720 F   0  0  0  0  0  0  0  0  0  0  0  0
   44.1380   36.2830   41.9120 F   0  0  0  0  0  0  0  0  0  0  0  0
   45.4520   34.6980   41.0290 F   0  0  0  0  0  0  0  0  0  0  0  0
   47.2220   30.4420   45.2820 C   0  0  0  0  0  0  0  0  0  0  0  0
   47.0380   30.2690   44.0050 N   0  0  0  0  0  0  0  0  0  0  0  0
   47.7700   29.7040   43.0810 C   0  0  0  0  0  0  0  0  0  0  0  0
   48.9420   29.1850   43.4780 N   0  0  0  0  0  0  0  0  0  0  0  0
   49.3060   29.2670   44.7800 C   0  0  0  0  0  0  0  0  0  0  0  0
   50.4980   28.6840   45.0910 C   0  0  0  0  0  0  0  0  0  0  0  0
   50.9150   28.6950   46.4010 C   0  0  0  0  0  0  0  0  0  0  0  0
   51.8630   28.2260   46.6170 H   0  0  0  0  0  0  0  0  0  0  0  0
   50.0900   29.3050   47.3440 C   0  0  0  0  0  0  0  0  0  0  0  0
   50.4970   29.2650   48.3410 H   0  0  0  0  0  0  0  0  0  0  0  0
   48.9070   29.8640   46.9170 C   0  0  0  0  0  0  0  0  0  0  0  0
   48.4320   29.8910   45.6350 C   0  0  0  0  0  0  0  0  0  0  0  0
  1  8  1  0  0  0  0
  1  6  1  0  0  0  0
  2  1  2  0  0  0  0
  3  2  1  0  0  0  0
  3  4  2  0  0  0  0
  4  5  1  0  0  0  0
  5  6  2  0  0  0  0
  5  7  1  0  0  0  0
  7 10  1  0  0  0  0
  7  9  1  0  0  0  0
 11 12  1  0  0  0  0
 11 17  1  1  0  0  0
 11  2  1  0  0  0  0
 12 18  1  0  0  0  0
 13 19  1  0  0  0  0
 13 12  2  0  0  0  0
 14 20  1  6  0  0  0
 14 13  1  0  0  0  0
 15 14  1  0  0  0  0
 15 21  1  0  0  0  0
 15 16  1  0  0  0  0
 16 11  1  0  0  0  0
 22 15  1  0  0  0  0
 23 16  1  0  0  0  0
 24 16  1  0  0  0  0
 25 26  1  0  0  0  0
 25 14  1  0  0  0  0
 27 25  1  0  0  0  0
 28 25  1  0  0  0  0
 29 40  1  0  0  0  0
 29  3  1  0  0  0  0
 30 29  2  0  0  0  0
 31 32  2  0  0  0  0
 31 30  1  0  0  0  0
 32 33  1  0  0  0  0
 33 34  2  0  0  0  0
 33 40  1  0  0  0  0
 34 35  1  0  0  0  0
 35 36  1  0  0  0  0
 35 37  2  0  0  0  0
 37 38  1  0  0  0  0
 39 37  1  0  0  0  0
 40 39  2  0  0  0  0
M  END
>  <minimizedAffinity>
-6.0077467

>  <minimizedRMSD>
0.402853519

$$$$
