
 OpenBabel03232520533D

 38 41  0  0  1  0  0  0  0  0999 V2000
   45.9260   30.9330   46.6820 C   0  0  0  0  0  0  0  0  0  0  0  0
   46.3460   31.0780   45.3760 C   0  0  0  0  0  0  0  0  0  0  0  0
   46.5400   29.9050   44.6630 C   0  0  0  0  0  0  0  0  0  0  0  0
   46.3230   28.7060   45.2360 N   0  0  0  0  0  0  0  0  0  0  0  0
   45.9170   28.5740   46.4990 C   0  0  0  0  0  0  0  0  0  0  0  0
   45.7250   29.6930   47.2030 N   0  0  0  0  0  0  0  0  0  0  0  0
   45.7430   31.7940   47.3480 H   0  0  0  0  0  0  0  0  0  0  0  0
   46.8670   29.9220   43.6360 H   0  0  0  0  0  0  0  0  0  0  0  0
   46.5740   32.4030   44.8250 C   0  0  2  0  0  0  0  0  0  0  0  0
   45.5610   33.3740   45.4140 C   0  0  0  0  0  0  0  0  0  0  0  0
   45.3420   34.6010   44.6860 C   0  0  0  0  0  0  0  0  0  0  0  0
   46.0640   34.8700   43.4450 C   0  0  1  0  0  0  0  0  0  0  0  0
   47.0710   33.8930   43.0160 C   0  0  0  0  0  0  0  0  0  0  0  0
   46.6080   32.5050   43.3420 C   0  0  0  0  0  0  0  0  0  0  0  0
   47.5530   32.7780   45.2260 H   0  0  0  0  0  0  0  0  0  0  0  0
   44.9080   33.4330   46.2690 H   0  0  0  0  0  0  0  0  0  0  0  0
   44.6650   35.3560   44.9900 H   0  0  0  0  0  0  0  0  0  0  0  0
   46.5460   35.8770   43.5420 H   0  0  0  0  0  0  0  0  0  0  0  0
   47.2070   33.9640   41.9200 H   0  0  0  0  0  0  0  0  0  0  0  0
   48.0440   34.0510   43.5120 H   0  0  0  0  0  0  0  0  0  0  0  0
   47.3630   31.8010   42.9720 H   0  0  0  0  0  0  0  0  0  0  0  0
   45.6400   32.2520   42.8700 H   0  0  0  0  0  0  0  0  0  0  0  0
   45.0170   35.0620   42.3410 C   0  0  0  0  0  0  0  0  0  0  0  0
   43.8960   34.2820   42.5260 F   0  0  0  0  0  0  0  0  0  0  0  0
   44.5870   36.3890   42.3960 F   0  0  0  0  0  0  0  0  0  0  0  0
   45.6080   34.8690   41.0950 F   0  0  0  0  0  0  0  0  0  0  0  0
   45.6200   27.3900   47.3150 C   0  0  0  0  0  0  0  0  0  0  0  0
   44.3800   26.9390   47.5860 N   0  0  0  0  0  0  0  0  0  0  0  0
   44.0980   25.8750   48.3170 C   0  0  0  0  0  0  0  0  0  0  0  0
   45.0690   25.1280   48.8710 N   0  0  0  0  0  0  0  0  0  0  0  0
   46.3680   25.4900   48.6630 C   0  0  0  0  0  0  0  0  0  0  0  0
   47.3460   24.7130   49.2370 C   0  0  0  0  0  0  0  0  0  0  0  0
   48.6710   25.0440   49.0520 C   0  0  0  0  0  0  0  0  0  0  0  0
   49.3660   24.3750   49.5410 H   0  0  0  0  0  0  0  0  0  0  0  0
   48.9590   26.1680   48.2790 C   0  0  0  0  0  0  0  0  0  0  0  0
   50.0020   26.3730   48.1720 H   0  0  0  0  0  0  0  0  0  0  0  0
   47.9220   26.8950   47.7370 C   0  0  0  0  0  0  0  0  0  0  0  0
   46.5880   26.6040   47.8950 C   0  0  0  0  0  0  0  0  0  0  0  0
  1  6  1  0  0  0  0
  1  7  1  0  0  0  0
  2  1  2  0  0  0  0
  3  4  2  0  0  0  0
  3  2  1  0  0  0  0
  4  5  1  0  0  0  0
  5  6  2  0  0  0  0
  5 27  1  0  0  0  0
  8  3  1  0  0  0  0
  9 15  1  1  0  0  0
  9  2  1  0  0  0  0
  9 10  1  0  0  0  0
 10 16  1  0  0  0  0
 11 17  1  0  0  0  0
 11 10  2  0  0  0  0
 12 18  1  1  0  0  0
 12 11  1  0  0  0  0
 13 14  1  0  0  0  0
 13 12  1  0  0  0  0
 13 20  1  0  0  0  0
 14  9  1  0  0  0  0
 19 13  1  0  0  0  0
 21 14  1  0  0  0  0
 22 14  1  0  0  0  0
 23 25  1  0  0  0  0
 23 24  1  0  0  0  0
 23 12  1  0  0  0  0
 26 23  1  0  0  0  0
 27 28  2  0  0  0  0
 27 38  1  0  0  0  0
 28 29  1  0  0  0  0
 29 30  2  0  0  0  0
 31 30  1  0  0  0  0
 31 32  1  0  0  0  0
 33 32  2  0  0  0  0
 33 34  1  0  0  0  0
 35 33  1  0  0  0  0
 36 35  1  0  0  0  0
 37 38  1  0  0  0  0
 37 35  2  0  0  0  0
 38 31  2  0  0  0  0
M  END
>  <minimizedAffinity>
-5.13255358

>  <minimizedRMSD>
2.81535268

$$$$
