
 OpenBabel03232520213D

 44 48  0  0  0  0  0  0  0  0999 V2000
   47.3440   34.1070   42.3160 C   0  0  0  0  0  0  0  0  0  0  0  0
   48.2150   35.2510   41.8380 C   0  0  0  0  0  0  0  0  0  0  0  0
   49.6010   35.2280   42.3320 C   0  0  0  0  0  0  0  0  0  0  0  0
   50.2620   33.8830   42.3150 C   0  0  0  0  0  0  0  0  0  0  0  0
   49.3200   32.7490   41.9790 C   0  0  0  0  0  0  0  0  0  0  0  0
   48.0790   32.9290   42.8280 C   0  0  0  0  0  0  0  0  0  0  0  0
   47.7620   36.2340   42.1380 H   0  0  0  0  0  0  0  0  0  0  0  0
   48.2530   35.2760   40.7290 H   0  0  0  0  0  0  0  0  0  0  0  0
   49.6300   35.7300   43.3300 H   0  0  0  0  0  0  0  0  0  0  0  0
   50.2060   35.9000   41.6680 H   0  0  0  0  0  0  0  0  0  0  0  0
   51.1580   33.8500   41.6580 H   0  0  0  0  0  0  0  0  0  0  0  0
   50.6300   33.6870   43.3470 H   0  0  0  0  0  0  0  0  0  0  0  0
   49.8030   31.8030   42.3060 H   0  0  0  0  0  0  0  0  0  0  0  0
   49.0590   32.7020   40.9110 H   0  0  0  0  0  0  0  0  0  0  0  0
   48.3420   33.0250   43.8830 H   0  0  0  0  0  0  0  0  0  0  0  0
   47.4190   32.0290   42.7340 H   0  0  0  0  0  0  0  0  0  0  0  0
   45.3720   34.2930   45.4400 C   0  0  0  0  0  0  0  0  0  0  0  0
   44.6150   35.4510   45.2750 C   0  0  0  0  0  0  0  0  0  0  0  0
   44.7850   36.1700   44.0860 C   0  0  0  0  0  0  0  0  0  0  0  0
   45.6730   35.7060   43.1640 N   0  0  0  0  0  0  0  0  0  0  0  0
   46.3900   34.5790   43.3600 C   0  0  0  0  0  0  0  0  0  0  0  0
   46.2280   33.8750   44.5150 N   0  0  0  0  0  0  0  0  0  0  0  0
   45.2700   33.7090   46.3440 H   0  0  0  0  0  0  0  0  0  0  0  0
   43.9100   35.8000   46.0290 H   0  0  0  0  0  0  0  0  0  0  0  0
   44.2230   37.0750   43.9070 H   0  0  0  0  0  0  0  0  0  0  0  0
   46.5400   33.6310   41.1140 C   0  0  0  0  0  0  0  0  0  0  0  0
   46.6590   33.5720   39.7470 C   0  0  0  0  0  0  0  0  0  0  0  0
   45.6520   33.0390   39.0510 C   0  0  0  0  0  0  0  0  0  0  0  0
   44.5410   32.5650   39.6340 C   0  0  0  0  0  0  0  0  0  0  0  0
   44.9180   32.8910   41.3930 S   0  0  0  0  0  0  0  0  0  0  0  0
   47.6100   33.9980   39.4830 H   0  0  0  0  0  0  0  0  0  0  0  0
   45.8160   33.0260   37.9640 H   0  0  0  0  0  0  0  0  0  0  0  0
   43.3750   31.9590   38.9980 C   0  0  0  0  0  0  0  0  0  0  0  0
   43.5340   30.6910   38.6520 N   0  0  0  0  0  0  0  0  0  0  0  0
   42.5640   29.9870   38.0560 C   0  0  0  0  0  0  0  0  0  0  0  0
   41.3510   30.5510   37.7750 N   0  0  0  0  0  0  0  0  0  0  0  0
   41.1560   31.8460   38.1160 C   0  0  0  0  0  0  0  0  0  0  0  0
   39.9810   32.4770   37.8700 C   0  0  0  0  0  0  0  0  0  0  0  0
   39.7260   33.8130   38.2030 C   0  0  0  0  0  0  0  0  0  0  0  0
   38.7470   34.2010   37.9540 H   0  0  0  0  0  0  0  0  0  0  0  0
   40.7980   34.4680   38.8210 C   0  0  0  0  0  0  0  0  0  0  0  0
   40.5950   35.4980   39.0740 H   0  0  0  0  0  0  0  0  0  0  0  0
   41.9580   33.8140   39.0530 C   0  0  0  0  0  0  0  0  0  0  0  0
   42.1920   32.5190   38.7260 C   0  0  0  0  0  0  0  0  0  0  0  0
  1  6  1  0  0  0  0
  1 21  1  0  0  0  0
  2  7  1  0  0  0  0
  2  1  1  0  0  0  0
  2  3  1  0  0  0  0
  3  9  1  0  0  0  0
  4  3  1  0  0  0  0
  4 12  1  0  0  0  0
  5 13  1  0  0  0  0
  5  4  1  0  0  0  0
  5  6  1  0  0  0  0
  6 15  1  0  0  0  0
  8  2  1  0  0  0  0
 10  3  1  0  0  0  0
 11  4  1  0  0  0  0
 14  5  1  0  0  0  0
 16  6  1  0  0  0  0
 17 23  1  0  0  0  0
 18 17  1  0  0  0  0
 18 24  1  0  0  0  0
 19 18  2  0  0  0  0
 20 21  2  0  0  0  0
 20 19  1  0  0  0  0
 21 22  1  0  0  0  0
 22 17  2  0  0  0  0
 25 19  1  0  0  0  0
 26 30  1  0  0  0  0
 26  1  1  0  0  0  0
 27 26  2  0  0  0  0
 28 29  2  0  0  0  0
 28 27  1  0  0  0  0
 29 30  1  0  0  0  0
 31 27  1  0  0  0  0
 32 28  1  0  0  0  0
 33 29  1  0  0  0  0
 34 33  2  0  0  0  0
 35 34  1  0  0  0  0
 36 35  2  0  0  0  0
 36 37  1  0  0  0  0
 37 44  1  0  0  0  0
 38 37  2  0  0  0  0
 38 39  1  0  0  0  0
 39 41  2  0  0  0  0
 40 39  1  0  0  0  0
 41 43  1  0  0  0  0
 41 42  1  0  0  0  0
 44 33  1  0  0  0  0
 44 43  2  0  0  0  0
M  END
>  <minimizedAffinity>
-6.71308804

>  <minimizedRMSD>
4.13003016

$$$$
