
 OpenBabel03232518553D

 23 24  0  0  1  0  0  0  0  0999 V2000
   46.6510   32.6370   45.1220 C   0  0  2  0  0  0  0  0  0  0  0  0
   47.6340   32.6080   44.5970 H   0  0  0  0  0  0  0  0  0  0  0  0
   44.5530   35.7100   44.8810 C   0  0  0  0  0  0  0  0  0  0  0  0
   44.9390   36.1880   43.5940 C   0  0  0  0  0  0  0  0  0  0  0  0
   45.8900   35.4490   42.8490 C   0  0  0  0  0  0  0  0  0  0  0  0
   46.3860   34.3190   43.4050 N   0  0  0  0  0  0  0  0  0  0  0  0
   45.9810   33.9000   44.6490 C   0  0  0  0  0  0  0  0  0  0  0  0
   45.0730   34.5970   45.3720 N   0  0  0  0  0  0  0  0  0  0  0  0
   43.8330   36.2930   45.4150 H   0  0  0  0  0  0  0  0  0  0  0  0
   44.5220   37.1020   43.1740 H   0  0  0  0  0  0  0  0  0  0  0  0
   46.1880   35.8020   41.8730 H   0  0  0  0  0  0  0  0  0  0  0  0
   45.8680   31.4330   44.6440 C   0  0  0  0  0  0  0  0  0  0  0  0
   46.4450   30.6890   44.1020 H   0  0  0  0  0  0  0  0  0  0  0  0
   45.1030   31.8170   43.8970 H   0  0  0  0  0  0  0  0  0  0  0  0
   45.2550   31.0550   45.4830 H   0  0  0  0  0  0  0  0  0  0  0  0
   46.8770   32.6690   46.5890 C   0  0  0  0  0  0  0  0  0  0  0  0
   46.6750   33.7390   46.9170 H   0  0  0  0  0  0  0  0  0  0  0  0
   47.9660   32.5460   46.8050 H   0  0  0  0  0  0  0  0  0  0  0  0
   46.0740   31.8040   47.4560 C   0  0  0  0  0  0  0  0  0  0  0  0
   46.5610   30.4400   47.7780 C   0  0  0  0  0  0  0  0  0  0  0  0
   45.3500   29.9450   48.6100 C   0  0  0  0  0  0  0  0  0  0  0  0
   44.9100   31.2000   49.3750 C   0  0  0  0  0  0  0  0  0  0  0  0
   45.7950   32.3380   48.8520 C   0  0  0  0  0  0  0  0  0  0  0  0
  1  2  1  6  0  0  0
  1 16  1  0  0  0  0
  3  8  1  0  0  0  0
  3  9  1  0  0  0  0
  4  3  2  0  0  0  0
  5  6  2  0  0  0  0
  5  4  1  0  0  0  0
  6  7  1  0  0  0  0
  7  1  1  0  0  0  0
  7  8  2  0  0  0  0
 10  4  1  0  0  0  0
 11  5  1  0  0  0  0
 12  1  1  0  0  0  0
 12 15  1  0  0  0  0
 13 12  1  0  0  0  0
 14 12  1  0  0  0  0
 16 18  1  0  0  0  0
 16 17  1  0  0  0  0
 16 19  1  0  0  0  0
 19 20  1  0  0  0  0
 19 23  1  0  0  0  0
 20 21  1  0  0  0  0
 21 22  1  0  0  0  0
 23 22  1  0  0  0  0
M  END
>  <minimizedAffinity>
-4.65265465

>  <minimizedRMSD>
1.27835429

$$$$
