
     RDKit          3D

 34 36  0  0  0  0  0  0  0  0999 V2000
   46.1302   33.7083   45.4229 C   0  0  2  0  0  0  0  0  0  0  0  0
   44.9728   34.6696   45.5427 C   0  0  0  0  0  0  0  0  0  0  0  0
   44.7112   35.5284   44.4146 C   0  0  0  0  0  0  0  0  0  0  0  0
   45.5344   35.4622   43.2144 C   0  0  1  0  0  0  0  0  0  0  0  0
   46.7013   34.5499   43.2460 C   0  0  0  0  0  0  0  0  0  0  0  0
   46.3564   33.3062   44.0085 C   0  0  0  0  0  0  0  0  0  0  0  0
   45.2860   32.8534   47.5569 C   0  0  0  0  0  0  0  0  0  0  0  0
   45.9752   32.6257   46.3804 C   0  0  0  0  0  0  0  0  0  0  0  0
   46.4970   31.3450   46.1931 C   0  0  0  0  0  0  0  0  0  0  0  0
   46.3260   30.3919   47.1268 N   0  0  0  0  0  0  0  0  0  0  0  0
   45.6412   30.6409   48.2822 C   0  0  0  0  0  0  0  0  0  0  0  0
   45.1240   31.8801   48.4861 N   0  0  0  0  0  0  0  0  0  0  0  0
   44.6152   35.1025   42.0344 C   0  0  0  0  0  0  0  0  0  0  0  0
   43.6684   34.1690   42.3610 F   0  0  0  0  0  0  0  0  0  0  0  0
   43.9246   36.2677   41.6907 F   0  0  0  0  0  0  0  0  0  0  0  0
   45.3753   34.7352   40.9383 F   0  0  0  0  0  0  0  0  0  0  0  0
   47.0267   34.3082   45.7602 H   0  0  0  0  0  0  0  0  0  0  0  0
   44.2331   34.9059   46.2958 H   0  0  0  0  0  0  0  0  0  0  0  0
   43.9219   36.2363   44.4022 H   0  0  0  0  0  0  0  0  0  0  0  0
   45.9128   36.4804   42.9840 H   0  0  0  0  0  0  0  0  0  0  0  0
   47.5568   35.0493   43.7129 H   0  0  0  0  0  0  0  0  0  0  0  0
   46.9902   34.3146   42.1989 H   0  0  0  0  0  0  0  0  0  0  0  0
   47.2673   32.6673   43.9902 H   0  0  0  0  0  0  0  0  0  0  0  0
   45.4580   32.8063   43.6213 H   0  0  0  0  0  0  0  0  0  0  0  0
   44.8224   33.7801   47.8612 H   0  0  0  0  0  0  0  0  0  0  0  0
   47.0430   31.1172   45.2900 H   0  0  0  0  0  0  0  0  0  0  0  0
   45.4514   29.6130   49.3004 C   0  0  0  0  0  0  0  0  0  0  0  0
   45.9070   29.7316   50.5984 C   0  0  0  0  0  0  0  0  0  0  0  0
   45.5417   28.5894   51.2255 N   0  0  0  0  0  0  0  0  0  0  0  0
   44.8893   27.8063   50.3442 C   0  0  0  0  0  0  0  0  0  0  0  0
   44.8246   28.4325   49.1358 N   0  0  0  0  0  0  0  0  0  0  0  0
   46.4476   30.5161   51.1124 H   0  0  0  0  0  0  0  0  0  0  0  0
   44.4369   26.8264   50.4292 H   0  0  0  0  0  0  0  0  0  0  0  0
   44.3934   28.1108   48.2415 H   0  0  0  0  0  0  0  0  0  0  0  0
  1  2  1  0
  1  8  1  0
  3  2  2  0
  4  5  1  0
  4  3  1  0
  5  6  1  0
  6  1  1  0
  7 12  2  0
  8  7  1  0
  9  8  2  0
  9 10  1  0
 10 11  2  0
 11 12  1  0
 13 14  1  0
 13  4  1  0
 15 13  1  0
 16 13  1  0
  1 17  1  1
  2 18  1  0
  3 19  1  0
  4 20  1  6
  5 21  1  0
  5 22  1  0
  6 23  1  0
  6 24  1  0
  7 25  1  0
  9 26  1  0
 27 28  2  0
 28 29  1  0
 29 30  2  0
 30 31  1  0
 31 27  1  0
 28 32  1  0
 30 33  1  0
 31 34  1  0
 11 27  1  0
M  ISO  8  17  13  18  13  19  13  20  13  21  13  22  13  23  13  24  13
M  ISO  2  25  14  26  14
M  END
>  <DihAtoms>  (1) 
9,10,26,27

>  <DihDeg>  (1) 
0.00033716362955646606

$$$$
