REMARK  Name = 
REMARK  3 active torsions:
REMARK  status: ('A' for Active; 'I' for Inactive)
REMARK    1  A    between atoms: C_1  and  C_8
REMARK    2  A    between atoms: C_4  and  C_13
REMARK    3  A    between atoms: C_11  and  C_27
REMARK                            x       y       z     vdW  Elec       q    Type
REMARK                         _______ _______ _______ _____ _____    ______ ____
ROOT
ATOM      1  C   UNL     1      46.130  33.708  45.423  0.00  0.00    +0.000 C 
ATOM      2  C   UNL     1      44.973  34.670  45.543  0.00  0.00    +0.000 C 
ATOM      3  C   UNL     1      44.711  35.528  44.415  0.00  0.00    +0.000 C 
ATOM      4  C   UNL     1      45.534  35.462  43.214  0.00  0.00    +0.000 C 
ATOM      5  C   UNL     1      46.701  34.550  43.246  0.00  0.00    +0.000 C 
ATOM      6  C   UNL     1      46.356  33.306  44.008  0.00  0.00    +0.000 C 
ATOM      7  H   UNL     1      47.027  34.308  45.760  0.00  0.00    +0.000 HD
ATOM      8  H   UNL     1      44.233  34.906  46.296  0.00  0.00    +0.000 HD
ATOM      9  H   UNL     1      43.922  36.236  44.402  0.00  0.00    +0.000 HD
ATOM     10  H   UNL     1      45.913  36.480  42.984  0.00  0.00    +0.000 HD
ATOM     11  H   UNL     1      47.557  35.049  43.713  0.00  0.00    +0.000 HD
ATOM     12  H   UNL     1      46.990  34.315  42.199  0.00  0.00    +0.000 HD
ATOM     13  H   UNL     1      47.267  32.667  43.990  0.00  0.00    +0.000 HD
ATOM     14  H   UNL     1      45.458  32.806  43.621  0.00  0.00    +0.000 HD
ENDROOT
BRANCH   1  16
ATOM     15  C   UNL     1      45.286  32.853  47.557  0.00  0.00    +0.000 A 
ATOM     16  C   UNL     1      45.975  32.626  46.380  0.00  0.00    +0.000 A 
ATOM     17  C   UNL     1      46.497  31.345  46.193  0.00  0.00    +0.000 A 
ATOM     18  N   UNL     1      46.326  30.392  47.127  0.00  0.00    +0.000 NA
ATOM     19  C   UNL     1      45.641  30.641  48.282  0.00  0.00    +0.000 A 
ATOM     20  N   UNL     1      45.124  31.880  48.486  0.00  0.00    +0.000 NA
ATOM     21  H   UNL     1      44.822  33.780  47.861  0.00  0.00    +0.000 HD
ATOM     22  H   UNL     1      47.043  31.117  45.290  0.00  0.00    +0.000 HD
BRANCH  19  23
ATOM     23  C   UNL     1      45.451  29.613  49.300  0.00  0.00    +0.000 A 
ATOM     24  C   UNL     1      44.766  29.825  50.480  0.00  0.00    +0.000 A 
ATOM     25  N   UNL     1      44.807  28.650  51.149  0.00  0.00    +0.000 NA
ATOM     26  C   UNL     1      45.490  27.757  50.407  0.00  0.00    +0.000 A 
ATOM     27  N   UNL     1      45.900  28.344  49.247  0.00  0.00    +0.000 N 
ATOM     28  H   UNL     1      46.446  27.942  48.454  0.00  0.00    +0.000 HD
ENDBRANCH  19  23
ENDBRANCH   1  16
BRANCH   4  29
ATOM     29  C   UNL     1      44.615  35.102  42.034  0.00  0.00    +0.000 C 
ATOM     30  F   UNL     1      43.668  34.169  42.361  0.00  0.00    +0.000 F 
ATOM     31  F   UNL     1      43.925  36.268  41.691  0.00  0.00    +0.000 F 
ATOM     32  F   UNL     1      45.375  34.735  40.938  0.00  0.00    +0.000 F 
ENDBRANCH   4  29
TORSDOF 3
