
 OpenBabel03232520463D

 38 41  0  0  0  0  0  0  0  0999 V2000
   46.4200   34.7060   42.0790 C   0  0  0  0  0  0  0  0  0  0  0  0
   47.7290   35.0620   41.9380 C   0  0  0  0  0  0  0  0  0  0  0  0
   48.4320   34.8180   40.7560 C   0  0  0  0  0  0  0  0  0  0  0  0
   47.7870   34.1930   39.6790 C   0  0  0  0  0  0  0  0  0  0  0  0
   46.4750   33.8430   39.8320 C   0  0  0  0  0  0  0  0  0  0  0  0
   45.8050   34.0990   41.0200 C   0  0  0  0  0  0  0  0  0  0  0  0
   48.3120   35.5480   42.7120 H   0  0  0  0  0  0  0  0  0  0  0  0
   49.4710   35.0950   40.6320 H   0  0  0  0  0  0  0  0  0  0  0  0
   48.2960   33.9860   38.7440 H   0  0  0  0  0  0  0  0  0  0  0  0
   45.9210   33.3570   39.0370 H   0  0  0  0  0  0  0  0  0  0  0  0
   44.4420   33.7170   41.1330 N   0  0  0  0  0  0  0  0  0  0  0  0
   43.6230   34.6460   40.5700 C   0  0  0  0  0  0  0  0  0  0  0  0
   42.2360   34.4790   40.5660 C   0  0  0  0  0  0  0  0  0  0  0  0
   41.7410   33.3300   41.1570 C   0  0  0  0  0  0  0  0  0  0  0  0
   40.4970   33.1100   41.1910 O   0  0  0  0  0  0  0  0  0  0  0  0
   42.5740   32.4360   41.7010 N   0  0  0  0  0  0  0  0  0  0  0  0
   43.9100   32.6100   41.6980 C   0  0  0  0  0  0  0  0  0  0  0  0
   44.7670   31.8380   42.1770 O   0  0  0  0  0  0  0  0  0  0  0  0
   43.9410   35.5620   40.0950 H   0  0  0  0  0  0  0  0  0  0  0  0
   42.2600   31.5400   42.1660 H   0  0  0  0  0  0  0  0  0  0  0  0
   41.3120   35.4680   39.9650 C   0  0  0  0  0  0  0  0  0  0  0  0
   40.9980   36.1250   40.8240 H   0  0  0  0  0  0  0  0  0  0  0  0
   41.9340   36.1270   39.3110 H   0  0  0  0  0  0  0  0  0  0  0  0
   40.4590   35.0290   39.4410 H   0  0  0  0  0  0  0  0  0  0  0  0
   44.4150   36.2970   44.8480 C   0  0  0  0  0  0  0  0  0  0  0  0
   44.9940   36.1310   43.5860 C   0  0  0  0  0  0  0  0  0  0  0  0
   45.7670   34.9980   43.3420 C   0  0  0  0  0  0  0  0  0  0  0  0
   45.9100   34.1290   44.3470 N   0  0  0  0  0  0  0  0  0  0  0  0
   45.3420   34.3050   45.5650 C   0  0  0  0  0  0  0  0  0  0  0  0
   44.5990   35.3860   45.8110 N   0  0  0  0  0  0  0  0  0  0  0  0
   43.8240   37.2200   44.9430 H   0  0  0  0  0  0  0  0  0  0  0  0
   44.8970   36.8140   42.7530 H   0  0  0  0  0  0  0  0  0  0  0  0
   45.5740   33.2870   46.5730 C   0  0  0  0  0  0  0  0  0  0  0  0
   46.5160   32.2610   46.4790 C   0  0  0  0  0  0  0  0  0  0  0  0
   46.3670   31.5890   47.6190 N   0  0  0  0  0  0  0  0  0  0  0  0
   45.4210   32.1120   48.3970 C   0  0  0  0  0  0  0  0  0  0  0  0
   44.9200   33.1780   47.7430 N   0  0  0  0  0  0  0  0  0  0  0  0
   44.1650   33.7570   48.1470 H   0  0  0  0  0  0  0  0  0  0  0  0
  1 27  1  0  0  0  0
  2  1  1  0  0  0  0
  2  7  1  0  0  0  0
  3  2  2  0  0  0  0
  4  5  2  0  0  0  0
  4  3  1  0  0  0  0
  5  6  1  0  0  0  0
  6 11  1  0  0  0  0
  6  1  2  0  0  0  0
  8  3  1  0  0  0  0
  9  4  1  0  0  0  0
 10  5  1  0  0  0  0
 11 17  1  0  0  0  0
 12 11  1  0  0  0  0
 13 12  2  0  0  0  0
 13 14  1  0  0  0  0
 14 15  2  0  0  0  0
 14 16  1  0  0  0  0
 16 20  1  0  0  0  0
 17 16  1  0  0  0  0
 17 18  2  0  0  0  0
 19 12  1  0  0  0  0
 21 13  1  0  0  0  0
 21 22  1  0  0  0  0
 23 21  1  0  0  0  0
 24 21  1  0  0  0  0
 25 31  1  0  0  0  0
 25 30  1  0  0  0  0
 26 25  2  0  0  0  0
 27 26  1  0  0  0  0
 27 28  2  0  0  0  0
 28 29  1  0  0  0  0
 29 30  2  0  0  0  0
 29 33  1  0  0  0  0
 32 26  1  0  0  0  0
 33 37  1  0  0  0  0
 34 33  2  0  0  0  0
 34 35  1  0  0  0  0
 35 36  2  0  0  0  0
 37 38  1  0  0  0  0
 37 36  1  0  0  0  0
M  END
>  <minimizedAffinity>
-7.83264017

>  <minimizedRMSD>
0.449464738

$$$$
