
 OpenBabel03232518433D

 22 23  0  0  0  0  0  0  0  0999 V2000
   44.6570   35.4600   45.0540 C   0  0  0  0  0  0  0  0  0  0  0  0
   45.5150   34.9500   44.0650 C   0  0  0  0  0  0  0  0  0  0  0  0
   46.1950   33.8400   44.3560 C   0  0  0  0  0  0  0  0  0  0  0  0
   46.0530   33.2350   45.5890 N   0  0  0  0  0  0  0  0  0  0  0  0
   45.2080   33.7580   46.5320 C   0  0  0  0  0  0  0  0  0  0  0  0
   44.5330   34.8510   46.2470 N   0  0  0  0  0  0  0  0  0  0  0  0
   44.1380   36.3540   44.7500 H   0  0  0  0  0  0  0  0  0  0  0  0
   47.1040   32.9550   43.7890 C   0  0  0  0  0  0  0  0  0  0  0  0
   47.0120   31.6980   44.4900 C   0  0  0  0  0  0  0  0  0  0  0  0
   47.9160   30.7760   44.1030 N   0  0  0  0  0  0  0  0  0  0  0  0
   48.6780   31.2910   43.1420 C   0  0  0  0  0  0  0  0  0  0  0  0
   48.1140   32.4960   43.0760 N   0  0  0  0  0  0  0  0  0  0  0  0
   48.3430   33.3550   42.4430 H   0  0  0  0  0  0  0  0  0  0  0  0
   45.6960   35.6450   42.7830 C   0  0  0  0  0  0  0  0  0  0  0  0
   45.2570   36.9910   42.9780 F   0  0  0  0  0  0  0  0  0  0  0  0
   44.8440   35.1850   41.8330 F   0  0  0  0  0  0  0  0  0  0  0  0
   47.0000   35.7150   42.3810 F   0  0  0  0  0  0  0  0  0  0  0  0
   45.0240   33.1930   47.7850 O   0  0  0  0  0  0  0  0  0  0  0  0
   45.8390   32.1820   48.3090 C   0  0  0  0  0  0  0  0  0  0  0  0
   47.1560   32.5760   48.3460 F   0  0  0  0  0  0  0  0  0  0  0  0
   45.6590   30.9710   47.6850 F   0  0  0  0  0  0  0  0  0  0  0  0
   45.4800   32.0270   49.6520 F   0  0  0  0  0  0  0  0  0  0  0  0
  1  6  1  0  0  0  0
  2  3  1  0  0  0  0
  2  1  2  0  0  0  0
  3  4  2  0  0  0  0
  4  5  1  0  0  0  0
  5 18  1  0  0  0  0
  6  5  2  0  0  0  0
  7  1  1  0  0  0  0
  8  3  1  0  0  0  0
  8  9  2  0  0  0  0
 10  9  1  0  0  0  0
 11 10  2  0  0  0  0
 12 11  1  0  0  0  0
 12  8  1  0  0  0  0
 13 12  1  0  0  0  0
 14 15  1  0  0  0  0
 14  2  1  0  0  0  0
 16 14  1  0  0  0  0
 17 14  1  0  0  0  0
 18 19  1  0  0  0  0
 19 20  1  0  0  0  0
 19 22  1  0  0  0  0
 21 19  1  0  0  0  0
M  END
>  <minimizedAffinity>
-5.342484

>  <minimizedRMSD>
0.479504883

$$$$
