
     RDKit          3D

 31 33  0  0  0  0  0  0  0  0999 V2000
   45.2719   32.9671   47.4677 C   0  0  0  0  0  0  0  0  0  0  0  0
   45.7662   32.7599   46.1806 C   0  0  0  0  0  0  0  0  0  0  0  0
   46.1004   31.4299   45.8126 C   0  0  0  0  0  0  0  0  0  0  0  0
   45.9255   30.4420   46.7164 N   0  0  0  0  0  0  0  0  0  0  0  0
   45.4426   30.6798   47.9596 C   0  0  0  0  0  0  0  0  0  0  0  0
   45.1229   31.9305   48.3200 N   0  0  0  0  0  0  0  0  0  0  0  0
   45.9354   33.8907   45.2645 C   0  0  2  0  0  0  0  0  0  0  0  0
   44.8108   34.8793   45.4833 C   0  0  0  0  0  0  0  0  0  0  0  0
   44.5350   35.8042   44.3997 C   0  0  0  0  0  0  0  0  0  0  0  0
   45.3227   35.7641   43.1632 C   0  0  2  0  0  0  0  0  0  0  0  0
   46.4751   34.8215   43.1327 C   0  0  0  0  0  0  0  0  0  0  0  0
   46.0336   33.5318   43.8147 C   0  0  0  0  0  0  0  0  0  0  0  0
   44.9926   33.9472   47.8301 H   0  0  0  0  0  0  0  0  0  0  0  0
   46.4881   31.1738   44.8421 H   0  0  0  0  0  0  0  0  0  0  0  0
   45.3138   29.8655   48.6619 H   0  0  0  0  0  0  0  0  0  0  0  0
   46.8779   34.4433   45.5536 H   0  0  0  0  0  0  0  0  0  0  0  0
   44.1545   35.0359   46.3111 H   0  0  0  0  0  0  0  0  0  0  0  0
   43.7577   36.5186   44.4989 H   0  0  0  0  0  0  0  0  0  0  0  0
   44.6391   35.6037   42.3083 H   0  0  0  0  0  0  0  0  0  0  0  0
   47.4112   35.1936   43.5499 H   0  0  0  0  0  0  0  0  0  0  0  0
   46.6637   34.5249   42.0659 H   0  0  0  0  0  0  0  0  0  0  0  0
   44.9810   33.3444   43.4680 H   0  0  0  0  0  0  0  0  0  0  0  0
   46.7053   32.7059   43.6043 H   0  0  0  0  0  0  0  0  0  0  0  0
   45.9128   37.1395   43.0089 C   0  0  0  0  0  0  0  0  0  0  0  0
   45.4486   38.4021   42.6988 C   0  0  0  0  0  0  0  0  0  0  0  0
   46.5246   39.2389   42.7249 N   0  0  0  0  0  0  0  0  0  0  0  0
   47.6268   38.5359   43.0388 C   0  0  0  0  0  0  0  0  0  0  0  0
   47.2477   37.2511   43.2118 N   0  0  0  0  0  0  0  0  0  0  0  0
   44.3884   38.4912   42.5050 H   0  0  0  0  0  0  0  0  0  0  0  0
   48.6133   38.9929   43.1198 H   0  0  0  0  0  0  0  0  0  0  0  0
   48.0005   36.5518   43.4664 H   0  0  0  0  0  0  0  0  0  0  0  0
  1  6  2  0
  2  1  1  0
  3  2  2  0
  3  4  1  0
  4  5  2  0
  5  6  1  0
  7  8  1  0
  7  2  1  0
  9  8  2  0
 10  9  1  0
 11 10  1  0
 11 12  1  0
 12  7  1  0
  1 13  1  0
  3 14  1  0
  5 15  1  0
  7 16  1  1
  8 17  1  0
  9 18  1  0
 10 19  1  6
 11 20  1  0
 11 21  1  0
 12 22  1  0
 12 23  1  0
 24 25  2  0
 25 26  1  0
 26 27  2  0
 27 28  1  0
 28 24  1  0
 25 29  1  0
 27 30  1  0
 28 31  1  0
 10 24  1  0
M  ISO  8  13  14  14  14  15  14  16  13  17  13  18  13  19  13  20  13
M  ISO  3  21  13  22  13  23  13
M  END
>  <DihAtoms>  (1) 
8,9,23,24

>  <DihDeg>  (1) 
-116.08348551068319

$$$$
