
 OpenBabel03232519263D

 24 25  0  0  0  0  0  0  0  0999 V2000
   46.5890   34.8010   41.7000 C   0  0  0  0  0  0  0  0  0  0  0  0
   46.0040   35.2980   40.9320 H   0  0  0  0  0  0  0  0  0  0  0  0
   46.7310   33.7430   41.3530 H   0  0  0  0  0  0  0  0  0  0  0  0
   45.1680   36.0470   43.2850 C   0  0  0  0  0  0  0  0  0  0  0  0
   45.9620   34.9150   42.9930 C   0  0  0  0  0  0  0  0  0  0  0  0
   46.0790   33.9710   44.0080 C   0  0  0  0  0  0  0  0  0  0  0  0
   45.4360   34.1940   45.1880 N   0  0  0  0  0  0  0  0  0  0  0  0
   44.6930   35.2840   45.4190 C   0  0  0  0  0  0  0  0  0  0  0  0
   44.5590   36.2130   44.4640 N   0  0  0  0  0  0  0  0  0  0  0  0
   45.0130   36.8440   42.5580 H   0  0  0  0  0  0  0  0  0  0  0  0
   46.6660   33.0940   43.8470 H   0  0  0  0  0  0  0  0  0  0  0  0
   44.2450   35.3250   46.3950 H   0  0  0  0  0  0  0  0  0  0  0  0
   47.9970   35.3970   41.7910 C   0  0  0  0  0  0  0  0  0  0  0  0
   48.1310   35.9000   42.7600 H   0  0  0  0  0  0  0  0  0  0  0  0
   48.1340   36.1420   41.0030 H   0  0  0  0  0  0  0  0  0  0  0  0
   48.9500   34.2520   41.6300 C   0  0  0  0  0  0  0  0  0  0  0  0
   50.0750   34.3160   42.4610 C   0  0  0  0  0  0  0  0  0  0  0  0
   50.2300   35.1150   43.1440 H   0  0  0  0  0  0  0  0  0  0  0  0
   51.0080   33.2890   42.3690 C   0  0  0  0  0  0  0  0  0  0  0  0
   50.8210   32.2520   41.4890 C   0  0  0  0  0  0  0  0  0  0  0  0
   51.5670   31.4730   41.4460 H   0  0  0  0  0  0  0  0  0  0  0  0
   49.7090   32.1920   40.6710 C   0  0  0  0  0  0  0  0  0  0  0  0
   49.5320   31.3890   39.9670 H   0  0  0  0  0  0  0  0  0  0  0  0
   48.7740   33.2100   40.7530 C   0  0  0  0  0  0  0  0  0  0  0  0
  1 13  1  0  0  0  0
  1  5  1  0  0  0  0
  2  1  1  0  0  0  0
  3  1  1  0  0  0  0
  4  9  1  0  0  0  0
  5  4  2  0  0  0  0
  5  6  1  0  0  0  0
  6  7  2  0  0  0  0
  7  8  1  0  0  0  0
  8 12  1  0  0  0  0
  9  8  2  0  0  0  0
 10  4  1  0  0  0  0
 11  6  1  0  0  0  0
 13 14  1  0  0  0  0
 15 13  1  0  0  0  0
 16 13  1  0  0  0  0
 16 17  1  0  0  0  0
 17 18  1  0  0  0  0
 19 17  2  0  0  0  0
 20 19  1  0  0  0  0
 21 20  1  0  0  0  0
 22 24  1  0  0  0  0
 22 20  2  0  0  0  0
 23 22  1  0  0  0  0
 24 16  2  0  0  0  0
M  END
>  <minimizedAffinity>
-4.87257481

>  <minimizedRMSD>
2.8115859

$$$$
