
 OpenBabel03232520573D

 34 36  0  0  1  0  0  0  0  0999 V2000
   46.1110   33.6300   45.3010 C   0  0  2  0  0  0  0  0  0  0  0  0
   44.9750   34.7090   45.4990 C   0  0  0  0  0  0  0  0  0  0  0  0
   44.7400   35.6220   44.4110 C   0  0  0  0  0  0  0  0  0  0  0  0
   45.5160   35.5300   43.1830 C   0  0  1  0  0  0  0  0  0  0  0  0
   46.6050   34.5480   43.1680 C   0  0  0  0  0  0  0  0  0  0  0  0
   46.1650   33.3040   43.9110 C   0  0  0  0  0  0  0  0  0  0  0  0
   46.9500   34.3240   45.6370 H   0  0  0  0  0  0  0  0  0  0  0  0
   44.2790   34.9560   46.2940 H   0  0  0  0  0  0  0  0  0  0  0  0
   44.0010   36.3760   44.4560 H   0  0  0  0  0  0  0  0  0  0  0  0
   45.9290   36.5470   42.9600 H   0  0  0  0  0  0  0  0  0  0  0  0
   47.4720   34.9550   43.7580 H   0  0  0  0  0  0  0  0  0  0  0  0
   46.9460   34.3100   42.1630 H   0  0  0  0  0  0  0  0  0  0  0  0
   46.7550   32.5260   43.4750 H   0  0  0  0  0  0  0  0  0  0  0  0
   45.1090   33.1280   43.5300 H   0  0  0  0  0  0  0  0  0  0  0  0
   45.2770   32.8930   47.4920 C   0  0  0  0  0  0  0  0  0  0  0  0
   45.9000   32.6370   46.3090 C   0  0  0  0  0  0  0  0  0  0  0  0
   46.2980   31.3060   46.0910 C   0  0  0  0  0  0  0  0  0  0  0  0
   46.0770   30.3520   46.9990 N   0  0  0  0  0  0  0  0  0  0  0  0
   45.4460   30.6380   48.1890 C   0  0  0  0  0  0  0  0  0  0  0  0
   45.0580   31.8930   48.4170 N   0  0  0  0  0  0  0  0  0  0  0  0
   45.2290   29.6100   49.1490 N   0  0  0  0  0  0  0  0  0  0  0  0
   44.9500   33.8860   47.7200 H   0  0  0  0  0  0  0  0  0  0  0  0
   45.0040   29.8940   50.1230 H   0  0  0  0  0  0  0  0  0  0  0  0
   45.2970   28.6100   48.8700 H   0  0  0  0  0  0  0  0  0  0  0  0
   46.9770   30.6470   44.9810 C   0  0  0  0  0  0  0  0  0  0  0  0
   46.2650   29.8770   44.1300 N   0  0  0  0  0  0  0  0  0  0  0  0
   47.0650   29.4210   43.2240 O   0  0  0  0  0  0  0  0  0  0  0  0
   48.2740   29.8710   43.4590 C   0  0  0  0  0  0  0  0  0  0  0  0
   49.0130   29.5260   42.7310 H   0  0  0  0  0  0  0  0  0  0  0  0
   48.2880   30.6630   44.5720 N   0  0  0  0  0  0  0  0  0  0  0  0
   44.5210   35.2400   42.0320 C   0  0  0  0  0  0  0  0  0  0  0  0
   43.4940   34.4030   42.4100 F   0  0  0  0  0  0  0  0  0  0  0  0
   43.9380   36.4590   41.6970 F   0  0  0  0  0  0  0  0  0  0  0  0
   45.2210   34.7990   40.9140 F   0  0  0  0  0  0  0  0  0  0  0  0
  1  2  1  0  0  0  0
  1  7  1  1  0  0  0
  1 16  1  0  0  0  0
  2  8  1  0  0  0  0
  3  9  1  0  0  0  0
  3  2  2  0  0  0  0
  4 10  1  6  0  0  0
  4  3  1  0  0  0  0
  5  4  1  0  0  0  0
  5 11  1  0  0  0  0
  5  6  1  0  0  0  0
  6  1  1  0  0  0  0
 12  5  1  0  0  0  0
 13  6  1  0  0  0  0
 14  6  1  0  0  0  0
 15 22  1  0  0  0  0
 15 20  1  0  0  0  0
 16 15  2  0  0  0  0
 17 16  1  0  0  0  0
 17 18  2  0  0  0  0
 18 19  1  0  0  0  0
 19 20  2  0  0  0  0
 19 21  1  0  0  0  0
 21 23  1  0  0  0  0
 24 21  1  0  0  0  0
 25 17  1  0  0  0  0
 26 25  2  0  0  0  0
 27 28  1  0  0  0  0
 27 26  1  0  0  0  0
 28 30  2  0  0  0  0
 29 28  1  0  0  0  0
 30 25  1  0  0  0  0
 31 32  1  0  0  0  0
 31  4  1  0  0  0  0
 33 31  1  0  0  0  0
 34 31  1  0  0  0  0
M  END
>  <minimizedAffinity>
-5.56829548

>  <minimizedRMSD>
0.117079623

$$$$
