
 OpenBabel03232518133D

 35 38  0  0  0  0  0  0  0  0999 V2000
   46.4850   34.3790   43.8050 C   0  0  0  0  0  0  0  0  0  0  0  0
   45.4080   34.7780   44.6390 C   0  0  0  0  0  0  0  0  0  0  0  0
   45.4070   33.8670   45.6780 C   0  0  0  0  0  0  0  0  0  0  0  0
   46.4180   32.9830   45.4760 N   0  0  0  0  0  0  0  0  0  0  0  0
   47.0600   33.2770   44.3700 N   0  0  0  0  0  0  0  0  0  0  0  0
   44.8570   35.6340   44.3240 H   0  0  0  0  0  0  0  0  0  0  0  0
   44.6610   33.9730   46.4500 H   0  0  0  0  0  0  0  0  0  0  0  0
   46.6560   31.9200   46.4050 C   0  0  0  0  0  0  0  0  0  0  0  0
   45.8640   30.6550   46.3990 C   0  0  0  0  0  0  0  0  0  0  0  0
   46.6980   29.7730   47.8350 S   0  0  0  0  0  0  0  0  0  0  0  0
   47.8790   31.2240   48.1210 C   0  0  0  0  0  0  0  0  0  0  0  0
   47.6020   31.9930   47.3380 N   0  0  0  0  0  0  0  0  0  0  0  0
   45.1180   30.5130   45.7140 H   0  0  0  0  0  0  0  0  0  0  0  0
   48.9340   31.2420   49.2060 C   0  0  0  0  0  0  0  0  0  0  0  0
   49.1770   30.2900   50.0870 N   0  0  0  0  0  0  0  0  0  0  0  0
   50.1550   30.6480   50.8650 O   0  0  0  0  0  0  0  0  0  0  0  0
   50.5720   31.8400   50.5090 C   0  0  0  0  0  0  0  0  0  0  0  0
   51.3810   32.4360   50.9530 H   0  0  0  0  0  0  0  0  0  0  0  0
   49.8170   32.2530   49.4520 N   0  0  0  0  0  0  0  0  0  0  0  0
   47.2140   34.9530   42.3000 S   0  0  0  0  0  0  0  0  0  0  0  0
   46.7220   33.3720   38.6290 C   0  0  0  0  0  0  0  0  0  0  0  0
   47.3460   33.9790   39.7420 C   0  0  0  0  0  0  0  0  0  0  0  0
   46.5620   34.2050   40.8590 C   0  0  0  0  0  0  0  0  0  0  0  0
   45.2560   33.8420   40.8400 N   0  0  0  0  0  0  0  0  0  0  0  0
   44.6950   33.2610   39.7500 C   0  0  0  0  0  0  0  0  0  0  0  0
   45.4330   33.0370   38.6670 N   0  0  0  0  0  0  0  0  0  0  0  0
   48.3820   34.2840   39.8020 H   0  0  0  0  0  0  0  0  0  0  0  0
   43.6520   32.9760   39.7470 H   0  0  0  0  0  0  0  0  0  0  0  0
   47.6690   33.1810   37.4910 C   0  0  0  0  0  0  0  0  0  0  0  0
   47.1200   32.9960   36.5540 H   0  0  0  0  0  0  0  0  0  0  0  0
   48.3870   32.3440   37.7100 H   0  0  0  0  0  0  0  0  0  0  0  0
   48.4970   34.4360   37.2920 C   0  0  0  0  0  0  0  0  0  0  0  0
   49.5510   34.2860   37.6070 H   0  0  0  0  0  0  0  0  0  0  0  0
   48.1160   35.3120   37.8430 H   0  0  0  0  0  0  0  0  0  0  0  0
   48.5000   34.7470   36.2140 H   0  0  0  0  0  0  0  0  0  0  0  0
  1  5  2  0  0  0  0
  1  2  1  0  0  0  0
  2  3  2  0  0  0  0
  3  7  1  0  0  0  0
  4  3  1  0  0  0  0
  4  8  1  0  0  0  0
  5  4  1  0  0  0  0
  6  2  1  0  0  0  0
  8 12  1  0  0  0  0
  9  8  2  0  0  0  0
  9 10  1  0  0  0  0
 10 11  1  0  0  0  0
 11 14  1  0  0  0  0
 12 11  2  0  0  0  0
 13  9  1  0  0  0  0
 14 19  1  0  0  0  0
 14 15  2  0  0  0  0
 15 16  1  0  0  0  0
 17 16  1  0  0  0  0
 17 18  1  0  0  0  0
 19 17  2  0  0  0  0
 20  1  1  0  0  0  0
 21 26  2  0  0  0  0
 21 22  1  0  0  0  0
 22 27  1  0  0  0  0
 22 23  2  0  0  0  0
 23 20  1  0  0  0  0
 24 23  1  0  0  0  0
 25 24  2  0  0  0  0
 26 25  1  0  0  0  0
 28 25  1  0  0  0  0
 29 31  1  0  0  0  0
 29 21  1  0  0  0  0
 30 29  1  0  0  0  0
 32 29  1  0  0  0  0
 32 33  1  0  0  0  0
 32 34  1  0  0  0  0
 35 32  1  0  0  0  0
M  END
>  <minimizedAffinity>
-5.33046293

>  <minimizedRMSD>
5.61363125

$$$$
