
 OpenBabel03232519203D

 30 32  0  0  1  0  0  0  0  0999 V2000
   47.3690   31.5180   47.2880 N   0  0  0  0  0  0  0  0  0  0  0  0
   47.3590   31.8040   48.7230 C   0  0  0  0  0  0  0  0  0  0  0  0
   45.9640   32.3620   48.9080 C   0  0  0  0  0  0  0  0  0  0  0  0
   45.0900   31.4920   48.0700 C   0  0  0  0  0  0  0  0  0  0  0  0
   46.0800   31.0990   46.9400 C   0  0  2  0  0  0  0  0  0  0  0  0
   48.0650   30.7380   47.1650 H   0  0  0  0  0  0  0  0  0  0  0  0
   48.0850   32.6060   48.9620 H   0  0  0  0  0  0  0  0  0  0  0  0
   47.4870   30.8880   49.3250 H   0  0  0  0  0  0  0  0  0  0  0  0
   45.9190   33.4340   48.6300 H   0  0  0  0  0  0  0  0  0  0  0  0
   45.6840   32.1880   49.9680 H   0  0  0  0  0  0  0  0  0  0  0  0
   44.7510   30.6320   48.6320 H   0  0  0  0  0  0  0  0  0  0  0  0
   44.2430   32.0600   47.6320 H   0  0  0  0  0  0  0  0  0  0  0  0
   45.8570   29.5960   46.9450 C   0  0  0  0  0  0  0  0  0  0  0  0
   46.3250   28.6040   46.1650 N   0  0  0  0  0  0  0  0  0  0  0  0
   45.8200   27.4830   46.5990 O   0  0  0  0  0  0  0  0  0  0  0  0
   45.0360   27.6680   47.6300 C   0  0  0  0  0  0  0  0  0  0  0  0
   44.4710   26.9580   48.2170 H   0  0  0  0  0  0  0  0  0  0  0  0
   45.0540   29.0110   47.8570 N   0  0  0  0  0  0  0  0  0  0  0  0
   45.7310   31.4950   45.6710 O   0  0  0  0  0  0  0  0  0  0  0  0
   46.5060   32.4250   44.8950 C   0  0  0  0  0  0  0  0  0  0  0  0
   47.6190   32.0730   44.4580 O   0  0  0  0  0  0  0  0  0  0  0  0
   44.5870   35.4890   45.3600 C   0  0  0  0  0  0  0  0  0  0  0  0
   44.7310   36.1660   44.1370 C   0  0  0  0  0  0  0  0  0  0  0  0
   45.5150   35.5620   43.1530 C   0  0  0  0  0  0  0  0  0  0  0  0
   46.0930   34.3440   43.4450 N   0  0  0  0  0  0  0  0  0  0  0  0
   45.9070   33.7430   44.6600 C   0  0  0  0  0  0  0  0  0  0  0  0
   45.1660   34.3100   45.5990 N   0  0  0  0  0  0  0  0  0  0  0  0
   43.9920   35.8840   46.1890 H   0  0  0  0  0  0  0  0  0  0  0  0
   44.2490   37.1020   43.9990 H   0  0  0  0  0  0  0  0  0  0  0  0
   45.6550   36.0370   42.2070 H   0  0  0  0  0  0  0  0  0  0  0  0
  1  2  1  0  0  0  0
  2  3  1  0  0  0  0
  2  7  1  0  0  0  0
  2  8  1  0  0  0  0
  3 10  1  0  0  0  0
  4 11  1  0  0  0  0
  4  3  1  0  0  0  0
  5 19  1  6  0  0  0
  5 13  1  0  0  0  0
  5  1  1  0  0  0  0
  5  4  1  0  0  0  0
  6  1  1  0  0  0  0
  9  3  1  0  0  0  0
 12  4  1  0  0  0  0
 13 18  1  0  0  0  0
 14 15  1  0  0  0  0
 14 13  2  0  0  0  0
 15 16  1  0  0  0  0
 16 18  2  0  0  0  0
 16 17  1  0  0  0  0
 20 19  1  0  0  0  0
 21 20  2  0  0  0  0
 22 27  1  0  0  0  0
 22 28  1  0  0  0  0
 23 22  2  0  0  0  0
 24 25  2  0  0  0  0
 24 23  1  0  0  0  0
 25 26  1  0  0  0  0
 26 20  1  0  0  0  0
 26 27  2  0  0  0  0
 29 23  1  0  0  0  0
 30 24  1  0  0  0  0
M  END
>  <minimizedAffinity>
-4.70812178

>  <minimizedRMSD>
3.31086516

$$$$
