
 OpenBabel03232520573D

 34 36  0  0  1  0  0  0  0  0999 V2000
   46.1170   33.6090   45.3220 C   0  0  2  0  0  0  0  0  0  0  0  0
   44.9810   34.6910   45.5110 C   0  0  0  0  0  0  0  0  0  0  0  0
   44.7540   35.6020   44.4200 C   0  0  0  0  0  0  0  0  0  0  0  0
   45.5360   35.5050   43.1960 C   0  0  1  0  0  0  0  0  0  0  0  0
   46.6240   34.5220   43.1890 C   0  0  0  0  0  0  0  0  0  0  0  0
   46.1780   33.2800   43.9340 C   0  0  0  0  0  0  0  0  0  0  0  0
   46.9540   34.3030   45.6610 H   0  0  0  0  0  0  0  0  0  0  0  0
   44.2810   34.9420   46.3020 H   0  0  0  0  0  0  0  0  0  0  0  0
   44.0160   36.3570   44.4580 H   0  0  0  0  0  0  0  0  0  0  0  0
   45.9530   36.5210   42.9730 H   0  0  0  0  0  0  0  0  0  0  0  0
   47.4890   34.9280   43.7830 H   0  0  0  0  0  0  0  0  0  0  0  0
   46.9710   34.2800   42.1870 H   0  0  0  0  0  0  0  0  0  0  0  0
   46.7690   32.5000   43.5030 H   0  0  0  0  0  0  0  0  0  0  0  0
   45.1240   33.1040   43.5470 H   0  0  0  0  0  0  0  0  0  0  0  0
   45.2660   32.8790   47.5090 C   0  0  0  0  0  0  0  0  0  0  0  0
   45.8980   32.6190   46.3310 C   0  0  0  0  0  0  0  0  0  0  0  0
   46.2990   31.2890   46.1210 C   0  0  0  0  0  0  0  0  0  0  0  0
   46.0720   30.3370   47.0300 N   0  0  0  0  0  0  0  0  0  0  0  0
   45.4310   30.6270   48.2140 C   0  0  0  0  0  0  0  0  0  0  0  0
   45.0400   31.8820   48.4350 N   0  0  0  0  0  0  0  0  0  0  0  0
   45.2070   29.6010   49.1760 N   0  0  0  0  0  0  0  0  0  0  0  0
   44.9360   33.8720   47.7310 H   0  0  0  0  0  0  0  0  0  0  0  0
   44.9740   29.8880   50.1470 H   0  0  0  0  0  0  0  0  0  0  0  0
   45.2780   28.6000   48.9010 H   0  0  0  0  0  0  0  0  0  0  0  0
   46.9880   30.6260   45.0190 C   0  0  0  0  0  0  0  0  0  0  0  0
   46.2790   29.8760   44.1490 N   0  0  0  0  0  0  0  0  0  0  0  0
   47.0880   29.4130   43.2540 O   0  0  0  0  0  0  0  0  0  0  0  0
   48.3010   29.8380   43.5160 C   0  0  0  0  0  0  0  0  0  0  0  0
   49.0470   29.4880   42.7990 H   0  0  0  0  0  0  0  0  0  0  0  0
   48.3070   30.6220   44.6350 N   0  0  0  0  0  0  0  0  0  0  0  0
   44.5480   35.2140   42.0400 C   0  0  0  0  0  0  0  0  0  0  0  0
   43.5310   34.3600   42.4080 F   0  0  0  0  0  0  0  0  0  0  0  0
   43.9490   36.4280   41.7160 F   0  0  0  0  0  0  0  0  0  0  0  0
   45.2550   34.7930   40.9190 F   0  0  0  0  0  0  0  0  0  0  0  0
  1  2  1  0  0  0  0
  1  7  1  1  0  0  0
  1 16  1  0  0  0  0
  2  8  1  0  0  0  0
  3  9  1  0  0  0  0
  3  2  2  0  0  0  0
  4 10  1  6  0  0  0
  4  3  1  0  0  0  0
  5  4  1  0  0  0  0
  5 11  1  0  0  0  0
  5  6  1  0  0  0  0
  6  1  1  0  0  0  0
 12  5  1  0  0  0  0
 13  6  1  0  0  0  0
 14  6  1  0  0  0  0
 15 22  1  0  0  0  0
 15 20  1  0  0  0  0
 16 15  2  0  0  0  0
 17 16  1  0  0  0  0
 17 18  2  0  0  0  0
 18 19  1  0  0  0  0
 19 20  2  0  0  0  0
 19 21  1  0  0  0  0
 21 23  1  0  0  0  0
 24 21  1  0  0  0  0
 25 17  1  0  0  0  0
 26 25  2  0  0  0  0
 27 28  1  0  0  0  0
 27 26  1  0  0  0  0
 28 30  2  0  0  0  0
 29 28  1  0  0  0  0
 30 25  1  0  0  0  0
 31 32  1  0  0  0  0
 31  4  1  0  0  0  0
 33 31  1  0  0  0  0
 34 31  1  0  0  0  0
M  END
>  <minimizedAffinity>
-5.56967115

>  <minimizedRMSD>
0.438607335

$$$$
