
 OpenBabel03232519563D

 22 24  0  0  0  0  0  0  0  0999 V2000
   44.1030   33.8880   41.5530 N   0  0  0  0  0  0  0  0  0  0  0  0
   44.8460   33.8370   40.4660 C   0  0  0  0  0  0  0  0  0  0  0  0
   44.0280   33.5780   39.3560 C   0  0  0  0  0  0  0  0  0  0  0  0
   42.7770   33.4780   39.8160 N   0  0  0  0  0  0  0  0  0  0  0  0
   42.8150   33.6660   41.1570 C   0  0  0  0  0  0  0  0  0  0  0  0
   44.3070   33.4740   38.3230 H   0  0  0  0  0  0  0  0  0  0  0  0
   41.8980   33.6240   41.7310 H   0  0  0  0  0  0  0  0  0  0  0  0
   44.1990   35.4250   43.3730 C   0  0  0  0  0  0  0  0  0  0  0  0
   44.4850   34.1170   42.8730 C   0  0  0  0  0  0  0  0  0  0  0  0
   45.1080   33.2050   43.7240 C   0  0  0  0  0  0  0  0  0  0  0  0
   45.4130   33.5980   44.9870 N   0  0  0  0  0  0  0  0  0  0  0  0
   45.1260   34.8500   45.4320 C   0  0  0  0  0  0  0  0  0  0  0  0
   44.5210   35.7610   44.6260 N   0  0  0  0  0  0  0  0  0  0  0  0
   43.7190   36.1990   42.7900 H   0  0  0  0  0  0  0  0  0  0  0  0
   45.3130   32.2340   43.3330 H   0  0  0  0  0  0  0  0  0  0  0  0
   45.4450   34.9710   46.4590 H   0  0  0  0  0  0  0  0  0  0  0  0
   46.2710   34.0050   40.3330 C   0  0  0  0  0  0  0  0  0  0  0  0
   47.1920   34.6340   41.0760 N   0  0  0  0  0  0  0  0  0  0  0  0
   48.3290   34.4670   40.4890 O   0  0  0  0  0  0  0  0  0  0  0  0
   48.2140   33.7670   39.4050 C   0  0  0  0  0  0  0  0  0  0  0  0
   48.9920   33.4590   38.6950 H   0  0  0  0  0  0  0  0  0  0  0  0
   46.9140   33.4490   39.2640 N   0  0  0  0  0  0  0  0  0  0  0  0
  1  9  1  0  0  0  0
  2  1  1  0  0  0  0
  3  4  1  0  0  0  0
  3  2  2  0  0  0  0
  4  5  2  0  0  0  0
  5  1  1  0  0  0  0
  5  7  1  0  0  0  0
  6  3  1  0  0  0  0
  8 13  1  0  0  0  0
  9  8  2  0  0  0  0
  9 10  1  0  0  0  0
 10 11  2  0  0  0  0
 11 12  1  0  0  0  0
 12 16  1  0  0  0  0
 13 12  2  0  0  0  0
 14  8  1  0  0  0  0
 15 10  1  0  0  0  0
 17  2  1  0  0  0  0
 17 18  2  0  0  0  0
 19 18  1  0  0  0  0
 20 19  1  0  0  0  0
 21 20  1  0  0  0  0
 22 20  2  0  0  0  0
 22 17  1  0  0  0  0
M  END
>  <minimizedAffinity>
-3.89028716

>  <minimizedRMSD>
1.93231785

$$$$
