
 OpenBabel03232520433D

 40 43  0  0  1  0  0  0  0  0999 V2000
   38.9110   33.7570   39.0210 N   0  0  0  0  0  0  0  0  0  0  0  0
   38.7430   33.5500   40.4390 C   0  0  0  0  0  0  0  0  0  0  0  0
   39.0270   32.1110   40.8250 C   0  0  0  0  0  0  0  0  0  0  0  0
   40.4380   31.7850   40.4240 C   0  0  1  0  0  0  0  0  0  0  0  0
   41.1160   32.8950   39.6660 C   0  0  0  0  0  0  0  0  0  0  0  0
   40.2260   33.4020   38.5420 C   0  0  2  0  0  0  0  0  0  0  0  0
   38.6070   34.7040   38.7740 H   0  0  0  0  0  0  0  0  0  0  0  0
   39.4380   34.2460   40.9550 H   0  0  0  0  0  0  0  0  0  0  0  0
   37.6830   33.7590   40.6660 H   0  0  0  0  0  0  0  0  0  0  0  0
   38.8490   32.0240   41.9200 H   0  0  0  0  0  0  0  0  0  0  0  0
   38.2530   31.5090   40.3160 H   0  0  0  0  0  0  0  0  0  0  0  0
   40.3540   30.9390   39.7050 H   0  0  0  0  0  0  0  0  0  0  0  0
   41.4400   33.7350   40.2790 H   0  0  0  0  0  0  0  0  0  0  0  0
   42.0090   32.4450   39.1650 H   0  0  0  0  0  0  0  0  0  0  0  0
   40.1800   32.6670   37.7060 H   0  0  0  0  0  0  0  0  0  0  0  0
   40.8610   34.6520   38.0330 C   0  0  0  0  0  0  0  0  0  0  0  0
   42.1250   35.0260   38.3020 N   0  0  0  0  0  0  0  0  0  0  0  0
   42.3250   36.1400   37.7050 O   0  0  0  0  0  0  0  0  0  0  0  0
   41.2690   36.5440   37.0460 C   0  0  0  0  0  0  0  0  0  0  0  0
   41.3920   37.4820   36.5260 H   0  0  0  0  0  0  0  0  0  0  0  0
   40.3220   35.6090   37.2410 N   0  0  0  0  0  0  0  0  0  0  0  0
   41.3570   31.3840   41.9080 S   0  0  0  0  0  0  0  0  0  0  0  0
   44.1360   31.4370   42.0470 C   0  0  0  0  0  0  0  0  0  0  0  0
   42.9680   32.1860   41.9150 C   0  0  0  0  0  0  0  0  0  0  0  0
   43.0800   33.5410   41.7900 C   0  0  0  0  0  0  0  0  0  0  0  0
   44.3140   34.1340   41.7970 N   0  0  0  0  0  0  0  0  0  0  0  0
   45.4230   33.3700   41.9280 C   0  0  0  0  0  0  0  0  0  0  0  0
   45.3430   32.0160   42.0540 N   0  0  0  0  0  0  0  0  0  0  0  0
   43.9880   30.3640   42.1420 H   0  0  0  0  0  0  0  0  0  0  0  0
   42.2390   34.1780   41.6860 H   0  0  0  0  0  0  0  0  0  0  0  0
   46.7710   33.9360   41.9440 C   0  0  0  0  0  0  0  0  0  0  0  0
   47.2460   34.6270   40.8650 C   0  0  0  0  0  0  0  0  0  0  0  0
   48.5170   35.1810   40.8400 C   0  0  0  0  0  0  0  0  0  0  0  0
   49.3480   35.0400   41.9330 C   0  0  0  0  0  0  0  0  0  0  0  0
   48.8420   34.3360   43.0120 C   0  0  0  0  0  0  0  0  0  0  0  0
   47.6000   33.8180   42.9870 N   0  0  0  0  0  0  0  0  0  0  0  0
   46.5890   34.7420   39.9940 H   0  0  0  0  0  0  0  0  0  0  0  0
   48.8000   35.7060   39.9430 H   0  0  0  0  0  0  0  0  0  0  0  0
   50.3280   35.4680   41.9100 H   0  0  0  0  0  0  0  0  0  0  0  0
   49.4600   34.1990   43.8950 H   0  0  0  0  0  0  0  0  0  0  0  0
  1  2  1  0  0  0  0
  2  9  1  0  0  0  0
  2  3  1  0  0  0  0
  2  8  1  0  0  0  0
  3 10  1  0  0  0  0
  4 12  1  6  0  0  0
  4  3  1  0  0  0  0
  4 22  1  0  0  0  0
  5 13  1  0  0  0  0
  5  4  1  0  0  0  0
  6 15  1  6  0  0  0
  6  1  1  0  0  0  0
  6  5  1  0  0  0  0
  7  1  1  0  0  0  0
 11  3  1  0  0  0  0
 14  5  1  0  0  0  0
 16 17  2  0  0  0  0
 16  6  1  0  0  0  0
 18 17  1  0  0  0  0
 19 21  2  0  0  0  0
 19 18  1  0  0  0  0
 20 19  1  0  0  0  0
 21 16  1  0  0  0  0
 22 24  1  0  0  0  0
 23 28  1  0  0  0  0
 23 29  1  0  0  0  0
 24 23  2  0  0  0  0
 25 26  2  0  0  0  0
 25 24  1  0  0  0  0
 26 27  1  0  0  0  0
 27 31  1  0  0  0  0
 27 28  2  0  0  0  0
 30 25  1  0  0  0  0
 31 36  1  0  0  0  0
 32 31  2  0  0  0  0
 33 32  1  0  0  0  0
 33 34  2  0  0  0  0
 34 35  1  0  0  0  0
 35 40  1  0  0  0  0
 36 35  2  0  0  0  0
 37 32  1  0  0  0  0
 38 33  1  0  0  0  0
 39 34  1  0  0  0  0
M  END
>  <minimizedAffinity>
-5.37810373

>  <minimizedRMSD>
2.44012213

$$$$
