
     RDKit          3D

 34 36  0  0  0  0  0  0  0  0999 V2000
   46.1074   33.6516   45.3242 C   0  0  2  0  0  0  0  0  0  0  0  0
   44.9247   34.6887   45.4738 C   0  0  0  0  0  0  0  0  0  0  0  0
   44.6957   35.5870   44.3723 C   0  0  0  0  0  0  0  0  0  0  0  0
   45.5200   35.5183   43.1737 C   0  0  1  0  0  0  0  0  0  0  0  0
   46.6450   34.5783   43.2048 C   0  0  0  0  0  0  0  0  0  0  0  0
   46.2255   33.3223   43.9399 C   0  0  0  0  0  0  0  0  0  0  0  0
   45.3242   32.9231   47.5369 C   0  0  0  0  0  0  0  0  0  0  0  0
   45.8960   32.6571   46.3296 C   0  0  0  0  0  0  0  0  0  0  0  0
   46.2388   31.3159   46.0871 C   0  0  0  0  0  0  0  0  0  0  0  0
   46.0155   30.3614   46.9929 N   0  0  0  0  0  0  0  0  0  0  0  0
   45.4368   30.6570   48.2070 C   0  0  0  0  0  0  0  0  0  0  0  0
   45.1017   31.9224   48.4598 N   0  0  0  0  0  0  0  0  0  0  0  0
   45.2172   29.6274   49.1646 N   0  0  0  0  0  0  0  0  0  0  0  0
   44.5795   35.1848   41.9890 C   0  0  0  0  0  0  0  0  0  0  0  0
   43.5910   34.2885   42.3260 F   0  0  0  0  0  0  0  0  0  0  0  0
   43.9396   36.3726   41.6464 F   0  0  0  0  0  0  0  0  0  0  0  0
   45.3385   34.7956   40.8900 F   0  0  0  0  0  0  0  0  0  0  0  0
   46.9055   34.3792   45.6872 H   0  0  0  0  0  0  0  0  0  0  0  0
   44.1915   34.9136   46.2410 H   0  0  0  0  0  0  0  0  0  0  0  0
   43.9289   36.3126   44.3852 H   0  0  0  0  0  0  0  0  0  0  0  0
   45.9027   36.5487   42.9598 H   0  0  0  0  0  0  0  0  0  0  0  0
   47.4740   35.0203   43.8243 H   0  0  0  0  0  0  0  0  0  0  0  0
   47.0317   34.3477   42.2149 H   0  0  0  0  0  0  0  0  0  0  0  0
   46.8586   32.5636   43.5308 H   0  0  0  0  0  0  0  0  0  0  0  0
   45.1905   33.1037   43.5206 H   0  0  0  0  0  0  0  0  0  0  0  0
   45.0403   33.9238   47.7853 H   0  0  0  0  0  0  0  0  0  0  0  0
   45.0364   29.9085   50.1490 H   0  0  0  0  0  0  0  0  0  0  0  0
   45.2396   28.6275   48.8748 H   0  0  0  0  0  0  0  0  0  0  0  0
   46.8561   30.6442   44.9481 C   0  0  0  0  0  0  0  0  0  0  0  0
   48.0434   31.0859   44.4811 N   0  0  0  0  0  0  0  0  0  0  0  0
   48.4020   30.3311   43.4956 O   0  0  0  0  0  0  0  0  0  0  0  0
   47.4847   29.4129   43.3079 C   0  0  0  0  0  0  0  0  0  0  0  0
   47.7170   28.7311   42.4862 H   0  0  0  0  0  0  0  0  0  0  0  0
   46.4660   29.5572   44.2062 N   0  0  0  0  0  0  0  0  0  0  0  0
  1  2  1  0
  1  8  1  0
  3  2  2  0
  4  5  1  0
  4  3  1  0
  5  6  1  0
  6  1  1  0
  7 12  2  0
  8  7  1  0
  9  8  2  0
  9 10  1  0
 10 11  2  0
 11 12  1  0
 11 13  1  0
 14 15  1  0
 14  4  1  0
 16 14  1  0
 17 14  1  0
  1 18  1  1
  2 19  1  0
  3 20  1  0
  4 21  1  6
  5 22  1  0
  5 23  1  0
  6 24  1  0
  6 25  1  0
  7 26  1  0
 13 27  1  0
 13 28  1  0
 29 30  2  0
 30 31  1  0
 31 32  1  0
 32 33  1  0
 32 34  2  0
 34 29  1  0
  9 29  1  0
M  ISO  8  18  13  19  13  20  13  21  13  22  13  23  13  24  13  25  13
M  ISO  2  26  14  33  14
M  END
>  <DihAtoms>  (1) 
7,8,28,29

>  <DihDeg>  (1) 
84.65847182541576

$$$$
