
 OpenBabel03232520583D

 35 37  0  0  1  0  0  0  0  0999 V2000
   46.1070   33.5860   45.2870 C   0  0  2  0  0  0  0  0  0  0  0  0
   44.9740   34.6770   45.5170 C   0  0  0  0  0  0  0  0  0  0  0  0
   44.7440   35.6180   44.4490 C   0  0  0  0  0  0  0  0  0  0  0  0
   45.5150   35.5480   43.2240 C   0  0  1  0  0  0  0  0  0  0  0  0
   46.6000   34.5410   43.1720 C   0  0  0  0  0  0  0  0  0  0  0  0
   46.1110   33.2950   43.8950 C   0  0  0  0  0  0  0  0  0  0  0  0
   46.9470   34.2680   45.6270 H   0  0  0  0  0  0  0  0  0  0  0  0
   44.2830   34.9100   46.3240 H   0  0  0  0  0  0  0  0  0  0  0  0
   44.0030   36.3790   44.5260 H   0  0  0  0  0  0  0  0  0  0  0  0
   45.9680   36.5560   43.0320 H   0  0  0  0  0  0  0  0  0  0  0  0
   47.4860   34.8870   43.7570 H   0  0  0  0  0  0  0  0  0  0  0  0
   46.8880   34.3240   42.1460 H   0  0  0  0  0  0  0  0  0  0  0  0
   46.5800   32.5130   43.3720 H   0  0  0  0  0  0  0  0  0  0  0  0
   45.0050   33.2280   43.5540 H   0  0  0  0  0  0  0  0  0  0  0  0
   45.3550   32.8450   47.5240 C   0  0  0  0  0  0  0  0  0  0  0  0
   45.8750   32.5910   46.2870 C   0  0  0  0  0  0  0  0  0  0  0  0
   46.1310   31.2470   46.0070 C   0  0  0  0  0  0  0  0  0  0  0  0
   45.8800   30.2690   46.8950 N   0  0  0  0  0  0  0  0  0  0  0  0
   45.3570   30.5650   48.1330 C   0  0  0  0  0  0  0  0  0  0  0  0
   45.1050   31.8380   48.4260 N   0  0  0  0  0  0  0  0  0  0  0  0
   45.1330   29.5320   49.0910 N   0  0  0  0  0  0  0  0  0  0  0  0
   45.1270   33.8430   47.8330 H   0  0  0  0  0  0  0  0  0  0  0  0
   45.7550   29.6300   49.9390 H   0  0  0  0  0  0  0  0  0  0  0  0
   44.4570   28.7660   49.0060 H   0  0  0  0  0  0  0  0  0  0  0  0
   46.7170   30.5700   44.8570 C   0  0  0  0  0  0  0  0  0  0  0  0
   48.1140   30.4960   44.7720 C   0  0  0  0  0  3  0  0  0  0  0  0
   48.8540   29.9540   43.7160 C   0  0  0  0  0  0  0  0  0  0  0  0
   49.9320   29.9720   43.8010 H   0  0  0  0  0  0  0  0  0  0  0  0
   48.1140   29.4770   42.7280 N   0  0  0  0  0  0  0  0  0  0  0  0
   46.7730   29.5250   42.7650 C   0  0  0  0  0  3  0  0  0  0  0  0
   46.0990   30.0480   43.7820 N   0  0  0  0  0  0  0  0  0  0  0  0
   44.5200   35.2930   42.0640 C   0  0  0  0  0  0  0  0  0  0  0  0
   43.4580   34.5020   42.4350 F   0  0  0  0  0  0  0  0  0  0  0  0
   43.9940   36.5360   41.7210 F   0  0  0  0  0  0  0  0  0  0  0  0
   45.1970   34.8220   40.9550 F   0  0  0  0  0  0  0  0  0  0  0  0
  1  2  1  0  0  0  0
  1  7  1  1  0  0  0
  1 16  1  0  0  0  0
  2  8  1  0  0  0  0
  3  9  1  0  0  0  0
  3  2  2  0  0  0  0
  4 10  1  6  0  0  0
  4  3  1  0  0  0  0
  5  4  1  0  0  0  0
  5 11  1  0  0  0  0
  5  6  1  0  0  0  0
  6  1  1  0  0  0  0
 12  5  1  0  0  0  0
 13  6  1  0  0  0  0
 14  6  1  0  0  0  0
 15 22  1  0  0  0  0
 15 20  1  0  0  0  0
 16 15  2  0  0  0  0
 17 16  1  0  0  0  0
 17 18  2  0  0  0  0
 18 19  1  0  0  0  0
 19 20  2  0  0  0  0
 19 21  1  0  0  0  0
 21 23  1  0  0  0  0
 24 21  1  0  0  0  0
 25 17  1  0  0  0  0
 26 25  1  0  0  0  0
 27 28  1  0  0  0  0
 27 26  2  0  0  0  0
 29 30  2  0  0  0  0
 29 27  1  0  0  0  0
 30 31  1  0  0  0  0
 31 25  2  0  0  0  0
 32 33  1  0  0  0  0
 32  4  1  0  0  0  0
 34 32  1  0  0  0  0
 35 32  1  0  0  0  0
M  END
>  <minimizedAffinity>
-5.6414113

>  <minimizedRMSD>
0.601653218

$$$$
