
 OpenBabel03232520573D

 35 37  0  0  1  0  0  0  0  0999 V2000
   46.1010   33.5890   45.2920 C   0  0  2  0  0  0  0  0  0  0  0  0
   44.9740   34.6870   45.5170 C   0  0  0  0  0  0  0  0  0  0  0  0
   44.7440   35.6210   44.4430 C   0  0  0  0  0  0  0  0  0  0  0  0
   45.5110   35.5390   43.2160 C   0  0  1  0  0  0  0  0  0  0  0  0
   46.5920   34.5270   43.1690 C   0  0  0  0  0  0  0  0  0  0  0  0
   46.0990   33.2880   43.9020 C   0  0  0  0  0  0  0  0  0  0  0  0
   46.9450   34.2700   45.6240 H   0  0  0  0  0  0  0  0  0  0  0  0
   44.2860   34.9290   46.3240 H   0  0  0  0  0  0  0  0  0  0  0  0
   44.0070   36.3860   44.5170 H   0  0  0  0  0  0  0  0  0  0  0  0
   45.9680   36.5440   43.0160 H   0  0  0  0  0  0  0  0  0  0  0  0
   47.4810   34.8730   43.7480 H   0  0  0  0  0  0  0  0  0  0  0  0
   46.8750   34.3010   42.1430 H   0  0  0  0  0  0  0  0  0  0  0  0
   46.5640   32.5010   43.3830 H   0  0  0  0  0  0  0  0  0  0  0  0
   44.9920   33.2230   43.5650 H   0  0  0  0  0  0  0  0  0  0  0  0
   45.3610   32.8690   47.5400 C   0  0  0  0  0  0  0  0  0  0  0  0
   45.8680   32.6030   46.3000 C   0  0  0  0  0  0  0  0  0  0  0  0
   46.1080   31.2550   46.0260 C   0  0  0  0  0  0  0  0  0  0  0  0
   45.8550   30.2850   46.9220 N   0  0  0  0  0  0  0  0  0  0  0  0
   45.3460   30.5930   48.1620 C   0  0  0  0  0  0  0  0  0  0  0  0
   45.1080   31.8700   48.4500 N   0  0  0  0  0  0  0  0  0  0  0  0
   45.1200   29.5680   49.1290 N   0  0  0  0  0  0  0  0  0  0  0  0
   45.1460   33.8710   47.8450 H   0  0  0  0  0  0  0  0  0  0  0  0
   45.7500   29.6650   49.9700 H   0  0  0  0  0  0  0  0  0  0  0  0
   44.4350   28.8090   49.0540 H   0  0  0  0  0  0  0  0  0  0  0  0
   46.6770   30.5650   44.8760 C   0  0  0  0  0  0  0  0  0  0  0  0
   48.0740   30.5000   44.7650 C   0  0  0  0  0  3  0  0  0  0  0  0
   48.7990   29.9480   43.7040 C   0  0  0  0  0  0  0  0  0  0  0  0
   49.8770   29.9740   43.7680 H   0  0  0  0  0  0  0  0  0  0  0  0
   48.0410   29.4520   42.7350 N   0  0  0  0  0  0  0  0  0  0  0  0
   46.7030   29.4920   42.7970 C   0  0  0  0  0  3  0  0  0  0  0  0
   46.0430   30.0240   43.8190 N   0  0  0  0  0  0  0  0  0  0  0  0
   44.5120   35.2800   42.0610 C   0  0  0  0  0  0  0  0  0  0  0  0
   43.4550   34.4830   42.4370 F   0  0  0  0  0  0  0  0  0  0  0  0
   43.9780   36.5200   41.7220 F   0  0  0  0  0  0  0  0  0  0  0  0
   45.1860   34.8130   40.9480 F   0  0  0  0  0  0  0  0  0  0  0  0
  1  2  1  0  0  0  0
  1  7  1  1  0  0  0
  1 16  1  0  0  0  0
  2  8  1  0  0  0  0
  3  9  1  0  0  0  0
  3  2  2  0  0  0  0
  4 10  1  6  0  0  0
  4  3  1  0  0  0  0
  5  4  1  0  0  0  0
  5 11  1  0  0  0  0
  5  6  1  0  0  0  0
  6  1  1  0  0  0  0
 12  5  1  0  0  0  0
 13  6  1  0  0  0  0
 14  6  1  0  0  0  0
 15 22  1  0  0  0  0
 15 20  1  0  0  0  0
 16 15  2  0  0  0  0
 17 16  1  0  0  0  0
 17 18  2  0  0  0  0
 18 19  1  0  0  0  0
 19 20  2  0  0  0  0
 19 21  1  0  0  0  0
 21 23  1  0  0  0  0
 24 21  1  0  0  0  0
 25 17  1  0  0  0  0
 26 25  1  0  0  0  0
 27 28  1  0  0  0  0
 27 26  2  0  0  0  0
 29 30  2  0  0  0  0
 29 27  1  0  0  0  0
 30 31  1  0  0  0  0
 31 25  2  0  0  0  0
 32 33  1  0  0  0  0
 32  4  1  0  0  0  0
 34 32  1  0  0  0  0
 35 32  1  0  0  0  0
M  END
>  <minimizedAffinity>
-5.65272999

>  <minimizedRMSD>
0.407663822

$$$$
