
     RDKit          3D

 41 44  0  0  0  0  0  0  0  0999 V2000
   46.4118   34.6655   42.1794 C   0  0  0  0  0  0  0  0  0  0  0  0
   47.7192   35.0237   42.0392 C   0  0  0  0  0  0  0  0  0  0  0  0
   48.4214   34.8248   40.8354 C   0  0  0  0  0  0  0  0  0  0  0  0
   47.7664   34.2442   39.7488 C   0  0  0  0  0  0  0  0  0  0  0  0
   46.4594   33.8917   39.9052 C   0  0  0  0  0  0  0  0  0  0  0  0
   45.7927   34.0989   41.1008 C   0  0  0  0  0  0  0  0  0  0  0  0
   44.4300   33.7125   41.2048 N   0  0  0  0  0  0  0  0  0  0  0  0
   43.6135   34.6748   40.6689 C   0  0  0  0  0  0  0  0  0  0  0  0
   42.2272   34.5075   40.6617 C   0  0  0  0  0  0  0  0  0  0  0  0
   41.3067   35.5251   40.0913 C   0  0  0  0  0  0  0  0  0  0  0  0
   41.7221   33.3375   41.2149 C   0  0  0  0  0  0  0  0  0  0  0  0
   40.4841   33.1262   41.2395 O   0  0  0  0  0  0  0  0  0  0  0  0
   42.5643   32.4249   41.7275 N   0  0  0  0  0  0  0  0  0  0  0  0
   43.8948   32.6027   41.7258 C   0  0  0  0  0  0  0  0  0  0  0  0
   44.7474   31.8100   42.1790 O   0  0  0  0  0  0  0  0  0  0  0  0
   44.4256   36.1429   45.0100 C   0  0  0  0  0  0  0  0  0  0  0  0
   44.9929   36.0247   43.7426 C   0  0  0  0  0  0  0  0  0  0  0  0
   45.7683   34.9074   43.4544 C   0  0  0  0  0  0  0  0  0  0  0  0
   45.9302   33.9909   44.4264 N   0  0  0  0  0  0  0  0  0  0  0  0
   45.3656   34.1354   45.6475 C   0  0  0  0  0  0  0  0  0  0  0  0
   44.6182   35.2038   45.9381 N   0  0  0  0  0  0  0  0  0  0  0  0
   48.2902   35.4798   42.8420 H   0  0  0  0  0  0  0  0  0  0  0  0
   49.4615   35.1186   40.7492 H   0  0  0  0  0  0  0  0  0  0  0  0
   48.3178   34.0952   38.8245 H   0  0  0  0  0  0  0  0  0  0  0  0
   45.9519   33.4366   39.0484 H   0  0  0  0  0  0  0  0  0  0  0  0
   43.9274   35.5962   40.2277 H   0  0  0  0  0  0  0  0  0  0  0  0
   40.6876   36.0272   40.8417 H   0  0  0  0  0  0  0  0  0  0  0  0
   40.6963   34.9903   39.3255 H   0  0  0  0  0  0  0  0  0  0  0  0
   41.9350   36.2629   39.5335 H   0  0  0  0  0  0  0  0  0  0  0  0
   42.2253   31.5288   42.1543 H   0  0  0  0  0  0  0  0  0  0  0  0
   43.8374   37.0593   45.1249 H   0  0  0  0  0  0  0  0  0  0  0  0
   44.8645   36.7566   42.9640 H   0  0  0  0  0  0  0  0  0  0  0  0
   45.5831   33.1014   46.6555 C   0  0  0  0  0  0  0  0  0  0  0  0
   46.4496   33.3122   47.7083 C   0  0  0  0  0  0  0  0  0  0  0  0
   46.6387   32.3370   48.6369 C   0  0  0  0  0  0  0  0  0  0  0  0
   47.3183   32.5310   49.4427 H   0  0  0  0  0  0  0  0  0  0  0  0
   45.9803   31.1461   48.5421 N   0  0  0  0  0  0  0  0  0  0  0  0
   45.1304   30.9622   47.4940 C   0  0  0  0  0  0  0  0  0  0  0  0
   44.9390   31.9236   46.5717 N   0  0  0  0  0  0  0  0  0  0  0  0
   46.9627   34.2652   47.7648 H   0  0  0  0  0  0  0  0  0  0  0  0
   44.6724   29.9823   47.5319 H   0  0  0  0  0  0  0  0  0  0  0  0
  1 18  1  0
  2  1  2  0
  3  2  1  0
  4  5  1  0
  4  3  2  0
  5  6  2  0
  6  7  1  0
  6  1  1  0
  7 14  1  0
  8  7  1  0
  9  8  2  0
  9 11  1  0
 10  9  1  0
 11 12  2  0
 11 13  1  0
 14 13  1  0
 14 15  2  0
 16 21  2  0
 17 16  1  0
 18 17  2  0
 18 19  1  0
 19 20  2  0
 20 21  1  0
  2 22  1  0
  3 23  1  0
  4 24  1  0
  5 25  1  0
  8 26  1  0
 10 27  1  0
 10 28  1  0
 10 29  1  0
 13 30  1  0
 16 31  1  0
 17 32  1  0
 33 34  2  0
 34 35  1  0
 35 36  1  0
 35 37  2  0
 37 38  1  0
 38 39  2  0
 39 33  1  0
 34 40  1  0
 38 41  1  0
 20 33  1  0
M  ISO  8  22  14  23  14  24  14  25  14  26  14  27   8  28   8  29   8
M  ISO  4  30   9  31  14  32  14  36  14
M  END
>  <DihAtoms>  (1) 
18,19,32,33

>  <DihDeg>  (1) 
0.003086580418457222

$$$$
