
 OpenBabel03232520583D

 35 37  0  0  1  0  0  0  0  0999 V2000
   46.1050   33.5840   45.2870 C   0  0  2  0  0  0  0  0  0  0  0  0
   44.9750   34.6780   45.5160 C   0  0  0  0  0  0  0  0  0  0  0  0
   44.7460   35.6180   44.4470 C   0  0  0  0  0  0  0  0  0  0  0  0
   45.5140   35.5440   43.2210 C   0  0  1  0  0  0  0  0  0  0  0  0
   46.5970   34.5350   43.1700 C   0  0  0  0  0  0  0  0  0  0  0  0
   46.1060   33.2900   43.8950 C   0  0  0  0  0  0  0  0  0  0  0  0
   46.9470   34.2650   45.6240 H   0  0  0  0  0  0  0  0  0  0  0  0
   44.2860   34.9150   46.3240 H   0  0  0  0  0  0  0  0  0  0  0  0
   44.0070   36.3810   44.5240 H   0  0  0  0  0  0  0  0  0  0  0  0
   45.9700   36.5510   43.0260 H   0  0  0  0  0  0  0  0  0  0  0  0
   47.4850   34.8790   43.7520 H   0  0  0  0  0  0  0  0  0  0  0  0
   46.8830   34.3150   42.1430 H   0  0  0  0  0  0  0  0  0  0  0  0
   46.5730   32.5070   43.3730 H   0  0  0  0  0  0  0  0  0  0  0  0
   44.9990   33.2260   43.5560 H   0  0  0  0  0  0  0  0  0  0  0  0
   45.3580   32.8500   47.5270 C   0  0  0  0  0  0  0  0  0  0  0  0
   45.8720   32.5920   46.2890 C   0  0  0  0  0  0  0  0  0  0  0  0
   46.1210   31.2460   46.0100 C   0  0  0  0  0  0  0  0  0  0  0  0
   45.8680   30.2710   46.9010 N   0  0  0  0  0  0  0  0  0  0  0  0
   45.3510   30.5710   48.1390 C   0  0  0  0  0  0  0  0  0  0  0  0
   45.1060   31.8450   48.4310 N   0  0  0  0  0  0  0  0  0  0  0  0
   45.1260   29.5400   49.1000 N   0  0  0  0  0  0  0  0  0  0  0  0
   45.1360   33.8490   47.8360 H   0  0  0  0  0  0  0  0  0  0  0  0
   45.7520   29.6360   49.9450 H   0  0  0  0  0  0  0  0  0  0  0  0
   44.4460   28.7780   49.0180 H   0  0  0  0  0  0  0  0  0  0  0  0
   46.6990   30.5650   44.8590 C   0  0  0  0  0  0  0  0  0  0  0  0
   48.0970   30.4990   44.7600 C   0  0  0  0  0  3  0  0  0  0  0  0
   48.8290   29.9560   43.7000 C   0  0  0  0  0  0  0  0  0  0  0  0
   49.9070   29.9790   43.7740 H   0  0  0  0  0  0  0  0  0  0  0  0
   48.0810   29.4690   42.7210 N   0  0  0  0  0  0  0  0  0  0  0  0
   46.7410   29.5110   42.7710 C   0  0  0  0  0  3  0  0  0  0  0  0
   46.0730   30.0340   43.7920 N   0  0  0  0  0  0  0  0  0  0  0  0
   44.5180   35.2900   42.0630 C   0  0  0  0  0  0  0  0  0  0  0  0
   43.4560   34.4990   42.4360 F   0  0  0  0  0  0  0  0  0  0  0  0
   43.9910   36.5320   41.7210 F   0  0  0  0  0  0  0  0  0  0  0  0
   45.1930   34.8190   40.9520 F   0  0  0  0  0  0  0  0  0  0  0  0
  1  2  1  0  0  0  0
  1  7  1  1  0  0  0
  1 16  1  0  0  0  0
  2  8  1  0  0  0  0
  3  9  1  0  0  0  0
  3  2  2  0  0  0  0
  4 10  1  6  0  0  0
  4  3  1  0  0  0  0
  5  4  1  0  0  0  0
  5 11  1  0  0  0  0
  5  6  1  0  0  0  0
  6  1  1  0  0  0  0
 12  5  1  0  0  0  0
 13  6  1  0  0  0  0
 14  6  1  0  0  0  0
 15 22  1  0  0  0  0
 15 20  1  0  0  0  0
 16 15  2  0  0  0  0
 17 16  1  0  0  0  0
 17 18  2  0  0  0  0
 18 19  1  0  0  0  0
 19 20  2  0  0  0  0
 19 21  1  0  0  0  0
 21 23  1  0  0  0  0
 24 21  1  0  0  0  0
 25 17  1  0  0  0  0
 26 25  1  0  0  0  0
 27 28  1  0  0  0  0
 27 26  2  0  0  0  0
 29 30  2  0  0  0  0
 29 27  1  0  0  0  0
 30 31  1  0  0  0  0
 31 25  2  0  0  0  0
 32 33  1  0  0  0  0
 32  4  1  0  0  0  0
 34 32  1  0  0  0  0
 35 32  1  0  0  0  0
M  END
>  <minimizedAffinity>
-5.64487743

>  <minimizedRMSD>
0.282850653

$$$$
