
 OpenBabel03232520573D

 35 37  0  0  1  0  0  0  0  0999 V2000
   46.1360   33.6760   45.2400 C   0  0  2  0  0  0  0  0  0  0  0  0
   45.0160   34.7820   45.4650 C   0  0  0  0  0  0  0  0  0  0  0  0
   44.7530   35.6820   44.3700 C   0  0  0  0  0  0  0  0  0  0  0  0
   45.4800   35.5600   43.1230 C   0  0  1  0  0  0  0  0  0  0  0  0
   46.5590   34.5460   43.0730 C   0  0  0  0  0  0  0  0  0  0  0  0
   46.0900   33.3310   43.8610 C   0  0  0  0  0  0  0  0  0  0  0  0
   46.9900   34.3670   45.5230 H   0  0  0  0  0  0  0  0  0  0  0  0
   44.3550   35.0510   46.2860 H   0  0  0  0  0  0  0  0  0  0  0  0
   44.0190   36.4490   44.4430 H   0  0  0  0  0  0  0  0  0  0  0  0
   45.9300   36.5570   42.8760 H   0  0  0  0  0  0  0  0  0  0  0  0
   47.4660   34.9090   43.6130 H   0  0  0  0  0  0  0  0  0  0  0  0
   46.8090   34.2870   42.0470 H   0  0  0  0  0  0  0  0  0  0  0  0
   46.5380   32.5270   43.3530 H   0  0  0  0  0  0  0  0  0  0  0  0
   44.9720   33.2570   43.5620 H   0  0  0  0  0  0  0  0  0  0  0  0
   45.1130   32.9150   47.3590 C   0  0  0  0  0  0  0  0  0  0  0  0
   45.9350   32.7230   46.2850 C   0  0  0  0  0  0  0  0  0  0  0  0
   46.5570   31.4740   46.2210 C   0  0  0  0  0  0  0  0  0  0  0  0
   46.3580   30.5250   47.1520 N   0  0  0  0  0  0  0  0  0  0  0  0
   45.5240   30.7570   48.2210 C   0  0  0  0  0  0  0  0  0  0  0  0
   44.9190   31.9390   48.3070 N   0  0  0  0  0  0  0  0  0  0  0  0
   45.3480   29.7660   49.2320 N   0  0  0  0  0  0  0  0  0  0  0  0
   44.5930   33.8390   47.4990 H   0  0  0  0  0  0  0  0  0  0  0  0
   45.7300   30.0750   50.1670 H   0  0  0  0  0  0  0  0  0  0  0  0
   44.9090   28.8490   49.1080 H   0  0  0  0  0  0  0  0  0  0  0  0
   47.5220   30.8970   45.2950 C   0  0  0  0  0  0  0  0  0  0  0  0
   48.3280   29.8420   45.7460 C   0  0  0  0  0  3  0  0  0  0  0  0
   49.3520   29.2140   45.0310 C   0  0  0  0  0  0  0  0  0  0  0  0
   49.8830   28.4100   45.5220 H   0  0  0  0  0  0  0  0  0  0  0  0
   49.5390   29.7030   43.8150 N   0  0  0  0  0  0  0  0  0  0  0  0
   48.7940   30.7140   43.3400 C   0  0  0  0  0  3  0  0  0  0  0  0
   47.8280   31.2890   44.0440 N   0  0  0  0  0  0  0  0  0  0  0  0
   44.4440   35.2650   42.0090 C   0  0  0  0  0  0  0  0  0  0  0  0
   43.4150   34.4590   42.4360 F   0  0  0  0  0  0  0  0  0  0  0  0
   43.8790   36.4910   41.6680 F   0  0  0  0  0  0  0  0  0  0  0  0
   45.0860   34.7900   40.8810 F   0  0  0  0  0  0  0  0  0  0  0  0
  1  2  1  0  0  0  0
  1  7  1  1  0  0  0
  1 16  1  0  0  0  0
  2  8  1  0  0  0  0
  3  9  1  0  0  0  0
  3  2  2  0  0  0  0
  4 10  1  6  0  0  0
  4  3  1  0  0  0  0
  5  4  1  0  0  0  0
  5 11  1  0  0  0  0
  5  6  1  0  0  0  0
  6  1  1  0  0  0  0
 12  5  1  0  0  0  0
 13  6  1  0  0  0  0
 14  6  1  0  0  0  0
 15 22  1  0  0  0  0
 15 20  1  0  0  0  0
 16 15  2  0  0  0  0
 17 16  1  0  0  0  0
 17 18  2  0  0  0  0
 18 19  1  0  0  0  0
 19 20  2  0  0  0  0
 19 21  1  0  0  0  0
 21 23  1  0  0  0  0
 24 21  1  0  0  0  0
 25 26  1  0  0  0  0
 25 17  1  0  0  0  0
 27 28  1  0  0  0  0
 27 26  2  0  0  0  0
 29 27  1  0  0  0  0
 30 29  2  0  0  0  0
 30 31  1  0  0  0  0
 31 25  2  0  0  0  0
 32 33  1  0  0  0  0
 32  4  1  0  0  0  0
 34 32  1  0  0  0  0
 35 32  1  0  0  0  0
M  END
>  <minimizedAffinity>
-5.82692289

>  <minimizedRMSD>
0.59872973

$$$$
