
 OpenBabel03232520583D

 35 37  0  0  1  0  0  0  0  0999 V2000
   46.1010   33.5890   45.2930 C   0  0  2  0  0  0  0  0  0  0  0  0
   44.9730   34.6860   45.5170 C   0  0  0  0  0  0  0  0  0  0  0  0
   44.7440   35.6200   44.4440 C   0  0  0  0  0  0  0  0  0  0  0  0
   45.5100   35.5380   43.2160 C   0  0  1  0  0  0  0  0  0  0  0  0
   46.5920   34.5270   43.1690 C   0  0  0  0  0  0  0  0  0  0  0  0
   46.1000   33.2870   43.9030 C   0  0  0  0  0  0  0  0  0  0  0  0
   46.9450   34.2700   45.6250 H   0  0  0  0  0  0  0  0  0  0  0  0
   44.2860   34.9280   46.3250 H   0  0  0  0  0  0  0  0  0  0  0  0
   44.0070   36.3850   44.5170 H   0  0  0  0  0  0  0  0  0  0  0  0
   45.9670   36.5430   43.0160 H   0  0  0  0  0  0  0  0  0  0  0  0
   47.4810   34.8730   43.7490 H   0  0  0  0  0  0  0  0  0  0  0  0
   46.8750   34.3000   42.1430 H   0  0  0  0  0  0  0  0  0  0  0  0
   46.5640   32.5000   43.3840 H   0  0  0  0  0  0  0  0  0  0  0  0
   44.9920   33.2220   43.5660 H   0  0  0  0  0  0  0  0  0  0  0  0
   45.3610   32.8690   47.5400 C   0  0  0  0  0  0  0  0  0  0  0  0
   45.8680   32.6020   46.3000 C   0  0  0  0  0  0  0  0  0  0  0  0
   46.1090   31.2540   46.0270 C   0  0  0  0  0  0  0  0  0  0  0  0
   45.8560   30.2840   46.9240 N   0  0  0  0  0  0  0  0  0  0  0  0
   45.3470   30.5930   48.1630 C   0  0  0  0  0  0  0  0  0  0  0  0
   45.1090   31.8700   48.4500 N   0  0  0  0  0  0  0  0  0  0  0  0
   45.1210   29.5680   49.1300 N   0  0  0  0  0  0  0  0  0  0  0  0
   45.1460   33.8710   47.8450 H   0  0  0  0  0  0  0  0  0  0  0  0
   45.7510   29.6650   49.9720 H   0  0  0  0  0  0  0  0  0  0  0  0
   44.4370   28.8090   49.0550 H   0  0  0  0  0  0  0  0  0  0  0  0
   46.6780   30.5650   44.8770 C   0  0  0  0  0  0  0  0  0  0  0  0
   48.0740   30.5000   44.7640 C   0  0  0  0  0  3  0  0  0  0  0  0
   48.7990   29.9490   43.7040 C   0  0  0  0  0  0  0  0  0  0  0  0
   49.8770   29.9770   43.7670 H   0  0  0  0  0  0  0  0  0  0  0  0
   48.0430   29.4540   42.7350 N   0  0  0  0  0  0  0  0  0  0  0  0
   46.7030   29.4930   42.7980 C   0  0  0  0  0  3  0  0  0  0  0  0
   46.0440   30.0240   43.8200 N   0  0  0  0  0  0  0  0  0  0  0  0
   44.5110   35.2780   42.0610 C   0  0  0  0  0  0  0  0  0  0  0  0
   43.4560   34.4800   42.4370 F   0  0  0  0  0  0  0  0  0  0  0  0
   43.9760   36.5180   41.7230 F   0  0  0  0  0  0  0  0  0  0  0  0
   45.1860   34.8130   40.9480 F   0  0  0  0  0  0  0  0  0  0  0  0
  1  2  1  0  0  0  0
  1  7  1  1  0  0  0
  1 16  1  0  0  0  0
  2  8  1  0  0  0  0
  3  9  1  0  0  0  0
  3  2  2  0  0  0  0
  4 10  1  6  0  0  0
  4  3  1  0  0  0  0
  5  4  1  0  0  0  0
  5 11  1  0  0  0  0
  5  6  1  0  0  0  0
  6  1  1  0  0  0  0
 12  5  1  0  0  0  0
 13  6  1  0  0  0  0
 14  6  1  0  0  0  0
 15 22  1  0  0  0  0
 15 20  1  0  0  0  0
 16 15  2  0  0  0  0
 17 16  1  0  0  0  0
 17 18  2  0  0  0  0
 18 19  1  0  0  0  0
 19 20  2  0  0  0  0
 19 21  1  0  0  0  0
 21 23  1  0  0  0  0
 24 21  1  0  0  0  0
 25 17  1  0  0  0  0
 26 25  1  0  0  0  0
 27 28  1  0  0  0  0
 27 26  2  0  0  0  0
 29 30  2  0  0  0  0
 29 27  1  0  0  0  0
 30 31  1  0  0  0  0
 31 25  2  0  0  0  0
 32 33  1  0  0  0  0
 32  4  1  0  0  0  0
 34 32  1  0  0  0  0
 35 32  1  0  0  0  0
M  END
>  <minimizedAffinity>
-5.65647888

>  <minimizedRMSD>
0.370526224

$$$$
