
 OpenBabel03232519183D

 44 47  0  0  1  0  0  0  0  0999 V2000
   44.2750   34.3630   42.2280 C   0  0  0  0  0  0  0  0  0  0  0  0
   44.2480   35.4140   41.9400 H   0  0  0  0  0  0  0  0  0  0  0  0
   43.6020   34.3240   43.1420 H   0  0  0  0  0  0  0  0  0  0  0  0
   43.6580   33.4290   41.2600 C   0  0  1  0  0  0  0  0  0  0  0  0
   43.9210   32.3810   41.5200 H   0  0  0  0  0  0  0  0  0  0  0  0
   42.1910   33.5410   41.2250 C   0  0  0  0  0  0  0  0  0  0  0  0
   41.6100   34.8360   41.0080 C   0  0  0  0  0  0  0  0  0  0  0  0
   40.2140   34.9780   40.9640 C   0  0  0  0  0  0  0  0  0  0  0  0
   39.4830   33.8550   41.1350 N   0  0  0  0  0  0  0  0  0  0  0  0
   40.0370   32.6540   41.3370 C   0  0  0  0  0  0  0  0  0  0  0  0
   41.3880   32.4820   41.3850 N   0  0  0  0  0  0  0  0  0  0  0  0
   42.2330   35.7090   40.8750 H   0  0  0  0  0  0  0  0  0  0  0  0
   39.7940   35.9530   40.8000 H   0  0  0  0  0  0  0  0  0  0  0  0
   39.2190   31.4540   41.5130 C   0  0  0  0  0  0  0  0  0  0  0  0
   39.8150   30.3300   42.0890 C   0  0  0  0  0  0  0  0  0  0  0  0
   38.3710   29.1370   42.0650 S   0  0  0  0  0  0  0  0  0  0  0  0
   37.2420   30.4350   41.2640 C   0  0  0  0  0  0  0  0  0  0  0  0
   37.9690   31.2550   41.1990 N   0  0  0  0  0  0  0  0  0  0  0  0
   40.7840   30.0380   42.4880 H   0  0  0  0  0  0  0  0  0  0  0  0
   36.2140   30.2610   41.0100 H   0  0  0  0  0  0  0  0  0  0  0  0
   44.2220   33.6610   39.8780 C   0  0  0  0  0  0  0  0  0  0  0  0
   45.1690   33.0980   39.7830 H   0  0  0  0  0  0  0  0  0  0  0  0
   44.4370   34.7600   39.7460 H   0  0  0  0  0  0  0  0  0  0  0  0
   43.4460   33.3400   39.1390 H   0  0  0  0  0  0  0  0  0  0  0  0
   45.5560   34.0160   42.7060 N   0  0  0  0  0  0  0  0  0  0  0  0
   46.1040   32.9060   43.4160 C   0  0  0  0  0  0  0  0  0  0  0  0
   46.9640   32.0570   42.7660 C   0  0  0  0  0  0  0  0  0  0  0  0
   47.5300   30.9590   43.3850 C   0  0  0  0  0  0  0  0  0  0  0  0
   47.1870   30.7700   44.6710 N   0  0  0  0  0  0  0  0  0  0  0  0
   46.3400   31.6070   45.3040 C   0  0  0  0  0  0  0  0  0  0  0  0
   45.7800   32.6850   44.7130 N   0  0  0  0  0  0  0  0  0  0  0  0
   47.2270   32.2260   41.7320 H   0  0  0  0  0  0  0  0  0  0  0  0
   48.2000   30.3120   42.8490 H   0  0  0  0  0  0  0  0  0  0  0  0
   45.9800   31.3850   46.7050 C   0  0  0  0  0  0  0  0  0  0  0  0
   46.1810   32.3650   47.6560 C   0  0  0  0  0  0  0  0  0  0  0  0
   45.8860   32.2800   49.0000 C   0  0  0  0  0  0  0  0  0  0  0  0
   46.0810   33.1040   49.6660 H   0  0  0  0  0  0  0  0  0  0  0  0
   45.3420   31.0820   49.3690 N   0  0  0  0  0  0  0  0  0  0  0  0
   45.1300   30.1000   48.4740 C   0  0  0  0  0  0  0  0  0  0  0  0
   45.4400   30.2400   47.1640 N   0  0  0  0  0  0  0  0  0  0  0  0
   46.6350   34.8940   42.5040 C   0  0  0  0  0  0  0  0  0  0  0  0
   47.6270   34.7020   43.4270 F   0  0  0  0  0  0  0  0  0  0  0  0
   46.0880   36.1800   42.8030 F   0  0  0  0  0  0  0  0  0  0  0  0
   47.1370   34.9210   41.2330 F   0  0  0  0  0  0  0  0  0  0  0  0
  1 25  1  0  0  0  0
  1  3  1  0  0  0  0
  2  1  1  0  0  0  0
  4  5  1  1  0  0  0
  4  1  1  0  0  0  0
  6  4  1  0  0  0  0
  6 11  1  0  0  0  0
  7  6  2  0  0  0  0
  8  7  1  0  0  0  0
  8  9  2  0  0  0  0
  9 10  1  0  0  0  0
 10 11  2  0  0  0  0
 10 14  1  0  0  0  0
 12  7  1  0  0  0  0
 13  8  1  0  0  0  0
 14 15  2  0  0  0  0
 15 19  1  0  0  0  0
 16 15  1  0  0  0  0
 17 16  1  0  0  0  0
 18 17  2  0  0  0  0
 18 14  1  0  0  0  0
 20 17  1  0  0  0  0
 21  4  1  0  0  0  0
 22 21  1  0  0  0  0
 23 21  1  0  0  0  0
 24 21  1  0  0  0  0
 25 26  1  0  0  0  0
 26 31  1  0  0  0  0
 27 28  1  0  0  0  0
 27 26  2  0  0  0  0
 28 29  2  0  0  0  0
 29 30  1  0  0  0  0
 30 34  1  0  0  0  0
 31 30  2  0  0  0  0
 32 27  1  0  0  0  0
 33 28  1  0  0  0  0
 34 40  2  0  0  0  0
 34 35  1  0  0  0  0
 35 36  2  0  0  0  0
 36 38  1  0  0  0  0
 36 37  1  0  0  0  0
 39 38  2  0  0  0  0
 40 39  1  0  0  0  0
 41 25  1  0  0  0  0
 41 43  1  0  0  0  0
 41 42  1  0  0  0  0
 44 41  1  0  0  0  0
M  END
>  <minimizedAffinity>
-6.37448883

>  <minimizedRMSD>
1.81231284

$$$$
