REMARK  Name = 
REMARK  3 active torsions:
REMARK  status: ('A' for Active; 'I' for Inactive)
REMARK    1  A    between atoms: C_1  and  C_8
REMARK    2  A    between atoms: C_4  and  C_14
REMARK    3  A    between atoms: C_9  and  C_29
REMARK                            x       y       z     vdW  Elec       q    Type
REMARK                         _______ _______ _______ _____ _____    ______ ____
ROOT
ATOM      1  C   UNL     1      46.141  33.646  45.311  0.00  0.00    +0.000 C 
ATOM      2  C   UNL     1      44.935  34.680  45.472  0.00  0.00    +0.000 C 
ATOM      3  C   UNL     1      44.687  35.580  44.377  0.00  0.00    +0.000 C 
ATOM      4  C   UNL     1      45.515  35.518  43.179  0.00  0.00    +0.000 C 
ATOM      5  C   UNL     1      46.648  34.572  43.194  0.00  0.00    +0.000 C 
ATOM      6  C   UNL     1      46.194  33.317  43.928  0.00  0.00    +0.000 C 
ATOM      7  H   UNL     1      46.923  34.393  45.645  0.00  0.00    +0.000 HD
ATOM      8  H   UNL     1      44.190  34.900  46.257  0.00  0.00    +0.000 HD
ATOM      9  H   UNL     1      43.897  36.302  44.411  0.00  0.00    +0.000 HD
ATOM     10  H   UNL     1      45.909  36.542  42.974  0.00  0.00    +0.000 HD
ATOM     11  H   UNL     1      47.484  34.995  43.798  0.00  0.00    +0.000 HD
ATOM     12  H   UNL     1      47.021  34.388  42.190  0.00  0.00    +0.000 HD
ATOM     13  H   UNL     1      45.098  33.181  43.570  0.00  0.00    +0.000 HD
ATOM     14  H   UNL     1      46.707  32.544  43.432  0.00  0.00    +0.000 HD
ENDROOT
BRANCH   1  16
ATOM     15  C   UNL     1      45.331  32.919  47.538  0.00  0.00    +0.000 A 
ATOM     16  C   UNL     1      45.932  32.673  46.336  0.00  0.00    +0.000 A 
ATOM     17  C   UNL     1      46.273  31.342  46.112  0.00  0.00    +0.000 A 
ATOM     18  N   UNL     1      46.030  30.363  47.002  0.00  0.00    +0.000 NA
ATOM     19  C   UNL     1      45.422  30.651  48.204  0.00  0.00    +0.000 A 
ATOM     20  N   UNL     1      45.088  31.914  48.444  0.00  0.00    +0.000 NA
ATOM     21  N   UNL     1      45.173  29.634  49.155  0.00  0.00    +0.000 N 
ATOM     22  H   UNL     1      45.030  33.917  47.813  0.00  0.00    +0.000 HD
ATOM     23  H   UNL     1      45.682  28.726  49.136  0.00  0.00    +0.000 HD
ATOM     24  H   UNL     1      44.456  29.811  49.891  0.00  0.00    +0.000 HD
BRANCH  17  25
ATOM     25  C   UNL     1      46.969  30.701  45.005  0.00  0.00    +0.000 A 
ATOM     26  C   UNL     1      48.180  30.837  44.365  0.00  0.00    +0.000 A 
ATOM     27  C   UNL     1      48.173  29.961  43.273  0.00  0.00    +0.000 A 
ATOM     28  H   UNL     1      49.024  29.900  42.627  0.00  0.00    +0.000 HD
ATOM     29  N   UNL     1      46.975  29.351  43.311  0.00  0.00    +0.000 N 
ATOM     30  N   UNL     1      46.248  29.776  44.329  0.00  0.00    +0.000 NA
ATOM     31  H   UNL     1      46.704  28.625  42.583  0.00  0.00    +0.000 HD
ENDBRANCH  17  25
ENDBRANCH   1  16
BRANCH   4  32
ATOM     32  C   UNL     1      44.575  35.185  41.993  0.00  0.00    +0.000 C 
ATOM     33  F   UNL     1      43.591  34.283  42.328  0.00  0.00    +0.000 F 
ATOM     34  F   UNL     1      43.929  36.370  41.654  0.00  0.00    +0.000 F 
ATOM     35  F   UNL     1      45.332  34.806  40.892  0.00  0.00    +0.000 F 
ENDBRANCH   4  32
TORSDOF 3
