
 OpenBabel03232520583D

 35 37  0  0  1  0  0  0  0  0999 V2000
   46.1050   33.6040   45.2400 C   0  0  2  0  0  0  0  0  0  0  0  0
   44.9910   34.7220   45.4780 C   0  0  0  0  0  0  0  0  0  0  0  0
   44.7400   35.6420   44.4000 C   0  0  0  0  0  0  0  0  0  0  0  0
   45.4830   35.5250   43.1520 C   0  0  1  0  0  0  0  0  0  0  0  0
   46.5420   34.4990   43.0950 C   0  0  0  0  0  0  0  0  0  0  0  0
   46.0460   33.2770   43.8570 C   0  0  0  0  0  0  0  0  0  0  0  0
   46.9600   34.2900   45.5230 H   0  0  0  0  0  0  0  0  0  0  0  0
   44.3160   34.9930   46.3090 H   0  0  0  0  0  0  0  0  0  0  0  0
   44.0080   36.4200   44.4840 H   0  0  0  0  0  0  0  0  0  0  0  0
   45.9370   36.5180   42.9210 H   0  0  0  0  0  0  0  0  0  0  0  0
   47.4440   34.8570   43.6440 H   0  0  0  0  0  0  0  0  0  0  0  0
   46.8360   34.2920   42.0690 H   0  0  0  0  0  0  0  0  0  0  0  0
   44.9220   33.2230   43.5700 H   0  0  0  0  0  0  0  0  0  0  0  0
   46.4680   32.4710   43.3300 H   0  0  0  0  0  0  0  0  0  0  0  0
   45.2830   32.9060   47.4720 C   0  0  0  0  0  0  0  0  0  0  0  0
   45.8920   32.6440   46.2770 C   0  0  0  0  0  0  0  0  0  0  0  0
   46.2370   31.3110   46.0740 C   0  0  0  0  0  0  0  0  0  0  0  0
   45.9900   30.3440   46.9750 N   0  0  0  0  0  0  0  0  0  0  0  0
   45.3740   30.6470   48.1700 C   0  0  0  0  0  0  0  0  0  0  0  0
   45.0360   31.9130   48.3900 N   0  0  0  0  0  0  0  0  0  0  0  0
   45.1210   29.6430   49.1330 N   0  0  0  0  0  0  0  0  0  0  0  0
   44.9780   33.9070   47.7320 H   0  0  0  0  0  0  0  0  0  0  0  0
   45.6310   28.7350   49.1290 H   0  0  0  0  0  0  0  0  0  0  0  0
   44.3990   29.8280   49.8620 H   0  0  0  0  0  0  0  0  0  0  0  0
   46.9410   30.6560   44.9800 C   0  0  0  0  0  0  0  0  0  0  0  0
   48.2120   30.6670   44.4530 C   0  0  0  0  0  3  0  0  0  0  0  0
   48.1900   29.8740   43.2990 C   0  0  0  0  0  0  0  0  0  0  0  0
   49.0800   29.7400   42.7210 H   0  0  0  0  0  0  0  0  0  0  0  0
   46.9230   29.4330   43.1930 N   0  0  0  0  0  0  0  0  0  0  0  0
   46.1690   29.8850   44.1790 N   0  0  0  0  0  0  0  0  0  0  0  0
   46.6270   28.8000   42.3920 H   0  0  0  0  0  0  0  0  0  0  0  0
   44.4470   35.2660   42.0290 C   0  0  0  0  0  0  0  0  0  0  0  0
   43.4020   34.4710   42.4390 F   0  0  0  0  0  0  0  0  0  0  0  0
   43.9000   36.5030   41.7010 F   0  0  0  0  0  0  0  0  0  0  0  0
   45.0980   34.7970   40.8950 F   0  0  0  0  0  0  0  0  0  0  0  0
  1  2  1  0  0  0  0
  1  7  1  1  0  0  0
  1 16  1  0  0  0  0
  2  8  1  0  0  0  0
  3  9  1  0  0  0  0
  3  2  2  0  0  0  0
  4 10  1  6  0  0  0
  4  3  1  0  0  0  0
  5  4  1  0  0  0  0
  5 11  1  0  0  0  0
  5  6  1  0  0  0  0
  6  1  1  0  0  0  0
 12  5  1  0  0  0  0
 13  6  1  0  0  0  0
 14  6  1  0  0  0  0
 15 22  1  0  0  0  0
 15 20  1  0  0  0  0
 16 15  2  0  0  0  0
 17 16  1  0  0  0  0
 17 18  2  0  0  0  0
 18 19  1  0  0  0  0
 19 20  2  0  0  0  0
 19 21  1  0  0  0  0
 21 24  1  0  0  0  0
 23 21  1  0  0  0  0
 25 17  1  0  0  0  0
 26 25  1  0  0  0  0
 27 26  2  0  0  0  0
 28 27  1  0  0  0  0
 29 27  1  0  0  0  0
 29 30  1  0  0  0  0
 30 25  2  0  0  0  0
 31 29  1  0  0  0  0
 32 33  1  0  0  0  0
 32  4  1  0  0  0  0
 34 32  1  0  0  0  0
 35 32  1  0  0  0  0
M  END
>  <minimizedAffinity>
-5.5391717

>  <minimizedRMSD>
0.540543139

$$$$
