
 OpenBabel03232520513D

 30 32  0  0  1  0  0  0  0  0999 V2000
   46.3230   33.5020   45.6910 C   0  0  2  0  0  0  0  0  0  0  0  0
   45.1150   34.4160   45.6620 C   0  0  0  0  0  0  0  0  0  0  0  0
   44.8840   35.2270   44.4850 C   0  0  0  0  0  0  0  0  0  0  0  0
   45.8230   35.1320   43.3730 C   0  0  1  0  0  0  0  0  0  0  0  0
   46.9590   34.2150   43.4870 C   0  0  0  0  0  0  0  0  0  0  0  0
   46.6040   33.0080   44.3030 C   0  0  0  0  0  0  0  0  0  0  0  0
   47.1350   34.1620   46.0720 H   0  0  0  0  0  0  0  0  0  0  0  0
   44.3300   34.6100   46.3780 H   0  0  0  0  0  0  0  0  0  0  0  0
   44.0520   35.8790   44.4240 H   0  0  0  0  0  0  0  0  0  0  0  0
   46.2610   36.1770   43.2530 H   0  0  0  0  0  0  0  0  0  0  0  0
   47.3020   33.9400   42.4660 H   0  0  0  0  0  0  0  0  0  0  0  0
   47.8090   34.7220   43.9960 H   0  0  0  0  0  0  0  0  0  0  0  0
   47.4320   32.2660   44.3300 H   0  0  0  0  0  0  0  0  0  0  0  0
   45.6770   32.4900   43.9750 H   0  0  0  0  0  0  0  0  0  0  0  0
   45.2730   32.6640   47.7780 C   0  0  0  0  0  0  0  0  0  0  0  0
   46.0800   32.4260   46.6670 C   0  0  0  0  0  0  0  0  0  0  0  0
   46.6510   31.1330   46.5270 C   0  0  0  0  0  0  0  0  0  0  0  0
   46.3900   30.1960   47.4670 N   0  0  0  0  0  0  0  0  0  0  0  0
   45.5990   30.4680   48.5330 C   0  0  0  0  0  0  0  0  0  0  0  0
   45.0540   31.6800   48.6820 N   0  0  0  0  0  0  0  0  0  0  0  0
   44.7960   33.6120   47.9730 H   0  0  0  0  0  0  0  0  0  0  0  0
   47.2860   30.8560   45.7050 H   0  0  0  0  0  0  0  0  0  0  0  0
   45.3830   29.7210   49.2960 H   0  0  0  0  0  0  0  0  0  0  0  0
   45.0200   34.9730   42.1070 C   0  0  0  0  0  0  0  0  0  0  0  0
   43.7490   35.4290   41.9080 C   0  0  0  0  0  0  0  0  0  0  0  0
   43.3220   35.1100   40.6380 C   0  0  0  0  0  0  0  0  0  0  0  0
   42.4250   35.2600   40.0660 H   0  0  0  0  0  0  0  0  0  0  0  0
   44.3590   34.4530   40.0740 N   0  0  0  0  0  0  0  0  0  0  0  0
   45.3550   34.3720   40.9360 N   0  0  0  0  0  0  0  0  0  0  0  0
   44.5530   34.0060   39.1470 H   0  0  0  0  0  0  0  0  0  0  0  0
  1  7  1  1  0  0  0
  1 16  1  0  0  0  0
  2  1  1  0  0  0  0
  2  8  1  0  0  0  0
  3  2  2  0  0  0  0
  4 10  1  6  0  0  0
  4  5  1  0  0  0  0
  4  3  1  0  0  0  0
  5 12  1  0  0  0  0
  5  6  1  0  0  0  0
  6 13  1  0  0  0  0
  6  1  1  0  0  0  0
  9  3  1  0  0  0  0
 11  5  1  0  0  0  0
 14  6  1  0  0  0  0
 15 21  1  0  0  0  0
 15 20  1  0  0  0  0
 16 15  2  0  0  0  0
 17 16  1  0  0  0  0
 17 18  2  0  0  0  0
 18 19  1  0  0  0  0
 19 20  2  0  0  0  0
 19 23  1  0  0  0  0
 22 17  1  0  0  0  0
 24  4  1  0  0  0  0
 25 24  1  0  0  0  0
 26 25  2  0  0  0  0
 27 26  1  0  0  0  0
 28 26  1  0  0  0  0
 28 29  1  0  0  0  0
 29 24  2  0  0  0  0
 30 28  1  0  0  0  0
M  END
>  <minimizedAffinity>
-5.53539705

>  <minimizedRMSD>
1.00762403

$$$$
