
     RDKit          3D

 36 38  0  0  0  0  0  0  0  0999 V2000
   46.1411   33.6459   45.3109 C   0  0  2  0  0  0  0  0  0  0  0  0
   44.9352   34.6796   45.4719 C   0  0  0  0  0  0  0  0  0  0  0  0
   44.6872   35.5804   44.3766 C   0  0  0  0  0  0  0  0  0  0  0  0
   45.5154   35.5177   43.1791 C   0  0  1  0  0  0  0  0  0  0  0  0
   46.6482   34.5724   43.1938 C   0  0  0  0  0  0  0  0  0  0  0  0
   46.1940   33.3167   43.9280 C   0  0  0  0  0  0  0  0  0  0  0  0
   45.3310   32.9190   47.5383 C   0  0  0  0  0  0  0  0  0  0  0  0
   45.9324   32.6727   46.3355 C   0  0  0  0  0  0  0  0  0  0  0  0
   46.2729   31.3419   46.1124 C   0  0  0  0  0  0  0  0  0  0  0  0
   46.0301   30.3629   47.0024 N   0  0  0  0  0  0  0  0  0  0  0  0
   45.4217   30.6508   48.2041 C   0  0  0  0  0  0  0  0  0  0  0  0
   45.0880   31.9141   48.4444 N   0  0  0  0  0  0  0  0  0  0  0  0
   45.1728   29.6342   49.1547 N   0  0  0  0  0  0  0  0  0  0  0  0
   44.5750   35.1849   41.9926 C   0  0  0  0  0  0  0  0  0  0  0  0
   43.5908   34.2828   42.3275 F   0  0  0  0  0  0  0  0  0  0  0  0
   43.9289   36.3703   41.6539 F   0  0  0  0  0  0  0  0  0  0  0  0
   45.3323   34.8057   40.8919 F   0  0  0  0  0  0  0  0  0  0  0  0
   46.9234   34.3932   45.6447 H   0  0  0  0  0  0  0  0  0  0  0  0
   44.1895   34.9001   46.2565 H   0  0  0  0  0  0  0  0  0  0  0  0
   43.8970   36.3022   44.4107 H   0  0  0  0  0  0  0  0  0  0  0  0
   45.9092   36.5416   42.9740 H   0  0  0  0  0  0  0  0  0  0  0  0
   47.4840   34.9954   43.7983 H   0  0  0  0  0  0  0  0  0  0  0  0
   47.0206   34.3883   42.1901 H   0  0  0  0  0  0  0  0  0  0  0  0
   45.0978   33.1806   43.5697 H   0  0  0  0  0  0  0  0  0  0  0  0
   46.7072   32.5435   43.4321 H   0  0  0  0  0  0  0  0  0  0  0  0
   45.0300   33.9174   47.8126 H   0  0  0  0  0  0  0  0  0  0  0  0
   45.6824   28.7262   49.1362 H   0  0  0  0  0  0  0  0  0  0  0  0
   44.4560   29.8105   49.8905 H   0  0  0  0  0  0  0  0  0  0  0  0
   46.9686   30.7014   45.0049 C   0  0  0  0  0  0  0  0  0  0  0  0
   46.8880   30.7036   43.6306 C   0  0  0  0  0  0  0  0  0  0  0  0
   47.7986   29.7504   43.1598 C   0  0  0  0  0  0  0  0  0  0  0  0
   47.9047   29.5817   42.1089 H   0  0  0  0  0  0  0  0  0  0  0  0
   48.3726   29.2303   44.2590 N   0  0  0  0  0  0  0  0  0  0  0  0
   47.8941   29.7807   45.3611 N   0  0  0  0  0  0  0  0  0  0  0  0
   46.1954   31.3810   43.1681 H   0  0  0  0  0  0  0  0  0  0  0  0
   49.1142   28.4719   44.1857 H   0  0  0  0  0  0  0  0  0  0  0  0
  1  2  1  0
  1  8  1  0
  3  2  2  0
  4  5  1  0
  4  3  1  0
  5  6  1  0
  6  1  1  0
  7 12  2  0
  8  7  1  0
  9  8  2  0
  9 10  1  0
 10 11  2  0
 11 12  1  0
 11 13  1  0
 14 15  1  0
 14  4  1  0
 16 14  1  0
 17 14  1  0
  1 18  1  1
  2 19  1  0
  3 20  1  0
  4 21  1  6
  5 22  1  0
  5 23  1  0
  6 24  1  0
  6 25  1  0
  7 26  1  0
 13 27  1  0
 13 28  1  0
 29 30  1  0
 30 31  2  0
 31 32  1  0
 31 33  1  0
 33 34  1  0
 34 29  2  0
 30 35  1  0
 33 36  1  0
  9 29  1  0
M  ISO  8  18  13  19  13  20  13  21  13  22  13  23  13  24  13  25  13
M  ISO  2  26  14  32  14
M  END
>  <DihAtoms>  (1) 
7,8,28,29

>  <DihDeg>  (1) 
-123.90072588396576

$$$$
