
 OpenBabel03232520213D

 39 42  0  0  0  0  0  0  0  0999 V2000
   47.5290   34.0500   42.3240 C   0  0  0  0  0  0  0  0  0  0  0  0
   48.3410   35.1970   41.7890 C   0  0  0  0  0  0  0  0  0  0  0  0
   49.6950   35.3380   42.3450 C   0  0  0  0  0  0  0  0  0  0  0  0
   50.4560   34.0650   42.4880 C   0  0  0  0  0  0  0  0  0  0  0  0
   49.6290   32.8330   42.2370 C   0  0  0  0  0  0  0  0  0  0  0  0
   48.3310   32.9880   43.0170 C   0  0  0  0  0  0  0  0  0  0  0  0
   47.7830   36.1490   41.9750 H   0  0  0  0  0  0  0  0  0  0  0  0
   48.4280   35.1430   40.6700 H   0  0  0  0  0  0  0  0  0  0  0  0
   49.6220   35.8680   43.3210 H   0  0  0  0  0  0  0  0  0  0  0  0
   50.2780   36.0020   41.6720 H   0  0  0  0  0  0  0  0  0  0  0  0
   50.8250   33.9680   43.5430 H   0  0  0  0  0  0  0  0  0  0  0  0
   51.3530   34.0050   41.8350 H   0  0  0  0  0  0  0  0  0  0  0  0
   49.4570   32.6840   41.1530 H   0  0  0  0  0  0  0  0  0  0  0  0
   50.1730   31.9540   42.6320 H   0  0  0  0  0  0  0  0  0  0  0  0
   48.6150   33.2880   44.0460 H   0  0  0  0  0  0  0  0  0  0  0  0
   47.8020   32.0300   42.9910 H   0  0  0  0  0  0  0  0  0  0  0  0
   45.3190   34.3440   45.2850 C   0  0  0  0  0  0  0  0  0  0  0  0
   44.5660   35.4840   45.0030 C   0  0  0  0  0  0  0  0  0  0  0  0
   44.8210   36.1470   43.8030 C   0  0  0  0  0  0  0  0  0  0  0  0
   45.7780   35.6540   42.9790 N   0  0  0  0  0  0  0  0  0  0  0  0
   46.4930   34.5400   43.2870 C   0  0  0  0  0  0  0  0  0  0  0  0
   46.2510   33.8860   44.4580 N   0  0  0  0  0  0  0  0  0  0  0  0
   45.1940   33.7680   46.1870 H   0  0  0  0  0  0  0  0  0  0  0  0
   43.8200   35.8070   45.7180 H   0  0  0  0  0  0  0  0  0  0  0  0
   44.2550   37.0240   43.5650 H   0  0  0  0  0  0  0  0  0  0  0  0
   46.8390   33.3820   41.1640 C   0  0  0  0  0  0  0  0  0  0  0  0
   45.8150   32.4740   40.9640 C   0  0  0  0  0  0  0  0  0  0  0  0
   45.5200   32.1440   39.6940 C   0  0  0  0  0  0  0  0  0  0  0  0
   46.1770   32.6610   38.6450 C   0  0  0  0  0  0  0  0  0  0  0  0
   47.3980   33.7760   39.4810 S   0  0  0  0  0  0  0  0  0  0  0  0
   45.3510   32.1180   41.8700 H   0  0  0  0  0  0  0  0  0  0  0  0
   44.7290   31.4370   39.4630 H   0  0  0  0  0  0  0  0  0  0  0  0
   46.1400   32.5510   37.2510 C   0  0  0  0  0  0  0  0  0  0  0  0
   46.9670   31.8340   36.4130 C   0  0  0  0  0  0  0  0  0  0  0  0
   46.4740   32.0810   35.1260 C   0  0  0  0  0  0  0  0  0  0  0  0
   46.8510   31.7000   34.1940 H   0  0  0  0  0  0  0  0  0  0  0  0
   45.4020   32.9140   35.2380 N   0  0  0  0  0  0  0  0  0  0  0  0
   45.2040   33.1950   36.5370 N   0  0  0  0  0  0  0  0  0  0  0  0
   44.8530   33.2510   34.3980 H   0  0  0  0  0  0  0  0  0  0  0  0
  1  6  1  0  0  0  0
  1 21  1  0  0  0  0
  2  7  1  0  0  0  0
  2  1  1  0  0  0  0
  2  3  1  0  0  0  0
  3  4  1  0  0  0  0
  3  9  1  0  0  0  0
  4 11  1  0  0  0  0
  5  4  1  0  0  0  0
  5 14  1  0  0  0  0
  5  6  1  0  0  0  0
  6 15  1  0  0  0  0
  8  2  1  0  0  0  0
 10  3  1  0  0  0  0
 12  4  1  0  0  0  0
 13  5  1  0  0  0  0
 16  6  1  0  0  0  0
 17 23  1  0  0  0  0
 18 17  1  0  0  0  0
 18 24  1  0  0  0  0
 19 18  2  0  0  0  0
 20 21  2  0  0  0  0
 20 19  1  0  0  0  0
 21 22  1  0  0  0  0
 22 17  2  0  0  0  0
 25 19  1  0  0  0  0
 26  1  1  0  0  0  0
 27 26  2  0  0  0  0
 27 31  1  0  0  0  0
 28 27  1  0  0  0  0
 29 30  1  0  0  0  0
 29 28  2  0  0  0  0
 30 26  1  0  0  0  0
 32 28  1  0  0  0  0
 33 29  1  0  0  0  0
 34 33  1  0  0  0  0
 35 37  1  0  0  0  0
 35 34  2  0  0  0  0
 36 35  1  0  0  0  0
 37 38  1  0  0  0  0
 38 33  2  0  0  0  0
 39 37  1  0  0  0  0
M  END
>  <minimizedAffinity>
-6.17662811

>  <minimizedRMSD>
0.464609444

$$$$
