
 OpenBabel03232520583D

 31 33  0  0  1  0  0  0  0  0999 V2000
   46.1260   33.6000   45.3140 C   0  0  2  0  0  0  0  0  0  0  0  0
   44.9780   34.6690   45.4880 C   0  0  0  0  0  0  0  0  0  0  0  0
   44.7310   35.5710   44.3950 C   0  0  0  0  0  0  0  0  0  0  0  0
   45.5210   35.4860   43.1820 C   0  0  1  0  0  0  0  0  0  0  0  0
   46.6470   34.5400   43.1950 C   0  0  0  0  0  0  0  0  0  0  0  0
   46.2150   33.2810   43.9270 C   0  0  0  0  0  0  0  0  0  0  0  0
   46.9630   34.2870   45.6730 H   0  0  0  0  0  0  0  0  0  0  0  0
   44.2670   34.9290   46.2660 H   0  0  0  0  0  0  0  0  0  0  0  0
   43.9830   36.3220   44.4180 H   0  0  0  0  0  0  0  0  0  0  0  0
   45.9230   36.5080   42.9570 H   0  0  0  0  0  0  0  0  0  0  0  0
   46.9590   34.2970   42.1750 H   0  0  0  0  0  0  0  0  0  0  0  0
   47.5150   34.9540   43.7610 H   0  0  0  0  0  0  0  0  0  0  0  0
   46.8390   32.5320   43.4890 H   0  0  0  0  0  0  0  0  0  0  0  0
   45.1760   33.0820   43.5200 H   0  0  0  0  0  0  0  0  0  0  0  0
   45.3940   32.8730   47.5580 C   0  0  0  0  0  0  0  0  0  0  0  0
   45.9020   32.5980   46.3100 C   0  0  0  0  0  0  0  0  0  0  0  0
   46.1500   31.2440   46.0250 C   0  0  0  0  0  0  0  0  0  0  0  0
   45.8890   30.3170   46.9490 N   0  0  0  0  0  0  0  0  0  0  0  0
   45.3880   30.6150   48.1700 C   0  0  0  0  0  0  0  0  0  0  0  0
   45.1410   31.8820   48.4800 N   0  0  0  0  0  0  0  0  0  0  0  0
   45.1460   29.5480   49.0960 N   0  0  0  0  0  0  0  0  0  0  0  0
   45.1730   33.8740   47.8780 H   0  0  0  0  0  0  0  0  0  0  0  0
   45.7870   28.7560   49.2360 H   0  0  0  0  0  0  0  0  0  0  0  0
   44.2340   29.6820   49.6060 H   0  0  0  0  0  0  0  0  0  0  0  0
   46.6760   30.6290   44.7860 C   0  0  0  0  0  3  0  0  0  0  0  0
   47.2370   29.1860   44.8680 C   0  0  0  0  0  2  0  0  0  0  0  0
   48.1860   30.2750   44.7600 C   0  0  0  0  0  2  0  0  0  0  0  0
   44.5650   35.1680   42.0060 C   0  0  0  0  0  0  0  0  0  0  0  0
   43.5750   34.2930   42.3610 F   0  0  0  0  0  0  0  0  0  0  0  0
   43.9410   36.3750   41.6830 F   0  0  0  0  0  0  0  0  0  0  0  0
   45.3050   34.7770   40.8960 F   0  0  0  0  0  0  0  0  0  0  0  0
  1  2  1  0  0  0  0
  1  7  1  1  0  0  0
  1 16  1  0  0  0  0
  2  8  1  0  0  0  0
  3  9  1  0  0  0  0
  3  2  2  0  0  0  0
  4 10  1  6  0  0  0
  4  5  1  0  0  0  0
  4  3  1  0  0  0  0
  5 12  1  0  0  0  0
  5  6  1  0  0  0  0
  6  1  1  0  0  0  0
 11  5  1  0  0  0  0
 13  6  1  0  0  0  0
 14  6  1  0  0  0  0
 15 22  1  0  0  0  0
 15 20  1  0  0  0  0
 16 15  2  0  0  0  0
 17 16  1  0  0  0  0
 17 18  2  0  0  0  0
 18 19  1  0  0  0  0
 19 20  2  0  0  0  0
 19 21  1  0  0  0  0
 21 23  1  0  0  0  0
 21 24  1  0  0  0  0
 25 26  1  0  0  0  0
 25 17  1  0  0  0  0
 27 25  1  0  0  0  0
 27 26  1  0  0  0  0
 28 29  1  0  0  0  0
 28  4  1  0  0  0  0
 30 28  1  0  0  0  0
 31 28  1  0  0  0  0
M  END
>  <minimizedAffinity>
-5.6001296

>  <minimizedRMSD>
0.527642667

$$$$
