
 OpenBabel03232512293D

 26 29  0  0  0  0  0  0  0  0999 V2000
   46.2860   32.5120   45.4950 C   0  0  0  0  0  0  0  0  0  0  0  0
   47.2050   31.6550   44.8740 C   0  0  0  0  0  0  0  0  0  0  0  0
   47.5650   30.7570   45.7970 N   0  0  0  0  0  0  0  0  0  0  0  0
   46.9250   31.0020   46.9650 C   0  0  0  0  0  0  0  0  0  0  0  0
   46.9780   30.3460   48.1930 C   0  0  0  0  0  0  0  0  0  0  0  0
   46.2310   30.7710   49.2650 C   0  0  0  0  0  0  0  0  0  0  0  0
   45.4300   31.8600   49.0990 C   0  0  0  0  0  0  0  0  0  0  0  0
   45.3490   32.5450   47.8860 C   0  0  0  0  0  0  0  0  0  0  0  0
   46.1020   32.1110   46.8130 C   0  0  0  0  0  0  0  0  0  0  0  0
   47.5040   31.7770   43.8340 H   0  0  0  0  0  0  0  0  0  0  0  0
   48.2570   29.9990   45.5600 H   0  0  0  0  0  0  0  0  0  0  0  0
   47.6310   29.4810   48.2800 H   0  0  0  0  0  0  0  0  0  0  0  0
   46.2770   30.2560   50.2210 H   0  0  0  0  0  0  0  0  0  0  0  0
   44.8050   32.2650   49.8940 H   0  0  0  0  0  0  0  0  0  0  0  0
   44.7320   33.4030   47.7160 H   0  0  0  0  0  0  0  0  0  0  0  0
   44.5080   35.6910   45.1590 C   0  0  0  0  0  0  0  0  0  0  0  0
   44.3430   35.8310   43.7630 C   0  0  0  0  0  0  0  0  0  0  0  0
   44.8500   34.8230   42.9570 C   0  0  0  0  0  0  0  0  0  0  0  0
   45.4670   33.7730   43.5490 N   0  0  0  0  0  0  0  0  0  0  0  0
   45.6210   33.6470   44.8790 C   0  0  0  0  0  0  0  0  0  0  0  0
   45.1310   34.6210   45.6790 N   0  0  0  0  0  0  0  0  0  0  0  0
   44.0920   36.5070   45.7360 H   0  0  0  0  0  0  0  0  0  0  0  0
   43.8520   36.6720   43.3420 H   0  0  0  0  0  0  0  0  0  0  0  0
   44.7300   34.8730   41.4670 C   0  0  0  0  0  0  0  0  0  0  0  0
   43.4700   35.3460   40.8450 C   0  0  0  0  0  0  0  0  0  0  0  0
   43.8730   33.9000   40.7390 C   0  0  0  0  0  0  0  0  0  0  0  0
  1  9  1  0  0  0  0
  2  1  2  0  0  0  0
  2  3  1  0  0  0  0
  3  4  1  0  0  0  0
  4  5  1  0  0  0  0
  5 12  1  0  0  0  0
  5  6  2  0  0  0  0
  6 13  1  0  0  0  0
  7  6  1  0  0  0  0
  7 14  1  0  0  0  0
  8  7  2  0  0  0  0
  9  4  2  0  0  0  0
  9  8  1  0  0  0  0
 10  2  1  0  0  0  0
 11  3  1  0  0  0  0
 15  8  1  0  0  0  0
 16 21  1  0  0  0  0
 16 22  1  0  0  0  0
 17 16  2  0  0  0  0
 18 19  2  0  0  0  0
 18 17  1  0  0  0  0
 19 20  1  0  0  0  0
 20  1  1  0  0  0  0
 20 21  2  0  0  0  0
 23 17  1  0  0  0  0
 24 18  1  0  0  0  0
 25 24  1  0  0  0  0
 26 25  1  0  0  0  0
 26 24  1  0  0  0  0
M  END
>  <minimizedAffinity>
-5.51816463

>  <minimizedRMSD>
0.357299358

$$$$
