REMARK  Name = 
REMARK  2 active torsions:
REMARK  status: ('A' for Active; 'I' for Inactive)
REMARK    1  A    between atoms: C_2  and  C_7
REMARK    2  A    between atoms: C_10  and  C_24
REMARK                            x       y       z     vdW  Elec       q    Type
REMARK                         _______ _______ _______ _____ _____    ______ ____
ROOT
ATOM      1  C   UNL     1      45.942  33.889  45.271  0.00  0.00    +0.000 C 
ATOM      2  C   UNL     1      44.816  34.879  45.481  0.00  0.00    +0.000 C 
ATOM      3  C   UNL     1      44.528  35.804  44.408  0.00  0.00    +0.000 C 
ATOM      4  C   UNL     1      45.310  35.756  43.175  0.00  0.00    +0.000 C 
ATOM      5  C   UNL     1      46.450  34.827  43.117  0.00  0.00    +0.000 C 
ATOM      6  C   UNL     1      46.086  33.543  43.821  0.00  0.00    +0.000 C 
ATOM      7  H   UNL     1      46.851  34.497  45.566  0.00  0.00    +0.000 HD
ATOM      8  H   UNL     1      44.173  35.013  46.324  0.00  0.00    +0.000 HD
ATOM      9  H   UNL     1      43.744  36.510  44.527  0.00  0.00    +0.000 HD
ATOM     10  H   UNL     1      45.695  36.794  42.951  0.00  0.00    +0.000 HD
ATOM     11  H   UNL     1      47.300  35.280  43.668  0.00  0.00    +0.000 HD
ATOM     12  H   UNL     1      46.702  34.595  42.070  0.00  0.00    +0.000 HD
ATOM     13  H   UNL     1      46.944  32.851  43.721  0.00  0.00    +0.000 HD
ATOM     14  H   UNL     1      45.141  33.131  43.424  0.00  0.00    +0.000 HD
ENDROOT
BRANCH   1  16
ATOM     15  C   UNL     1      45.276  32.971  47.454  0.00  0.00    +0.000 A 
ATOM     16  C   UNL     1      45.769  32.742  46.169  0.00  0.00    +0.000 A 
ATOM     17  C   UNL     1      46.094  31.426  45.807  0.00  0.00    +0.000 A 
ATOM     18  N   UNL     1      45.916  30.434  46.721  0.00  0.00    +0.000 NA
ATOM     19  C   UNL     1      45.437  30.682  47.963  0.00  0.00    +0.000 A 
ATOM     20  N   UNL     1      45.118  31.947  48.326  0.00  0.00    +0.000 NA
ATOM     21  H   UNL     1      44.991  33.936  47.849  0.00  0.00    +0.000 HD
ATOM     22  H   UNL     1      46.469  31.222  44.839  0.00  0.00    +0.000 HD
ATOM     23  H   UNL     1      45.332  29.812  48.621  0.00  0.00    +0.000 HD
ENDBRANCH   1  16
BRANCH   4  24
ATOM     24  C   UNL     1      44.289  35.490  42.060  0.00  0.00    +0.000 C 
ATOM     25  C   UNL     1      44.698  36.090  40.733  0.00  0.00    +0.000 C 
ATOM     26  C   UNL     1      44.623  34.623  40.918  0.00  0.00    +0.000 C 
ENDBRANCH   4  24
TORSDOF 2
