
 OpenBabel03232517473D

 22 24  0  0  0  0  0  0  0  0999 V2000
   43.9640   34.3970   41.7040 N   0  0  0  0  0  0  0  0  0  0  0  0
   44.0640   33.5110   40.7170 C   0  0  0  0  0  0  0  0  0  0  0  0
   43.4100   34.0320   39.6120 C   0  0  0  0  0  0  0  0  0  0  0  0
   42.9290   35.2210   39.9480 N   0  0  0  0  0  0  0  0  0  0  0  0
   43.2600   35.4620   41.2300 C   0  0  0  0  0  0  0  0  0  0  0  0
   44.5730   32.5620   40.8000 H   0  0  0  0  0  0  0  0  0  0  0  0
   42.9630   36.3850   41.7100 H   0  0  0  0  0  0  0  0  0  0  0  0
   44.2650   35.4850   43.8300 C   0  0  0  0  0  0  0  0  0  0  0  0
   44.4650   34.3280   43.0230 C   0  0  0  0  0  0  0  0  0  0  0  0
   45.1290   33.2230   43.5710 C   0  0  0  0  0  0  0  0  0  0  0  0
   45.5480   33.3270   44.8630 N   0  0  0  0  0  0  0  0  0  0  0  0
   45.3450   34.4330   45.6090 C   0  0  0  0  0  0  0  0  0  0  0  0
   44.7030   35.5100   45.0860 N   0  0  0  0  0  0  0  0  0  0  0  0
   43.7670   36.3690   43.4820 H   0  0  0  0  0  0  0  0  0  0  0  0
   45.2620   32.3790   42.9430 H   0  0  0  0  0  0  0  0  0  0  0  0
   45.7480   34.3100   46.5890 H   0  0  0  0  0  0  0  0  0  0  0  0
   43.3110   33.3200   38.3130 C   0  0  0  0  0  0  0  0  0  0  0  0
   44.6470   32.6890   38.0240 C   0  0  0  0  0  0  0  0  0  0  0  0
   44.6550   31.8780   36.7650 C   0  0  0  0  0  0  0  0  0  0  0  0
   43.5530   30.8680   36.6910 C   0  0  0  0  0  0  0  0  0  0  0  0
   42.2530   31.3080   37.2600 C   0  0  0  0  0  0  0  0  0  0  0  0
   42.2980   32.2310   38.4150 C   0  0  0  0  0  0  0  0  0  0  0  0
  1  9  1  0  0  0  0
  2  6  1  0  0  0  0
  2  1  1  0  0  0  0
  3  4  1  0  0  0  0
  3  2  2  0  0  0  0
  4  5  2  0  0  0  0
  5  1  1  0  0  0  0
  5  7  1  0  0  0  0
  8 13  1  0  0  0  0
  9 10  1  0  0  0  0
  9  8  2  0  0  0  0
 10 11  2  0  0  0  0
 11 12  1  0  0  0  0
 12 16  1  0  0  0  0
 13 12  2  0  0  0  0
 14  8  1  0  0  0  0
 15 10  1  0  0  0  0
 17 22  1  0  0  0  0
 17  3  1  0  0  0  0
 18 17  1  0  0  0  0
 19 18  1  0  0  0  0
 20 19  1  0  0  0  0
 20 21  1  0  0  0  0
 21 22  1  0  0  0  0
M  END
>  <minimizedAffinity>
-3.93134499

>  <minimizedRMSD>
0.555817246

$$$$
