REMARK  Name = 
REMARK  4 active torsions:
REMARK  status: ('A' for Active; 'I' for Inactive)
REMARK    1  A    between atoms: C_1  and  C_18
REMARK    2  A    between atoms: C_6  and  N_7
REMARK    3  A    between atoms: C_9  and  C_10
REMARK    4  A    between atoms: C_20  and  C_33
REMARK                            x       y       z     vdW  Elec       q    Type
REMARK                         _______ _______ _______ _____ _____    ______ ____
ROOT
ATOM      1  C   UNL     1      46.411  34.664  42.180  0.00  0.00    +0.000 A 
ATOM      2  C   UNL     1      47.723  35.022  42.041  0.00  0.00    +0.000 A 
ATOM      3  C   UNL     1      48.421  34.825  40.849  0.00  0.00    +0.000 A 
ATOM      4  C   UNL     1      47.769  34.243  39.752  0.00  0.00    +0.000 A 
ATOM      5  C   UNL     1      46.459  33.887  39.893  0.00  0.00    +0.000 A 
ATOM      6  C   UNL     1      45.793  34.098  41.097  0.00  0.00    +0.000 A 
ATOM      7  H   UNL     1      48.264  35.475  42.864  0.00  0.00    +0.000 HD
ATOM      8  H   UNL     1      49.455  35.120  40.777  0.00  0.00    +0.000 HD
ATOM      9  H   UNL     1      48.278  34.076  38.813  0.00  0.00    +0.000 HD
ATOM     10  H   UNL     1      45.923  33.435  39.069  0.00  0.00    +0.000 HD
ENDROOT
BRANCH   6  11
ATOM     11  N   UNL     1      44.430  33.713  41.203  0.00  0.00    +0.000 N 
ATOM     12  C   UNL     1      43.620  34.680  40.667  0.00  0.00    +0.000 A 
ATOM     13  C   UNL     1      42.229  34.509  40.664  0.00  0.00    +0.000 A 
ATOM     14  C   UNL     1      41.722  33.337  41.218  0.00  0.00    +0.000 A 
ATOM     15  O   UNL     1      40.483  33.126  41.245  0.00  0.00    +0.000 OA
ATOM     16  N   UNL     1      42.563  32.425  41.728  0.00  0.00    +0.000 N 
ATOM     17  C   UNL     1      43.892  32.600  41.725  0.00  0.00    +0.000 A 
ATOM     18  O   UNL     1      44.749  31.812  42.174  0.00  0.00    +0.000 OA
ATOM     19  H   UNL     1      43.923  35.595  40.228  0.00  0.00    +0.000 HD
ATOM     20  H   UNL     1      42.215  31.532  42.153  0.00  0.00    +0.000 HD
BRANCH  13  21
ATOM     21  C   UNL     1      41.302  35.526  40.096  0.00  0.00    +0.000 C 
ATOM     22  H   UNL     1      40.861  35.228  39.141  0.00  0.00    +0.000 HD
ATOM     23  H   UNL     1      40.440  35.588  40.812  0.00  0.00    +0.000 HD
ATOM     24  H   UNL     1      41.771  36.538  40.100  0.00  0.00    +0.000 HD
ENDBRANCH  13  21
ENDBRANCH   6  11
BRANCH   1  27
ATOM     25  C   UNL     1      44.420  36.143  45.007  0.00  0.00    +0.000 A 
ATOM     26  C   UNL     1      44.988  36.021  43.740  0.00  0.00    +0.000 A 
ATOM     27  C   UNL     1      45.766  34.907  43.455  0.00  0.00    +0.000 A 
ATOM     28  N   UNL     1      45.936  33.993  44.420  0.00  0.00    +0.000 NA
ATOM     29  C   UNL     1      45.369  34.137  45.650  0.00  0.00    +0.000 A 
ATOM     30  N   UNL     1      44.617  35.206  45.936  0.00  0.00    +0.000 NA
ATOM     31  H   UNL     1      43.817  37.019  45.206  0.00  0.00    +0.000 HD
ATOM     32  H   UNL     1      44.849  36.755  42.972  0.00  0.00    +0.000 HD
BRANCH  29  33
ATOM     33  C   UNL     1      45.624  33.059  46.645  0.00  0.00    +0.000 C 
ATOM     34  C   UNL     1      46.996  33.118  47.262  0.00  0.00    +0.000 C 
ATOM     35  C   UNL     1      47.170  31.820  48.025  0.00  0.00    +0.000 C 
ATOM     36  C   UNL     1      45.845  31.317  48.562  0.00  0.00    +0.000 C 
ATOM     37  C   UNL     1      44.992  32.509  48.941  0.00  0.00    +0.000 C 
ATOM     38  C   UNL     1      44.526  33.175  47.678  0.00  0.00    +0.000 C 
ENDBRANCH  29  33
ENDBRANCH   1  27
TORSDOF 4
