
 OpenBabel03232520473D

 38 41  0  0  0  0  0  0  0  0999 V2000
   46.4840   34.6090   42.2130 C   0  0  0  0  0  0  0  0  0  0  0  0
   47.7920   34.9840   42.0750 C   0  0  0  0  0  0  0  0  0  0  0  0
   48.4750   34.8520   40.8660 C   0  0  0  0  0  0  0  0  0  0  0  0
   47.8130   34.3180   39.7500 C   0  0  0  0  0  0  0  0  0  0  0  0
   46.5080   33.9450   39.8910 C   0  0  0  0  0  0  0  0  0  0  0  0
   45.8570   34.0910   41.1120 C   0  0  0  0  0  0  0  0  0  0  0  0
   48.3400   35.4010   42.9120 H   0  0  0  0  0  0  0  0  0  0  0  0
   49.5060   35.1580   40.7950 H   0  0  0  0  0  0  0  0  0  0  0  0
   48.3110   34.2010   38.7980 H   0  0  0  0  0  0  0  0  0  0  0  0
   45.9650   33.5290   39.0520 H   0  0  0  0  0  0  0  0  0  0  0  0
   44.4980   33.6900   41.2170 N   0  0  0  0  0  0  0  0  0  0  0  0
   43.6770   34.6510   40.6870 C   0  0  0  0  0  0  0  0  0  0  0  0
   42.2880   34.4640   40.6840 C   0  0  0  0  0  0  0  0  0  0  0  0
   41.7950   33.2830   41.2310 C   0  0  0  0  0  0  0  0  0  0  0  0
   40.5580   33.0580   41.2580 O   0  0  0  0  0  0  0  0  0  0  0  0
   42.6460   32.3780   41.7350 N   0  0  0  0  0  0  0  0  0  0  0  0
   43.9730   32.5680   41.7320 C   0  0  0  0  0  0  0  0  0  0  0  0
   44.8400   31.7870   42.1750 O   0  0  0  0  0  0  0  0  0  0  0  0
   43.9690   35.5720   40.2540 H   0  0  0  0  0  0  0  0  0  0  0  0
   42.3090   31.4780   42.1550 H   0  0  0  0  0  0  0  0  0  0  0  0
   41.3490   35.4740   40.1240 C   0  0  0  0  0  0  0  0  0  0  0  0
   40.9100   35.1770   39.1670 H   0  0  0  0  0  0  0  0  0  0  0  0
   40.4870   35.5220   40.8410 H   0  0  0  0  0  0  0  0  0  0  0  0
   41.8060   36.4910   40.1340 H   0  0  0  0  0  0  0  0  0  0  0  0
   44.4350   35.8760   45.1000 C   0  0  0  0  0  0  0  0  0  0  0  0
   44.9760   35.8130   43.8180 C   0  0  0  0  0  0  0  0  0  0  0  0
   45.8550   34.7840   43.5070 C   0  0  0  0  0  0  0  0  0  0  0  0
   46.1440   33.8920   44.4630 N   0  0  0  0  0  0  0  0  0  0  0  0
   45.6000   33.9760   45.7090 C   0  0  0  0  0  0  0  0  0  0  0  0
   44.7520   34.9630   46.0200 N   0  0  0  0  0  0  0  0  0  0  0  0
   43.7520   36.6860   45.3200 H   0  0  0  0  0  0  0  0  0  0  0  0
   44.7410   36.5300   43.0560 H   0  0  0  0  0  0  0  0  0  0  0  0
   45.9920   32.9290   46.6930 C   0  0  0  0  0  0  0  0  0  0  0  0
   45.0570   32.8220   47.8660 C   0  0  0  0  0  0  0  0  0  0  0  0
   45.7450   31.9190   48.8710 C   0  0  0  0  0  0  0  0  0  0  0  0
   46.6140   30.8890   48.1780 C   0  0  0  0  0  0  0  0  0  0  0  0
   45.9530   30.4930   46.8770 C   0  0  0  0  0  0  0  0  0  0  0  0
   46.0850   31.6370   45.9130 C   0  0  0  0  0  0  0  0  0  0  0  0
  1 27  1  0  0  0  0
  2  1  1  0  0  0  0
  2  7  1  0  0  0  0
  3  2  2  0  0  0  0
  4  5  2  0  0  0  0
  4  3  1  0  0  0  0
  5  6  1  0  0  0  0
  6 11  1  0  0  0  0
  6  1  2  0  0  0  0
  8  3  1  0  0  0  0
  9  4  1  0  0  0  0
 10  5  1  0  0  0  0
 11 17  1  0  0  0  0
 12 11  1  0  0  0  0
 13 12  2  0  0  0  0
 13 14  1  0  0  0  0
 14 15  2  0  0  0  0
 14 16  1  0  0  0  0
 16 20  1  0  0  0  0
 17 16  1  0  0  0  0
 17 18  2  0  0  0  0
 19 12  1  0  0  0  0
 21 24  1  0  0  0  0
 21 13  1  0  0  0  0
 21 23  1  0  0  0  0
 22 21  1  0  0  0  0
 25 31  1  0  0  0  0
 25 30  1  0  0  0  0
 26 25  2  0  0  0  0
 27 26  1  0  0  0  0
 27 28  2  0  0  0  0
 28 29  1  0  0  0  0
 29 30  2  0  0  0  0
 29 33  1  0  0  0  0
 32 26  1  0  0  0  0
 33 34  1  0  0  0  0
 34 35  1  0  0  0  0
 36 35  1  0  0  0  0
 37 36  1  0  0  0  0
 38 33  1  0  0  0  0
 38 37  1  0  0  0  0
M  END
>  <minimizedAffinity>
-7.71935654

>  <minimizedRMSD>
0.321992606

$$$$
