REMARK  Name = 
REMARK  3 active torsions:
REMARK  status: ('A' for Active; 'I' for Inactive)
REMARK    1  A    between atoms: C_1  and  C_8
REMARK    2  A    between atoms: C_4  and  C_13
REMARK    3  A    between atoms: C_11  and  C_27
REMARK                            x       y       z     vdW  Elec       q    Type
REMARK                         _______ _______ _______ _____ _____    ______ ____
ROOT
ATOM      1  C   UNL     1      46.137  33.709  45.424  0.00  0.00    +0.000 C 
ATOM      2  C   UNL     1      44.971  34.669  45.537  0.00  0.00    +0.000 C 
ATOM      3  C   UNL     1      44.710  35.526  44.409  0.00  0.00    +0.000 C 
ATOM      4  C   UNL     1      45.535  35.464  43.217  0.00  0.00    +0.000 C 
ATOM      5  C   UNL     1      46.685  34.541  43.239  0.00  0.00    +0.000 C 
ATOM      6  C   UNL     1      46.349  33.300  44.010  0.00  0.00    +0.000 C 
ATOM      7  H   UNL     1      47.039  34.302  45.757  0.00  0.00    +0.000 HD
ATOM      8  H   UNL     1      44.228  34.900  46.288  0.00  0.00    +0.000 HD
ATOM      9  H   UNL     1      43.915  36.230  44.396  0.00  0.00    +0.000 HD
ATOM     10  H   UNL     1      45.904  36.497  43.000  0.00  0.00    +0.000 HD
ATOM     11  H   UNL     1      46.984  34.327  42.192  0.00  0.00    +0.000 HD
ATOM     12  H   UNL     1      47.531  35.066  43.760  0.00  0.00    +0.000 HD
ATOM     13  H   UNL     1      45.403  32.893  43.596  0.00  0.00    +0.000 HD
ATOM     14  H   UNL     1      47.182  32.593  43.950  0.00  0.00    +0.000 HD
ENDROOT
BRANCH   1  16
ATOM     15  C   UNL     1      45.287  32.854  47.559  0.00  0.00    +0.000 A 
ATOM     16  C   UNL     1      45.978  32.630  46.384  0.00  0.00    +0.000 A 
ATOM     17  C   UNL     1      46.496  31.349  46.206  0.00  0.00    +0.000 A 
ATOM     18  N   UNL     1      46.330  30.383  47.131  0.00  0.00    +0.000 NA
ATOM     19  C   UNL     1      45.642  30.640  48.281  0.00  0.00    +0.000 A 
ATOM     20  N   UNL     1      45.125  31.877  48.487  0.00  0.00    +0.000 NA
ATOM     21  H   UNL     1      44.825  33.783  47.859  0.00  0.00    +0.000 HD
ATOM     22  H   UNL     1      47.039  31.106  45.322  0.00  0.00    +0.000 HD
BRANCH  19  23
ATOM     23  C   UNL     1      45.470  29.569  49.285  0.00  0.00    +0.000 C 
ATOM     24  C   UNL     1      46.166  28.291  48.888  0.00  0.00    +0.000 C 
ATOM     25  C   UNL     1      45.293  27.078  49.130  0.00  0.00    +0.000 C 
ATOM     26  C   UNL     1      44.750  27.185  50.557  0.00  0.00    +0.000 C 
ATOM     27  C   UNL     1      43.754  28.305  50.574  0.00  0.00    +0.000 C 
ATOM     28  C   UNL     1      43.994  29.355  49.527  0.00  0.00    +0.000 C 
ENDBRANCH  19  23
ENDBRANCH   1  16
BRANCH   4  29
ATOM     29  C   UNL     1      44.622  35.115  42.034  0.00  0.00    +0.000 C 
ATOM     30  F   UNL     1      43.672  34.167  42.358  0.00  0.00    +0.000 F 
ATOM     31  F   UNL     1      43.925  36.269  41.686  0.00  0.00    +0.000 F 
ATOM     32  F   UNL     1      45.375  34.744  40.938  0.00  0.00    +0.000 F 
ENDBRANCH   4  29
TORSDOF 3
