
     RDKit          3D

 43 45  0  0  0  0  0  0  0  0999 V2000
   46.1366   33.7090   45.4237 C   0  0  2  0  0  0  0  0  0  0  0  0
   44.9709   34.6685   45.5372 C   0  0  0  0  0  0  0  0  0  0  0  0
   44.7103   35.5255   44.4088 C   0  0  0  0  0  0  0  0  0  0  0  0
   45.5351   35.4637   43.2170 C   0  0  1  0  0  0  0  0  0  0  0  0
   46.6850   34.5415   43.2386 C   0  0  0  0  0  0  0  0  0  0  0  0
   46.3493   33.3003   44.0100 C   0  0  0  0  0  0  0  0  0  0  0  0
   45.2874   32.8539   47.5595 C   0  0  0  0  0  0  0  0  0  0  0  0
   45.9782   32.6300   46.3837 C   0  0  0  0  0  0  0  0  0  0  0  0
   46.4957   31.3487   46.2055 C   0  0  0  0  0  0  0  0  0  0  0  0
   46.3303   30.3828   47.1308 N   0  0  0  0  0  0  0  0  0  0  0  0
   45.6423   30.6400   48.2808 C   0  0  0  0  0  0  0  0  0  0  0  0
   45.1246   31.8766   48.4870 N   0  0  0  0  0  0  0  0  0  0  0  0
   44.6217   35.1150   42.0344 C   0  0  0  0  0  0  0  0  0  0  0  0
   43.6723   34.1671   42.3578 F   0  0  0  0  0  0  0  0  0  0  0  0
   43.9247   36.2688   41.6862 F   0  0  0  0  0  0  0  0  0  0  0  0
   45.3748   34.7444   40.9383 F   0  0  0  0  0  0  0  0  0  0  0  0
   47.0387   34.3019   45.7570 H   0  0  0  0  0  0  0  0  0  0  0  0
   44.2283   34.8996   46.2885 H   0  0  0  0  0  0  0  0  0  0  0  0
   43.9154   36.2302   44.3956 H   0  0  0  0  0  0  0  0  0  0  0  0
   45.9041   36.4974   42.9998 H   0  0  0  0  0  0  0  0  0  0  0  0
   46.9842   34.3266   42.1919 H   0  0  0  0  0  0  0  0  0  0  0  0
   47.5308   35.0658   43.7596 H   0  0  0  0  0  0  0  0  0  0  0  0
   45.4025   32.8934   43.5960 H   0  0  0  0  0  0  0  0  0  0  0  0
   47.1816   32.5928   43.9498 H   0  0  0  0  0  0  0  0  0  0  0  0
   44.8250   33.7832   47.8589 H   0  0  0  0  0  0  0  0  0  0  0  0
   47.0392   31.1057   45.3222 H   0  0  0  0  0  0  0  0  0  0  0  0
   45.4704   29.5691   49.2854 C   0  0  0  0  0  0  0  0  0  0  0  0
   46.1665   28.2912   48.8881 C   0  0  0  0  0  0  0  0  0  0  0  0
   45.2927   27.0783   49.1300 C   0  0  0  0  0  0  0  0  0  0  0  0
   44.7503   27.1852   50.5574 C   0  0  0  0  0  0  0  0  0  0  0  0
   43.7542   28.3053   50.5743 C   0  0  0  0  0  0  0  0  0  0  0  0
   43.9941   29.3552   49.5271 C   0  0  0  0  0  0  0  0  0  0  0  0
   45.9305   29.8915   50.2423 H   0  0  0  0  0  0  0  0  0  0  0  0
   46.5053   28.3033   47.8268 H   0  0  0  0  0  0  0  0  0  0  0  0
   47.0938   28.1133   49.4783 H   0  0  0  0  0  0  0  0  0  0  0  0
   44.4574   27.0096   48.4293 H   0  0  0  0  0  0  0  0  0  0  0  0
   45.9318   26.1671   49.1227 H   0  0  0  0  0  0  0  0  0  0  0  0
   45.5750   27.3762   51.2694 H   0  0  0  0  0  0  0  0  0  0  0  0
   44.3127   26.2093   50.8667 H   0  0  0  0  0  0  0  0  0  0  0  0
   42.7356   27.8841   50.3837 H   0  0  0  0  0  0  0  0  0  0  0  0
   43.7460   28.7204   51.6071 H   0  0  0  0  0  0  0  0  0  0  0  0
   43.4476   29.1500   48.5888 H   0  0  0  0  0  0  0  0  0  0  0  0
   43.5774   30.3102   49.9112 H   0  0  0  0  0  0  0  0  0  0  0  0
  1  2  1  0
  1  8  1  0
  3  2  2  0
  4  5  1  0
  4  3  1  0
  5  6  1  0
  6  1  1  0
  7 12  2  0
  8  7  1  0
  9  8  2  0
  9 10  1  0
 10 11  2  0
 11 12  1  0
 13 14  1  0
 13  4  1  0
 15 13  1  0
 16 13  1  0
  1 17  1  1
  2 18  1  0
  3 19  1  0
  4 20  1  6
  5 21  1  0
  5 22  1  0
  6 23  1  0
  6 24  1  0
  7 25  1  0
  9 26  1  0
 27 28  1  0
 28 29  1  0
 29 30  1  0
 30 31  1  0
 31 32  1  0
 32 27  1  0
 27 33  1  0
 28 34  1  0
 28 35  1  0
 29 36  1  0
 29 37  1  0
 30 38  1  0
 30 39  1  0
 31 40  1  0
 31 41  1  0
 32 42  1  0
 32 43  1  0
 11 27  1  0
M  ISO  8  17  13  18  13  19  13  20  13  21  13  22  13  23  13  24  13
M  ISO  2  25  14  26  14
M  END
>  <DihAtoms>  (1) 
9,10,26,27

>  <DihDeg>  (1) 
62.256107501810774

$$$$
