
 OpenBabel03232518143D

 35 38  0  0  0  0  0  0  0  0999 V2000
   46.3590   30.6860   46.0930 C   0  0  0  0  0  0  0  0  0  0  0  0
   45.6360   31.0910   47.2270 C   0  0  0  0  0  0  0  0  0  0  0  0
   44.8990   29.9830   47.5930 C   0  0  0  0  0  0  0  0  0  0  0  0
   45.1580   28.9860   46.7430 N   0  0  0  0  0  0  0  0  0  0  0  0
   46.0360   29.3860   45.8280 N   0  0  0  0  0  0  0  0  0  0  0  0
   45.7920   32.0930   47.5500 H   0  0  0  0  0  0  0  0  0  0  0  0
   44.2600   30.0960   48.4700 H   0  0  0  0  0  0  0  0  0  0  0  0
   44.5370   27.7040   46.8730 C   0  0  0  0  0  0  0  0  0  0  0  0
   43.2460   27.3480   46.2180 C   0  0  0  0  0  0  0  0  0  0  0  0
   43.0660   25.5820   46.8120 S   0  0  0  0  0  0  0  0  0  0  0  0
   44.7060   25.6830   47.7850 C   0  0  0  0  0  0  0  0  0  0  0  0
   45.0790   26.7300   47.5980 N   0  0  0  0  0  0  0  0  0  0  0  0
   42.7590   28.0470   45.6370 H   0  0  0  0  0  0  0  0  0  0  0  0
   45.2240   24.4950   48.5810 C   0  0  0  0  0  0  0  0  0  0  0  0
   45.5470   23.3570   47.6510 C   0  0  0  0  0  0  0  0  0  0  0  0
   47.0010   23.2290   47.3140 C   0  0  0  0  0  0  0  0  0  0  0  0
   47.9080   23.1940   48.5030 C   0  0  0  0  0  0  0  0  0  0  0  0
   47.4380   23.9760   49.6810 C   0  0  0  0  0  0  0  0  0  0  0  0
   46.3840   24.9870   49.3830 C   0  0  0  0  0  0  0  0  0  0  0  0
   47.5390   31.4170   44.9800 S   0  0  0  0  0  0  0  0  0  0  0  0
   47.1780   34.7280   42.7100 C   0  0  0  0  0  0  0  0  0  0  0  0
   47.7220   33.5710   43.2790 C   0  0  0  0  0  0  0  0  0  0  0  0
   46.9570   32.8740   44.2060 C   0  0  0  0  0  0  0  0  0  0  0  0
   45.7250   33.3480   44.5120 N   0  0  0  0  0  0  0  0  0  0  0  0
   45.2400   34.4740   43.9360 C   0  0  0  0  0  0  0  0  0  0  0  0
   45.9520   35.1400   43.0600 N   0  0  0  0  0  0  0  0  0  0  0  0
   48.7100   33.1740   43.0460 H   0  0  0  0  0  0  0  0  0  0  0  0
   44.2460   34.8260   44.2050 H   0  0  0  0  0  0  0  0  0  0  0  0
   48.1030   35.3700   41.7380 C   0  0  0  0  0  0  0  0  0  0  0  0
   47.8430   36.4510   41.6680 H   0  0  0  0  0  0  0  0  0  0  0  0
   48.0050   34.9600   40.7160 H   0  0  0  0  0  0  0  0  0  0  0  0
   49.5210   35.2790   42.2320 C   0  0  0  0  0  0  0  0  0  0  0  0
   50.1190   36.1990   41.9920 H   0  0  0  0  0  0  0  0  0  0  0  0
   50.0540   34.3780   41.8840 H   0  0  0  0  0  0  0  0  0  0  0  0
   49.5190   35.2450   43.3610 H   0  0  0  0  0  0  0  0  0  0  0  0
  1  2  1  0  0  0  0
  2  6  1  0  0  0  0
  2  3  2  0  0  0  0
  3  7  1  0  0  0  0
  4  8  1  0  0  0  0
  4  3  1  0  0  0  0
  5  1  2  0  0  0  0
  5  4  1  0  0  0  0
  8 12  1  0  0  0  0
  9 10  1  0  0  0  0
  9  8  2  0  0  0  0
 10 11  1  0  0  0  0
 11 14  1  0  0  0  0
 12 11  2  0  0  0  0
 13  9  1  0  0  0  0
 14 19  1  0  0  0  0
 15 14  1  0  0  0  0
 16 15  1  0  0  0  0
 16 17  1  0  0  0  0
 17 18  1  0  0  0  0
 19 18  1  0  0  0  0
 20  1  1  0  0  0  0
 21 26  2  0  0  0  0
 21 22  1  0  0  0  0
 22 23  2  0  0  0  0
 23 24  1  0  0  0  0
 23 20  1  0  0  0  0
 25 28  1  0  0  0  0
 25 24  2  0  0  0  0
 26 25  1  0  0  0  0
 27 22  1  0  0  0  0
 29 32  1  0  0  0  0
 29 21  1  0  0  0  0
 30 29  1  0  0  0  0
 31 29  1  0  0  0  0
 32 35  1  0  0  0  0
 33 32  1  0  0  0  0
 34 32  1  0  0  0  0
M  END
>  <minimizedAffinity>
-4.81215239

>  <minimizedRMSD>
1.41401005

$$$$
