
 OpenBabel03232520583D

 34 36  0  0  1  0  0  0  0  0999 V2000
   46.2150   33.6070   45.3360 C   0  0  2  0  0  0  0  0  0  0  0  0
   45.0060   34.6620   45.4940 C   0  0  0  0  0  0  0  0  0  0  0  0
   44.7750   35.5600   44.3910 C   0  0  0  0  0  0  0  0  0  0  0  0
   45.5830   35.4690   43.1850 C   0  0  1  0  0  0  0  0  0  0  0  0
   46.6870   34.5050   43.2070 C   0  0  0  0  0  0  0  0  0  0  0  0
   46.2300   33.2650   43.9650 C   0  0  0  0  0  0  0  0  0  0  0  0
   46.9210   34.4640   45.6080 H   0  0  0  0  0  0  0  0  0  0  0  0
   44.2530   34.9150   46.2460 H   0  0  0  0  0  0  0  0  0  0  0  0
   44.0120   36.2960   44.3840 H   0  0  0  0  0  0  0  0  0  0  0  0
   45.9780   36.4810   42.9410 H   0  0  0  0  0  0  0  0  0  0  0  0
   47.6130   34.9040   43.7040 H   0  0  0  0  0  0  0  0  0  0  0  0
   46.9790   34.2280   42.1770 H   0  0  0  0  0  0  0  0  0  0  0  0
   46.7860   32.5110   43.4610 H   0  0  0  0  0  0  0  0  0  0  0  0
   45.1610   33.1260   43.5960 H   0  0  0  0  0  0  0  0  0  0  0  0
   45.1900   32.8850   47.4840 C   0  0  0  0  0  0  0  0  0  0  0  0
   45.9860   32.6460   46.3750 C   0  0  0  0  0  0  0  0  0  0  0  0
   46.5180   31.3410   46.2470 C   0  0  0  0  0  0  0  0  0  0  0  0
   46.2230   30.4470   47.1830 N   0  0  0  0  0  0  0  0  0  0  0  0
   45.4440   30.6980   48.2590 C   0  0  0  0  0  0  0  0  0  0  0  0
   44.9270   31.9070   48.4170 N   0  0  0  0  0  0  0  0  0  0  0  0
   45.2270   29.6360   49.2060 N   0  0  0  0  0  0  0  0  0  0  0  0
   44.7580   33.8580   47.6420 H   0  0  0  0  0  0  0  0  0  0  0  0
   45.0870   29.8490   50.2290 H   0  0  0  0  0  0  0  0  0  0  0  0
   45.2110   28.6670   48.8670 H   0  0  0  0  0  0  0  0  0  0  0  0
   47.3900   30.7790   45.1900 C   0  0  0  0  0  3  0  0  0  0  0  0
   48.4690   29.8720   45.6690 C   0  0  0  0  0  2  0  0  0  0  0  0
   48.9140   28.8320   44.6570 C   0  0  0  0  0  2  0  0  0  0  0  0
   48.7770   29.4840   43.2890 C   0  0  0  0  0  2  0  0  0  0  0  0
   47.2600   29.4660   43.0530 C   0  0  0  0  0  2  0  0  0  0  0  0
   46.5540   29.7450   44.3420 C   0  0  0  0  0  2  0  0  0  0  0  0
   44.6180   35.1320   42.0190 C   0  0  0  0  0  0  0  0  0  0  0  0
   43.6390   34.2270   42.3780 F   0  0  0  0  0  0  0  0  0  0  0  0
   43.9590   36.3160   41.7000 F   0  0  0  0  0  0  0  0  0  0  0  0
   45.3350   34.7460   40.9030 F   0  0  0  0  0  0  0  0  0  0  0  0
  1  2  1  0  0  0  0
  1  7  1  1  0  0  0
  1 16  1  0  0  0  0
  2  8  1  0  0  0  0
  3  2  2  0  0  0  0
  4 10  1  6  0  0  0
  4  5  1  0  0  0  0
  4  3  1  0  0  0  0
  5 11  1  0  0  0  0
  5  6  1  0  0  0  0
  6  1  1  0  0  0  0
  9  3  1  0  0  0  0
 12  5  1  0  0  0  0
 13  6  1  0  0  0  0
 14  6  1  0  0  0  0
 15 22  1  0  0  0  0
 15 20  1  0  0  0  0
 16 15  2  0  0  0  0
 17 16  1  0  0  0  0
 17 18  2  0  0  0  0
 18 19  1  0  0  0  0
 19 20  2  0  0  0  0
 19 21  1  0  0  0  0
 21 23  1  0  0  0  0
 24 21  1  0  0  0  0
 25 26  1  0  0  0  0
 25 17  1  0  0  0  0
 27 26  1  0  0  0  0
 28 27  1  0  0  0  0
 29 28  1  0  0  0  0
 29 30  1  0  0  0  0
 30 25  1  0  0  0  0
 31 32  1  0  0  0  0
 31  4  1  0  0  0  0
 33 31  1  0  0  0  0
 34 31  1  0  0  0  0
M  END
>  <minimizedAffinity>
-5.81098175

>  <minimizedRMSD>
0.329487622

$$$$
