
 OpenBabel03232520583D

 34 36  0  0  1  0  0  0  0  0999 V2000
   46.2150   33.6080   45.3350 C   0  0  2  0  0  0  0  0  0  0  0  0
   45.0050   34.6640   45.4930 C   0  0  0  0  0  0  0  0  0  0  0  0
   44.7740   35.5620   44.3900 C   0  0  0  0  0  0  0  0  0  0  0  0
   45.5820   35.4700   43.1840 C   0  0  1  0  0  0  0  0  0  0  0  0
   46.6850   34.5070   43.2050 C   0  0  0  0  0  0  0  0  0  0  0  0
   46.2290   33.2670   43.9640 C   0  0  0  0  0  0  0  0  0  0  0  0
   46.9210   34.4650   45.6060 H   0  0  0  0  0  0  0  0  0  0  0  0
   44.2530   34.9160   46.2450 H   0  0  0  0  0  0  0  0  0  0  0  0
   44.0110   36.2970   44.3840 H   0  0  0  0  0  0  0  0  0  0  0  0
   45.9770   36.4820   42.9400 H   0  0  0  0  0  0  0  0  0  0  0  0
   47.6120   34.9060   43.7020 H   0  0  0  0  0  0  0  0  0  0  0  0
   46.9760   34.2300   42.1750 H   0  0  0  0  0  0  0  0  0  0  0  0
   46.7850   32.5130   43.4590 H   0  0  0  0  0  0  0  0  0  0  0  0
   45.1600   33.1270   43.5940 H   0  0  0  0  0  0  0  0  0  0  0  0
   45.1910   32.8860   47.4830 C   0  0  0  0  0  0  0  0  0  0  0  0
   45.9860   32.6470   46.3740 C   0  0  0  0  0  0  0  0  0  0  0  0
   46.5180   31.3420   46.2450 C   0  0  0  0  0  0  0  0  0  0  0  0
   46.2240   30.4480   47.1810 N   0  0  0  0  0  0  0  0  0  0  0  0
   45.4450   30.6990   48.2580 C   0  0  0  0  0  0  0  0  0  0  0  0
   44.9280   31.9080   48.4160 N   0  0  0  0  0  0  0  0  0  0  0  0
   45.2280   29.6370   49.2050 N   0  0  0  0  0  0  0  0  0  0  0  0
   44.7590   33.8590   47.6420 H   0  0  0  0  0  0  0  0  0  0  0  0
   45.0890   29.8490   50.2270 H   0  0  0  0  0  0  0  0  0  0  0  0
   45.2120   28.6680   48.8650 H   0  0  0  0  0  0  0  0  0  0  0  0
   47.3900   30.7810   45.1880 C   0  0  0  0  0  3  0  0  0  0  0  0
   48.4690   29.8730   45.6660 C   0  0  0  0  0  2  0  0  0  0  0  0
   48.9130   28.8340   44.6540 C   0  0  0  0  0  2  0  0  0  0  0  0
   48.7760   29.4860   43.2870 C   0  0  0  0  0  2  0  0  0  0  0  0
   47.2580   29.4670   43.0510 C   0  0  0  0  0  2  0  0  0  0  0  0
   46.5520   29.7460   44.3400 C   0  0  0  0  0  2  0  0  0  0  0  0
   44.6150   35.1340   42.0190 C   0  0  0  0  0  0  0  0  0  0  0  0
   43.6360   34.2300   42.3780 F   0  0  0  0  0  0  0  0  0  0  0  0
   43.9580   36.3190   41.6980 F   0  0  0  0  0  0  0  0  0  0  0  0
   45.3320   34.7460   40.9020 F   0  0  0  0  0  0  0  0  0  0  0  0
  1  2  1  0  0  0  0
  1  7  1  1  0  0  0
  1 16  1  0  0  0  0
  2  8  1  0  0  0  0
  3  2  2  0  0  0  0
  4 10  1  6  0  0  0
  4  5  1  0  0  0  0
  4  3  1  0  0  0  0
  5 11  1  0  0  0  0
  5  6  1  0  0  0  0
  6  1  1  0  0  0  0
  9  3  1  0  0  0  0
 12  5  1  0  0  0  0
 13  6  1  0  0  0  0
 14  6  1  0  0  0  0
 15 22  1  0  0  0  0
 15 20  1  0  0  0  0
 16 15  2  0  0  0  0
 17 16  1  0  0  0  0
 17 18  2  0  0  0  0
 18 19  1  0  0  0  0
 19 20  2  0  0  0  0
 19 21  1  0  0  0  0
 21 23  1  0  0  0  0
 24 21  1  0  0  0  0
 25 26  1  0  0  0  0
 25 17  1  0  0  0  0
 27 26  1  0  0  0  0
 28 27  1  0  0  0  0
 29 28  1  0  0  0  0
 29 30  1  0  0  0  0
 30 25  1  0  0  0  0
 31 32  1  0  0  0  0
 31  4  1  0  0  0  0
 33 31  1  0  0  0  0
 34 31  1  0  0  0  0
M  END
>  <minimizedAffinity>
-5.80785656

>  <minimizedRMSD>
0.382949293

$$$$
