REMARK  Name = 
REMARK  2 active torsions:
REMARK  status: ('A' for Active; 'I' for Inactive)
REMARK    1  A    between atoms: C_2  and  C_7
REMARK    2  A    between atoms: C_10  and  C_24
REMARK                            x       y       z     vdW  Elec       q    Type
REMARK                         _______ _______ _______ _____ _____    ______ ____
ROOT
ATOM      1  C   UNL     1      45.968  33.906  45.284  0.00  0.00    +0.000 C 
ATOM      2  C   UNL     1      44.847  34.897  45.504  0.00  0.00    +0.000 C 
ATOM      3  C   UNL     1      44.520  35.795  44.400  0.00  0.00    +0.000 C 
ATOM      4  C   UNL     1      45.257  35.708  43.147  0.00  0.00    +0.000 C 
ATOM      5  C   UNL     1      46.444  34.843  43.124  0.00  0.00    +0.000 C 
ATOM      6  C   UNL     1      46.123  33.555  43.840  0.00  0.00    +0.000 C 
ATOM      7  H   UNL     1      46.874  34.487  45.628  0.00  0.00    +0.000 HD
ATOM      8  H   UNL     1      44.232  35.059  46.355  0.00  0.00    +0.000 HD
ATOM      9  H   UNL     1      43.739  36.498  44.531  0.00  0.00    +0.000 HD
ATOM     10  H   UNL     1      45.580  36.752  42.889  0.00  0.00    +0.000 HD
ATOM     11  H   UNL     1      46.731  34.610  42.081  0.00  0.00    +0.000 HD
ATOM     12  H   UNL     1      47.271  35.374  43.644  0.00  0.00    +0.000 HD
ATOM     13  H   UNL     1      45.200  33.105  43.459  0.00  0.00    +0.000 HD
ATOM     14  H   UNL     1      47.005  32.893  43.751  0.00  0.00    +0.000 HD
ENDROOT
BRANCH   1  16
ATOM     15  C   UNL     1      45.288  32.971  47.460  0.00  0.00    +0.000 A 
ATOM     16  C   UNL     1      45.781  32.751  46.173  0.00  0.00    +0.000 A 
ATOM     17  C   UNL     1      46.094  31.417  45.794  0.00  0.00    +0.000 A 
ATOM     18  N   UNL     1      45.895  30.435  46.709  0.00  0.00    +0.000 NA
ATOM     19  C   UNL     1      45.414  30.679  47.953  0.00  0.00    +0.000 A 
ATOM     20  N   UNL     1      45.112  31.944  48.327  0.00  0.00    +0.000 NA
ATOM     21  H   UNL     1      45.016  33.937  47.862  0.00  0.00    +0.000 HD
ATOM     22  H   UNL     1      46.468  31.243  44.816  0.00  0.00    +0.000 HD
ATOM     23  H   UNL     1      45.316  29.785  48.556  0.00  0.00    +0.000 HD
ENDBRANCH   1  16
BRANCH   4  24
ATOM     24  C   UNL     1      44.235  35.346  42.083  0.00  0.00    +0.000 C 
ATOM     25  C   UNL     1      43.090  34.532  42.586  0.00  0.00    +0.000 C 
ATOM     26  C   UNL     1      42.552  33.954  41.277  0.00  0.00    +0.000 C 
ATOM     27  C   UNL     1      43.782  33.693  40.417  0.00  0.00    +0.000 C 
ATOM     28  C   UNL     1      44.918  34.445  41.086  0.00  0.00    +0.000 C 
ENDBRANCH   4  24
TORSDOF 2
