
 OpenBabel03232520513D

 28 30  0  0  1  0  0  0  0  0999 V2000
   46.2200   33.5160   45.4860 C   0  0  2  0  0  0  0  0  0  0  0  0
   45.0960   34.5270   45.4470 C   0  0  0  0  0  0  0  0  0  0  0  0
   44.9930   35.3700   44.2590 C   0  0  0  0  0  0  0  0  0  0  0  0
   45.9460   35.2140   43.1700 C   0  0  1  0  0  0  0  0  0  0  0  0
   47.1020   34.3390   43.4080 C   0  0  0  0  0  0  0  0  0  0  0  0
   46.6320   33.0910   44.1140 C   0  0  0  0  0  0  0  0  0  0  0  0
   47.0580   34.1070   45.9630 H   0  0  0  0  0  0  0  0  0  0  0  0
   44.3370   34.7370   46.1610 H   0  0  0  0  0  0  0  0  0  0  0  0
   44.2140   36.0850   44.2100 H   0  0  0  0  0  0  0  0  0  0  0  0
   46.3290   36.2400   42.9260 H   0  0  0  0  0  0  0  0  0  0  0  0
   47.5720   34.0510   42.4490 H   0  0  0  0  0  0  0  0  0  0  0  0
   47.8280   34.8890   44.0460 H   0  0  0  0  0  0  0  0  0  0  0  0
   45.7880   32.6300   43.5910 H   0  0  0  0  0  0  0  0  0  0  0  0
   47.5040   32.4190   44.2220 H   0  0  0  0  0  0  0  0  0  0  0  0
   45.3510   32.7120   47.6460 C   0  0  0  0  0  0  0  0  0  0  0  0
   45.8530   32.4100   46.3800 C   0  0  0  0  0  0  0  0  0  0  0  0
   45.9990   31.0410   46.0260 C   0  0  0  0  0  0  0  0  0  0  0  0
   45.6420   30.1070   46.9440 N   0  0  0  0  0  0  0  0  0  0  0  0
   45.1560   30.4310   48.1680 C   0  0  0  0  0  0  0  0  0  0  0  0
   45.0120   31.7300   48.5170 N   0  0  0  0  0  0  0  0  0  0  0  0
   45.1960   33.7110   48.0290 H   0  0  0  0  0  0  0  0  0  0  0  0
   46.3790   30.8040   45.0630 H   0  0  0  0  0  0  0  0  0  0  0  0
   44.9210   29.5670   48.7760 H   0  0  0  0  0  0  0  0  0  0  0  0
   45.1310   34.8060   41.9540 C   0  0  0  0  0  3  0  0  0  0  0  0
   44.1910   33.6740   42.1990 C   0  0  0  0  0  2  0  0  0  0  0  0
   43.9160   33.2150   40.7670 C   0  0  0  0  0  2  0  0  0  0  0  0
   45.2340   33.3970   40.0270 C   0  0  0  0  0  2  0  0  0  0  0  0
   46.0920   34.2710   40.9230 C   0  0  0  0  0  2  0  0  0  0  0  0
  1  7  1  1  0  0  0
  1 16  1  0  0  0  0
  2  1  1  0  0  0  0
  2  8  1  0  0  0  0
  3  2  2  0  0  0  0
  4 10  1  6  0  0  0
  4  5  1  0  0  0  0
  4  3  1  0  0  0  0
  5 12  1  0  0  0  0
  5  6  1  0  0  0  0
  6 14  1  0  0  0  0
  6  1  1  0  0  0  0
  9  3  1  0  0  0  0
 11  5  1  0  0  0  0
 13  6  1  0  0  0  0
 15 21  1  0  0  0  0
 15 20  1  0  0  0  0
 16 15  2  0  0  0  0
 17 16  1  0  0  0  0
 17 18  2  0  0  0  0
 18 19  1  0  0  0  0
 19 20  2  0  0  0  0
 19 23  1  0  0  0  0
 22 17  1  0  0  0  0
 24 25  1  0  0  0  0
 24  4  1  0  0  0  0
 26 25  1  0  0  0  0
 27 26  1  0  0  0  0
 27 28  1  0  0  0  0
 28 24  1  0  0  0  0
M  END
>  <minimizedAffinity>
-5.04267788

>  <minimizedRMSD>
0.821393728

$$$$
