
 OpenBabel03232520583D

 33 35  0  0  1  0  0  0  0  0999 V2000
   46.2050   33.6220   45.3300 C   0  0  2  0  0  0  0  0  0  0  0  0
   45.0000   34.6740   45.5220 C   0  0  0  0  0  0  0  0  0  0  0  0
   44.7440   35.5770   44.4230 C   0  0  0  0  0  0  0  0  0  0  0  0
   45.5370   35.5040   43.2080 C   0  0  1  0  0  0  0  0  0  0  0  0
   46.6410   34.5330   43.2020 C   0  0  0  0  0  0  0  0  0  0  0  0
   46.1540   33.2910   43.9450 C   0  0  0  0  0  0  0  0  0  0  0  0
   46.9430   34.4490   45.5790 H   0  0  0  0  0  0  0  0  0  0  0  0
   44.2730   34.9170   46.2910 H   0  0  0  0  0  0  0  0  0  0  0  0
   43.9580   36.3170   44.4640 H   0  0  0  0  0  0  0  0  0  0  0  0
   45.9030   36.5320   42.9870 H   0  0  0  0  0  0  0  0  0  0  0  0
   47.4930   34.9750   43.7730 H   0  0  0  0  0  0  0  0  0  0  0  0
   46.9980   34.3350   42.1940 H   0  0  0  0  0  0  0  0  0  0  0  0
   45.0400   33.2160   43.6540 H   0  0  0  0  0  0  0  0  0  0  0  0
   46.6000   32.5080   43.4050 H   0  0  0  0  0  0  0  0  0  0  0  0
   45.2050   32.8600   47.4960 C   0  0  0  0  0  0  0  0  0  0  0  0
   45.9900   32.6530   46.3640 C   0  0  0  0  0  0  0  0  0  0  0  0
   46.5110   31.3430   46.1890 C   0  0  0  0  0  0  0  0  0  0  0  0
   46.2140   30.4160   47.0970 N   0  0  0  0  0  0  0  0  0  0  0  0
   45.4470   30.6420   48.1880 C   0  0  0  0  0  0  0  0  0  0  0  0
   44.9440   31.8500   48.3950 N   0  0  0  0  0  0  0  0  0  0  0  0
   45.2290   29.5620   49.1160 N   0  0  0  0  0  0  0  0  0  0  0  0
   44.7900   33.8230   47.6920 H   0  0  0  0  0  0  0  0  0  0  0  0
   45.8890   29.4080   49.9280 H   0  0  0  0  0  0  0  0  0  0  0  0
   44.4070   28.9600   48.9420 H   0  0  0  0  0  0  0  0  0  0  0  0
   47.4500   30.8600   45.1570 C   0  0  0  0  0  3  0  0  0  0  0  0
   46.6900   29.8170   44.2350 C   0  0  0  0  0  2  0  0  0  0  0  0
   47.7800   29.2550   43.3820 C   0  0  0  0  0  2  0  0  0  0  0  0
   48.8740   29.0520   44.4060 C   0  0  0  0  0  2  0  0  0  0  0  0
   48.4650   29.8710   45.6160 C   0  0  0  0  0  2  0  0  0  0  0  0
   44.5610   35.1810   42.0470 C   0  0  0  0  0  0  0  0  0  0  0  0
   43.5530   34.3180   42.4170 F   0  0  0  0  0  0  0  0  0  0  0  0
   43.9460   36.3830   41.7040 F   0  0  0  0  0  0  0  0  0  0  0  0
   45.2630   34.7550   40.9380 F   0  0  0  0  0  0  0  0  0  0  0  0
  1  2  1  0  0  0  0
  1  7  1  1  0  0  0
  1 16  1  0  0  0  0
  2  8  1  0  0  0  0
  3  9  1  0  0  0  0
  3  2  2  0  0  0  0
  4 10  1  6  0  0  0
  4  3  1  0  0  0  0
  5  4  1  0  0  0  0
  5 11  1  0  0  0  0
  5  6  1  0  0  0  0
  6  1  1  0  0  0  0
 12  5  1  0  0  0  0
 13  6  1  0  0  0  0
 14  6  1  0  0  0  0
 15 22  1  0  0  0  0
 15 20  1  0  0  0  0
 16 15  2  0  0  0  0
 17 16  1  0  0  0  0
 17 18  2  0  0  0  0
 18 19  1  0  0  0  0
 19 20  2  0  0  0  0
 19 21  1  0  0  0  0
 21 23  1  0  0  0  0
 24 21  1  0  0  0  0
 25 29  1  0  0  0  0
 25 17  1  0  0  0  0
 26 25  1  0  0  0  0
 27 26  1  0  0  0  0
 27 28  1  0  0  0  0
 28 29  1  0  0  0  0
 30 31  1  0  0  0  0
 30  4  1  0  0  0  0
 32 30  1  0  0  0  0
 33 30  1  0  0  0  0
M  END
>  <minimizedAffinity>
-5.74826241

>  <minimizedRMSD>
0.485873252

$$$$
