
     RDKit          3D

 37 39  0  0  0  0  0  0  0  0999 V2000
   45.2880   32.9708   47.4602 C   0  0  0  0  0  0  0  0  0  0  0  0
   45.7807   32.7507   46.1733 C   0  0  0  0  0  0  0  0  0  0  0  0
   46.0937   31.4169   45.7938 C   0  0  0  0  0  0  0  0  0  0  0  0
   45.8945   30.4352   46.7085 N   0  0  0  0  0  0  0  0  0  0  0  0
   45.4142   30.6786   47.9534 C   0  0  0  0  0  0  0  0  0  0  0  0
   45.1121   31.9441   48.3266 N   0  0  0  0  0  0  0  0  0  0  0  0
   45.9676   33.9060   45.2842 C   0  0  2  0  0  0  0  0  0  0  0  0
   44.8473   34.8967   45.5035 C   0  0  0  0  0  0  0  0  0  0  0  0
   44.5196   35.7953   44.4004 C   0  0  0  0  0  0  0  0  0  0  0  0
   45.2573   35.7079   43.1467 C   0  0  1  0  0  0  0  0  0  0  0  0
   46.4444   34.8435   43.1243 C   0  0  0  0  0  0  0  0  0  0  0  0
   46.1227   33.5552   43.8401 C   0  0  0  0  0  0  0  0  0  0  0  0
   45.0156   33.9370   47.8621 H   0  0  0  0  0  0  0  0  0  0  0  0
   46.4685   31.2429   44.8156 H   0  0  0  0  0  0  0  0  0  0  0  0
   45.3159   29.7846   48.5562 H   0  0  0  0  0  0  0  0  0  0  0  0
   46.8745   34.4867   45.6283 H   0  0  0  0  0  0  0  0  0  0  0  0
   44.2317   35.0587   46.3550 H   0  0  0  0  0  0  0  0  0  0  0  0
   43.7386   36.4985   44.5311 H   0  0  0  0  0  0  0  0  0  0  0  0
   45.5804   36.7518   42.8886 H   0  0  0  0  0  0  0  0  0  0  0  0
   46.7314   34.6104   42.0812 H   0  0  0  0  0  0  0  0  0  0  0  0
   47.2713   35.3741   43.6444 H   0  0  0  0  0  0  0  0  0  0  0  0
   45.1995   33.1048   43.4591 H   0  0  0  0  0  0  0  0  0  0  0  0
   47.0050   32.8928   43.7507 H   0  0  0  0  0  0  0  0  0  0  0  0
   44.2351   35.3457   42.0825 C   0  0  0  0  0  0  0  0  0  0  0  0
   42.9365   34.8496   42.6255 C   0  0  0  0  0  0  0  0  0  0  0  0
   42.3606   34.1495   41.3946 C   0  0  0  0  0  0  0  0  0  0  0  0
   43.5581   33.5259   40.6895 C   0  0  0  0  0  0  0  0  0  0  0  0
   44.7825   34.1748   41.3078 C   0  0  0  0  0  0  0  0  0  0  0  0
   44.0511   36.1777   41.3857 H   0  0  0  0  0  0  0  0  0  0  0  0
   43.0304   34.1877   43.4927 H   0  0  0  0  0  0  0  0  0  0  0  0
   42.2960   35.7365   42.8486 H   0  0  0  0  0  0  0  0  0  0  0  0
   41.5602   33.4472   41.6214 H   0  0  0  0  0  0  0  0  0  0  0  0
   41.9981   34.9851   40.7308 H   0  0  0  0  0  0  0  0  0  0  0  0
   43.6370   32.4351   40.8746 H   0  0  0  0  0  0  0  0  0  0  0  0
   43.5651   33.7899   39.6064 H   0  0  0  0  0  0  0  0  0  0  0  0
   45.4821   34.5731   40.5408 H   0  0  0  0  0  0  0  0  0  0  0  0
   45.3380   33.5046   41.9772 H   0  0  0  0  0  0  0  0  0  0  0  0
  1  6  2  0
  2  1  1  0
  3  2  2  0
  3  4  1  0
  4  5  2  0
  5  6  1  0
  7  8  1  0
  7  2  1  0
  9  8  2  0
 10  9  1  0
 11 10  1  0
 11 12  1  0
 12  7  1  0
  1 13  1  0
  3 14  1  0
  5 15  1  0
  7 16  1  1
  8 17  1  0
  9 18  1  0
 10 19  1  6
 11 20  1  0
 11 21  1  0
 12 22  1  0
 12 23  1  0
 24 25  1  0
 25 26  1  0
 26 27  1  0
 27 28  1  0
 28 24  1  0
 24 29  1  0
 25 30  1  0
 25 31  1  0
 26 32  1  0
 26 33  1  0
 27 34  1  0
 27 35  1  0
 28 36  1  0
 28 37  1  0
 10 24  1  0
M  ISO  8  13  14  14  14  15  14  16  13  17  13  18  13  19  13  20  13
M  ISO  3  21  13  22  13  23  13
M  END
>  <DihAtoms>  (1) 
8,9,23,24

>  <DihDeg>  (1) 
179.99917317049872

$$$$
