
 OpenBabel03232520393D

 15 16  0  0  0  0  0  0  0  0999 V2000
   45.1660   34.5680   44.7810 C   0  0  0  0  0  0  0  0  0  0  0  0
   45.9830   34.1170   43.7270 C   0  0  0  0  0  0  0  0  0  0  0  0
   46.9390   33.1350   44.0120 C   0  0  0  0  0  0  0  0  0  0  0  0
   47.0330   32.6620   45.2930 N   0  0  0  0  0  0  0  0  0  0  0  0
   46.2150   33.1360   46.2700 C   0  0  0  0  0  0  0  0  0  0  0  0
   45.2950   34.0730   46.0240 N   0  0  0  0  0  0  0  0  0  0  0  0
   44.4290   35.3390   44.5160 H   0  0  0  0  0  0  0  0  0  0  0  0
   47.5950   32.7490   43.2440 H   0  0  0  0  0  0  0  0  0  0  0  0
   46.3460   32.6010   47.6430 C   0  0  0  0  0  0  0  0  0  0  0  0
   47.3530   31.5090   47.7900 C   0  0  0  0  0  0  0  0  0  0  0  0
   46.9910   30.9190   49.1360 C   0  0  0  0  0  0  0  0  0  0  0  0
   45.5430   31.3000   49.4010 C   0  0  0  0  0  0  0  0  0  0  0  0
   45.0680   31.8940   48.0910 C   0  0  0  0  0  0  0  0  0  0  0  0
   45.8230   34.7690   42.0610 S   0  0  0  0  0  0  0  0  0  0  0  0
   45.0500   33.9230   41.2630 H   0  0  0  0  0  0  0  0  0  0  0  0
  1  6  1  0  0  0  0
  2  3  1  0  0  0  0
  2  1  2  0  0  0  0
  3  4  2  0  0  0  0
  4  5  1  0  0  0  0
  5  9  1  0  0  0  0
  6  5  2  0  0  0  0
  7  1  1  0  0  0  0
  8  3  1  0  0  0  0
  9 10  1  0  0  0  0
  9 13  1  0  0  0  0
 10 11  1  0  0  0  0
 11 12  1  0  0  0  0
 13 12  1  0  0  0  0
 14  2  1  0  0  0  0
 15 14  1  0  0  0  0
M  END
>  <minimizedAffinity>
-4.15576267

>  <minimizedRMSD>
1.72164309

$$$$
