
 OpenBabel03232518183D

 27 29  0  0  1  0  0  0  0  0999 V2000
   43.3370   35.2950   41.4000 C   0  0  2  0  0  0  0  0  0  0  0  0
   41.7950   35.1790   41.5230 C   0  0  0  0  0  0  0  0  0  0  0  0
   41.4430   35.6580   40.1140 C   0  0  1  0  0  0  0  0  0  0  0  0
   42.4060   34.8660   39.2820 C   0  0  0  0  0  0  0  0  0  0  0  0
   43.5440   34.4740   40.2030 C   0  0  0  0  0  0  0  0  0  0  0  0
   43.5060   36.3740   41.1740 H   0  0  0  0  0  0  0  0  0  0  0  0
   41.5480   34.1100   41.6350 H   0  0  0  0  0  0  0  0  0  0  0  0
   41.4270   35.8330   42.3120 H   0  0  0  0  0  0  0  0  0  0  0  0
   41.6020   36.7450   40.0580 H   0  0  0  0  0  0  0  0  0  0  0  0
   41.9110   34.0010   38.8180 H   0  0  0  0  0  0  0  0  0  0  0  0
   42.8700   35.5190   38.4920 H   0  0  0  0  0  0  0  0  0  0  0  0
   43.3270   33.4070   40.4780 H   0  0  0  0  0  0  0  0  0  0  0  0
   44.5310   34.5770   39.7120 H   0  0  0  0  0  0  0  0  0  0  0  0
   44.1400   35.8300   43.6470 C   0  0  0  0  0  0  0  0  0  0  0  0
   44.0270   34.8760   42.6210 C   0  0  0  0  0  0  0  0  0  0  0  0
   44.5950   33.5800   42.7940 C   0  0  0  0  0  0  0  0  0  0  0  0
   45.2320   33.3250   43.9680 N   0  0  0  0  0  0  0  0  0  0  0  0
   45.3270   34.2680   44.9470 C   0  0  0  0  0  0  0  0  0  0  0  0
   44.7910   35.5090   44.7980 N   0  0  0  0  0  0  0  0  0  0  0  0
   43.7080   36.8090   43.5130 H   0  0  0  0  0  0  0  0  0  0  0  0
   44.4910   32.8700   41.9860 H   0  0  0  0  0  0  0  0  0  0  0  0
   45.8630   33.9120   45.8160 H   0  0  0  0  0  0  0  0  0  0  0  0
   40.0190   35.2970   39.8040 C   0  0  0  0  0  0  0  0  0  0  0  0
   39.5620   34.1170   40.6360 C   0  0  0  0  0  0  0  0  0  0  0  0
   38.3460   33.6550   39.8630 C   0  0  0  0  0  0  0  0  0  0  0  0
   38.7150   33.8400   38.3970 C   0  0  0  0  0  0  0  0  0  0  0  0
   39.9190   34.7600   38.3950 C   0  0  0  0  0  0  0  0  0  0  0  0
  1  6  1  6  0  0  0
  1  2  1  0  0  0  0
  1 15  1  0  0  0  0
  2  7  1  0  0  0  0
  2  8  1  0  0  0  0
  3  9  1  6  0  0  0
  3  2  1  0  0  0  0
  4  3  1  0  0  0  0
  4  5  1  0  0  0  0
  5 12  1  0  0  0  0
  5  1  1  0  0  0  0
 10  4  1  0  0  0  0
 11  4  1  0  0  0  0
 13  5  1  0  0  0  0
 14 19  1  0  0  0  0
 15 16  1  0  0  0  0
 15 14  2  0  0  0  0
 16 17  2  0  0  0  0
 17 18  1  0  0  0  0
 18 22  1  0  0  0  0
 19 18  2  0  0  0  0
 20 14  1  0  0  0  0
 21 16  1  0  0  0  0
 23  3  1  0  0  0  0
 23 24  1  0  0  0  0
 25 24  1  0  0  0  0
 26 25  1  0  0  0  0
 27 26  1  0  0  0  0
 27 23  1  0  0  0  0
M  END
>  <minimizedAffinity>
-5.67865515

>  <minimizedRMSD>
1.40588129

$$$$
