
 OpenBabel03232518383D

 43 46  0  0  1  0  0  0  0  0999 V2000
   43.7040   34.2330   40.0910 C   0  0  0  0  0  0  0  0  0  0  0  0
   45.0260   33.8310   40.1920 C   0  0  0  0  0  0  0  0  0  0  0  0
   45.7610   34.3700   41.2620 C   0  0  0  0  0  0  0  0  0  0  0  0
   45.1610   35.2450   42.1380 N   0  0  0  0  0  0  0  0  0  0  0  0
   43.8450   35.6070   41.9880 C   0  0  0  0  0  0  0  0  0  0  0  0
   43.1420   35.0900   40.9620 N   0  0  0  0  0  0  0  0  0  0  0  0
   45.4850   33.1560   39.5150 H   0  0  0  0  0  0  0  0  0  0  0  0
   43.3760   36.2900   42.6710 H   0  0  0  0  0  0  0  0  0  0  0  0
   47.1960   33.9970   41.4910 C   0  0  0  0  0  0  0  0  0  0  0  0
   48.1060   34.8640   40.6040 C   0  0  0  0  0  0  0  0  0  0  0  0
   48.9680   35.7830   41.3910 C   0  0  0  0  0  0  0  0  0  0  0  0
   49.7800   35.0970   42.4410 C   0  0  0  0  0  0  0  0  0  0  0  0
   49.1180   33.8210   42.9250 C   0  0  0  0  0  0  0  0  0  0  0  0
   47.6230   34.0690   42.9100 C   0  0  0  0  0  0  0  0  0  0  0  0
   47.2680   32.9460   41.1320 H   0  0  0  0  0  0  0  0  0  0  0  0
   48.7530   34.1840   40.0140 H   0  0  0  0  0  0  0  0  0  0  0  0
   47.4860   35.4290   39.9030 H   0  0  0  0  0  0  0  0  0  0  0  0
   48.2670   36.4750   41.9430 H   0  0  0  0  0  0  0  0  0  0  0  0
   49.5390   36.3950   40.6970 H   0  0  0  0  0  0  0  0  0  0  0  0
   50.7460   34.7900   41.9910 H   0  0  0  0  0  0  0  0  0  0  0  0
   50.0360   35.7740   43.2880 H   0  0  0  0  0  0  0  0  0  0  0  0
   49.4300   33.6270   43.9700 H   0  0  0  0  0  0  0  0  0  0  0  0
   49.3390   32.9750   42.2430 H   0  0  0  0  0  0  0  0  0  0  0  0
   47.4340   35.0990   43.3120 H   0  0  0  0  0  0  0  0  0  0  0  0
   47.0550   33.3220   43.4910 H   0  0  0  0  0  0  0  0  0  0  0  0
   42.8530   33.7270   38.9830 C   0  0  1  0  0  0  0  0  0  0  0  0
   43.5780   32.7600   38.0770 C   0  0  0  0  0  0  0  0  0  0  0  0
   42.7190   31.5140   38.0380 C   0  0  0  0  0  0  0  0  0  0  0  0
   42.0640   31.5570   39.4050 C   0  0  0  0  0  0  0  0  0  0  0  0
   41.6500   32.9900   39.5470 C   0  0  2  0  0  0  0  0  0  0  0  0
   42.5930   34.5860   38.3420 H   0  0  0  0  0  0  0  0  0  0  0  0
   43.7920   33.1500   37.0800 H   0  0  0  0  0  0  0  0  0  0  0  0
   44.5330   32.4600   38.5990 H   0  0  0  0  0  0  0  0  0  0  0  0
   43.3230   30.5790   37.9960 H   0  0  0  0  0  0  0  0  0  0  0  0
   41.9410   31.5600   37.2600 H   0  0  0  0  0  0  0  0  0  0  0  0
   41.1780   30.9180   39.4050 H   0  0  0  0  0  0  0  0  0  0  0  0
   42.8250   31.2750   40.1360 H   0  0  0  0  0  0  0  0  0  0  0  0
   41.5060   33.2150   40.6090 H   0  0  0  0  0  0  0  0  0  0  0  0
   40.3940   33.2870   38.7780 C   0  0  0  0  0  0  0  0  0  0  0  0
   39.8950   34.6880   39.0140 C   0  0  0  0  0  0  0  0  0  0  0  0
   38.6000   34.5940   39.7890 C   0  0  0  0  0  0  0  0  0  0  0  0
   38.7570   33.2650   40.4740 C   0  0  0  0  0  0  0  0  0  0  0  0
   39.2970   32.4080   39.3360 C   0  0  0  0  0  0  0  0  0  0  0  0
  1  2  2  0  0  0  0
  1  6  1  0  0  0  0
  2  3  1  0  0  0  0
  3  9  1  0  0  0  0
  3  4  2  0  0  0  0
  5  4  1  0  0  0  0
  5  8  1  0  0  0  0
  6  5  2  0  0  0  0
  7  2  1  0  0  0  0
  9 14  1  0  0  0  0
 10 11  1  0  0  0  0
 10  9  1  0  0  0  0
 11 18  1  0  0  0  0
 11 12  1  0  0  0  0
 12 13  1  0  0  0  0
 12 21  1  0  0  0  0
 13 22  1  0  0  0  0
 14 13  1  0  0  0  0
 14 24  1  0  0  0  0
 14 25  1  0  0  0  0
 15  9  1  0  0  0  0
 16 10  1  0  0  0  0
 17 10  1  0  0  0  0
 19 11  1  0  0  0  0
 20 12  1  0  0  0  0
 23 13  1  0  0  0  0
 26 31  1  6  0  0  0
 26 30  1  0  0  0  0
 26  1  1  0  0  0  0
 27 33  1  0  0  0  0
 27 26  1  0  0  0  0
 28 27  1  0  0  0  0
 28 29  1  0  0  0  0
 29 30  1  0  0  0  0
 29 37  1  0  0  0  0
 30 38  1  1  0  0  0
 32 27  1  0  0  0  0
 34 28  1  0  0  0  0
 35 28  1  0  0  0  0
 36 29  1  0  0  0  0
 39 40  1  0  0  0  0
 39 43  1  0  0  0  0
 39 30  1  0  0  0  0
 40 41  1  0  0  0  0
 41 42  1  0  0  0  0
 43 42  1  0  0  0  0
M  END
>  <minimizedAffinity>
-6.42568302

>  <minimizedRMSD>
2.22971439

$$$$
