
 OpenBabel03232512313D

 35 39  0  0  0  0  0  0  0  0999 V2000
   44.7800   35.9780   44.1340 C   0  0  0  0  0  0  0  0  0  0  0  0
   43.9680   35.8180   42.9920 C   0  0  0  0  0  0  0  0  0  0  0  0
   43.9070   34.5490   42.4740 C   0  0  0  0  0  0  0  0  0  0  0  0
   44.5870   33.5460   43.0400 N   0  0  0  0  0  0  0  0  0  0  0  0
   45.3660   33.7240   44.1460 C   0  0  0  0  0  0  0  0  0  0  0  0
   45.4530   34.9730   44.6900 N   0  0  0  0  0  0  0  0  0  0  0  0
   44.9080   36.9300   44.6330 H   0  0  0  0  0  0  0  0  0  0  0  0
   43.4810   36.7310   42.6520 H   0  0  0  0  0  0  0  0  0  0  0  0
   46.0940   32.6290   44.7580 C   0  0  0  0  0  0  0  0  0  0  0  0
   46.9100   31.7020   44.1270 C   0  0  0  0  0  0  0  0  0  0  0  0
   47.3700   30.8800   45.0650 N   0  0  0  0  0  0  0  0  0  0  0  0
   46.8950   31.2310   46.2530 C   0  0  0  0  0  0  0  0  0  0  0  0
   47.0900   30.6850   47.5230 C   0  0  0  0  0  0  0  0  0  0  0  0
   46.4820   31.2270   48.6610 C   0  0  0  0  0  0  0  0  0  0  0  0
   45.6730   32.3250   48.5090 C   0  0  0  0  0  0  0  0  0  0  0  0
   45.4580   32.8980   47.2390 C   0  0  0  0  0  0  0  0  0  0  0  0
   46.0660   32.3520   46.1290 C   0  0  0  0  0  0  0  0  0  0  0  0
   47.0690   31.7410   43.0510 H   0  0  0  0  0  0  0  0  0  0  0  0
   48.0170   30.0810   44.8480 H   0  0  0  0  0  0  0  0  0  0  0  0
   47.7400   29.8150   47.5860 H   0  0  0  0  0  0  0  0  0  0  0  0
   46.6670   30.7640   49.6210 H   0  0  0  0  0  0  0  0  0  0  0  0
   45.1890   32.7700   49.3640 H   0  0  0  0  0  0  0  0  0  0  0  0
   44.8260   33.7650   47.0880 H   0  0  0  0  0  0  0  0  0  0  0  0
   43.1010   34.3890   41.3290 C   0  0  0  0  0  0  0  0  0  0  0  0
   43.2170   35.0930   40.1670 C   0  0  0  0  0  0  0  0  0  0  0  0
   42.4710   34.9610   39.0540 C   0  0  0  0  0  0  0  0  0  0  0  0
   41.4480   33.8710   39.3060 C   0  0  0  0  0  0  0  0  0  0  0  0
   41.7700   33.2640   41.0820 S   0  0  0  0  0  0  0  0  0  0  0  0
   43.9610   35.8940   39.9730 H   0  0  0  0  0  0  0  0  0  0  0  0
   42.3410   35.3240   38.1120 H   0  0  0  0  0  0  0  0  0  0  0  0
   40.3860   33.2970   38.4790 C   0  0  0  0  0  0  0  0  0  0  0  0
   39.4610   32.3690   39.2470 C   0  0  0  0  0  0  0  0  0  0  0  0
   38.4070   32.1320   38.1550 C   0  0  0  0  0  0  0  0  0  0  0  0
   38.2820   33.4880   37.4580 C   0  0  0  0  0  0  0  0  0  0  0  0
   39.4530   34.3210   37.9410 C   0  0  0  0  0  0  0  0  0  0  0  0
  1  7  1  0  0  0  0
  1  6  1  0  0  0  0
  2  1  2  0  0  0  0
  3  2  1  0  0  0  0
  3  4  2  0  0  0  0
  4  5  1  0  0  0  0
  5  6  2  0  0  0  0
  5  9  1  0  0  0  0
  8  2  1  0  0  0  0
  9 17  1  0  0  0  0
 10  9  2  0  0  0  0
 10 11  1  0  0  0  0
 11 12  1  0  0  0  0
 12 13  1  0  0  0  0
 13 20  1  0  0  0  0
 13 14  2  0  0  0  0
 14 21  1  0  0  0  0
 15 14  1  0  0  0  0
 15 22  1  0  0  0  0
 16 15  2  0  0  0  0
 17 12  2  0  0  0  0
 17 16  1  0  0  0  0
 18 10  1  0  0  0  0
 19 11  1  0  0  0  0
 23 16  1  0  0  0  0
 24  3  1  0  0  0  0
 25 24  2  0  0  0  0
 26 27  2  0  0  0  0
 26 25  1  0  0  0  0
 27 28  1  0  0  0  0
 28 24  1  0  0  0  0
 29 25  1  0  0  0  0
 30 26  1  0  0  0  0
 31 32  1  0  0  0  0
 31 27  1  0  0  0  0
 33 32  1  0  0  0  0
 34 35  1  0  0  0  0
 34 33  1  0  0  0  0
 35 31  1  0  0  0  0
M  END
>  <minimizedAffinity>
-6.68938732

>  <minimizedRMSD>
2.02547693

$$$$
