
 OpenBabel03232520583D

 33 35  0  0  1  0  0  0  0  0999 V2000
   46.2040   33.6230   45.3310 C   0  0  2  0  0  0  0  0  0  0  0  0
   44.9990   34.6750   45.5230 C   0  0  0  0  0  0  0  0  0  0  0  0
   44.7430   35.5780   44.4260 C   0  0  0  0  0  0  0  0  0  0  0  0
   45.5350   35.5060   43.2100 C   0  0  1  0  0  0  0  0  0  0  0  0
   46.6390   34.5350   43.2030 C   0  0  0  0  0  0  0  0  0  0  0  0
   46.1530   33.2920   43.9460 C   0  0  0  0  0  0  0  0  0  0  0  0
   46.9420   34.4490   45.5800 H   0  0  0  0  0  0  0  0  0  0  0  0
   44.2720   34.9180   46.2930 H   0  0  0  0  0  0  0  0  0  0  0  0
   43.9570   36.3190   44.4670 H   0  0  0  0  0  0  0  0  0  0  0  0
   45.9020   36.5340   42.9890 H   0  0  0  0  0  0  0  0  0  0  0  0
   47.4920   34.9770   43.7750 H   0  0  0  0  0  0  0  0  0  0  0  0
   46.9970   34.3370   42.1960 H   0  0  0  0  0  0  0  0  0  0  0  0
   45.0390   33.2180   43.6550 H   0  0  0  0  0  0  0  0  0  0  0  0
   46.5990   32.5100   43.4060 H   0  0  0  0  0  0  0  0  0  0  0  0
   45.2040   32.8600   47.4970 C   0  0  0  0  0  0  0  0  0  0  0  0
   45.9890   32.6530   46.3650 C   0  0  0  0  0  0  0  0  0  0  0  0
   46.5100   31.3430   46.1890 C   0  0  0  0  0  0  0  0  0  0  0  0
   46.2140   30.4160   47.0970 N   0  0  0  0  0  0  0  0  0  0  0  0
   45.4460   30.6420   48.1890 C   0  0  0  0  0  0  0  0  0  0  0  0
   44.9440   31.8490   48.3960 N   0  0  0  0  0  0  0  0  0  0  0  0
   45.2290   29.5610   49.1170 N   0  0  0  0  0  0  0  0  0  0  0  0
   44.7900   33.8230   47.6930 H   0  0  0  0  0  0  0  0  0  0  0  0
   45.8890   29.4080   49.9280 H   0  0  0  0  0  0  0  0  0  0  0  0
   44.4070   28.9600   48.9420 H   0  0  0  0  0  0  0  0  0  0  0  0
   47.4490   30.8610   45.1570 C   0  0  0  0  0  3  0  0  0  0  0  0
   46.6900   29.8180   44.2340 C   0  0  0  0  0  2  0  0  0  0  0  0
   47.7790   29.2550   43.3830 C   0  0  0  0  0  2  0  0  0  0  0  0
   48.8730   29.0520   44.4060 C   0  0  0  0  0  2  0  0  0  0  0  0
   48.4650   29.8710   45.6150 C   0  0  0  0  0  2  0  0  0  0  0  0
   44.5590   35.1830   42.0500 C   0  0  0  0  0  0  0  0  0  0  0  0
   43.5480   34.3240   42.4200 F   0  0  0  0  0  0  0  0  0  0  0  0
   43.9480   36.3860   41.7030 F   0  0  0  0  0  0  0  0  0  0  0  0
   45.2610   34.7520   40.9410 F   0  0  0  0  0  0  0  0  0  0  0  0
  1  2  1  0  0  0  0
  1  7  1  1  0  0  0
  1 16  1  0  0  0  0
  2  8  1  0  0  0  0
  3  9  1  0  0  0  0
  3  2  2  0  0  0  0
  4 10  1  6  0  0  0
  4  3  1  0  0  0  0
  5  4  1  0  0  0  0
  5 11  1  0  0  0  0
  5  6  1  0  0  0  0
  6  1  1  0  0  0  0
 12  5  1  0  0  0  0
 13  6  1  0  0  0  0
 14  6  1  0  0  0  0
 15 22  1  0  0  0  0
 15 20  1  0  0  0  0
 16 15  2  0  0  0  0
 17 16  1  0  0  0  0
 17 18  2  0  0  0  0
 18 19  1  0  0  0  0
 19 20  2  0  0  0  0
 19 21  1  0  0  0  0
 21 23  1  0  0  0  0
 24 21  1  0  0  0  0
 25 29  1  0  0  0  0
 25 17  1  0  0  0  0
 26 25  1  0  0  0  0
 27 26  1  0  0  0  0
 27 28  1  0  0  0  0
 28 29  1  0  0  0  0
 30 31  1  0  0  0  0
 30  4  1  0  0  0  0
 32 30  1  0  0  0  0
 33 30  1  0  0  0  0
M  END
>  <minimizedAffinity>
-5.74640131

>  <minimizedRMSD>
0.255711347

$$$$
