
 OpenBabel03232519403D

 34 37  0  0  0  0  0  0  0  0999 V2000
   46.5540   34.4460   41.9540 N   0  0  0  0  0  0  0  0  0  0  0  0
   47.6880   35.2140   41.8500 C   0  0  0  0  0  0  0  0  0  0  0  0
   48.4340   35.2270   40.6980 C   0  0  0  0  0  0  0  0  0  0  0  0
   47.9940   34.4280   39.6280 C   0  0  0  0  0  0  0  0  0  0  0  0
   48.6490   34.4160   38.5640 O   0  0  0  0  0  0  0  0  0  0  0  0
   46.8760   33.7050   39.8070 N   0  0  0  0  0  0  0  0  0  0  0  0
   46.1700   33.7110   40.9380 C   0  0  0  0  0  0  0  0  0  0  0  0
   45.1460   33.0730   41.1520 O   0  0  0  0  0  0  0  0  0  0  0  0
   48.0860   35.8460   42.6170 H   0  0  0  0  0  0  0  0  0  0  0  0
   49.3330   35.8140   40.5680 H   0  0  0  0  0  0  0  0  0  0  0  0
   46.3850   32.8770   38.7550 C   0  0  0  0  0  0  0  0  0  0  0  0
   45.4290   33.2760   37.8340 C   0  0  0  0  0  0  0  0  0  0  0  0
   45.0090   32.4120   36.8480 C   0  0  0  0  0  0  0  0  0  0  0  0
   45.5380   31.1230   36.7590 C   0  0  0  0  0  0  0  0  0  0  0  0
   46.4850   30.7530   37.6850 C   0  0  0  0  0  0  0  0  0  0  0  0
   46.9420   31.5930   38.7030 C   0  0  0  0  0  0  0  0  0  0  0  0
   45.0310   34.2810   37.9200 H   0  0  0  0  0  0  0  0  0  0  0  0
   44.2750   32.7200   36.1410 H   0  0  0  0  0  0  0  0  0  0  0  0
   45.2110   30.4360   35.9820 H   0  0  0  0  0  0  0  0  0  0  0  0
   46.8690   29.7460   37.5820 H   0  0  0  0  0  0  0  0  0  0  0  0
   47.9690   31.1390   39.6770 C   0  0  0  0  0  0  0  0  0  0  0  0
   49.2870   30.8200   39.0270 C   0  0  0  0  0  0  0  0  0  0  0  0
   49.7540   29.5480   39.7130 C   0  0  0  0  0  0  0  0  0  0  0  0
   48.4400   28.8110   39.9220 C   0  0  0  0  0  0  0  0  0  0  0  0
   47.5660   29.9370   40.4690 C   0  0  0  0  0  0  0  0  0  0  0  0
   44.5290   35.8680   44.7160 C   0  0  0  0  0  0  0  0  0  0  0  0
   45.1220   35.7070   43.4340 C   0  0  0  0  0  0  0  0  0  0  0  0
   45.9570   34.6050   43.2520 C   0  0  0  0  0  0  0  0  0  0  0  0
   46.1780   33.7290   44.2810 N   0  0  0  0  0  0  0  0  0  0  0  0
   45.5880   33.9270   45.4880 C   0  0  0  0  0  0  0  0  0  0  0  0
   44.7740   34.9780   45.7100 N   0  0  0  0  0  0  0  0  0  0  0  0
   43.8840   36.7210   44.8580 H   0  0  0  0  0  0  0  0  0  0  0  0
   44.9040   36.4340   42.6690 H   0  0  0  0  0  0  0  0  0  0  0  0
   45.7960   33.2060   46.2680 H   0  0  0  0  0  0  0  0  0  0  0  0
  1 28  1  0  0  0  0
  2  1  1  0  0  0  0
  2  9  1  0  0  0  0
  3  2  2  0  0  0  0
  4  6  1  0  0  0  0
  4  3  1  0  0  0  0
  5  4  2  0  0  0  0
  6  7  1  0  0  0  0
  7  8  2  0  0  0  0
  7  1  1  0  0  0  0
 10  3  1  0  0  0  0
 11  6  1  0  0  0  0
 12 17  1  0  0  0  0
 12 11  2  0  0  0  0
 13 12  1  0  0  0  0
 14 13  2  0  0  0  0
 14 15  1  0  0  0  0
 15 16  2  0  0  0  0
 16 11  1  0  0  0  0
 16 21  1  0  0  0  0
 18 13  1  0  0  0  0
 19 14  1  0  0  0  0
 20 15  1  0  0  0  0
 21 25  1  0  0  0  0
 22 21  1  0  0  0  0
 22 23  1  0  0  0  0
 23 24  1  0  0  0  0
 24 25  1  0  0  0  0
 26 32  1  0  0  0  0
 26 31  1  0  0  0  0
 27 26  2  0  0  0  0
 28 27  1  0  0  0  0
 28 29  2  0  0  0  0
 29 30  1  0  0  0  0
 30 31  2  0  0  0  0
 30 34  1  0  0  0  0
 33 27  1  0  0  0  0
M  END
>  <minimizedAffinity>
-5.12031031

>  <minimizedRMSD>
1.03150678

$$$$
