
 OpenBabel03232513513D

 24 26  0  0  0  0  0  0  0  0999 V2000
   43.9880   34.9500   42.0740 C   0  0  0  0  0  0  0  0  0  0  0  0
   42.9300   34.1980   41.5040 C   0  0  0  0  0  0  0  0  0  0  0  0
   42.8670   32.8080   41.6760 C   0  0  0  0  0  0  0  0  0  0  0  0
   43.8640   32.2310   42.4050 N   0  0  0  0  0  0  0  0  0  0  0  0
   44.8740   32.9680   42.9460 C   0  0  0  0  0  0  0  0  0  0  0  0
   44.9280   34.3110   42.7770 N   0  0  0  0  0  0  0  0  0  0  0  0
   43.9890   36.0180   41.9130 H   0  0  0  0  0  0  0  0  0  0  0  0
   45.6500   32.4820   43.5190 H   0  0  0  0  0  0  0  0  0  0  0  0
   41.8050   31.9930   41.1180 C   0  0  0  0  0  0  0  0  0  0  0  0
   40.7480   31.8120   42.0180 C   0  0  0  0  0  0  0  0  0  0  0  0
   40.7160   32.2100   43.0210 H   0  0  0  0  0  0  0  0  0  0  0  0
   39.6240   31.0830   41.6800 C   0  0  0  0  0  0  0  0  0  0  0  0
   39.4880   30.5070   40.4570 C   0  0  0  0  0  0  0  0  0  0  0  0
   38.6730   29.9210   40.0730 H   0  0  0  0  0  0  0  0  0  0  0  0
   40.5390   30.6920   39.5730 C   0  0  0  0  0  0  0  0  0  0  0  0
   40.5460   30.2760   38.5560 H   0  0  0  0  0  0  0  0  0  0  0  0
   41.6760   31.4110   39.8740 C   0  0  0  0  0  0  0  0  0  0  0  0
   41.9670   34.9220   40.7290 N   0  0  0  0  0  0  0  0  0  0  0  0
   40.8460   35.5990   41.1540 C   0  0  0  0  0  0  0  0  0  0  0  0
   40.2410   36.1420   40.0760 N   0  0  0  0  0  0  0  0  0  0  0  0
   40.9920   35.7990   38.9840 C   0  0  0  0  0  0  0  0  0  0  0  0
   42.0530   35.0470   39.4020 N   0  0  0  0  0  0  0  0  0  0  0  0
   40.5820   35.6270   42.2040 H   0  0  0  0  0  0  0  0  0  0  0  0
   40.9140   35.9950   37.9230 H   0  0  0  0  0  0  0  0  0  0  0  0
  1  6  1  0  0  0  0
  2  3  1  0  0  0  0
  2  1  2  0  0  0  0
  3  4  2  0  0  0  0
  4  5  1  0  0  0  0
  5  8  1  0  0  0  0
  6  5  2  0  0  0  0
  7  1  1  0  0  0  0
  9  3  1  0  0  0  0
  9 10  1  0  0  0  0
 10 11  1  0  0  0  0
 12 10  2  0  0  0  0
 13 12  1  0  0  0  0
 14 13  1  0  0  0  0
 15 17  1  0  0  0  0
 15 13  2  0  0  0  0
 16 15  1  0  0  0  0
 17  9  2  0  0  0  0
 18 19  1  0  0  0  0
 18  2  1  0  0  0  0
 19 23  1  0  0  0  0
 20 19  2  0  0  0  0
 21 22  2  0  0  0  0
 21 20  1  0  0  0  0
 22 18  1  0  0  0  0
 24 21  1  0  0  0  0
M  END
>  <minimizedAffinity>
-3.80400157

>  <minimizedRMSD>
3.48644447

$$$$
