
 OpenBabel03232512473D

 36 38  0  0  1  0  0  0  0  0999 V2000
   46.5150   32.0040   41.6190 C   0  0  2  0  0  0  0  0  0  0  0  0
   46.9230   30.7300   41.4720 C   0  0  0  0  0  0  0  0  0  0  0  0
   45.7510   30.2830   40.6240 C   0  0  0  0  0  0  0  0  0  0  0  0
   45.1350   31.4550   39.9470 C   0  0  0  0  0  0  0  0  0  0  0  0
   45.8600   32.6950   40.5420 C   0  0  2  0  0  0  0  0  0  0  0  0
   45.5480   31.8100   42.2090 H   0  0  0  0  0  0  0  0  0  0  0  0
   46.9380   30.0750   42.4060 H   0  0  0  0  0  0  0  0  0  0  0  0
   47.8240   30.3630   40.9350 H   0  0  0  0  0  0  0  0  0  0  0  0
   46.0500   29.5290   39.8390 H   0  0  0  0  0  0  0  0  0  0  0  0
   45.0350   29.7170   41.2640 H   0  0  0  0  0  0  0  0  0  0  0  0
   44.0540   31.4490   40.2260 H   0  0  0  0  0  0  0  0  0  0  0  0
   45.1620   31.4800   38.8680 H   0  0  0  0  0  0  0  0  0  0  0  0
   44.9830   33.3610   40.7930 H   0  0  0  0  0  0  0  0  0  0  0  0
   46.6650   33.2320   39.4260 C   0  0  0  0  0  0  0  0  0  0  0  0
   46.6070   32.9980   38.0980 C   0  0  0  0  0  0  0  0  0  0  0  0
   45.8710   32.3040   37.7760 H   0  0  0  0  0  0  0  0  0  0  0  0
   47.4160   33.5810   37.1520 C   0  0  0  0  0  0  0  0  0  0  0  0
   48.3780   34.4780   37.5370 C   0  0  0  0  0  0  0  0  0  0  0  0
   49.0390   34.9620   36.8300 H   0  0  0  0  0  0  0  0  0  0  0  0
   48.4940   34.7630   38.8750 C   0  0  0  0  0  0  0  0  0  0  0  0
   49.2500   35.4690   39.1760 H   0  0  0  0  0  0  0  0  0  0  0  0
   47.6590   34.1550   39.7880 C   0  0  0  0  0  0  0  0  0  0  0  0
   47.4800   32.8770   42.1370 O   0  0  0  0  0  0  0  0  0  0  0  0
   47.0700   33.0820   43.3970 C   0  0  0  0  0  0  0  0  0  0  0  0
   47.4750   32.2430   44.2370 O   0  0  0  0  0  0  0  0  0  0  0  0
   45.1590   36.2720   43.3300 C   0  0  0  0  0  0  0  0  0  0  0  0
   46.0210   35.2180   42.9480 C   0  0  0  0  0  0  0  0  0  0  0  0
   46.2260   34.1640   43.8090 C   0  0  0  0  0  0  0  0  0  0  0  0
   45.5970   34.1890   44.9700 N   0  0  0  0  0  0  0  0  0  0  0  0
   44.7780   35.1820   45.3430 C   0  0  0  0  0  0  0  0  0  0  0  0
   44.5450   36.2270   44.5430 N   0  0  0  0  0  0  0  0  0  0  0  0
   44.1650   35.1000   46.5930 N   0  0  0  0  0  0  0  0  0  0  0  0
   44.8850   37.1730   42.7810 H   0  0  0  0  0  0  0  0  0  0  0  0
   46.3610   35.5080   41.9820 H   0  0  0  0  0  0  0  0  0  0  0  0
   43.1410   34.9760   46.4180 H   0  0  0  0  0  0  0  0  0  0  0  0
   44.8850   35.1840   47.3700 H   0  0  0  0  0  0  0  0  0  0  0  0
  1 23  1  0  0  0  0
  1  6  1  1  0  0  0
  2  1  1  0  0  0  0
  2  7  1  0  0  0  0
  3 10  1  0  0  0  0
  3  2  1  0  0  0  0
  4 11  1  0  0  0  0
  4  5  1  0  0  0  0
  4  3  1  0  0  0  0
  5 13  1  1  0  0  0
  5  1  1  0  0  0  0
  8  2  1  0  0  0  0
  9  3  1  0  0  0  0
 12  4  1  0  0  0  0
 14 22  1  0  0  0  0
 14  5  1  0  0  0  0
 15 14  2  0  0  0  0
 16 15  1  0  0  0  0
 17 18  2  0  0  0  0
 17 15  1  0  0  0  0
 18 20  1  0  0  0  0
 19 18  1  0  0  0  0
 20 21  1  0  0  0  0
 20 22  2  0  0  0  0
 23 24  1  0  0  0  0
 24 28  1  0  0  0  0
 24 25  2  0  0  0  0
 26 31  1  0  0  0  0
 27 26  2  0  0  0  0
 27 28  1  0  0  0  0
 28 29  2  0  0  0  0
 29 30  1  0  0  0  0
 30 32  1  0  0  0  0
 31 30  2  0  0  0  0
 32 36  1  0  0  0  0
 33 26  1  0  0  0  0
 34 27  1  0  0  0  0
 35 32  1  0  0  0  0
M  END
>  <minimizedAffinity>
-5.3355093

>  <minimizedRMSD>
3.05031943

$$$$
