
 OpenBabel03232520573D

 37 39  0  0  1  0  0  0  0  0999 V2000
   45.3070   32.9260   47.5140 C   0  0  0  0  0  0  0  0  0  0  0  0
   45.8630   32.6570   46.2980 C   0  0  0  0  0  0  0  0  0  0  0  0
   46.1530   31.3040   46.0650 C   0  0  0  0  0  0  0  0  0  0  0  0
   45.9020   30.3360   46.9630 N   0  0  0  0  0  0  0  0  0  0  0  0
   45.3390   30.6550   48.1820 C   0  0  0  0  0  0  0  0  0  0  0  0
   45.0570   31.9290   48.4250 N   0  0  0  0  0  0  0  0  0  0  0  0
   45.0930   29.6510   49.1590 N   0  0  0  0  0  0  0  0  0  0  0  0
   45.0550   33.9410   47.7790 H   0  0  0  0  0  0  0  0  0  0  0  0
   44.4230   29.8550   49.9130 H   0  0  0  0  0  0  0  0  0  0  0  0
   45.5900   28.7270   49.1020 H   0  0  0  0  0  0  0  0  0  0  0  0
   46.0870   33.6030   45.2550 C   0  0  2  0  0  0  0  0  0  0  0  0
   44.9750   34.7240   45.4830 C   0  0  0  0  0  0  0  0  0  0  0  0
   44.7380   35.6460   44.4020 C   0  0  0  0  0  0  0  0  0  0  0  0
   45.4790   35.5330   43.1670 C   0  0  1  0  0  0  0  0  0  0  0  0
   46.5380   34.4920   43.1070 C   0  0  0  0  0  0  0  0  0  0  0  0
   46.0290   33.2770   43.8710 C   0  0  0  0  0  0  0  0  0  0  0  0
   46.9410   34.2920   45.5370 H   0  0  0  0  0  0  0  0  0  0  0  0
   44.3100   34.9870   46.2900 H   0  0  0  0  0  0  0  0  0  0  0  0
   44.0020   36.4310   44.4820 H   0  0  0  0  0  0  0  0  0  0  0  0
   45.9380   36.5140   42.9180 H   0  0  0  0  0  0  0  0  0  0  0  0
   46.7890   34.2450   42.0790 H   0  0  0  0  0  0  0  0  0  0  0  0
   47.4360   34.8410   43.6590 H   0  0  0  0  0  0  0  0  0  0  0  0
   46.4150   32.4590   43.3360 H   0  0  0  0  0  0  0  0  0  0  0  0
   44.9020   33.2630   43.5820 H   0  0  0  0  0  0  0  0  0  0  0  0
   44.4560   35.2730   42.0320 C   0  0  0  0  0  0  0  0  0  0  0  0
   43.4020   34.4790   42.4340 F   0  0  0  0  0  0  0  0  0  0  0  0
   43.9180   36.5100   41.6960 F   0  0  0  0  0  0  0  0  0  0  0  0
   45.1120   34.8040   40.9050 F   0  0  0  0  0  0  0  0  0  0  0  0
   46.8000   30.6160   44.9560 C   0  0  0  0  0  0  0  0  0  0  0  0
   45.8760   29.9280   44.1910 C   0  0  0  0  0  0  0  0  0  0  0  0
   44.8140   29.8730   44.3450 H   0  0  0  0  0  0  0  0  0  0  0  0
   46.2900   29.1980   43.0740 C   0  0  0  0  0  3  0  0  0  0  0  0
   47.6520   29.2020   42.7820 C   0  0  0  0  0  0  0  0  0  0  0  0
   47.9920   28.6420   41.9210 H   0  0  0  0  0  0  0  0  0  0  0  0
   48.5410   29.8900   43.5550 C   0  0  0  0  0  0  0  0  0  0  0  0
   49.5990   29.9000   43.3400 H   0  0  0  0  0  0  0  0  0  0  0  0
   48.1490   30.6220   44.6700 C   0  0  0  0  0  3  0  0  0  0  0  0
  1  8  1  0  0  0  0
  1  6  1  0  0  0  0
  2  1  2  0  0  0  0
  3  2  1  0  0  0  0
  3  4  2  0  0  0  0
  4  5  1  0  0  0  0
  5  6  2  0  0  0  0
  5  7  1  0  0  0  0
  7  9  1  0  0  0  0
 10  7  1  0  0  0  0
 11 12  1  0  0  0  0
 11 17  1  1  0  0  0
 11  2  1  0  0  0  0
 12 18  1  0  0  0  0
 13 19  1  0  0  0  0
 13 12  2  0  0  0  0
 14 20  1  6  0  0  0
 14 13  1  0  0  0  0
 15 14  1  0  0  0  0
 15 22  1  0  0  0  0
 15 16  1  0  0  0  0
 16 11  1  0  0  0  0
 21 15  1  0  0  0  0
 23 16  1  0  0  0  0
 24 16  1  0  0  0  0
 25 26  1  0  0  0  0
 25 14  1  0  0  0  0
 27 25  1  0  0  0  0
 28 25  1  0  0  0  0
 29  3  1  0  0  0  0
 30 31  1  0  0  0  0
 30 29  2  0  0  0  0
 32 30  1  0  0  0  0
 33 32  2  0  0  0  0
 33 35  1  0  0  0  0
 34 33  1  0  0  0  0
 35 37  2  0  0  0  0
 36 35  1  0  0  0  0
 37 29  1  0  0  0  0
M  END
>  <minimizedAffinity>
-5.64973116

>  <minimizedRMSD>
0.318685859

$$$$
