
 OpenBabel03232515003D

 25 27  0  0  0  0  0  0  0  0999 V2000
   44.5070   35.8460   44.6800 C   0  0  0  0  0  0  0  0  0  0  0  0
   45.1710   35.7030   43.4560 C   0  0  0  0  0  0  0  0  0  0  0  0
   46.0860   34.6430   43.3380 C   0  0  0  0  0  0  0  0  0  0  0  0
   46.2910   33.8080   44.3880 N   0  0  0  0  0  0  0  0  0  0  0  0
   45.6130   33.9980   45.5580 C   0  0  0  0  0  0  0  0  0  0  0  0
   44.7410   34.9900   45.7060 N   0  0  0  0  0  0  0  0  0  0  0  0
   45.8120   33.1310   46.6790 N   0  0  0  0  0  0  0  0  0  0  0  0
   46.9680   32.4170   46.7090 C   0  0  0  0  0  0  0  0  0  0  0  0
   46.9240   31.6660   47.8770 C   0  0  0  0  0  0  0  0  0  0  0  0
   45.7860   31.9250   48.5180 N   0  0  0  0  0  0  0  0  0  0  0  0
   45.1000   32.8190   47.7930 C   0  0  0  0  0  0  0  0  0  0  0  0
   43.7990   36.6370   44.8270 H   0  0  0  0  0  0  0  0  0  0  0  0
   44.9850   36.3930   42.6260 H   0  0  0  0  0  0  0  0  0  0  0  0
   46.6230   34.4960   42.4050 H   0  0  0  0  0  0  0  0  0  0  0  0
   47.8030   32.3690   46.0260 H   0  0  0  0  0  0  0  0  0  0  0  0
   44.1450   33.3440   47.8670 H   0  0  0  0  0  0  0  0  0  0  0  0
   47.9430   30.7460   48.3380 C   0  0  0  0  0  0  0  0  0  0  0  0
   48.6420   31.0270   49.4950 C   0  0  0  0  0  0  0  0  0  0  0  0
   48.4050   31.9470   50.0400 H   0  0  0  0  0  0  0  0  0  0  0  0
   49.6350   30.2480   50.0540 C   0  0  0  0  0  0  0  0  0  0  0  0
   49.9270   29.0790   49.3490 C   0  0  0  0  0  0  0  0  0  0  0  0
   50.7080   28.4490   49.7730 H   0  0  0  0  0  0  0  0  0  0  0  0
   49.2550   28.7590   48.1930 C   0  0  0  0  0  0  0  0  0  0  0  0
   49.4960   27.8360   47.6500 H   0  0  0  0  0  0  0  0  0  0  0  0
   48.2630   29.5800   47.6740 C   0  0  0  0  0  0  0  0  0  0  0  0
  1 12  1  0  0  0  0
  1  6  1  0  0  0  0
  2  1  2  0  0  0  0
  3  2  1  0  0  0  0
  3  4  2  0  0  0  0
  4  5  1  0  0  0  0
  5  6  2  0  0  0  0
  5  7  1  0  0  0  0
  7  8  1  0  0  0  0
  7 11  1  0  0  0  0
  8  9  2  0  0  0  0
  9 17  1  0  0  0  0
  9 10  1  0  0  0  0
 11 16  1  0  0  0  0
 11 10  2  0  0  0  0
 13  2  1  0  0  0  0
 14  3  1  0  0  0  0
 15  8  1  0  0  0  0
 17 18  1  0  0  0  0
 18 19  1  0  0  0  0
 18 20  2  0  0  0  0
 21 22  1  0  0  0  0
 21 20  1  0  0  0  0
 23 21  2  0  0  0  0
 24 23  1  0  0  0  0
 25 23  1  0  0  0  0
 25 17  2  0  0  0  0
M  END
>  <minimizedAffinity>
-5.59845448

>  <minimizedRMSD>
0.661789

$$$$
