
 OpenBabel03232517393D

 25 27  0  0  0  0  0  0  0  0999 V2000
   45.3430   36.1500   43.2580 C   0  0  0  0  0  0  0  0  0  0  0  0
   46.0390   34.9290   43.1320 C   0  0  0  0  0  0  0  0  0  0  0  0
   46.0080   33.9550   44.1420 C   0  0  0  0  0  0  0  0  0  0  0  0
   45.2640   34.2580   45.2610 N   0  0  0  0  0  0  0  0  0  0  0  0
   44.6050   35.4330   45.3610 C   0  0  0  0  0  0  0  0  0  0  0  0
   44.6330   36.3750   44.3860 N   0  0  0  0  0  0  0  0  0  0  0  0
   45.3840   36.8770   42.4670 H   0  0  0  0  0  0  0  0  0  0  0  0
   44.0170   35.6740   46.2450 H   0  0  0  0  0  0  0  0  0  0  0  0
   46.6980   32.6960   44.0550 C   0  0  0  0  0  0  0  0  0  0  0  0
   47.9630   32.3600   43.6310 C   0  0  0  0  0  0  0  0  0  0  0  0
   48.5270   33.2070   43.2700 H   0  0  0  0  0  0  0  0  0  0  0  0
   48.4000   31.0610   43.6690 C   0  0  0  0  0  0  0  0  0  0  0  0
   47.6200   30.0210   44.1240 C   0  0  0  0  0  0  0  0  0  0  0  0
   48.0500   29.0280   44.1180 H   0  0  0  0  0  0  0  0  0  0  0  0
   46.3460   30.3350   44.5540 C   0  0  0  0  0  0  0  0  0  0  0  0
   45.7580   29.5040   44.9050 H   0  0  0  0  0  0  0  0  0  0  0  0
   45.8890   31.6550   44.5210 C   0  0  0  0  0  0  0  0  0  0  0  0
   46.7940   34.7740   41.9360 N   0  0  0  0  0  0  0  0  0  0  0  0
   47.9930   35.3180   41.8270 N   0  0  0  0  0  0  0  0  0  0  0  0
   48.4850   35.0210   40.5750 C   0  0  0  0  0  0  0  0  0  0  0  0
   47.4700   34.2560   39.9580 C   0  0  0  0  0  0  0  0  0  0  0  0
   46.3800   34.1000   40.8440 C   0  0  0  0  0  0  0  0  0  0  0  0
   49.4170   35.2950   40.1490 H   0  0  0  0  0  0  0  0  0  0  0  0
   47.4900   33.8350   38.9560 H   0  0  0  0  0  0  0  0  0  0  0  0
   45.4550   33.5810   40.6930 H   0  0  0  0  0  0  0  0  0  0  0  0
  1  6  1  0  0  0  0
  2  1  2  0  0  0  0
  2  3  1  0  0  0  0
  3  4  2  0  0  0  0
  4  5  1  0  0  0  0
  5  8  1  0  0  0  0
  6  5  2  0  0  0  0
  7  1  1  0  0  0  0
  9  3  1  0  0  0  0
  9 17  1  0  0  0  0
 10 12  1  0  0  0  0
 10  9  2  0  0  0  0
 11 10  1  0  0  0  0
 12 13  2  0  0  0  0
 13 15  1  0  0  0  0
 14 13  1  0  0  0  0
 15 16  1  0  0  0  0
 17 15  2  0  0  0  0
 18  2  1  0  0  0  0
 19 18  1  0  0  0  0
 20 19  2  0  0  0  0
 21 20  1  0  0  0  0
 21 22  2  0  0  0  0
 22 18  1  0  0  0  0
 23 20  1  0  0  0  0
 24 21  1  0  0  0  0
 25 22  1  0  0  0  0
M  END
>  <minimizedAffinity>
-4.66555071

>  <minimizedRMSD>
3.26634336

$$$$
