
 OpenBabel03232513393D

 28 30  0  0  0  0  0  0  0  0999 V2000
   46.6990   34.7500   42.0340 C   0  0  0  0  0  0  0  0  0  0  0  0
   47.9560   35.3280   41.9560 C   0  0  0  0  0  0  0  0  0  0  0  0
   48.7150   35.2300   40.7860 C   0  0  0  0  0  0  0  0  0  0  0  0
   48.2080   34.5490   39.6850 C   0  0  0  0  0  0  0  0  0  0  0  0
   46.9500   33.9730   39.7720 C   0  0  0  0  0  0  0  0  0  0  0  0
   46.2160   34.0830   40.9420 C   0  0  0  0  0  0  0  0  0  0  0  0
   48.4530   35.8870   42.7560 H   0  0  0  0  0  0  0  0  0  0  0  0
   49.6940   35.6690   40.6970 H   0  0  0  0  0  0  0  0  0  0  0  0
   48.7220   34.4210   38.7400 H   0  0  0  0  0  0  0  0  0  0  0  0
   45.2130   33.6620   41.1040 H   0  0  0  0  0  0  0  0  0  0  0  0
   44.4710   35.9690   44.8120 C   0  0  0  0  0  0  0  0  0  0  0  0
   45.1060   35.9370   43.5610 C   0  0  0  0  0  0  0  0  0  0  0  0
   45.9750   34.8970   43.2940 C   0  0  0  0  0  0  0  0  0  0  0  0
   46.1910   33.9380   44.2420 N   0  0  0  0  0  0  0  0  0  0  0  0
   45.5530   34.0060   45.4480 C   0  0  0  0  0  0  0  0  0  0  0  0
   44.7010   35.0110   45.7290 N   0  0  0  0  0  0  0  0  0  0  0  0
   43.8140   36.8260   44.9130 H   0  0  0  0  0  0  0  0  0  0  0  0
   44.9890   36.6490   42.7670 H   0  0  0  0  0  0  0  0  0  0  0  0
   45.7430   33.2240   46.1910 H   0  0  0  0  0  0  0  0  0  0  0  0
   46.2680   33.2270   38.7230 C   0  0  0  0  0  0  0  0  0  0  0  0
   45.1500   32.4250   38.9860 C   0  0  0  0  0  0  0  0  0  0  0  0
   44.7690   32.3510   40.0020 H   0  0  0  0  0  0  0  0  0  0  0  0
   44.5410   31.7370   37.9460 C   0  0  0  0  0  0  0  0  0  0  0  0
   45.0370   31.8400   36.6510 C   0  0  0  0  0  0  0  0  0  0  0  0
   44.5060   31.2690   35.8820 H   0  0  0  0  0  0  0  0  0  0  0  0
   46.1460   32.6340   36.3950 C   0  0  0  0  0  0  0  0  0  0  0  0
   46.4720   32.6620   35.3550 H   0  0  0  0  0  0  0  0  0  0  0  0
   46.7540   33.3230   37.4360 C   0  0  0  0  0  0  0  0  0  0  0  0
  1 13  1  0  0  0  0
  2  1  1  0  0  0  0
  2  7  1  0  0  0  0
  3  2  2  0  0  0  0
  4  5  2  0  0  0  0
  4  3  1  0  0  0  0
  5  6  1  0  0  0  0
  6 10  1  0  0  0  0
  6  1  2  0  0  0  0
  8  3  1  0  0  0  0
  9  4  1  0  0  0  0
 11 17  1  0  0  0  0
 11 16  1  0  0  0  0
 12 11  2  0  0  0  0
 13 12  1  0  0  0  0
 13 14  2  0  0  0  0
 14 15  1  0  0  0  0
 15 16  2  0  0  0  0
 15 19  1  0  0  0  0
 18 12  1  0  0  0  0
 20 21  1  0  0  0  0
 20  5  1  0  0  0  0
 21 22  1  0  0  0  0
 23 21  2  0  0  0  0
 24 23  1  0  0  0  0
 25 24  1  0  0  0  0
 26 24  2  0  0  0  0
 26 28  1  0  0  0  0
 27 26  1  0  0  0  0
 28 20  2  0  0  0  0
M  END
>  <minimizedAffinity>
-5.6732378

>  <minimizedRMSD>
0.251684248

$$$$
