
 OpenBabel03232520573D

 37 39  0  0  1  0  0  0  0  0999 V2000
   45.3940   32.8890   47.5800 C   0  0  0  0  0  0  0  0  0  0  0  0
   45.8750   32.6290   46.3300 C   0  0  0  0  0  0  0  0  0  0  0  0
   46.0740   31.2690   46.0430 C   0  0  0  0  0  0  0  0  0  0  0  0
   45.8110   30.2890   46.9240 N   0  0  0  0  0  0  0  0  0  0  0  0
   45.3260   30.5990   48.1780 C   0  0  0  0  0  0  0  0  0  0  0  0
   45.1310   31.8790   48.4730 N   0  0  0  0  0  0  0  0  0  0  0  0
   45.0690   29.5810   49.1370 N   0  0  0  0  0  0  0  0  0  0  0  0
   45.2150   33.9080   47.8860 H   0  0  0  0  0  0  0  0  0  0  0  0
   44.4490   29.7980   49.9290 H   0  0  0  0  0  0  0  0  0  0  0  0
   45.5080   28.6320   49.0280 H   0  0  0  0  0  0  0  0  0  0  0  0
   46.1030   33.5930   45.3050 C   0  0  2  0  0  0  0  0  0  0  0  0
   44.9630   34.6880   45.5220 C   0  0  0  0  0  0  0  0  0  0  0  0
   44.7320   35.6190   44.4480 C   0  0  0  0  0  0  0  0  0  0  0  0
   45.5040   35.5390   43.2290 C   0  0  1  0  0  0  0  0  0  0  0  0
   46.5850   34.5200   43.1810 C   0  0  0  0  0  0  0  0  0  0  0  0
   46.0850   33.2850   43.9160 C   0  0  0  0  0  0  0  0  0  0  0  0
   46.9360   34.2960   45.6160 H   0  0  0  0  0  0  0  0  0  0  0  0
   44.2740   34.9260   46.3170 H   0  0  0  0  0  0  0  0  0  0  0  0
   43.9780   36.3880   44.5220 H   0  0  0  0  0  0  0  0  0  0  0  0
   45.9470   36.5330   43.0050 H   0  0  0  0  0  0  0  0  0  0  0  0
   46.8660   34.2930   42.1550 H   0  0  0  0  0  0  0  0  0  0  0  0
   47.4630   34.8800   43.7580 H   0  0  0  0  0  0  0  0  0  0  0  0
   46.4990   32.4830   43.3790 H   0  0  0  0  0  0  0  0  0  0  0  0
   44.9650   33.2520   43.6010 H   0  0  0  0  0  0  0  0  0  0  0  0
   44.5130   35.2730   42.0670 C   0  0  0  0  0  0  0  0  0  0  0  0
   43.4540   34.4710   42.4410 F   0  0  0  0  0  0  0  0  0  0  0  0
   43.9750   36.5070   41.7200 F   0  0  0  0  0  0  0  0  0  0  0  0
   45.2020   34.8110   40.9570 F   0  0  0  0  0  0  0  0  0  0  0  0
   46.6270   30.5820   44.8840 C   0  0  0  0  0  0  0  0  0  0  0  0
   48.0060   30.5140   44.9570 C   0  0  0  0  0  0  0  0  0  0  0  0
   48.6370   30.8980   45.7380 H   0  0  0  0  0  0  0  0  0  0  0  0
   48.7350   29.8920   43.9400 C   0  0  0  0  0  3  0  0  0  0  0  0
   48.0130   29.3580   42.8760 C   0  0  0  0  0  0  0  0  0  0  0  0
   48.5610   28.8730   42.0800 H   0  0  0  0  0  0  0  0  0  0  0  0
   46.6520   29.4400   42.8310 C   0  0  0  0  0  0  0  0  0  0  0  0
   46.0800   29.0300   42.0110 H   0  0  0  0  0  0  0  0  0  0  0  0
   45.9090   30.0530   43.8310 C   0  0  0  0  0  3  0  0  0  0  0  0
  1  8  1  0  0  0  0
  1  6  1  0  0  0  0
  2  1  2  0  0  0  0
  3  2  1  0  0  0  0
  3  4  2  0  0  0  0
  4  5  1  0  0  0  0
  5  6  2  0  0  0  0
  5  7  1  0  0  0  0
  7  9  1  0  0  0  0
 10  7  1  0  0  0  0
 11 12  1  0  0  0  0
 11 17  1  1  0  0  0
 11  2  1  0  0  0  0
 12 18  1  0  0  0  0
 13 19  1  0  0  0  0
 13 12  2  0  0  0  0
 14 20  1  6  0  0  0
 14 13  1  0  0  0  0
 15 14  1  0  0  0  0
 15 22  1  0  0  0  0
 15 16  1  0  0  0  0
 16 11  1  0  0  0  0
 21 15  1  0  0  0  0
 23 16  1  0  0  0  0
 24 16  1  0  0  0  0
 25 26  1  0  0  0  0
 25 14  1  0  0  0  0
 27 25  1  0  0  0  0
 28 25  1  0  0  0  0
 29 30  1  0  0  0  0
 29  3  1  0  0  0  0
 30 31  1  0  0  0  0
 32 30  2  0  0  0  0
 33 32  1  0  0  0  0
 34 33  1  0  0  0  0
 35 33  2  0  0  0  0
 35 37  1  0  0  0  0
 36 35  1  0  0  0  0
 37 29  2  0  0  0  0
M  END
>  <minimizedAffinity>
-5.71289539

>  <minimizedRMSD>
0.65260154

$$$$
