REMARK  Name = 
REMARK  3 active torsions:
REMARK  status: ('A' for Active; 'I' for Inactive)
REMARK    1  A    between atoms: C_1  and  C_8
REMARK    2  A    between atoms: C_4  and  C_14
REMARK    3  A    between atoms: C_9  and  C_29
REMARK                            x       y       z     vdW  Elec       q    Type
REMARK                         _______ _______ _______ _____ _____    ______ ____
ROOT
ATOM      1  C   UNL     1      45.322  32.921  47.545  0.00  0.00    +0.000 A 
ATOM      2  C   UNL     1      45.921  32.682  46.343  0.00  0.00    +0.000 A 
ATOM      3  C   UNL     1      46.270  31.342  46.111  0.00  0.00    +0.000 A 
ATOM      4  N   UNL     1      46.033  30.360  46.997  0.00  0.00    +0.000 NA
ATOM      5  C   UNL     1      45.425  30.649  48.202  0.00  0.00    +0.000 A 
ATOM      6  N   UNL     1      45.087  31.910  48.444  0.00  0.00    +0.000 NA
ATOM      7  N   UNL     1      45.192  29.631  49.167  0.00  0.00    +0.000 N 
ATOM      8  H   UNL     1      45.024  33.924  47.808  0.00  0.00    +0.000 HD
ATOM      9  H   UNL     1      44.494  29.804  49.904  0.00  0.00    +0.000 HD
ATOM     10  H   UNL     1      45.726  28.727  49.119  0.00  0.00    +0.000 HD
ENDROOT
BRANCH   2  11
ATOM     11  C   UNL     1      46.136  33.642  45.311  0.00  0.00    +0.000 C 
ATOM     12  C   UNL     1      44.933  34.678  45.469  0.00  0.00    +0.000 C 
ATOM     13  C   UNL     1      44.693  35.580  44.372  0.00  0.00    +0.000 C 
ATOM     14  C   UNL     1      45.512  35.523  43.183  0.00  0.00    +0.000 C 
ATOM     15  C   UNL     1      46.646  34.562  43.190  0.00  0.00    +0.000 C 
ATOM     16  C   UNL     1      46.184  33.313  43.927  0.00  0.00    +0.000 C 
ATOM     17  H   UNL     1      46.919  34.392  45.640  0.00  0.00    +0.000 HD
ATOM     18  H   UNL     1      44.204  34.891  46.235  0.00  0.00    +0.000 HD
ATOM     19  H   UNL     1      43.898  36.309  44.406  0.00  0.00    +0.000 HD
ATOM     20  H   UNL     1      45.911  36.535  42.958  0.00  0.00    +0.000 HD
ATOM     21  H   UNL     1      46.975  34.335  42.179  0.00  0.00    +0.000 HD
ATOM     22  H   UNL     1      47.482  34.976  43.792  0.00  0.00    +0.000 HD
ATOM     23  H   UNL     1      46.659  32.526  43.419  0.00  0.00    +0.000 HD
ATOM     24  H   UNL     1      45.080  33.216  43.573  0.00  0.00    +0.000 HD
BRANCH  14  25
ATOM     25  C   UNL     1      44.579  35.188  41.991  0.00  0.00    +0.000 C 
ATOM     26  F   UNL     1      43.589  34.287  42.324  0.00  0.00    +0.000 F 
ATOM     27  F   UNL     1      43.940  36.374  41.648  0.00  0.00    +0.000 F 
ATOM     28  F   UNL     1      45.335  34.810  40.893  0.00  0.00    +0.000 F 
ENDBRANCH  14  25
ENDBRANCH   2  11
BRANCH   3  29
ATOM     29  C   UNL     1      46.973  30.687  45.017  0.00  0.00    +0.000 A 
ATOM     30  C   UNL     1      47.901  29.779  45.496  0.00  0.00    +0.000 A 
ATOM     31  H   UNL     1      48.116  29.548  46.523  0.00  0.00    +0.000 HD
ATOM     32  C   UNL     1      48.686  29.041  44.607  0.00  0.00    +0.000 A 
ATOM     33  C   UNL     1      48.488  29.264  43.247  0.00  0.00    +0.000 A 
ATOM     34  H   UNL     1      49.087  28.701  42.544  0.00  0.00    +0.000 HD
ATOM     35  C   UNL     1      47.565  30.166  42.803  0.00  0.00    +0.000 A 
ATOM     36  H   UNL     1      47.401  30.349  41.752  0.00  0.00    +0.000 HD
ATOM     37  C   UNL     1      46.775  30.910  43.670  0.00  0.00    +0.000 A 
ENDBRANCH   3  29
TORSDOF 3
