REMARK  Name = 
REMARK  4 active torsions:
REMARK  status: ('A' for Active; 'I' for Inactive)
REMARK    1  A    between atoms: C_1  and  C_18
REMARK    2  A    between atoms: C_6  and  N_7
REMARK    3  A    between atoms: C_9  and  C_10
REMARK    4  A    between atoms: C_20  and  C_33
REMARK                            x       y       z     vdW  Elec       q    Type
REMARK                         _______ _______ _______ _____ _____    ______ ____
ROOT
ATOM      1  C   UNL     1      46.410  34.666  42.183  0.00  0.00    +0.000 A 
ATOM      2  C   UNL     1      47.719  35.019  42.032  0.00  0.00    +0.000 A 
ATOM      3  C   UNL     1      48.425  34.829  40.850  0.00  0.00    +0.000 A 
ATOM      4  C   UNL     1      47.766  34.244  39.753  0.00  0.00    +0.000 A 
ATOM      5  C   UNL     1      46.449  33.884  39.889  0.00  0.00    +0.000 A 
ATOM      6  C   UNL     1      45.795  34.100  41.099  0.00  0.00    +0.000 A 
ATOM      7  H   UNL     1      48.317  35.477  42.819  0.00  0.00    +0.000 HD
ATOM      8  H   UNL     1      49.463  35.112  40.740  0.00  0.00    +0.000 HD
ATOM      9  H   UNL     1      48.245  34.063  38.801  0.00  0.00    +0.000 HD
ATOM     10  H   UNL     1      45.920  33.434  39.062  0.00  0.00    +0.000 HD
ENDROOT
BRANCH   6  11
ATOM     11  N   UNL     1      44.432  33.715  41.203  0.00  0.00    +0.000 N 
ATOM     12  C   UNL     1      43.609  34.673  40.668  0.00  0.00    +0.000 A 
ATOM     13  C   UNL     1      42.227  34.506  40.662  0.00  0.00    +0.000 A 
ATOM     14  C   UNL     1      41.725  33.339  41.215  0.00  0.00    +0.000 A 
ATOM     15  O   UNL     1      40.484  33.125  41.241  0.00  0.00    +0.000 OA
ATOM     16  N   UNL     1      42.565  32.431  41.726  0.00  0.00    +0.000 N 
ATOM     17  C   UNL     1      43.896  32.603  41.727  0.00  0.00    +0.000 A 
ATOM     18  O   UNL     1      44.749  31.811  42.181  0.00  0.00    +0.000 OA
ATOM     19  H   UNL     1      43.929  35.596  40.226  0.00  0.00    +0.000 HD
ATOM     20  H   UNL     1      42.236  31.524  42.160  0.00  0.00    +0.000 HD
BRANCH  13  21
ATOM     21  C   UNL     1      41.308  35.526  40.089  0.00  0.00    +0.000 C 
ATOM     22  H   UNL     1      41.761  36.149  39.318  0.00  0.00    +0.000 HD
ATOM     23  H   UNL     1      40.389  35.019  39.744  0.00  0.00    +0.000 HD
ATOM     24  H   UNL     1      41.061  36.213  40.948  0.00  0.00    +0.000 HD
ENDBRANCH  13  21
ENDBRANCH   6  11
BRANCH   1  27
ATOM     25  C   UNL     1      44.423  36.141  45.010  0.00  0.00    +0.000 A 
ATOM     26  C   UNL     1      44.991  36.022  43.741  0.00  0.00    +0.000 A 
ATOM     27  C   UNL     1      45.768  34.908  43.454  0.00  0.00    +0.000 A 
ATOM     28  N   UNL     1      45.931  33.997  44.426  0.00  0.00    +0.000 NA
ATOM     29  C   UNL     1      45.369  34.133  45.653  0.00  0.00    +0.000 A 
ATOM     30  N   UNL     1      44.620  35.202  45.936  0.00  0.00    +0.000 NA
ATOM     31  H   UNL     1      43.830  37.035  45.163  0.00  0.00    +0.000 HD
ATOM     32  H   UNL     1      44.898  36.718  42.918  0.00  0.00    +0.000 HD
BRANCH  29  33
ATOM     33  C   UNL     1      45.612  33.080  46.638  0.00  0.00    +0.000 A 
ATOM     34  C   UNL     1      44.757  31.999  46.727  0.00  0.00    +0.000 A 
ATOM     35  H   UNL     1      43.894  31.896  46.083  0.00  0.00    +0.000 HD
ATOM     36  C   UNL     1      44.985  31.002  47.658  0.00  0.00    +0.000 A 
ATOM     37  C   UNL     1      46.095  31.169  48.460  0.00  0.00    +0.000 A 
ATOM     38  H   UNL     1      46.282  30.397  49.190  0.00  0.00    +0.000 HD
ATOM     39  C   UNL     1      46.997  32.223  48.430  0.00  0.00    +0.000 A 
ATOM     40  H   UNL     1      47.829  32.242  49.111  0.00  0.00    +0.000 HD
ATOM     41  C   UNL     1      46.712  33.198  47.469  0.00  0.00    +0.000 A 
ENDBRANCH  29  33
ENDBRANCH   1  27
TORSDOF 4
