
 OpenBabel03232515113D

 37 40  0  0  0  0  0  0  0  0999 V2000
   48.0730   30.8240   48.4560 C   0  0  0  0  0  0  0  0  0  0  0  0
   48.8580   31.2760   49.4940 C   0  0  0  0  0  0  0  0  0  0  0  0
   49.8530   30.4970   50.0290 C   0  0  0  0  0  0  0  0  0  0  0  0
   50.0480   29.2280   49.4890 C   0  0  0  0  0  0  0  0  0  0  0  0
   49.2660   28.7770   48.4540 C   0  0  0  0  0  0  0  0  0  0  0  0
   48.2620   29.5840   47.9270 C   0  0  0  0  0  0  0  0  0  0  0  0
   48.7280   32.2530   49.9300 H   0  0  0  0  0  0  0  0  0  0  0  0
   50.4830   30.8330   50.8480 H   0  0  0  0  0  0  0  0  0  0  0  0
   50.8410   28.6390   49.9330 H   0  0  0  0  0  0  0  0  0  0  0  0
   44.5290   35.7330   44.6440 C   0  0  0  0  0  0  0  0  0  0  0  0
   45.2510   35.6000   43.4510 C   0  0  0  0  0  0  0  0  0  0  0  0
   46.2230   34.5990   43.3540 C   0  0  0  0  0  0  0  0  0  0  0  0
   46.4180   33.7980   44.4340 N   0  0  0  0  0  0  0  0  0  0  0  0
   45.6890   33.9610   45.5870 C   0  0  0  0  0  0  0  0  0  0  0  0
   44.7620   34.9090   45.6920 N   0  0  0  0  0  0  0  0  0  0  0  0
   45.9050   33.1170   46.7060 N   0  0  0  0  0  0  0  0  0  0  0  0
   47.0750   32.4540   46.7700 C   0  0  0  0  0  0  0  0  0  0  0  0
   47.0320   31.7130   47.9400 C   0  0  0  0  0  0  0  0  0  0  0  0
   45.8530   31.9330   48.5660 N   0  0  0  0  0  0  0  0  0  0  0  0
   45.1710   32.7870   47.8120 C   0  0  0  0  0  0  0  0  0  0  0  0
   43.7630   36.4860   44.7890 H   0  0  0  0  0  0  0  0  0  0  0  0
   45.0050   36.2960   42.6630 H   0  0  0  0  0  0  0  0  0  0  0  0
   46.7650   34.5080   42.4390 H   0  0  0  0  0  0  0  0  0  0  0  0
   47.9460   32.4260   46.1010 H   0  0  0  0  0  0  0  0  0  0  0  0
   44.1760   33.2330   47.9380 H   0  0  0  0  0  0  0  0  0  0  0  0
   49.5410   27.4350   47.9510 C   0  0  0  0  0  0  0  0  0  0  0  0
   50.3760   27.2110   46.8620 C   0  0  0  0  0  0  0  0  0  0  0  0
   50.8480   28.0430   46.3550 H   0  0  0  0  0  0  0  0  0  0  0  0
   50.5870   25.9080   46.4430 C   0  0  0  0  0  0  0  0  0  0  0  0
   49.9570   24.8740   47.1280 C   0  0  0  0  0  0  0  0  0  0  0  0
   50.1000   23.8310   46.8270 H   0  0  0  0  0  0  0  0  0  0  0  0
   49.1250   25.0670   48.2080 C   0  0  0  0  0  0  0  0  0  0  0  0
   48.6450   24.2470   48.7270 H   0  0  0  0  0  0  0  0  0  0  0  0
   48.9240   26.3890   48.6160 C   0  0  0  0  0  0  0  0  0  0  0  0
   47.4800   29.0900   46.8670 N   0  0  0  0  0  0  0  0  0  0  0  0
   47.5400   29.7720   46.0700 H   0  0  0  0  0  0  0  0  0  0  0  0
   46.9140   28.1910   46.8420 H   0  0  0  0  0  0  0  0  0  0  0  0
  1  2  1  0  0  0  0
  2  7  1  0  0  0  0
  2  3  2  0  0  0  0
  3  8  1  0  0  0  0
  4  9  1  0  0  0  0
  4  3  1  0  0  0  0
  5  4  2  0  0  0  0
  6  5  1  0  0  0  0
  6  1  2  0  0  0  0
 10 21  1  0  0  0  0
 10 15  1  0  0  0  0
 11 10  2  0  0  0  0
 12 11  1  0  0  0  0
 12 13  2  0  0  0  0
 13 14  1  0  0  0  0
 14 15  2  0  0  0  0
 14 16  1  0  0  0  0
 16 17  1  0  0  0  0
 16 20  1  0  0  0  0
 17 18  2  0  0  0  0
 18  1  1  0  0  0  0
 18 19  1  0  0  0  0
 20 25  1  0  0  0  0
 20 19  2  0  0  0  0
 22 11  1  0  0  0  0
 23 12  1  0  0  0  0
 24 17  1  0  0  0  0
 26  5  1  0  0  0  0
 26 34  1  0  0  0  0
 27 26  2  0  0  0  0
 28 27  1  0  0  0  0
 29 27  1  0  0  0  0
 29 30  2  0  0  0  0
 30 32  1  0  0  0  0
 31 30  1  0  0  0  0
 32 34  2  0  0  0  0
 32 33  1  0  0  0  0
 35  6  1  0  0  0  0
 36 35  1  0  0  0  0
 37 35  1  0  0  0  0
M  END
>  <minimizedAffinity>
-5.79493904

>  <minimizedRMSD>
0.503587067

$$$$
