
 OpenBabel03232519463D

 48 51  0  0  0  0  0  0  0  0999 V2000
   46.8700   33.9740   42.1470 N   0  0  0  0  0  0  0  0  0  0  0  0
   47.8540   34.9360   42.0110 C   0  0  0  0  0  0  0  0  0  0  0  0
   48.4200   35.2130   40.7910 C   0  0  0  0  0  0  0  0  0  0  0  0
   47.9670   34.4830   39.6880 C   0  0  0  0  0  0  0  0  0  0  0  0
   48.4630   34.7200   38.5760 O   0  0  0  0  0  0  0  0  0  0  0  0
   47.0100   33.5600   39.8850 N   0  0  0  0  0  0  0  0  0  0  0  0
   46.4750   33.3140   41.0890 C   0  0  0  0  0  0  0  0  0  0  0  0
   45.6080   32.5020   41.3290 O   0  0  0  0  0  0  0  0  0  0  0  0
   48.2500   35.5350   42.8210 H   0  0  0  0  0  0  0  0  0  0  0  0
   49.1890   35.9590   40.6540 H   0  0  0  0  0  0  0  0  0  0  0  0
   46.5240   32.7910   38.8070 C   0  0  0  0  0  0  0  0  0  0  0  0
   45.4580   33.1540   38.0160 C   0  0  0  0  0  0  0  0  0  0  0  0
   45.0360   32.3590   36.9820 C   0  0  0  0  0  0  0  0  0  0  0  0
   45.6770   31.1710   36.7090 C   0  0  0  0  0  0  0  0  0  0  0  0
   46.7260   30.8320   37.4990 C   0  0  0  0  0  0  0  0  0  0  0  0
   47.2080   31.5960   38.5720 C   0  0  0  0  0  0  0  0  0  0  0  0
   44.9630   34.0980   38.2480 H   0  0  0  0  0  0  0  0  0  0  0  0
   44.1970   32.6590   36.3710 H   0  0  0  0  0  0  0  0  0  0  0  0
   45.3280   30.5700   35.8950 H   0  0  0  0  0  0  0  0  0  0  0  0
   47.2080   29.8760   37.2470 H   0  0  0  0  0  0  0  0  0  0  0  0
   48.3670   31.1340   39.3730 C   0  0  0  0  0  0  0  0  0  0  0  0
   48.6390   30.1370   38.8960 H   0  0  0  0  0  0  0  0  0  0  0  0
   49.5660   32.0140   39.3300 C   0  0  0  0  0  0  0  0  0  0  0  0
   49.8750   32.5100   40.2630 H   0  0  0  0  0  0  0  0  0  0  0  0
   50.4250   31.2280   39.4060 H   0  0  0  0  0  0  0  0  0  0  0  0
   49.8750   32.4100   38.3740 H   0  0  0  0  0  0  0  0  0  0  0  0
   48.0470   30.8940   40.8140 C   0  0  0  0  0  0  0  0  0  0  0  0
   47.1160   30.4160   41.0520 H   0  0  0  0  0  0  0  0  0  0  0  0
   48.5290   31.5720   41.5420 H   0  0  0  0  0  0  0  0  0  0  0  0
   48.7390   29.9960   41.0720 H   0  0  0  0  0  0  0  0  0  0  0  0
   44.9820   34.5900   45.2620 C   0  0  0  0  0  0  0  0  0  0  0  0
   45.3950   34.6820   43.9120 C   0  0  0  0  0  0  0  0  0  0  0  0
   46.4530   33.8770   43.5110 C   0  0  0  0  0  0  0  0  0  0  0  0
   47.0490   33.0390   44.4070 N   0  0  0  0  0  0  0  0  0  0  0  0
   46.6180   32.9850   45.6970 C   0  0  0  0  0  0  0  0  0  0  0  0
   45.6080   33.7410   46.1190 N   0  0  0  0  0  0  0  0  0  0  0  0
   44.1490   35.2350   45.5460 H   0  0  0  0  0  0  0  0  0  0  0  0
   44.8920   35.3600   43.2390 H   0  0  0  0  0  0  0  0  0  0  0  0
   48.5500   30.3900   48.4280 C   0  0  0  0  0  0  0  0  0  0  0  0
   48.3080   29.9540   47.1420 C   0  0  0  0  0  0  0  0  0  0  0  0
   47.6690   30.8070   46.2350 C   0  0  0  0  0  0  0  0  0  0  0  0
   47.2860   32.0740   46.6240 C   0  0  0  0  0  0  0  0  0  0  0  0
   47.5460   32.4820   47.9300 C   0  0  0  0  0  0  0  0  0  0  0  0
   48.1740   31.6540   48.8370 C   0  0  0  0  0  0  0  0  0  0  0  0
   48.5060   28.3140   49.9720 H   0  0  0  0  0  0  0  0  0  0  0  0
   49.3490   29.3120   49.5490 S   0  0  0  0  0  0  0  0  0  0  0  0
   49.7880   30.0400   50.7850 O   0  0  0  0  0  0  0  0  0  0  0  0
   50.5280   28.6100   48.9000 O   0  0  0  0  0  0  0  0  0  0  0  0
  1 33  1  0  0  0  0
  2  1  1  0  0  0  0
  2  9  1  0  0  0  0
  3  2  2  0  0  0  0
  4  6  1  0  0  0  0
  4  3  1  0  0  0  0
  5  4  2  0  0  0  0
  6  7  1  0  0  0  0
  7  8  2  0  0  0  0
  7  1  1  0  0  0  0
 10  3  1  0  0  0  0
 11  6  1  0  0  0  0
 12 17  1  0  0  0  0
 12 11  2  0  0  0  0
 13 12  1  0  0  0  0
 14 13  2  0  0  0  0
 14 15  1  0  0  0  0
 15 16  2  0  0  0  0
 16 11  1  0  0  0  0
 16 21  1  0  0  0  0
 18 13  1  0  0  0  0
 19 14  1  0  0  0  0
 20 15  1  0  0  0  0
 21 27  1  0  0  0  0
 22 21  1  0  0  0  0
 23 21  1  0  0  0  0
 23 25  1  0  0  0  0
 23 24  1  0  0  0  0
 26 23  1  0  0  0  0
 27 28  1  0  0  0  0
 27 30  1  0  0  0  0
 27 29  1  0  0  0  0
 31 37  1  0  0  0  0
 31 36  1  0  0  0  0
 32 31  2  0  0  0  0
 33 32  1  0  0  0  0
 33 34  2  0  0  0  0
 34 35  1  0  0  0  0
 35 36  2  0  0  0  0
 35 42  1  0  0  0  0
 38 32  1  0  0  0  0
 39 44  1  0  0  0  0
 39 46  1  0  0  0  0
 40 39  2  0  0  0  0
 41 42  2  0  0  0  0
 41 40  1  0  0  0  0
 42 43  1  0  0  0  0
 43 44  2  0  0  0  0
 46 45  1  0  0  0  0
 46 47  2  0  0  0  0
 48 46  2  0  0  0  0
M  END
>  <minimizedAffinity>
-5.90758991

>  <minimizedRMSD>
1.44662273

$$$$
