REMARK  Name = 
REMARK  5 active torsions:
REMARK  status: ('A' for Active; 'I' for Inactive)
REMARK    1  A    between atoms: C_1  and  C_18
REMARK    2  A    between atoms: C_6  and  N_7
REMARK    3  A    between atoms: C_9  and  C_10
REMARK    4  A    between atoms: C_20  and  C_40
REMARK    5  A    between atoms: S_34  and  C_37
REMARK                            x       y       z     vdW  Elec       q    Type
REMARK                         _______ _______ _______ _____ _____    ______ ____
ROOT
ATOM      1  C   UNL     1      46.416  34.663  42.179  0.00  0.00    +0.000 A 
ATOM      2  C   UNL     1      47.720  35.017  42.036  0.00  0.00    +0.000 A 
ATOM      3  C   UNL     1      48.425  34.827  40.851  0.00  0.00    +0.000 A 
ATOM      4  C   UNL     1      47.768  34.248  39.757  0.00  0.00    +0.000 A 
ATOM      5  C   UNL     1      46.453  33.888  39.892  0.00  0.00    +0.000 A 
ATOM      6  C   UNL     1      45.792  34.099  41.098  0.00  0.00    +0.000 A 
ATOM      7  H   UNL     1      48.289  35.471  42.845  0.00  0.00    +0.000 HD
ATOM      8  H   UNL     1      49.462  35.115  40.759  0.00  0.00    +0.000 HD
ATOM      9  H   UNL     1      48.305  34.091  38.818  0.00  0.00    +0.000 HD
ATOM     10  H   UNL     1      45.954  33.439  39.033  0.00  0.00    +0.000 HD
ENDROOT
BRANCH   6  11
ATOM     11  N   UNL     1      44.430  33.715  41.202  0.00  0.00    +0.000 N 
ATOM     12  C   UNL     1      43.615  34.678  40.666  0.00  0.00    +0.000 A 
ATOM     13  C   UNL     1      42.226  34.508  40.662  0.00  0.00    +0.000 A 
ATOM     14  C   UNL     1      41.722  33.337  41.216  0.00  0.00    +0.000 A 
ATOM     15  O   UNL     1      40.483  33.124  41.243  0.00  0.00    +0.000 OA
ATOM     16  N   UNL     1      42.567  32.428  41.727  0.00  0.00    +0.000 N 
ATOM     17  C   UNL     1      43.892  32.606  41.724  0.00  0.00    +0.000 A 
ATOM     18  O   UNL     1      44.746  31.812  42.177  0.00  0.00    +0.000 OA
ATOM     19  H   UNL     1      43.924  35.596  40.226  0.00  0.00    +0.000 HD
ATOM     20  H   UNL     1      42.234  31.540  42.151  0.00  0.00    +0.000 HD
BRANCH  13  21
ATOM     21  C   UNL     1      41.301  35.522  40.093  0.00  0.00    +0.000 C 
ATOM     22  H   UNL     1      41.769  36.524  40.197  0.00  0.00    +0.000 HD
ATOM     23  H   UNL     1      41.024  35.342  39.046  0.00  0.00    +0.000 HD
ATOM     24  H   UNL     1      40.415  35.565  40.789  0.00  0.00    +0.000 HD
ENDBRANCH  13  21
ENDBRANCH   6  11
BRANCH   1  27
ATOM     25  C   UNL     1      44.421  36.143  45.008  0.00  0.00    +0.000 A 
ATOM     26  C   UNL     1      44.990  36.020  43.742  0.00  0.00    +0.000 A 
ATOM     27  C   UNL     1      45.771  34.904  43.456  0.00  0.00    +0.000 A 
ATOM     28  N   UNL     1      45.934  33.994  44.431  0.00  0.00    +0.000 NA
ATOM     29  C   UNL     1      45.370  34.138  45.650  0.00  0.00    +0.000 A 
ATOM     30  N   UNL     1      44.620  35.206  45.931  0.00  0.00    +0.000 NA
ATOM     31  H   UNL     1      43.828  37.004  45.206  0.00  0.00    +0.000 HD
ATOM     32  H   UNL     1      44.877  36.730  42.947  0.00  0.00    +0.000 HD
BRANCH  29  36
ATOM     33  C   UNL     1      45.940  31.096  48.536  0.00  0.00    +0.000 A 
ATOM     34  C   UNL     1      45.084  30.892  47.485  0.00  0.00    +0.000 A 
ATOM     35  C   UNL     1      44.929  31.903  46.574  0.00  0.00    +0.000 A 
ATOM     36  C   UNL     1      45.589  33.109  46.663  0.00  0.00    +0.000 A 
ATOM     37  C   UNL     1      46.450  33.319  47.716  0.00  0.00    +0.000 A 
ATOM     38  C   UNL     1      46.616  32.303  48.646  0.00  0.00    +0.000 A 
BRANCH  33  40
ATOM     39  H   UNL     1      46.624  28.707  48.960  0.00  0.00    +0.000 HD
ATOM     40  S   UNL     1      46.109  29.781  49.678  0.00  0.00    +0.000 S 
ATOM     41  O   UNL     1      46.956  30.151  50.843  0.00  0.00    +0.000 OA
ATOM     42  O   UNL     1      44.741  29.294  50.132  0.00  0.00    +0.000 OA
ENDBRANCH  33  40
ENDBRANCH  29  36
ENDBRANCH   1  27
TORSDOF 5
