
     RDKit          3D

 46 49  0  0  0  0  0  0  0  0999 V2000
   46.4156   34.6633   42.1788 C   0  0  0  0  0  0  0  0  0  0  0  0
   47.7204   35.0167   42.0357 C   0  0  0  0  0  0  0  0  0  0  0  0
   48.4246   34.8265   40.8509 C   0  0  0  0  0  0  0  0  0  0  0  0
   47.7682   34.2476   39.7565 C   0  0  0  0  0  0  0  0  0  0  0  0
   46.4532   33.8884   39.8918 C   0  0  0  0  0  0  0  0  0  0  0  0
   45.7918   34.0990   41.0977 C   0  0  0  0  0  0  0  0  0  0  0  0
   44.4296   33.7146   41.2022 N   0  0  0  0  0  0  0  0  0  0  0  0
   43.6153   34.6778   40.6663 C   0  0  0  0  0  0  0  0  0  0  0  0
   42.2264   34.5080   40.6616 C   0  0  0  0  0  0  0  0  0  0  0  0
   41.3014   35.5221   40.0933 C   0  0  0  0  0  0  0  0  0  0  0  0
   41.7221   33.3369   41.2164 C   0  0  0  0  0  0  0  0  0  0  0  0
   40.4826   33.1241   41.2429 O   0  0  0  0  0  0  0  0  0  0  0  0
   42.5668   32.4276   41.7272 N   0  0  0  0  0  0  0  0  0  0  0  0
   43.8923   32.6060   41.7235 C   0  0  0  0  0  0  0  0  0  0  0  0
   44.7459   31.8119   42.1771 O   0  0  0  0  0  0  0  0  0  0  0  0
   44.4209   36.1427   45.0078 C   0  0  0  0  0  0  0  0  0  0  0  0
   44.9904   36.0198   43.7424 C   0  0  0  0  0  0  0  0  0  0  0  0
   45.7706   34.9042   43.4565 C   0  0  0  0  0  0  0  0  0  0  0  0
   45.9340   33.9938   44.4308 N   0  0  0  0  0  0  0  0  0  0  0  0
   45.3701   34.1376   45.6503 C   0  0  0  0  0  0  0  0  0  0  0  0
   44.6199   35.2062   45.9312 N   0  0  0  0  0  0  0  0  0  0  0  0
   48.2890   35.4705   42.8451 H   0  0  0  0  0  0  0  0  0  0  0  0
   49.4620   35.1149   40.7586 H   0  0  0  0  0  0  0  0  0  0  0  0
   48.3051   34.0907   38.8184 H   0  0  0  0  0  0  0  0  0  0  0  0
   45.9540   33.4391   39.0330 H   0  0  0  0  0  0  0  0  0  0  0  0
   43.9243   35.5962   40.2257 H   0  0  0  0  0  0  0  0  0  0  0  0
   41.7685   36.5237   40.1966 H   0  0  0  0  0  0  0  0  0  0  0  0
   41.0241   35.3421   39.0463 H   0  0  0  0  0  0  0  0  0  0  0  0
   40.4151   35.5651   40.7890 H   0  0  0  0  0  0  0  0  0  0  0  0
   42.2340   31.5399   42.1509 H   0  0  0  0  0  0  0  0  0  0  0  0
   43.8277   37.0038   45.2056 H   0  0  0  0  0  0  0  0  0  0  0  0
   44.8766   36.7303   42.9466 H   0  0  0  0  0  0  0  0  0  0  0  0
   46.3924   30.7399   51.0757 H   0  0  0  0  0  0  0  0  0  0  0  0
   46.4665   30.0482   49.8722 S   0  0  0  0  0  0  0  0  0  0  0  0
   45.5687   28.8624   49.8345 O   0  0  0  0  0  0  0  0  0  0  0  0
   47.9263   29.6276   49.7819 O   0  0  0  0  0  0  0  0  0  0  0  0
   46.0878   31.2066   48.6169 C   0  0  0  0  0  0  0  0  0  0  0  0
   46.9322   32.2796   48.4945 C   0  0  0  0  0  0  0  0  0  0  0  0
   46.6632   33.2044   47.5213 C   0  0  0  0  0  0  0  0  0  0  0  0
   45.5892   33.1092   46.6628 C   0  0  0  0  0  0  0  0  0  0  0  0
   44.7378   32.0339   46.7810 C   0  0  0  0  0  0  0  0  0  0  0  0
   44.9996   31.0895   47.7634 C   0  0  0  0  0  0  0  0  0  0  0  0
   47.7863   32.4258   49.1211 H   0  0  0  0  0  0  0  0  0  0  0  0
   47.3165   34.0614   47.4053 H   0  0  0  0  0  0  0  0  0  0  0  0
   43.8786   31.9046   46.1365 H   0  0  0  0  0  0  0  0  0  0  0  0
   44.3811   30.2082   47.9294 H   0  0  0  0  0  0  0  0  0  0  0  0
  1 18  1  0
  2  1  2  0
  3  2  1  0
  4  5  1  0
  4  3  2  0
  5  6  2  0
  6  7  1  0
  6  1  1  0
  7 14  1  0
  8  7  1  0
  9  8  2  0
  9 11  1  0
 10  9  1  0
 11 12  2  0
 11 13  1  0
 14 13  1  0
 14 15  2  0
 16 21  2  0
 17 16  1  0
 18 17  2  0
 18 19  1  0
 19 20  2  0
 20 21  1  0
  2 22  1  0
  3 23  1  0
  4 24  1  0
  5 25  1  0
  8 26  1  0
 10 27  1  0
 10 28  1  0
 10 29  1  0
 13 30  1  0
 16 31  1  0
 17 32  1  0
 33 34  1  0
 34 35  2  0
 34 36  2  0
 34 37  1  0
 37 38  2  0
 38 39  1  0
 39 40  2  0
 40 41  1  0
 41 42  2  0
 42 37  1  0
 38 43  1  0
 39 44  1  0
 41 45  1  0
 42 46  1  0
 20 40  1  0
M  ISO  8  22  14  23  14  24  14  25  14  26  14  27   8  28   8  29   8
M  ISO  4  30   9  31  14  32  14  33  12
M  END
>  <DihAtoms>  (1) 
18,19,39,38

>  <DihDeg>  (1) 
179.997282951593

$$$$
