
 OpenBabel03232514373D

 33 35  0  0  1  0  0  0  0  0999 V2000
   45.2450   32.8530   47.4950 C   0  0  0  0  0  0  0  0  0  0  0  0
   45.8080   32.5920   46.2420 C   0  0  0  0  0  0  0  0  0  0  0  0
   46.1010   31.2470   45.8760 C   0  0  0  0  0  0  0  0  0  0  0  0
   45.8180   30.2610   46.7750 N   0  0  0  0  0  0  0  0  0  0  0  0
   45.2680   30.5370   47.9980 C   0  0  0  0  0  0  0  0  0  0  0  0
   44.9880   31.8170   48.3460 N   0  0  0  0  0  0  0  0  0  0  0  0
   45.0330   33.8750   47.7450 H   0  0  0  0  0  0  0  0  0  0  0  0
   45.0060   29.8480   48.7800 H   0  0  0  0  0  0  0  0  0  0  0  0
   45.9910   33.7130   45.3320 C   0  0  2  0  0  0  0  0  0  0  0  0
   44.9320   34.8100   45.6890 C   0  0  0  0  0  0  0  0  0  0  0  0
   44.5510   35.7540   44.6830 C   0  0  0  0  0  0  0  0  0  0  0  0
   45.1300   35.6720   43.3500 C   0  0  0  0  0  0  0  0  0  0  0  0
   46.2870   34.7970   43.2220 C   0  0  0  0  0  0  0  0  0  0  0  0
   46.1040   33.4830   43.9320 C   0  0  0  0  0  0  0  0  0  0  0  0
   46.8630   34.3030   45.7690 H   0  0  0  0  0  0  0  0  0  0  0  0
   44.4840   34.8790   46.6530 H   0  0  0  0  0  0  0  0  0  0  0  0
   43.8280   36.5010   44.9340 H   0  0  0  0  0  0  0  0  0  0  0  0
   45.3440   36.7110   43.0050 H   0  0  0  0  0  0  0  0  0  0  0  0
   44.3330   35.3130   42.6430 H   0  0  0  0  0  0  0  0  0  0  0  0
   47.1830   35.3070   43.6990 H   0  0  0  0  0  0  0  0  0  0  0  0
   46.5000   34.6510   42.1340 H   0  0  0  0  0  0  0  0  0  0  0  0
   47.1280   33.0850   43.6060 H   0  0  0  0  0  0  0  0  0  0  0  0
   45.2780   32.9540   43.4160 H   0  0  0  0  0  0  0  0  0  0  0  0
   48.0330   29.5350   42.5520 C   0  0  0  0  0  0  0  0  0  0  0  0
   48.7830   30.0260   43.5920 C   0  0  0  0  0  0  0  0  0  0  0  0
   48.0310   30.5450   44.6340 C   0  0  0  0  0  0  0  0  0  0  0  0
   46.6230   30.6160   44.7270 C   0  0  0  0  0  0  0  0  0  0  0  0
   46.0600   30.0780   43.5920 C   0  0  0  0  0  0  0  0  0  0  0  0
   46.6760   29.5330   42.4950 C   0  0  0  0  0  0  0  0  0  0  0  0
   49.9900   28.1490   41.6630 H   0  0  0  0  0  0  0  0  0  0  0  0
   48.9130   28.8560   41.1900 S   0  0  0  0  0  0  0  0  0  0  0  0
   49.4240   29.9500   40.3230 O   0  0  0  0  0  0  0  0  0  0  0  0
   48.0050   27.9120   40.4370 O   0  0  0  0  0  0  0  0  0  0  0  0
  1  7  1  0  0  0  0
  1  6  1  0  0  0  0
  2  1  2  0  0  0  0
  3  2  1  0  0  0  0
  3  4  2  0  0  0  0
  4  5  1  0  0  0  0
  5  6  2  0  0  0  0
  5  8  1  0  0  0  0
  9 10  1  0  0  0  0
  9 15  1  1  0  0  0
  9  2  1  0  0  0  0
 10 16  1  0  0  0  0
 11 17  1  0  0  0  0
 11 10  2  0  0  0  0
 12 11  1  0  0  0  0
 13 12  1  0  0  0  0
 13 20  1  0  0  0  0
 13 14  1  0  0  0  0
 14  9  1  0  0  0  0
 18 12  1  0  0  0  0
 19 12  1  0  0  0  0
 21 13  1  0  0  0  0
 22 14  1  0  0  0  0
 23 14  1  0  0  0  0
 24 25  1  0  0  0  0
 25 26  2  0  0  0  0
 26 27  1  0  0  0  0
 27  3  1  0  0  0  0
 28 27  2  0  0  0  0
 29 24  2  0  0  0  0
 29 28  1  0  0  0  0
 31 30  1  0  0  0  0
 31 24  1  0  0  0  0
 32 31  2  0  0  0  0
 33 31  2  0  0  0  0
M  END
>  <minimizedAffinity>
-4.3528862

>  <minimizedRMSD>
0.835800409

$$$$
