
 OpenBabel03232519573D

 26 28  0  0  0  0  0  0  0  0999 V2000
   44.0060   34.1640   41.4820 N   0  0  0  0  0  0  0  0  0  0  0  0
   44.6980   33.8160   40.4200 C   0  0  0  0  0  0  0  0  0  0  0  0
   43.8280   33.9080   39.3060 C   0  0  0  0  0  0  0  0  0  0  0  0
   42.6220   34.3120   39.7410 N   0  0  0  0  0  0  0  0  0  0  0  0
   42.7320   34.4680   41.0700 C   0  0  0  0  0  0  0  0  0  0  0  0
   43.9670   33.7200   38.2570 H   0  0  0  0  0  0  0  0  0  0  0  0
   41.8920   34.7950   41.6950 H   0  0  0  0  0  0  0  0  0  0  0  0
   44.1730   35.5420   43.4340 C   0  0  0  0  0  0  0  0  0  0  0  0
   44.4130   34.2750   42.8020 C   0  0  0  0  0  0  0  0  0  0  0  0
   45.0300   33.3400   43.5840 C   0  0  0  0  0  0  0  0  0  0  0  0
   45.3840   33.6080   44.8620 N   0  0  0  0  0  0  0  0  0  0  0  0
   45.1360   34.8280   45.4200 C   0  0  0  0  0  0  0  0  0  0  0  0
   44.5310   35.7840   44.6970 N   0  0  0  0  0  0  0  0  0  0  0  0
   43.6820   36.3470   42.8740 H   0  0  0  0  0  0  0  0  0  0  0  0
   45.2640   32.3630   43.2680 H   0  0  0  0  0  0  0  0  0  0  0  0
   45.3840   35.1200   46.4220 H   0  0  0  0  0  0  0  0  0  0  0  0
   48.5320   32.2280   39.4190 C   0  0  0  0  0  0  0  0  0  0  0  0
   47.4130   31.4260   39.3710 C   0  0  0  0  0  0  0  0  0  0  0  0
   46.2260   32.0810   39.7060 C   0  0  0  0  0  0  0  0  0  0  0  0
   46.0390   33.4290   40.0760 C   0  0  0  0  0  0  0  0  0  0  0  0
   47.2460   34.0870   40.0760 C   0  0  0  0  0  0  0  0  0  0  0  0
   48.4690   33.5530   39.7670 C   0  0  0  0  0  0  0  0  0  0  0  0
   49.9750   30.1470   38.8880 H   0  0  0  0  0  0  0  0  0  0  0  0
   50.0830   31.5260   39.0200 S   0  0  0  0  0  0  0  0  0  0  0  0
   51.0550   31.7530   40.1320 O   0  0  0  0  0  0  0  0  0  0  0  0
   50.5570   32.0670   37.7000 O   0  0  0  0  0  0  0  0  0  0  0  0
  1  9  1  0  0  0  0
  2  1  1  0  0  0  0
  3  4  1  0  0  0  0
  3  2  2  0  0  0  0
  4  5  2  0  0  0  0
  5  1  1  0  0  0  0
  5  7  1  0  0  0  0
  6  3  1  0  0  0  0
  8 13  1  0  0  0  0
  9  8  2  0  0  0  0
  9 10  1  0  0  0  0
 10 11  2  0  0  0  0
 11 12  1  0  0  0  0
 12 16  1  0  0  0  0
 13 12  2  0  0  0  0
 14  8  1  0  0  0  0
 15 10  1  0  0  0  0
 17 22  1  0  0  0  0
 18 17  2  0  0  0  0
 18 19  1  0  0  0  0
 19 20  2  0  0  0  0
 20  2  1  0  0  0  0
 21 20  1  0  0  0  0
 22 21  2  0  0  0  0
 23 24  1  0  0  0  0
 24 17  1  0  0  0  0
 24 25  2  0  0  0  0
 26 24  2  0  0  0  0
M  END
>  <minimizedAffinity>
-4.22372198

>  <minimizedRMSD>
1.82204771

$$$$
