
 OpenBabel03232518303D

 31 34  0  0  0  0  0  0  0  0999 V2000
   45.1760   35.2040   44.0710 C   0  0  0  0  0  0  0  0  0  0  0  0
   46.2650   34.8400   43.2680 C   0  0  0  0  0  0  0  0  0  0  0  0
   47.1230   33.8320   43.7560 C   0  0  0  0  0  0  0  0  0  0  0  0
   46.8310   33.2830   44.9770 N   0  0  0  0  0  0  0  0  0  0  0  0
   45.7630   33.6800   45.7070 C   0  0  0  0  0  0  0  0  0  0  0  0
   44.9310   34.6330   45.2680 N   0  0  0  0  0  0  0  0  0  0  0  0
   44.5360   35.9830   43.6670 H   0  0  0  0  0  0  0  0  0  0  0  0
   46.4780   35.2800   42.3140 H   0  0  0  0  0  0  0  0  0  0  0  0
   50.4770   32.3070   41.6540 C   0  0  0  0  0  0  0  0  0  0  0  0
   49.3250   31.5430   41.8660 C   0  0  0  0  0  0  0  0  0  0  0  0
   48.2390   32.0660   42.5590 C   0  0  0  0  0  0  0  0  0  0  0  0
   48.2750   33.3530   43.0520 C   0  0  0  0  0  0  0  0  0  0  0  0
   49.4070   34.1030   42.8420 C   0  0  0  0  0  0  0  0  0  0  0  0
   50.5100   33.6040   42.1520 C   0  0  0  0  0  0  0  0  0  0  0  0
   52.9480   32.4160   40.9190 H   0  0  0  0  0  0  0  0  0  0  0  0
   51.8330   31.6150   40.7730 S   0  0  0  0  0  0  0  0  0  0  0  0
   51.4150   31.4980   39.3340 O   0  0  0  0  0  0  0  0  0  0  0  0
   52.0940   30.2270   41.2950 O   0  0  0  0  0  0  0  0  0  0  0  0
   45.4790   32.8960   47.2830 S   0  0  0  0  0  0  0  0  0  0  0  0
   48.6970   29.5760   48.8280 N   0  0  0  0  0  0  0  0  0  0  0  0
   48.8100   30.7980   49.3940 C   0  0  0  0  0  0  0  0  0  0  0  0
   47.8740   31.6090   48.8850 N   0  0  0  0  0  0  0  0  0  0  0  0
   47.1410   30.9340   47.9870 C   0  0  0  0  0  0  0  0  0  0  0  0
   46.0530   31.2050   47.1390 C   0  0  0  0  0  0  0  0  0  0  0  0
   45.5560   30.2590   46.3440 N   0  0  0  0  0  0  0  0  0  0  0  0
   46.1400   29.0200   46.3820 C   0  0  0  0  0  0  0  0  0  0  0  0
   47.1980   28.6910   47.1800 N   0  0  0  0  0  0  0  0  0  0  0  0
   47.6690   29.6610   47.9640 C   0  0  0  0  0  0  0  0  0  0  0  0
   49.3010   28.7290   49.0330 H   0  0  0  0  0  0  0  0  0  0  0  0
   49.5770   30.9950   50.1390 H   0  0  0  0  0  0  0  0  0  0  0  0
   45.7160   28.2730   45.7270 H   0  0  0  0  0  0  0  0  0  0  0  0
  1  6  1  0  0  0  0
  2  3  1  0  0  0  0
  2  1  2  0  0  0  0
  3  4  2  0  0  0  0
  4  5  1  0  0  0  0
  5 19  1  0  0  0  0
  6  5  2  0  0  0  0
  7  1  1  0  0  0  0
  8  2  1  0  0  0  0
  9 10  2  0  0  0  0
  9 14  1  0  0  0  0
 10 11  1  0  0  0  0
 11 12  2  0  0  0  0
 12  3  1  0  0  0  0
 13 12  1  0  0  0  0
 14 13  2  0  0  0  0
 16 15  1  0  0  0  0
 16 18  2  0  0  0  0
 16  9  1  0  0  0  0
 17 16  2  0  0  0  0
 20 29  1  0  0  0  0
 20 21  1  0  0  0  0
 21 30  1  0  0  0  0
 22 21  2  0  0  0  0
 23 22  1  0  0  0  0
 24 19  1  0  0  0  0
 24 23  2  0  0  0  0
 25 26  2  0  0  0  0
 25 24  1  0  0  0  0
 26 27  1  0  0  0  0
 27 28  2  0  0  0  0
 28 23  1  0  0  0  0
 28 20  1  0  0  0  0
 31 26  1  0  0  0  0
M  END
>  <minimizedAffinity>
-5.86437654

>  <minimizedRMSD>
0.853885412

$$$$
