
 OpenBabel03232520573D

 38 40  0  0  1  0  0  0  0  0999 V2000
   45.3740   32.8860   47.5980 C   0  0  0  0  0  0  0  0  0  0  0  0
   45.8910   32.6190   46.3640 C   0  0  0  0  0  0  0  0  0  0  0  0
   46.1260   31.2620   46.1030 C   0  0  0  0  0  0  0  0  0  0  0  0
   45.8610   30.2910   46.9920 N   0  0  0  0  0  0  0  0  0  0  0  0
   45.3380   30.6080   48.2280 C   0  0  0  0  0  0  0  0  0  0  0  0
   45.1060   31.8850   48.5060 N   0  0  0  0  0  0  0  0  0  0  0  0
   45.0660   29.5980   49.1880 N   0  0  0  0  0  0  0  0  0  0  0  0
   45.1640   33.9020   47.8880 H   0  0  0  0  0  0  0  0  0  0  0  0
   45.9730   29.6750   49.7290 H   0  0  0  0  0  0  0  0  0  0  0  0
   44.1160   29.3390   48.8250 H   0  0  0  0  0  0  0  0  0  0  0  0
   46.1190   33.5800   45.3340 C   0  0  2  0  0  0  0  0  0  0  0  0
   44.9740   34.6720   45.5350 C   0  0  0  0  0  0  0  0  0  0  0  0
   44.7460   35.5850   44.4460 C   0  0  0  0  0  0  0  0  0  0  0  0
   45.5160   35.4960   43.2290 C   0  0  1  0  0  0  0  0  0  0  0  0
   46.6040   34.4890   43.2030 C   0  0  0  0  0  0  0  0  0  0  0  0
   46.1110   33.2580   43.9500 C   0  0  0  0  0  0  0  0  0  0  0  0
   46.9470   34.2880   45.6450 H   0  0  0  0  0  0  0  0  0  0  0  0
   44.2820   34.9230   46.3190 H   0  0  0  0  0  0  0  0  0  0  0  0
   44.0130   36.3430   44.4800 H   0  0  0  0  0  0  0  0  0  0  0  0
   45.9490   36.4890   42.9800 H   0  0  0  0  0  0  0  0  0  0  0  0
   47.4660   34.8810   43.7830 H   0  0  0  0  0  0  0  0  0  0  0  0
   46.9400   34.2890   42.1880 H   0  0  0  0  0  0  0  0  0  0  0  0
   44.9970   33.2110   43.6240 H   0  0  0  0  0  0  0  0  0  0  0  0
   46.5450   32.4530   43.4320 H   0  0  0  0  0  0  0  0  0  0  0  0
   44.5330   35.2050   42.0680 C   0  0  0  0  0  0  0  0  0  0  0  0
   43.5000   34.3700   42.4380 F   0  0  0  0  0  0  0  0  0  0  0  0
   43.9510   36.4270   41.7360 F   0  0  0  0  0  0  0  0  0  0  0  0
   45.2310   34.7780   40.9520 F   0  0  0  0  0  0  0  0  0  0  0  0
   48.0090   29.1170   42.9410 C   0  0  0  0  0  0  0  0  0  0  0  0
   46.6400   29.1300   43.0290 C   0  0  0  0  0  3  0  0  0  0  0  0
   46.0050   29.8440   44.0240 C   0  0  0  0  0  3  0  0  0  0  0  0
   46.7180   30.5660   44.9660 C   0  0  0  0  0  0  0  0  0  0  0  0
   48.1190   30.4970   44.7990 C   0  0  0  0  0  3  0  0  0  0  0  0
   48.8060   29.8040   43.8280 C   0  0  0  0  0  3  0  0  0  0  0  0
   50.1710   28.5500   41.6330 H   0  0  0  0  0  0  0  0  0  0  0  0
   48.8450   28.2100   41.6730 S   0  0  0  0  0  0  0  0  0  0  0  0
   48.7220   26.7640   42.0240 O   0  0  0  0  0  0  0  0  0  0  0  0
   48.2600   28.5230   40.3380 O   0  0  0  0  0  0  0  0  0  0  0  0
  1  8  1  0  0  0  0
  1  6  1  0  0  0  0
  2  1  2  0  0  0  0
  3  2  1  0  0  0  0
  3  4  2  0  0  0  0
  4  5  1  0  0  0  0
  5  6  2  0  0  0  0
  5  7  1  0  0  0  0
  7  9  1  0  0  0  0
 10  7  1  0  0  0  0
 11 12  1  0  0  0  0
 11 17  1  1  0  0  0
 11  2  1  0  0  0  0
 12 18  1  0  0  0  0
 13 19  1  0  0  0  0
 13 12  2  0  0  0  0
 14 20  1  6  0  0  0
 14 13  1  0  0  0  0
 15 14  1  0  0  0  0
 15 21  1  0  0  0  0
 15 16  1  0  0  0  0
 16 11  1  0  0  0  0
 22 15  1  0  0  0  0
 23 16  1  0  0  0  0
 24 16  1  0  0  0  0
 25 26  1  0  0  0  0
 25 14  1  0  0  0  0
 27 25  1  0  0  0  0
 28 25  1  0  0  0  0
 29 30  2  0  0  0  0
 29 34  1  0  0  0  0
 30 31  1  0  0  0  0
 31 32  2  0  0  0  0
 32  3  1  0  0  0  0
 33 32  1  0  0  0  0
 34 33  2  0  0  0  0
 35 36  1  0  0  0  0
 36 37  2  0  0  0  0
 36 29  1  0  0  0  0
 38 36  2  0  0  0  0
M  END
>  <minimizedAffinity>
-5.45412922

>  <minimizedRMSD>
0.437067538

$$$$
