
 OpenBabel03232516423D

 50 53  0  0  1  0  0  0  0  0999 V2000
   47.0760   32.4400   46.5910 C   0  0  0  0  0  0  0  0  0  0  0  0
   47.0830   31.7540   45.4020 C   0  0  0  0  0  0  0  0  0  0  0  0
   47.8000   30.4920   45.3290 C   0  0  0  0  0  0  0  0  0  0  0  0
   48.4230   30.0610   46.4260 N   0  0  0  0  0  0  0  0  0  0  0  0
   48.3930   30.7630   47.5630 C   0  0  0  0  0  0  0  0  0  0  0  0
   47.7290   31.9330   47.6450 N   0  0  0  0  0  0  0  0  0  0  0  0
   46.6050   33.3640   46.8350 H   0  0  0  0  0  0  0  0  0  0  0  0
   47.7790   29.9830   44.3770 H   0  0  0  0  0  0  0  0  0  0  0  0
   46.3990   32.3450   44.2500 C   0  0  2  0  0  0  0  0  0  0  0  0
   46.1080   33.7830   44.5400 C   0  0  0  0  0  0  0  0  0  0  0  0
   45.0850   34.3970   43.7480 C   0  0  0  0  0  0  0  0  0  0  0  0
   44.3710   33.6980   42.7180 C   0  0  0  0  0  0  0  0  0  0  0  0
   44.6410   32.2730   42.5710 C   0  0  0  0  0  0  0  0  0  0  0  0
   45.1350   31.6560   43.8350 C   0  0  0  0  0  0  0  0  0  0  0  0
   46.4840   34.5380   45.2220 H   0  0  0  0  0  0  0  0  0  0  0  0
   44.8230   35.4280   43.9040 H   0  0  0  0  0  0  0  0  0  0  0  0
   43.2830   33.9700   42.8000 H   0  0  0  0  0  0  0  0  0  0  0  0
   44.6550   34.1860   41.7360 H   0  0  0  0  0  0  0  0  0  0  0  0
   43.6300   31.7850   42.4540 H   0  0  0  0  0  0  0  0  0  0  0  0
   45.1270   31.9270   41.6360 H   0  0  0  0  0  0  0  0  0  0  0  0
   44.4000   31.8550   44.6150 H   0  0  0  0  0  0  0  0  0  0  0  0
   45.3000   30.5660   43.7620 H   0  0  0  0  0  0  0  0  0  0  0  0
   47.4230   32.3830   43.1070 C   0  0  0  0  0  0  0  0  0  0  0  0
   47.5440   31.8680   41.9500 O   0  0  0  0  0  0  0  0  0  0  0  0
   48.5680   33.2460   43.4440 N   0  0  0  0  0  0  0  0  0  0  0  0
   48.8310   34.4280   42.7900 C   0  0  0  0  0  0  0  0  0  0  0  0
   48.2000   35.0660   41.9770 N   0  0  0  0  0  0  0  0  0  0  0  0
   50.0340   35.2090   42.9940 N   0  0  0  0  0  0  0  0  0  0  0  0
   47.3000   35.0180   41.5880 H   0  0  0  0  0  0  0  0  0  0  0  0
   49.2420   33.0410   44.2060 H   0  0  0  0  0  0  0  0  0  0  0  0
   50.2090   35.7150   43.9050 H   0  0  0  0  0  0  0  0  0  0  0  0
   50.7960   35.3320   42.2900 H   0  0  0  0  0  0  0  0  0  0  0  0
   49.1180   30.2440   48.7450 C   0  0  0  0  0  0  0  0  0  0  0  0
   49.5450   31.1190   49.7350 C   0  0  0  0  0  0  0  0  0  0  0  0
   50.2260   30.6110   50.8420 C   0  0  0  0  0  0  0  0  0  0  0  0
   50.4680   29.2940   50.9530 N   0  0  0  0  0  0  0  0  0  0  0  0
   50.0490   28.4590   49.9870 C   0  0  0  0  0  0  0  0  0  0  0  0
   49.3820   28.9280   48.8960 N   0  0  0  0  0  0  0  0  0  0  0  0
   49.3460   32.1740   49.6380 H   0  0  0  0  0  0  0  0  0  0  0  0
   50.5580   31.2930   51.6140 H   0  0  0  0  0  0  0  0  0  0  0  0
   50.7800   24.2770   50.2300 C   0  0  0  0  0  0  0  0  0  0  0  0
   51.4440   25.1740   51.0330 C   0  0  0  0  0  0  0  0  0  0  0  0
   51.2170   26.5340   50.9670 C   0  0  0  0  0  0  0  0  0  0  0  0
   50.2840   27.0160   50.0520 C   0  0  0  0  0  0  0  0  0  0  0  0
   49.6140   26.1220   49.2420 C   0  0  0  0  0  0  0  0  0  0  0  0
   49.8610   24.7810   49.3330 C   0  0  0  0  0  0  0  0  0  0  0  0
   51.6700   22.0840   49.1370 H   0  0  0  0  0  0  0  0  0  0  0  0
   50.9780   22.5490   50.2200 S   0  0  0  0  0  0  0  0  0  0  0  0
   51.6090   22.1470   51.5190 O   0  0  0  0  0  0  0  0  0  0  0  0
   49.5850   21.9410   50.1720 O   0  0  0  0  0  0  0  0  0  0  0  0
  1  7  1  0  0  0  0
  1  6  1  0  0  0  0
  2  1  2  0  0  0  0
  3  2  1  0  0  0  0
  3  4  2  0  0  0  0
  4  5  1  0  0  0  0
  5  6  2  0  0  0  0
  5 33  1  0  0  0  0
  8  3  1  0  0  0  0
  9 23  1  6  0  0  0
  9 10  1  0  0  0  0
  9  2  1  0  0  0  0
 10 15  1  0  0  0  0
 11 16  1  0  0  0  0
 11 10  2  0  0  0  0
 12 17  1  0  0  0  0
 12 11  1  0  0  0  0
 13 12  1  0  0  0  0
 13 14  1  0  0  0  0
 14  9  1  0  0  0  0
 14 21  1  0  0  0  0
 18 12  1  0  0  0  0
 19 13  1  0  0  0  0
 20 13  1  0  0  0  0
 22 14  1  0  0  0  0
 23 25  1  0  0  0  0
 24 23  2  0  0  0  0
 25 30  1  0  0  0  0
 26 28  1  0  0  0  0
 26 25  1  0  0  0  0
 27 26  2  0  0  0  0
 28 31  1  0  0  0  0
 29 27  1  0  0  0  0
 32 28  1  0  0  0  0
 33 38  2  0  0  0  0
 33 34  1  0  0  0  0
 34 35  2  0  0  0  0
 35 36  1  0  0  0  0
 35 40  1  0  0  0  0
 37 44  1  0  0  0  0
 37 36  2  0  0  0  0
 38 37  1  0  0  0  0
 39 34  1  0  0  0  0
 41 42  1  0  0  0  0
 43 42  2  0  0  0  0
 44 43  1  0  0  0  0
 45 46  1  0  0  0  0
 45 44  2  0  0  0  0
 46 41  2  0  0  0  0
 47 48  1  0  0  0  0
 48 41  1  0  0  0  0
 48 49  2  0  0  0  0
 50 48  2  0  0  0  0
M  END
>  <minimizedAffinity>
-6.25031805

>  <minimizedRMSD>
2.27421927

$$$$
