
 OpenBabel03232520593D

 39 41  0  0  1  0  0  0  0  0999 V2000
   45.3560   32.9000   47.5160 C   0  0  0  0  0  0  0  0  0  0  0  0
   45.9070   32.6380   46.3050 C   0  0  0  0  0  0  0  0  0  0  0  0
   46.1760   31.2900   46.0620 C   0  0  0  0  0  0  0  0  0  0  0  0
   45.9180   30.3020   46.9530 N   0  0  0  0  0  0  0  0  0  0  0  0
   45.3570   30.6280   48.1780 C   0  0  0  0  0  0  0  0  0  0  0  0
   45.0920   31.9000   48.4280 N   0  0  0  0  0  0  0  0  0  0  0  0
   45.1110   29.6150   49.1450 N   0  0  0  0  0  0  0  0  0  0  0  0
   45.1110   33.9090   47.8080 H   0  0  0  0  0  0  0  0  0  0  0  0
   44.8710   28.6350   48.8490 H   0  0  0  0  0  0  0  0  0  0  0  0
   45.1860   29.9070   50.1590 H   0  0  0  0  0  0  0  0  0  0  0  0
   46.1580   33.5890   45.2760 C   0  0  2  0  0  0  0  0  0  0  0  0
   44.9500   34.6870   45.5040 C   0  0  0  0  0  0  0  0  0  0  0  0
   44.7250   35.6170   44.4340 C   0  0  0  0  0  0  0  0  0  0  0  0
   45.5320   35.5440   43.2120 C   0  0  1  0  0  0  0  0  0  0  0  0
   46.5900   34.5400   43.1660 C   0  0  0  0  0  0  0  0  0  0  0  0
   46.1330   33.3070   43.9120 C   0  0  0  0  0  0  0  0  0  0  0  0
   46.9790   34.2950   45.6150 H   0  0  0  0  0  0  0  0  0  0  0  0
   44.2720   34.8390   46.3350 H   0  0  0  0  0  0  0  0  0  0  0  0
   43.9580   36.3390   44.5430 H   0  0  0  0  0  0  0  0  0  0  0  0
   45.9580   36.5580   43.0260 H   0  0  0  0  0  0  0  0  0  0  0  0
   46.8570   34.3340   42.0960 H   0  0  0  0  0  0  0  0  0  0  0  0
   47.5080   34.8940   43.6880 H   0  0  0  0  0  0  0  0  0  0  0  0
   45.1500   33.0280   43.4840 H   0  0  0  0  0  0  0  0  0  0  0  0
   46.9490   32.6410   43.5660 H   0  0  0  0  0  0  0  0  0  0  0  0
   44.5230   35.2810   42.0540 C   0  0  0  0  0  0  0  0  0  0  0  0
   43.4630   34.4810   42.4450 F   0  0  0  0  0  0  0  0  0  0  0  0
   43.9830   36.5240   41.7220 F   0  0  0  0  0  0  0  0  0  0  0  0
   45.2000   34.8250   40.9410 F   0  0  0  0  0  0  0  0  0  0  0  0
   46.8070   30.5920   44.9540 C   0  0  0  0  0  0  0  0  0  0  0  0
   46.4450   29.8300   43.8900 C   0  0  0  0  0  0  0  0  0  0  0  0
   47.6220   29.4300   43.2290 C   0  0  0  0  0  0  0  0  0  0  0  0
   48.6230   29.9710   43.9240 N   0  0  0  0  0  0  0  0  0  0  0  0
   48.1700   30.6610   44.9440 N   0  0  0  0  0  0  0  0  0  0  0  0
   45.3950   29.6620   43.7330 H   0  0  0  0  0  0  0  0  0  0  0  0
   47.5670   28.8170   42.3560 H   0  0  0  0  0  0  0  0  0  0  0  0
   50.0300   29.7820   43.5440 C   0  0  0  0  0  0  0  0  0  0  0  0
   50.5390   30.9490   43.0390 F   0  0  0  0  0  0  0  0  0  0  0  0
   50.2000   28.6950   42.7340 F   0  0  0  0  0  0  0  0  0  0  0  0
   50.7540   29.5020   44.7110 F   0  0  0  0  0  0  0  0  0  0  0  0
  1  8  1  0  0  0  0
  1  6  1  0  0  0  0
  2  1  2  0  0  0  0
  3  2  1  0  0  0  0
  3  4  2  0  0  0  0
  4  5  1  0  0  0  0
  5  6  2  0  0  0  0
  5  7  1  0  0  0  0
  7 10  1  0  0  0  0
  9  7  1  0  0  0  0
 11 12  1  0  0  0  0
 11 17  1  1  0  0  0
 11  2  1  0  0  0  0
 12 18  1  0  0  0  0
 13 19  1  0  0  0  0
 13 12  2  0  0  0  0
 14 20  1  6  0  0  0
 14 13  1  0  0  0  0
 15 14  1  0  0  0  0
 15 22  1  0  0  0  0
 15 16  1  0  0  0  0
 16 11  1  0  0  0  0
 21 15  1  0  0  0  0
 23 16  1  0  0  0  0
 24 16  1  0  0  0  0
 25 26  1  0  0  0  0
 25 14  1  0  0  0  0
 27 25  1  0  0  0  0
 28 25  1  0  0  0  0
 29  3  1  0  0  0  0
 30 29  1  0  0  0  0
 31 30  2  0  0  0  0
 31 32  1  0  0  0  0
 32 33  1  0  0  0  0
 33 29  2  0  0  0  0
 34 30  1  0  0  0  0
 35 31  1  0  0  0  0
 36 32  1  0  0  0  0
 36 39  1  0  0  0  0
 37 36  1  0  0  0  0
 38 36  1  0  0  0  0
M  END
>  <minimizedAffinity>
-5.66644239

>  <minimizedRMSD>
0.245280638

$$$$
