
 OpenBabel03232520583D

 39 41  0  0  1  0  0  0  0  0999 V2000
   45.3440   32.9010   47.5180 C   0  0  0  0  0  0  0  0  0  0  0  0
   45.9050   32.6390   46.3120 C   0  0  0  0  0  0  0  0  0  0  0  0
   46.1860   31.2920   46.0750 C   0  0  0  0  0  0  0  0  0  0  0  0
   45.9280   30.3050   46.9680 N   0  0  0  0  0  0  0  0  0  0  0  0
   45.3560   30.6310   48.1880 C   0  0  0  0  0  0  0  0  0  0  0  0
   45.0800   31.9030   48.4310 N   0  0  0  0  0  0  0  0  0  0  0  0
   45.1100   29.6190   49.1560 N   0  0  0  0  0  0  0  0  0  0  0  0
   45.0900   33.9090   47.8050 H   0  0  0  0  0  0  0  0  0  0  0  0
   44.8790   28.6370   48.8620 H   0  0  0  0  0  0  0  0  0  0  0  0
   45.1760   29.9150   50.1700 H   0  0  0  0  0  0  0  0  0  0  0  0
   46.1580   33.5880   45.2820 C   0  0  2  0  0  0  0  0  0  0  0  0
   44.9500   34.6860   45.5070 C   0  0  0  0  0  0  0  0  0  0  0  0
   44.7260   35.6150   44.4350 C   0  0  0  0  0  0  0  0  0  0  0  0
   45.5340   35.5400   43.2140 C   0  0  1  0  0  0  0  0  0  0  0  0
   46.5910   34.5350   43.1710 C   0  0  0  0  0  0  0  0  0  0  0  0
   46.1340   33.3040   43.9180 C   0  0  0  0  0  0  0  0  0  0  0  0
   46.9790   34.2940   45.6200 H   0  0  0  0  0  0  0  0  0  0  0  0
   44.2720   34.8400   46.3370 H   0  0  0  0  0  0  0  0  0  0  0  0
   43.9590   36.3380   44.5430 H   0  0  0  0  0  0  0  0  0  0  0  0
   45.9600   36.5540   43.0270 H   0  0  0  0  0  0  0  0  0  0  0  0
   46.8580   34.3280   42.1010 H   0  0  0  0  0  0  0  0  0  0  0  0
   47.5090   34.8900   43.6920 H   0  0  0  0  0  0  0  0  0  0  0  0
   45.1500   33.0240   43.4900 H   0  0  0  0  0  0  0  0  0  0  0  0
   46.9500   32.6370   43.5730 H   0  0  0  0  0  0  0  0  0  0  0  0
   44.5250   35.2750   42.0560 C   0  0  0  0  0  0  0  0  0  0  0  0
   43.4700   34.4680   42.4450 F   0  0  0  0  0  0  0  0  0  0  0  0
   43.9790   36.5160   41.7280 F   0  0  0  0  0  0  0  0  0  0  0  0
   45.2040   34.8260   40.9410 F   0  0  0  0  0  0  0  0  0  0  0  0
   46.8290   30.5950   44.9740 C   0  0  0  0  0  0  0  0  0  0  0  0
   46.4810   29.8230   43.9130 C   0  0  0  0  0  0  0  0  0  0  0  0
   47.6650   29.4320   43.2600 C   0  0  0  0  0  0  0  0  0  0  0  0
   48.6570   29.9870   43.9570 N   0  0  0  0  0  0  0  0  0  0  0  0
   48.1920   30.6770   44.9710 N   0  0  0  0  0  0  0  0  0  0  0  0
   45.4330   29.6440   43.7520 H   0  0  0  0  0  0  0  0  0  0  0  0
   47.6200   28.8130   42.3900 H   0  0  0  0  0  0  0  0  0  0  0  0
   50.0680   29.8100   43.5850 C   0  0  0  0  0  0  0  0  0  0  0  0
   50.8040   29.4720   44.6900 F   0  0  0  0  0  0  0  0  0  0  0  0
   50.5530   30.8810   42.8910 F   0  0  0  0  0  0  0  0  0  0  0  0
   50.1450   28.7220   42.7050 F   0  0  0  0  0  0  0  0  0  0  0  0
  1  8  1  0  0  0  0
  1  6  1  0  0  0  0
  2  1  2  0  0  0  0
  3  2  1  0  0  0  0
  3  4  2  0  0  0  0
  4  5  1  0  0  0  0
  5  6  2  0  0  0  0
  5  7  1  0  0  0  0
  7 10  1  0  0  0  0
  9  7  1  0  0  0  0
 11 12  1  0  0  0  0
 11 17  1  1  0  0  0
 11  2  1  0  0  0  0
 12 18  1  0  0  0  0
 13 19  1  0  0  0  0
 13 12  2  0  0  0  0
 14 20  1  6  0  0  0
 14 13  1  0  0  0  0
 15 14  1  0  0  0  0
 15 22  1  0  0  0  0
 15 16  1  0  0  0  0
 16 11  1  0  0  0  0
 21 15  1  0  0  0  0
 23 16  1  0  0  0  0
 24 16  1  0  0  0  0
 25 26  1  0  0  0  0
 25 14  1  0  0  0  0
 27 25  1  0  0  0  0
 28 25  1  0  0  0  0
 29  3  1  0  0  0  0
 30 29  1  0  0  0  0
 31 30  2  0  0  0  0
 31 32  1  0  0  0  0
 32 33  1  0  0  0  0
 33 29  2  0  0  0  0
 34 30  1  0  0  0  0
 35 31  1  0  0  0  0
 36 32  1  0  0  0  0
 36 37  1  0  0  0  0
 38 36  1  0  0  0  0
 39 36  1  0  0  0  0
M  END
>  <minimizedAffinity>
-5.65734625

>  <minimizedRMSD>
0.190127388

$$$$
