
 OpenBabel03232520403D

 23 24  0  0  0  0  0  0  0  0999 V2000
   44.0130   35.5550   42.6630 C   0  0  0  0  0  0  0  0  0  0  0  0
   43.2990   35.0540   41.5610 C   0  0  0  0  0  0  0  0  0  0  0  0
   43.9890   34.3260   40.5950 C   0  0  0  0  0  0  0  0  0  0  0  0
   45.3350   34.1160   40.7400 N   0  0  0  0  0  0  0  0  0  0  0  0
   45.9770   34.6230   41.8230 C   0  0  0  0  0  0  0  0  0  0  0  0
   45.3220   35.3320   42.7700 N   0  0  0  0  0  0  0  0  0  0  0  0
   43.4350   36.1170   43.3840 H   0  0  0  0  0  0  0  0  0  0  0  0
   43.4610   33.9320   39.7380 H   0  0  0  0  0  0  0  0  0  0  0  0
   47.4220   34.4290   42.0360 C   0  0  0  0  0  0  0  0  0  0  0  0
   48.2690   35.4990   41.9330 C   0  0  0  0  0  0  0  0  0  0  0  0
   49.6380   35.3430   42.1280 C   0  0  0  0  0  0  0  0  0  0  0  0
   50.1700   34.1060   42.4270 C   0  0  0  0  0  0  0  0  0  0  0  0
   49.2760   33.0610   42.5190 C   0  0  0  0  0  0  0  0  0  0  0  0
   47.9570   33.2250   42.3290 N   0  0  0  0  0  0  0  0  0  0  0  0
   47.9430   36.5100   41.7010 H   0  0  0  0  0  0  0  0  0  0  0  0
   50.3500   36.1580   42.0590 H   0  0  0  0  0  0  0  0  0  0  0  0
   51.2030   33.8560   42.6000 H   0  0  0  0  0  0  0  0  0  0  0  0
   49.4900   32.0130   42.7430 H   0  0  0  0  0  0  0  0  0  0  0  0
   41.5200   35.3480   41.4000 S   0  0  0  0  0  0  0  0  0  0  0  0
   41.0480   35.1010   39.6860 C   0  0  0  0  0  0  0  0  0  0  0  0
   41.8460   35.7770   38.7850 F   0  0  0  0  0  0  0  0  0  0  0  0
   39.7490   35.4840   39.5120 F   0  0  0  0  0  0  0  0  0  0  0  0
   41.1480   33.7450   39.4060 F   0  0  0  0  0  0  0  0  0  0  0  0
  1  6  1  0  0  0  0
  1  7  1  0  0  0  0
  2  1  2  0  0  0  0
  3  4  2  0  0  0  0
  3  2  1  0  0  0  0
  4  5  1  0  0  0  0
  5  9  1  0  0  0  0
  5  6  2  0  0  0  0
  8  3  1  0  0  0  0
  9 14  1  0  0  0  0
 10  9  2  0  0  0  0
 10 11  1  0  0  0  0
 11 12  2  0  0  0  0
 12 13  1  0  0  0  0
 12 17  1  0  0  0  0
 13 18  1  0  0  0  0
 14 13  2  0  0  0  0
 15 10  1  0  0  0  0
 16 11  1  0  0  0  0
 19  2  1  0  0  0  0
 20 19  1  0  0  0  0
 21 20  1  0  0  0  0
 22 20  1  0  0  0  0
 23 20  1  0  0  0  0
M  END
>  <minimizedAffinity>
-5.01777267

>  <minimizedRMSD>
0.610031366

$$$$
