
 OpenBabel03232519543D

 23 25  0  0  0  0  0  0  0  0999 V2000
   45.4620   33.8980   41.5520 N   0  0  0  0  0  0  0  0  0  0  0  0
   46.5800   33.7840   40.8820 C   0  0  0  0  0  0  0  0  0  0  0  0
   46.3040   33.4610   39.5590 C   0  0  0  0  0  0  0  0  0  0  0  0
   44.9770   33.3810   39.4480 N   0  0  0  0  0  0  0  0  0  0  0  0
   44.4700   33.6480   40.6660 C   0  0  0  0  0  0  0  0  0  0  0  0
   46.9630   33.2910   38.7190 H   0  0  0  0  0  0  0  0  0  0  0  0
   43.3820   33.6410   40.8190 H   0  0  0  0  0  0  0  0  0  0  0  0
   44.6800   35.4980   43.1170 C   0  0  0  0  0  0  0  0  0  0  0  0
   45.2850   34.2210   42.8920 C   0  0  0  0  0  0  0  0  0  0  0  0
   45.6220   33.4800   44.0080 C   0  0  0  0  0  0  0  0  0  0  0  0
   45.3640   34.0000   45.2400 N   0  0  0  0  0  0  0  0  0  0  0  0
   44.7950   35.2030   45.4090 C   0  0  0  0  0  0  0  0  0  0  0  0
   44.4540   35.9480   44.3510 N   0  0  0  0  0  0  0  0  0  0  0  0
   44.3770   36.1640   42.3260 H   0  0  0  0  0  0  0  0  0  0  0  0
   46.0790   32.5210   43.8420 H   0  0  0  0  0  0  0  0  0  0  0  0
   44.5970   35.6060   46.3970 H   0  0  0  0  0  0  0  0  0  0  0  0
   47.9450   33.9190   41.2640 N   0  0  0  0  0  0  0  0  0  0  0  0
   48.3560   35.2920   41.4770 C   0  0  0  0  0  0  0  0  0  0  0  0
   49.5640   35.4750   42.3280 C   0  0  0  0  0  0  0  0  0  0  0  0
   50.4790   34.3820   42.3710 N   0  0  0  0  0  0  0  0  0  0  0  0
   51.0170   34.2220   41.5010 H   0  0  0  0  0  0  0  0  0  0  0  0
   49.7100   33.2010   42.7500 C   0  0  0  0  0  0  0  0  0  0  0  0
   48.9370   32.8650   41.4590 C   0  0  0  0  0  0  0  0  0  0  0  0
  1  9  1  0  0  0  0
  2 17  1  0  0  0  0
  2  1  1  0  0  0  0
  3  2  2  0  0  0  0
  4  3  1  0  0  0  0
  4  5  2  0  0  0  0
  5  7  1  0  0  0  0
  5  1  1  0  0  0  0
  6  3  1  0  0  0  0
  8 13  1  0  0  0  0
  9  8  2  0  0  0  0
  9 10  1  0  0  0  0
 10 11  2  0  0  0  0
 11 12  1  0  0  0  0
 12 16  1  0  0  0  0
 13 12  2  0  0  0  0
 14  8  1  0  0  0  0
 15 10  1  0  0  0  0
 17 23  1  0  0  0  0
 17 18  1  0  0  0  0
 18 19  1  0  0  0  0
 19 20  1  0  0  0  0
 20 22  1  0  0  0  0
 21 20  1  0  0  0  0
 23 22  1  0  0  0  0
M  END
>  <minimizedAffinity>
-4.66791773

>  <minimizedRMSD>
3.21184874

$$$$
