
 OpenBabel03232520133D

 32 34  0  0  0  0  0  0  0  0999 V2000
   47.4710   34.1840   42.2180 C   0  0  0  0  0  0  0  0  0  0  0  0
   48.3410   35.3320   41.7610 C   0  0  0  0  0  0  0  0  0  0  0  0
   49.6910   35.3910   42.3650 C   0  0  0  0  0  0  0  0  0  0  0  0
   50.3910   34.0790   42.3750 C   0  0  0  0  0  0  0  0  0  0  0  0
   49.5230   32.9090   42.0290 C   0  0  0  0  0  0  0  0  0  0  0  0
   48.2310   33.0610   42.8210 C   0  0  0  0  0  0  0  0  0  0  0  0
   48.5350   35.3410   40.6680 H   0  0  0  0  0  0  0  0  0  0  0  0
   47.8100   36.3030   41.9690 H   0  0  0  0  0  0  0  0  0  0  0  0
   49.5610   35.7060   43.4410 H   0  0  0  0  0  0  0  0  0  0  0  0
   50.2430   36.2030   41.8800 H   0  0  0  0  0  0  0  0  0  0  0  0
   50.9320   33.9110   43.3390 H   0  0  0  0  0  0  0  0  0  0  0  0
   51.2060   34.1210   41.6060 H   0  0  0  0  0  0  0  0  0  0  0  0
   49.3360   32.8320   40.9530 H   0  0  0  0  0  0  0  0  0  0  0  0
   50.0700   32.0040   42.4260 H   0  0  0  0  0  0  0  0  0  0  0  0
   48.5060   33.3640   43.8520 H   0  0  0  0  0  0  0  0  0  0  0  0
   47.7630   32.0710   42.7780 H   0  0  0  0  0  0  0  0  0  0  0  0
   45.1990   34.3500   45.1430 C   0  0  0  0  0  0  0  0  0  0  0  0
   44.5320   35.5650   44.9570 C   0  0  0  0  0  0  0  0  0  0  0  0
   44.8780   36.3270   43.8460 C   0  0  0  0  0  0  0  0  0  0  0  0
   45.8450   35.8580   42.9940 N   0  0  0  0  0  0  0  0  0  0  0  0
   46.4710   34.6760   43.2030 C   0  0  0  0  0  0  0  0  0  0  0  0
   46.1430   33.9410   44.2710 N   0  0  0  0  0  0  0  0  0  0  0  0
   44.9130   33.7710   46.0190 H   0  0  0  0  0  0  0  0  0  0  0  0
   43.7660   35.9700   45.6040 H   0  0  0  0  0  0  0  0  0  0  0  0
   44.4090   37.2780   43.6320 H   0  0  0  0  0  0  0  0  0  0  0  0
   46.6440   33.6720   41.1770 N   0  0  0  0  0  0  0  0  0  0  0  0
   47.1970   32.7440   40.2820 C   0  0  0  0  0  0  0  0  0  0  0  0
   47.0410   33.3710   38.8880 C   0  0  0  0  0  0  0  0  0  0  0  0
   45.6260   33.3250   38.6210 N   0  0  0  0  0  0  0  0  0  0  0  0
   45.3310   33.7870   37.7380 H   0  0  0  0  0  0  0  0  0  0  0  0
   44.7680   33.4830   39.7310 C   0  0  0  0  0  0  0  0  0  0  0  0
   45.3710   34.1570   40.9480 C   0  0  0  0  0  0  0  0  0  0  0  0
  1  6  1  0  0  0  0
  1 21  1  0  0  0  0
  2  8  1  0  0  0  0
  2  1  1  0  0  0  0
  2  3  1  0  0  0  0
  3  4  1  0  0  0  0
  3  9  1  0  0  0  0
  4 11  1  0  0  0  0
  5  4  1  0  0  0  0
  5 14  1  0  0  0  0
  5  6  1  0  0  0  0
  6 15  1  0  0  0  0
  7  2  1  0  0  0  0
 10  3  1  0  0  0  0
 12  4  1  0  0  0  0
 13  5  1  0  0  0  0
 16  6  1  0  0  0  0
 17 23  1  0  0  0  0
 18 17  1  0  0  0  0
 18 24  1  0  0  0  0
 19 18  2  0  0  0  0
 20 21  2  0  0  0  0
 20 19  1  0  0  0  0
 21 22  1  0  0  0  0
 22 17  2  0  0  0  0
 25 19  1  0  0  0  0
 26  1  1  0  0  0  0
 27 26  1  0  0  0  0
 28 27  1  0  0  0  0
 29 28  1  0  0  0  0
 29 31  1  0  0  0  0
 30 29  1  0  0  0  0
 31 32  1  0  0  0  0
 32 26  1  0  0  0  0
M  END
>  <minimizedAffinity>
-5.57683277

>  <minimizedRMSD>
0.424565613

$$$$
