
 OpenBabel03232515153D

 43 47  0  0  0  0  0  0  0  0999 V2000
   48.0250   30.9490   48.4170 C   0  0  0  0  0  0  0  0  0  0  0  0
   48.8160   31.4160   49.4440 C   0  0  0  0  0  0  0  0  0  0  0  0
   49.8110   30.6380   49.9780 C   0  0  0  0  0  0  0  0  0  0  0  0
   50.0070   29.3730   49.4660 C   0  0  0  0  0  0  0  0  0  0  0  0
   49.2180   28.9000   48.4390 C   0  0  0  0  0  0  0  0  0  0  0  0
   48.2260   29.6920   47.9140 C   0  0  0  0  0  0  0  0  0  0  0  0
   48.6580   32.4050   49.8400 H   0  0  0  0  0  0  0  0  0  0  0  0
   50.4620   30.9370   50.7760 H   0  0  0  0  0  0  0  0  0  0  0  0
   50.7660   28.6970   49.8280 H   0  0  0  0  0  0  0  0  0  0  0  0
   44.4730   35.8250   44.5820 C   0  0  0  0  0  0  0  0  0  0  0  0
   45.1960   35.6950   43.3950 C   0  0  0  0  0  0  0  0  0  0  0  0
   46.1800   34.6910   43.2970 C   0  0  0  0  0  0  0  0  0  0  0  0
   46.3760   33.8960   44.3680 N   0  0  0  0  0  0  0  0  0  0  0  0
   45.6550   34.0490   45.5070 C   0  0  0  0  0  0  0  0  0  0  0  0
   44.7100   35.0000   45.6270 N   0  0  0  0  0  0  0  0  0  0  0  0
   45.8560   33.2120   46.6520 N   0  0  0  0  0  0  0  0  0  0  0  0
   47.0340   32.5540   46.7180 C   0  0  0  0  0  0  0  0  0  0  0  0
   46.9860   31.8280   47.8940 C   0  0  0  0  0  0  0  0  0  0  0  0
   45.8190   32.0500   48.5000 N   0  0  0  0  0  0  0  0  0  0  0  0
   45.1260   32.8890   47.7550 C   0  0  0  0  0  0  0  0  0  0  0  0
   43.7140   36.6050   44.6490 H   0  0  0  0  0  0  0  0  0  0  0  0
   45.0140   36.3510   42.5530 H   0  0  0  0  0  0  0  0  0  0  0  0
   46.7510   34.5680   42.3990 H   0  0  0  0  0  0  0  0  0  0  0  0
   47.8950   32.5200   46.0640 H   0  0  0  0  0  0  0  0  0  0  0  0
   44.1360   33.3450   47.8520 H   0  0  0  0  0  0  0  0  0  0  0  0
   47.4180   29.1930   46.8540 N   0  0  0  0  0  0  0  0  0  0  0  0
   47.8150   29.2650   45.8800 H   0  0  0  0  0  0  0  0  0  0  0  0
   46.4830   28.7830   47.0750 H   0  0  0  0  0  0  0  0  0  0  0  0
   49.4320   27.5490   47.8990 C   0  0  0  0  0  0  0  0  0  0  0  0
   48.7360   26.5790   48.2410 O   0  0  0  0  0  0  0  0  0  0  0  0
   50.5240   27.3410   46.9100 C   0  0  0  0  0  0  0  0  0  0  0  0
   51.1670   26.0360   46.8710 C   0  0  0  0  0  0  0  0  0  0  0  0
   52.3950   26.2740   45.5510 S   0  0  0  0  0  0  0  0  0  0  0  0
   51.8540   28.0820   45.2620 C   0  0  0  0  0  0  0  0  0  0  0  0
   50.9870   28.2120   46.0560 N   0  0  0  0  0  0  0  0  0  0  0  0
   50.9570   25.2060   47.4540 H   0  0  0  0  0  0  0  0  0  0  0  0
   52.5070   28.8500   44.2780 N   0  0  0  0  0  0  0  0  0  0  0  0
   53.7410   28.3430   43.7350 C   0  0  0  0  0  0  0  0  0  0  0  0
   54.4150   29.2320   42.7530 C   0  0  0  0  0  0  0  0  0  0  0  0
   53.5680   30.0360   41.9470 N   0  0  0  0  0  0  0  0  0  0  0  0
   53.8250   31.0400   42.0280 H   0  0  0  0  0  0  0  0  0  0  0  0
   52.1650   29.9330   42.2270 C   0  0  0  0  0  0  0  0  0  0  0  0
   52.0440   30.1120   43.7490 C   0  0  0  0  0  0  0  0  0  0  0  0
  1  2  1  0  0  0  0
  2  7  1  0  0  0  0
  2  3  2  0  0  0  0
  3  8  1  0  0  0  0
  4  9  1  0  0  0  0
  4  3  1  0  0  0  0
  5  4  2  0  0  0  0
  6  1  2  0  0  0  0
  6  5  1  0  0  0  0
 10 21  1  0  0  0  0
 10 15  1  0  0  0  0
 11 10  2  0  0  0  0
 12 11  1  0  0  0  0
 12 13  2  0  0  0  0
 13 14  1  0  0  0  0
 14 15  2  0  0  0  0
 14 16  1  0  0  0  0
 16 17  1  0  0  0  0
 16 20  1  0  0  0  0
 17 18  2  0  0  0  0
 18  1  1  0  0  0  0
 18 19  1  0  0  0  0
 20 25  1  0  0  0  0
 20 19  2  0  0  0  0
 22 11  1  0  0  0  0
 23 12  1  0  0  0  0
 24 17  1  0  0  0  0
 26 28  1  0  0  0  0
 26  6  1  0  0  0  0
 27 26  1  0  0  0  0
 29 30  2  0  0  0  0
 29  5  1  0  0  0  0
 31 29  1  0  0  0  0
 32 31  2  0  0  0  0
 32 36  1  0  0  0  0
 33 32  1  0  0  0  0
 34 33  1  0  0  0  0
 34 35  2  0  0  0  0
 35 31  1  0  0  0  0
 37 34  1  0  0  0  0
 38 37  1  0  0  0  0
 39 38  1  0  0  0  0
 40 41  1  0  0  0  0
 40 42  1  0  0  0  0
 40 39  1  0  0  0  0
 42 43  1  0  0  0  0
 43 37  1  0  0  0  0
M  END
>  <minimizedAffinity>
-6.20744371

>  <minimizedRMSD>
1.5811646

$$$$
