
 OpenBabel03232520083D

 23 25  0  0  0  0  0  0  0  0999 V2000
   45.8380   33.1090   46.2200 C   0  0  0  0  0  0  0  0  0  0  0  0
   45.4200   32.9520   47.5260 C   0  0  0  0  0  0  0  0  0  0  0  0
   46.0840   32.0750   48.3280 C   0  0  0  0  0  0  0  0  0  0  0  0
   47.1560   31.3950   47.7460 C   0  0  0  0  0  0  0  0  0  0  0  0
   47.2140   32.0040   46.0680 S   0  0  0  0  0  0  0  0  0  0  0  0
   44.5680   33.5440   47.8570 H   0  0  0  0  0  0  0  0  0  0  0  0
   45.8200   31.8950   49.3580 H   0  0  0  0  0  0  0  0  0  0  0  0
   44.3640   35.9850   44.4870 C   0  0  0  0  0  0  0  0  0  0  0  0
   44.3260   35.4990   43.1510 C   0  0  0  0  0  0  0  0  0  0  0  0
   44.8020   34.2080   42.8780 C   0  0  0  0  0  0  0  0  0  0  0  0
   45.2850   33.4780   43.9240 N   0  0  0  0  0  0  0  0  0  0  0  0
   45.3070   33.9650   45.1820 C   0  0  0  0  0  0  0  0  0  0  0  0
   44.8530   35.2040   45.4660 N   0  0  0  0  0  0  0  0  0  0  0  0
   43.9800   36.9810   44.6110 H   0  0  0  0  0  0  0  0  0  0  0  0
   43.9570   36.0350   42.2960 H   0  0  0  0  0  0  0  0  0  0  0  0
   44.7950   33.7940   41.8800 H   0  0  0  0  0  0  0  0  0  0  0  0
   47.9960   30.4350   48.3820 N   0  0  0  0  0  0  0  0  0  0  0  0
   48.7620   30.6310   49.6120 C   0  0  0  0  0  0  0  0  0  0  0  0
   50.2230   30.4940   49.2170 C   0  0  0  0  0  0  0  0  0  0  0  0
   50.4370   29.1370   48.7630 N   0  0  0  0  0  0  0  0  0  0  0  0
   51.4380   28.9390   48.5710 H   0  0  0  0  0  0  0  0  0  0  0  0
   49.6630   28.9530   47.5440 C   0  0  0  0  0  0  0  0  0  0  0  0
   48.1980   29.0930   47.8610 C   0  0  0  0  0  0  0  0  0  0  0  0
  1  2  2  0  0  0  0
  2  6  1  0  0  0  0
  2  3  1  0  0  0  0
  3  7  1  0  0  0  0
  4  3  2  0  0  0  0
  4 17  1  0  0  0  0
  5  1  1  0  0  0  0
  5  4  1  0  0  0  0
  8 14  1  0  0  0  0
  8 13  1  0  0  0  0
  9  8  2  0  0  0  0
 10  9  1  0  0  0  0
 10 11  2  0  0  0  0
 11 12  1  0  0  0  0
 12 13  2  0  0  0  0
 12  1  1  0  0  0  0
 15  9  1  0  0  0  0
 16 10  1  0  0  0  0
 17 18  1  0  0  0  0
 19 18  1  0  0  0  0
 20 19  1  0  0  0  0
 21 20  1  0  0  0  0
 22 23  1  0  0  0  0
 22 20  1  0  0  0  0
 23 17  1  0  0  0  0
M  END
>  <minimizedAffinity>
-4.44471407

>  <minimizedRMSD>
1.10206032

$$$$
