
 OpenBabel03232518233D

 14 14  0  0  0  0  0  0  0  0999 V2000
   44.5900   35.4000   45.4120 C   0  0  0  0  0  0  0  0  0  0  0  0
   44.6960   36.0840   44.1920 C   0  0  0  0  0  0  0  0  0  0  0  0
   45.5230   35.5350   43.1930 C   0  0  0  0  0  0  0  0  0  0  0  0
   46.1700   34.3650   43.4830 N   0  0  0  0  0  0  0  0  0  0  0  0
   46.0300   33.7520   44.6710 C   0  0  0  0  0  0  0  0  0  0  0  0
   45.2540   34.2560   45.6280 N   0  0  0  0  0  0  0  0  0  0  0  0
   43.9350   35.8750   46.1510 H   0  0  0  0  0  0  0  0  0  0  0  0
   44.2220   36.9900   43.9160 H   0  0  0  0  0  0  0  0  0  0  0  0
   45.6990   35.9490   42.2200 H   0  0  0  0  0  0  0  0  0  0  0  0
   46.9120   32.2180   44.9700 S   0  0  0  0  0  0  0  0  0  0  0  0
   46.8370   31.8820   46.7510 C   0  0  0  0  0  0  0  0  0  0  0  0
   47.6350   30.7910   47.0150 F   0  0  0  0  0  0  0  0  0  0  0  0
   47.3510   32.9600   47.4160 F   0  0  0  0  0  0  0  0  0  0  0  0
   45.5350   31.6800   47.1690 F   0  0  0  0  0  0  0  0  0  0  0  0
  1  6  1  0  0  0  0
  1  7  1  0  0  0  0
  2  1  2  0  0  0  0
  3  4  2  0  0  0  0
  3  2  1  0  0  0  0
  4  5  1  0  0  0  0
  5 10  1  0  0  0  0
  5  6  2  0  0  0  0
  8  2  1  0  0  0  0
  9  3  1  0  0  0  0
 10 11  1  0  0  0  0
 11 12  1  0  0  0  0
 11 14  1  0  0  0  0
 11 13  1  0  0  0  0
M  END
>  <minimizedAffinity>
-3.58535886

>  <minimizedRMSD>
1.56714654

$$$$
