
 OpenBabel03232520043D

 31 34  0  0  0  0  0  0  0  0999 V2000
   46.1880   30.4010   49.1470 N   0  0  0  0  0  0  0  0  0  0  0  0
   45.3290   31.4040   49.4470 C   0  0  0  0  0  0  0  0  0  0  0  0
   45.2510   32.2290   48.3750 N   0  0  0  0  0  0  0  0  0  0  0  0
   46.0690   31.7000   47.4500 C   0  0  0  0  0  0  0  0  0  0  0  0
   46.3120   32.2030   46.1840 C   0  0  0  0  0  0  0  0  0  0  0  0
   47.1910   31.5010   45.3930 N   0  0  0  0  0  0  0  0  0  0  0  0
   47.7840   30.3790   45.8250 C   0  0  0  0  0  0  0  0  0  0  0  0
   47.5200   29.9260   47.0610 N   0  0  0  0  0  0  0  0  0  0  0  0
   46.6800   30.5450   47.8980 C   0  0  0  0  0  0  0  0  0  0  0  0
   46.4800   29.5830   49.7600 H   0  0  0  0  0  0  0  0  0  0  0  0
   44.8250   31.4760   50.4000 H   0  0  0  0  0  0  0  0  0  0  0  0
   48.6930   29.6530   45.0060 N   0  0  0  0  0  0  0  0  0  0  0  0
   49.5610   28.6560   45.5490 C   0  0  0  0  0  0  0  0  0  0  0  0
   50.9990   28.8570   45.1320 C   0  0  0  0  0  0  0  0  0  0  0  0
   51.1620   29.2560   43.7760 N   0  0  0  0  0  0  0  0  0  0  0  0
   51.5300   28.5620   43.1210 H   0  0  0  0  0  0  0  0  0  0  0  0
   50.2250   30.2040   43.2720 C   0  0  0  0  0  0  0  0  0  0  0  0
   48.7800   29.8920   43.5790 C   0  0  0  0  0  0  0  0  0  0  0  0
   45.6380   33.6470   45.4350 S   0  0  0  0  0  0  0  0  0  0  0  0
   47.7930   34.6990   42.3450 C   0  0  0  0  0  0  0  0  0  0  0  0
   47.0790   34.3070   41.2100 C   0  0  0  0  0  0  0  0  0  0  0  0
   45.8610   33.6810   41.4270 C   0  0  0  0  0  0  0  0  0  0  0  0
   45.4320   33.4840   42.7070 N   0  0  0  0  0  0  0  0  0  0  0  0
   46.1810   33.8940   43.7710 C   0  0  0  0  0  0  0  0  0  0  0  0
   47.3450   34.4930   43.5850 N   0  0  0  0  0  0  0  0  0  0  0  0
   47.4140   34.4600   40.2060 H   0  0  0  0  0  0  0  0  0  0  0  0
   45.2420   33.3440   40.6090 H   0  0  0  0  0  0  0  0  0  0  0  0
   49.1010   35.3730   42.1430 C   0  0  0  0  0  0  0  0  0  0  0  0
   49.2410   36.1440   41.1630 O   0  0  0  0  0  0  0  0  0  0  0  0
   50.1160   35.1390   43.0230 O   0  0  0  0  0  0  0  0  0  0  0  0
   51.0210   35.5710   42.8840 H   0  0  0  0  0  0  0  0  0  0  0  0
  1  2  1  0  0  0  0
  1 10  1  0  0  0  0
  2 11  1  0  0  0  0
  3  2  2  0  0  0  0
  4  9  1  0  0  0  0
  4  3  1  0  0  0  0
  5  4  2  0  0  0  0
  6  7  2  0  0  0  0
  6  5  1  0  0  0  0
  7  8  1  0  0  0  0
  8  9  2  0  0  0  0
  9  1  1  0  0  0  0
 12 13  1  0  0  0  0
 12  7  1  0  0  0  0
 14 13  1  0  0  0  0
 15 14  1  0  0  0  0
 16 15  1  0  0  0  0
 17 18  1  0  0  0  0
 17 15  1  0  0  0  0
 18 12  1  0  0  0  0
 19  5  1  0  0  0  0
 20 25  1  0  0  0  0
 21 22  1  0  0  0  0
 21 20  2  0  0  0  0
 22 23  2  0  0  0  0
 23 24  1  0  0  0  0
 24 19  1  0  0  0  0
 25 24  2  0  0  0  0
 26 21  1  0  0  0  0
 27 22  1  0  0  0  0
 28 20  1  0  0  0  0
 28 30  1  0  0  0  0
 29 28  2  0  0  0  0
 31 30  1  0  0  0  0
M  END
>  <minimizedAffinity>
-6.12896347

>  <minimizedRMSD>
0.134207889

$$$$
