
 OpenBabel03232520593D

 39 41  0  0  1  0  0  0  0  0999 V2000
   45.3550   32.8800   47.5020 C   0  0  0  0  0  0  0  0  0  0  0  0
   45.9110   32.6250   46.2920 C   0  0  0  0  0  0  0  0  0  0  0  0
   46.1870   31.2800   46.0440 C   0  0  0  0  0  0  0  0  0  0  0  0
   45.9310   30.2870   46.9310 N   0  0  0  0  0  0  0  0  0  0  0  0
   45.3630   30.6050   48.1550 C   0  0  0  0  0  0  0  0  0  0  0  0
   45.0920   31.8750   48.4090 N   0  0  0  0  0  0  0  0  0  0  0  0
   45.1190   29.5860   49.1170 N   0  0  0  0  0  0  0  0  0  0  0  0
   45.1040   33.8860   47.7980 H   0  0  0  0  0  0  0  0  0  0  0  0
   44.8850   28.6070   48.8150 H   0  0  0  0  0  0  0  0  0  0  0  0
   45.1890   29.8740   50.1320 H   0  0  0  0  0  0  0  0  0  0  0  0
   46.1610   33.5820   45.2690 C   0  0  2  0  0  0  0  0  0  0  0  0
   44.9540   34.6780   45.5040 C   0  0  0  0  0  0  0  0  0  0  0  0
   44.7280   35.6150   44.4390 C   0  0  0  0  0  0  0  0  0  0  0  0
   45.5340   35.5490   43.2160 C   0  0  1  0  0  0  0  0  0  0  0  0
   46.5910   34.5440   43.1640 C   0  0  0  0  0  0  0  0  0  0  0  0
   46.1350   33.3070   43.9030 C   0  0  0  0  0  0  0  0  0  0  0  0
   46.9830   34.2860   45.6100 H   0  0  0  0  0  0  0  0  0  0  0  0
   44.2770   34.8260   46.3360 H   0  0  0  0  0  0  0  0  0  0  0  0
   43.9610   36.3370   44.5530 H   0  0  0  0  0  0  0  0  0  0  0  0
   45.9600   36.5640   43.0350 H   0  0  0  0  0  0  0  0  0  0  0  0
   46.8560   34.3450   42.0920 H   0  0  0  0  0  0  0  0  0  0  0  0
   47.5100   34.8950   43.6860 H   0  0  0  0  0  0  0  0  0  0  0  0
   45.1510   33.0310   43.4740 H   0  0  0  0  0  0  0  0  0  0  0  0
   46.9500   32.6430   43.5520 H   0  0  0  0  0  0  0  0  0  0  0  0
   44.5230   35.2920   42.0580 C   0  0  0  0  0  0  0  0  0  0  0  0
   43.4550   34.5040   42.4500 F   0  0  0  0  0  0  0  0  0  0  0  0
   43.9970   36.5390   41.7210 F   0  0  0  0  0  0  0  0  0  0  0  0
   45.1970   34.8260   40.9470 F   0  0  0  0  0  0  0  0  0  0  0  0
   46.8250   30.5890   44.9350 C   0  0  0  0  0  0  0  0  0  0  0  0
   46.4710   29.8250   43.8710 C   0  0  0  0  0  0  0  0  0  0  0  0
   47.6520   29.4380   43.2090 C   0  0  0  0  0  0  0  0  0  0  0  0
   48.6470   29.9880   43.9050 N   0  0  0  0  0  0  0  0  0  0  0  0
   48.1880   30.6710   44.9270 N   0  0  0  0  0  0  0  0  0  0  0  0
   45.4220   29.6470   43.7140 H   0  0  0  0  0  0  0  0  0  0  0  0
   47.6030   28.8250   42.3360 H   0  0  0  0  0  0  0  0  0  0  0  0
   50.0560   29.8130   43.5250 C   0  0  0  0  0  0  0  0  0  0  0  0
   50.1580   28.8970   42.5130 F   0  0  0  0  0  0  0  0  0  0  0  0
   50.8490   29.5490   44.6060 F   0  0  0  0  0  0  0  0  0  0  0  0
   50.5130   31.0320   43.0080 F   0  0  0  0  0  0  0  0  0  0  0  0
  1  8  1  0  0  0  0
  1  6  1  0  0  0  0
  2  1  2  0  0  0  0
  3  2  1  0  0  0  0
  3  4  2  0  0  0  0
  4  5  1  0  0  0  0
  5  6  2  0  0  0  0
  5  7  1  0  0  0  0
  7 10  1  0  0  0  0
  9  7  1  0  0  0  0
 11 12  1  0  0  0  0
 11 17  1  1  0  0  0
 11  2  1  0  0  0  0
 12 18  1  0  0  0  0
 13 19  1  0  0  0  0
 13 12  2  0  0  0  0
 14 20  1  6  0  0  0
 14 13  1  0  0  0  0
 15 14  1  0  0  0  0
 15 22  1  0  0  0  0
 15 16  1  0  0  0  0
 16 11  1  0  0  0  0
 21 15  1  0  0  0  0
 23 16  1  0  0  0  0
 24 16  1  0  0  0  0
 25 26  1  0  0  0  0
 25 14  1  0  0  0  0
 27 25  1  0  0  0  0
 28 25  1  0  0  0  0
 29  3  1  0  0  0  0
 30 29  1  0  0  0  0
 31 30  2  0  0  0  0
 31 32  1  0  0  0  0
 32 33  1  0  0  0  0
 33 29  2  0  0  0  0
 34 30  1  0  0  0  0
 35 31  1  0  0  0  0
 36 32  1  0  0  0  0
 36 38  1  0  0  0  0
 37 36  1  0  0  0  0
 39 36  1  0  0  0  0
M  END
>  <minimizedAffinity>
-5.6685524

>  <minimizedRMSD>
0.438842148

$$$$
