
 OpenBabel03232517423D

 38 41  0  0  0  0  0  0  0  0999 V2000
   42.5470   34.2900   40.2910 C   0  0  0  0  0  0  0  0  0  0  0  0
   41.7870   33.1400   40.5330 C   0  0  0  0  0  0  0  0  0  0  0  0
   40.6370   33.2820   41.2920 C   0  0  0  0  0  0  0  0  0  0  0  0
   40.3010   34.5250   41.7640 N   0  0  0  0  0  0  0  0  0  0  0  0
   41.0540   35.5870   41.5080 C   0  0  0  0  0  0  0  0  0  0  0  0
   42.1600   35.4790   40.7840 N   0  0  0  0  0  0  0  0  0  0  0  0
   43.4560   34.2710   39.7100 H   0  0  0  0  0  0  0  0  0  0  0  0
   40.7780   36.5650   41.8890 H   0  0  0  0  0  0  0  0  0  0  0  0
   39.8640   32.1170   41.5410 N   0  0  0  0  0  0  0  0  0  0  0  0
   40.3930   31.1410   42.3340 C   0  0  0  0  0  0  0  0  0  0  0  0
   39.6240   30.0220   42.5600 C   0  0  0  0  0  0  0  0  0  0  0  0
   38.3610   29.8560   42.0240 C   0  0  0  0  0  0  0  0  0  0  0  0
   37.7360   28.8100   42.2800 O   0  0  0  0  0  0  0  0  0  0  0  0
   37.8670   30.8490   41.2380 N   0  0  0  0  0  0  0  0  0  0  0  0
   38.6170   31.9360   41.0200 C   0  0  0  0  0  0  0  0  0  0  0  0
   38.1190   32.8260   40.2900 O   0  0  0  0  0  0  0  0  0  0  0  0
   41.3850   31.2530   42.7660 H   0  0  0  0  0  0  0  0  0  0  0  0
   36.9160   30.7500   40.8200 H   0  0  0  0  0  0  0  0  0  0  0  0
   40.2250   28.9590   43.4360 C   0  0  0  0  0  0  0  0  0  0  0  0
   39.4330   28.3660   43.9360 H   0  0  0  0  0  0  0  0  0  0  0  0
   40.9050   29.3550   44.1880 H   0  0  0  0  0  0  0  0  0  0  0  0
   40.7840   28.2720   42.7380 H   0  0  0  0  0  0  0  0  0  0  0  0
   42.2540   31.9330   39.9860 N   0  0  0  0  0  0  0  0  0  0  0  0
   43.2750   31.3250   40.4800 N   0  0  0  0  0  0  0  0  0  0  0  0
   43.5390   30.1880   39.7930 C   0  0  0  0  0  0  0  0  0  0  0  0
   42.5500   30.1600   38.8010 C   0  0  0  0  0  0  0  0  0  0  0  0
   41.7310   31.2790   38.9290 C   0  0  0  0  0  0  0  0  0  0  0  0
   44.3140   29.4850   39.9670 H   0  0  0  0  0  0  0  0  0  0  0  0
   42.4770   29.3720   38.0730 H   0  0  0  0  0  0  0  0  0  0  0  0
   40.5890   31.6360   38.1060 C   0  0  0  0  0  0  0  0  0  0  0  0
   40.3370   32.8050   37.7120 O   0  0  0  0  0  0  0  0  0  0  0  0
   39.6340   30.6210   37.6760 C   0  0  0  0  0  0  0  0  0  0  0  0
   39.2850   30.5290   36.3440 C   0  0  0  0  0  0  0  0  0  0  0  0
   38.3730   29.5730   35.8810 C   0  0  0  0  0  0  0  0  0  0  0  0
   37.8180   28.7180   36.7440 N   0  0  0  0  0  0  0  0  0  0  0  0
   38.1630   28.8100   38.0570 C   0  0  0  0  0  0  0  0  0  0  0  0
   37.7200   28.1190   38.7820 H   0  0  0  0  0  0  0  0  0  0  0  0
   39.0470   29.7340   38.5240 N   0  0  0  0  0  0  0  0  0  0  0  0
  1  2  2  0  0  0  0
  1  6  1  0  0  0  0
  2  3  1  0  0  0  0
  3  9  1  0  0  0  0
  3  4  2  0  0  0  0
  5  4  1  0  0  0  0
  5  8  1  0  0  0  0
  6  5  2  0  0  0  0
  7  1  1  0  0  0  0
  9 10  1  0  0  0  0
 10 11  2  0  0  0  0
 10 17  1  0  0  0  0
 11 19  1  0  0  0  0
 12 13  2  0  0  0  0
 12 11  1  0  0  0  0
 14 12  1  0  0  0  0
 15 14  1  0  0  0  0
 15  9  1  0  0  0  0
 16 15  2  0  0  0  0
 18 14  1  0  0  0  0
 19 20  1  0  0  0  0
 19 21  1  0  0  0  0
 22 19  1  0  0  0  0
 23 24  1  0  0  0  0
 23  2  1  0  0  0  0
 25 28  1  0  0  0  0
 25 24  2  0  0  0  0
 26 27  2  0  0  0  0
 26 25  1  0  0  0  0
 27 23  1  0  0  0  0
 29 26  1  0  0  0  0
 30 27  1  0  0  0  0
 31 30  2  0  0  0  0
 32 30  1  0  0  0  0
 32 38  1  0  0  0  0
 33 32  2  0  0  0  0
 34 33  1  0  0  0  0
 34 35  2  0  0  0  0
 35 36  1  0  0  0  0
 36 38  2  0  0  0  0
 36 37  1  0  0  0  0
M  END
>  <minimizedAffinity>
-4.73768759

>  <minimizedRMSD>
5.05834246

$$$$
