
 OpenBabel03232520593D

 39 41  0  0  1  0  0  0  0  0999 V2000
   45.3570   32.8990   47.5160 C   0  0  0  0  0  0  0  0  0  0  0  0
   45.9070   32.6370   46.3050 C   0  0  0  0  0  0  0  0  0  0  0  0
   46.1770   31.2890   46.0620 C   0  0  0  0  0  0  0  0  0  0  0  0
   45.9190   30.3010   46.9540 N   0  0  0  0  0  0  0  0  0  0  0  0
   45.3570   30.6270   48.1790 C   0  0  0  0  0  0  0  0  0  0  0  0
   45.0920   31.8990   48.4280 N   0  0  0  0  0  0  0  0  0  0  0  0
   45.1120   29.6140   49.1450 N   0  0  0  0  0  0  0  0  0  0  0  0
   45.1120   33.9080   47.8090 H   0  0  0  0  0  0  0  0  0  0  0  0
   44.8710   28.6340   48.8490 H   0  0  0  0  0  0  0  0  0  0  0  0
   45.1860   29.9060   50.1590 H   0  0  0  0  0  0  0  0  0  0  0  0
   46.1590   33.5880   45.2770 C   0  0  2  0  0  0  0  0  0  0  0  0
   44.9510   34.6850   45.5040 C   0  0  0  0  0  0  0  0  0  0  0  0
   44.7260   35.6160   44.4340 C   0  0  0  0  0  0  0  0  0  0  0  0
   45.5330   35.5430   43.2120 C   0  0  1  0  0  0  0  0  0  0  0  0
   46.5900   34.5390   43.1670 C   0  0  0  0  0  0  0  0  0  0  0  0
   46.1340   33.3060   43.9130 C   0  0  0  0  0  0  0  0  0  0  0  0
   46.9800   34.2940   45.6150 H   0  0  0  0  0  0  0  0  0  0  0  0
   44.2730   34.8380   46.3350 H   0  0  0  0  0  0  0  0  0  0  0  0
   43.9580   36.3380   44.5440 H   0  0  0  0  0  0  0  0  0  0  0  0
   45.9590   36.5570   43.0260 H   0  0  0  0  0  0  0  0  0  0  0  0
   46.8570   34.3330   42.0960 H   0  0  0  0  0  0  0  0  0  0  0  0
   47.5090   34.8930   43.6880 H   0  0  0  0  0  0  0  0  0  0  0  0
   45.1500   33.0270   43.4840 H   0  0  0  0  0  0  0  0  0  0  0  0
   46.9490   32.6400   43.5660 H   0  0  0  0  0  0  0  0  0  0  0  0
   44.5230   35.2800   42.0550 C   0  0  0  0  0  0  0  0  0  0  0  0
   43.4640   34.4790   42.4450 F   0  0  0  0  0  0  0  0  0  0  0  0
   43.9830   36.5230   41.7240 F   0  0  0  0  0  0  0  0  0  0  0  0
   45.2000   34.8260   40.9410 F   0  0  0  0  0  0  0  0  0  0  0  0
   46.8070   30.5910   44.9540 C   0  0  0  0  0  0  0  0  0  0  0  0
   46.4460   29.8280   43.8910 C   0  0  0  0  0  0  0  0  0  0  0  0
   47.6230   29.4290   43.2300 C   0  0  0  0  0  0  0  0  0  0  0  0
   48.6230   29.9710   43.9240 N   0  0  0  0  0  0  0  0  0  0  0  0
   48.1710   30.6600   44.9440 N   0  0  0  0  0  0  0  0  0  0  0  0
   45.3950   29.6600   43.7350 H   0  0  0  0  0  0  0  0  0  0  0  0
   47.5670   28.8150   42.3570 H   0  0  0  0  0  0  0  0  0  0  0  0
   50.0300   29.7820   43.5430 C   0  0  0  0  0  0  0  0  0  0  0  0
   50.5390   30.9480   43.0390 F   0  0  0  0  0  0  0  0  0  0  0  0
   50.2010   28.6950   42.7340 F   0  0  0  0  0  0  0  0  0  0  0  0
   50.7540   29.5020   44.7110 F   0  0  0  0  0  0  0  0  0  0  0  0
  1  8  1  0  0  0  0
  1  6  1  0  0  0  0
  2  1  2  0  0  0  0
  3  2  1  0  0  0  0
  3  4  2  0  0  0  0
  4  5  1  0  0  0  0
  5  6  2  0  0  0  0
  5  7  1  0  0  0  0
  7 10  1  0  0  0  0
  9  7  1  0  0  0  0
 11 12  1  0  0  0  0
 11 17  1  1  0  0  0
 11  2  1  0  0  0  0
 12 18  1  0  0  0  0
 13 19  1  0  0  0  0
 13 12  2  0  0  0  0
 14 20  1  6  0  0  0
 14 13  1  0  0  0  0
 15 14  1  0  0  0  0
 15 22  1  0  0  0  0
 15 16  1  0  0  0  0
 16 11  1  0  0  0  0
 21 15  1  0  0  0  0
 23 16  1  0  0  0  0
 24 16  1  0  0  0  0
 25 26  1  0  0  0  0
 25 14  1  0  0  0  0
 27 25  1  0  0  0  0
 28 25  1  0  0  0  0
 29  3  1  0  0  0  0
 30 29  1  0  0  0  0
 31 30  2  0  0  0  0
 31 32  1  0  0  0  0
 32 33  1  0  0  0  0
 33 29  2  0  0  0  0
 34 30  1  0  0  0  0
 35 31  1  0  0  0  0
 36 32  1  0  0  0  0
 36 39  1  0  0  0  0
 37 36  1  0  0  0  0
 38 36  1  0  0  0  0
M  END
>  <minimizedAffinity>
-5.66697311

>  <minimizedRMSD>
0.167055383

$$$$
