
 OpenBabel03232518143D

 39 43  0  0  0  0  0  0  0  0999 V2000
   46.5430   31.2560   46.0270 C   0  0  0  0  0  0  0  0  0  0  0  0
   45.8420   31.7220   47.1460 C   0  0  0  0  0  0  0  0  0  0  0  0
   45.0700   30.6570   47.5640 C   0  0  0  0  0  0  0  0  0  0  0  0
   45.3000   29.6170   46.7390 N   0  0  0  0  0  0  0  0  0  0  0  0
   46.1760   29.9570   45.8170 N   0  0  0  0  0  0  0  0  0  0  0  0
   46.0290   32.7410   47.4370 H   0  0  0  0  0  0  0  0  0  0  0  0
   44.4430   30.8150   48.4320 H   0  0  0  0  0  0  0  0  0  0  0  0
   44.6390   28.3610   46.9250 C   0  0  0  0  0  0  0  0  0  0  0  0
   43.6490   27.8080   45.9740 C   0  0  0  0  0  0  0  0  0  0  0  0
   43.2300   26.2000   46.8380 S   0  0  0  0  0  0  0  0  0  0  0  0
   44.4250   26.5830   48.2490 C   0  0  0  0  0  0  0  0  0  0  0  0
   44.8650   27.5820   47.9780 N   0  0  0  0  0  0  0  0  0  0  0  0
   43.3990   28.3400   45.1110 H   0  0  0  0  0  0  0  0  0  0  0  0
   44.6640   25.6860   49.4310 C   0  0  0  0  0  0  0  0  0  0  0  0
   43.8510   25.6010   50.5390 C   0  0  0  0  0  0  0  0  0  0  0  0
   44.4580   24.6870   51.3090 N   0  0  0  0  0  0  0  0  0  0  0  0
   45.5870   24.1860   50.7810 C   0  0  0  0  0  0  0  0  0  0  0  0
   46.4670   23.2440   51.2710 C   0  0  0  0  0  0  0  0  0  0  0  0
   47.5620   22.9190   50.4970 C   0  0  0  0  0  0  0  0  0  0  0  0
   47.7200   23.5470   49.2830 C   0  0  0  0  0  0  0  0  0  0  0  0
   46.8240   24.4840   48.8200 C   0  0  0  0  0  0  0  0  0  0  0  0
   45.7290   24.8230   49.5720 C   0  0  0  0  0  0  0  0  0  0  0  0
   44.0730   24.3980   52.2400 H   0  0  0  0  0  0  0  0  0  0  0  0
   47.7350   31.9060   44.8830 S   0  0  0  0  0  0  0  0  0  0  0  0
   47.2970   34.8810   42.1990 C   0  0  0  0  0  0  0  0  0  0  0  0
   47.8370   33.7800   42.8720 C   0  0  0  0  0  0  0  0  0  0  0  0
   47.1530   33.2770   43.9650 C   0  0  0  0  0  0  0  0  0  0  0  0
   45.9940   33.8780   44.3300 N   0  0  0  0  0  0  0  0  0  0  0  0
   45.5010   34.9420   43.6560 C   0  0  0  0  0  0  0  0  0  0  0  0
   46.1450   35.4260   42.6140 N   0  0  0  0  0  0  0  0  0  0  0  0
   48.7750   33.2750   42.5960 H   0  0  0  0  0  0  0  0  0  0  0  0
   44.5660   35.3890   43.9890 H   0  0  0  0  0  0  0  0  0  0  0  0
   48.1460   35.3070   41.0440 C   0  0  0  0  0  0  0  0  0  0  0  0
   48.5330   34.3980   40.5350 H   0  0  0  0  0  0  0  0  0  0  0  0
   47.4810   35.8240   40.3260 H   0  0  0  0  0  0  0  0  0  0  0  0
   49.2750   36.1740   41.5170 C   0  0  0  0  0  0  0  0  0  0  0  0
   49.0590   36.6390   42.5110 H   0  0  0  0  0  0  0  0  0  0  0  0
   49.4450   37.0270   40.8120 H   0  0  0  0  0  0  0  0  0  0  0  0
   50.2470   35.6280   41.5700 H   0  0  0  0  0  0  0  0  0  0  0  0
  1  2  1  0  0  0  0
  2  6  1  0  0  0  0
  2  3  2  0  0  0  0
  3  7  1  0  0  0  0
  4  8  1  0  0  0  0
  4  3  1  0  0  0  0
  5  1  2  0  0  0  0
  5  4  1  0  0  0  0
  8 12  1  0  0  0  0
  9 10  1  0  0  0  0
  9  8  2  0  0  0  0
 10 11  1  0  0  0  0
 11 14  1  0  0  0  0
 12 11  2  0  0  0  0
 13  9  1  0  0  0  0
 14 22  1  0  0  0  0
 14 15  2  0  0  0  0
 15 16  1  0  0  0  0
 16 23  1  0  0  0  0
 17 18  1  0  0  0  0
 17 16  1  0  0  0  0
 19 18  2  0  0  0  0
 20 19  1  0  0  0  0
 21 20  2  0  0  0  0
 21 22  1  0  0  0  0
 22 17  2  0  0  0  0
 24  1  1  0  0  0  0
 25 30  2  0  0  0  0
 25 26  1  0  0  0  0
 26 27  2  0  0  0  0
 27 28  1  0  0  0  0
 27 24  1  0  0  0  0
 29 32  1  0  0  0  0
 29 28  2  0  0  0  0
 30 29  1  0  0  0  0
 31 26  1  0  0  0  0
 33 36  1  0  0  0  0
 33 25  1  0  0  0  0
 34 33  1  0  0  0  0
 35 33  1  0  0  0  0
 36 39  1  0  0  0  0
 36 37  1  0  0  0  0
 38 36  1  0  0  0  0
M  END
>  <minimizedAffinity>
-6.11606741

>  <minimizedRMSD>
0.98426789

$$$$
