
     RDKit          3D

 38 41  0  0  0  0  0  0  0  0999 V2000
   45.2586   32.9565   47.4529 C   0  0  0  0  0  0  0  0  0  0  0  0
   45.7794   32.7612   46.1745 C   0  0  0  0  0  0  0  0  0  0  0  0
   46.1209   31.4358   45.8232 C   0  0  0  0  0  0  0  0  0  0  0  0
   45.9331   30.4375   46.7203 N   0  0  0  0  0  0  0  0  0  0  0  0
   45.4230   30.6743   47.9545 C   0  0  0  0  0  0  0  0  0  0  0  0
   45.0893   31.9363   48.3102 N   0  0  0  0  0  0  0  0  0  0  0  0
   45.9599   33.9000   45.2711 C   0  0  2  0  0  0  0  0  0  0  0  0
   44.8505   34.8997   45.5027 C   0  0  0  0  0  0  0  0  0  0  0  0
   44.5401   35.8086   44.4190 C   0  0  0  0  0  0  0  0  0  0  0  0
   45.2831   35.7463   43.1556 C   0  0  1  0  0  0  0  0  0  0  0  0
   46.4411   34.8107   43.1099 C   0  0  0  0  0  0  0  0  0  0  0  0
   46.0631   33.5341   43.8211 C   0  0  0  0  0  0  0  0  0  0  0  0
   44.9621   33.9250   47.8325 H   0  0  0  0  0  0  0  0  0  0  0  0
   46.5282   31.2101   44.8509 H   0  0  0  0  0  0  0  0  0  0  0  0
   45.2777   29.8685   48.6623 H   0  0  0  0  0  0  0  0  0  0  0  0
   46.9164   34.4097   45.5911 H   0  0  0  0  0  0  0  0  0  0  0  0
   44.2148   35.0873   46.3367 H   0  0  0  0  0  0  0  0  0  0  0  0
   43.7704   36.5313   44.5265 H   0  0  0  0  0  0  0  0  0  0  0  0
   45.6929   36.7774   42.9835 H   0  0  0  0  0  0  0  0  0  0  0  0
   46.6739   34.5900   42.0529 H   0  0  0  0  0  0  0  0  0  0  0  0
   47.2910   35.2626   43.6637 H   0  0  0  0  0  0  0  0  0  0  0  0
   45.0887   33.1265   43.4773 H   0  0  0  0  0  0  0  0  0  0  0  0
   46.8885   32.8074   43.6946 H   0  0  0  0  0  0  0  0  0  0  0  0
   44.3245   35.4663   42.0548 C   0  0  0  0  0  0  0  0  0  0  0  0
   44.4679   34.7082   40.8931 C   0  0  0  0  0  0  0  0  0  0  0  0
   43.3235   34.7375   40.1817 N   0  0  0  0  0  0  0  0  0  0  0  0
   42.3916   35.4986   40.8245 C   0  0  0  0  0  0  0  0  0  0  0  0
   41.0832   35.8803   40.5886 C   0  0  0  0  0  0  0  0  0  0  0  0
   40.3845   36.6868   41.4615 C   0  0  0  0  0  0  0  0  0  0  0  0
   41.0300   37.1164   42.6026 C   0  0  0  0  0  0  0  0  0  0  0  0
   42.3430   36.7532   42.8724 C   0  0  0  0  0  0  0  0  0  0  0  0
   43.0218   35.9413   41.9771 C   0  0  0  0  0  0  0  0  0  0  0  0
   45.3925   34.1830   40.6364 H   0  0  0  0  0  0  0  0  0  0  0  0
   43.1202   34.2676   39.2674 H   0  0  0  0  0  0  0  0  0  0  0  0
   40.6165   35.5125   39.6686 H   0  0  0  0  0  0  0  0  0  0  0  0
   39.3607   36.9863   41.2781 H   0  0  0  0  0  0  0  0  0  0  0  0
   40.5308   37.7619   43.3414 H   0  0  0  0  0  0  0  0  0  0  0  0
   42.8174   37.1142   43.7861 H   0  0  0  0  0  0  0  0  0  0  0  0
  1  6  2  0
  2  1  1  0
  3  2  2  0
  3  4  1  0
  4  5  2  0
  5  6  1  0
  7  8  1  0
  7  2  1  0
  9  8  2  0
 10  9  1  0
 11 10  1  0
 11 12  1  0
 12  7  1  0
  1 13  1  0
  3 14  1  0
  5 15  1  0
  7 16  1  1
  8 17  1  0
  9 18  1  0
 10 19  1  6
 11 20  1  0
 11 21  1  0
 12 22  1  0
 12 23  1  0
 24 25  2  0
 25 26  1  0
 26 27  1  0
 27 28  2  0
 28 29  1  0
 29 30  2  0
 30 31  1  0
 31 32  2  0
 32 24  1  0
 32 27  1  0
 25 33  1  0
 26 34  1  0
 28 35  1  0
 29 36  1  0
 30 37  1  0
 31 38  1  0
 10 24  1  0
M  ISO  8  13  14  14  14  15  14  16  13  17  13  18  13  19  13  20  13
M  ISO  3  21  13  22  13  23  13
M  END
>  <DihAtoms>  (1) 
8,9,23,24

>  <DihDeg>  (1) 
-39.474194074635356

$$$$
