
 OpenBabel03232520513D

 33 36  0  0  1  0  0  0  0  0999 V2000
   45.9420   34.2310   43.7150 C   0  0  2  0  0  0  0  0  0  0  0  0
   44.6730   35.0330   43.8970 C   0  0  0  0  0  0  0  0  0  0  0  0
   43.9960   35.4820   42.6980 C   0  0  0  0  0  0  0  0  0  0  0  0
   44.5340   35.1610   41.3710 C   0  0  1  0  0  0  0  0  0  0  0  0
   45.8610   34.4860   41.3360 C   0  0  0  0  0  0  0  0  0  0  0  0
   45.9100   33.4520   42.4350 C   0  0  0  0  0  0  0  0  0  0  0  0
   46.7850   34.9810   43.6690 H   0  0  0  0  0  0  0  0  0  0  0  0
   44.1450   35.3550   44.7630 H   0  0  0  0  0  0  0  0  0  0  0  0
   43.1010   36.0480   42.7650 H   0  0  0  0  0  0  0  0  0  0  0  0
   44.6550   36.1410   40.8380 H   0  0  0  0  0  0  0  0  0  0  0  0
   45.9780   33.9900   40.3560 H   0  0  0  0  0  0  0  0  0  0  0  0
   46.6520   35.2370   41.5480 H   0  0  0  0  0  0  0  0  0  0  0  0
   45.0210   32.7870   42.4340 H   0  0  0  0  0  0  0  0  0  0  0  0
   46.8570   32.8860   42.3390 H   0  0  0  0  0  0  0  0  0  0  0  0
   43.5160   34.3780   40.6230 C   0  0  0  0  0  0  0  0  0  0  0  0
   43.6170   33.1660   39.9420 C   0  0  0  0  0  3  0  0  0  0  0  0
   42.4250   32.8370   39.4090 N   0  0  0  0  0  0  0  0  0  0  0  0
   41.4980   33.7930   39.7050 C   0  0  0  0  0  0  0  0  0  0  0  0
   40.1550   33.9940   39.4420 C   0  0  0  0  0  3  0  0  0  0  0  0
   39.4760   35.1040   39.8990 C   0  0  0  0  0  3  0  0  0  0  0  0
   40.1770   36.0310   40.6410 C   0  0  0  0  0  3  0  0  0  0  0  0
   41.5260   35.8620   40.9250 C   0  0  0  0  0  3  0  0  0  0  0  0
   42.1840   34.7370   40.4530 C   0  0  0  0  0  0  0  0  0  0  0  0
   42.1830   31.9870   38.8430 H   0  0  0  0  0  0  0  0  0  0  0  0
   45.4890   33.7020   46.0940 C   0  0  0  0  0  0  0  0  0  0  0  0
   46.1760   33.4220   44.9140 C   0  0  0  0  0  0  0  0  0  0  0  0
   47.0930   32.3480   44.9520 C   0  0  0  0  0  0  0  0  0  0  0  0
   47.2610   31.6550   46.1040 N   0  0  0  0  0  0  0  0  0  0  0  0
   46.5700   31.9630   47.2310 C   0  0  0  0  0  0  0  0  0  0  0  0
   45.6860   32.9870   47.2140 N   0  0  0  0  0  0  0  0  0  0  0  0
   44.7630   34.5000   46.1850 H   0  0  0  0  0  0  0  0  0  0  0  0
   47.6590   32.0740   44.0770 H   0  0  0  0  0  0  0  0  0  0  0  0
   46.7120   31.4020   48.1440 H   0  0  0  0  0  0  0  0  0  0  0  0
  1  7  1  6  0  0  0
  1  2  1  0  0  0  0
  1 26  1  0  0  0  0
  2  8  1  0  0  0  0
  3  9  1  0  0  0  0
  3  2  2  0  0  0  0
  4 10  1  6  0  0  0
  4  3  1  0  0  0  0
  5  4  1  0  0  0  0
  5 12  1  0  0  0  0
  5  6  1  0  0  0  0
  6  1  1  0  0  0  0
 11  5  1  0  0  0  0
 13  6  1  0  0  0  0
 14  6  1  0  0  0  0
 15  4  1  0  0  0  0
 16 15  2  0  0  0  0
 17 18  1  0  0  0  0
 17 16  1  0  0  0  0
 18 23  1  0  0  0  0
 19 18  2  0  0  0  0
 19 20  1  0  0  0  0
 20 21  2  0  0  0  0
 21 22  1  0  0  0  0
 23 15  1  0  0  0  0
 23 22  2  0  0  0  0
 24 17  1  0  0  0  0
 25 31  1  0  0  0  0
 25 30  1  0  0  0  0
 26 27  1  0  0  0  0
 26 25  2  0  0  0  0
 27 28  2  0  0  0  0
 28 29  1  0  0  0  0
 29 33  1  0  0  0  0
 30 29  2  0  0  0  0
 32 27  1  0  0  0  0
M  END
>  <minimizedAffinity>
-6.04886866

>  <minimizedRMSD>
2.00302911

$$$$
