
 OpenBabel03232520513D

 33 36  0  0  1  0  0  0  0  0999 V2000
   46.3360   33.4460   45.3930 C   0  0  2  0  0  0  0  0  0  0  0  0
   45.1700   34.3870   45.1940 C   0  0  0  0  0  0  0  0  0  0  0  0
   45.1500   35.1680   43.9750 C   0  0  0  0  0  0  0  0  0  0  0  0
   46.2250   35.0360   42.9860 C   0  0  1  0  0  0  0  0  0  0  0  0
   47.3810   34.1800   43.3680 C   0  0  0  0  0  0  0  0  0  0  0  0
   46.8630   32.9530   44.0790 C   0  0  0  0  0  0  0  0  0  0  0  0
   47.1410   34.0460   45.9110 H   0  0  0  0  0  0  0  0  0  0  0  0
   44.3170   34.6090   45.7910 H   0  0  0  0  0  0  0  0  0  0  0  0
   44.3550   35.8440   43.7820 H   0  0  0  0  0  0  0  0  0  0  0  0
   46.6290   36.0710   42.8240 H   0  0  0  0  0  0  0  0  0  0  0  0
   47.9150   33.8770   42.4500 H   0  0  0  0  0  0  0  0  0  0  0  0
   48.0200   34.7370   44.0860 H   0  0  0  0  0  0  0  0  0  0  0  0
   46.0440   32.4520   43.5220 H   0  0  0  0  0  0  0  0  0  0  0  0
   47.7170   32.2740   44.2700 H   0  0  0  0  0  0  0  0  0  0  0  0
   45.6330   34.5910   41.6970 C   0  0  0  0  0  0  0  0  0  0  0  0
   46.2040   33.9260   40.6130 C   0  0  0  0  0  3  0  0  0  0  0  0
   45.2770   33.7270   39.6550 N   0  0  0  0  0  0  0  0  0  0  0  0
   44.0770   34.2420   40.0510 C   0  0  0  0  0  0  0  0  0  0  0  0
   42.8070   34.3340   39.5120 C   0  0  0  0  0  3  0  0  0  0  0  0
   41.7650   34.9350   40.1840 C   0  0  0  0  0  3  0  0  0  0  0  0
   42.0190   35.4560   41.4360 C   0  0  0  0  0  3  0  0  0  0  0  0
   43.2810   35.3810   42.0100 C   0  0  0  0  0  3  0  0  0  0  0  0
   44.3110   34.7710   41.3110 C   0  0  0  0  0  0  0  0  0  0  0  0
   45.3990   33.2570   38.7270 H   0  0  0  0  0  0  0  0  0  0  0  0
   45.4050   32.7130   47.5700 C   0  0  0  0  0  0  0  0  0  0  0  0
   45.9460   32.3870   46.3280 C   0  0  0  0  0  0  0  0  0  0  0  0
   46.1010   31.0120   46.0430 C   0  0  0  0  0  0  0  0  0  0  0  0
   45.7260   30.0930   46.9660 N   0  0  0  0  0  0  0  0  0  0  0  0
   45.2020   30.4560   48.1640 C   0  0  0  0  0  0  0  0  0  0  0  0
   45.0460   31.7680   48.4550 N   0  0  0  0  0  0  0  0  0  0  0  0
   45.2400   33.7310   47.8990 H   0  0  0  0  0  0  0  0  0  0  0  0
   46.5120   30.6850   45.1020 H   0  0  0  0  0  0  0  0  0  0  0  0
   44.9070   29.7140   48.8920 H   0  0  0  0  0  0  0  0  0  0  0  0
  1  7  1  1  0  0  0
  1 26  1  0  0  0  0
  2  1  1  0  0  0  0
  2  8  1  0  0  0  0
  3  2  2  0  0  0  0
  4 10  1  6  0  0  0
  4  5  1  0  0  0  0
  4  3  1  0  0  0  0
  5  6  1  0  0  0  0
  5 12  1  0  0  0  0
  6 14  1  0  0  0  0
  6  1  1  0  0  0  0
  9  3  1  0  0  0  0
 11  5  1  0  0  0  0
 13  6  1  0  0  0  0
 15  4  1  0  0  0  0
 16 15  2  0  0  0  0
 17 18  1  0  0  0  0
 17 16  1  0  0  0  0
 18 23  1  0  0  0  0
 19 18  2  0  0  0  0
 19 20  1  0  0  0  0
 20 21  2  0  0  0  0
 21 22  1  0  0  0  0
 23 15  1  0  0  0  0
 23 22  2  0  0  0  0
 24 17  1  0  0  0  0
 25 31  1  0  0  0  0
 25 30  1  0  0  0  0
 26 25  2  0  0  0  0
 27 26  1  0  0  0  0
 27 28  2  0  0  0  0
 28 29  1  0  0  0  0
 29 30  2  0  0  0  0
 29 33  1  0  0  0  0
 32 27  1  0  0  0  0
M  END
>  <minimizedAffinity>
-6.45843935

>  <minimizedRMSD>
1.48942482

$$$$
