
 OpenBabel03232519313D

 41 44  0  0  1  0  0  0  0  0999 V2000
   47.1210   34.3750   40.3450 C   0  0  1  0  0  0  0  0  0  0  0  0
   48.4180   34.5230   39.5010 C   0  0  0  0  0  0  0  0  0  0  0  0
   48.0210   34.1660   38.0810 C   0  0  0  0  0  0  0  0  0  0  0  0
   47.7650   32.6850   38.0340 C   0  0  0  0  0  0  0  0  0  0  0  0
   47.5610   32.0920   39.3980 C   0  0  0  0  0  0  0  0  0  0  0  0
   46.6960   32.9660   40.3100 C   0  0  2  0  0  0  0  0  0  0  0  0
   46.4340   35.1240   39.9420 H   0  0  0  0  0  0  0  0  0  0  0  0
   49.1340   33.7980   39.9050 H   0  0  0  0  0  0  0  0  0  0  0  0
   48.7970   35.5640   39.5520 H   0  0  0  0  0  0  0  0  0  0  0  0
   48.8440   34.4600   37.3850 H   0  0  0  0  0  0  0  0  0  0  0  0
   47.1320   34.7510   37.7910 H   0  0  0  0  0  0  0  0  0  0  0  0
   47.0400   32.3620   37.2740 H   0  0  0  0  0  0  0  0  0  0  0  0
   48.7480   32.2400   37.6730 H   0  0  0  0  0  0  0  0  0  0  0  0
   48.5300   31.8490   39.9080 H   0  0  0  0  0  0  0  0  0  0  0  0
   47.0550   31.1160   39.2760 H   0  0  0  0  0  0  0  0  0  0  0  0
   46.9200   32.5330   41.3370 H   0  0  0  0  0  0  0  0  0  0  0  0
   45.3190   32.6520   39.9010 C   0  0  0  0  0  0  0  0  0  0  0  0
   44.9490   31.4620   39.3210 C   0  0  0  0  0  0  0  0  0  0  0  0
   43.6370   31.4350   39.0260 N   0  0  0  0  0  0  0  0  0  0  0  0
   43.0630   32.5930   39.3880 C   0  0  0  0  0  0  0  0  0  0  0  0
   41.8080   33.1860   39.3680 C   0  0  0  0  0  0  0  0  0  0  0  0
   41.5990   34.4570   39.8620 C   0  0  0  0  0  0  0  0  0  0  0  0
   42.6320   35.1960   40.3970 C   0  0  0  0  0  0  0  0  0  0  0  0
   43.8720   34.6100   40.4150 C   0  0  0  0  0  0  0  0  0  0  0  0
   44.0880   33.3300   39.9190 C   0  0  0  0  0  0  0  0  0  0  0  0
   42.9710   30.7330   38.5850 H   0  0  0  0  0  0  0  0  0  0  0  0
   47.4600   34.8460   41.7790 C   0  0  0  0  0  0  0  0  0  0  0  0
   47.1820   35.8630   41.9760 H   0  0  0  0  0  0  0  0  0  0  0  0
   48.5980   34.8270   41.8420 H   0  0  0  0  0  0  0  0  0  0  0  0
   46.8920   33.7780   42.6800 C   0  0  0  0  0  0  0  0  0  0  0  0
   46.1780   33.1110   42.1110 H   0  0  0  0  0  0  0  0  0  0  0  0
   47.7010   33.1670   43.1470 H   0  0  0  0  0  0  0  0  0  0  0  0
   45.9840   33.6980   44.9410 C   0  0  0  0  0  0  0  0  0  0  0  0
   46.0760   34.3640   43.7030 C   0  0  0  0  0  0  0  0  0  0  0  0
   45.3750   35.5260   43.5050 C   0  0  0  0  0  0  0  0  0  0  0  0
   44.6100   35.9900   44.5370 N   0  0  0  0  0  0  0  0  0  0  0  0
   44.5180   35.3520   45.7310 C   0  0  0  0  0  0  0  0  0  0  0  0
   45.2100   34.2030   45.9270 N   0  0  0  0  0  0  0  0  0  0  0  0
   46.5330   32.7880   45.0930 H   0  0  0  0  0  0  0  0  0  0  0  0
   45.3220   36.1520   42.6340 H   0  0  0  0  0  0  0  0  0  0  0  0
   43.8910   35.7880   46.4880 H   0  0  0  0  0  0  0  0  0  0  0  0
  1  7  1  6  0  0  0
  1 27  1  0  0  0  0
  2  9  1  0  0  0  0
  2  8  1  0  0  0  0
  2  1  1  0  0  0  0
  3  2  1  0  0  0  0
  4  3  1  0  0  0  0
  4  5  1  0  0  0  0
  5 14  1  0  0  0  0
  5  6  1  0  0  0  0
  6  1  1  0  0  0  0
  6 16  1  1  0  0  0
 10  3  1  0  0  0  0
 11  3  1  0  0  0  0
 12  4  1  0  0  0  0
 13  4  1  0  0  0  0
 15  5  1  0  0  0  0
 17 25  1  0  0  0  0
 17  6  1  0  0  0  0
 18 17  2  0  0  0  0
 19 18  1  0  0  0  0
 19 20  1  0  0  0  0
 20 25  1  0  0  0  0
 21 20  2  0  0  0  0
 21 22  1  0  0  0  0
 22 23  2  0  0  0  0
 23 24  1  0  0  0  0
 25 24  2  0  0  0  0
 26 19  1  0  0  0  0
 27 29  1  0  0  0  0
 27 28  1  0  0  0  0
 27 30  1  0  0  0  0
 30 32  1  0  0  0  0
 30 34  1  0  0  0  0
 31 30  1  0  0  0  0
 33 39  1  0  0  0  0
 33 38  1  0  0  0  0
 34 33  2  0  0  0  0
 35 34  1  0  0  0  0
 35 36  2  0  0  0  0
 36 37  1  0  0  0  0
 37 38  2  0  0  0  0
 37 41  1  0  0  0  0
 40 35  1  0  0  0  0
M  END
>  <minimizedAffinity>
-5.23611212

>  <minimizedRMSD>
2.05067801

$$$$
