
 OpenBabel03232518233D

 51 55  0  0  1  0  0  0  0  0999 V2000
   43.1300   33.6190   39.2680 C   0  0  0  0  0  0  0  0  0  0  0  0
   44.9680   34.6220   42.3030 C   0  0  2  0  0  0  0  0  0  0  0  0
   43.7950   33.7860   41.6620 C   0  0  0  0  0  0  0  0  0  0  0  0
   44.0230   34.2930   40.2320 C   0  0  1  0  0  0  0  0  0  0  0  0
   45.4890   34.0310   40.0960 C   0  0  0  0  0  0  0  0  0  0  0  0
   46.0850   34.2520   41.4880 C   0  0  0  0  0  0  0  0  0  0  0  0
   44.6140   35.6700   42.0690 H   0  0  0  0  0  0  0  0  0  0  0  0
   43.9890   32.7300   41.7720 H   0  0  0  0  0  0  0  0  0  0  0  0
   42.9240   34.2110   42.1500 H   0  0  0  0  0  0  0  0  0  0  0  0
   43.8480   35.3730   40.2330 H   0  0  0  0  0  0  0  0  0  0  0  0
   45.8860   34.7880   39.3890 H   0  0  0  0  0  0  0  0  0  0  0  0
   45.7630   33.0120   39.7970 H   0  0  0  0  0  0  0  0  0  0  0  0
   46.6950   33.4070   41.8150 H   0  0  0  0  0  0  0  0  0  0  0  0
   46.8090   35.1170   41.4190 H   0  0  0  0  0  0  0  0  0  0  0  0
   44.4600   35.4940   44.5180 C   0  0  0  0  0  0  0  0  0  0  0  0
   45.0060   34.4820   43.7480 C   0  0  0  0  0  0  0  0  0  0  0  0
   45.6200   33.3260   44.3600 C   0  0  0  0  0  0  0  0  0  0  0  0
   45.6420   33.2690   45.7210 N   0  0  0  0  0  0  0  0  0  0  0  0
   45.0890   34.2940   46.4710 C   0  0  0  0  0  0  0  0  0  0  0  0
   44.5060   35.3910   45.8860 N   0  0  0  0  0  0  0  0  0  0  0  0
   44.0100   36.3410   44.0400 H   0  0  0  0  0  0  0  0  0  0  0  0
   46.0360   32.5540   43.7630 H   0  0  0  0  0  0  0  0  0  0  0  0
   45.1170   34.2270   47.5500 H   0  0  0  0  0  0  0  0  0  0  0  0
   43.8610   33.2870   38.0030 C   0  0  0  0  0  0  0  0  0  0  0  0
   43.4810   32.3360   37.5410 H   0  0  0  0  0  0  0  0  0  0  0  0
   43.7820   34.1460   37.3260 H   0  0  0  0  0  0  0  0  0  0  0  0
   44.9250   33.1000   38.2490 H   0  0  0  0  0  0  0  0  0  0  0  0
   42.7640   32.2860   39.9070 C   0  0  0  0  0  0  0  0  0  0  0  0
   42.0150   32.3830   40.6960 H   0  0  0  0  0  0  0  0  0  0  0  0
   43.6680   31.7130   40.1800 H   0  0  0  0  0  0  0  0  0  0  0  0
   42.2780   31.6930   39.0840 H   0  0  0  0  0  0  0  0  0  0  0  0
   41.8760   34.3630   39.0550 C   0  0  0  0  0  0  0  0  0  0  0  0
   41.4280   34.7770   40.0090 H   0  0  0  0  0  0  0  0  0  0  0  0
   41.8660   35.2000   38.3700 H   0  0  0  0  0  0  0  0  0  0  0  0
   40.8000   33.4090   38.5560 C   0  0  2  0  0  0  0  0  0  0  0  0
   39.5240   33.8840   38.0080 C   0  0  0  0  0  0  0  0  0  0  0  0
   39.4930   33.3970   39.4230 C   0  0  1  0  0  0  0  0  0  0  0  0
   41.1910   32.3800   38.3490 H   0  0  0  0  0  0  0  0  0  0  0  0
   39.1330   33.2230   37.1770 H   0  0  0  0  0  0  0  0  0  0  0  0
   39.4390   34.9560   37.7740 H   0  0  0  0  0  0  0  0  0  0  0  0
   39.4230   34.2000   40.1730 H   0  0  0  0  0  0  0  0  0  0  0  0
   38.7870   32.1180   39.5810 C   0  0  0  0  0  0  0  0  0  0  0  0
   38.2890   31.9920   40.8840 C   0  0  0  0  0  0  0  0  0  0  0  0
   37.6160   30.8400   41.2920 C   0  0  0  0  0  0  0  0  0  0  0  0
   37.4310   29.7950   40.3910 C   0  0  0  0  0  0  0  0  0  0  0  0
   37.9170   29.9150   39.1090 C   0  0  0  0  0  0  0  0  0  0  0  0
   37.7800   28.9470   38.1310 C   0  0  0  0  0  0  0  0  0  0  0  0
   38.2870   29.1480   36.8570 C   0  0  0  0  0  0  0  0  0  0  0  0
   38.9540   30.3250   36.4980 C   0  0  0  0  0  0  0  0  0  0  0  0
   39.0900   31.2840   37.4670 C   0  0  0  0  0  0  0  0  0  0  0  0
   38.5780   31.0590   38.7260 C   0  0  0  0  0  0  0  0  0  0  0  0
  1 28  1  0  0  0  0
  1  4  1  0  0  0  0
  2  7  1  6  0  0  0
  2 16  1  0  0  0  0
  3  8  1  0  0  0  0
  3  9  1  0  0  0  0
  3  2  1  0  0  0  0
  4 10  1  6  0  0  0
  4  3  1  0  0  0  0
  5  4  1  0  0  0  0
  5  6  1  0  0  0  0
  6 13  1  0  0  0  0
  6  2  1  0  0  0  0
 11  5  1  0  0  0  0
 12  5  1  0  0  0  0
 14  6  1  0  0  0  0
 15 20  1  0  0  0  0
 16 17  1  0  0  0  0
 16 15  2  0  0  0  0
 17 18  2  0  0  0  0
 18 19  1  0  0  0  0
 19 23  1  0  0  0  0
 20 19  2  0  0  0  0
 21 15  1  0  0  0  0
 22 17  1  0  0  0  0
 24 27  1  0  0  0  0
 24  1  1  0  0  0  0
 25 24  1  0  0  0  0
 26 24  1  0  0  0  0
 28 30  1  0  0  0  0
 28 29  1  0  0  0  0
 31 28  1  0  0  0  0
 32  1  1  0  0  0  0
 32 33  1  0  0  0  0
 34 32  1  0  0  0  0
 35 38  1  6  0  0  0
 35 32  1  0  0  0  0
 35 37  1  0  0  0  0
 36 35  1  0  0  0  0
 36 37  1  0  0  0  0
 37 42  1  0  0  0  0
 37 41  1  1  0  0  0
 39 36  1  0  0  0  0
 40 36  1  0  0  0  0
 42 43  1  0  0  0  0
 43 44  2  0  0  0  0
 45 44  1  0  0  0  0
 46 45  2  0  0  0  0
 47 46  1  0  0  0  0
 48 47  2  0  0  0  0
 49 48  1  0  0  0  0
 49 50  2  0  0  0  0
 50 51  1  0  0  0  0
 51 46  1  0  0  0  0
 51 42  2  0  0  0  0
M  END
>  <minimizedAffinity>
-6.30335617

>  <minimizedRMSD>
3.46363664

$$$$
