REMARK  Name = 
REMARK  3 active torsions:
REMARK  status: ('A' for Active; 'I' for Inactive)
REMARK    1  A    between atoms: C_1  and  C_8
REMARK    2  A    between atoms: C_4  and  C_14
REMARK    3  A    between atoms: C_9  and  C_29
REMARK                            x       y       z     vdW  Elec       q    Type
REMARK                         _______ _______ _______ _____ _____    ______ ____
ROOT
ATOM      1  C   UNL     1      45.316  32.910  47.517  0.00  0.00    +0.000 A 
ATOM      2  C   UNL     1      45.839  32.611  46.300  0.00  0.00    +0.000 A 
ATOM      3  C   UNL     1      46.168  31.273  46.052  0.00  0.00    +0.000 A 
ATOM      4  N   UNL     1      45.977  30.347  46.987  0.00  0.00    +0.000 NA
ATOM      5  C   UNL     1      45.451  30.673  48.215  0.00  0.00    +0.000 A 
ATOM      6  N   UNL     1      45.122  31.943  48.471  0.00  0.00    +0.000 NA
ATOM      7  N   UNL     1      45.306  29.667  49.222  0.00  0.00    +0.000 N 
ATOM      8  H   UNL     1      45.017  33.877  47.835  0.00  0.00    +0.000 HD
ATOM      9  H   UNL     1      46.054  29.520  49.926  0.00  0.00    +0.000 HD
ATOM     10  H   UNL     1      44.445  29.077  49.248  0.00  0.00    +0.000 HD
ENDROOT
BRANCH   2  11
ATOM     11  C   UNL     1      46.062  33.637  45.319  0.00  0.00    +0.000 C 
ATOM     12  C   UNL     1      44.910  34.675  45.470  0.00  0.00    +0.000 C 
ATOM     13  C   UNL     1      44.700  35.579  44.376  0.00  0.00    +0.000 C 
ATOM     14  C   UNL     1      45.512  35.528  43.184  0.00  0.00    +0.000 C 
ATOM     15  C   UNL     1      46.660  34.603  43.218  0.00  0.00    +0.000 C 
ATOM     16  C   UNL     1      46.278  33.333  43.941  0.00  0.00    +0.000 C 
ATOM     17  H   UNL     1      46.867  34.319  45.762  0.00  0.00    +0.000 HD
ATOM     18  H   UNL     1      44.204  34.861  46.270  0.00  0.00    +0.000 HD
ATOM     19  H   UNL     1      43.902  36.308  44.464  0.00  0.00    +0.000 HD
ATOM     20  H   UNL     1      45.895  36.550  42.970  0.00  0.00    +0.000 HD
ATOM     21  H   UNL     1      46.967  34.370  42.154  0.00  0.00    +0.000 HD
ATOM     22  H   UNL     1      47.570  35.007  43.727  0.00  0.00    +0.000 HD
ATOM     23  H   UNL     1      45.389  32.934  43.432  0.00  0.00    +0.000 HD
ATOM     24  H   UNL     1      47.152  32.730  43.657  0.00  0.00    +0.000 HD
BRANCH  14  25
ATOM     25  C   UNL     1      44.589  35.184  41.985  0.00  0.00    +0.000 C 
ATOM     26  F   UNL     1      43.611  34.294  42.313  0.00  0.00    +0.000 F 
ATOM     27  F   UNL     1      43.941  36.381  41.653  0.00  0.00    +0.000 F 
ATOM     28  F   UNL     1      45.357  34.815  40.895  0.00  0.00    +0.000 F 
ENDBRANCH  14  25
ENDBRANCH   2  11
BRANCH   3  29
ATOM     29  C   UNL     1      46.726  30.594  44.900  0.00  0.00    +0.000 A 
ATOM     30  C   UNL     1      48.070  30.329  44.542  0.00  0.00    +0.000 A 
ATOM     31  C   UNL     1      48.365  29.722  43.334  0.00  0.00    +0.000 A 
ATOM     32  C   UNL     1      47.366  29.368  42.468  0.00  0.00    +0.000 A 
ATOM     33  C   UNL     1      46.054  29.591  42.740  0.00  0.00    +0.000 A 
ATOM     34  C   UNL     1      45.061  29.220  41.858  0.00  0.00    +0.000 A 
ATOM     35  C   UNL     1      43.739  29.447  42.161  0.00  0.00    +0.000 A 
ATOM     36  C   UNL     1      43.379  30.047  43.345  0.00  0.00    +0.000 A 
ATOM     37  C   UNL     1      44.405  30.398  44.191  0.00  0.00    +0.000 A 
ATOM     38  C   UNL     1      45.754  30.206  43.963  0.00  0.00    +0.000 A 
ENDBRANCH   3  29
TORSDOF 3
