
 OpenBabel03232515243D

 48 53  0  0  0  0  0  0  0  0999 V2000
   48.1080   30.9670   48.4240 C   0  0  0  0  0  0  0  0  0  0  0  0
   48.9610   31.5030   49.3600 C   0  0  0  0  0  0  0  0  0  0  0  0
   49.9860   30.7560   49.9000 C   0  0  0  0  0  0  0  0  0  0  0  0
   50.1280   29.4480   49.4690 C   0  0  0  0  0  0  0  0  0  0  0  0
   49.2910   28.9140   48.5480 C   0  0  0  0  0  0  0  0  0  0  0  0
   48.2730   29.6700   48.0180 C   0  0  0  0  0  0  0  0  0  0  0  0
   48.8070   32.5430   49.6680 H   0  0  0  0  0  0  0  0  0  0  0  0
   50.6010   31.2700   50.6270 H   0  0  0  0  0  0  0  0  0  0  0  0
   50.9680   29.0080   49.9740 H   0  0  0  0  0  0  0  0  0  0  0  0
   44.4750   35.7870   44.5970 C   0  0  0  0  0  0  0  0  0  0  0  0
   45.2170   35.6770   43.4200 C   0  0  0  0  0  0  0  0  0  0  0  0
   46.2110   34.7110   43.3300 C   0  0  0  0  0  0  0  0  0  0  0  0
   46.4270   33.9010   44.3950 N   0  0  0  0  0  0  0  0  0  0  0  0
   45.6830   34.0310   45.5380 C   0  0  0  0  0  0  0  0  0  0  0  0
   44.7120   34.9640   45.6480 N   0  0  0  0  0  0  0  0  0  0  0  0
   45.9060   33.1840   46.6630 N   0  0  0  0  0  0  0  0  0  0  0  0
   47.0940   32.5610   46.7360 C   0  0  0  0  0  0  0  0  0  0  0  0
   47.0540   31.8150   47.9030 C   0  0  0  0  0  0  0  0  0  0  0  0
   45.8550   32.0020   48.5030 N   0  0  0  0  0  0  0  0  0  0  0  0
   45.1500   32.8340   47.7530 C   0  0  0  0  0  0  0  0  0  0  0  0
   43.6910   36.5350   44.6960 H   0  0  0  0  0  0  0  0  0  0  0  0
   45.0350   36.3290   42.5770 H   0  0  0  0  0  0  0  0  0  0  0  0
   46.8060   34.5990   42.4300 H   0  0  0  0  0  0  0  0  0  0  0  0
   47.9660   32.5620   46.0920 H   0  0  0  0  0  0  0  0  0  0  0  0
   44.1600   33.2720   47.8170 H   0  0  0  0  0  0  0  0  0  0  0  0
   47.3870   29.1230   47.0520 N   0  0  0  0  0  0  0  0  0  0  0  0
   46.9980   28.2220   47.4010 H   0  0  0  0  0  0  0  0  0  0  0  0
   47.3060   29.7280   46.1980 H   0  0  0  0  0  0  0  0  0  0  0  0
   49.4440   27.5440   48.1040 C   0  0  0  0  0  0  0  0  0  0  0  0
   48.6260   26.6200   48.4180 O   0  0  0  0  0  0  0  0  0  0  0  0
   50.6020   27.1740   47.2360 C   0  0  0  0  0  0  0  0  0  0  0  0
   51.6480   26.3420   47.7500 C   0  0  0  0  0  0  0  0  0  0  0  0
   52.7380   26.1910   46.2970 S   0  0  0  0  0  0  0  0  0  0  0  0
   51.6250   27.2660   45.2270 C   0  0  0  0  0  0  0  0  0  0  0  0
   50.7730   27.5190   45.9900 N   0  0  0  0  0  0  0  0  0  0  0  0
   51.9130   27.5740   43.8790 N   0  0  0  0  0  0  0  0  0  0  0  0
   52.1510   28.5980   43.8670 H   0  0  0  0  0  0  0  0  0  0  0  0
   51.8240   26.7480   43.2410 H   0  0  0  0  0  0  0  0  0  0  0  0
   51.8240   25.7170   49.0200 C   0  0  0  0  0  0  0  0  0  0  0  0
   51.4380   24.4470   49.3810 C   0  0  0  0  0  0  0  0  0  0  0  0
   51.6290   23.8140   50.5620 C   0  0  0  0  0  0  0  0  0  0  0  0
   52.2810   24.4620   51.5680 C   0  0  0  0  0  0  0  0  0  0  0  0
   52.7080   25.7330   51.3120 C   0  0  0  0  0  0  0  0  0  0  0  0
   53.3820   26.3660   52.3310 C   0  0  0  0  0  0  0  0  0  0  0  0
   53.8750   27.6390   52.1790 C   0  0  0  0  0  0  0  0  0  0  0  0
   53.6740   28.2620   50.9710 C   0  0  0  0  0  0  0  0  0  0  0  0
   52.9930   27.5740   49.9940 C   0  0  0  0  0  0  0  0  0  0  0  0
   52.4750   26.3230   50.0650 C   0  0  0  0  0  0  0  0  0  0  0  0
  1  2  1  0  0  0  0
  2  7  1  0  0  0  0
  2  3  2  0  0  0  0
  3  8  1  0  0  0  0
  4  3  1  0  0  0  0
  4  9  1  0  0  0  0
  5  4  2  0  0  0  0
  6  1  2  0  0  0  0
  6  5  1  0  0  0  0
 10 21  1  0  0  0  0
 10 15  1  0  0  0  0
 11 10  2  0  0  0  0
 12 11  1  0  0  0  0
 12 13  2  0  0  0  0
 13 14  1  0  0  0  0
 14 15  2  0  0  0  0
 14 16  1  0  0  0  0
 16 17  1  0  0  0  0
 16 20  1  0  0  0  0
 17 18  2  0  0  0  0
 18  1  1  0  0  0  0
 18 19  1  0  0  0  0
 20 25  1  0  0  0  0
 20 19  2  0  0  0  0
 22 11  1  0  0  0  0
 23 12  1  0  0  0  0
 24 17  1  0  0  0  0
 26 27  1  0  0  0  0
 26  6  1  0  0  0  0
 28 26  1  0  0  0  0
 29 30  2  0  0  0  0
 29  5  1  0  0  0  0
 31 32  2  0  0  0  0
 31 29  1  0  0  0  0
 32 39  1  0  0  0  0
 33 32  1  0  0  0  0
 34 35  2  0  0  0  0
 34 33  1  0  0  0  0
 35 31  1  0  0  0  0
 36 34  1  0  0  0  0
 37 36  1  0  0  0  0
 38 36  1  0  0  0  0
 39 40  2  0  0  0  0
 39 48  1  0  0  0  0
 40 41  1  0  0  0  0
 41 42  2  0  0  0  0
 43 42  1  0  0  0  0
 43 44  1  0  0  0  0
 45 44  2  0  0  0  0
 46 45  1  0  0  0  0
 47 48  1  0  0  0  0
 47 46  2  0  0  0  0
 48 43  2  0  0  0  0
M  END
>  <minimizedAffinity>
-6.53459597

>  <minimizedRMSD>
0.641566038

$$$$
