
 OpenBabel03232519573D

 26 29  0  0  0  0  0  0  0  0999 V2000
   43.9640   34.2260   41.7560 N   0  0  0  0  0  0  0  0  0  0  0  0
   44.5990   34.1270   40.6020 C   0  0  0  0  0  0  0  0  0  0  0  0
   43.6500   34.1840   39.5760 C   0  0  0  0  0  0  0  0  0  0  0  0
   42.4440   34.3220   40.1410 N   0  0  0  0  0  0  0  0  0  0  0  0
   42.6300   34.3490   41.4920 C   0  0  0  0  0  0  0  0  0  0  0  0
   43.7710   34.1350   38.5170 H   0  0  0  0  0  0  0  0  0  0  0  0
   41.8180   34.4540   42.2100 H   0  0  0  0  0  0  0  0  0  0  0  0
   45.9930   33.9480   40.2490 C   0  0  0  0  0  0  0  0  0  0  0  0
   46.9050   34.7060   41.0020 C   0  0  0  0  0  0  0  0  0  0  0  0
   48.2740   34.6780   40.8440 C   0  0  0  0  0  0  0  0  0  0  0  0
   48.8060   33.8630   39.8930 C   0  0  0  0  0  0  0  0  0  0  0  0
   47.9600   33.1110   39.1450 C   0  0  0  0  0  0  0  0  0  0  0  0
   48.4030   32.2300   38.1580 C   0  0  0  0  0  0  0  0  0  0  0  0
   47.5510   31.4330   37.3860 C   0  0  0  0  0  0  0  0  0  0  0  0
   46.1710   31.5140   37.6050 C   0  0  0  0  0  0  0  0  0  0  0  0
   45.7370   32.3830   38.5790 C   0  0  0  0  0  0  0  0  0  0  0  0
   46.6100   33.1480   39.3130 C   0  0  0  0  0  0  0  0  0  0  0  0
   44.3100   35.3670   43.8300 C   0  0  0  0  0  0  0  0  0  0  0  0
   44.4670   34.1830   43.0610 C   0  0  0  0  0  0  0  0  0  0  0  0
   45.0960   33.0760   43.6600 C   0  0  0  0  0  0  0  0  0  0  0  0
   45.5250   33.1990   44.9520 N   0  0  0  0  0  0  0  0  0  0  0  0
   45.3530   34.3570   45.6500 C   0  0  0  0  0  0  0  0  0  0  0  0
   44.7460   35.4410   45.0900 N   0  0  0  0  0  0  0  0  0  0  0  0
   43.8380   36.2600   43.4440 H   0  0  0  0  0  0  0  0  0  0  0  0
   45.2030   32.1850   43.0590 H   0  0  0  0  0  0  0  0  0  0  0  0
   45.7570   34.2570   46.6470 H   0  0  0  0  0  0  0  0  0  0  0  0
  1 19  1  0  0  0  0
  2  1  1  0  0  0  0
  3  4  1  0  0  0  0
  3  2  2  0  0  0  0
  4  5  2  0  0  0  0
  5  1  1  0  0  0  0
  5  7  1  0  0  0  0
  6  3  1  0  0  0  0
  8  2  1  0  0  0  0
  8  9  1  0  0  0  0
 10  9  2  0  0  0  0
 11 10  1  0  0  0  0
 12 17  1  0  0  0  0
 12 11  2  0  0  0  0
 13 12  1  0  0  0  0
 14 15  1  0  0  0  0
 14 13  2  0  0  0  0
 15 16  2  0  0  0  0
 16 17  1  0  0  0  0
 17  8  2  0  0  0  0
 18 23  1  0  0  0  0
 19 20  1  0  0  0  0
 19 18  2  0  0  0  0
 20 21  2  0  0  0  0
 21 22  1  0  0  0  0
 22 26  1  0  0  0  0
 23 22  2  0  0  0  0
 24 18  1  0  0  0  0
 25 20  1  0  0  0  0
M  END
>  <minimizedAffinity>
-4.470788

>  <minimizedRMSD>
1.81831253

$$$$
