
 OpenBabel03232516153D

 45 49  0  0  1  0  0  0  0  0999 V2000
   41.0930   33.8120   39.1500 C   0  0  2  0  0  0  0  0  0  0  0  0
   40.2120   34.6640   38.2340 C   0  0  0  0  0  0  0  0  0  0  0  0
   38.8930   34.0360   37.9060 C   0  0  0  0  0  0  0  0  0  0  0  0
   38.0840   33.9840   39.1920 C   0  0  0  0  0  0  0  0  0  0  0  0
   39.0280   33.8620   40.3930 C   0  0  0  0  0  0  0  0  0  0  0  0
   40.2470   33.0350   39.9650 C   0  0  2  0  0  0  0  0  0  0  0  0
   41.6930   33.2540   38.3630 H   0  0  0  0  0  0  0  0  0  0  0  0
   39.9640   35.6060   38.8100 H   0  0  0  0  0  0  0  0  0  0  0  0
   40.7380   34.9960   37.3310 H   0  0  0  0  0  0  0  0  0  0  0  0
   38.3910   34.7080   37.1810 H   0  0  0  0  0  0  0  0  0  0  0  0
   38.9510   33.0460   37.4350 H   0  0  0  0  0  0  0  0  0  0  0  0
   37.4070   34.8370   39.2550 H   0  0  0  0  0  0  0  0  0  0  0  0
   37.4350   33.0630   39.1400 H   0  0  0  0  0  0  0  0  0  0  0  0
   39.1740   34.8630   40.6590 H   0  0  0  0  0  0  0  0  0  0  0  0
   38.4300   33.2880   41.1510 H   0  0  0  0  0  0  0  0  0  0  0  0
   39.6630   32.3800   39.2020 H   0  0  0  0  0  0  0  0  0  0  0  0
   40.5440   31.9850   40.9230 C   0  0  0  0  0  0  0  0  0  0  0  0
   41.7420   31.7640   41.6100 C   0  0  0  0  0  0  0  0  0  0  0  0
   42.0550   30.8170   42.5370 C   0  0  0  0  0  0  0  0  0  0  0  0
   41.0540   29.9570   42.8430 C   0  0  0  0  0  0  0  0  0  0  0  0
   39.8100   30.0320   42.2600 C   0  0  0  0  0  0  0  0  0  0  0  0
   38.8510   29.1200   42.6420 C   0  0  0  0  0  0  0  0  0  0  0  0
   37.5980   29.1840   42.0830 C   0  0  0  0  0  0  0  0  0  0  0  0
   37.3200   30.1720   41.1370 C   0  0  0  0  0  0  0  0  0  0  0  0
   38.3310   31.0510   40.8060 C   0  0  0  0  0  0  0  0  0  0  0  0
   39.5980   31.0290   41.3330 C   0  0  0  0  0  0  0  0  0  0  0  0
   42.4010   34.6320   41.2290 C   0  0  1  0  0  0  0  0  0  0  0  0
   41.7370   35.8770   40.5870 C   0  0  0  0  0  0  0  0  0  0  0  0
   42.0790   34.7120   39.8400 C   0  0  2  0  0  0  0  0  0  0  0  0
   41.9070   34.2380   42.1180 H   0  0  0  0  0  0  0  0  0  0  0  0
   42.4180   36.7880   40.4490 H   0  0  0  0  0  0  0  0  0  0  0  0
   40.9740   36.2290   41.2540 H   0  0  0  0  0  0  0  0  0  0  0  0
   43.0010   34.8560   39.1770 H   0  0  0  0  0  0  0  0  0  0  0  0
   46.0840   34.6260   41.3330 C   0  0  0  0  0  0  0  0  0  0  0  0
   46.3500   35.1770   42.6150 C   0  0  0  0  0  0  0  0  0  0  0  0
   45.2490   35.5650   43.4160 C   0  0  0  0  0  0  0  0  0  0  0  0
   43.9930   35.3920   42.9200 N   0  0  0  0  0  0  0  0  0  0  0  0
   43.8010   34.8630   41.6950 C   0  0  0  0  0  0  0  0  0  0  0  0
   44.8230   34.4720   40.8800 N   0  0  0  0  0  0  0  0  0  0  0  0
   47.3490   35.3020   42.9800 H   0  0  0  0  0  0  0  0  0  0  0  0
   45.3950   35.9890   44.3960 H   0  0  0  0  0  0  0  0  0  0  0  0
   47.2370   34.2190   40.5150 C   0  0  0  0  0  0  0  0  0  0  0  0
   46.8750   33.7220   39.5980 H   0  0  0  0  0  0  0  0  0  0  0  0
   47.8170   35.0980   40.2300 H   0  0  0  0  0  0  0  0  0  0  0  0
   47.8240   33.4600   41.0670 H   0  0  0  0  0  0  0  0  0  0  0  0
  1  7  1  6  0  0  0
  1 29  1  0  0  0  0
  1  6  1  0  0  0  0
  2  8  1  0  0  0  0
  2  1  1  0  0  0  0
  3  2  1  0  0  0  0
  3  4  1  0  0  0  0
  4 12  1  0  0  0  0
  4  5  1  0  0  0  0
  5 14  1  0  0  0  0
  5 15  1  0  0  0  0
  6 16  1  6  0  0  0
  6  5  1  0  0  0  0
  6 17  1  0  0  0  0
  9  2  1  0  0  0  0
 10  3  1  0  0  0  0
 11  3  1  0  0  0  0
 13  4  1  0  0  0  0
 17 26  2  0  0  0  0
 17 18  1  0  0  0  0
 18 19  2  0  0  0  0
 19 20  1  0  0  0  0
 21 22  1  0  0  0  0
 21 20  2  0  0  0  0
 23 22  2  0  0  0  0
 24 23  1  0  0  0  0
 25 24  2  0  0  0  0
 25 26  1  0  0  0  0
 26 21  1  0  0  0  0
 27 38  1  0  0  0  0
 27 30  1  1  0  0  0
 28 27  1  0  0  0  0
 28 32  1  0  0  0  0
 29 33  1  6  0  0  0
 29 28  1  0  0  0  0
 29 27  1  0  0  0  0
 31 28  1  0  0  0  0
 34 35  1  0  0  0  0
 35 40  1  0  0  0  0
 35 36  2  0  0  0  0
 36 41  1  0  0  0  0
 37 36  1  0  0  0  0
 38 37  2  0  0  0  0
 39 34  2  0  0  0  0
 39 38  1  0  0  0  0
 42 45  1  0  0  0  0
 42 34  1  0  0  0  0
 43 42  1  0  0  0  0
 44 42  1  0  0  0  0
M  END
>  <minimizedAffinity>
-7.08490086

>  <minimizedRMSD>
0.392045289

$$$$
