
     RDKit          3D

 49 53  0  0  0  0  0  0  0  0999 V2000
   46.4058   34.6691   42.1709 C   0  0  0  0  0  0  0  0  0  0  0  0
   47.7166   35.0237   42.0348 C   0  0  0  0  0  0  0  0  0  0  0  0
   48.4186   34.8203   40.8431 C   0  0  0  0  0  0  0  0  0  0  0  0
   47.7714   34.2395   39.7562 C   0  0  0  0  0  0  0  0  0  0  0  0
   46.4584   33.8860   39.8980 C   0  0  0  0  0  0  0  0  0  0  0  0
   45.7939   34.1013   41.0910 C   0  0  0  0  0  0  0  0  0  0  0  0
   44.4390   33.7215   41.1950 N   0  0  0  0  0  0  0  0  0  0  0  0
   43.6146   34.6665   40.6664 C   0  0  0  0  0  0  0  0  0  0  0  0
   42.2269   34.5002   40.6624 C   0  0  0  0  0  0  0  0  0  0  0  0
   41.3119   35.5311   40.0869 C   0  0  0  0  0  0  0  0  0  0  0  0
   41.7255   33.3322   41.2193 C   0  0  0  0  0  0  0  0  0  0  0  0
   40.4811   33.1332   41.2407 O   0  0  0  0  0  0  0  0  0  0  0  0
   42.5630   32.4269   41.7286 N   0  0  0  0  0  0  0  0  0  0  0  0
   43.8879   32.6032   41.7237 C   0  0  0  0  0  0  0  0  0  0  0  0
   44.7524   31.8031   42.1820 O   0  0  0  0  0  0  0  0  0  0  0  0
   44.4296   36.1336   45.0137 C   0  0  0  0  0  0  0  0  0  0  0  0
   44.9880   36.0186   43.7526 C   0  0  0  0  0  0  0  0  0  0  0  0
   45.7560   34.9249   43.4525 C   0  0  0  0  0  0  0  0  0  0  0  0
   45.9118   34.0258   44.4299 N   0  0  0  0  0  0  0  0  0  0  0  0
   45.3764   34.1201   45.6635 C   0  0  0  0  0  0  0  0  0  0  0  0
   44.6332   35.1942   45.9300 N   0  0  0  0  0  0  0  0  0  0  0  0
   48.2615   35.4809   42.8596 H   0  0  0  0  0  0  0  0  0  0  0  0
   49.4614   35.1235   40.7948 H   0  0  0  0  0  0  0  0  0  0  0  0
   48.3797   34.1183   38.8797 H   0  0  0  0  0  0  0  0  0  0  0  0
   45.9818   33.4353   39.0326 H   0  0  0  0  0  0  0  0  0  0  0  0
   43.9287   35.5891   40.2212 H   0  0  0  0  0  0  0  0  0  0  0  0
   40.2902   35.2365   40.3141 H   0  0  0  0  0  0  0  0  0  0  0  0
   41.4436   35.6538   39.0036 H   0  0  0  0  0  0  0  0  0  0  0  0
   41.5090   36.4809   40.6450 H   0  0  0  0  0  0  0  0  0  0  0  0
   42.2062   31.5279   42.1590 H   0  0  0  0  0  0  0  0  0  0  0  0
   43.8198   36.9876   45.2740 H   0  0  0  0  0  0  0  0  0  0  0  0
   44.8456   36.7591   42.9835 H   0  0  0  0  0  0  0  0  0  0  0  0
   45.7282   32.9747   46.5122 C   0  0  0  0  0  0  0  0  0  0  0  0
   44.9376   31.8466   46.5567 C   0  0  0  0  0  0  0  0  0  0  0  0
   45.2185   30.7463   47.3319 C   0  0  0  0  0  0  0  0  0  0  0  0
   46.3282   30.7148   48.1205 C   0  0  0  0  0  0  0  0  0  0  0  0
   47.1532   31.8107   48.1169 C   0  0  0  0  0  0  0  0  0  0  0  0
   48.2681   31.7848   48.9057 C   0  0  0  0  0  0  0  0  0  0  0  0
   49.1515   32.8588   48.9538 C   0  0  0  0  0  0  0  0  0  0  0  0
   48.8303   33.9592   48.1505 C   0  0  0  0  0  0  0  0  0  0  0  0
   47.6952   33.9367   47.3731 C   0  0  0  0  0  0  0  0  0  0  0  0
   46.8301   32.8856   47.3257 C   0  0  0  0  0  0  0  0  0  0  0  0
   44.0158   31.7642   45.9589 H   0  0  0  0  0  0  0  0  0  0  0  0
   44.5630   29.8889   47.3277 H   0  0  0  0  0  0  0  0  0  0  0  0
   46.5200   29.8371   48.7165 H   0  0  0  0  0  0  0  0  0  0  0  0
   48.4710   30.8935   49.5166 H   0  0  0  0  0  0  0  0  0  0  0  0
   50.0031   32.7392   49.6091 H   0  0  0  0  0  0  0  0  0  0  0  0
   49.5434   34.7853   48.2109 H   0  0  0  0  0  0  0  0  0  0  0  0
   47.5780   34.8311   46.8198 H   0  0  0  0  0  0  0  0  0  0  0  0
  1 18  1  0
  2  1  2  0
  3  2  1  0
  4  5  1  0
  4  3  2  0
  5  6  2  0
  6  7  1  0
  6  1  1  0
  7 14  1  0
  8  7  1  0
  9  8  2  0
  9 11  1  0
 10  9  1  0
 11 12  2  0
 11 13  1  0
 14 13  1  0
 14 15  2  0
 16 21  2  0
 17 16  1  0
 18 17  2  0
 18 19  1  0
 19 20  2  0
 20 21  1  0
  2 22  1  0
  3 23  1  0
  4 24  1  0
  5 25  1  0
  8 26  1  0
 10 27  1  0
 10 28  1  0
 10 29  1  0
 13 30  1  0
 16 31  1  0
 17 32  1  0
 33 34  2  0
 34 35  1  0
 35 36  2  0
 36 37  1  0
 37 38  2  0
 38 39  1  0
 39 40  2  0
 40 41  1  0
 41 42  2  0
 42 33  1  0
 42 37  1  0
 34 43  1  0
 35 44  1  0
 36 45  1  0
 38 46  1  0
 39 47  1  0
 40 48  1  0
 41 49  1  0
 20 33  1  0
M  ISO  8  22  14  23  14  24  14  25  14  26  14  27   8  28   8  29   8
M  ISO  3  30   9  31  14  32  14
M  END
>  <DihAtoms>  (1) 
18,19,32,33

>  <DihDeg>  (1) 
-0.21974232744292538

$$$$
