REMARK  Name = 
REMARK  4 active torsions:
REMARK  status: ('A' for Active; 'I' for Inactive)
REMARK    1  A    between atoms: C_1  and  C_18
REMARK    2  A    between atoms: C_6  and  N_7
REMARK    3  A    between atoms: C_9  and  C_10
REMARK    4  A    between atoms: C_20  and  C_33
REMARK                            x       y       z     vdW  Elec       q    Type
REMARK                         _______ _______ _______ _____ _____    ______ ____
ROOT
ATOM      1  C   UNL     1      46.406  34.669  42.171  0.00  0.00    +0.000 A 
ATOM      2  C   UNL     1      47.717  35.024  42.035  0.00  0.00    +0.000 A 
ATOM      3  C   UNL     1      48.419  34.820  40.843  0.00  0.00    +0.000 A 
ATOM      4  C   UNL     1      47.771  34.239  39.756  0.00  0.00    +0.000 A 
ATOM      5  C   UNL     1      46.458  33.886  39.898  0.00  0.00    +0.000 A 
ATOM      6  C   UNL     1      45.794  34.101  41.091  0.00  0.00    +0.000 A 
ATOM      7  H   UNL     1      48.261  35.481  42.860  0.00  0.00    +0.000 HD
ATOM      8  H   UNL     1      49.461  35.123  40.795  0.00  0.00    +0.000 HD
ATOM      9  H   UNL     1      48.380  34.118  38.880  0.00  0.00    +0.000 HD
ATOM     10  H   UNL     1      45.982  33.435  39.033  0.00  0.00    +0.000 HD
ENDROOT
BRANCH   6  11
ATOM     11  N   UNL     1      44.439  33.721  41.195  0.00  0.00    +0.000 N 
ATOM     12  C   UNL     1      43.615  34.666  40.666  0.00  0.00    +0.000 A 
ATOM     13  C   UNL     1      42.227  34.500  40.662  0.00  0.00    +0.000 A 
ATOM     14  C   UNL     1      41.725  33.332  41.219  0.00  0.00    +0.000 A 
ATOM     15  O   UNL     1      40.481  33.133  41.241  0.00  0.00    +0.000 OA
ATOM     16  N   UNL     1      42.563  32.427  41.729  0.00  0.00    +0.000 N 
ATOM     17  C   UNL     1      43.888  32.603  41.724  0.00  0.00    +0.000 A 
ATOM     18  O   UNL     1      44.752  31.803  42.182  0.00  0.00    +0.000 OA
ATOM     19  H   UNL     1      43.929  35.589  40.221  0.00  0.00    +0.000 HD
ATOM     20  H   UNL     1      42.206  31.528  42.159  0.00  0.00    +0.000 HD
BRANCH  13  21
ATOM     21  C   UNL     1      41.312  35.531  40.087  0.00  0.00    +0.000 C 
ATOM     22  H   UNL     1      40.290  35.236  40.314  0.00  0.00    +0.000 HD
ATOM     23  H   UNL     1      41.444  35.654  39.004  0.00  0.00    +0.000 HD
ATOM     24  H   UNL     1      41.509  36.481  40.645  0.00  0.00    +0.000 HD
ENDBRANCH  13  21
ENDBRANCH   6  11
BRANCH   1  27
ATOM     25  C   UNL     1      44.430  36.134  45.014  0.00  0.00    +0.000 A 
ATOM     26  C   UNL     1      44.988  36.019  43.753  0.00  0.00    +0.000 A 
ATOM     27  C   UNL     1      45.756  34.925  43.453  0.00  0.00    +0.000 A 
ATOM     28  N   UNL     1      45.912  34.026  44.430  0.00  0.00    +0.000 NA
ATOM     29  C   UNL     1      45.376  34.120  45.663  0.00  0.00    +0.000 A 
ATOM     30  N   UNL     1      44.633  35.194  45.930  0.00  0.00    +0.000 NA
ATOM     31  H   UNL     1      43.820  36.988  45.274  0.00  0.00    +0.000 HD
ATOM     32  H   UNL     1      44.846  36.759  42.983  0.00  0.00    +0.000 HD
BRANCH  29  33
ATOM     33  C   UNL     1      45.728  32.975  46.512  0.00  0.00    +0.000 A 
ATOM     34  C   UNL     1      44.938  31.847  46.557  0.00  0.00    +0.000 A 
ATOM     35  C   UNL     1      45.218  30.746  47.332  0.00  0.00    +0.000 A 
ATOM     36  C   UNL     1      46.328  30.715  48.120  0.00  0.00    +0.000 A 
ATOM     37  C   UNL     1      47.153  31.811  48.117  0.00  0.00    +0.000 A 
ATOM     38  C   UNL     1      48.268  31.785  48.906  0.00  0.00    +0.000 A 
ATOM     39  C   UNL     1      49.151  32.859  48.954  0.00  0.00    +0.000 A 
ATOM     40  C   UNL     1      48.830  33.959  48.151  0.00  0.00    +0.000 A 
ATOM     41  C   UNL     1      47.695  33.937  47.373  0.00  0.00    +0.000 A 
ATOM     42  C   UNL     1      46.830  32.886  47.326  0.00  0.00    +0.000 A 
ENDBRANCH  29  33
ENDBRANCH   1  27
TORSDOF 4
