
 OpenBabel03232517533D

 21 23  0  0  0  0  0  0  0  0999 V2000
   45.0960   35.9740   43.7090 C   0  0  0  0  0  0  0  0  0  0  0  0
   45.9730   35.0090   43.2470 C   0  0  0  0  0  0  0  0  0  0  0  0
   46.3380   33.8910   43.9830 C   0  0  0  0  0  0  0  0  0  0  0  0
   45.7370   33.8430   45.2120 N   0  0  0  0  0  0  0  0  0  0  0  0
   44.8900   34.7650   45.6670 C   0  0  0  0  0  0  0  0  0  0  0  0
   44.5780   35.8140   44.9210 N   0  0  0  0  0  0  0  0  0  0  0  0
   44.7330   37.1060   42.9560 N   0  0  0  0  0  0  0  0  0  0  0  0
   46.3120   35.1630   42.2660 H   0  0  0  0  0  0  0  0  0  0  0  0
   44.4700   34.6290   46.6580 H   0  0  0  0  0  0  0  0  0  0  0  0
   45.4130   37.9030   43.0990 H   0  0  0  0  0  0  0  0  0  0  0  0
   43.9320   37.2490   42.3190 H   0  0  0  0  0  0  0  0  0  0  0  0
   47.1660   32.7760   43.6310 C   0  0  0  0  0  0  0  0  0  0  0  0
   46.6190   31.5090   43.8900 C   0  0  0  0  0  0  0  0  0  0  0  0
   47.2550   30.3170   43.6320 C   0  0  0  0  0  0  0  0  0  0  0  0
   48.5150   30.3410   43.0850 C   0  0  0  0  0  0  0  0  0  0  0  0
   49.1070   31.5420   42.8110 C   0  0  0  0  0  0  0  0  0  0  0  0
   50.3700   31.5730   42.2990 C   0  0  0  0  0  0  0  0  0  0  0  0
   51.0360   32.7750   42.0360 C   0  0  0  0  0  0  0  0  0  0  0  0
   50.3270   33.9340   42.3300 C   0  0  0  0  0  0  0  0  0  0  0  0
   49.0560   33.8590   42.8440 C   0  0  0  0  0  0  0  0  0  0  0  0
   48.4160   32.6850   43.0930 C   0  0  0  0  0  0  0  0  0  0  0  0
  1  6  1  0  0  0  0
  2  1  2  0  0  0  0
  2  3  1  0  0  0  0
  3  4  2  0  0  0  0
  4  5  1  0  0  0  0
  5  9  1  0  0  0  0
  6  5  2  0  0  0  0
  7 10  1  0  0  0  0
  7  1  1  0  0  0  0
  8  2  1  0  0  0  0
 11  7  1  0  0  0  0
 12 13  1  0  0  0  0
 12  3  1  0  0  0  0
 14 13  2  0  0  0  0
 15 14  1  0  0  0  0
 16 15  2  0  0  0  0
 16 21  1  0  0  0  0
 17 16  1  0  0  0  0
 18 17  2  0  0  0  0
 18 19  1  0  0  0  0
 19 20  2  0  0  0  0
 20 21  1  0  0  0  0
 21 12  2  0  0  0  0
M  END
>  <minimizedAffinity>
-5.26163244

>  <minimizedRMSD>
2.71533346

$$$$
