REMARK  Name = 
REMARK  3 active torsions:
REMARK  status: ('A' for Active; 'I' for Inactive)
REMARK    1  A    between atoms: C_1  and  C_8
REMARK    2  A    between atoms: C_4  and  C_13
REMARK    3  A    between atoms: C_11  and  C_27
REMARK                            x       y       z     vdW  Elec       q    Type
REMARK                         _______ _______ _______ _____ _____    ______ ____
ROOT
ATOM      1  C   UNL     1      46.144  33.706  45.419  0.00  0.00    +0.000 C 
ATOM      2  C   UNL     1      44.967  34.669  45.532  0.00  0.00    +0.000 C 
ATOM      3  C   UNL     1      44.701  35.530  44.408  0.00  0.00    +0.000 C 
ATOM      4  C   UNL     1      45.540  35.454  43.215  0.00  0.00    +0.000 C 
ATOM      5  C   UNL     1      46.685  34.545  43.241  0.00  0.00    +0.000 C 
ATOM      6  C   UNL     1      46.346  33.297  44.003  0.00  0.00    +0.000 C 
ATOM      7  H   UNL     1      47.016  34.359  45.719  0.00  0.00    +0.000 HD
ATOM      8  H   UNL     1      44.211  34.918  46.264  0.00  0.00    +0.000 HD
ATOM      9  H   UNL     1      43.909  36.239  44.376  0.00  0.00    +0.000 HD
ATOM     10  H   UNL     1      45.891  36.485  42.979  0.00  0.00    +0.000 HD
ATOM     11  H   UNL     1      47.605  35.007  43.681  0.00  0.00    +0.000 HD
ATOM     12  H   UNL     1      46.955  34.279  42.179  0.00  0.00    +0.000 HD
ATOM     13  H   UNL     1      45.382  32.886  43.605  0.00  0.00    +0.000 HD
ATOM     14  H   UNL     1      47.160  32.572  43.946  0.00  0.00    +0.000 HD
ENDROOT
BRANCH   1  16
ATOM     15  C   UNL     1      45.290  32.854  47.566  0.00  0.00    +0.000 A 
ATOM     16  C   UNL     1      45.978  32.637  46.389  0.00  0.00    +0.000 A 
ATOM     17  C   UNL     1      46.491  31.355  46.211  0.00  0.00    +0.000 A 
ATOM     18  N   UNL     1      46.310  30.408  47.148  0.00  0.00    +0.000 NA
ATOM     19  C   UNL     1      45.645  30.629  48.279  0.00  0.00    +0.000 A 
ATOM     20  N   UNL     1      45.146  31.853  48.467  0.00  0.00    +0.000 NA
ATOM     21  H   UNL     1      44.842  33.830  47.822  0.00  0.00    +0.000 HD
ATOM     22  H   UNL     1      47.043  31.090  45.323  0.00  0.00    +0.000 HD
BRANCH  19  23
ATOM     23  C   UNL     1      45.344  29.748  49.400  0.00  0.00    +0.000 A 
ATOM     24  C   UNL     1      45.197  30.192  50.718  0.00  0.00    +0.000 A 
ATOM     25  C   UNL     1      44.912  29.383  51.785  0.00  0.00    +0.000 A 
ATOM     26  C   UNL     1      44.753  28.036  51.593  0.00  0.00    +0.000 A 
ATOM     27  C   UNL     1      44.883  27.531  50.329  0.00  0.00    +0.000 A 
ATOM     28  C   UNL     1      44.712  26.172  50.195  0.00  0.00    +0.000 A 
ATOM     29  C   UNL     1      44.828  25.585  48.954  0.00  0.00    +0.000 A 
ATOM     30  C   UNL     1      45.114  26.409  47.884  0.00  0.00    +0.000 A 
ATOM     31  C   UNL     1      45.274  27.759  48.081  0.00  0.00    +0.000 A 
ATOM     32  C   UNL     1      45.169  28.390  49.296  0.00  0.00    +0.000 A 
ENDBRANCH  19  23
ENDBRANCH   1  16
BRANCH   4  33
ATOM     33  C   UNL     1      44.616  35.108  42.034  0.00  0.00    +0.000 C 
ATOM     34  F   UNL     1      43.665  34.171  42.359  0.00  0.00    +0.000 F 
ATOM     35  F   UNL     1      43.926  36.274  41.688  0.00  0.00    +0.000 F 
ATOM     36  F   UNL     1      45.388  34.745  40.938  0.00  0.00    +0.000 F 
ENDBRANCH   4  33
TORSDOF 3
