
 OpenBabel03232520583D

 38 41  0  0  1  0  0  0  0  0999 V2000
   45.2030   32.7440   47.6020 C   0  0  0  0  0  0  0  0  0  0  0  0
   45.8140   32.4200   46.4330 C   0  0  0  0  0  0  0  0  0  0  0  0
   46.1510   31.0760   46.2350 C   0  0  0  0  0  0  0  0  0  0  0  0
   45.8830   30.1680   47.1690 N   0  0  0  0  0  0  0  0  0  0  0  0
   45.2680   30.5200   48.3470 C   0  0  0  0  0  0  0  0  0  0  0  0
   44.9300   31.7960   48.5550 N   0  0  0  0  0  0  0  0  0  0  0  0
   45.0400   29.5330   49.3580 N   0  0  0  0  0  0  0  0  0  0  0  0
   44.8880   33.7190   47.8790 H   0  0  0  0  0  0  0  0  0  0  0  0
   45.7320   29.3940   50.1190 H   0  0  0  0  0  0  0  0  0  0  0  0
   44.1750   28.9490   49.3290 H   0  0  0  0  0  0  0  0  0  0  0  0
   46.1180   33.4270   45.4540 C   0  0  2  0  0  0  0  0  0  0  0  0
   45.0430   34.5450   45.5960 C   0  0  0  0  0  0  0  0  0  0  0  0
   44.9070   35.4610   44.5000 C   0  0  0  0  0  0  0  0  0  0  0  0
   45.7230   35.3510   43.3150 C   0  0  1  0  0  0  0  0  0  0  0  0
   46.8010   34.3460   43.3580 C   0  0  0  0  0  0  0  0  0  0  0  0
   46.3230   33.1070   44.0780 C   0  0  0  0  0  0  0  0  0  0  0  0
   46.9670   34.0490   45.9040 H   0  0  0  0  0  0  0  0  0  0  0  0
   44.3450   34.7820   46.3900 H   0  0  0  0  0  0  0  0  0  0  0  0
   44.1630   36.2460   44.5810 H   0  0  0  0  0  0  0  0  0  0  0  0
   46.1800   36.3430   43.1040 H   0  0  0  0  0  0  0  0  0  0  0  0
   47.0990   34.0910   42.2970 H   0  0  0  0  0  0  0  0  0  0  0  0
   47.7340   34.6840   43.8740 H   0  0  0  0  0  0  0  0  0  0  0  0
   45.4120   32.7730   43.5620 H   0  0  0  0  0  0  0  0  0  0  0  0
   47.1540   32.4430   43.8010 H   0  0  0  0  0  0  0  0  0  0  0  0
   44.7870   35.0730   42.1080 C   0  0  0  0  0  0  0  0  0  0  0  0
   43.8020   34.1800   42.4020 F   0  0  0  0  0  0  0  0  0  0  0  0
   44.1500   36.2910   41.8380 F   0  0  0  0  0  0  0  0  0  0  0  0
   45.5430   34.7480   40.9960 F   0  0  0  0  0  0  0  0  0  0  0  0
   46.7890   30.3730   45.1400 C   0  0  0  0  0  0  0  0  0  0  0  0
   46.3410   30.1080   43.8240 C   0  0  0  0  0  3  0  0  0  0  0  0
   47.1070   29.3370   42.9660 C   0  0  0  0  0  3  0  0  0  0  0  0
   48.3070   28.8200   43.3760 C   0  0  0  0  0  3  0  0  0  0  0  0
   48.8020   29.0300   44.6240 C   0  0  0  0  0  0  0  0  0  0  0  0
   50.0170   28.5070   45.0150 C   0  0  0  0  0  3  0  0  0  0  0  0
   50.5020   28.7420   46.2810 C   0  0  0  0  0  3  0  0  0  0  0  0
   49.7890   29.4990   47.1800 C   0  0  0  0  0  3  0  0  0  0  0  0
   48.5840   29.9980   46.7430 C   0  0  0  0  0  3  0  0  0  0  0  0
   48.0260   29.8090   45.4920 C   0  0  0  0  0  0  0  0  0  0  0  0
  1  8  1  0  0  0  0
  1  6  1  0  0  0  0
  2  1  2  0  0  0  0
  3  2  1  0  0  0  0
  3  4  2  0  0  0  0
  4  5  1  0  0  0  0
  5  6  2  0  0  0  0
  5  7  1  0  0  0  0
  7  9  1  0  0  0  0
 10  7  1  0  0  0  0
 11 12  1  0  0  0  0
 11 17  1  1  0  0  0
 11  2  1  0  0  0  0
 12 18  1  0  0  0  0
 13 19  1  0  0  0  0
 13 12  2  0  0  0  0
 14 20  1  6  0  0  0
 14 15  1  0  0  0  0
 14 13  1  0  0  0  0
 15 22  1  0  0  0  0
 15 16  1  0  0  0  0
 16 11  1  0  0  0  0
 21 15  1  0  0  0  0
 23 16  1  0  0  0  0
 24 16  1  0  0  0  0
 25 26  1  0  0  0  0
 25 14  1  0  0  0  0
 27 25  1  0  0  0  0
 28 25  1  0  0  0  0
 29 38  1  0  0  0  0
 29  3  1  0  0  0  0
 30 29  2  0  0  0  0
 31 32  2  0  0  0  0
 31 30  1  0  0  0  0
 32 33  1  0  0  0  0
 33 34  2  0  0  0  0
 33 38  1  0  0  0  0
 34 35  1  0  0  0  0
 35 36  2  0  0  0  0
 37 36  1  0  0  0  0
 38 37  2  0  0  0  0
M  END
>  <minimizedAffinity>
-5.97311544

>  <minimizedRMSD>
1.19565332

$$$$
