
 OpenBabel03232520123D

 41 45  0  0  1  0  0  0  0  0999 V2000
   49.0780   29.1740   47.9530 N   0  0  0  0  0  0  0  0  0  0  0  0
   49.6300   28.2440   47.0090 C   0  0  0  0  0  0  0  0  0  0  0  0
   51.1230   28.1170   47.1540 C   0  0  0  0  0  0  0  0  0  0  0  0
   51.5650   28.1890   48.5810 C   0  0  0  0  0  0  0  0  0  0  0  0
   50.4090   27.9200   49.5260 C   0  0  0  0  0  0  0  0  0  0  0  0
   49.4290   29.0530   49.3670 C   0  0  1  0  0  0  0  0  0  0  0  0
   49.1710   27.2290   47.1880 H   0  0  0  0  0  0  0  0  0  0  0  0
   49.4010   28.4870   45.9730 H   0  0  0  0  0  0  0  0  0  0  0  0
   51.3960   27.1620   46.6380 H   0  0  0  0  0  0  0  0  0  0  0  0
   51.5890   28.9110   46.5170 H   0  0  0  0  0  0  0  0  0  0  0  0
   52.1890   29.0380   48.8500 H   0  0  0  0  0  0  0  0  0  0  0  0
   52.2380   27.2910   48.7260 H   0  0  0  0  0  0  0  0  0  0  0  0
   50.8360   27.9260   50.5510 H   0  0  0  0  0  0  0  0  0  0  0  0
   49.9810   26.9570   49.2490 H   0  0  0  0  0  0  0  0  0  0  0  0
   48.5030   28.7040   49.8040 H   0  0  0  0  0  0  0  0  0  0  0  0
   50.0490   30.2670   49.8490 C   0  0  0  0  0  0  0  0  0  0  0  0
   50.1150   31.4150   49.1010 C   0  0  0  0  0  0  0  0  0  0  0  0
   50.6970   32.5930   49.5250 C   0  0  0  0  0  0  0  0  0  0  0  0
   51.2650   32.6690   50.7810 C   0  0  0  0  0  0  0  0  0  0  0  0
   51.2170   31.5360   51.5580 C   0  0  0  0  0  0  0  0  0  0  0  0
   51.7920   31.6280   52.8140 C   0  0  0  0  0  0  0  0  0  0  0  0
   51.7760   30.5110   53.6530 C   0  0  0  0  0  0  0  0  0  0  0  0
   51.1900   29.3380   53.2160 C   0  0  0  0  0  0  0  0  0  0  0  0
   50.6350   29.3070   51.9550 C   0  0  0  0  0  0  0  0  0  0  0  0
   50.6290   30.3890   51.0960 C   0  0  0  0  0  0  0  0  0  0  0  0
   46.6990   32.2550   46.8510 C   0  0  0  0  0  0  0  0  0  0  0  0
   46.5260   31.8520   48.1470 C   0  0  0  0  0  0  0  0  0  0  0  0
   47.2740   30.8270   48.6200 C   0  0  0  0  0  0  0  0  0  0  0  0
   48.1790   30.2610   47.7100 C   0  0  0  0  0  0  0  0  0  0  0  0
   47.9530   31.1850   46.2200 S   0  0  0  0  0  0  0  0  0  0  0  0
   45.7900   32.3760   48.7480 H   0  0  0  0  0  0  0  0  0  0  0  0
   47.2230   30.4290   49.6170 H   0  0  0  0  0  0  0  0  0  0  0  0
   44.4800   35.0570   45.9900 C   0  0  0  0  0  0  0  0  0  0  0  0
   44.8290   35.2810   44.6350 C   0  0  0  0  0  0  0  0  0  0  0  0
   45.8140   34.4640   44.0610 C   0  0  0  0  0  0  0  0  0  0  0  0
   46.3960   33.4890   44.8280 N   0  0  0  0  0  0  0  0  0  0  0  0
   46.0400   33.3080   46.1050 C   0  0  0  0  0  0  0  0  0  0  0  0
   45.0940   34.0790   46.6850 N   0  0  0  0  0  0  0  0  0  0  0  0
   43.7180   35.6950   46.4190 H   0  0  0  0  0  0  0  0  0  0  0  0
   44.3690   36.0460   44.0410 H   0  0  0  0  0  0  0  0  0  0  0  0
   46.1130   34.5920   43.0460 H   0  0  0  0  0  0  0  0  0  0  0  0
  1  6  1  0  0  0  0
  2  3  1  0  0  0  0
  2  7  1  0  0  0  0
  2  1  1  0  0  0  0
  3  4  1  0  0  0  0
  4 12  1  0  0  0  0
  4 11  1  0  0  0  0
  4  5  1  0  0  0  0
  5 13  1  0  0  0  0
  6  5  1  0  0  0  0
  6 15  1  1  0  0  0
  6 16  1  0  0  0  0
  8  2  1  0  0  0  0
  9  3  1  0  0  0  0
 10  3  1  0  0  0  0
 14  5  1  0  0  0  0
 16 25  1  0  0  0  0
 17 18  1  0  0  0  0
 17 16  2  0  0  0  0
 18 19  2  0  0  0  0
 19 20  1  0  0  0  0
 20 21  1  0  0  0  0
 21 22  2  0  0  0  0
 23 22  1  0  0  0  0
 24 23  2  0  0  0  0
 25 20  2  0  0  0  0
 25 24  1  0  0  0  0
 26 27  2  0  0  0  0
 27 28  1  0  0  0  0
 27 31  1  0  0  0  0
 28 32  1  0  0  0  0
 29  1  1  0  0  0  0
 29 28  2  0  0  0  0
 30 26  1  0  0  0  0
 30 29  1  0  0  0  0
 33 39  1  0  0  0  0
 33 38  1  0  0  0  0
 34 33  2  0  0  0  0
 35 34  1  0  0  0  0
 35 36  2  0  0  0  0
 36 37  1  0  0  0  0
 37 38  2  0  0  0  0
 37 26  1  0  0  0  0
 40 34  1  0  0  0  0
 41 35  1  0  0  0  0
M  END
>  <minimizedAffinity>
-5.17988443

>  <minimizedRMSD>
2.53581285

$$$$
