
 OpenBabel03232520573D

 38 41  0  0  1  0  0  0  0  0999 V2000
   45.2390   32.8440   47.4150 C   0  0  0  0  0  0  0  0  0  0  0  0
   45.8700   32.5430   46.2510 C   0  0  0  0  0  0  0  0  0  0  0  0
   46.2930   31.2210   46.0710 C   0  0  0  0  0  0  0  0  0  0  0  0
   46.0840   30.3110   47.0170 N   0  0  0  0  0  0  0  0  0  0  0  0
   45.4470   30.6380   48.1910 C   0  0  0  0  0  0  0  0  0  0  0  0
   45.0270   31.8930   48.3820 N   0  0  0  0  0  0  0  0  0  0  0  0
   45.2820   29.6530   49.2160 N   0  0  0  0  0  0  0  0  0  0  0  0
   44.8610   33.8000   47.6790 H   0  0  0  0  0  0  0  0  0  0  0  0
   45.9800   29.5700   49.9780 H   0  0  0  0  0  0  0  0  0  0  0  0
   44.4560   29.0140   49.1950 H   0  0  0  0  0  0  0  0  0  0  0  0
   46.1100   33.5540   45.2580 C   0  0  2  0  0  0  0  0  0  0  0  0
   45.0150   34.6470   45.4420 C   0  0  0  0  0  0  0  0  0  0  0  0
   44.8120   35.5570   44.3510 C   0  0  0  0  0  0  0  0  0  0  0  0
   45.5800   35.4620   43.1330 C   0  0  1  0  0  0  0  0  0  0  0  0
   46.6830   34.4830   43.1330 C   0  0  0  0  0  0  0  0  0  0  0  0
   46.2640   33.2350   43.8750 C   0  0  0  0  0  0  0  0  0  0  0  0
   46.9610   34.1980   45.6700 H   0  0  0  0  0  0  0  0  0  0  0  0
   44.3460   34.8700   46.2640 H   0  0  0  0  0  0  0  0  0  0  0  0
   44.0540   36.3240   44.4620 H   0  0  0  0  0  0  0  0  0  0  0  0
   46.0050   36.4640   42.9010 H   0  0  0  0  0  0  0  0  0  0  0  0
   46.9420   34.2310   42.0610 H   0  0  0  0  0  0  0  0  0  0  0  0
   47.6280   34.8440   43.6090 H   0  0  0  0  0  0  0  0  0  0  0  0
   45.3400   32.8780   43.3980 H   0  0  0  0  0  0  0  0  0  0  0  0
   47.0980   32.5890   43.5650 H   0  0  0  0  0  0  0  0  0  0  0  0
   44.6020   35.1590   41.9670 C   0  0  0  0  0  0  0  0  0  0  0  0
   43.6100   34.2960   42.3240 F   0  0  0  0  0  0  0  0  0  0  0  0
   43.9790   36.3790   41.6720 F   0  0  0  0  0  0  0  0  0  0  0  0
   45.3160   34.7780   40.8450 F   0  0  0  0  0  0  0  0  0  0  0  0
   46.9770   30.5460   44.9860 C   0  0  0  0  0  0  0  0  0  0  0  0
   48.3520   30.4780   44.6580 C   0  0  0  0  0  3  0  0  0  0  0  0
   48.7660   29.8250   43.5100 C   0  0  0  0  0  3  0  0  0  0  0  0
   47.8540   29.2340   42.6760 C   0  0  0  0  0  3  0  0  0  0  0  0
   46.5190   29.2580   42.9240 C   0  0  0  0  0  0  0  0  0  0  0  0
   45.6180   28.6490   42.0760 C   0  0  0  0  0  3  0  0  0  0  0  0
   44.2710   28.6780   42.3530 C   0  0  0  0  0  3  0  0  0  0  0  0
   43.7960   29.3120   43.4780 C   0  0  0  0  0  3  0  0  0  0  0  0
   44.7340   29.9030   44.2910 C   0  0  0  0  0  3  0  0  0  0  0  0
   46.1000   29.9200   44.0850 C   0  0  0  0  0  0  0  0  0  0  0  0
  1  8  1  0  0  0  0
  1  6  1  0  0  0  0
  2  1  2  0  0  0  0
  3  2  1  0  0  0  0
  3  4  2  0  0  0  0
  4  5  1  0  0  0  0
  5  6  2  0  0  0  0
  5  7  1  0  0  0  0
  7  9  1  0  0  0  0
 10  7  1  0  0  0  0
 11 12  1  0  0  0  0
 11 17  1  1  0  0  0
 11  2  1  0  0  0  0
 12 18  1  0  0  0  0
 13 19  1  0  0  0  0
 13 12  2  0  0  0  0
 14 20  1  6  0  0  0
 14 15  1  0  0  0  0
 14 13  1  0  0  0  0
 15 22  1  0  0  0  0
 15 16  1  0  0  0  0
 16 11  1  0  0  0  0
 21 15  1  0  0  0  0
 23 16  1  0  0  0  0
 24 16  1  0  0  0  0
 25 26  1  0  0  0  0
 25 14  1  0  0  0  0
 27 25  1  0  0  0  0
 28 25  1  0  0  0  0
 29  3  1  0  0  0  0
 30 29  1  0  0  0  0
 31 30  2  0  0  0  0
 32 33  2  0  0  0  0
 32 31  1  0  0  0  0
 33 38  1  0  0  0  0
 34 35  2  0  0  0  0
 34 33  1  0  0  0  0
 35 36  1  0  0  0  0
 36 37  2  0  0  0  0
 38 37  1  0  0  0  0
 38 29  2  0  0  0  0
M  END
>  <minimizedAffinity>
-5.75233603

>  <minimizedRMSD>
1.37362969

$$$$
