
 OpenBabel03232519503D

 42 45  0  0  1  0  0  0  0  0999 V2000
   46.6790   33.9660   42.5390 N   0  0  0  0  0  0  0  0  0  0  0  0
   48.0020   34.3750   42.0740 C   0  0  0  0  0  0  0  0  0  0  0  0
   47.6870   34.6890   40.6320 C   0  0  0  0  0  0  0  0  0  0  0  0
   46.9380   33.4310   40.2400 C   0  0  0  0  0  0  0  0  0  0  0  0
   46.1040   33.1650   41.4510 C   0  0  2  0  0  0  0  0  0  0  0  0
   48.4040   35.2240   42.6390 H   0  0  0  0  0  0  0  0  0  0  0  0
   48.6620   33.4740   42.0900 H   0  0  0  0  0  0  0  0  0  0  0  0
   47.0060   35.5620   40.5800 H   0  0  0  0  0  0  0  0  0  0  0  0
   48.5950   34.8420   40.0050 H   0  0  0  0  0  0  0  0  0  0  0  0
   47.6250   32.6300   39.9450 H   0  0  0  0  0  0  0  0  0  0  0  0
   46.2710   33.6890   39.3760 H   0  0  0  0  0  0  0  0  0  0  0  0
   46.3610   32.1160   41.7460 H   0  0  0  0  0  0  0  0  0  0  0  0
   44.7010   33.3080   41.3010 N   0  0  0  0  0  0  0  0  0  0  0  0
   44.0520   34.2390   40.5930 C   0  0  0  0  0  0  0  0  0  0  0  0
   42.6690   34.2920   40.5100 C   0  0  0  0  0  0  0  0  0  0  0  0
   41.9160   33.3510   41.1800 C   0  0  0  0  0  0  0  0  0  0  0  0
   40.6300   33.3460   41.1430 O   0  0  0  0  0  0  0  0  0  0  0  0
   42.5690   32.4210   41.8880 N   0  0  0  0  0  0  0  0  0  0  0  0
   43.8950   32.4140   41.9350 C   0  0  0  0  0  0  0  0  0  0  0  0
   44.4200   31.4900   42.6340 O   0  0  0  0  0  0  0  0  0  0  0  0
   44.6680   34.9690   40.0740 H   0  0  0  0  0  0  0  0  0  0  0  0
   41.9990   31.7080   42.3960 H   0  0  0  0  0  0  0  0  0  0  0  0
   41.9740   35.3270   39.7240 C   0  0  0  0  0  0  0  0  0  0  0  0
   40.9480   35.4920   40.1340 H   0  0  0  0  0  0  0  0  0  0  0  0
   41.9160   35.0740   38.6510 H   0  0  0  0  0  0  0  0  0  0  0  0
   42.5010   36.2970   39.9120 H   0  0  0  0  0  0  0  0  0  0  0  0
   44.5780   35.5400   45.1610 C   0  0  0  0  0  0  0  0  0  0  0  0
   45.1790   35.3280   43.9120 C   0  0  0  0  0  0  0  0  0  0  0  0
   46.0440   34.2450   43.7470 C   0  0  0  0  0  0  0  0  0  0  0  0
   46.2470   33.4520   44.8400 N   0  0  0  0  0  0  0  0  0  0  0  0
   45.6650   33.6630   46.0390 C   0  0  0  0  0  0  0  0  0  0  0  0
   44.8390   34.7010   46.1850 N   0  0  0  0  0  0  0  0  0  0  0  0
   43.9120   36.3890   45.2540 H   0  0  0  0  0  0  0  0  0  0  0  0
   45.0040   35.9610   43.0750 H   0  0  0  0  0  0  0  0  0  0  0  0
   45.9380   32.7650   47.1550 C   0  0  0  0  0  0  0  0  0  0  0  0
   47.2260   32.3410   47.3890 C   0  0  0  0  0  0  0  0  0  0  0  0
   47.5450   31.4920   48.4280 C   0  0  0  0  0  0  0  0  0  0  0  0
   48.5820   31.1880   48.5650 H   0  0  0  0  0  0  0  0  0  0  0  0
   46.5200   31.0580   49.2610 C   0  0  0  0  0  0  0  0  0  0  0  0
   45.2210   31.4840   49.0280 C   0  0  0  0  0  0  0  0  0  0  0  0
   44.4950   31.0950   49.7250 H   0  0  0  0  0  0  0  0  0  0  0  0
   44.9170   32.3380   47.9770 C   0  0  0  0  0  0  0  0  0  0  0  0
  1 29  1  0  0  0  0
  2  7  1  0  0  0  0
  2  1  1  0  0  0  0
  2  6  1  0  0  0  0
  3  2  1  0  0  0  0
  4  3  1  0  0  0  0
  4  5  1  0  0  0  0
  5 12  1  1  0  0  0
  5  1  1  0  0  0  0
  8  3  1  0  0  0  0
  9  3  1  0  0  0  0
 10  4  1  0  0  0  0
 11  4  1  0  0  0  0
 13  5  1  0  0  0  0
 13 19  1  0  0  0  0
 14 13  1  0  0  0  0
 15 14  2  0  0  0  0
 15 16  1  0  0  0  0
 16 18  1  0  0  0  0
 17 16  2  0  0  0  0
 18 19  1  0  0  0  0
 18 22  1  0  0  0  0
 19 20  2  0  0  0  0
 21 14  1  0  0  0  0
 23 26  1  0  0  0  0
 23 24  1  0  0  0  0
 23 15  1  0  0  0  0
 25 23  1  0  0  0  0
 27 33  1  0  0  0  0
 27 32  1  0  0  0  0
 28 27  2  0  0  0  0
 29 28  1  0  0  0  0
 29 30  2  0  0  0  0
 30 31  1  0  0  0  0
 31 32  2  0  0  0  0
 31 35  1  0  0  0  0
 34 28  1  0  0  0  0
 35 36  2  0  0  0  0
 35 42  1  0  0  0  0
 36 37  1  0  0  0  0
 37 38  1  0  0  0  0
 37 39  2  0  0  0  0
 40 39  1  0  0  0  0
 40 41  1  0  0  0  0
 42 40  2  0  0  0  0
M  END
>  <minimizedAffinity>
-7.10914564

>  <minimizedRMSD>
1.03435266

$$$$
