
 OpenBabel03232520543D

 34 36  0  0  1  0  0  0  0  0999 V2000
   46.5750   32.8700   44.9620 C   0  0  2  0  0  0  0  0  0  0  0  0
   45.4360   33.7600   45.4330 C   0  0  0  0  0  0  0  0  0  0  0  0
   45.1310   34.9110   44.6240 C   0  0  0  0  0  0  0  0  0  0  0  0
   45.8760   35.2030   43.4150 C   0  0  1  0  0  0  0  0  0  0  0  0
   47.0190   34.3170   43.1040 C   0  0  0  0  0  0  0  0  0  0  0  0
   46.6870   32.9010   43.4800 C   0  0  0  0  0  0  0  0  0  0  0  0
   47.4860   33.3820   45.3910 H   0  0  0  0  0  0  0  0  0  0  0  0
   44.7450   33.7690   46.2640 H   0  0  0  0  0  0  0  0  0  0  0  0
   44.3620   35.5950   44.8580 H   0  0  0  0  0  0  0  0  0  0  0  0
   46.2590   36.2460   43.4680 H   0  0  0  0  0  0  0  0  0  0  0  0
   47.9750   34.6320   43.5680 H   0  0  0  0  0  0  0  0  0  0  0  0
   47.1580   34.3270   41.9910 H   0  0  0  0  0  0  0  0  0  0  0  0
   47.5120   32.2650   43.1640 H   0  0  0  0  0  0  0  0  0  0  0  0
   45.7250   32.6710   42.9770 H   0  0  0  0  0  0  0  0  0  0  0  0
   45.7710   31.4160   46.7720 C   0  0  0  0  0  0  0  0  0  0  0  0
   46.4460   31.5590   45.5740 C   0  0  0  0  0  0  0  0  0  0  0  0
   46.9850   30.3980   45.0190 C   0  0  0  0  0  0  0  0  0  0  0  0
   46.8450   29.2060   45.6370 N   0  0  0  0  0  0  0  0  0  0  0  0
   46.1750   29.0990   46.8160 C   0  0  0  0  0  0  0  0  0  0  0  0
   45.6400   30.2180   47.3730 N   0  0  0  0  0  0  0  0  0  0  0  0
   45.3000   32.2140   47.3270 H   0  0  0  0  0  0  0  0  0  0  0  0
   47.5240   30.4410   44.0830 H   0  0  0  0  0  0  0  0  0  0  0  0
   46.0110   27.8220   47.4990 C   0  0  0  0  0  0  0  0  0  0  0  0
   44.8060   27.5270   48.1030 C   0  0  0  0  0  0  0  0  0  0  0  0
   44.6030   26.3200   48.7690 C   0  0  0  0  0  0  0  0  0  0  0  0
   43.6690   26.0480   49.2590 H   0  0  0  0  0  0  0  0  0  0  0  0
   45.6350   25.3900   48.8270 C   0  0  0  0  0  0  0  0  0  0  0  0
   46.8400   25.7040   48.2130 C   0  0  0  0  0  0  0  0  0  0  0  0
   47.6500   24.9650   48.2610 H   0  0  0  0  0  0  0  0  0  0  0  0
   47.0490   26.9010   47.5500 C   0  0  0  0  0  0  0  0  0  0  0  0
   44.8880   35.2070   42.2350 C   0  0  0  0  0  0  0  0  0  0  0  0
   43.8010   34.3980   42.4460 F   0  0  0  0  0  0  0  0  0  0  0  0
   44.3780   36.5090   42.1330 F   0  0  0  0  0  0  0  0  0  0  0  0
   45.5480   34.9400   41.0600 F   0  0  0  0  0  0  0  0  0  0  0  0
  1  7  1  1  0  0  0
  1  2  1  0  0  0  0
  1 16  1  0  0  0  0
  2  8  1  0  0  0  0
  3  9  1  0  0  0  0
  3  2  2  0  0  0  0
  4 10  1  1  0  0  0
  4  3  1  0  0  0  0
  5  4  1  0  0  0  0
  5  6  1  0  0  0  0
  5 11  1  0  0  0  0
  6  1  1  0  0  0  0
 12  5  1  0  0  0  0
 13  6  1  0  0  0  0
 14  6  1  0  0  0  0
 15 21  1  0  0  0  0
 15 20  1  0  0  0  0
 16 15  2  0  0  0  0
 17 16  1  0  0  0  0
 17 18  2  0  0  0  0
 18 19  1  0  0  0  0
 19 20  2  0  0  0  0
 19 23  1  0  0  0  0
 22 17  1  0  0  0  0
 23 30  2  0  0  0  0
 23 24  1  0  0  0  0
 24 25  2  0  0  0  0
 25 27  1  0  0  0  0
 25 26  1  0  0  0  0
 28 29  1  0  0  0  0
 28 27  2  0  0  0  0
 30 28  1  0  0  0  0
 31 32  1  0  0  0  0
 31  4  1  0  0  0  0
 33 31  1  0  0  0  0
 34 31  1  0  0  0  0
M  END
>  <minimizedAffinity>
-5.01831865

>  <minimizedRMSD>
1.96422338

$$$$
