REMARK  Name = 
REMARK  4 active torsions:
REMARK  status: ('A' for Active; 'I' for Inactive)
REMARK    1  A    between atoms: C_1  and  C_18
REMARK    2  A    between atoms: C_6  and  N_7
REMARK    3  A    between atoms: C_9  and  C_10
REMARK    4  A    between atoms: C_20  and  C_33
REMARK                            x       y       z     vdW  Elec       q    Type
REMARK                         _______ _______ _______ _____ _____    ______ ____
ROOT
ATOM      1  C   UNL     1      46.412  34.667  42.180  0.00  0.00    +0.000 A 
ATOM      2  C   UNL     1      47.719  35.024  42.043  0.00  0.00    +0.000 A 
ATOM      3  C   UNL     1      48.423  34.824  40.844  0.00  0.00    +0.000 A 
ATOM      4  C   UNL     1      47.772  34.243  39.756  0.00  0.00    +0.000 A 
ATOM      5  C   UNL     1      46.456  33.885  39.896  0.00  0.00    +0.000 A 
ATOM      6  C   UNL     1      45.791  34.099  41.100  0.00  0.00    +0.000 A 
ATOM      7  H   UNL     1      48.287  35.477  42.839  0.00  0.00    +0.000 HD
ATOM      8  H   UNL     1      49.452  35.103  40.731  0.00  0.00    +0.000 HD
ATOM      9  H   UNL     1      48.263  34.063  38.803  0.00  0.00    +0.000 HD
ATOM     10  H   UNL     1      45.928  33.432  39.067  0.00  0.00    +0.000 HD
ENDROOT
BRANCH   6  11
ATOM     11  N   UNL     1      44.428  33.714  41.204  0.00  0.00    +0.000 N 
ATOM     12  C   UNL     1      43.617  34.680  40.665  0.00  0.00    +0.000 A 
ATOM     13  C   UNL     1      42.226  34.507  40.660  0.00  0.00    +0.000 A 
ATOM     14  C   UNL     1      41.720  33.337  41.215  0.00  0.00    +0.000 A 
ATOM     15  O   UNL     1      40.482  33.126  41.239  0.00  0.00    +0.000 OA
ATOM     16  N   UNL     1      42.564  32.420  41.731  0.00  0.00    +0.000 N 
ATOM     17  C   UNL     1      43.890  32.603  41.727  0.00  0.00    +0.000 A 
ATOM     18  O   UNL     1      44.745  31.815  42.179  0.00  0.00    +0.000 OA
ATOM     19  H   UNL     1      43.925  35.595  40.225  0.00  0.00    +0.000 HD
ATOM     20  H   UNL     1      42.196  31.558  42.140  0.00  0.00    +0.000 HD
BRANCH  13  21
ATOM     21  C   UNL     1      41.305  35.525  40.088  0.00  0.00    +0.000 C 
ATOM     22  H   UNL     1      40.398  35.698  40.685  0.00  0.00    +0.000 HD
ATOM     23  H   UNL     1      40.987  35.208  39.067  0.00  0.00    +0.000 HD
ATOM     24  H   UNL     1      41.907  36.458  39.905  0.00  0.00    +0.000 HD
ENDBRANCH  13  21
ENDBRANCH   6  11
BRANCH   1  27
ATOM     25  C   UNL     1      44.424  36.140  45.010  0.00  0.00    +0.000 A 
ATOM     26  C   UNL     1      44.988  36.024  43.744  0.00  0.00    +0.000 A 
ATOM     27  C   UNL     1      45.770  34.911  43.449  0.00  0.00    +0.000 A 
ATOM     28  N   UNL     1      45.934  34.002  44.419  0.00  0.00    +0.000 NA
ATOM     29  C   UNL     1      45.374  34.132  45.653  0.00  0.00    +0.000 A 
ATOM     30  N   UNL     1      44.624  35.198  45.940  0.00  0.00    +0.000 NA
ATOM     31  H   UNL     1      43.825  37.033  45.175  0.00  0.00    +0.000 HD
ATOM     32  H   UNL     1      44.855  36.756  42.965  0.00  0.00    +0.000 HD
BRANCH  29  33
ATOM     33  C   UNL     1      45.596  33.099  46.667  0.00  0.00    +0.000 A 
ATOM     34  C   UNL     1      44.923  31.887  46.564  0.00  0.00    +0.000 A 
ATOM     35  C   UNL     1      45.090  30.880  47.484  0.00  0.00    +0.000 A 
ATOM     36  H   UNL     1      44.542  29.936  47.369  0.00  0.00    +0.000 HD
ATOM     37  C   UNL     1      45.955  31.090  48.538  0.00  0.00    +0.000 A 
ATOM     38  C   UNL     1      46.629  32.291  48.651  0.00  0.00    +0.000 A 
ATOM     39  H   UNL     1      47.314  32.475  49.474  0.00  0.00    +0.000 HD
ATOM     40  C   UNL     1      46.452  33.308  47.709  0.00  0.00    +0.000 A 
ENDBRANCH  29  33
ENDBRANCH   1  27
TORSDOF 4
