REMARK  Name = 
REMARK  3 active torsions:
REMARK  status: ('A' for Active; 'I' for Inactive)
REMARK    1  A    between atoms: C_1  and  C_8
REMARK    2  A    between atoms: C_4  and  C_14
REMARK    3  A    between atoms: C_9  and  C_29
REMARK                            x       y       z     vdW  Elec       q    Type
REMARK                         _______ _______ _______ _____ _____    ______ ____
ROOT
ATOM      1  C   UNL     1      46.129  33.639  45.310  0.00  0.00    +0.000 C 
ATOM      2  C   UNL     1      44.923  34.672  45.472  0.00  0.00    +0.000 C 
ATOM      3  C   UNL     1      44.691  35.577  44.373  0.00  0.00    +0.000 C 
ATOM      4  C   UNL     1      45.515  35.524  43.184  0.00  0.00    +0.000 C 
ATOM      5  C   UNL     1      46.648  34.572  43.197  0.00  0.00    +0.000 C 
ATOM      6  C   UNL     1      46.188  33.319  43.928  0.00  0.00    +0.000 C 
ATOM      7  H   UNL     1      46.906  34.388  45.657  0.00  0.00    +0.000 HD
ATOM      8  H   UNL     1      44.186  34.884  46.241  0.00  0.00    +0.000 HD
ATOM      9  H   UNL     1      43.915  36.295  44.394  0.00  0.00    +0.000 HD
ATOM     10  H   UNL     1      45.904  36.545  42.954  0.00  0.00    +0.000 HD
ATOM     11  H   UNL     1      46.961  34.361  42.174  0.00  0.00    +0.000 HD
ATOM     12  H   UNL     1      47.537  34.961  43.738  0.00  0.00    +0.000 HD
ATOM     13  H   UNL     1      45.090  33.222  43.562  0.00  0.00    +0.000 HD
ATOM     14  H   UNL     1      46.674  32.533  43.427  0.00  0.00    +0.000 HD
ENDROOT
BRANCH   1  16
ATOM     15  C   UNL     1      45.322  32.918  47.538  0.00  0.00    +0.000 A 
ATOM     16  C   UNL     1      45.910  32.667  46.334  0.00  0.00    +0.000 A 
ATOM     17  C   UNL     1      46.255  31.331  46.099  0.00  0.00    +0.000 A 
ATOM     18  N   UNL     1      46.022  30.355  46.996  0.00  0.00    +0.000 NA
ATOM     19  C   UNL     1      45.426  30.656  48.202  0.00  0.00    +0.000 A 
ATOM     20  N   UNL     1      45.089  31.917  48.452  0.00  0.00    +0.000 NA
ATOM     21  N   UNL     1      45.220  29.637  49.183  0.00  0.00    +0.000 N 
ATOM     22  H   UNL     1      45.027  33.908  47.804  0.00  0.00    +0.000 HD
ATOM     23  H   UNL     1      46.140  29.497  49.679  0.00  0.00    +0.000 HD
ATOM     24  H   UNL     1      44.245  29.284  49.180  0.00  0.00    +0.000 HD
BRANCH  17  25
ATOM     25  C   UNL     1      46.937  30.659  45.002  0.00  0.00    +0.000 A 
ATOM     26  C   UNL     1      48.139  29.989  45.129  0.00  0.00    +0.000 A 
ATOM     27  C   UNL     1      48.815  29.440  44.060  0.00  0.00    +0.000 A 
ATOM     28  H   UNL     1      49.767  28.917  44.212  0.00  0.00    +0.000 HD
ATOM     29  C   UNL     1      48.272  29.562  42.804  0.00  0.00    +0.000 A 
ATOM     30  C   UNL     1      47.092  30.202  42.562  0.00  0.00    +0.000 A 
ATOM     31  H   UNL     1      46.624  30.326  41.604  0.00  0.00    +0.000 HD
ATOM     32  C   UNL     1      46.476  30.724  43.677  0.00  0.00    +0.000 A 
ENDBRANCH  17  25
ENDBRANCH   1  16
BRANCH   4  33
ATOM     33  C   UNL     1      44.584  35.190  41.990  0.00  0.00    +0.000 C 
ATOM     34  F   UNL     1      43.593  34.291  42.319  0.00  0.00    +0.000 F 
ATOM     35  F   UNL     1      43.946  36.378  41.648  0.00  0.00    +0.000 F 
ATOM     36  F   UNL     1      45.336  34.808  40.894  0.00  0.00    +0.000 F 
ENDBRANCH   4  33
TORSDOF 3
