
 OpenBabel03232520513D

 31 33  0  0  1  0  0  0  0  0999 V2000
   46.4990   33.2240   46.0450 C   0  0  2  0  0  0  0  0  0  0  0  0
   47.0560   32.0260   45.3040 C   0  0  0  0  0  0  0  0  0  0  0  0
   47.2380   30.8090   46.0710 C   0  0  0  0  0  0  0  0  0  0  0  0
   46.8940   30.7590   47.4930 C   0  0  2  0  0  0  0  0  0  0  0  0
   46.4750   32.0430   48.1220 C   0  0  0  0  0  0  0  0  0  0  0  0
   45.5970   32.8060   47.1630 C   0  0  0  0  0  0  0  0  0  0  0  0
   47.4120   33.6980   46.4990 H   0  0  0  0  0  0  0  0  0  0  0  0
   47.3400   31.9500   44.2700 H   0  0  0  0  0  0  0  0  0  0  0  0
   47.6250   29.9510   45.5850 H   0  0  0  0  0  0  0  0  0  0  0  0
   46.0350   30.0390   47.6190 H   0  0  0  0  0  0  0  0  0  0  0  0
   47.3310   32.6920   48.3980 H   0  0  0  0  0  0  0  0  0  0  0  0
   45.8990   31.8500   49.0350 H   0  0  0  0  0  0  0  0  0  0  0  0
   45.1720   33.7180   47.6320 H   0  0  0  0  0  0  0  0  0  0  0  0
   44.7920   32.1190   46.8070 H   0  0  0  0  0  0  0  0  0  0  0  0
   46.3530   34.1710   43.7570 C   0  0  0  0  0  0  0  0  0  0  0  0
   45.8730   34.1520   45.0680 C   0  0  0  0  0  0  0  0  0  0  0  0
   44.8120   35.0320   45.4180 C   0  0  0  0  0  0  0  0  0  0  0  0
   44.3160   35.8450   44.4620 N   0  0  0  0  0  0  0  0  0  0  0  0
   44.8020   35.8410   43.1960 C   0  0  0  0  0  0  0  0  0  0  0  0
   45.8130   35.0070   42.8560 N   0  0  0  0  0  0  0  0  0  0  0  0
   47.1550   33.5420   43.4020 H   0  0  0  0  0  0  0  0  0  0  0  0
   44.4050   35.0540   46.4140 H   0  0  0  0  0  0  0  0  0  0  0  0
   44.3030   36.5490   42.5430 H   0  0  0  0  0  0  0  0  0  0  0  0
   48.0240   30.1950   48.2770 C   0  0  0  0  0  0  0  0  0  0  0  0
   48.4890   30.8640   49.4120 C   0  0  0  0  0  0  0  0  0  0  0  0
   49.5440   30.3730   50.1750 C   0  0  0  0  0  0  0  0  0  0  0  0
   49.9060   30.8830   51.0520 H   0  0  0  0  0  0  0  0  0  0  0  0
   50.1140   29.1810   49.7510 C   0  0  0  0  0  0  0  0  0  0  0  0
   49.7100   28.4720   48.6480 C   0  0  0  0  0  0  0  0  0  0  0  0
   50.1490   27.5540   48.3230 H   0  0  0  0  0  0  0  0  0  0  0  0
   48.6590   28.9980   47.9210 C   0  0  0  0  0  0  0  0  0  0  0  0
  1  7  1  1  0  0  0
  1  6  1  0  0  0  0
  2  1  1  0  0  0  0
  2  3  2  0  0  0  0
  3  4  1  0  0  0  0
  4 10  1  1  0  0  0
  4  5  1  0  0  0  0
  4 24  1  0  0  0  0
  5 11  1  0  0  0  0
  5 12  1  0  0  0  0
  6 13  1  0  0  0  0
  6  5  1  0  0  0  0
  8  2  1  0  0  0  0
  9  3  1  0  0  0  0
 14  6  1  0  0  0  0
 15 16  1  0  0  0  0
 16 17  2  0  0  0  0
 16  1  1  0  0  0  0
 17 22  1  0  0  0  0
 18 17  1  0  0  0  0
 19 18  2  0  0  0  0
 20 19  1  0  0  0  0
 20 15  2  0  0  0  0
 21 15  1  0  0  0  0
 23 19  1  0  0  0  0
 24 25  1  0  0  0  0
 25 26  2  0  0  0  0
 26 27  1  0  0  0  0
 28 26  1  0  0  0  0
 29 28  2  0  0  0  0
 30 29  1  0  0  0  0
 31 24  2  0  0  0  0
 31 29  1  0  0  0  0
M  END
>  <minimizedAffinity>
-5.35486603

>  <minimizedRMSD>
7.79206991

$$$$
