
 OpenBabel03232519403D

 37 40  0  0  0  0  0  0  0  0999 V2000
   46.5400   34.4480   41.9690 N   0  0  0  0  0  0  0  0  0  0  0  0
   47.6730   35.2240   41.8660 C   0  0  0  0  0  0  0  0  0  0  0  0
   48.4230   35.2410   40.7090 C   0  0  0  0  0  0  0  0  0  0  0  0
   47.9910   34.4450   39.6530 C   0  0  0  0  0  0  0  0  0  0  0  0
   48.6520   34.4350   38.5750 O   0  0  0  0  0  0  0  0  0  0  0  0
   46.8840   33.7100   39.8090 N   0  0  0  0  0  0  0  0  0  0  0  0
   46.1770   33.7150   40.9440 C   0  0  0  0  0  0  0  0  0  0  0  0
   45.1430   33.0650   41.1600 O   0  0  0  0  0  0  0  0  0  0  0  0
   48.0670   35.8660   42.6420 H   0  0  0  0  0  0  0  0  0  0  0  0
   49.3180   35.8400   40.5940 H   0  0  0  0  0  0  0  0  0  0  0  0
   46.4080   32.8800   38.7690 C   0  0  0  0  0  0  0  0  0  0  0  0
   45.4450   33.2650   37.8540 C   0  0  0  0  0  0  0  0  0  0  0  0
   45.0040   32.4310   36.8650 C   0  0  0  0  0  0  0  0  0  0  0  0
   45.5280   31.1540   36.7590 C   0  0  0  0  0  0  0  0  0  0  0  0
   46.4830   30.7800   37.6720 C   0  0  0  0  0  0  0  0  0  0  0  0
   46.9610   31.6140   38.7040 C   0  0  0  0  0  0  0  0  0  0  0  0
   45.0730   34.2790   37.9870 H   0  0  0  0  0  0  0  0  0  0  0  0
   44.2480   32.7830   36.1750 H   0  0  0  0  0  0  0  0  0  0  0  0
   45.1600   30.5180   35.9690 H   0  0  0  0  0  0  0  0  0  0  0  0
   46.8290   29.7680   37.5070 H   0  0  0  0  0  0  0  0  0  0  0  0
   47.9680   30.9460   39.5070 C   0  0  0  0  0  0  0  0  0  0  0  0
   47.9170   30.2860   40.7080 C   0  0  0  0  0  0  0  0  0  0  0  0
   49.0010   29.6890   41.3030 C   0  0  0  0  0  0  0  0  0  0  0  0
   48.8230   29.2060   42.2420 H   0  0  0  0  0  0  0  0  0  0  0  0
   50.2310   29.7330   40.6900 C   0  0  0  0  0  0  0  0  0  0  0  0
   50.3820   30.3740   39.4820 C   0  0  0  0  0  0  0  0  0  0  0  0
   51.3450   30.4130   38.9940 H   0  0  0  0  0  0  0  0  0  0  0  0
   49.2540   30.9520   38.9400 C   0  0  0  0  0  0  0  0  0  0  0  0
   44.5240   35.8700   44.7260 C   0  0  0  0  0  0  0  0  0  0  0  0
   45.1190   35.6920   43.4610 C   0  0  0  0  0  0  0  0  0  0  0  0
   45.9460   34.6080   43.2620 C   0  0  0  0  0  0  0  0  0  0  0  0
   46.1680   33.7410   44.2870 N   0  0  0  0  0  0  0  0  0  0  0  0
   45.5780   33.9410   45.4970 C   0  0  0  0  0  0  0  0  0  0  0  0
   44.7730   34.9770   45.7240 N   0  0  0  0  0  0  0  0  0  0  0  0
   43.8680   36.6990   44.9370 H   0  0  0  0  0  0  0  0  0  0  0  0
   44.8870   36.4290   42.7040 H   0  0  0  0  0  0  0  0  0  0  0  0
   45.8800   33.1460   46.1730 H   0  0  0  0  0  0  0  0  0  0  0  0
  1 31  1  0  0  0  0
  2  1  1  0  0  0  0
  2  9  1  0  0  0  0
  3  2  2  0  0  0  0
  4  6  1  0  0  0  0
  4  3  1  0  0  0  0
  5  4  2  0  0  0  0
  6  7  1  0  0  0  0
  7  8  2  0  0  0  0
  7  1  1  0  0  0  0
 10  3  1  0  0  0  0
 11  6  1  0  0  0  0
 12 17  1  0  0  0  0
 12 11  2  0  0  0  0
 13 12  1  0  0  0  0
 14 13  2  0  0  0  0
 14 15  1  0  0  0  0
 15 16  2  0  0  0  0
 16 11  1  0  0  0  0
 16 21  1  0  0  0  0
 18 13  1  0  0  0  0
 19 14  1  0  0  0  0
 20 15  1  0  0  0  0
 21 22  1  0  0  0  0
 22 23  2  0  0  0  0
 23 24  1  0  0  0  0
 25 23  1  0  0  0  0
 26 25  2  0  0  0  0
 27 26  1  0  0  0  0
 28 26  1  0  0  0  0
 28 21  2  0  0  0  0
 29 35  1  0  0  0  0
 29 34  1  0  0  0  0
 30 29  2  0  0  0  0
 31 30  1  0  0  0  0
 31 32  2  0  0  0  0
 32 33  1  0  0  0  0
 33 34  2  0  0  0  0
 33 37  1  0  0  0  0
 36 30  1  0  0  0  0
M  END
>  <minimizedAffinity>
-5.25816298

>  <minimizedRMSD>
0.534459829

$$$$
