
 OpenBabel03232520593D

 38 40  0  0  1  0  0  0  0  0999 V2000
   45.3450   32.9020   47.5060 C   0  0  0  0  0  0  0  0  0  0  0  0
   45.9170   32.6480   46.3000 C   0  0  0  0  0  0  0  0  0  0  0  0
   46.2020   31.3000   46.0640 C   0  0  0  0  0  0  0  0  0  0  0  0
   45.9360   30.3070   46.9510 N   0  0  0  0  0  0  0  0  0  0  0  0
   45.3510   30.6170   48.1700 C   0  0  0  0  0  0  0  0  0  0  0  0
   45.0730   31.8930   48.4150 N   0  0  0  0  0  0  0  0  0  0  0  0
   45.0700   29.6050   49.1170 N   0  0  0  0  0  0  0  0  0  0  0  0
   45.0870   33.9100   47.7960 H   0  0  0  0  0  0  0  0  0  0  0  0
   45.3770   29.6560   50.1320 H   0  0  0  0  0  0  0  0  0  0  0  0
   44.5360   28.7460   48.8510 H   0  0  0  0  0  0  0  0  0  0  0  0
   46.1680   33.6000   45.2720 C   0  0  2  0  0  0  0  0  0  0  0  0
   44.9560   34.6920   45.5000 C   0  0  0  0  0  0  0  0  0  0  0  0
   44.7180   35.6180   44.4310 C   0  0  0  0  0  0  0  0  0  0  0  0
   45.5190   35.5480   43.2070 C   0  0  1  0  0  0  0  0  0  0  0  0
   46.5820   34.5440   43.1540 C   0  0  0  0  0  0  0  0  0  0  0  0
   46.1370   33.3120   43.9090 C   0  0  0  0  0  0  0  0  0  0  0  0
   46.9940   34.3010   45.6010 H   0  0  0  0  0  0  0  0  0  0  0  0
   44.2760   34.8490   46.3290 H   0  0  0  0  0  0  0  0  0  0  0  0
   43.9490   36.3380   44.5350 H   0  0  0  0  0  0  0  0  0  0  0  0
   45.9510   36.5490   42.9910 H   0  0  0  0  0  0  0  0  0  0  0  0
   46.7410   34.2950   42.0630 H   0  0  0  0  0  0  0  0  0  0  0  0
   47.5930   34.8630   43.4940 H   0  0  0  0  0  0  0  0  0  0  0  0
   45.1830   32.9680   43.4590 H   0  0  0  0  0  0  0  0  0  0  0  0
   46.9950   32.6650   43.5830 H   0  0  0  0  0  0  0  0  0  0  0  0
   44.5070   35.2720   42.0520 C   0  0  0  0  0  0  0  0  0  0  0  0
   43.4550   34.4690   42.4470 F   0  0  0  0  0  0  0  0  0  0  0  0
   43.9520   36.5060   41.7190 F   0  0  0  0  0  0  0  0  0  0  0  0
   45.1840   34.8170   40.9370 F   0  0  0  0  0  0  0  0  0  0  0  0
   46.8590   30.6130   44.9700 C   0  0  0  0  0  0  0  0  0  0  0  0
   46.5370   29.8710   43.8790 C   0  0  0  0  0  0  0  0  0  0  0  0
   47.7200   29.4690   43.2510 C   0  0  0  0  0  0  0  0  0  0  0  0
   48.7050   29.9880   43.9890 N   0  0  0  0  0  0  0  0  0  0  0  0
   48.2220   30.6640   45.0050 N   0  0  0  0  0  0  0  0  0  0  0  0
   45.4930   29.7140   43.6790 H   0  0  0  0  0  0  0  0  0  0  0  0
   47.6970   28.8640   42.3560 H   0  0  0  0  0  0  0  0  0  0  0  0
   50.1250   29.7920   43.6570 C   0  0  0  0  0  3  0  0  0  0  0  0
   50.2800   29.5130   42.1840 C   0  0  0  0  0  1  0  0  0  0  0  0
   50.6200   28.5380   44.3880 C   0  0  0  0  0  1  0  0  0  0  0  0
  1  8  1  0  0  0  0
  1  6  1  0  0  0  0
  2  1  2  0  0  0  0
  3  2  1  0  0  0  0
  3  4  2  0  0  0  0
  4  5  1  0  0  0  0
  5  6  2  0  0  0  0
  5  7  1  0  0  0  0
  7  9  1  0  0  0  0
 10  7  1  0  0  0  0
 11 12  1  0  0  0  0
 11 17  1  1  0  0  0
 11  2  1  0  0  0  0
 12 18  1  0  0  0  0
 13 19  1  0  0  0  0
 13 12  2  0  0  0  0
 14 20  1  6  0  0  0
 14 13  1  0  0  0  0
 15 14  1  0  0  0  0
 15 22  1  0  0  0  0
 15 16  1  0  0  0  0
 16 11  1  0  0  0  0
 21 15  1  0  0  0  0
 23 16  1  0  0  0  0
 24 16  1  0  0  0  0
 25 26  1  0  0  0  0
 25 14  1  0  0  0  0
 27 25  1  0  0  0  0
 28 25  1  0  0  0  0
 29 33  2  0  0  0  0
 29  3  1  0  0  0  0
 30 29  1  0  0  0  0
 31 30  2  0  0  0  0
 31 32  1  0  0  0  0
 32 33  1  0  0  0  0
 34 30  1  0  0  0  0
 35 31  1  0  0  0  0
 36 32  1  0  0  0  0
 36 38  1  0  0  0  0
 37 36  1  0  0  0  0
M  END
>  <minimizedAffinity>
-5.4991827

>  <minimizedRMSD>
0.148123398

$$$$
