REMARK  Name = 
REMARK  6 active torsions:
REMARK  status: ('A' for Active; 'I' for Inactive)
REMARK    1  A    between atoms: C_1  and  C_8
REMARK    2  A    between atoms: C_4  and  C_19
REMARK    3  A    between atoms: C_9  and  C_14
REMARK    4  A    between atoms: N_17  and  C_36
REMARK    5  A    between atoms: C_36  and  C_37
REMARK    6  A    between atoms: C_36  and  C_38
REMARK                            x       y       z     vdW  Elec       q    Type
REMARK                         _______ _______ _______ _____ _____    ______ ____
ROOT
ATOM      1  C   UNL     1      45.397  32.885  47.526  0.00  0.00    +0.000 A 
ATOM      2  C   UNL     1      45.920  32.636  46.297  0.00  0.00    +0.000 A 
ATOM      3  C   UNL     1      46.155  31.285  46.027  0.00  0.00    +0.000 A 
ATOM      4  N   UNL     1      45.889  30.284  46.905  0.00  0.00    +0.000 NA
ATOM      5  C   UNL     1      45.355  30.588  48.149  0.00  0.00    +0.000 A 
ATOM      6  N   UNL     1      45.125  31.867  48.426  0.00  0.00    +0.000 NA
ATOM      7  N   UNL     1      45.075  29.568  49.087  0.00  0.00    +0.000 N 
ATOM      8  H   UNL     1      45.180  33.894  47.842  0.00  0.00    +0.000 HD
ATOM      9  H   UNL     1      45.417  29.590  50.091  0.00  0.00    +0.000 HD
ATOM     10  H   UNL     1      44.506  28.730  48.824  0.00  0.00    +0.000 HD
ENDROOT
BRANCH   2  11
ATOM     11  C   UNL     1      46.166  33.599  45.278  0.00  0.00    +0.000 C 
ATOM     12  C   UNL     1      44.932  34.668  45.500  0.00  0.00    +0.000 C 
ATOM     13  C   UNL     1      44.690  35.597  44.434  0.00  0.00    +0.000 C 
ATOM     14  C   UNL     1      45.505  35.549  43.219  0.00  0.00    +0.000 C 
ATOM     15  C   UNL     1      46.586  34.564  43.171  0.00  0.00    +0.000 C 
ATOM     16  C   UNL     1      46.154  33.320  43.913  0.00  0.00    +0.000 C 
ATOM     17  H   UNL     1      46.976  34.312  45.620  0.00  0.00    +0.000 HD
ATOM     18  H   UNL     1      44.241  34.808  46.322  0.00  0.00    +0.000 HD
ATOM     19  H   UNL     1      43.907  36.303  44.535  0.00  0.00    +0.000 HD
ATOM     20  H   UNL     1      45.922  36.559  43.014  0.00  0.00    +0.000 HD
ATOM     21  H   UNL     1      46.761  34.326  42.080  0.00  0.00    +0.000 HD
ATOM     22  H   UNL     1      47.587  34.899  43.524  0.00  0.00    +0.000 HD
ATOM     23  H   UNL     1      45.211  32.962  43.450  0.00  0.00    +0.000 HD
ATOM     24  H   UNL     1      47.027  32.690  43.592  0.00  0.00    +0.000 HD
BRANCH  14  25
ATOM     25  C   UNL     1      44.511  35.264  42.051  0.00  0.00    +0.000 C 
ATOM     26  F   UNL     1      43.459  34.454  42.434  0.00  0.00    +0.000 F 
ATOM     27  F   UNL     1      43.951  36.493  41.708  0.00  0.00    +0.000 F 
ATOM     28  F   UNL     1      45.206  34.812  40.946  0.00  0.00    +0.000 F 
ENDBRANCH  14  25
ENDBRANCH   2  11
BRANCH   3  29
ATOM     29  C   UNL     1      46.753  30.599  44.899  0.00  0.00    +0.000 A 
ATOM     30  C   UNL     1      46.371  29.921  43.786  0.00  0.00    +0.000 A 
ATOM     31  C   UNL     1      47.518  29.468  43.127  0.00  0.00    +0.000 A 
ATOM     32  N   UNL     1      48.543  29.893  43.870  0.00  0.00    +0.000 N 
ATOM     33  N   UNL     1      48.117  30.560  44.917  0.00  0.00    +0.000 NA
ATOM     34  H   UNL     1      45.317  29.840  43.595  0.00  0.00    +0.000 HD
ATOM     35  H   UNL     1      47.446  28.900  42.210  0.00  0.00    +0.000 HD
BRANCH  32  36
ATOM     36  C   UNL     1      49.944  29.619  43.511  0.00  0.00    +0.000 C 
ATOM     37  C   UNL     1      50.065  29.395  42.026  0.00  0.00    +0.000 C 
ATOM     38  C   UNL     1      50.361  28.304  44.181  0.00  0.00    +0.000 C 
ENDBRANCH  32  36
ENDBRANCH   3  29
TORSDOF 4
