
 OpenBabel03232520593D

 38 40  0  0  1  0  0  0  0  0999 V2000
   45.3550   32.9000   47.5070 C   0  0  0  0  0  0  0  0  0  0  0  0
   45.9200   32.6460   46.2980 C   0  0  0  0  0  0  0  0  0  0  0  0
   46.1990   31.2980   46.0570 C   0  0  0  0  0  0  0  0  0  0  0  0
   45.9340   30.3040   46.9430 N   0  0  0  0  0  0  0  0  0  0  0  0
   45.3550   30.6130   48.1660 C   0  0  0  0  0  0  0  0  0  0  0  0
   45.0840   31.8890   48.4150 N   0  0  0  0  0  0  0  0  0  0  0  0
   45.0750   29.6000   49.1110 N   0  0  0  0  0  0  0  0  0  0  0  0
   45.1020   33.9080   47.8000 H   0  0  0  0  0  0  0  0  0  0  0  0
   45.3860   29.6470   50.1240 H   0  0  0  0  0  0  0  0  0  0  0  0
   44.5360   28.7430   48.8460 H   0  0  0  0  0  0  0  0  0  0  0  0
   46.1710   33.6000   45.2710 C   0  0  2  0  0  0  0  0  0  0  0  0
   44.9560   34.6890   45.5000 C   0  0  0  0  0  0  0  0  0  0  0  0
   44.7180   35.6160   44.4310 C   0  0  0  0  0  0  0  0  0  0  0  0
   45.5190   35.5490   43.2080 C   0  0  1  0  0  0  0  0  0  0  0  0
   46.5830   34.5460   43.1540 C   0  0  0  0  0  0  0  0  0  0  0  0
   46.1400   33.3130   43.9070 C   0  0  0  0  0  0  0  0  0  0  0  0
   46.9960   34.3010   45.6000 H   0  0  0  0  0  0  0  0  0  0  0  0
   44.2760   34.8450   46.3280 H   0  0  0  0  0  0  0  0  0  0  0  0
   43.9470   36.3350   44.5360 H   0  0  0  0  0  0  0  0  0  0  0  0
   45.9500   36.5510   42.9930 H   0  0  0  0  0  0  0  0  0  0  0  0
   46.7430   34.3000   42.0630 H   0  0  0  0  0  0  0  0  0  0  0  0
   47.5930   34.8670   43.4940 H   0  0  0  0  0  0  0  0  0  0  0  0
   45.1860   32.9680   43.4570 H   0  0  0  0  0  0  0  0  0  0  0  0
   46.9990   32.6680   43.5810 H   0  0  0  0  0  0  0  0  0  0  0  0
   44.5080   35.2730   42.0520 C   0  0  0  0  0  0  0  0  0  0  0  0
   43.4570   34.4680   42.4460 F   0  0  0  0  0  0  0  0  0  0  0  0
   43.9500   36.5060   41.7210 F   0  0  0  0  0  0  0  0  0  0  0  0
   45.1860   34.8210   40.9370 F   0  0  0  0  0  0  0  0  0  0  0  0
   46.8480   30.6110   44.9580 C   0  0  0  0  0  0  0  0  0  0  0  0
   46.5180   29.8730   43.8660 C   0  0  0  0  0  0  0  0  0  0  0  0
   47.6960   29.4680   43.2320 C   0  0  0  0  0  0  0  0  0  0  0  0
   48.6870   29.9790   43.9670 N   0  0  0  0  0  0  0  0  0  0  0  0
   48.2110   30.6550   44.9870 N   0  0  0  0  0  0  0  0  0  0  0  0
   45.4720   29.7220   43.6710 H   0  0  0  0  0  0  0  0  0  0  0  0
   47.6670   28.8650   42.3350 H   0  0  0  0  0  0  0  0  0  0  0  0
   50.1050   29.7790   43.6280 C   0  0  0  0  0  3  0  0  0  0  0  0
   50.3200   29.9850   42.1520 C   0  0  0  0  0  1  0  0  0  0  0  0
   50.4620   28.3150   43.9160 C   0  0  0  0  0  1  0  0  0  0  0  0
  1  8  1  0  0  0  0
  1  6  1  0  0  0  0
  2  1  2  0  0  0  0
  3  2  1  0  0  0  0
  3  4  2  0  0  0  0
  4  5  1  0  0  0  0
  5  6  2  0  0  0  0
  5  7  1  0  0  0  0
  7  9  1  0  0  0  0
 10  7  1  0  0  0  0
 11 12  1  0  0  0  0
 11 17  1  1  0  0  0
 11  2  1  0  0  0  0
 12 18  1  0  0  0  0
 13 19  1  0  0  0  0
 13 12  2  0  0  0  0
 14 20  1  6  0  0  0
 14 13  1  0  0  0  0
 15 14  1  0  0  0  0
 15 22  1  0  0  0  0
 15 16  1  0  0  0  0
 16 11  1  0  0  0  0
 21 15  1  0  0  0  0
 23 16  1  0  0  0  0
 24 16  1  0  0  0  0
 25 26  1  0  0  0  0
 25 14  1  0  0  0  0
 27 25  1  0  0  0  0
 28 25  1  0  0  0  0
 29 33  2  0  0  0  0
 29  3  1  0  0  0  0
 30 29  1  0  0  0  0
 31 30  2  0  0  0  0
 31 32  1  0  0  0  0
 32 33  1  0  0  0  0
 34 30  1  0  0  0  0
 35 31  1  0  0  0  0
 36 38  1  0  0  0  0
 36 32  1  0  0  0  0
 37 36  1  0  0  0  0
M  END
>  <minimizedAffinity>
-5.5093503

>  <minimizedRMSD>
0.12791352

$$$$
