
 OpenBabel03232517363D

 23 25  0  0  0  0  0  0  0  0999 V2000
   43.9120   34.7740   42.0680 C   0  0  0  0  0  0  0  0  0  0  0  0
   42.8220   34.0640   41.5210 C   0  0  0  0  0  0  0  0  0  0  0  0
   42.7580   32.6920   41.6780 C   0  0  0  0  0  0  0  0  0  0  0  0
   43.7530   32.0610   42.3590 N   0  0  0  0  0  0  0  0  0  0  0  0
   44.7890   32.7680   42.8740 C   0  0  0  0  0  0  0  0  0  0  0  0
   44.8780   34.1130   42.7360 N   0  0  0  0  0  0  0  0  0  0  0  0
   44.0670   35.8410   42.0090 H   0  0  0  0  0  0  0  0  0  0  0  0
   45.5910   32.2680   43.4210 H   0  0  0  0  0  0  0  0  0  0  0  0
   41.8670   34.8400   40.8380 N   0  0  0  0  0  0  0  0  0  0  0  0
   41.9610   35.0450   39.5580 N   0  0  0  0  0  0  0  0  0  0  0  0
   40.9130   35.8290   39.1470 C   0  0  0  0  0  0  0  0  0  0  0  0
   40.1770   36.0750   40.3010 C   0  0  0  0  0  0  0  0  0  0  0  0
   40.7910   35.4400   41.3810 C   0  0  0  0  0  0  0  0  0  0  0  0
   40.7020   36.1800   38.1440 H   0  0  0  0  0  0  0  0  0  0  0  0
   39.2600   36.6660   40.3850 H   0  0  0  0  0  0  0  0  0  0  0  0
   40.4940   35.4190   42.4190 H   0  0  0  0  0  0  0  0  0  0  0  0
   41.6620   31.9690   41.1350 N   0  0  0  0  0  0  0  0  0  0  0  0
   41.4240   31.3570   39.8210 C   0  0  0  0  0  0  0  0  0  0  0  0
   40.3250   32.2320   39.2000 C   0  0  0  0  0  0  0  0  0  0  0  0
   39.0630   31.8420   39.9690 C   0  0  0  0  0  0  0  0  0  0  0  0
   38.1650   32.2670   39.5290 H   0  0  0  0  0  0  0  0  0  0  0  0
   39.2520   32.3510   41.3820 C   0  0  0  0  0  0  0  0  0  0  0  0
   40.5120   31.7600   41.9960 C   0  0  0  0  0  0  0  0  0  0  0  0
  1  6  1  0  0  0  0
  2  3  1  0  0  0  0
  2  1  2  0  0  0  0
  3  4  2  0  0  0  0
  4  5  1  0  0  0  0
  5  8  1  0  0  0  0
  6  5  2  0  0  0  0
  7  1  1  0  0  0  0
  9 13  1  0  0  0  0
  9  2  1  0  0  0  0
 10  9  1  0  0  0  0
 11 10  2  0  0  0  0
 11 12  1  0  0  0  0
 12 15  1  0  0  0  0
 12 13  2  0  0  0  0
 13 16  1  0  0  0  0
 14 11  1  0  0  0  0
 17  3  1  0  0  0  0
 17 23  1  0  0  0  0
 18 17  1  0  0  0  0
 19 18  1  0  0  0  0
 19 20  1  0  0  0  0
 20 22  1  0  0  0  0
 21 20  1  0  0  0  0
 22 23  1  0  0  0  0
M  END
>  <minimizedAffinity>
-4.19363165

>  <minimizedRMSD>
3.86209059

$$$$
