
 OpenBabel03232520003D

 16 16  0  0  0  0  0  0  0  0999 V2000
   48.1370   34.6810   41.9400 C   0  0  0  0  0  0  0  0  0  0  0  0
   47.7280   34.5470   40.6060 C   0  0  0  0  0  0  0  0  0  0  0  0
   46.6090   33.7400   40.3650 C   0  0  0  0  0  0  0  0  0  0  0  0
   46.0000   33.1440   41.4370 N   0  0  0  0  0  0  0  0  0  0  0  0
   46.4420   33.3120   42.6950 C   0  0  0  0  0  0  0  0  0  0  0  0
   47.5010   34.0740   42.9370 N   0  0  0  0  0  0  0  0  0  0  0  0
   48.2450   35.0400   39.7940 H   0  0  0  0  0  0  0  0  0  0  0  0
   46.2480   33.6030   39.3420 H   0  0  0  0  0  0  0  0  0  0  0  0
   49.3180   35.5300   42.1940 C   0  0  0  0  0  0  0  0  0  0  0  0
   49.4670   36.6040   41.5580 O   0  0  0  0  0  0  0  0  0  0  0  0
   50.2360   35.1150   43.1350 O   0  0  0  0  0  0  0  0  0  0  0  0
   51.1030   35.6490   43.2250 H   0  0  0  0  0  0  0  0  0  0  0  0
   45.6580   32.5460   44.0870 S   0  0  0  0  0  0  0  0  0  0  0  0
   46.7520   32.4340   45.5140 C   0  0  0  0  0  0  0  0  0  0  0  0
   47.3180   31.0320   45.5640 C   0  0  0  0  0  0  0  0  0  0  0  0
   46.0730   32.8120   46.8000 C   0  0  0  0  0  0  0  0  0  0  0  0
  1  9  1  0  0  0  0
  1  6  1  0  0  0  0
  2  1  2  0  0  0  0
  3  2  1  0  0  0  0
  3  4  2  0  0  0  0
  4  5  1  0  0  0  0
  5  6  2  0  0  0  0
  5 13  1  0  0  0  0
  7  2  1  0  0  0  0
  8  3  1  0  0  0  0
  9 11  1  0  0  0  0
 10  9  2  0  0  0  0
 11 12  1  0  0  0  0
 13 14  1  0  0  0  0
 14 15  1  0  0  0  0
 14 16  1  0  0  0  0
M  END
>  <minimizedAffinity>
-3.96148443

>  <minimizedRMSD>
1.72533071

$$$$
