
     RDKit          3D

 45 47  0  0  0  0  0  0  0  0999 V2000
   46.1657   33.5993   45.2780 C   0  0  2  0  0  0  0  0  0  0  0  0
   44.9319   34.6677   45.4999 C   0  0  0  0  0  0  0  0  0  0  0  0
   44.6902   35.5972   44.4338 C   0  0  0  0  0  0  0  0  0  0  0  0
   45.5047   35.5486   43.2187 C   0  0  1  0  0  0  0  0  0  0  0  0
   46.5863   34.5643   43.1714 C   0  0  0  0  0  0  0  0  0  0  0  0
   46.1545   33.3203   43.9125 C   0  0  0  0  0  0  0  0  0  0  0  0
   45.3969   32.8853   47.5260 C   0  0  0  0  0  0  0  0  0  0  0  0
   45.9198   32.6365   46.2974 C   0  0  0  0  0  0  0  0  0  0  0  0
   46.1552   31.2853   46.0273 C   0  0  0  0  0  0  0  0  0  0  0  0
   45.8893   30.2844   46.9050 N   0  0  0  0  0  0  0  0  0  0  0  0
   45.3552   30.5876   48.1486 C   0  0  0  0  0  0  0  0  0  0  0  0
   45.1247   31.8667   48.4256 N   0  0  0  0  0  0  0  0  0  0  0  0
   45.0755   29.5678   49.0872 N   0  0  0  0  0  0  0  0  0  0  0  0
   46.7529   30.5986   44.8991 C   0  0  0  0  0  0  0  0  0  0  0  0
   46.3709   29.9206   43.7862 C   0  0  0  0  0  0  0  0  0  0  0  0
   47.5184   29.4685   43.1272 C   0  0  0  0  0  0  0  0  0  0  0  0
   48.5427   29.8929   43.8696 N   0  0  0  0  0  0  0  0  0  0  0  0
   48.1165   30.5600   44.9168 N   0  0  0  0  0  0  0  0  0  0  0  0
   44.5107   35.2644   42.0509 C   0  0  0  0  0  0  0  0  0  0  0  0
   43.4587   34.4538   42.4339 F   0  0  0  0  0  0  0  0  0  0  0  0
   43.9511   36.4935   41.7075 F   0  0  0  0  0  0  0  0  0  0  0  0
   45.2062   34.8117   40.9455 F   0  0  0  0  0  0  0  0  0  0  0  0
   46.9763   34.3123   45.6203 H   0  0  0  0  0  0  0  0  0  0  0  0
   44.2407   34.8080   46.3216 H   0  0  0  0  0  0  0  0  0  0  0  0
   43.9072   36.3034   44.5355 H   0  0  0  0  0  0  0  0  0  0  0  0
   45.9219   36.5592   43.0137 H   0  0  0  0  0  0  0  0  0  0  0  0
   46.7609   34.3257   42.0799 H   0  0  0  0  0  0  0  0  0  0  0  0
   47.5871   34.8994   43.5238 H   0  0  0  0  0  0  0  0  0  0  0  0
   45.2105   32.9624   43.4500 H   0  0  0  0  0  0  0  0  0  0  0  0
   47.0274   32.6900   43.5922 H   0  0  0  0  0  0  0  0  0  0  0  0
   45.1803   33.8943   47.8417 H   0  0  0  0  0  0  0  0  0  0  0  0
   45.4172   29.5896   50.0911 H   0  0  0  0  0  0  0  0  0  0  0  0
   44.5063   28.7295   48.8239 H   0  0  0  0  0  0  0  0  0  0  0  0
   45.3168   29.8403   43.5946 H   0  0  0  0  0  0  0  0  0  0  0  0
   47.4456   28.9003   42.2098 H   0  0  0  0  0  0  0  0  0  0  0  0
   49.9442   29.6187   43.5112 C   0  0  0  0  0  0  0  0  0  0  0  0
   50.8577   30.5913   44.2113 C   0  0  0  0  0  0  0  0  0  0  0  0
   50.1125   29.8733   42.0083 C   0  0  0  0  0  0  0  0  0  0  0  0
   50.1739   28.5632   43.6782 H   0  0  0  0  0  0  0  0  0  0  0  0
   51.0739   31.4692   43.5530 H   0  0  0  0  0  0  0  0  0  0  0  0
   50.3976   30.9738   45.1376 H   0  0  0  0  0  0  0  0  0  0  0  0
   51.8054   30.0211   44.4159 H   0  0  0  0  0  0  0  0  0  0  0  0
   49.5662   29.1150   41.4092 H   0  0  0  0  0  0  0  0  0  0  0  0
   49.6003   30.8465   41.7524 H   0  0  0  0  0  0  0  0  0  0  0  0
   51.1804   29.9579   41.7573 H   0  0  0  0  0  0  0  0  0  0  0  0
  1  2  1  0
  1  8  1  0
  3  2  2  0
  4  3  1  0
  5  4  1  0
  5  6  1  0
  6  1  1  0
  7 12  2  0
  8  7  1  0
  9  8  2  0
  9 10  1  0
 10 11  2  0
 11 12  1  0
 11 13  1  0
 14 18  2  0
 14  9  1  0
 15 14  1  0
 16 15  2  0
 16 17  1  0
 17 18  1  0
 19 20  1  0
 19  4  1  0
 21 19  1  0
 22 19  1  0
  1 23  1  1
  2 24  1  0
  3 25  1  0
  4 26  1  6
  5 27  1  0
  5 28  1  0
  6 29  1  0
  6 30  1  0
  7 31  1  0
 13 32  1  0
 13 33  1  0
 15 34  1  0
 16 35  1  0
 36 37  1  0
 36 38  1  0
 36 39  1  0
 37 40  1  0
 37 41  1  0
 37 42  1  0
 38 43  1  0
 38 44  1  0
 38 45  1  0
 17 36  1  0
M  ISO  8  23  13  24  13  25  13  26  13  27  13  28  13  29  13  30  13
M  ISO  3  31  14  34  14  35  14
M  END
>  <DihAtoms>  (1) 
15,16,35,36

>  <DihDeg>  (1) 
-80.00762564927876

$$$$
