
 OpenBabel03232520493D

 30 32  0  0  1  0  0  0  0  0999 V2000
   46.3790   33.4180   45.8320 C   0  0  2  0  0  0  0  0  0  0  0  0
   45.1770   34.3300   45.8040 C   0  0  0  0  0  0  0  0  0  0  0  0
   44.9140   35.0920   44.6080 C   0  0  0  0  0  0  0  0  0  0  0  0
   45.8220   34.9560   43.4680 C   0  0  1  0  0  0  0  0  0  0  0  0
   46.9800   34.0720   43.5950 C   0  0  0  0  0  0  0  0  0  0  0  0
   46.6500   32.8810   44.4540 C   0  0  0  0  0  0  0  0  0  0  0  0
   47.2340   34.0860   46.1080 H   0  0  0  0  0  0  0  0  0  0  0  0
   44.4410   34.5290   46.5460 H   0  0  0  0  0  0  0  0  0  0  0  0
   44.0600   35.7520   44.5560 H   0  0  0  0  0  0  0  0  0  0  0  0
   46.2780   36.0030   43.2810 H   0  0  0  0  0  0  0  0  0  0  0  0
   47.8080   34.6360   44.1290 H   0  0  0  0  0  0  0  0  0  0  0  0
   47.3210   33.7750   42.5790 H   0  0  0  0  0  0  0  0  0  0  0  0
   47.5640   32.2400   44.5200 H   0  0  0  0  0  0  0  0  0  0  0  0
   45.8040   32.2720   44.0810 H   0  0  0  0  0  0  0  0  0  0  0  0
   45.2520   32.5940   47.8650 C   0  0  0  0  0  0  0  0  0  0  0  0
   46.1870   32.3870   46.8520 C   0  0  0  0  0  0  0  0  0  0  0  0
   46.9230   31.1720   46.8750 C   0  0  0  0  0  0  0  0  0  0  0  0
   46.6810   30.2820   47.8740 N   0  0  0  0  0  0  0  0  0  0  0  0
   45.7620   30.5200   48.8440 C   0  0  0  0  0  0  0  0  0  0  0  0
   45.0510   31.6710   48.8370 N   0  0  0  0  0  0  0  0  0  0  0  0
   44.6340   33.4770   47.9510 H   0  0  0  0  0  0  0  0  0  0  0  0
   47.6540   30.9670   46.1150 H   0  0  0  0  0  0  0  0  0  0  0  0
   45.5530   29.8300   49.6450 H   0  0  0  0  0  0  0  0  0  0  0  0
   45.0720   34.6690   42.2930 N   0  0  0  0  0  0  0  0  0  0  0  0
   45.7740   34.3930   41.0970 C   0  0  0  0  0  0  0  0  0  0  0  0
   44.9690   33.5720   40.1050 C   0  0  0  0  0  0  0  0  0  0  0  0
   43.5280   33.9980   40.0650 C   0  0  0  0  0  0  0  0  0  0  0  0
   43.1710   34.0390   39.0290 H   0  0  0  0  0  0  0  0  0  0  0  0
   43.3380   35.3550   40.7160 C   0  0  0  0  0  0  0  0  0  0  0  0
   43.8080   35.3090   42.1610 C   0  0  0  0  0  0  0  0  0  0  0  0
  1  7  1  1  0  0  0
  1 16  1  0  0  0  0
  2  1  1  0  0  0  0
  2  8  1  0  0  0  0
  3  2  2  0  0  0  0
  4 10  1  6  0  0  0
  4  5  1  0  0  0  0
  4  3  1  0  0  0  0
  5 11  1  0  0  0  0
  5  6  1  0  0  0  0
  6 13  1  0  0  0  0
  6  1  1  0  0  0  0
  9  3  1  0  0  0  0
 12  5  1  0  0  0  0
 14  6  1  0  0  0  0
 15 21  1  0  0  0  0
 15 20  1  0  0  0  0
 16 17  1  0  0  0  0
 16 15  2  0  0  0  0
 17 18  2  0  0  0  0
 18 19  1  0  0  0  0
 19 23  1  0  0  0  0
 20 19  2  0  0  0  0
 22 17  1  0  0  0  0
 24  4  1  0  0  0  0
 25 24  1  0  0  0  0
 26 25  1  0  0  0  0
 27 26  1  0  0  0  0
 27 29  1  0  0  0  0
 28 27  1  0  0  0  0
 29 30  1  0  0  0  0
 30 24  1  0  0  0  0
M  END
>  <minimizedAffinity>
-5.39213562

>  <minimizedRMSD>
1.17533135

$$$$
