
 OpenBabel03232520403D

 23 24  0  0  0  0  0  0  0  0999 V2000
   43.9680   35.5110   42.6680 C   0  0  0  0  0  0  0  0  0  0  0  0
   43.2770   35.0430   41.5160 C   0  0  0  0  0  0  0  0  0  0  0  0
   43.9900   34.3580   40.5270 C   0  0  0  0  0  0  0  0  0  0  0  0
   45.3220   34.1590   40.6990 N   0  0  0  0  0  0  0  0  0  0  0  0
   45.9470   34.6260   41.8270 C   0  0  0  0  0  0  0  0  0  0  0  0
   45.2810   35.2810   42.7770 N   0  0  0  0  0  0  0  0  0  0  0  0
   43.3840   36.0360   43.4100 H   0  0  0  0  0  0  0  0  0  0  0  0
   43.4750   33.9980   39.6460 H   0  0  0  0  0  0  0  0  0  0  0  0
   47.3800   34.4260   42.0370 C   0  0  0  0  0  0  0  0  0  0  0  0
   48.2520   35.4720   41.9340 C   0  0  0  0  0  0  0  0  0  0  0  0
   49.6200   35.3530   42.1210 C   0  0  0  0  0  0  0  0  0  0  0  0
   50.1400   34.0950   42.4320 C   0  0  0  0  0  0  0  0  0  0  0  0
   49.2290   33.0390   42.5320 C   0  0  0  0  0  0  0  0  0  0  0  0
   47.9210   33.2350   42.3380 N   0  0  0  0  0  0  0  0  0  0  0  0
   47.8990   36.4650   41.6960 H   0  0  0  0  0  0  0  0  0  0  0  0
   50.2950   36.1970   42.0340 H   0  0  0  0  0  0  0  0  0  0  0  0
   51.1980   33.9220   42.5920 H   0  0  0  0  0  0  0  0  0  0  0  0
   49.5800   32.0250   42.7750 H   0  0  0  0  0  0  0  0  0  0  0  0
   41.4970   35.3440   41.3510 S   0  0  0  0  0  0  0  0  0  0  0  0
   40.8480   34.6510   39.8280 C   0  0  0  0  0  0  0  0  0  0  0  0
   41.4200   35.5220   38.7000 C   0  0  0  0  0  0  0  0  0  0  0  0
   39.3420   34.8110   39.8420 C   0  0  0  0  0  0  0  0  0  0  0  0
   41.2910   33.2440   39.5670 C   0  0  0  0  0  0  0  0  0  0  0  0
  1  6  1  0  0  0  0
  1  7  1  0  0  0  0
  2  1  2  0  0  0  0
  3  4  2  0  0  0  0
  3  2  1  0  0  0  0
  4  5  1  0  0  0  0
  5  9  1  0  0  0  0
  5  6  2  0  0  0  0
  8  3  1  0  0  0  0
  9 14  1  0  0  0  0
 10  9  2  0  0  0  0
 10 11  1  0  0  0  0
 11 12  2  0  0  0  0
 12 13  1  0  0  0  0
 12 17  1  0  0  0  0
 13 18  1  0  0  0  0
 14 13  2  0  0  0  0
 15 10  1  0  0  0  0
 16 11  1  0  0  0  0
 19  2  1  0  0  0  0
 20 22  1  0  0  0  0
 20 19  1  0  0  0  0
 21 20  1  0  0  0  0
 23 20  1  0  0  0  0
M  END
>  <minimizedAffinity>
-5.09937716

>  <minimizedRMSD>
0.11582312

$$$$
