
 OpenBabel03232515213D

 44 48  0  0  0  0  0  0  0  0999 V2000
   48.1020   30.9550   48.3770 C   0  0  0  0  0  0  0  0  0  0  0  0
   49.0290   31.5070   49.2270 C   0  0  0  0  0  0  0  0  0  0  0  0
   50.0600   30.7580   49.7480 C   0  0  0  0  0  0  0  0  0  0  0  0
   50.1370   29.4230   49.3870 C   0  0  0  0  0  0  0  0  0  0  0  0
   49.2250   28.8710   48.5480 C   0  0  0  0  0  0  0  0  0  0  0  0
   48.1970   29.6280   48.0330 C   0  0  0  0  0  0  0  0  0  0  0  0
   48.9560   32.5510   49.5000 H   0  0  0  0  0  0  0  0  0  0  0  0
   50.7860   31.2090   50.4200 H   0  0  0  0  0  0  0  0  0  0  0  0
   50.9620   28.8890   49.8220 H   0  0  0  0  0  0  0  0  0  0  0  0
   44.4670   35.8090   44.5940 C   0  0  0  0  0  0  0  0  0  0  0  0
   45.1990   35.7080   43.4140 C   0  0  0  0  0  0  0  0  0  0  0  0
   46.1880   34.7400   43.3170 C   0  0  0  0  0  0  0  0  0  0  0  0
   46.4140   33.9210   44.3700 N   0  0  0  0  0  0  0  0  0  0  0  0
   45.6760   34.0460   45.5160 C   0  0  0  0  0  0  0  0  0  0  0  0
   44.7030   34.9810   45.6430 N   0  0  0  0  0  0  0  0  0  0  0  0
   45.8980   33.1940   46.6400 N   0  0  0  0  0  0  0  0  0  0  0  0
   47.0890   32.5640   46.7010 C   0  0  0  0  0  0  0  0  0  0  0  0
   47.0480   31.8100   47.8730 C   0  0  0  0  0  0  0  0  0  0  0  0
   45.8640   32.0010   48.4690 N   0  0  0  0  0  0  0  0  0  0  0  0
   45.1550   32.8380   47.7340 C   0  0  0  0  0  0  0  0  0  0  0  0
   43.6930   36.5580   44.6830 H   0  0  0  0  0  0  0  0  0  0  0  0
   44.9850   36.3790   42.6010 H   0  0  0  0  0  0  0  0  0  0  0  0
   46.7810   34.6380   42.3980 H   0  0  0  0  0  0  0  0  0  0  0  0
   47.9520   32.5640   46.0570 H   0  0  0  0  0  0  0  0  0  0  0  0
   44.1810   33.2930   47.7750 H   0  0  0  0  0  0  0  0  0  0  0  0
   47.2390   29.0540   47.1500 N   0  0  0  0  0  0  0  0  0  0  0  0
   46.4070   28.5140   47.4600 H   0  0  0  0  0  0  0  0  0  0  0  0
   47.3920   29.1900   46.1240 H   0  0  0  0  0  0  0  0  0  0  0  0
   49.3090   27.4490   48.1670 C   0  0  0  0  0  0  0  0  0  0  0  0
   48.3310   26.6820   48.2870 O   0  0  0  0  0  0  0  0  0  0  0  0
   50.5880   26.9190   47.6270 C   0  0  0  0  0  0  0  0  0  0  0  0
   51.2530   25.8740   48.3470 C   0  0  0  0  0  0  0  0  0  0  0  0
   52.7220   25.5780   47.3190 S   0  0  0  0  0  0  0  0  0  0  0  0
   52.2140   26.9170   46.0630 C   0  0  0  0  0  0  0  0  0  0  0  0
   51.2040   27.2860   46.5560 N   0  0  0  0  0  0  0  0  0  0  0  0
   52.9630   27.2450   44.9130 N   0  0  0  0  0  0  0  0  0  0  0  0
   52.9960   26.7620   43.9760 H   0  0  0  0  0  0  0  0  0  0  0  0
   53.5130   28.0840   45.1330 H   0  0  0  0  0  0  0  0  0  0  0  0
   51.0400   25.1390   49.4990 N   0  0  0  0  0  0  0  0  0  0  0  0
   51.6710   25.4640   50.7630 C   0  0  0  0  0  0  0  0  0  0  0  0
   52.2110   24.2030   51.4020 C   0  0  0  0  0  0  0  0  0  0  0  0
   51.1340   23.4070   51.7890 O   0  0  0  0  0  0  0  0  0  0  0  0
   49.9620   23.7750   51.1330 C   0  0  0  0  0  0  0  0  0  0  0  0
   50.1960   23.9750   49.6290 C   0  0  0  0  0  0  0  0  0  0  0  0
  1  2  1  0  0  0  0
  2  7  1  0  0  0  0
  2  3  2  0  0  0  0
  3  8  1  0  0  0  0
  4  3  1  0  0  0  0
  4  9  1  0  0  0  0
  5  4  2  0  0  0  0
  6  1  2  0  0  0  0
  6  5  1  0  0  0  0
 10 21  1  0  0  0  0
 10 15  1  0  0  0  0
 11 10  2  0  0  0  0
 12 11  1  0  0  0  0
 12 13  2  0  0  0  0
 13 14  1  0  0  0  0
 14 15  2  0  0  0  0
 14 16  1  0  0  0  0
 16 17  1  0  0  0  0
 16 20  1  0  0  0  0
 17 18  2  0  0  0  0
 18  1  1  0  0  0  0
 18 19  1  0  0  0  0
 20 25  1  0  0  0  0
 20 19  2  0  0  0  0
 22 11  1  0  0  0  0
 23 12  1  0  0  0  0
 24 17  1  0  0  0  0
 26 27  1  0  0  0  0
 26  6  1  0  0  0  0
 28 26  1  0  0  0  0
 29 30  2  0  0  0  0
 29  5  1  0  0  0  0
 31 29  1  0  0  0  0
 31 32  2  0  0  0  0
 32 39  1  0  0  0  0
 33 32  1  0  0  0  0
 34 35  2  0  0  0  0
 34 33  1  0  0  0  0
 35 31  1  0  0  0  0
 36 38  1  0  0  0  0
 36 34  1  0  0  0  0
 37 36  1  0  0  0  0
 39 44  1  0  0  0  0
 39 40  1  0  0  0  0
 40 41  1  0  0  0  0
 41 42  1  0  0  0  0
 43 42  1  0  0  0  0
 44 43  1  0  0  0  0
M  END
>  <minimizedAffinity>
-6.12631083

>  <minimizedRMSD>
1.38457859

$$$$
