
 OpenBabel03232520493D

 29 31  0  0  1  0  0  0  0  0999 V2000
   47.4630   33.5190   43.7060 C   0  0  2  0  0  0  0  0  0  0  0  0
   47.4570   32.0140   43.6000 C   0  0  0  0  0  0  0  0  0  0  0  0
   46.6380   31.2620   44.5250 C   0  0  0  0  0  0  0  0  0  0  0  0
   45.8450   31.9580   45.5180 C   0  0  2  0  0  0  0  0  0  0  0  0
   46.0250   33.4110   45.6290 C   0  0  0  0  0  0  0  0  0  0  0  0
   46.1790   34.0330   44.2680 C   0  0  0  0  0  0  0  0  0  0  0  0
   48.3080   33.7210   44.4210 H   0  0  0  0  0  0  0  0  0  0  0  0
   47.9820   31.3600   42.9200 H   0  0  0  0  0  0  0  0  0  0  0  0
   46.6290   30.2030   44.4560 H   0  0  0  0  0  0  0  0  0  0  0  0
   44.7610   31.7760   45.2570 H   0  0  0  0  0  0  0  0  0  0  0  0
   45.0920   33.8820   46.0530 H   0  0  0  0  0  0  0  0  0  0  0  0
   46.9210   33.6920   46.2150 H   0  0  0  0  0  0  0  0  0  0  0  0
   46.2870   35.1420   44.3490 H   0  0  0  0  0  0  0  0  0  0  0  0
   45.3250   33.7380   43.6530 H   0  0  0  0  0  0  0  0  0  0  0  0
   47.3000   33.5270   41.2460 C   0  0  0  0  0  0  0  0  0  0  0  0
   47.8250   34.1070   42.4010 C   0  0  0  0  0  0  0  0  0  0  0  0
   48.6900   35.2180   42.2630 C   0  0  0  0  0  0  0  0  0  0  0  0
   48.9660   35.6640   41.0130 N   0  0  0  0  0  0  0  0  0  0  0  0
   48.4410   35.0820   39.9060 C   0  0  0  0  0  0  0  0  0  0  0  0
   47.6120   34.0170   40.0210 N   0  0  0  0  0  0  0  0  0  0  0  0
   46.6320   32.6780   41.2220 H   0  0  0  0  0  0  0  0  0  0  0  0
   49.1110   35.6870   43.1390 H   0  0  0  0  0  0  0  0  0  0  0  0
   48.7680   35.5670   39.0000 H   0  0  0  0  0  0  0  0  0  0  0  0
   45.9970   31.3250   46.8270 N   0  0  0  0  0  0  0  0  0  0  0  0
   47.4010   31.3030   47.2110 C   0  0  0  0  0  0  0  0  0  0  0  0
   47.5170   30.5210   48.5030 C   0  0  0  0  0  0  0  0  0  0  0  0
   46.9630   31.3360   49.4880 O   0  0  0  0  0  0  0  0  0  0  0  0
   45.6430   31.5710   49.2070 C   0  0  0  0  0  0  0  0  0  0  0  0
   45.3470   32.1420   47.8640 C   0  0  0  0  0  0  0  0  0  0  0  0
  1  6  1  0  0  0  0
  1  7  1  1  0  0  0
  2  1  1  0  0  0  0
  2  3  2  0  0  0  0
  3  4  1  0  0  0  0
  4 10  1  6  0  0  0
  4  5  1  0  0  0  0
  4 24  1  0  0  0  0
  5 11  1  0  0  0  0
  5 12  1  0  0  0  0
  6 13  1  0  0  0  0
  6  5  1  0  0  0  0
  8  2  1  0  0  0  0
  9  3  1  0  0  0  0
 14  6  1  0  0  0  0
 15 16  1  0  0  0  0
 16  1  1  0  0  0  0
 17 16  2  0  0  0  0
 17 22  1  0  0  0  0
 18 17  1  0  0  0  0
 19 20  1  0  0  0  0
 19 18  2  0  0  0  0
 20 15  2  0  0  0  0
 21 15  1  0  0  0  0
 23 19  1  0  0  0  0
 24 25  1  0  0  0  0
 24 29  1  0  0  0  0
 25 26  1  0  0  0  0
 26 27  1  0  0  0  0
 28 27  1  0  0  0  0
 29 28  1  0  0  0  0
M  END
>  <minimizedAffinity>
-4.63111401

>  <minimizedRMSD>
7.1195097

$$$$
