
 OpenBabel03232520083D

 22 24  0  0  0  0  0  0  0  0999 V2000
   45.9510   33.0070   46.2460 C   0  0  0  0  0  0  0  0  0  0  0  0
   45.5360   32.7800   47.5410 C   0  0  0  0  0  0  0  0  0  0  0  0
   46.2020   31.9050   48.3370 C   0  0  0  0  0  0  0  0  0  0  0  0
   47.3000   31.2860   47.7340 C   0  0  0  0  0  0  0  0  0  0  0  0
   47.3460   31.9620   46.0830 S   0  0  0  0  0  0  0  0  0  0  0  0
   44.6530   33.3240   47.9160 H   0  0  0  0  0  0  0  0  0  0  0  0
   45.9780   31.6520   49.3360 H   0  0  0  0  0  0  0  0  0  0  0  0
   44.3470   35.8730   44.5980 C   0  0  0  0  0  0  0  0  0  0  0  0
   44.3210   35.4460   43.2600 C   0  0  0  0  0  0  0  0  0  0  0  0
   44.8550   34.1880   42.9680 C   0  0  0  0  0  0  0  0  0  0  0  0
   45.3710   33.4430   43.9880 N   0  0  0  0  0  0  0  0  0  0  0  0
   45.3770   33.8900   45.2590 C   0  0  0  0  0  0  0  0  0  0  0  0
   44.8670   35.1000   45.5710 N   0  0  0  0  0  0  0  0  0  0  0  0
   43.9240   36.8610   44.8190 H   0  0  0  0  0  0  0  0  0  0  0  0
   43.9160   36.0260   42.4440 H   0  0  0  0  0  0  0  0  0  0  0  0
   44.8780   33.7850   41.9840 H   0  0  0  0  0  0  0  0  0  0  0  0
   48.2450   30.3060   48.2570 N   0  0  0  0  0  0  0  0  0  0  0  0
   48.9110   30.5930   49.5070 C   0  0  0  0  0  0  0  0  0  0  0  0
   50.0700   29.5950   49.5880 C   0  0  0  0  0  0  0  0  0  0  0  0
   49.5280   28.3400   49.4180 O   0  0  0  0  0  0  0  0  0  0  0  0
   49.2180   28.0610   48.0930 C   0  0  0  0  0  0  0  0  0  0  0  0
   48.4040   29.1490   47.4480 C   0  0  0  0  0  0  0  0  0  0  0  0
  1  2  2  0  0  0  0
  2  6  1  0  0  0  0
  2  3  1  0  0  0  0
  3  7  1  0  0  0  0
  4 17  1  0  0  0  0
  4  3  2  0  0  0  0
  5  1  1  0  0  0  0
  5  4  1  0  0  0  0
  8 14  1  0  0  0  0
  8 13  1  0  0  0  0
  9  8  2  0  0  0  0
 10  9  1  0  0  0  0
 10 11  2  0  0  0  0
 11 12  1  0  0  0  0
 12 13  2  0  0  0  0
 12  1  1  0  0  0  0
 15  9  1  0  0  0  0
 16 10  1  0  0  0  0
 17 18  1  0  0  0  0
 18 19  1  0  0  0  0
 20 19  1  0  0  0  0
 21 20  1  0  0  0  0
 22 21  1  0  0  0  0
 22 17  1  0  0  0  0
M  END
>  <minimizedAffinity>
-4.31812811

>  <minimizedRMSD>
1.22589409

$$$$
