
 OpenBabel03232520443D

 38 41  0  0  0  0  0  0  0  0999 V2000
   46.4470   34.6440   42.1890 C   0  0  0  0  0  0  0  0  0  0  0  0
   47.7550   35.0130   42.0440 C   0  0  0  0  0  0  0  0  0  0  0  0
   48.4430   34.8480   40.8380 C   0  0  0  0  0  0  0  0  0  0  0  0
   47.7810   34.2840   39.7310 C   0  0  0  0  0  0  0  0  0  0  0  0
   46.4730   33.9190   39.8870 C   0  0  0  0  0  0  0  0  0  0  0  0
   45.8190   34.0960   41.1000 C   0  0  0  0  0  0  0  0  0  0  0  0
   48.3090   35.4520   42.8680 H   0  0  0  0  0  0  0  0  0  0  0  0
   49.4680   35.1540   40.7770 H   0  0  0  0  0  0  0  0  0  0  0  0
   48.3390   34.1700   38.8110 H   0  0  0  0  0  0  0  0  0  0  0  0
   45.9970   33.4880   39.0130 H   0  0  0  0  0  0  0  0  0  0  0  0
   44.4250   36.0020   45.0560 C   0  0  0  0  0  0  0  0  0  0  0  0
   44.9760   35.9160   43.7770 C   0  0  0  0  0  0  0  0  0  0  0  0
   45.8120   34.8500   43.4750 C   0  0  0  0  0  0  0  0  0  0  0  0
   46.0490   33.9430   44.4480 N   0  0  0  0  0  0  0  0  0  0  0  0
   45.4990   34.0580   45.6760 C   0  0  0  0  0  0  0  0  0  0  0  0
   44.6930   35.0760   45.9820 N   0  0  0  0  0  0  0  0  0  0  0  0
   43.7920   36.8620   45.1960 H   0  0  0  0  0  0  0  0  0  0  0  0
   44.8200   36.6150   42.9580 H   0  0  0  0  0  0  0  0  0  0  0  0
   45.8020   33.0570   46.6400 N   0  0  0  0  0  0  0  0  0  0  0  0
   45.0750   32.8730   47.8490 C   0  0  0  0  0  0  0  0  0  0  0  0
   44.8890   31.4330   48.2470 C   0  0  0  0  0  0  0  0  0  0  0  0
   45.8560   30.5700   47.7970 O   0  0  0  0  0  0  0  0  0  0  0  0
   46.2360   30.7530   46.4880 C   0  0  0  0  0  0  0  0  0  0  0  0
   46.9050   32.1350   46.4490 C   0  0  0  0  0  0  0  0  0  0  0  0
   44.4610   33.7000   41.2080 N   0  0  0  0  0  0  0  0  0  0  0  0
   43.6370   34.6600   40.6810 C   0  0  0  0  0  0  0  0  0  0  0  0
   42.2510   34.4790   40.6810 C   0  0  0  0  0  0  0  0  0  0  0  0
   41.7550   33.3020   41.2320 C   0  0  0  0  0  0  0  0  0  0  0  0
   40.5230   33.0850   41.2610 O   0  0  0  0  0  0  0  0  0  0  0  0
   42.6060   32.3970   41.7340 N   0  0  0  0  0  0  0  0  0  0  0  0
   43.9360   32.5820   41.7270 C   0  0  0  0  0  0  0  0  0  0  0  0
   44.7980   31.7960   42.1720 O   0  0  0  0  0  0  0  0  0  0  0  0
   43.9360   35.5810   40.2450 H   0  0  0  0  0  0  0  0  0  0  0  0
   42.2860   31.4900   42.1610 H   0  0  0  0  0  0  0  0  0  0  0  0
   41.3150   35.4910   40.1210 C   0  0  0  0  0  0  0  0  0  0  0  0
   40.4730   35.5900   40.8390 H   0  0  0  0  0  0  0  0  0  0  0  0
   41.8150   36.4680   40.0920 H   0  0  0  0  0  0  0  0  0  0  0  0
   40.8660   35.1740   39.1630 H   0  0  0  0  0  0  0  0  0  0  0  0
  1 13  1  0  0  0  0
  2  1  1  0  0  0  0
  2  7  1  0  0  0  0
  3  2  2  0  0  0  0
  4  5  2  0  0  0  0
  4  3  1  0  0  0  0
  5  6  1  0  0  0  0
  6 25  1  0  0  0  0
  6  1  2  0  0  0  0
  8  3  1  0  0  0  0
  9  4  1  0  0  0  0
 10  5  1  0  0  0  0
 11 17  1  0  0  0  0
 11 16  1  0  0  0  0
 12 11  2  0  0  0  0
 13 12  1  0  0  0  0
 13 14  2  0  0  0  0
 14 15  1  0  0  0  0
 15 16  2  0  0  0  0
 15 19  1  0  0  0  0
 18 12  1  0  0  0  0
 19 20  1  0  0  0  0
 20 21  1  0  0  0  0
 22 21  1  0  0  0  0
 23 22  1  0  0  0  0
 24 23  1  0  0  0  0
 24 19  1  0  0  0  0
 25 31  1  0  0  0  0
 26 27  2  0  0  0  0
 26 25  1  0  0  0  0
 27 28  1  0  0  0  0
 28 29  2  0  0  0  0
 28 30  1  0  0  0  0
 30 34  1  0  0  0  0
 31 30  1  0  0  0  0
 31 32  2  0  0  0  0
 33 26  1  0  0  0  0
 35 27  1  0  0  0  0
 35 36  1  0  0  0  0
 37 35  1  0  0  0  0
 38 35  1  0  0  0  0
M  END
>  <minimizedAffinity>
-7.91559315

>  <minimizedRMSD>
0.158329204

$$$$
