
 OpenBabel03232519143D

 29 30  0  0  1  0  0  0  0  0999 V2000
   45.4890   34.6680   44.0040 C   0  0  0  0  0  0  0  0  0  0  0  0
   46.4950   34.3740   43.0620 C   0  0  0  0  0  0  0  0  0  0  0  0
   47.4670   33.4100   43.3640 C   0  0  0  0  0  0  0  0  0  0  0  0
   47.3700   32.8060   44.5800 N   0  0  0  0  0  0  0  0  0  0  0  0
   46.4070   33.1040   45.4570 C   0  0  0  0  0  0  0  0  0  0  0  0
   45.4570   34.0380   45.1760 N   0  0  0  0  0  0  0  0  0  0  0  0
   46.5780   34.8450   42.0950 H   0  0  0  0  0  0  0  0  0  0  0  0
   48.2620   33.1620   42.6780 H   0  0  0  0  0  0  0  0  0  0  0  0
   46.3190   32.4550   46.7620 C   0  0  0  0  0  0  0  0  0  0  0  0
   47.3530   31.5830   47.1420 C   0  0  0  0  0  0  0  0  0  0  0  0
   46.7730   31.0610   48.8320 S   0  0  0  0  0  0  0  0  0  0  0  0
   45.2440   32.1300   48.6900 C   0  0  0  0  0  0  0  0  0  0  0  0
   45.4000   32.5670   47.6770 N   0  0  0  0  0  0  0  0  0  0  0  0
   48.3200   31.2460   46.5900 H   0  0  0  0  0  0  0  0  0  0  0  0
   44.2740   32.4050   49.3560 H   0  0  0  0  0  0  0  0  0  0  0  0
   44.4760   35.7090   43.6580 C   0  0  1  0  0  0  0  0  0  0  0  0
   43.7980   35.8020   44.5210 H   0  0  0  0  0  0  0  0  0  0  0  0
   45.1570   37.0460   43.4170 C   0  0  0  0  0  0  0  0  0  0  0  0
   45.0670   37.7100   44.3180 H   0  0  0  0  0  0  0  0  0  0  0  0
   44.6090   37.5720   42.6050 H   0  0  0  0  0  0  0  0  0  0  0  0
   46.2060   36.9250   43.1080 H   0  0  0  0  0  0  0  0  0  0  0  0
   43.6970   35.3140   42.4270 C   0  0  0  0  0  0  0  0  0  0  0  0
   44.1960   35.7680   41.5470 H   0  0  0  0  0  0  0  0  0  0  0  0
   43.8110   34.2070   42.3000 H   0  0  0  0  0  0  0  0  0  0  0  0
   42.3010   35.6210   42.5510 N   0  0  0  0  0  0  0  0  0  0  0  0
   41.9140   35.0550   43.3580 H   0  0  0  0  0  0  0  0  0  0  0  0
   41.6250   35.1840   41.3440 C   0  0  0  0  0  0  0  0  0  0  0  0
   40.5770   36.2040   40.9150 C   0  0  0  0  0  0  0  0  0  0  0  0
   40.3790   36.9360   41.7000 H   0  0  0  0  0  0  0  0  0  0  0  0
  1  6  1  0  0  0  0
  2  3  1  0  0  0  0
  2  1  2  0  0  0  0
  3  4  2  0  0  0  0
  4  5  1  0  0  0  0
  5  9  1  0  0  0  0
  6  5  2  0  0  0  0
  7  2  1  0  0  0  0
  8  3  1  0  0  0  0
  9 10  2  0  0  0  0
  9 13  1  0  0  0  0
 10 11  1  0  0  0  0
 12 11  1  0  0  0  0
 12 15  1  0  0  0  0
 13 12  2  0  0  0  0
 14 10  1  0  0  0  0
 16  1  1  0  0  0  0
 16 17  1  1  0  0  0
 18 16  1  0  0  0  0
 18 19  1  0  0  0  0
 20 18  1  0  0  0  0
 21 18  1  0  0  0  0
 22 25  1  0  0  0  0
 22 16  1  0  0  0  0
 23 22  1  0  0  0  0
 24 22  1  0  0  0  0
 25 26  1  0  0  0  0
 27 25  1  0  0  0  0
 28 27  1  0  0  0  0
 28 29  1  0  0  0  0
M  END
>  <minimizedAffinity>
-4.87380123

>  <minimizedRMSD>
0.881725729

$$$$
