
 OpenBabel03232520363D

 16 17  0  0  0  0  0  0  0  0999 V2000
   44.8570   34.8810   45.5170 C   0  0  0  0  0  0  0  0  0  0  0  0
   45.4840   34.9320   44.2440 C   0  0  0  0  0  0  0  0  0  0  0  0
   46.4180   33.9490   43.9420 C   0  0  0  0  0  0  0  0  0  0  0  0
   46.7040   32.9770   44.8630 N   0  0  0  0  0  0  0  0  0  0  0  0
   46.0700   32.9830   46.0660 C   0  0  0  0  0  0  0  0  0  0  0  0
   45.1680   33.9050   46.3970 N   0  0  0  0  0  0  0  0  0  0  0  0
   44.1210   35.6380   45.7770 H   0  0  0  0  0  0  0  0  0  0  0  0
   46.9110   33.9590   42.9830 H   0  0  0  0  0  0  0  0  0  0  0  0
   46.4010   31.9470   46.9990 N   0  0  0  0  0  0  0  0  0  0  0  0
   47.4970   32.2130   47.9240 C   0  0  0  0  0  0  0  0  0  0  0  0
   47.3010   31.3020   49.1070 C   0  0  0  0  0  0  0  0  0  0  0  0
   45.9640   31.0570   49.3840 O   0  0  0  0  0  0  0  0  0  0  0  0
   45.3290   30.3320   48.4030 C   0  0  0  0  0  0  0  0  0  0  0  0
   45.6640   30.7050   46.9990 C   0  0  0  0  0  0  0  0  0  0  0  0
   45.0680   36.2310   43.0730 S   0  0  0  0  0  0  0  0  0  0  0  0
   45.5900   37.4480   43.5840 H   0  0  0  0  0  0  0  0  0  0  0  0
  1  7  1  0  0  0  0
  1  6  1  0  0  0  0
  2  1  2  0  0  0  0
  3  2  1  0  0  0  0
  3  4  2  0  0  0  0
  4  5  1  0  0  0  0
  5  6  2  0  0  0  0
  5  9  1  0  0  0  0
  8  3  1  0  0  0  0
  9 14  1  0  0  0  0
  9 10  1  0  0  0  0
 10 11  1  0  0  0  0
 11 12  1  0  0  0  0
 13 12  1  0  0  0  0
 14 13  1  0  0  0  0
 15 16  1  0  0  0  0
 15  2  1  0  0  0  0
M  END
>  <minimizedAffinity>
-4.28844166

>  <minimizedRMSD>
2.23860216

$$$$
