
 OpenBabel03232520583D

 39 41  0  0  1  0  0  0  0  0999 V2000
   45.4360   32.8490   47.4960 C   0  0  0  0  0  0  0  0  0  0  0  0
   45.9280   32.5990   46.2570 C   0  0  0  0  0  0  0  0  0  0  0  0
   46.1370   31.2490   45.9700 C   0  0  0  0  0  0  0  0  0  0  0  0
   45.8750   30.2460   46.8460 N   0  0  0  0  0  0  0  0  0  0  0  0
   45.3730   30.5570   48.1000 C   0  0  0  0  0  0  0  0  0  0  0  0
   45.1680   31.8330   48.3930 N   0  0  0  0  0  0  0  0  0  0  0  0
   45.1240   29.5250   49.0440 N   0  0  0  0  0  0  0  0  0  0  0  0
   45.2410   33.8590   47.8240 H   0  0  0  0  0  0  0  0  0  0  0  0
   44.2170   29.5070   49.5820 H   0  0  0  0  0  0  0  0  0  0  0  0
   45.8360   28.7630   49.2240 H   0  0  0  0  0  0  0  0  0  0  0  0
   46.1750   33.5660   45.2420 C   0  0  2  0  0  0  0  0  0  0  0  0
   44.9690   34.6570   45.4920 C   0  0  0  0  0  0  0  0  0  0  0  0
   44.7350   35.6030   44.4360 C   0  0  0  0  0  0  0  0  0  0  0  0
   45.5320   35.5470   43.2070 C   0  0  1  0  0  0  0  0  0  0  0  0
   46.5900   34.5470   43.1430 C   0  0  0  0  0  0  0  0  0  0  0  0
   46.1420   33.3020   43.8740 C   0  0  0  0  0  0  0  0  0  0  0  0
   46.9910   34.2730   45.5840 H   0  0  0  0  0  0  0  0  0  0  0  0
   44.2940   34.8040   46.3250 H   0  0  0  0  0  0  0  0  0  0  0  0
   43.9680   36.3230   44.5590 H   0  0  0  0  0  0  0  0  0  0  0  0
   45.9550   36.5550   43.0140 H   0  0  0  0  0  0  0  0  0  0  0  0
   46.8290   34.3500   42.0590 H   0  0  0  0  0  0  0  0  0  0  0  0
   47.5510   34.8540   43.5960 H   0  0  0  0  0  0  0  0  0  0  0  0
   46.9960   32.6590   43.5310 H   0  0  0  0  0  0  0  0  0  0  0  0
   45.1880   32.9210   43.4480 H   0  0  0  0  0  0  0  0  0  0  0  0
   44.5120   35.2970   42.0560 C   0  0  0  0  0  0  0  0  0  0  0  0
   43.4420   34.5120   42.4510 F   0  0  0  0  0  0  0  0  0  0  0  0
   43.9860   36.5410   41.7210 F   0  0  0  0  0  0  0  0  0  0  0  0
   45.1790   34.8270   40.9420 F   0  0  0  0  0  0  0  0  0  0  0  0
   46.6990   30.5590   44.8220 C   0  0  0  0  0  0  0  0  0  0  0  0
   46.2780   29.8250   43.7590 C   0  0  0  0  0  0  0  0  0  0  0  0
   47.4140   29.4170   43.0380 C   0  0  0  0  0  0  0  0  0  0  0  0
   48.4550   29.9220   43.6980 N   0  0  0  0  0  0  0  0  0  0  0  0
   48.0620   30.5990   44.7520 N   0  0  0  0  0  0  0  0  0  0  0  0
   45.2110   29.6860   43.6500 H   0  0  0  0  0  0  0  0  0  0  0  0
   47.2980   28.8280   42.1630 H   0  0  0  0  0  0  0  0  0  0  0  0
   49.8410   29.7140   43.2520 C   0  0  0  0  0  0  0  0  0  0  0  0
   50.6570   29.3060   44.4790 C   0  0  0  0  0  1  0  0  0  0  0  0
   50.4460   30.9780   42.7330 C   0  0  0  0  0  1  0  0  0  0  0  0
   49.8250   28.5730   42.2870 C   0  0  0  0  0  1  0  0  0  0  0  0
  1  8  1  0  0  0  0
  1  6  1  0  0  0  0
  2  1  2  0  0  0  0
  3  2  1  0  0  0  0
  3  4  2  0  0  0  0
  4  5  1  0  0  0  0
  5  6  2  0  0  0  0
  5  7  1  0  0  0  0
  7 10  1  0  0  0  0
  7  9  1  0  0  0  0
 11 12  1  0  0  0  0
 11 17  1  1  0  0  0
 11  2  1  0  0  0  0
 12 18  1  0  0  0  0
 13 19  1  0  0  0  0
 13 12  2  0  0  0  0
 14 20  1  6  0  0  0
 14 13  1  0  0  0  0
 15 14  1  0  0  0  0
 15 22  1  0  0  0  0
 15 16  1  0  0  0  0
 16 11  1  0  0  0  0
 21 15  1  0  0  0  0
 23 16  1  0  0  0  0
 24 16  1  0  0  0  0
 25 26  1  0  0  0  0
 25 14  1  0  0  0  0
 27 25  1  0  0  0  0
 28 25  1  0  0  0  0
 29  3  1  0  0  0  0
 30 29  1  0  0  0  0
 31 32  1  0  0  0  0
 31 30  2  0  0  0  0
 32 33  1  0  0  0  0
 33 29  2  0  0  0  0
 34 30  1  0  0  0  0
 35 31  1  0  0  0  0
 36 32  1  0  0  0  0
 36 37  1  0  0  0  0
 38 36  1  0  0  0  0
 39 36  1  0  0  0  0
M  END
>  <minimizedAffinity>
-5.67265224

>  <minimizedRMSD>
0.185615614

$$$$
