
 OpenBabel03232520033D

 30 33  0  0  0  0  0  0  0  0999 V2000
   46.1870   30.3760   49.1180 N   0  0  0  0  0  0  0  0  0  0  0  0
   45.3130   31.3900   49.4300 C   0  0  0  0  0  0  0  0  0  0  0  0
   45.2490   32.2110   48.3590 N   0  0  0  0  0  0  0  0  0  0  0  0
   46.0730   31.6910   47.4250 C   0  0  0  0  0  0  0  0  0  0  0  0
   46.3140   32.2110   46.1680 C   0  0  0  0  0  0  0  0  0  0  0  0
   47.1870   31.5200   45.3830 N   0  0  0  0  0  0  0  0  0  0  0  0
   47.7830   30.3950   45.8060 C   0  0  0  0  0  0  0  0  0  0  0  0
   47.5170   29.9350   47.0280 N   0  0  0  0  0  0  0  0  0  0  0  0
   46.6820   30.5380   47.8610 C   0  0  0  0  0  0  0  0  0  0  0  0
   46.4700   29.5590   49.7290 H   0  0  0  0  0  0  0  0  0  0  0  0
   44.7880   31.4850   50.3680 H   0  0  0  0  0  0  0  0  0  0  0  0
   48.6880   29.7230   44.9310 N   0  0  0  0  0  0  0  0  0  0  0  0
   49.0290   30.1600   43.5910 C   0  0  0  0  0  0  0  0  0  0  0  0
   50.4870   29.7700   43.4290 C   0  0  0  0  0  0  0  0  0  0  0  0
   50.7640   28.8420   44.5770 C   0  0  0  0  0  0  0  0  0  0  0  0
   49.4120   28.5110   45.2170 C   0  0  0  0  0  0  0  0  0  0  0  0
   49.5580   28.3100   46.2980 H   0  0  0  0  0  0  0  0  0  0  0  0
   45.6220   33.6780   45.4440 S   0  0  0  0  0  0  0  0  0  0  0  0
   47.7840   34.7180   42.3370 C   0  0  0  0  0  0  0  0  0  0  0  0
   47.0690   34.3360   41.2120 C   0  0  0  0  0  0  0  0  0  0  0  0
   45.8470   33.7190   41.4170 C   0  0  0  0  0  0  0  0  0  0  0  0
   45.4160   33.5250   42.6990 N   0  0  0  0  0  0  0  0  0  0  0  0
   46.1540   33.9180   43.7630 C   0  0  0  0  0  0  0  0  0  0  0  0
   47.3280   34.5100   43.5820 N   0  0  0  0  0  0  0  0  0  0  0  0
   47.4810   34.5270   40.2310 H   0  0  0  0  0  0  0  0  0  0  0  0
   45.2530   33.4040   40.5700 H   0  0  0  0  0  0  0  0  0  0  0  0
   49.0970   35.3800   42.1420 C   0  0  0  0  0  0  0  0  0  0  0  0
   49.2490   36.1510   41.1680 O   0  0  0  0  0  0  0  0  0  0  0  0
   50.1100   35.1390   43.0220 O   0  0  0  0  0  0  0  0  0  0  0  0
   50.9740   35.6670   42.9640 H   0  0  0  0  0  0  0  0  0  0  0  0
  1  2  1  0  0  0  0
  1 10  1  0  0  0  0
  2 11  1  0  0  0  0
  3  2  2  0  0  0  0
  4  9  1  0  0  0  0
  4  3  1  0  0  0  0
  5  4  2  0  0  0  0
  6  7  2  0  0  0  0
  6  5  1  0  0  0  0
  7  8  1  0  0  0  0
  8  9  2  0  0  0  0
  9  1  1  0  0  0  0
 12 16  1  0  0  0  0
 12  7  1  0  0  0  0
 13 12  1  0  0  0  0
 14 13  1  0  0  0  0
 14 15  1  0  0  0  0
 15 16  1  0  0  0  0
 16 17  1  0  0  0  0
 18  5  1  0  0  0  0
 19 24  1  0  0  0  0
 20 21  1  0  0  0  0
 20 19  2  0  0  0  0
 21 22  2  0  0  0  0
 22 23  1  0  0  0  0
 23 18  1  0  0  0  0
 24 23  2  0  0  0  0
 25 20  1  0  0  0  0
 26 21  1  0  0  0  0
 27 19  1  0  0  0  0
 27 29  1  0  0  0  0
 28 27  2  0  0  0  0
 30 29  1  0  0  0  0
M  END
>  <minimizedAffinity>
-6.10641813

>  <minimizedRMSD>
0.128223076

$$$$
