
 OpenBabel03232520593D

 41 44  0  0  1  0  0  0  0  0999 V2000
   45.5630   32.8490   47.5050 C   0  0  0  0  0  0  0  0  0  0  0  0
   45.9830   32.6070   46.2380 C   0  0  0  0  0  0  0  0  0  0  0  0
   46.1240   31.2540   45.9190 C   0  0  0  0  0  0  0  0  0  0  0  0
   45.8660   30.2430   46.7870 N   0  0  0  0  0  0  0  0  0  0  0  0
   45.4400   30.5430   48.0710 C   0  0  0  0  0  0  0  0  0  0  0  0
   45.3000   31.8240   48.3960 N   0  0  0  0  0  0  0  0  0  0  0  0
   45.1790   29.5110   49.0080 N   0  0  0  0  0  0  0  0  0  0  0  0
   45.4260   33.8590   47.8590 H   0  0  0  0  0  0  0  0  0  0  0  0
   45.9830   28.8150   48.9920 H   0  0  0  0  0  0  0  0  0  0  0  0
   44.3920   29.3580   49.6440 H   0  0  0  0  0  0  0  0  0  0  0  0
   46.2100   33.5830   45.2270 C   0  0  2  0  0  0  0  0  0  0  0  0
   44.9770   34.6450   45.4800 C   0  0  0  0  0  0  0  0  0  0  0  0
   44.7220   35.5890   44.4280 C   0  0  0  0  0  0  0  0  0  0  0  0
   45.5230   35.5590   43.2020 C   0  0  1  0  0  0  0  0  0  0  0  0
   46.6050   34.5800   43.1320 C   0  0  0  0  0  0  0  0  0  0  0  0
   46.1830   33.3230   43.8570 C   0  0  0  0  0  0  0  0  0  0  0  0
   47.0110   34.3060   45.5700 H   0  0  0  0  0  0  0  0  0  0  0  0
   44.2980   34.7660   46.3160 H   0  0  0  0  0  0  0  0  0  0  0  0
   43.9390   36.2910   44.5520 H   0  0  0  0  0  0  0  0  0  0  0  0
   45.9290   36.5800   43.0240 H   0  0  0  0  0  0  0  0  0  0  0  0
   46.7890   34.3660   42.0370 H   0  0  0  0  0  0  0  0  0  0  0  0
   47.6020   34.9180   43.5050 H   0  0  0  0  0  0  0  0  0  0  0  0
   47.0520   32.7000   43.5170 H   0  0  0  0  0  0  0  0  0  0  0  0
   45.2370   32.9740   43.3910 H   0  0  0  0  0  0  0  0  0  0  0  0
   44.5170   35.2930   42.0450 C   0  0  0  0  0  0  0  0  0  0  0  0
   43.4540   34.4950   42.4360 F   0  0  0  0  0  0  0  0  0  0  0  0
   43.9730   36.5290   41.7060 F   0  0  0  0  0  0  0  0  0  0  0  0
   45.1970   34.8320   40.9330 F   0  0  0  0  0  0  0  0  0  0  0  0
   46.6050   30.5660   44.7330 C   0  0  0  0  0  0  0  0  0  0  0  0
   46.1090   29.9860   43.6110 C   0  0  0  0  0  0  0  0  0  0  0  0
   47.1820   29.4540   42.8840 C   0  0  0  0  0  0  0  0  0  0  0  0
   48.2730   29.7370   43.5970 N   0  0  0  0  0  0  0  0  0  0  0  0
   47.9580   30.3920   44.6910 N   0  0  0  0  0  0  0  0  0  0  0  0
   45.0420   30.0230   43.4660 H   0  0  0  0  0  0  0  0  0  0  0  0
   47.0140   28.9440   41.9510 H   0  0  0  0  0  0  0  0  0  0  0  0
   50.3760   29.6470   41.2650 H   0  0  0  0  0  0  0  0  0  0  0  0
   50.0050   30.1860   42.0630 N   0  0  0  0  0  0  0  0  0  0  0  0
   50.9480   31.1400   42.6140 C   0  0  0  0  0  2  0  0  0  0  0  0
   51.7420   30.2520   43.5640 C   0  0  0  0  0  2  0  0  0  0  0  0
   50.6400   29.4760   44.2510 C   0  0  0  0  0  2  0  0  0  0  0  0
   49.6240   29.3440   43.1680 C   0  0  1  0  0  3  0  0  0  0  0  0
  1  8  1  0  0  0  0
  1  6  1  0  0  0  0
  2  1  2  0  0  0  0
  3  2  1  0  0  0  0
  3  4  2  0  0  0  0
  4  5  1  0  0  0  0
  5  6  2  0  0  0  0
  5  7  1  0  0  0  0
  7 10  1  0  0  0  0
  9  7  1  0  0  0  0
 11 12  1  0  0  0  0
 11 17  1  1  0  0  0
 11  2  1  0  0  0  0
 12 18  1  0  0  0  0
 13 19  1  0  0  0  0
 13 12  2  0  0  0  0
 14 20  1  6  0  0  0
 14 13  1  0  0  0  0
 15 14  1  0  0  0  0
 15 22  1  0  0  0  0
 15 16  1  0  0  0  0
 16 11  1  0  0  0  0
 21 15  1  0  0  0  0
 23 16  1  0  0  0  0
 24 16  1  0  0  0  0
 25 26  1  0  0  0  0
 25 14  1  0  0  0  0
 27 25  1  0  0  0  0
 28 25  1  0  0  0  0
 29  3  1  0  0  0  0
 30 29  1  0  0  0  0
 31 32  1  0  0  0  0
 31 30  2  0  0  0  0
 32 33  1  0  0  0  0
 33 29  2  0  0  0  0
 34 30  1  0  0  0  0
 35 31  1  0  0  0  0
 36 37  1  0  0  0  0
 37 38  1  0  0  0  0
 37 41  1  0  0  0  0
 38 39  1  0  0  0  0
 39 40  1  0  0  0  0
 41 32  1  1  0  0  0
 41 40  1  0  0  0  0
M  END
>  <minimizedAffinity>
-5.80364609

>  <minimizedRMSD>
0.303282976

$$$$
