
 OpenBabel03232519413D

 44 47  0  0  0  0  0  0  0  0999 V2000
   46.5160   34.4300   41.9790 N   0  0  0  0  0  0  0  0  0  0  0  0
   47.6650   35.1970   41.8710 C   0  0  0  0  0  0  0  0  0  0  0  0
   48.4150   35.2100   40.7150 C   0  0  0  0  0  0  0  0  0  0  0  0
   47.9700   34.4160   39.6540 C   0  0  0  0  0  0  0  0  0  0  0  0
   48.6290   34.4170   38.6040 O   0  0  0  0  0  0  0  0  0  0  0  0
   46.8480   33.6930   39.8250 N   0  0  0  0  0  0  0  0  0  0  0  0
   46.1390   33.7040   40.9610 C   0  0  0  0  0  0  0  0  0  0  0  0
   45.1210   33.0820   41.1730 O   0  0  0  0  0  0  0  0  0  0  0  0
   48.0630   35.8320   42.6550 H   0  0  0  0  0  0  0  0  0  0  0  0
   49.3040   35.7860   40.5900 H   0  0  0  0  0  0  0  0  0  0  0  0
   44.5230   35.8550   44.7440 C   0  0  0  0  0  0  0  0  0  0  0  0
   45.0980   35.6930   43.4570 C   0  0  0  0  0  0  0  0  0  0  0  0
   45.9330   34.5970   43.2760 C   0  0  0  0  0  0  0  0  0  0  0  0
   46.1690   33.7380   44.3020 N   0  0  0  0  0  0  0  0  0  0  0  0
   45.5900   33.9420   45.5170 C   0  0  0  0  0  0  0  0  0  0  0  0
   44.7880   34.9690   45.7430 N   0  0  0  0  0  0  0  0  0  0  0  0
   43.8710   36.7270   44.8570 H   0  0  0  0  0  0  0  0  0  0  0  0
   44.8730   36.4130   42.6730 H   0  0  0  0  0  0  0  0  0  0  0  0
   45.8780   33.0080   46.5490 N   0  0  0  0  0  0  0  0  0  0  0  0
   45.2270   32.7700   47.8220 C   0  0  0  0  0  0  0  0  0  0  0  0
   45.1970   31.2740   48.0160 C   0  0  0  0  0  0  0  0  0  0  0  0
   46.0750   30.7770   46.8920 C   0  0  0  0  0  0  0  0  0  0  0  0
   46.9230   32.0040   46.6250 C   0  0  0  0  0  0  0  0  0  0  0  0
   47.4620   31.8830   45.6530 H   0  0  0  0  0  0  0  0  0  0  0  0
   46.3670   32.8690   38.7840 C   0  0  0  0  0  0  0  0  0  0  0  0
   45.4510   33.2750   37.8410 C   0  0  0  0  0  0  0  0  0  0  0  0
   45.0220   32.4210   36.8560 C   0  0  0  0  0  0  0  0  0  0  0  0
   45.5060   31.1310   36.7890 C   0  0  0  0  0  0  0  0  0  0  0  0
   46.4090   30.7530   37.7290 C   0  0  0  0  0  0  0  0  0  0  0  0
   46.8900   31.5750   38.7650 C   0  0  0  0  0  0  0  0  0  0  0  0
   45.1150   34.3130   37.9640 H   0  0  0  0  0  0  0  0  0  0  0  0
   44.3010   32.8250   36.1570 H   0  0  0  0  0  0  0  0  0  0  0  0
   45.1660   30.4700   36.0140 H   0  0  0  0  0  0  0  0  0  0  0  0
   46.7660   29.7180   37.6370 H   0  0  0  0  0  0  0  0  0  0  0  0
   47.8810   31.0620   39.7400 C   0  0  0  0  0  0  0  0  0  0  0  0
   48.0370   29.9810   39.4170 H   0  0  0  0  0  0  0  0  0  0  0  0
   49.1990   31.7490   39.7300 C   0  0  0  0  0  0  0  0  0  0  0  0
   49.9130   30.8660   39.9950 H   0  0  0  0  0  0  0  0  0  0  0  0
   49.6560   31.9660   38.7750 H   0  0  0  0  0  0  0  0  0  0  0  0
   49.4940   32.3170   40.6280 H   0  0  0  0  0  0  0  0  0  0  0  0
   47.3770   31.0610   41.1530 C   0  0  0  0  0  0  0  0  0  0  0  0
   46.3610   30.7530   41.3150 H   0  0  0  0  0  0  0  0  0  0  0  0
   47.8850   30.1100   41.5910 H   0  0  0  0  0  0  0  0  0  0  0  0
   47.8770   31.7470   41.8520 H   0  0  0  0  0  0  0  0  0  0  0  0
  1 13  1  0  0  0  0
  2  1  1  0  0  0  0
  2  9  1  0  0  0  0
  3  2  2  0  0  0  0
  4  6  1  0  0  0  0
  4  3  1  0  0  0  0
  5  4  2  0  0  0  0
  6  7  1  0  0  0  0
  7  8  2  0  0  0  0
  7  1  1  0  0  0  0
 10  3  1  0  0  0  0
 11 17  1  0  0  0  0
 11 16  1  0  0  0  0
 12 11  2  0  0  0  0
 13 12  1  0  0  0  0
 13 14  2  0  0  0  0
 14 15  1  0  0  0  0
 15 16  2  0  0  0  0
 15 19  1  0  0  0  0
 18 12  1  0  0  0  0
 19 23  1  0  0  0  0
 19 20  1  0  0  0  0
 20 21  1  0  0  0  0
 22 21  1  0  0  0  0
 23 22  1  0  0  0  0
 24 23  1  0  0  0  0
 25  6  1  0  0  0  0
 26 31  1  0  0  0  0
 26 25  2  0  0  0  0
 27 26  1  0  0  0  0
 28 27  2  0  0  0  0
 28 29  1  0  0  0  0
 29 30  2  0  0  0  0
 30 25  1  0  0  0  0
 30 35  1  0  0  0  0
 32 27  1  0  0  0  0
 33 28  1  0  0  0  0
 34 29  1  0  0  0  0
 35 41  1  0  0  0  0
 36 35  1  0  0  0  0
 37 35  1  0  0  0  0
 37 38  1  0  0  0  0
 37 40  1  0  0  0  0
 39 37  1  0  0  0  0
 41 42  1  0  0  0  0
 41 43  1  0  0  0  0
 41 44  1  0  0  0  0
M  END
>  <minimizedAffinity>
-6.59252357

>  <minimizedRMSD>
0.0662939399

$$$$
