
 OpenBabel03232520343D

 45 49  0  0  1  0  0  0  0  0999 V2000
   46.8290   34.5500   41.3670 C   0  0  0  0  0  0  0  0  0  0  0  0
   48.0940   34.9570   40.9460 C   0  0  0  0  0  0  0  0  0  0  0  0
   48.3280   34.5850   39.7090 N   0  0  0  0  0  0  0  0  0  0  0  0
   47.2280   33.9290   39.2890 C   0  0  0  0  0  0  0  0  0  0  0  0
   46.9630   33.3380   38.0500 C   0  0  0  0  0  0  0  0  0  0  0  0
   45.7510   32.7340   37.8810 C   0  0  0  0  0  0  0  0  0  0  0  0
   44.7550   32.6580   38.8460 C   0  0  0  0  0  0  0  0  0  0  0  0
   45.0760   33.2560   40.0400 C   0  0  0  0  0  0  0  0  0  0  0  0
   46.2620   33.8830   40.2950 C   0  0  0  0  0  0  0  0  0  0  0  0
   49.1800   34.7320   39.0890 H   0  0  0  0  0  0  0  0  0  0  0  0
   47.6900   33.3540   37.2480 H   0  0  0  0  0  0  0  0  0  0  0  0
   45.5520   32.2760   36.9150 H   0  0  0  0  0  0  0  0  0  0  0  0
   43.8070   32.1660   38.6630 H   0  0  0  0  0  0  0  0  0  0  0  0
   44.3600   33.2470   40.8520 H   0  0  0  0  0  0  0  0  0  0  0  0
   44.7080   36.0340   44.0540 C   0  0  0  0  0  0  0  0  0  0  0  0
   45.3150   35.8510   42.7910 C   0  0  0  0  0  0  0  0  0  0  0  0
   46.1900   34.7630   42.6640 C   0  0  0  0  0  0  0  0  0  0  0  0
   46.4220   33.9400   43.7380 N   0  0  0  0  0  0  0  0  0  0  0  0
   45.8070   34.1720   44.9240 C   0  0  0  0  0  0  0  0  0  0  0  0
   44.9560   35.2110   45.0850 N   0  0  0  0  0  0  0  0  0  0  0  0
   44.0480   36.8840   44.0900 H   0  0  0  0  0  0  0  0  0  0  0  0
   45.1200   36.5090   41.9570 H   0  0  0  0  0  0  0  0  0  0  0  0
   45.9890   33.5230   45.7720 H   0  0  0  0  0  0  0  0  0  0  0  0
   49.0320   35.7240   41.8200 C   0  0  0  0  0  0  0  0  0  0  0  0
   48.4560   36.3480   42.5080 H   0  0  0  0  0  0  0  0  0  0  0  0
   49.6280   36.4370   41.1910 H   0  0  0  0  0  0  0  0  0  0  0  0
   49.9800   34.8170   42.5290 C   0  0  0  0  0  0  0  0  0  0  0  0
   49.6810   34.7870   43.5980 H   0  0  0  0  0  0  0  0  0  0  0  0
   51.0060   35.2880   42.5590 H   0  0  0  0  0  0  0  0  0  0  0  0
   50.1020   33.4350   41.9410 C   0  0  1  0  0  0  0  0  0  0  0  0
   51.0290   32.4130   42.4430 C   0  0  0  0  0  0  0  0  0  0  0  0
   49.6130   32.3360   42.8860 C   0  0  2  0  0  0  0  0  0  0  0  0
   49.7860   33.3670   40.8800 H   0  0  0  0  0  0  0  0  0  0  0  0
   51.4210   31.6860   41.7060 H   0  0  0  0  0  0  0  0  0  0  0  0
   51.8350   32.7880   43.1250 H   0  0  0  0  0  0  0  0  0  0  0  0
   49.4900   32.6700   43.9590 H   0  0  0  0  0  0  0  0  0  0  0  0
   48.8760   31.2810   42.3750 O   0  0  0  0  0  0  0  0  0  0  0  0
   47.6640   30.8340   42.8150 C   0  0  0  0  0  0  0  0  0  0  0  0
   46.6940   30.6040   42.0540 O   0  0  0  0  0  0  0  0  0  0  0  0
   47.2610   30.5330   44.2320 C   0  0  0  0  0  0  0  0  0  0  0  0
   45.9940   30.4300   44.7730 C   0  0  0  0  0  0  0  0  0  0  0  0
   46.0280   30.1400   46.1110 C   0  0  0  0  0  0  0  0  0  0  0  0
   47.3790   30.0750   46.3480 C   0  0  0  0  0  0  0  0  0  0  0  0
   47.9070   29.8690   47.2710 H   0  0  0  0  0  0  0  0  0  0  0  0
   48.0330   30.3040   45.2530 O   0  0  0  0  0  0  0  0  0  0  0  0
  1 17  1  0  0  0  0
  2  1  2  0  0  0  0
  2 24  1  0  0  0  0
  3  2  1  0  0  0  0
  4  3  1  0  0  0  0
  4  9  1  0  0  0  0
  5  4  2  0  0  0  0
  6  5  1  0  0  0  0
  6  7  2  0  0  0  0
  7  8  1  0  0  0  0
  8  9  2  0  0  0  0
  8 14  1  0  0  0  0
  9  1  1  0  0  0  0
 10  3  1  0  0  0  0
 11  5  1  0  0  0  0
 12  6  1  0  0  0  0
 13  7  1  0  0  0  0
 15 21  1  0  0  0  0
 15 20  1  0  0  0  0
 16 15  2  0  0  0  0
 17 16  1  0  0  0  0
 17 18  2  0  0  0  0
 18 19  1  0  0  0  0
 19 20  2  0  0  0  0
 19 23  1  0  0  0  0
 22 16  1  0  0  0  0
 24 25  1  0  0  0  0
 24 27  1  0  0  0  0
 26 24  1  0  0  0  0
 27 29  1  0  0  0  0
 27 28  1  0  0  0  0
 30 33  1  6  0  0  0
 30 31  1  0  0  0  0
 30 27  1  0  0  0  0
 30 32  1  0  0  0  0
 31 32  1  0  0  0  0
 31 35  1  0  0  0  0
 32 36  1  1  0  0  0
 34 31  1  0  0  0  0
 37 38  1  0  0  0  0
 37 32  1  0  0  0  0
 38 40  1  0  0  0  0
 39 38  2  0  0  0  0
 40 41  2  0  0  0  0
 40 45  1  0  0  0  0
 41 42  1  0  0  0  0
 42 43  2  0  0  0  0
 43 44  1  0  0  0  0
 45 43  1  0  0  0  0
M  END
>  <minimizedAffinity>
-5.61426735

>  <minimizedRMSD>
1.77674162

$$$$
