
 OpenBabel03232520243D

 35 38  0  0  0  0  0  0  0  0999 V2000
   46.8540   34.4880   41.3760 C   0  0  0  0  0  0  0  0  0  0  0  0
   48.1730   34.7780   41.0740 C   0  0  0  0  0  0  0  0  0  0  0  0
   48.4490   34.4110   39.8230 N   0  0  0  0  0  0  0  0  0  0  0  0
   47.3200   33.8850   39.3020 C   0  0  0  0  0  0  0  0  0  0  0  0
   47.0700   33.3650   38.0490 C   0  0  0  0  0  0  0  0  0  0  0  0
   45.7990   32.8920   37.7780 C   0  0  0  0  0  0  0  0  0  0  0  0
   44.7420   32.8980   38.6780 C   0  0  0  0  0  0  0  0  0  0  0  0
   45.0580   33.4300   39.9140 C   0  0  0  0  0  0  0  0  0  0  0  0
   46.2860   33.9160   40.2560 C   0  0  0  0  0  0  0  0  0  0  0  0
   49.3760   34.5180   39.3420 H   0  0  0  0  0  0  0  0  0  0  0  0
   47.8520   33.3340   37.3050 H   0  0  0  0  0  0  0  0  0  0  0  0
   45.6000   32.4810   36.7870 H   0  0  0  0  0  0  0  0  0  0  0  0
   43.7580   32.5190   38.4370 H   0  0  0  0  0  0  0  0  0  0  0  0
   44.2820   33.4760   40.6870 H   0  0  0  0  0  0  0  0  0  0  0  0
   44.7640   36.0940   44.0250 C   0  0  0  0  0  0  0  0  0  0  0  0
   45.4240   35.8780   42.8010 C   0  0  0  0  0  0  0  0  0  0  0  0
   46.1630   34.7250   42.6390 C   0  0  0  0  0  0  0  0  0  0  0  0
   46.2320   33.8180   43.6860 N   0  0  0  0  0  0  0  0  0  0  0  0
   45.5710   34.0830   44.8500 C   0  0  0  0  0  0  0  0  0  0  0  0
   44.8470   35.1940   45.0330 N   0  0  0  0  0  0  0  0  0  0  0  0
   44.2000   37.0180   44.0940 H   0  0  0  0  0  0  0  0  0  0  0  0
   45.3840   36.5670   41.9730 H   0  0  0  0  0  0  0  0  0  0  0  0
   45.6650   33.3310   45.6330 H   0  0  0  0  0  0  0  0  0  0  0  0
   49.1180   35.4080   42.0170 C   0  0  0  0  0  0  0  0  0  0  0  0
   49.7460   36.0890   41.4050 H   0  0  0  0  0  0  0  0  0  0  0  0
   48.5770   36.0610   42.7290 H   0  0  0  0  0  0  0  0  0  0  0  0
   49.9040   34.3820   42.7850 C   0  0  0  0  0  0  0  0  0  0  0  0
   50.9660   34.7780   42.8690 H   0  0  0  0  0  0  0  0  0  0  0  0
   49.5370   34.4090   43.8260 H   0  0  0  0  0  0  0  0  0  0  0  0
   49.9570   33.0910   42.3100 N   0  0  0  0  0  0  0  0  0  0  0  0
   49.0930   32.0720   42.7030 C   0  0  0  0  0  0  0  0  0  0  0  0
   49.1690   31.1130   41.5060 C   0  0  0  0  0  0  0  0  0  0  0  0
   50.3730   31.5170   40.7210 C   0  0  0  0  0  0  0  0  0  0  0  0
   51.0480   32.5990   41.5720 C   0  0  0  0  0  0  0  0  0  0  0  0
   51.5370   33.3580   40.9400 H   0  0  0  0  0  0  0  0  0  0  0  0
  1 17  1  0  0  0  0
  2  1  2  0  0  0  0
  2 24  1  0  0  0  0
  3  2  1  0  0  0  0
  4  3  1  0  0  0  0
  4  9  1  0  0  0  0
  5  4  2  0  0  0  0
  6  5  1  0  0  0  0
  6  7  2  0  0  0  0
  7  8  1  0  0  0  0
  8  9  2  0  0  0  0
  8 14  1  0  0  0  0
  9  1  1  0  0  0  0
 10  3  1  0  0  0  0
 11  5  1  0  0  0  0
 12  6  1  0  0  0  0
 13  7  1  0  0  0  0
 15 21  1  0  0  0  0
 15 20  1  0  0  0  0
 16 15  2  0  0  0  0
 17 16  1  0  0  0  0
 17 18  2  0  0  0  0
 18 19  1  0  0  0  0
 19 20  2  0  0  0  0
 19 23  1  0  0  0  0
 22 16  1  0  0  0  0
 24 26  1  0  0  0  0
 24 27  1  0  0  0  0
 25 24  1  0  0  0  0
 27 28  1  0  0  0  0
 27 29  1  0  0  0  0
 30 31  1  0  0  0  0
 30 27  1  0  0  0  0
 32 31  1  0  0  0  0
 33 32  1  0  0  0  0
 33 34  1  0  0  0  0
 34 30  1  0  0  0  0
 35 34  1  0  0  0  0
M  END
>  <minimizedAffinity>
-5.58014393

>  <minimizedRMSD>
1.3599124

$$$$
