
 OpenBabel03232518553D

 24 25  0  0  1  0  0  0  0  0999 V2000
   46.6320   32.6030   44.9480 C   0  0  2  0  0  0  0  0  0  0  0  0
   47.6090   32.5480   44.3840 H   0  0  0  0  0  0  0  0  0  0  0  0
   44.5570   35.6360   44.9850 C   0  0  0  0  0  0  0  0  0  0  0  0
   44.8480   36.2390   43.7490 C   0  0  0  0  0  0  0  0  0  0  0  0
   45.7540   35.5780   42.9070 C   0  0  0  0  0  0  0  0  0  0  0  0
   46.3000   34.4000   43.3260 N   0  0  0  0  0  0  0  0  0  0  0  0
   45.9990   33.8520   44.5210 C   0  0  0  0  0  0  0  0  0  0  0  0
   45.1440   34.4860   45.3000 N   0  0  0  0  0  0  0  0  0  0  0  0
   43.8510   36.2230   45.5590 H   0  0  0  0  0  0  0  0  0  0  0  0
   44.4920   37.1550   43.3010 H   0  0  0  0  0  0  0  0  0  0  0  0
   46.0540   35.9570   41.9240 H   0  0  0  0  0  0  0  0  0  0  0  0
   45.8390   31.4230   44.4120 C   0  0  0  0  0  0  0  0  0  0  0  0
   44.7880   31.7430   44.1790 H   0  0  0  0  0  0  0  0  0  0  0  0
   45.7890   30.5690   45.0860 H   0  0  0  0  0  0  0  0  0  0  0  0
   46.2380   31.0730   43.4360 H   0  0  0  0  0  0  0  0  0  0  0  0
   46.9100   32.4630   46.3960 C   0  0  0  0  0  0  0  0  0  0  0  0
   47.9910   32.0820   46.4980 H   0  0  0  0  0  0  0  0  0  0  0  0
   47.0570   33.5460   46.7760 H   0  0  0  0  0  0  0  0  0  0  0  0
   46.0690   31.8170   47.2650 N   0  0  0  0  0  0  0  0  0  0  0  0
   45.4360   32.4230   48.3330 C   0  0  0  0  0  0  0  0  0  0  0  0
   45.0250   31.3060   49.3060 C   0  0  0  0  0  0  0  0  0  0  0  0
   45.4330   30.0650   48.5810 C   0  0  0  0  0  0  0  0  0  0  0  0
   46.5990   30.5490   47.7130 C   0  0  0  0  0  0  0  0  0  0  0  0
   46.8280   29.8390   46.8920 H   0  0  0  0  0  0  0  0  0  0  0  0
  1  2  1  6  0  0  0
  1 16  1  0  0  0  0
  3  8  1  0  0  0  0
  3  9  1  0  0  0  0
  4  3  2  0  0  0  0
  5  6  2  0  0  0  0
  5  4  1  0  0  0  0
  6  7  1  0  0  0  0
  7  1  1  0  0  0  0
  7  8  2  0  0  0  0
 10  4  1  0  0  0  0
 11  5  1  0  0  0  0
 12  1  1  0  0  0  0
 12 14  1  0  0  0  0
 13 12  1  0  0  0  0
 15 12  1  0  0  0  0
 16 17  1  0  0  0  0
 16 18  1  0  0  0  0
 16 19  1  0  0  0  0
 19 23  1  0  0  0  0
 19 20  1  0  0  0  0
 20 21  1  0  0  0  0
 22 21  1  0  0  0  0
 23 22  1  0  0  0  0
 24 23  1  0  0  0  0
M  END
>  <minimizedAffinity>
-4.40006685

>  <minimizedRMSD>
2.02336693

$$$$
