
 OpenBabel03232520593D

 41 44  0  0  1  0  0  0  0  0999 V2000
   45.3880   32.8570   47.4970 C   0  0  0  0  0  0  0  0  0  0  0  0
   45.9240   32.6110   46.2750 C   0  0  0  0  0  0  0  0  0  0  0  0
   46.1750   31.2620   46.0090 C   0  0  0  0  0  0  0  0  0  0  0  0
   45.9100   30.2590   46.8840 N   0  0  0  0  0  0  0  0  0  0  0  0
   45.3610   30.5620   48.1200 C   0  0  0  0  0  0  0  0  0  0  0  0
   45.1160   31.8390   48.3940 N   0  0  0  0  0  0  0  0  0  0  0  0
   45.0900   29.5400   49.0630 N   0  0  0  0  0  0  0  0  0  0  0  0
   45.1590   33.8640   47.8080 H   0  0  0  0  0  0  0  0  0  0  0  0
   45.9330   28.8960   49.1330 H   0  0  0  0  0  0  0  0  0  0  0  0
   44.2640   29.3520   49.6380 H   0  0  0  0  0  0  0  0  0  0  0  0
   46.1730   33.5740   45.2570 C   0  0  2  0  0  0  0  0  0  0  0  0
   44.9630   34.6650   45.5010 C   0  0  0  0  0  0  0  0  0  0  0  0
   44.7290   35.6060   44.4420 C   0  0  0  0  0  0  0  0  0  0  0  0
   45.5290   35.5490   43.2160 C   0  0  1  0  0  0  0  0  0  0  0  0
   46.5900   34.5460   43.1540 C   0  0  0  0  0  0  0  0  0  0  0  0
   46.1400   33.3040   43.8890 C   0  0  0  0  0  0  0  0  0  0  0  0
   46.9890   34.2820   45.5950 H   0  0  0  0  0  0  0  0  0  0  0  0
   44.2860   34.8070   46.3370 H   0  0  0  0  0  0  0  0  0  0  0  0
   43.9610   36.3260   44.5610 H   0  0  0  0  0  0  0  0  0  0  0  0
   45.9570   36.5600   43.0320 H   0  0  0  0  0  0  0  0  0  0  0  0
   46.7690   34.3200   42.0610 H   0  0  0  0  0  0  0  0  0  0  0  0
   47.5940   34.8650   43.5250 H   0  0  0  0  0  0  0  0  0  0  0  0
   46.9950   32.6590   43.5540 H   0  0  0  0  0  0  0  0  0  0  0  0
   45.1870   32.9720   43.4260 H   0  0  0  0  0  0  0  0  0  0  0  0
   44.5170   35.2960   42.0610 C   0  0  0  0  0  0  0  0  0  0  0  0
   43.4440   34.5130   42.4550 F   0  0  0  0  0  0  0  0  0  0  0  0
   43.9900   36.5400   41.7230 F   0  0  0  0  0  0  0  0  0  0  0  0
   45.1900   34.8250   40.9490 F   0  0  0  0  0  0  0  0  0  0  0  0
   46.7930   30.5780   44.8870 C   0  0  0  0  0  0  0  0  0  0  0  0
   46.4310   29.8220   43.8200 C   0  0  0  0  0  0  0  0  0  0  0  0
   47.5950   29.4380   43.1410 C   0  0  0  0  0  0  0  0  0  0  0  0
   48.6030   29.9800   43.8270 N   0  0  0  0  0  0  0  0  0  0  0  0
   48.1550   30.6550   44.8590 N   0  0  0  0  0  0  0  0  0  0  0  0
   45.3780   29.6470   43.6730 H   0  0  0  0  0  0  0  0  0  0  0  0
   47.5380   28.8290   42.2550 H   0  0  0  0  0  0  0  0  0  0  0  0
   51.6070   29.8880   44.7460 H   0  0  0  0  0  0  0  0  0  0  0  0
   50.7440   29.3450   44.5830 N   0  0  0  0  0  0  0  0  0  0  0  0
   50.9770   27.9330   44.3450 C   0  0  0  0  0  2  0  0  0  0  0  0
   51.2790   27.9330   42.8520 C   0  0  0  0  0  2  0  0  0  0  0  0
   50.1870   28.8340   42.3200 C   0  0  0  0  0  2  0  0  0  0  0  0
   50.0100   29.8090   43.4330 C   0  0  1  0  0  3  0  0  0  0  0  0
  1  8  1  0  0  0  0
  1  6  1  0  0  0  0
  2  1  2  0  0  0  0
  3  2  1  0  0  0  0
  3  4  2  0  0  0  0
  4  5  1  0  0  0  0
  5  6  2  0  0  0  0
  5  7  1  0  0  0  0
  7  9  1  0  0  0  0
  7 10  1  0  0  0  0
 11 12  1  0  0  0  0
 11 17  1  1  0  0  0
 11  2  1  0  0  0  0
 12 18  1  0  0  0  0
 13 19  1  0  0  0  0
 13 12  2  0  0  0  0
 14 20  1  6  0  0  0
 14 13  1  0  0  0  0
 15 14  1  0  0  0  0
 15 22  1  0  0  0  0
 15 16  1  0  0  0  0
 16 11  1  0  0  0  0
 21 15  1  0  0  0  0
 23 16  1  0  0  0  0
 24 16  1  0  0  0  0
 25 26  1  0  0  0  0
 25 14  1  0  0  0  0
 27 25  1  0  0  0  0
 28 25  1  0  0  0  0
 29  3  1  0  0  0  0
 30 29  1  0  0  0  0
 31 30  2  0  0  0  0
 31 32  1  0  0  0  0
 32 33  1  0  0  0  0
 33 29  2  0  0  0  0
 34 30  1  0  0  0  0
 35 31  1  0  0  0  0
 37 36  1  0  0  0  0
 38 37  1  0  0  0  0
 39 38  1  0  0  0  0
 40 39  1  0  0  0  0
 41 40  1  6  0  0  0
 41 32  1  0  0  0  0
 41 37  1  0  0  0  0
M  END
>  <minimizedAffinity>
-5.59113359

>  <minimizedRMSD>
0.156455636

$$$$
