
 OpenBabel03232516593D

 29 31  0  0  0  0  0  0  0  0999 V2000
   45.7250   34.8550   43.7390 C   0  0  0  0  0  0  0  0  0  0  0  0
   46.9000   34.2920   43.2670 C   0  0  0  0  0  0  0  0  0  0  0  0
   47.4690   33.2430   43.9820 C   0  0  0  0  0  0  0  0  0  0  0  0
   46.8390   32.8260   45.1120 N   0  0  0  0  0  0  0  0  0  0  0  0
   45.6970   33.3910   45.5510 C   0  0  0  0  0  0  0  0  0  0  0  0
   45.1570   34.3920   44.8650 N   0  0  0  0  0  0  0  0  0  0  0  0
   48.3840   32.7770   43.6460 H   0  0  0  0  0  0  0  0  0  0  0  0
   45.1690   33.0890   46.4390 H   0  0  0  0  0  0  0  0  0  0  0  0
   47.6050   34.6930   42.0830 N   0  0  0  0  0  0  0  0  0  0  0  0
   48.5360   35.6360   41.8800 C   0  0  0  0  0  0  0  0  0  0  0  0
   48.8810   35.6060   40.5560 N   0  0  0  0  0  0  0  0  0  0  0  0
   48.1760   34.6560   39.9330 C   0  0  0  0  0  0  0  0  0  0  0  0
   48.1110   34.1930   38.6370 C   0  0  0  0  0  0  0  0  0  0  0  0
   47.2700   33.1930   38.3280 N   0  0  0  0  0  0  0  0  0  0  0  0
   46.4710   32.6130   39.2560 C   0  0  0  0  0  0  0  0  0  0  0  0
   46.5480   33.0770   40.5150 N   0  0  0  0  0  0  0  0  0  0  0  0
   47.3570   34.0620   40.8880 C   0  0  0  0  0  0  0  0  0  0  0  0
   48.9290   34.7680   37.6250 N   0  0  0  0  0  0  0  0  0  0  0  0
   48.9110   36.2780   42.6670 H   0  0  0  0  0  0  0  0  0  0  0  0
   45.8030   31.8010   38.9530 H   0  0  0  0  0  0  0  0  0  0  0  0
   49.6870   35.4310   37.8960 H   0  0  0  0  0  0  0  0  0  0  0  0
   48.7660   34.5240   36.6230 H   0  0  0  0  0  0  0  0  0  0  0  0
   45.1930   35.9360   42.9490 C   0  0  0  0  0  0  0  0  0  0  0  0
   45.1830   37.1570   43.2790 O   0  0  0  0  0  0  0  0  0  0  0  0
   44.6330   35.6830   41.7130 O   0  0  0  0  0  0  0  0  0  0  0  0
   43.3480   35.0470   41.6220 C   0  0  0  0  0  0  0  0  0  0  0  0
   42.7490   35.4040   40.4310 F   0  0  0  0  0  0  0  0  0  0  0  0
   43.4170   33.6870   41.7410 F   0  0  0  0  0  0  0  0  0  0  0  0
   42.5370   35.5170   42.6320 F   0  0  0  0  0  0  0  0  0  0  0  0
  1  6  1  0  0  0  0
  2  1  2  0  0  0  0
  2  3  1  0  0  0  0
  3  4  2  0  0  0  0
  4  5  1  0  0  0  0
  5  8  1  0  0  0  0
  6  5  2  0  0  0  0
  7  3  1  0  0  0  0
  9  2  1  0  0  0  0
 10  9  1  0  0  0  0
 10 19  1  0  0  0  0
 11 10  2  0  0  0  0
 12 11  1  0  0  0  0
 12 17  1  0  0  0  0
 13 12  2  0  0  0  0
 14 13  1  0  0  0  0
 14 15  2  0  0  0  0
 15 16  1  0  0  0  0
 16 17  2  0  0  0  0
 17  9  1  0  0  0  0
 18 21  1  0  0  0  0
 18 13  1  0  0  0  0
 20 15  1  0  0  0  0
 22 18  1  0  0  0  0
 23 24  2  0  0  0  0
 23  1  1  0  0  0  0
 25 23  1  0  0  0  0
 26 25  1  0  0  0  0
 26 28  1  0  0  0  0
 26 29  1  0  0  0  0
 27 26  1  0  0  0  0
M  END
>  <minimizedAffinity>
-5.79719257

>  <minimizedRMSD>
1.1355387

$$$$
