
 OpenBabel03232519143D

 30 31  0  0  1  0  0  0  0  0999 V2000
   45.4430   34.6420   44.0410 C   0  0  0  0  0  0  0  0  0  0  0  0
   46.5940   34.4350   43.2250 C   0  0  0  0  0  0  0  0  0  0  0  0
   47.5450   33.4640   43.5780 C   0  0  0  0  0  0  0  0  0  0  0  0
   47.2970   32.7620   44.7130 N   0  0  0  0  0  0  0  0  0  0  0  0
   46.2150   32.9660   45.4670 C   0  0  0  0  0  0  0  0  0  0  0  0
   45.2820   33.9000   45.1450 N   0  0  0  0  0  0  0  0  0  0  0  0
   46.7300   35.0300   42.3340 H   0  0  0  0  0  0  0  0  0  0  0  0
   48.4120   33.3080   42.9640 H   0  0  0  0  0  0  0  0  0  0  0  0
   45.9740   32.1880   46.6880 C   0  0  0  0  0  0  0  0  0  0  0  0
   45.8110   30.7970   46.5690 C   0  0  0  0  0  0  0  0  0  0  0  0
   45.5330   30.3440   48.3690 S   0  0  0  0  0  0  0  0  0  0  0  0
   45.6980   32.1550   48.9090 C   0  0  0  0  0  0  0  0  0  0  0  0
   45.8790   32.6250   47.9200 N   0  0  0  0  0  0  0  0  0  0  0  0
   45.8300   30.1410   45.7380 H   0  0  0  0  0  0  0  0  0  0  0  0
   45.6310   32.6130   49.9270 H   0  0  0  0  0  0  0  0  0  0  0  0
   44.4690   35.6670   43.6410 C   0  0  1  0  0  0  0  0  0  0  0  0
   43.7880   35.8830   44.4920 H   0  0  0  0  0  0  0  0  0  0  0  0
   45.1940   36.9820   43.3700 C   0  0  0  0  0  0  0  0  0  0  0  0
   44.4230   37.6990   43.0390 H   0  0  0  0  0  0  0  0  0  0  0  0
   45.5840   37.3770   44.3300 H   0  0  0  0  0  0  0  0  0  0  0  0
   46.0330   36.8650   42.6800 H   0  0  0  0  0  0  0  0  0  0  0  0
   43.6870   35.2940   42.4360 C   0  0  0  0  0  0  0  0  0  0  0  0
   43.7460   34.1850   42.2890 H   0  0  0  0  0  0  0  0  0  0  0  0
   44.1790   35.7500   41.5530 H   0  0  0  0  0  0  0  0  0  0  0  0
   42.2950   35.6210   42.5400 N   0  0  0  0  0  0  0  0  0  0  0  0
   42.1020   36.4660   43.1120 H   0  0  0  0  0  0  0  0  0  0  0  0
   41.5460   35.5200   41.3410 C   0  0  0  0  0  0  0  0  0  0  0  0
   40.6860   36.6240   41.2810 F   0  0  0  0  0  0  0  0  0  0  0  0
   40.6780   34.4270   41.4820 F   0  0  0  0  0  0  0  0  0  0  0  0
   42.2890   35.4410   40.1970 F   0  0  0  0  0  0  0  0  0  0  0  0
  1  6  1  0  0  0  0
  2  3  1  0  0  0  0
  2  1  2  0  0  0  0
  3  4  2  0  0  0  0
  4  5  1  0  0  0  0
  5  9  1  0  0  0  0
  6  5  2  0  0  0  0
  7  2  1  0  0  0  0
  8  3  1  0  0  0  0
  9 13  1  0  0  0  0
 10  9  2  0  0  0  0
 10 11  1  0  0  0  0
 11 12  1  0  0  0  0
 12 15  1  0  0  0  0
 13 12  2  0  0  0  0
 14 10  1  0  0  0  0
 16  1  1  0  0  0  0
 16 17  1  1  0  0  0
 18 16  1  0  0  0  0
 18 20  1  0  0  0  0
 19 18  1  0  0  0  0
 21 18  1  0  0  0  0
 22 25  1  0  0  0  0
 22 16  1  0  0  0  0
 23 22  1  0  0  0  0
 24 22  1  0  0  0  0
 25 26  1  0  0  0  0
 27 29  1  0  0  0  0
 27 25  1  0  0  0  0
 28 27  1  0  0  0  0
 30 27  1  0  0  0  0
M  END
>  <minimizedAffinity>
-5.34373045

>  <minimizedRMSD>
1.25886786

$$$$
