REMARK  Name = 
REMARK  4 active torsions:
REMARK  status: ('A' for Active; 'I' for Inactive)
REMARK    1  A    between atoms: C_1  and  C_8
REMARK    2  A    between atoms: C_4  and  C_19
REMARK    3  A    between atoms: C_9  and  C_14
REMARK    4  A    between atoms: N_17  and  C_41
REMARK                            x       y       z     vdW  Elec       q    Type
REMARK                         _______ _______ _______ _____ _____    ______ ____
ROOT
ATOM      1  C   UNL     1      45.397  32.884  47.528  0.00  0.00    +0.000 A 
ATOM      2  C   UNL     1      45.916  32.636  46.299  0.00  0.00    +0.000 A 
ATOM      3  C   UNL     1      46.152  31.286  46.028  0.00  0.00    +0.000 A 
ATOM      4  N   UNL     1      45.890  30.283  46.904  0.00  0.00    +0.000 NA
ATOM      5  C   UNL     1      45.360  30.589  48.148  0.00  0.00    +0.000 A 
ATOM      6  N   UNL     1      45.129  31.867  48.427  0.00  0.00    +0.000 NA
ATOM      7  N   UNL     1      45.092  29.567  49.093  0.00  0.00    +0.000 N 
ATOM      8  H   UNL     1      45.181  33.893  47.844  0.00  0.00    +0.000 HD
ATOM      9  H   UNL     1      45.931  28.916  49.151  0.00  0.00    +0.000 HD
ATOM     10  H   UNL     1      44.272  29.385  49.678  0.00  0.00    +0.000 HD
ENDROOT
BRANCH   2  11
ATOM     11  C   UNL     1      46.159  33.599  45.279  0.00  0.00    +0.000 C 
ATOM     12  C   UNL     1      44.922  34.664  45.499  0.00  0.00    +0.000 C 
ATOM     13  C   UNL     1      44.684  35.594  44.431  0.00  0.00    +0.000 C 
ATOM     14  C   UNL     1      45.504  35.548  43.218  0.00  0.00    +0.000 C 
ATOM     15  C   UNL     1      46.587  34.568  43.178  0.00  0.00    +0.000 C 
ATOM     16  C   UNL     1      46.153  33.321  43.913  0.00  0.00    +0.000 C 
ATOM     17  H   UNL     1      46.954  34.326  45.626  0.00  0.00    +0.000 HD
ATOM     18  H   UNL     1      44.230  34.796  46.323  0.00  0.00    +0.000 HD
ATOM     19  H   UNL     1      43.899  36.298  44.534  0.00  0.00    +0.000 HD
ATOM     20  H   UNL     1      45.913  36.567  43.034  0.00  0.00    +0.000 HD
ATOM     21  H   UNL     1      46.788  34.340  42.089  0.00  0.00    +0.000 HD
ATOM     22  H   UNL     1      47.578  34.911  43.562  0.00  0.00    +0.000 HD
ATOM     23  H   UNL     1      47.027  32.693  43.594  0.00  0.00    +0.000 HD
ATOM     24  H   UNL     1      45.215  32.966  43.437  0.00  0.00    +0.000 HD
BRANCH  14  25
ATOM     25  C   UNL     1      44.516  35.267  42.049  0.00  0.00    +0.000 C 
ATOM     26  F   UNL     1      43.461  34.453  42.427  0.00  0.00    +0.000 F 
ATOM     27  F   UNL     1      43.957  36.495  41.704  0.00  0.00    +0.000 F 
ATOM     28  F   UNL     1      45.217  34.817  40.946  0.00  0.00    +0.000 F 
ENDBRANCH  14  25
ENDBRANCH   2  11
BRANCH   3  29
ATOM     29  C   UNL     1      46.750  30.598  44.897  0.00  0.00    +0.000 A 
ATOM     30  C   UNL     1      46.364  29.921  43.786  0.00  0.00    +0.000 A 
ATOM     31  C   UNL     1      47.515  29.468  43.128  0.00  0.00    +0.000 A 
ATOM     32  N   UNL     1      48.540  29.892  43.869  0.00  0.00    +0.000 N 
ATOM     33  N   UNL     1      48.114  30.560  44.916  0.00  0.00    +0.000 NA
ATOM     34  H   UNL     1      45.306  29.843  43.598  0.00  0.00    +0.000 HD
ATOM     35  H   UNL     1      47.439  28.903  42.215  0.00  0.00    +0.000 HD
BRANCH  32  41
ATOM     36  H   UNL     1      50.573  27.942  42.477  0.00  0.00    +0.000 HD
ATOM     37  N   UNL     1      49.948  28.755  42.359  0.00  0.00    +0.000 NA
ATOM     38  C   UNL     1      50.304  29.610  41.242  0.00  0.00    +0.000 C 
ATOM     39  C   UNL     1      51.364  30.499  41.879  0.00  0.00    +0.000 C 
ATOM     40  C   UNL     1      50.713  30.854  43.198  0.00  0.00    +0.000 C 
ATOM     41  C   UNL     1      49.941  29.618  43.513  0.00  0.00    +0.000 C 
ENDBRANCH  32  41
ENDBRANCH   3  29
TORSDOF 4
