
 OpenBabel03232518563D

 45 47  0  0  1  0  0  0  0  0999 V2000
   46.6010   33.2380   45.0940 C   0  0  0  0  0  0  0  0  0  0  0  0
   47.4470   33.0550   44.3680 H   0  0  0  0  0  0  0  0  0  0  0  0
   47.0710   33.7550   45.9540 H   0  0  0  0  0  0  0  0  0  0  0  0
   45.6620   34.1420   44.3430 C   0  0  0  0  0  0  0  0  0  0  0  0
   45.0180   35.1420   45.0300 C   0  0  0  0  0  0  0  0  0  0  0  0
   44.2270   35.8200   44.1270 C   0  0  0  0  0  0  0  0  0  0  0  0
   44.4490   35.1770   42.9420 N   0  0  0  0  0  0  0  0  0  0  0  0
   45.3010   34.1760   43.0550 N   0  0  0  0  0  0  0  0  0  0  0  0
   44.9710   35.5250   46.0600 H   0  0  0  0  0  0  0  0  0  0  0  0
   43.5360   36.6780   44.1780 H   0  0  0  0  0  0  0  0  0  0  0  0
   44.3700   34.7220   40.5720 N   0  0  0  0  0  0  0  0  0  0  0  0
   43.2500   34.2440   39.7960 C   0  0  0  0  0  0  0  0  0  0  0  0
   42.1970   34.0060   40.8890 C   0  0  0  0  0  0  0  0  0  0  0  0
   42.3350   35.2880   41.6980 C   0  0  0  0  0  0  0  0  0  0  0  0
   43.8310   35.5240   41.6560 C   0  0  1  0  0  0  0  0  0  0  0  0
   44.7900   33.8660   41.0130 H   0  0  0  0  0  0  0  0  0  0  0  0
   43.4350   33.2580   39.3320 H   0  0  0  0  0  0  0  0  0  0  0  0
   42.8400   34.9930   39.1200 H   0  0  0  0  0  0  0  0  0  0  0  0
   41.1850   33.9430   40.4890 H   0  0  0  0  0  0  0  0  0  0  0  0
   42.4910   33.1700   41.5420 H   0  0  0  0  0  0  0  0  0  0  0  0
   42.0120   35.1710   42.7290 H   0  0  0  0  0  0  0  0  0  0  0  0
   41.8580   36.1620   41.1900 H   0  0  0  0  0  0  0  0  0  0  0  0
   44.0720   36.5680   41.4190 H   0  0  0  0  0  0  0  0  0  0  0  0
   45.9060   31.9790   45.3650 C   0  0  2  0  0  0  0  0  0  0  0  0
   44.8460   31.9540   44.9560 H   0  0  0  0  0  0  0  0  0  0  0  0
   45.8530   32.2190   49.0440 C   0  0  0  0  0  0  0  0  0  0  0  0
   45.4430   30.9020   49.4070 C   0  0  0  0  0  0  0  0  0  0  0  0
   45.1990   29.9560   48.3810 C   0  0  0  0  0  0  0  0  0  0  0  0
   45.3710   30.3600   47.0830 N   0  0  0  0  0  0  0  0  0  0  0  0
   45.7590   31.6110   46.7840 C   0  0  0  0  0  0  0  0  0  0  0  0
   45.9990   32.5390   47.7620 N   0  0  0  0  0  0  0  0  0  0  0  0
   46.0020   32.8370   49.9140 H   0  0  0  0  0  0  0  0  0  0  0  0
   45.2870   30.5090   50.3870 H   0  0  0  0  0  0  0  0  0  0  0  0
   44.8940   28.9550   48.5810 H   0  0  0  0  0  0  0  0  0  0  0  0
   46.5420   30.7860   44.6180 C   0  0  0  0  0  0  0  0  0  0  0  0
   47.5780   30.7480   45.0050 H   0  0  0  0  0  0  0  0  0  0  0  0
   46.0160   29.8900   44.9430 H   0  0  0  0  0  0  0  0  0  0  0  0
   46.5290   30.9950   43.2020 N   0  0  0  0  0  0  0  0  0  0  0  0
   45.2310   30.7760   42.6740 C   0  0  0  0  0  0  0  0  0  0  0  0
   44.0470   31.0180   43.1670 N   0  0  0  0  0  0  0  0  0  0  0  0
   44.7480   30.2390   41.4480 N   0  0  0  0  0  0  0  0  0  0  0  0
   47.1360   31.2550   42.3940 H   0  0  0  0  0  0  0  0  0  0  0  0
   43.8640   31.4400   44.0880 H   0  0  0  0  0  0  0  0  0  0  0  0
   44.5760   30.8140   40.5960 H   0  0  0  0  0  0  0  0  0  0  0  0
   44.4620   29.3130   41.0570 H   0  0  0  0  0  0  0  0  0  0  0  0
  1 24  1  0  0  0  0
  1  3  1  0  0  0  0
  2  1  1  0  0  0  0
  4  5  1  0  0  0  0
  4  1  1  0  0  0  0
  5  9  1  0  0  0  0
  6 10  1  0  0  0  0
  6  5  2  0  0  0  0
  7  8  1  0  0  0  0
  7  6  1  0  0  0  0
  8  4  2  0  0  0  0
 11 16  1  0  0  0  0
 11 15  1  0  0  0  0
 12 11  1  0  0  0  0
 12 13  1  0  0  0  0
 13 20  1  0  0  0  0
 13 14  1  0  0  0  0
 14 21  1  0  0  0  0
 15 23  1  6  0  0  0
 15 14  1  0  0  0  0
 15  7  1  0  0  0  0
 17 12  1  0  0  0  0
 18 12  1  0  0  0  0
 19 13  1  0  0  0  0
 22 14  1  0  0  0  0
 24 25  1  6  0  0  0
 24 30  1  0  0  0  0
 26 27  1  0  0  0  0
 26 32  1  0  0  0  0
 27 33  1  0  0  0  0
 28 34  1  0  0  0  0
 28 27  2  0  0  0  0
 29 28  1  0  0  0  0
 30 29  2  0  0  0  0
 30 31  1  0  0  0  0
 31 26  2  0  0  0  0
 35 37  1  0  0  0  0
 35 36  1  0  0  0  0
 35 24  1  0  0  0  0
 38 35  1  0  0  0  0
 39 40  2  0  0  0  0
 39 38  1  0  0  0  0
 40 43  1  0  0  0  0
 41 39  1  0  0  0  0
 42 38  1  0  0  0  0
 44 41  1  0  0  0  0
 45 41  1  0  0  0  0
M  END
>  <minimizedAffinity>
-5.06492615

>  <minimizedRMSD>
0.194376618

$$$$
