REMARK  Name = 
REMARK  4 active torsions:
REMARK  status: ('A' for Active; 'I' for Inactive)
REMARK    1  A    between atoms: C_1  and  C_8
REMARK    2  A    between atoms: C_4  and  C_19
REMARK    3  A    between atoms: C_9  and  C_14
REMARK    4  A    between atoms: N_17  and  C_36
REMARK                            x       y       z     vdW  Elec       q    Type
REMARK                         _______ _______ _______ _____ _____    ______ ____
ROOT
ATOM      1  C   UNL     1      45.404  32.884  47.532  0.00  0.00    +0.000 A 
ATOM      2  C   UNL     1      45.920  32.636  46.300  0.00  0.00    +0.000 A 
ATOM      3  C   UNL     1      46.151  31.284  46.028  0.00  0.00    +0.000 A 
ATOM      4  N   UNL     1      45.888  30.284  46.907  0.00  0.00    +0.000 NA
ATOM      5  C   UNL     1      45.362  30.587  48.151  0.00  0.00    +0.000 A 
ATOM      6  N   UNL     1      45.135  31.871  48.431  0.00  0.00    +0.000 NA
ATOM      7  N   UNL     1      45.089  29.567  49.093  0.00  0.00    +0.000 N 
ATOM      8  H   UNL     1      45.192  33.894  47.846  0.00  0.00    +0.000 HD
ATOM      9  H   UNL     1      44.132  29.326  49.386  0.00  0.00    +0.000 HD
ATOM     10  H   UNL     1      45.840  28.996  49.551  0.00  0.00    +0.000 HD
ENDROOT
BRANCH   2  11
ATOM     11  C   UNL     1      46.157  33.600  45.280  0.00  0.00    +0.000 C 
ATOM     12  C   UNL     1      44.913  34.660  45.498  0.00  0.00    +0.000 C 
ATOM     13  C   UNL     1      44.680  35.589  44.429  0.00  0.00    +0.000 C 
ATOM     14  C   UNL     1      45.503  35.547  43.218  0.00  0.00    +0.000 C 
ATOM     15  C   UNL     1      46.588  34.572  43.184  0.00  0.00    +0.000 C 
ATOM     16  C   UNL     1      46.154  33.322  43.915  0.00  0.00    +0.000 C 
ATOM     17  H   UNL     1      46.925  34.352  45.634  0.00  0.00    +0.000 HD
ATOM     18  H   UNL     1      44.221  34.783  46.322  0.00  0.00    +0.000 HD
ATOM     19  H   UNL     1      43.894  36.287  44.528  0.00  0.00    +0.000 HD
ATOM     20  H   UNL     1      45.911  36.563  43.036  0.00  0.00    +0.000 HD
ATOM     21  H   UNL     1      47.473  34.992  43.744  0.00  0.00    +0.000 HD
ATOM     22  H   UNL     1      46.884  34.393  42.128  0.00  0.00    +0.000 HD
ATOM     23  H   UNL     1      47.025  32.693  43.592  0.00  0.00    +0.000 HD
ATOM     24  H   UNL     1      45.213  32.975  43.440  0.00  0.00    +0.000 HD
BRANCH  14  25
ATOM     25  C   UNL     1      44.516  35.266  42.047  0.00  0.00    +0.000 C 
ATOM     26  F   UNL     1      43.462  34.450  42.423  0.00  0.00    +0.000 F 
ATOM     27  F   UNL     1      43.962  36.495  41.702  0.00  0.00    +0.000 F 
ATOM     28  F   UNL     1      45.220  34.818  40.946  0.00  0.00    +0.000 F 
ENDBRANCH  14  25
ENDBRANCH   2  11
BRANCH   3  29
ATOM     29  C   UNL     1      46.749  30.598  44.898  0.00  0.00    +0.000 A 
ATOM     30  C   UNL     1      46.365  29.922  43.784  0.00  0.00    +0.000 A 
ATOM     31  C   UNL     1      47.514  29.471  43.122  0.00  0.00    +0.000 A 
ATOM     32  N   UNL     1      48.534  29.895  43.867  0.00  0.00    +0.000 N 
ATOM     33  N   UNL     1      48.112  30.559  44.916  0.00  0.00    +0.000 NA
ATOM     34  H   UNL     1      45.300  29.846  43.597  0.00  0.00    +0.000 HD
ATOM     35  H   UNL     1      47.429  28.907  42.205  0.00  0.00    +0.000 HD
BRANCH  32  36
ATOM     36  C   UNL     1      49.920  29.613  43.492  0.00  0.00    +0.000 A 
ATOM     37  C   UNL     1      50.799  28.694  43.798  0.00  0.00    +0.000 A 
ATOM     38  C   UNL     1      52.051  28.729  43.248  0.00  0.00    +0.000 A 
ATOM     39  C   UNL     1      52.312  29.772  42.374  0.00  0.00    +0.000 A 
ATOM     40  S   UNL     1      50.660  30.709  42.379  0.00  0.00    +0.000 S 
ENDBRANCH  32  36
ENDBRANCH   3  29
TORSDOF 4
