
 OpenBabel03232519543D

 24 25  0  0  0  0  0  0  0  0999 V2000
   42.9340   34.6250   41.1690 N   0  0  0  0  0  0  0  0  0  0  0  0
   43.1230   34.5260   39.8560 C   0  0  0  0  0  0  0  0  0  0  0  0
   41.9130   34.9360   39.2550 C   0  0  0  0  0  0  0  0  0  0  0  0
   41.0520   35.2640   40.2250 N   0  0  0  0  0  0  0  0  0  0  0  0
   41.6610   35.0800   41.4070 C   0  0  0  0  0  0  0  0  0  0  0  0
   41.5670   35.0320   38.2510 H   0  0  0  0  0  0  0  0  0  0  0  0
   41.2400   35.2540   42.3870 H   0  0  0  0  0  0  0  0  0  0  0  0
   44.3080   35.4800   42.9250 C   0  0  0  0  0  0  0  0  0  0  0  0
   43.8580   34.3220   42.1990 C   0  0  0  0  0  0  0  0  0  0  0  0
   44.3350   33.0510   42.5290 C   0  0  0  0  0  0  0  0  0  0  0  0
   45.2360   32.9780   43.5580 N   0  0  0  0  0  0  0  0  0  0  0  0
   45.6530   34.0860   44.2370 C   0  0  0  0  0  0  0  0  0  0  0  0
   45.1810   35.3240   43.9090 N   0  0  0  0  0  0  0  0  0  0  0  0
   43.9460   36.4620   42.6800 H   0  0  0  0  0  0  0  0  0  0  0  0
   43.9880   32.1850   42.0060 H   0  0  0  0  0  0  0  0  0  0  0  0
   46.3610   33.8010   45.0050 H   0  0  0  0  0  0  0  0  0  0  0  0
   44.2460   34.1610   39.0780 N   0  0  0  0  0  0  0  0  0  0  0  0
   44.1440   33.4600   37.8330 C   0  0  0  0  0  0  0  0  0  0  0  0
   43.1500   32.6090   37.7020 N   0  0  0  0  0  0  0  0  0  0  0  0
   45.0820   33.6580   36.7510 N   0  0  0  0  0  0  0  0  0  0  0  0
   45.2460   34.3430   39.2530 H   0  0  0  0  0  0  0  0  0  0  0  0
   43.0860   32.1060   36.7940 H   0  0  0  0  0  0  0  0  0  0  0  0
   45.2020   32.8340   36.1230 H   0  0  0  0  0  0  0  0  0  0  0  0
   45.5630   34.5820   36.6700 H   0  0  0  0  0  0  0  0  0  0  0  0
  1  5  1  0  0  0  0
  1  9  1  0  0  0  0
  2  1  1  0  0  0  0
  3  2  2  0  0  0  0
  3  4  1  0  0  0  0
  4  5  2  0  0  0  0
  5  7  1  0  0  0  0
  6  3  1  0  0  0  0
  8 13  1  0  0  0  0
  9 10  1  0  0  0  0
  9  8  2  0  0  0  0
 10 11  2  0  0  0  0
 11 12  1  0  0  0  0
 12 16  1  0  0  0  0
 13 12  2  0  0  0  0
 14  8  1  0  0  0  0
 15 10  1  0  0  0  0
 17 21  1  0  0  0  0
 17  2  1  0  0  0  0
 18 17  1  0  0  0  0
 19 18  2  0  0  0  0
 20 18  1  0  0  0  0
 22 19  1  0  0  0  0
 23 20  1  0  0  0  0
 24 20  1  0  0  0  0
M  END
>  <minimizedAffinity>
-4.15047169

>  <minimizedRMSD>
1.62016726

$$$$
