
 OpenBabel03232520523D

 34 35  0  0  1  0  0  0  0  0999 V2000
   46.0290   33.7070   45.3590 C   0  0  2  0  0  0  0  0  0  0  0  0
   44.9160   34.7250   45.4940 C   0  0  0  0  0  0  0  0  0  0  0  0
   44.6980   35.6070   44.3890 C   0  0  0  0  0  0  0  0  0  0  0  0
   45.5180   35.5220   43.1840 C   0  0  1  0  0  0  0  0  0  0  0  0
   46.6440   34.5640   43.2050 C   0  0  0  0  0  0  0  0  0  0  0  0
   46.2330   33.3210   43.9360 C   0  0  0  0  0  0  0  0  0  0  0  0
   46.9510   34.2580   45.7080 H   0  0  0  0  0  0  0  0  0  0  0  0
   44.1900   34.9830   46.2530 H   0  0  0  0  0  0  0  0  0  0  0  0
   43.9520   36.3530   44.3760 H   0  0  0  0  0  0  0  0  0  0  0  0
   45.9350   36.5310   42.9830 H   0  0  0  0  0  0  0  0  0  0  0  0
   47.5110   35.0010   43.7480 H   0  0  0  0  0  0  0  0  0  0  0  0
   46.9150   34.3030   42.1510 H   0  0  0  0  0  0  0  0  0  0  0  0
   47.1240   32.6470   43.9160 H   0  0  0  0  0  0  0  0  0  0  0  0
   45.3740   32.8300   43.4800 H   0  0  0  0  0  0  0  0  0  0  0  0
   45.2530   32.8730   47.5340 C   0  0  0  0  0  0  0  0  0  0  0  0
   45.8240   32.6200   46.3000 C   0  0  0  0  0  0  0  0  0  0  0  0
   46.1870   31.3020   46.0390 C   0  0  0  0  0  0  0  0  0  0  0  0
   45.9750   30.3460   46.9740 N   0  0  0  0  0  0  0  0  0  0  0  0
   45.4170   30.6160   48.1690 C   0  0  0  0  0  0  0  0  0  0  0  0
   45.0650   31.8760   48.4290 N   0  0  0  0  0  0  0  0  0  0  0  0
   44.9190   33.8350   47.8900 H   0  0  0  0  0  0  0  0  0  0  0  0
   46.6380   31.0380   45.0930 H   0  0  0  0  0  0  0  0  0  0  0  0
   45.2610   29.5150   49.0530 N   0  0  0  0  0  0  0  0  0  0  0  0
   45.3900   28.2100   48.5270 C   0  0  0  0  0  0  0  0  0  0  0  0
   46.2770   27.8850   47.6550 N   0  0  0  0  0  0  0  0  0  0  0  0
   44.5070   27.1550   48.9660 N   0  0  0  0  0  0  0  0  0  0  0  0
   45.0540   29.6180   50.0670 H   0  0  0  0  0  0  0  0  0  0  0  0
   46.9320   28.6120   47.3180 H   0  0  0  0  0  0  0  0  0  0  0  0
   44.0750   26.6020   49.7220 H   0  0  0  0  0  0  0  0  0  0  0  0
   43.9670   26.5750   48.2690 H   0  0  0  0  0  0  0  0  0  0  0  0
   44.5920   35.2370   41.9970 C   0  0  0  0  0  0  0  0  0  0  0  0
   43.5770   34.3550   42.3120 F   0  0  0  0  0  0  0  0  0  0  0  0
   43.9660   36.4340   41.6440 F   0  0  0  0  0  0  0  0  0  0  0  0
   45.3360   34.8200   40.9090 F   0  0  0  0  0  0  0  0  0  0  0  0
  1  2  1  0  0  0  0
  1  7  1  1  0  0  0
  1 16  1  0  0  0  0
  2  8  1  0  0  0  0
  3  2  2  0  0  0  0
  4 10  1  6  0  0  0
  4  5  1  0  0  0  0
  4  3  1  0  0  0  0
  5 11  1  0  0  0  0
  5  6  1  0  0  0  0
  6  1  1  0  0  0  0
  9  3  1  0  0  0  0
 12  5  1  0  0  0  0
 13  6  1  0  0  0  0
 14  6  1  0  0  0  0
 15 21  1  0  0  0  0
 15 20  1  0  0  0  0
 16 15  2  0  0  0  0
 17 16  1  0  0  0  0
 17 18  2  0  0  0  0
 18 19  1  0  0  0  0
 19 20  2  0  0  0  0
 19 23  1  0  0  0  0
 22 17  1  0  0  0  0
 23 27  1  0  0  0  0
 24 26  1  0  0  0  0
 24 23  1  0  0  0  0
 25 24  2  0  0  0  0
 26 29  1  0  0  0  0
 28 25  1  0  0  0  0
 30 26  1  0  0  0  0
 31 32  1  0  0  0  0
 31  4  1  0  0  0  0
 33 31  1  0  0  0  0
 34 31  1  0  0  0  0
M  END
>  <minimizedAffinity>
-5.90020943

>  <minimizedRMSD>
0.285805106

$$$$
