
 OpenBabel03232520483D

 31 32  0  0  1  0  0  0  0  0999 V2000
   46.2440   33.2200   46.0090 C   0  0  2  0  0  0  0  0  0  0  0  0
   45.1090   34.2220   45.9460 C   0  0  0  0  0  0  0  0  0  0  0  0
   44.9720   34.9800   44.7170 C   0  0  0  0  0  0  0  0  0  0  0  0
   45.9000   34.7740   43.6030 C   0  0  1  0  0  0  0  0  0  0  0  0
   47.0400   33.8430   43.8470 C   0  0  0  0  0  0  0  0  0  0  0  0
   46.5530   32.6700   44.6540 C   0  0  0  0  0  0  0  0  0  0  0  0
   47.1030   33.8470   46.3740 H   0  0  0  0  0  0  0  0  0  0  0  0
   44.3850   34.4480   46.6950 H   0  0  0  0  0  0  0  0  0  0  0  0
   44.1900   35.6930   44.6310 H   0  0  0  0  0  0  0  0  0  0  0  0
   46.3610   35.7720   43.3770 H   0  0  0  0  0  0  0  0  0  0  0  0
   47.4460   33.5240   42.8660 H   0  0  0  0  0  0  0  0  0  0  0  0
   47.8070   34.3830   44.4540 H   0  0  0  0  0  0  0  0  0  0  0  0
   47.3240   31.8790   44.7260 H   0  0  0  0  0  0  0  0  0  0  0  0
   45.6170   32.2980   44.1910 H   0  0  0  0  0  0  0  0  0  0  0  0
   45.7080   32.6000   48.3500 C   0  0  0  0  0  0  0  0  0  0  0  0
   45.9190   32.1900   47.0300 C   0  0  0  0  0  0  0  0  0  0  0  0
   45.8260   30.8020   46.7260 C   0  0  0  0  0  0  0  0  0  0  0  0
   45.5380   29.9490   47.7350 N   0  0  0  0  0  0  0  0  0  0  0  0
   45.3380   30.3780   49.0070 C   0  0  0  0  0  0  0  0  0  0  0  0
   45.4260   31.6980   49.2980 N   0  0  0  0  0  0  0  0  0  0  0  0
   45.7550   33.6180   48.6820 H   0  0  0  0  0  0  0  0  0  0  0  0
   45.9800   30.4540   45.7320 H   0  0  0  0  0  0  0  0  0  0  0  0
   45.1060   29.7100   49.8330 H   0  0  0  0  0  0  0  0  0  0  0  0
   45.2100   34.3690   42.3930 N   0  0  0  0  0  0  0  0  0  0  0  0
   43.8550   34.7700   42.2330 C   0  0  0  0  0  0  0  0  0  0  0  0
   43.3250   35.7650   42.8640 N   0  0  0  0  0  0  0  0  0  0  0  0
   42.9450   34.1100   41.3570 N   0  0  0  0  0  0  0  0  0  0  0  0
   45.5610   33.8120   41.5930 H   0  0  0  0  0  0  0  0  0  0  0  0
   43.8350   36.3670   43.5470 H   0  0  0  0  0  0  0  0  0  0  0  0
   42.2100   34.6400   40.8020 H   0  0  0  0  0  0  0  0  0  0  0  0
   42.7360   33.1250   41.0350 H   0  0  0  0  0  0  0  0  0  0  0  0
  1  7  1  1  0  0  0
  1 16  1  0  0  0  0
  2  1  1  0  0  0  0
  2  8  1  0  0  0  0
  3  2  2  0  0  0  0
  4 10  1  6  0  0  0
  4  5  1  0  0  0  0
  4  3  1  0  0  0  0
  5 12  1  0  0  0  0
  5  6  1  0  0  0  0
  6 13  1  0  0  0  0
  6  1  1  0  0  0  0
  9  3  1  0  0  0  0
 11  5  1  0  0  0  0
 14  6  1  0  0  0  0
 15 21  1  0  0  0  0
 15 20  1  0  0  0  0
 16 15  2  0  0  0  0
 17 16  1  0  0  0  0
 17 18  2  0  0  0  0
 18 19  1  0  0  0  0
 19 20  2  0  0  0  0
 19 23  1  0  0  0  0
 22 17  1  0  0  0  0
 24  4  1  0  0  0  0
 25 24  1  0  0  0  0
 25 26  2  0  0  0  0
 26 29  1  0  0  0  0
 27 25  1  0  0  0  0
 28 24  1  0  0  0  0
 30 27  1  0  0  0  0
 31 27  1  0  0  0  0
M  END
>  <minimizedAffinity>
-5.11455631

>  <minimizedRMSD>
1.1374433

$$$$
