
 OpenBabel03232518343D

 33 34  0  0  0  0  0  0  0  0999 V2000
   47.5450   33.7890   42.6190 C   0  0  0  0  0  0  0  0  0  0  0  0
   48.4000   34.9740   42.2050 C   0  0  0  0  0  0  0  0  0  0  0  0
   49.8350   34.8440   42.5840 C   0  0  0  0  0  0  0  0  0  0  0  0
   50.4780   33.5610   42.1380 C   0  0  0  0  0  0  0  0  0  0  0  0
   49.4430   32.4930   41.8770 C   0  0  0  0  0  0  0  0  0  0  0  0
   48.4090   32.6190   42.9790 C   0  0  0  0  0  0  0  0  0  0  0  0
   46.9260   33.5100   41.7380 H   0  0  0  0  0  0  0  0  0  0  0  0
   48.0230   35.9150   42.6470 H   0  0  0  0  0  0  0  0  0  0  0  0
   48.3650   35.1050   41.1050 H   0  0  0  0  0  0  0  0  0  0  0  0
   49.9820   35.0490   43.6710 H   0  0  0  0  0  0  0  0  0  0  0  0
   50.3800   35.6620   42.0700 H   0  0  0  0  0  0  0  0  0  0  0  0
   51.1740   33.6780   41.2990 H   0  0  0  0  0  0  0  0  0  0  0  0
   51.0760   33.1860   43.0100 H   0  0  0  0  0  0  0  0  0  0  0  0
   49.9030   31.4920   41.8380 H   0  0  0  0  0  0  0  0  0  0  0  0
   48.9850   32.6510   40.8740 H   0  0  0  0  0  0  0  0  0  0  0  0
   48.9730   32.7610   43.9140 H   0  0  0  0  0  0  0  0  0  0  0  0
   47.8340   31.6930   43.0970 H   0  0  0  0  0  0  0  0  0  0  0  0
   45.6650   33.9520   45.8860 C   0  0  0  0  0  0  0  0  0  0  0  0
   46.5960   33.5440   44.9360 C   0  0  0  0  0  0  0  0  0  0  0  0
   46.5740   34.1560   43.6840 C   0  0  0  0  0  0  0  0  0  0  0  0
   45.6450   35.1280   43.4430 N   0  0  0  0  0  0  0  0  0  0  0  0
   44.7410   35.5100   44.3990 C   0  0  0  0  0  0  0  0  0  0  0  0
   44.7650   34.9220   45.5930 N   0  0  0  0  0  0  0  0  0  0  0  0
   47.3140   32.7910   45.1120 H   0  0  0  0  0  0  0  0  0  0  0  0
   44.0250   36.2740   44.1790 H   0  0  0  0  0  0  0  0  0  0  0  0
   45.6280   33.3820   47.1870 N   0  0  0  0  0  0  0  0  0  0  0  0
   45.1450   32.0820   47.4730 C   0  0  0  0  0  0  0  0  0  0  0  0
   45.5730   31.1510   46.6670 N   0  0  0  0  0  0  0  0  0  0  0  0
   44.2520   31.9010   48.5940 N   0  0  0  0  0  0  0  0  0  0  0  0
   45.9790   33.9590   48.0090 H   0  0  0  0  0  0  0  0  0  0  0  0
   45.2390   30.1850   46.8460 H   0  0  0  0  0  0  0  0  0  0  0  0
   44.5580   31.2350   49.3630 H   0  0  0  0  0  0  0  0  0  0  0  0
   43.3250   32.3640   48.7300 H   0  0  0  0  0  0  0  0  0  0  0  0
  1  6  1  0  0  0  0
  1 20  1  0  0  0  0
  2  3  1  0  0  0  0
  2  1  1  0  0  0  0
  2  8  1  0  0  0  0
  3 10  1  0  0  0  0
  4  3  1  0  0  0  0
  4 13  1  0  0  0  0
  5  4  1  0  0  0  0
  5  6  1  0  0  0  0
  6 17  1  0  0  0  0
  6 16  1  0  0  0  0
  7  1  1  0  0  0  0
  9  2  1  0  0  0  0
 11  3  1  0  0  0  0
 12  4  1  0  0  0  0
 14  5  1  0  0  0  0
 15  5  1  0  0  0  0
 18 26  1  0  0  0  0
 19 24  1  0  0  0  0
 19 18  2  0  0  0  0
 20 19  1  0  0  0  0
 21 20  2  0  0  0  0
 21 22  1  0  0  0  0
 22 23  2  0  0  0  0
 23 18  1  0  0  0  0
 25 22  1  0  0  0  0
 26 27  1  0  0  0  0
 26 30  1  0  0  0  0
 27 29  1  0  0  0  0
 28 31  1  0  0  0  0
 28 27  2  0  0  0  0
 29 33  1  0  0  0  0
 29 32  1  0  0  0  0
M  END
>  <minimizedAffinity>
-6.08402252

>  <minimizedRMSD>
3.98932481

$$$$
