
 OpenBabel03232520593D

 40 43  0  0  1  0  0  0  0  0999 V2000
   45.3450   32.9140   47.5120 C   0  0  0  0  0  0  0  0  0  0  0  0
   45.9100   32.6540   46.3040 C   0  0  0  0  0  0  0  0  0  0  0  0
   46.1880   31.3040   46.0700 C   0  0  0  0  0  0  0  0  0  0  0  0
   45.9220   30.3160   46.9620 N   0  0  0  0  0  0  0  0  0  0  0  0
   45.3450   30.6300   48.1800 C   0  0  0  0  0  0  0  0  0  0  0  0
   45.0730   31.9130   48.4240 N   0  0  0  0  0  0  0  0  0  0  0  0
   45.0680   29.6230   49.1350 N   0  0  0  0  0  0  0  0  0  0  0  0
   45.0940   33.9240   47.7960 H   0  0  0  0  0  0  0  0  0  0  0  0
   44.1080   29.3620   49.4000 H   0  0  0  0  0  0  0  0  0  0  0  0
   45.8180   29.0840   49.6310 H   0  0  0  0  0  0  0  0  0  0  0  0
   46.1550   33.6030   45.2710 C   0  0  2  0  0  0  0  0  0  0  0  0
   44.9450   34.6990   45.5010 C   0  0  0  0  0  0  0  0  0  0  0  0
   44.7190   35.6250   44.4280 C   0  0  0  0  0  0  0  0  0  0  0  0
   45.5190   35.5490   43.2040 C   0  0  1  0  0  0  0  0  0  0  0  0
   46.5760   34.5440   43.1600 C   0  0  0  0  0  0  0  0  0  0  0  0
   46.1210   33.3130   43.9090 C   0  0  0  0  0  0  0  0  0  0  0  0
   46.9500   34.3360   45.6050 H   0  0  0  0  0  0  0  0  0  0  0  0
   44.2710   34.8480   46.3360 H   0  0  0  0  0  0  0  0  0  0  0  0
   43.9550   36.3450   44.5350 H   0  0  0  0  0  0  0  0  0  0  0  0
   45.9520   36.5520   43.0050 H   0  0  0  0  0  0  0  0  0  0  0  0
   47.4820   34.9440   43.7000 H   0  0  0  0  0  0  0  0  0  0  0  0
   46.8490   34.3480   42.1000 H   0  0  0  0  0  0  0  0  0  0  0  0
   46.9680   32.6580   43.5770 H   0  0  0  0  0  0  0  0  0  0  0  0
   45.1620   32.9880   43.4540 H   0  0  0  0  0  0  0  0  0  0  0  0
   44.5040   35.2860   42.0520 C   0  0  0  0  0  0  0  0  0  0  0  0
   43.4430   34.4900   42.4500 F   0  0  0  0  0  0  0  0  0  0  0  0
   43.9670   36.5250   41.7170 F   0  0  0  0  0  0  0  0  0  0  0  0
   45.1780   34.8230   40.9390 F   0  0  0  0  0  0  0  0  0  0  0  0
   46.8430   30.6110   44.9770 C   0  0  0  0  0  0  0  0  0  0  0  0
   46.5180   29.8660   43.8890 C   0  0  0  0  0  0  0  0  0  0  0  0
   47.7030   29.4630   43.2590 C   0  0  0  0  0  0  0  0  0  0  0  0
   48.6830   29.9820   43.9970 N   0  0  0  0  0  0  0  0  0  0  0  0
   48.2060   30.6600   45.0120 N   0  0  0  0  0  0  0  0  0  0  0  0
   45.4630   29.7150   43.6930 H   0  0  0  0  0  0  0  0  0  0  0  0
   47.6660   28.8570   42.3660 H   0  0  0  0  0  0  0  0  0  0  0  0
   50.0900   29.7740   43.6490 C   0  0  0  0  0  0  0  0  0  0  0  0
   50.9680   30.4000   42.9080 C   0  0  0  0  0  3  0  0  0  0  0  0
   52.2420   29.9170   42.7970 C   0  0  0  0  0  3  0  0  0  0  0  0
   52.5270   28.7580   43.5020 C   0  0  0  0  0  3  0  0  0  0  0  0
   50.8630   28.3900   44.3390 S   0  0  0  0  0  0  0  0  0  0  0  0
  1  8  1  0  0  0  0
  1  6  1  0  0  0  0
  2  1  2  0  0  0  0
  3  2  1  0  0  0  0
  3  4  2  0  0  0  0
  4  5  1  0  0  0  0
  5  6  2  0  0  0  0
  5  7  1  0  0  0  0
  7  9  1  0  0  0  0
  7 10  1  0  0  0  0
 11 12  1  0  0  0  0
 11 17  1  1  0  0  0
 11  2  1  0  0  0  0
 12 18  1  0  0  0  0
 13 19  1  0  0  0  0
 13 12  2  0  0  0  0
 14 20  1  6  0  0  0
 14 13  1  0  0  0  0
 15 14  1  0  0  0  0
 15 21  1  0  0  0  0
 15 16  1  0  0  0  0
 16 11  1  0  0  0  0
 22 15  1  0  0  0  0
 23 16  1  0  0  0  0
 24 16  1  0  0  0  0
 25 26  1  0  0  0  0
 25 14  1  0  0  0  0
 27 25  1  0  0  0  0
 28 25  1  0  0  0  0
 29 33  2  0  0  0  0
 29  3  1  0  0  0  0
 30 29  1  0  0  0  0
 31 30  2  0  0  0  0
 31 32  1  0  0  0  0
 32 33  1  0  0  0  0
 34 30  1  0  0  0  0
 35 31  1  0  0  0  0
 36 32  1  0  0  0  0
 36 40  1  0  0  0  0
 37 36  2  0  0  0  0
 38 37  1  0  0  0  0
 38 39  2  0  0  0  0
 39 40  1  0  0  0  0
M  END
>  <minimizedAffinity>
-5.72086859

>  <minimizedRMSD>
0.441328883

$$$$
