
 OpenBabel03232520113D

 39 41  0  0  1  0  0  0  0  0999 V2000
   46.7230   32.8460   43.0400 N   0  0  0  0  0  0  0  0  0  0  0  0
   45.3580   33.0080   42.6400 C   0  0  0  0  0  0  0  0  0  0  0  0
   44.7770   34.3340   43.0850 C   0  0  0  0  0  0  0  0  0  0  0  0
   45.7950   35.4560   43.0140 C   0  0  0  0  0  0  0  0  0  0  0  0
   46.9560   35.0690   42.1290 C   0  0  0  0  0  0  0  0  0  0  0  0
   47.6360   33.9050   42.7550 C   0  0  2  0  0  0  0  0  0  0  0  0
   45.2580   32.8460   41.5600 H   0  0  0  0  0  0  0  0  0  0  0  0
   44.7330   32.2340   43.1770 H   0  0  0  0  0  0  0  0  0  0  0  0
   44.2980   34.2610   44.0660 H   0  0  0  0  0  0  0  0  0  0  0  0
   43.9980   34.5900   42.3200 H   0  0  0  0  0  0  0  0  0  0  0  0
   46.2140   35.5430   44.0530 H   0  0  0  0  0  0  0  0  0  0  0  0
   45.3400   36.4170   42.7150 H   0  0  0  0  0  0  0  0  0  0  0  0
   46.5090   34.7540   41.1540 H   0  0  0  0  0  0  0  0  0  0  0  0
   47.6270   35.9420   42.0050 H   0  0  0  0  0  0  0  0  0  0  0  0
   47.9800   34.2810   43.7670 H   0  0  0  0  0  0  0  0  0  0  0  0
   48.8450   33.5260   42.0610 N   0  0  0  0  0  0  0  0  0  0  0  0
   50.0680   34.1430   42.5290 C   0  0  0  0  0  0  0  0  0  0  0  0
   50.1190   35.2570   43.1640 N   0  0  0  0  0  0  0  0  0  0  0  0
   51.2770   33.4090   42.2320 N   0  0  0  0  0  0  0  0  0  0  0  0
   48.9030   32.8440   41.2530 H   0  0  0  0  0  0  0  0  0  0  0  0
   51.0520   35.6180   43.4590 H   0  0  0  0  0  0  0  0  0  0  0  0
   52.1020   32.8040   42.5200 H   0  0  0  0  0  0  0  0  0  0  0  0
   51.4710   33.5060   41.1970 H   0  0  0  0  0  0  0  0  0  0  0  0
   48.2700   29.9350   45.4080 C   0  0  0  0  0  0  0  0  0  0  0  0
   48.5640   29.8000   44.0540 C   0  0  0  0  0  0  0  0  0  0  0  0
   48.0940   30.7210   43.1730 C   0  0  0  0  0  0  0  0  0  0  0  0
   47.3420   31.7440   43.7180 C   0  0  0  0  0  0  0  0  0  0  0  0
   47.3000   31.3990   45.4750 S   0  0  0  0  0  0  0  0  0  0  0  0
   49.1800   28.9190   43.8030 H   0  0  0  0  0  0  0  0  0  0  0  0
   48.3400   30.5840   42.1300 H   0  0  0  0  0  0  0  0  0  0  0  0
   49.9730   28.6850   48.3940 C   0  0  0  0  0  0  0  0  0  0  0  0
   49.3180   27.4560   48.5990 C   0  0  0  0  0  0  0  0  0  0  0  0
   48.2880   27.0830   47.6940 C   0  0  0  0  0  0  0  0  0  0  0  0
   47.9910   27.9390   46.6690 N   0  0  0  0  0  0  0  0  0  0  0  0
   48.6450   29.0960   46.5170 C   0  0  0  0  0  0  0  0  0  0  0  0
   49.6330   29.4730   47.3730 N   0  0  0  0  0  0  0  0  0  0  0  0
   50.7580   29.0380   49.0310 H   0  0  0  0  0  0  0  0  0  0  0  0
   49.6130   26.8340   49.4360 H   0  0  0  0  0  0  0  0  0  0  0  0
   47.7920   26.1550   47.8470 H   0  0  0  0  0  0  0  0  0  0  0  0
  1 27  1  0  0  0  0
  2  1  1  0  0  0  0
  2  3  1  0  0  0  0
  2  8  1  0  0  0  0
  3  9  1  0  0  0  0
  4  3  1  0  0  0  0
  4 11  1  0  0  0  0
  5  6  1  0  0  0  0
  5  4  1  0  0  0  0
  6  1  1  0  0  0  0
  6 15  1  1  0  0  0
  7  2  1  0  0  0  0
 10  3  1  0  0  0  0
 12  4  1  0  0  0  0
 13  5  1  0  0  0  0
 14  5  1  0  0  0  0
 16 17  1  0  0  0  0
 16  6  1  0  0  0  0
 17 18  2  0  0  0  0
 18 21  1  0  0  0  0
 19 22  1  0  0  0  0
 19 17  1  0  0  0  0
 20 16  1  0  0  0  0
 23 19  1  0  0  0  0
 24 28  1  0  0  0  0
 24 35  1  0  0  0  0
 25 24  2  0  0  0  0
 26 27  2  0  0  0  0
 26 25  1  0  0  0  0
 27 28  1  0  0  0  0
 29 25  1  0  0  0  0
 30 26  1  0  0  0  0
 31 32  1  0  0  0  0
 31 37  1  0  0  0  0
 32 38  1  0  0  0  0
 33 39  1  0  0  0  0
 33 32  2  0  0  0  0
 34 33  1  0  0  0  0
 35 34  2  0  0  0  0
 35 36  1  0  0  0  0
 36 31  2  0  0  0  0
M  END
>  <minimizedAffinity>
-4.96606445

>  <minimizedRMSD>
7.95676231

$$$$
