
 OpenBabel03232520593D

 40 43  0  0  1  0  0  0  0  0999 V2000
   45.3750   32.8480   47.4850 C   0  0  0  0  0  0  0  0  0  0  0  0
   45.9290   32.6050   46.2680 C   0  0  0  0  0  0  0  0  0  0  0  0
   46.1980   31.2580   46.0100 C   0  0  0  0  0  0  0  0  0  0  0  0
   45.9340   30.2560   46.8870 N   0  0  0  0  0  0  0  0  0  0  0  0
   45.3690   30.5530   48.1150 C   0  0  0  0  0  0  0  0  0  0  0  0
   45.1050   31.8330   48.3820 N   0  0  0  0  0  0  0  0  0  0  0  0
   45.0940   29.5320   49.0550 N   0  0  0  0  0  0  0  0  0  0  0  0
   45.1320   33.8540   47.7880 H   0  0  0  0  0  0  0  0  0  0  0  0
   44.1350   29.2710   49.3240 H   0  0  0  0  0  0  0  0  0  0  0  0
   45.8450   28.9800   49.5360 H   0  0  0  0  0  0  0  0  0  0  0  0
   46.1720   33.5690   45.2500 C   0  0  2  0  0  0  0  0  0  0  0  0
   44.9620   34.6610   45.5000 C   0  0  0  0  0  0  0  0  0  0  0  0
   44.7330   35.6040   44.4420 C   0  0  0  0  0  0  0  0  0  0  0  0
   45.5290   35.5480   43.2140 C   0  0  1  0  0  0  0  0  0  0  0  0
   46.5860   34.5430   43.1510 C   0  0  0  0  0  0  0  0  0  0  0  0
   46.1330   33.3010   43.8830 C   0  0  0  0  0  0  0  0  0  0  0  0
   46.9670   34.2980   45.5920 H   0  0  0  0  0  0  0  0  0  0  0  0
   44.2910   34.7980   46.3390 H   0  0  0  0  0  0  0  0  0  0  0  0
   43.9680   36.3220   44.5620 H   0  0  0  0  0  0  0  0  0  0  0  0
   45.9610   36.5530   43.0300 H   0  0  0  0  0  0  0  0  0  0  0  0
   47.4930   34.9350   43.6950 H   0  0  0  0  0  0  0  0  0  0  0  0
   46.8550   34.3640   42.0880 H   0  0  0  0  0  0  0  0  0  0  0  0
   46.9790   32.6500   43.5380 H   0  0  0  0  0  0  0  0  0  0  0  0
   45.1730   32.9830   43.4260 H   0  0  0  0  0  0  0  0  0  0  0  0
   44.5100   35.3020   42.0620 C   0  0  0  0  0  0  0  0  0  0  0  0
   43.4380   34.5200   42.4570 F   0  0  0  0  0  0  0  0  0  0  0  0
   43.9900   36.5490   41.7300 F   0  0  0  0  0  0  0  0  0  0  0  0
   45.1780   34.8340   40.9470 F   0  0  0  0  0  0  0  0  0  0  0  0
   46.8410   30.5800   44.9000 C   0  0  0  0  0  0  0  0  0  0  0  0
   46.5070   29.8060   43.8340 C   0  0  0  0  0  0  0  0  0  0  0  0
   47.6830   29.4470   43.1630 C   0  0  0  0  0  0  0  0  0  0  0  0
   48.6680   30.0190   43.8550 N   0  0  0  0  0  0  0  0  0  0  0  0
   48.2000   30.6890   44.8800 N   0  0  0  0  0  0  0  0  0  0  0  0
   45.4530   29.6060   43.6820 H   0  0  0  0  0  0  0  0  0  0  0  0
   47.6390   28.8280   42.2790 H   0  0  0  0  0  0  0  0  0  0  0  0
   50.0670   29.8680   43.4550 C   0  0  0  0  0  0  0  0  0  0  0  0
   51.1870   29.5870   44.0720 C   0  0  0  0  0  3  0  0  0  0  0  0
   52.3600   29.5240   43.3720 C   0  0  0  0  0  3  0  0  0  0  0  0
   52.2800   29.7700   42.0110 C   0  0  0  0  0  3  0  0  0  0  0  0
   50.4250   30.1000   41.7810 S   0  0  0  0  0  0  0  0  0  0  0  0
  1  8  1  0  0  0  0
  1  6  1  0  0  0  0
  2  1  2  0  0  0  0
  3  2  1  0  0  0  0
  3  4  2  0  0  0  0
  4  5  1  0  0  0  0
  5  6  2  0  0  0  0
  5  7  1  0  0  0  0
  7  9  1  0  0  0  0
  7 10  1  0  0  0  0
 11 12  1  0  0  0  0
 11 17  1  1  0  0  0
 11  2  1  0  0  0  0
 12 18  1  0  0  0  0
 13 19  1  0  0  0  0
 13 12  2  0  0  0  0
 14 20  1  6  0  0  0
 14 13  1  0  0  0  0
 15 14  1  0  0  0  0
 15 21  1  0  0  0  0
 15 16  1  0  0  0  0
 16 11  1  0  0  0  0
 22 15  1  0  0  0  0
 23 16  1  0  0  0  0
 24 16  1  0  0  0  0
 25 26  1  0  0  0  0
 25 14  1  0  0  0  0
 27 25  1  0  0  0  0
 28 25  1  0  0  0  0
 29  3  1  0  0  0  0
 30 29  1  0  0  0  0
 31 30  2  0  0  0  0
 31 32  1  0  0  0  0
 32 33  1  0  0  0  0
 33 29  2  0  0  0  0
 34 30  1  0  0  0  0
 35 31  1  0  0  0  0
 36 32  1  0  0  0  0
 36 37  2  0  0  0  0
 38 37  1  0  0  0  0
 39 38  2  0  0  0  0
 40 39  1  0  0  0  0
 40 36  1  0  0  0  0
M  END
>  <minimizedAffinity>
-5.74026299

>  <minimizedRMSD>
0.392737091

$$$$
