
 OpenBabel03232519253D

 23 23  0  0  0  0  0  0  0  0999 V2000
   46.4640   33.9210   42.2690 C   0  0  0  0  0  0  0  0  0  0  0  0
   45.6850   33.3620   41.6760 H   0  0  0  0  0  0  0  0  0  0  0  0
   46.9220   34.7320   41.7110 H   0  0  0  0  0  0  0  0  0  0  0  0
   45.2250   35.7050   43.4530 C   0  0  0  0  0  0  0  0  0  0  0  0
   45.8110   34.4140   43.4620 C   0  0  0  0  0  0  0  0  0  0  0  0
   45.7130   33.6970   44.6500 C   0  0  0  0  0  0  0  0  0  0  0  0
   45.0720   34.2620   45.7180 N   0  0  0  0  0  0  0  0  0  0  0  0
   44.5290   35.5010   45.6530 C   0  0  0  0  0  0  0  0  0  0  0  0
   44.6070   36.2210   44.5180 N   0  0  0  0  0  0  0  0  0  0  0  0
   45.2500   36.3410   42.5720 H   0  0  0  0  0  0  0  0  0  0  0  0
   46.1440   32.7060   44.7100 H   0  0  0  0  0  0  0  0  0  0  0  0
   44.0560   35.8210   46.5660 H   0  0  0  0  0  0  0  0  0  0  0  0
   47.4860   32.8710   42.6880 C   0  0  0  0  0  0  0  0  0  0  0  0
   47.7990   32.3760   41.7270 H   0  0  0  0  0  0  0  0  0  0  0  0
   46.9650   32.1160   43.3050 H   0  0  0  0  0  0  0  0  0  0  0  0
   48.5950   33.5000   43.3710 N   0  0  0  0  0  0  0  0  0  0  0  0
   49.6250   34.0700   42.5770 C   0  0  0  0  0  0  0  0  0  0  0  0
   49.9700   33.5250   41.4400 N   0  0  0  0  0  0  0  0  0  0  0  0
   50.3420   35.2570   42.9560 N   0  0  0  0  0  0  0  0  0  0  0  0
   48.7410   33.5920   44.4200 H   0  0  0  0  0  0  0  0  0  0  0  0
   49.4990   32.6620   41.0920 H   0  0  0  0  0  0  0  0  0  0  0  0
   50.8170   35.6600   43.7790 H   0  0  0  0  0  0  0  0  0  0  0  0
   50.4680   35.9940   42.2340 H   0  0  0  0  0  0  0  0  0  0  0  0
  1 13  1  0  0  0  0
  1  5  1  0  0  0  0
  2  1  1  0  0  0  0
  3  1  1  0  0  0  0
  4  5  2  0  0  0  0
  4  9  1  0  0  0  0
  5  6  1  0  0  0  0
  6 11  1  0  0  0  0
  6  7  2  0  0  0  0
  8  7  1  0  0  0  0
  8 12  1  0  0  0  0
  9  8  2  0  0  0  0
 10  4  1  0  0  0  0
 13 15  1  0  0  0  0
 13 16  1  0  0  0  0
 14 13  1  0  0  0  0
 16 20  1  0  0  0  0
 17 19  1  0  0  0  0
 17 16  1  0  0  0  0
 18 17  2  0  0  0  0
 19 22  1  0  0  0  0
 21 18  1  0  0  0  0
 23 19  1  0  0  0  0
M  END
>  <minimizedAffinity>
-4.33655071

>  <minimizedRMSD>
2.43039441

$$$$
