
 OpenBabel03232520583D

 42 45  0  0  1  0  0  0  0  0999 V2000
   45.3480   32.8690   47.4750 C   0  0  0  0  0  0  0  0  0  0  0  0
   45.9080   32.6270   46.2640 C   0  0  0  0  0  0  0  0  0  0  0  0
   46.1930   31.2840   46.0090 C   0  0  0  0  0  0  0  0  0  0  0  0
   45.9370   30.2810   46.8860 N   0  0  0  0  0  0  0  0  0  0  0  0
   45.3610   30.5880   48.1120 C   0  0  0  0  0  0  0  0  0  0  0  0
   45.0840   31.8540   48.3720 N   0  0  0  0  0  0  0  0  0  0  0  0
   45.1180   29.5590   49.0610 N   0  0  0  0  0  0  0  0  0  0  0  0
   45.0920   33.8740   47.7740 H   0  0  0  0  0  0  0  0  0  0  0  0
   44.1620   29.3670   49.4760 H   0  0  0  0  0  0  0  0  0  0  0  0
   45.8890   28.9380   49.3950 H   0  0  0  0  0  0  0  0  0  0  0  0
   46.1540   33.5890   45.2430 C   0  0  2  0  0  0  0  0  0  0  0  0
   44.9450   34.6830   45.4930 C   0  0  0  0  0  0  0  0  0  0  0  0
   44.7180   35.6310   44.4370 C   0  0  0  0  0  0  0  0  0  0  0  0
   45.5130   35.5700   43.2080 C   0  0  1  0  0  0  0  0  0  0  0  0
   46.5640   34.5660   43.1430 C   0  0  0  0  0  0  0  0  0  0  0  0
   46.1160   33.3220   43.8770 C   0  0  0  0  0  0  0  0  0  0  0  0
   46.9270   34.3400   45.5910 H   0  0  0  0  0  0  0  0  0  0  0  0
   44.2710   34.8220   46.3260 H   0  0  0  0  0  0  0  0  0  0  0  0
   43.9530   36.3510   44.5610 H   0  0  0  0  0  0  0  0  0  0  0  0
   45.9390   36.5780   43.0200 H   0  0  0  0  0  0  0  0  0  0  0  0
   47.5480   34.9050   43.5520 H   0  0  0  0  0  0  0  0  0  0  0  0
   46.7880   34.3640   42.0540 H   0  0  0  0  0  0  0  0  0  0  0  0
   46.9610   32.6730   43.5270 H   0  0  0  0  0  0  0  0  0  0  0  0
   45.1560   32.9880   43.4280 H   0  0  0  0  0  0  0  0  0  0  0  0
   44.4900   35.3190   42.0590 C   0  0  0  0  0  0  0  0  0  0  0  0
   43.4140   34.5440   42.4580 F   0  0  0  0  0  0  0  0  0  0  0  0
   43.9730   36.5680   41.7200 F   0  0  0  0  0  0  0  0  0  0  0  0
   45.1490   34.8410   40.9440 F   0  0  0  0  0  0  0  0  0  0  0  0
   46.8460   30.6060   44.9010 C   0  0  0  0  0  0  0  0  0  0  0  0
   46.5130   29.8230   43.8440 C   0  0  0  0  0  0  0  0  0  0  0  0
   47.6940   29.4720   43.1760 C   0  0  0  0  0  0  0  0  0  0  0  0
   48.6780   30.0570   43.8590 N   0  0  0  0  0  0  0  0  0  0  0  0
   48.2040   30.7310   44.8790 N   0  0  0  0  0  0  0  0  0  0  0  0
   45.4700   29.6090   43.6920 H   0  0  0  0  0  0  0  0  0  0  0  0
   47.6650   28.8540   42.3070 H   0  0  0  0  0  0  0  0  0  0  0  0
   50.0650   29.9330   43.4810 C   0  0  0  0  0  0  0  0  0  0  0  0
   50.5030   30.2920   42.2270 C   0  0  0  0  0  3  0  0  0  0  0  0
   51.8190   30.1890   41.8250 C   0  0  0  0  0  3  0  0  0  0  0  0
   52.7050   29.7120   42.7190 N   0  0  0  0  0  0  0  0  0  0  0  0
   52.2760   29.3570   43.9570 C   0  0  0  0  0  0  0  0  0  0  0  0
   53.0550   28.9920   44.5850 H   0  0  0  0  0  0  0  0  0  0  0  0
   50.9840   29.4580   44.3490 N   0  0  0  0  0  0  0  0  0  0  0  0
  1  8  1  0  0  0  0
  1  6  1  0  0  0  0
  2  1  2  0  0  0  0
  3  2  1  0  0  0  0
  3  4  2  0  0  0  0
  4  5  1  0  0  0  0
  5  6  2  0  0  0  0
  5  7  1  0  0  0  0
  7 10  1  0  0  0  0
  7  9  1  0  0  0  0
 11 12  1  0  0  0  0
 11 17  1  1  0  0  0
 11  2  1  0  0  0  0
 12 18  1  0  0  0  0
 13 19  1  0  0  0  0
 13 12  2  0  0  0  0
 14 20  1  6  0  0  0
 14 13  1  0  0  0  0
 15 14  1  0  0  0  0
 15 21  1  0  0  0  0
 15 16  1  0  0  0  0
 16 11  1  0  0  0  0
 22 15  1  0  0  0  0
 23 16  1  0  0  0  0
 24 16  1  0  0  0  0
 25 26  1  0  0  0  0
 25 14  1  0  0  0  0
 27 25  1  0  0  0  0
 28 25  1  0  0  0  0
 29  3  1  0  0  0  0
 30 29  1  0  0  0  0
 31 30  2  0  0  0  0
 31 32  1  0  0  0  0
 32 33  1  0  0  0  0
 33 29  2  0  0  0  0
 34 30  1  0  0  0  0
 35 31  1  0  0  0  0
 36 32  1  0  0  0  0
 36 42  1  0  0  0  0
 37 36  2  0  0  0  0
 38 37  1  0  0  0  0
 38 39  2  0  0  0  0
 39 40  1  0  0  0  0
 40 42  2  0  0  0  0
 40 41  1  0  0  0  0
M  END
>  <minimizedAffinity>
-5.81307459

>  <minimizedRMSD>
0.343686253

$$$$
