
 OpenBabel03232521003D

 42 45  0  0  1  0  0  0  0  0999 V2000
   45.3380   32.9020   47.5030 C   0  0  0  0  0  0  0  0  0  0  0  0
   45.9000   32.6440   46.2960 C   0  0  0  0  0  0  0  0  0  0  0  0
   46.1810   31.2960   46.0580 C   0  0  0  0  0  0  0  0  0  0  0  0
   45.9200   30.3050   46.9470 N   0  0  0  0  0  0  0  0  0  0  0  0
   45.3430   30.6290   48.1670 C   0  0  0  0  0  0  0  0  0  0  0  0
   45.0700   31.8990   48.4120 N   0  0  0  0  0  0  0  0  0  0  0  0
   45.0950   29.6130   49.1290 N   0  0  0  0  0  0  0  0  0  0  0  0
   45.0850   33.9110   47.7880 H   0  0  0  0  0  0  0  0  0  0  0  0
   44.1370   29.4280   49.5440 H   0  0  0  0  0  0  0  0  0  0  0  0
   45.8640   28.9930   49.4720 H   0  0  0  0  0  0  0  0  0  0  0  0
   46.1510   33.5920   45.2640 C   0  0  2  0  0  0  0  0  0  0  0  0
   44.9460   34.6930   45.4980 C   0  0  0  0  0  0  0  0  0  0  0  0
   44.7230   35.6290   44.4300 C   0  0  0  0  0  0  0  0  0  0  0  0
   45.5200   35.5500   43.2030 C   0  0  1  0  0  0  0  0  0  0  0  0
   46.5680   34.5410   43.1530 C   0  0  0  0  0  0  0  0  0  0  0  0
   46.1140   33.3080   43.9010 C   0  0  0  0  0  0  0  0  0  0  0  0
   46.9260   34.3440   45.6030 H   0  0  0  0  0  0  0  0  0  0  0  0
   44.2700   34.8440   46.3280 H   0  0  0  0  0  0  0  0  0  0  0  0
   43.9610   36.3530   44.5440 H   0  0  0  0  0  0  0  0  0  0  0  0
   45.9500   36.5540   43.0030 H   0  0  0  0  0  0  0  0  0  0  0  0
   47.5520   34.8830   43.5590 H   0  0  0  0  0  0  0  0  0  0  0  0
   46.7930   34.3250   42.0660 H   0  0  0  0  0  0  0  0  0  0  0  0
   46.9580   32.6530   43.5600 H   0  0  0  0  0  0  0  0  0  0  0  0
   45.1540   32.9720   43.4540 H   0  0  0  0  0  0  0  0  0  0  0  0
   44.4980   35.2890   42.0550 C   0  0  0  0  0  0  0  0  0  0  0  0
   43.4360   34.4940   42.4530 F   0  0  0  0  0  0  0  0  0  0  0  0
   43.9600   36.5300   41.7250 F   0  0  0  0  0  0  0  0  0  0  0  0
   45.1620   34.8260   40.9360 F   0  0  0  0  0  0  0  0  0  0  0  0
   46.8340   30.6030   44.9600 C   0  0  0  0  0  0  0  0  0  0  0  0
   46.5010   29.8080   43.9110 C   0  0  0  0  0  0  0  0  0  0  0  0
   47.6820   29.4450   43.2500 C   0  0  0  0  0  0  0  0  0  0  0  0
   48.6670   30.0350   43.9280 N   0  0  0  0  0  0  0  0  0  0  0  0
   48.1930   30.7230   44.9390 N   0  0  0  0  0  0  0  0  0  0  0  0
   45.4570   29.5960   43.7600 H   0  0  0  0  0  0  0  0  0  0  0  0
   47.6530   28.8160   42.3890 H   0  0  0  0  0  0  0  0  0  0  0  0
   50.0540   29.9020   43.5550 C   0  0  0  0  0  0  0  0  0  0  0  0
   50.9570   29.2470   44.3650 C   0  0  0  0  0  3  0  0  0  0  0  0
   52.2910   29.0980   44.0470 C   0  0  0  0  0  3  0  0  0  0  0  0
   52.7130   29.6250   42.8820 N   0  0  0  0  0  0  0  0  0  0  0  0
   51.8270   30.2710   42.0820 C   0  0  0  0  0  0  0  0  0  0  0  0
   52.2630   30.6500   41.1880 H   0  0  0  0  0  0  0  0  0  0  0  0
   50.5170   30.4170   42.3960 N   0  0  0  0  0  0  0  0  0  0  0  0
  1  8  1  0  0  0  0
  1  6  1  0  0  0  0
  2  1  2  0  0  0  0
  3  2  1  0  0  0  0
  3  4  2  0  0  0  0
  4  5  1  0  0  0  0
  5  6  2  0  0  0  0
  5  7  1  0  0  0  0
  7 10  1  0  0  0  0
  7  9  1  0  0  0  0
 11 12  1  0  0  0  0
 11 17  1  1  0  0  0
 11  2  1  0  0  0  0
 12 18  1  0  0  0  0
 13 19  1  0  0  0  0
 13 12  2  0  0  0  0
 14 20  1  6  0  0  0
 14 13  1  0  0  0  0
 15 14  1  0  0  0  0
 15 21  1  0  0  0  0
 15 16  1  0  0  0  0
 16 11  1  0  0  0  0
 22 15  1  0  0  0  0
 23 16  1  0  0  0  0
 24 16  1  0  0  0  0
 25 26  1  0  0  0  0
 25 14  1  0  0  0  0
 27 25  1  0  0  0  0
 28 25  1  0  0  0  0
 29  3  1  0  0  0  0
 30 29  1  0  0  0  0
 31 30  2  0  0  0  0
 31 32  1  0  0  0  0
 32 33  1  0  0  0  0
 33 29  2  0  0  0  0
 34 30  1  0  0  0  0
 35 31  1  0  0  0  0
 36 32  1  0  0  0  0
 36 37  1  0  0  0  0
 38 37  2  0  0  0  0
 39 38  1  0  0  0  0
 40 42  1  0  0  0  0
 40 39  2  0  0  0  0
 41 40  1  0  0  0  0
 42 36  2  0  0  0  0
M  END
>  <minimizedAffinity>
-5.81764841

>  <minimizedRMSD>
0.688139379

$$$$
