REMARK  Name = 
REMARK  4 active torsions:
REMARK  status: ('A' for Active; 'I' for Inactive)
REMARK    1  A    between atoms: C_1  and  C_8
REMARK    2  A    between atoms: C_4  and  C_19
REMARK    3  A    between atoms: C_9  and  C_14
REMARK    4  A    between atoms: N_17  and  C_36
REMARK                            x       y       z     vdW  Elec       q    Type
REMARK                         _______ _______ _______ _____ _____    ______ ____
ROOT
ATOM      1  C   UNL     1      45.391  32.881  47.528  0.00  0.00    +0.000 A 
ATOM      2  C   UNL     1      45.910  32.633  46.300  0.00  0.00    +0.000 A 
ATOM      3  C   UNL     1      46.150  31.284  46.028  0.00  0.00    +0.000 A 
ATOM      4  N   UNL     1      45.890  30.282  46.905  0.00  0.00    +0.000 NA
ATOM      5  C   UNL     1      45.358  30.596  48.148  0.00  0.00    +0.000 A 
ATOM      6  N   UNL     1      45.124  31.867  48.425  0.00  0.00    +0.000 NA
ATOM      7  N   UNL     1      45.112  29.567  49.097  0.00  0.00    +0.000 N 
ATOM      8  H   UNL     1      45.172  33.890  47.840  0.00  0.00    +0.000 HD
ATOM      9  H   UNL     1      44.163  29.398  49.537  0.00  0.00    +0.000 HD
ATOM     10  H   UNL     1      45.875  28.922  49.405  0.00  0.00    +0.000 HD
ENDROOT
BRANCH   2  11
ATOM     11  C   UNL     1      46.154  33.595  45.279  0.00  0.00    +0.000 C 
ATOM     12  C   UNL     1      44.914  34.660  45.496  0.00  0.00    +0.000 C 
ATOM     13  C   UNL     1      44.686  35.597  44.430  0.00  0.00    +0.000 C 
ATOM     14  C   UNL     1      45.509  35.549  43.219  0.00  0.00    +0.000 C 
ATOM     15  C   UNL     1      46.586  34.571  43.183  0.00  0.00    +0.000 C 
ATOM     16  C   UNL     1      46.153  33.320  43.914  0.00  0.00    +0.000 C 
ATOM     17  H   UNL     1      46.901  34.367  45.639  0.00  0.00    +0.000 HD
ATOM     18  H   UNL     1      44.218  34.786  46.313  0.00  0.00    +0.000 HD
ATOM     19  H   UNL     1      43.901  36.298  44.533  0.00  0.00    +0.000 HD
ATOM     20  H   UNL     1      45.914  36.566  43.034  0.00  0.00    +0.000 HD
ATOM     21  H   UNL     1      47.552  34.937  43.611  0.00  0.00    +0.000 HD
ATOM     22  H   UNL     1      46.839  34.369  42.100  0.00  0.00    +0.000 HD
ATOM     23  H   UNL     1      47.021  32.691  43.586  0.00  0.00    +0.000 HD
ATOM     24  H   UNL     1      45.212  32.960  43.446  0.00  0.00    +0.000 HD
BRANCH  14  25
ATOM     25  C   UNL     1      44.518  35.267  42.049  0.00  0.00    +0.000 C 
ATOM     26  F   UNL     1      43.462  34.454  42.425  0.00  0.00    +0.000 F 
ATOM     27  F   UNL     1      43.965  36.498  41.704  0.00  0.00    +0.000 F 
ATOM     28  F   UNL     1      45.215  34.815  40.946  0.00  0.00    +0.000 F 
ENDBRANCH  14  25
ENDBRANCH   2  11
BRANCH   3  29
ATOM     29  C   UNL     1      46.752  30.597  44.897  0.00  0.00    +0.000 A 
ATOM     30  C   UNL     1      46.362  29.919  43.788  0.00  0.00    +0.000 A 
ATOM     31  C   UNL     1      47.513  29.468  43.128  0.00  0.00    +0.000 A 
ATOM     32  N   UNL     1      48.538  29.894  43.867  0.00  0.00    +0.000 N 
ATOM     33  N   UNL     1      48.116  30.561  44.914  0.00  0.00    +0.000 NA
ATOM     34  H   UNL     1      45.306  29.838  43.600  0.00  0.00    +0.000 HD
ATOM     35  H   UNL     1      47.439  28.907  42.224  0.00  0.00    +0.000 HD
BRANCH  32  36
ATOM     36  C   UNL     1      49.912  29.628  43.515  0.00  0.00    +0.000 A 
ATOM     37  C   UNL     1      50.258  28.546  42.736  0.00  0.00    +0.000 A 
ATOM     38  C   UNL     1      51.558  28.255  42.377  0.00  0.00    +0.000 A 
ATOM     39  N   UNL     1      52.523  29.082  42.820  0.00  0.00    +0.000 NA
ATOM     40  C   UNL     1      52.186  30.149  43.589  0.00  0.00    +0.000 A 
ATOM     41  H   UNL     1      53.023  30.737  43.886  0.00  0.00    +0.000 HD
ATOM     42  N   UNL     1      50.909  30.433  43.940  0.00  0.00    +0.000 NA
ENDBRANCH  32  36
ENDBRANCH   3  29
TORSDOF 4
