
 OpenBabel03232520083D

 20 21  0  0  0  0  0  0  0  0999 V2000
   45.8710   33.2930   46.1760 C   0  0  0  0  0  0  0  0  0  0  0  0
   45.2680   33.1280   47.4060 C   0  0  0  0  0  0  0  0  0  0  0  0
   45.7000   32.1480   48.2440 C   0  0  0  0  0  0  0  0  0  0  0  0
   46.7580   31.3690   47.7580 C   0  0  0  0  0  0  0  0  0  0  0  0
   47.1150   32.0370   46.1360 S   0  0  0  0  0  0  0  0  0  0  0  0
   44.4430   33.8030   47.6770 H   0  0  0  0  0  0  0  0  0  0  0  0
   45.3150   31.9340   49.2020 H   0  0  0  0  0  0  0  0  0  0  0  0
   44.4280   36.1450   44.3590 C   0  0  0  0  0  0  0  0  0  0  0  0
   45.0840   36.0290   43.1110 C   0  0  0  0  0  0  0  0  0  0  0  0
   46.0090   34.9700   42.9230 C   0  0  0  0  0  0  0  0  0  0  0  0
   46.2180   34.1120   43.9670 N   0  0  0  0  0  0  0  0  0  0  0  0
   45.5730   34.2570   45.1430 C   0  0  0  0  0  0  0  0  0  0  0  0
   44.6910   35.2600   45.3330 N   0  0  0  0  0  0  0  0  0  0  0  0
   43.7300   36.9550   44.4840 H   0  0  0  0  0  0  0  0  0  0  0  0
   44.9150   36.7190   42.2740 H   0  0  0  0  0  0  0  0  0  0  0  0
   46.5340   34.8420   41.9870 H   0  0  0  0  0  0  0  0  0  0  0  0
   47.4350   30.2460   48.4300 C   0  0  0  0  0  0  0  0  0  0  0  0
   47.5760   29.1450   47.8400 O   0  0  0  0  0  0  0  0  0  0  0  0
   47.8850   30.5010   49.7180 O   0  0  0  0  0  0  0  0  0  0  0  0
   48.2810   29.7430   50.2620 H   0  0  0  0  0  0  0  0  0  0  0  0
  1  2  2  0  0  0  0
  2  6  1  0  0  0  0
  2  3  1  0  0  0  0
  3  7  1  0  0  0  0
  4  3  2  0  0  0  0
  4 17  1  0  0  0  0
  5  1  1  0  0  0  0
  5  4  1  0  0  0  0
  8 14  1  0  0  0  0
  8 13  1  0  0  0  0
  9  8  2  0  0  0  0
 10  9  1  0  0  0  0
 10 11  2  0  0  0  0
 11 12  1  0  0  0  0
 12 13  2  0  0  0  0
 12  1  1  0  0  0  0
 15  9  1  0  0  0  0
 16 10  1  0  0  0  0
 17 19  1  0  0  0  0
 18 17  2  0  0  0  0
 19 20  1  0  0  0  0
M  END
>  <minimizedAffinity>
-4.64093018

>  <minimizedRMSD>
0.819685817

$$$$
