
 OpenBabel03232520593D

 42 45  0  0  1  0  0  0  0  0999 V2000
   45.3320   32.9090   47.5050 C   0  0  0  0  0  0  0  0  0  0  0  0
   45.8970   32.6490   46.3000 C   0  0  0  0  0  0  0  0  0  0  0  0
   46.1820   31.3020   46.0660 C   0  0  0  0  0  0  0  0  0  0  0  0
   45.9200   30.3120   46.9560 N   0  0  0  0  0  0  0  0  0  0  0  0
   45.3400   30.6370   48.1740 C   0  0  0  0  0  0  0  0  0  0  0  0
   45.0630   31.9070   48.4150 N   0  0  0  0  0  0  0  0  0  0  0  0
   45.0900   29.6220   49.1370 N   0  0  0  0  0  0  0  0  0  0  0  0
   45.0760   33.9180   47.7870 H   0  0  0  0  0  0  0  0  0  0  0  0
   44.1320   29.4370   49.5500 H   0  0  0  0  0  0  0  0  0  0  0  0
   45.8590   29.0050   49.4830 H   0  0  0  0  0  0  0  0  0  0  0  0
   46.1490   33.5960   45.2660 C   0  0  2  0  0  0  0  0  0  0  0  0
   44.9440   34.6970   45.4970 C   0  0  0  0  0  0  0  0  0  0  0  0
   44.7220   35.6310   44.4280 C   0  0  0  0  0  0  0  0  0  0  0  0
   45.5200   35.5500   43.2020 C   0  0  1  0  0  0  0  0  0  0  0  0
   46.5690   34.5420   43.1540 C   0  0  0  0  0  0  0  0  0  0  0  0
   46.1140   33.3100   43.9040 C   0  0  0  0  0  0  0  0  0  0  0  0
   46.9240   34.3490   45.6060 H   0  0  0  0  0  0  0  0  0  0  0  0
   44.2670   34.8490   46.3260 H   0  0  0  0  0  0  0  0  0  0  0  0
   43.9590   36.3550   44.5390 H   0  0  0  0  0  0  0  0  0  0  0  0
   45.9500   36.5540   43.0010 H   0  0  0  0  0  0  0  0  0  0  0  0
   47.5520   34.8840   43.5610 H   0  0  0  0  0  0  0  0  0  0  0  0
   46.7950   34.3240   42.0690 H   0  0  0  0  0  0  0  0  0  0  0  0
   46.9580   32.6540   43.5650 H   0  0  0  0  0  0  0  0  0  0  0  0
   45.1550   32.9730   43.4570 H   0  0  0  0  0  0  0  0  0  0  0  0
   44.5000   35.2870   42.0530 C   0  0  0  0  0  0  0  0  0  0  0  0
   43.4380   34.4920   42.4510 F   0  0  0  0  0  0  0  0  0  0  0  0
   43.9610   36.5280   41.7210 F   0  0  0  0  0  0  0  0  0  0  0  0
   45.1650   34.8240   40.9350 F   0  0  0  0  0  0  0  0  0  0  0  0
   46.8390   30.6080   44.9700 C   0  0  0  0  0  0  0  0  0  0  0  0
   46.5080   29.8210   43.9150 C   0  0  0  0  0  0  0  0  0  0  0  0
   47.6920   29.4490   43.2630 C   0  0  0  0  0  0  0  0  0  0  0  0
   48.6760   30.0280   43.9530 N   0  0  0  0  0  0  0  0  0  0  0  0
   48.1990   30.7150   44.9630 N   0  0  0  0  0  0  0  0  0  0  0  0
   45.4650   29.6180   43.7530 H   0  0  0  0  0  0  0  0  0  0  0  0
   47.6660   28.8250   42.3990 H   0  0  0  0  0  0  0  0  0  0  0  0
   50.0660   29.8830   43.5930 C   0  0  0  0  0  0  0  0  0  0  0  0
   50.5580   30.3950   42.4140 C   0  0  0  0  0  3  0  0  0  0  0  0
   51.8790   30.2810   42.0300 C   0  0  0  0  0  3  0  0  0  0  0  0
   52.7120   29.6320   42.8650 N   0  0  0  0  0  0  0  0  0  0  0  0
   52.2290   29.1270   44.0280 C   0  0  0  0  0  0  0  0  0  0  0  0
   52.9710   28.6340   44.6140 H   0  0  0  0  0  0  0  0  0  0  0  0
   50.9330   29.2400   44.4030 N   0  0  0  0  0  0  0  0  0  0  0  0
  1  8  1  0  0  0  0
  1  6  1  0  0  0  0
  2  1  2  0  0  0  0
  3  2  1  0  0  0  0
  3  4  2  0  0  0  0
  4  5  1  0  0  0  0
  5  6  2  0  0  0  0
  5  7  1  0  0  0  0
  7 10  1  0  0  0  0
  7  9  1  0  0  0  0
 11 12  1  0  0  0  0
 11 17  1  1  0  0  0
 11  2  1  0  0  0  0
 12 18  1  0  0  0  0
 13 19  1  0  0  0  0
 13 12  2  0  0  0  0
 14 20  1  6  0  0  0
 14 13  1  0  0  0  0
 15 14  1  0  0  0  0
 15 21  1  0  0  0  0
 15 16  1  0  0  0  0
 16 11  1  0  0  0  0
 22 15  1  0  0  0  0
 23 16  1  0  0  0  0
 24 16  1  0  0  0  0
 25 26  1  0  0  0  0
 25 14  1  0  0  0  0
 27 25  1  0  0  0  0
 28 25  1  0  0  0  0
 29  3  1  0  0  0  0
 30 29  1  0  0  0  0
 31 30  2  0  0  0  0
 31 32  1  0  0  0  0
 32 33  1  0  0  0  0
 33 29  2  0  0  0  0
 34 30  1  0  0  0  0
 35 31  1  0  0  0  0
 36 32  1  0  0  0  0
 36 42  1  0  0  0  0
 37 36  2  0  0  0  0
 38 37  1  0  0  0  0
 38 39  2  0  0  0  0
 39 40  1  0  0  0  0
 40 42  2  0  0  0  0
 40 41  1  0  0  0  0
M  END
>  <minimizedAffinity>
-5.81710672

>  <minimizedRMSD>
0.337448567

$$$$
