
 OpenBabel03232518363D

 41 43  0  0  1  0  0  0  0  0999 V2000
   43.7630   35.1300   41.5110 C   0  0  0  0  0  0  0  0  0  0  0  0
   45.0020   34.6080   41.1110 C   0  0  0  0  0  0  0  0  0  0  0  0
   46.0190   34.6610   42.0830 C   0  0  0  0  0  0  0  0  0  0  0  0
   45.7600   35.1970   43.3240 N   0  0  0  0  0  0  0  0  0  0  0  0
   44.5170   35.6880   43.6380 C   0  0  0  0  0  0  0  0  0  0  0  0
   43.5400   35.6430   42.7160 N   0  0  0  0  0  0  0  0  0  0  0  0
   45.1950   34.1960   40.1540 H   0  0  0  0  0  0  0  0  0  0  0  0
   44.3740   36.0960   44.6260 H   0  0  0  0  0  0  0  0  0  0  0  0
   47.3940   34.1250   41.8020 C   0  0  0  0  0  0  0  0  0  0  0  0
   48.2490   35.2130   41.1330 C   0  0  0  0  0  0  0  0  0  0  0  0
   49.3810   35.6720   41.9800 C   0  0  0  0  0  0  0  0  0  0  0  0
   50.2530   34.5540   42.4750 C   0  0  0  0  0  0  0  0  0  0  0  0
   49.4990   33.2500   42.5700 C   0  0  0  0  0  0  0  0  0  0  0  0
   48.0800   33.5720   42.9960 C   0  0  0  0  0  0  0  0  0  0  0  0
   47.2690   33.3410   41.0250 H   0  0  0  0  0  0  0  0  0  0  0  0
   48.6770   34.8550   40.1680 H   0  0  0  0  0  0  0  0  0  0  0  0
   47.5920   36.0740   40.9530 H   0  0  0  0  0  0  0  0  0  0  0  0
   49.9520   36.4010   41.4050 H   0  0  0  0  0  0  0  0  0  0  0  0
   48.9620   36.1890   42.8890 H   0  0  0  0  0  0  0  0  0  0  0  0
   50.6830   34.8380   43.4560 H   0  0  0  0  0  0  0  0  0  0  0  0
   51.0860   34.4550   41.7230 H   0  0  0  0  0  0  0  0  0  0  0  0
   49.4490   32.7970   41.5800 H   0  0  0  0  0  0  0  0  0  0  0  0
   49.9870   32.5650   43.2960 H   0  0  0  0  0  0  0  0  0  0  0  0
   47.5890   32.6530   43.3400 H   0  0  0  0  0  0  0  0  0  0  0  0
   48.0710   34.3160   43.8290 H   0  0  0  0  0  0  0  0  0  0  0  0
   42.6350   35.1220   40.5410 C   0  0  1  0  0  0  0  0  0  0  0  0
   42.8730   34.2890   39.3280 C   0  0  0  0  0  0  0  0  0  0  0  0
   41.7080   33.3010   39.2600 C   0  0  0  0  0  0  0  0  0  0  0  0
   41.3390   33.1660   40.7250 C   0  0  0  0  0  0  0  0  0  0  0  0
   41.3750   34.5640   41.2250 C   0  0  2  0  0  0  0  0  0  0  0  0
   42.4590   36.1980   40.2620 H   0  0  0  0  0  0  0  0  0  0  0  0
   42.8720   34.8800   38.3760 H   0  0  0  0  0  0  0  0  0  0  0  0
   43.7820   33.6450   39.4290 H   0  0  0  0  0  0  0  0  0  0  0  0
   42.0390   32.3250   38.8580 H   0  0  0  0  0  0  0  0  0  0  0  0
   40.8490   33.7220   38.7310 H   0  0  0  0  0  0  0  0  0  0  0  0
   40.3010   32.7590   40.8180 H   0  0  0  0  0  0  0  0  0  0  0  0
   42.0120   32.4970   41.2760 H   0  0  0  0  0  0  0  0  0  0  0  0
   41.5100   34.6520   42.3190 H   0  0  0  0  0  0  0  0  0  0  0  0
   40.1870   35.3400   40.7810 C   0  0  0  0  0  0  0  0  0  0  0  0
   39.2640   34.8580   40.5520 H   0  0  0  0  0  0  0  0  0  0  0  0
   40.2290   36.5690   40.6610 O   0  0  0  0  0  0  0  0  0  0  0  0
  1  6  1  0  0  0  0
  2  1  2  0  0  0  0
  2  3  1  0  0  0  0
  3  4  2  0  0  0  0
  4  5  1  0  0  0  0
  5  8  1  0  0  0  0
  6  5  2  0  0  0  0
  7  2  1  0  0  0  0
  9  3  1  0  0  0  0
  9 14  1  0  0  0  0
 10  9  1  0  0  0  0
 10 11  1  0  0  0  0
 11 12  1  0  0  0  0
 11 19  1  0  0  0  0
 12 13  1  0  0  0  0
 12 20  1  0  0  0  0
 13 14  1  0  0  0  0
 13 23  1  0  0  0  0
 14 24  1  0  0  0  0
 14 25  1  0  0  0  0
 15  9  1  0  0  0  0
 16 10  1  0  0  0  0
 17 10  1  0  0  0  0
 18 11  1  0  0  0  0
 21 12  1  0  0  0  0
 22 13  1  0  0  0  0
 26 31  1  6  0  0  0
 26 30  1  0  0  0  0
 26  1  1  0  0  0  0
 27 33  1  0  0  0  0
 27 26  1  0  0  0  0
 28 27  1  0  0  0  0
 28 29  1  0  0  0  0
 29 36  1  0  0  0  0
 29 30  1  0  0  0  0
 29 37  1  0  0  0  0
 30 38  1  1  0  0  0
 32 27  1  0  0  0  0
 34 28  1  0  0  0  0
 35 28  1  0  0  0  0
 39 30  1  0  0  0  0
 40 39  1  0  0  0  0
 41 39  2  0  0  0  0
M  END
>  <minimizedAffinity>
-5.91577578

>  <minimizedRMSD>
0.51427418

$$$$
