
 OpenBabel03232520493D

 26 27  0  0  1  0  0  0  0  0999 V2000
   45.9790   33.7110   45.5500 C   0  0  2  0  0  0  0  0  0  0  0  0
   44.9040   34.7220   45.8680 C   0  0  0  0  0  0  0  0  0  0  0  0
   44.5030   35.6220   44.8070 C   0  0  0  0  0  0  0  0  0  0  0  0
   45.1350   35.5330   43.4810 C   0  0  1  0  0  0  0  0  0  0  0  0
   46.2350   34.5650   43.3230 C   0  0  0  0  0  0  0  0  0  0  0  0
   45.9220   33.3160   44.1050 C   0  0  0  0  0  0  0  0  0  0  0  0
   46.9570   34.2300   45.7260 H   0  0  0  0  0  0  0  0  0  0  0  0
   44.3450   34.9280   46.7550 H   0  0  0  0  0  0  0  0  0  0  0  0
   43.7530   36.3500   44.9790 H   0  0  0  0  0  0  0  0  0  0  0  0
   45.5430   36.5530   43.2510 H   0  0  0  0  0  0  0  0  0  0  0  0
   47.2450   34.9310   43.5920 H   0  0  0  0  0  0  0  0  0  0  0  0
   46.2900   34.2850   42.2380 H   0  0  0  0  0  0  0  0  0  0  0  0
   44.9320   32.9240   43.8130 H   0  0  0  0  0  0  0  0  0  0  0  0
   46.7240   32.5830   43.8940 H   0  0  0  0  0  0  0  0  0  0  0  0
   45.2450   32.7660   47.7130 C   0  0  0  0  0  0  0  0  0  0  0  0
   45.8960   32.5930   46.4900 C   0  0  0  0  0  0  0  0  0  0  0  0
   46.4500   31.3290   46.2430 C   0  0  0  0  0  0  0  0  0  0  0  0
   46.3410   30.3480   47.1690 N   0  0  0  0  0  0  0  0  0  0  0  0
   45.7000   30.5600   48.3440 C   0  0  0  0  0  0  0  0  0  0  0  0
   45.1540   31.7670   48.6140 N   0  0  0  0  0  0  0  0  0  0  0  0
   44.7760   33.6910   48.0220 H   0  0  0  0  0  0  0  0  0  0  0  0
   46.9620   31.1330   45.3230 H   0  0  0  0  0  0  0  0  0  0  0  0
   45.6870   29.6870   48.9930 H   0  0  0  0  0  0  0  0  0  0  0  0
   44.0700   35.2630   42.4670 C   0  0  0  0  0  0  0  0  0  0  0  0
   43.2560   34.8140   41.9200 H   0  0  0  0  0  0  0  0  0  0  0  0
   43.7570   35.9170   41.4870 O   0  0  0  0  0  0  0  0  0  0  0  0
  1  7  1  1  0  0  0
  1  2  1  0  0  0  0
  1 16  1  0  0  0  0
  2  8  1  0  0  0  0
  3  9  1  0  0  0  0
  3  2  2  0  0  0  0
  4 10  1  6  0  0  0
  4  3  1  0  0  0  0
  5  4  1  0  0  0  0
  5 11  1  0  0  0  0
  5  6  1  0  0  0  0
  6  1  1  0  0  0  0
 12  5  1  0  0  0  0
 13  6  1  0  0  0  0
 14  6  1  0  0  0  0
 15 21  1  0  0  0  0
 15 20  1  0  0  0  0
 16 15  2  0  0  0  0
 17 16  1  0  0  0  0
 17 18  2  0  0  0  0
 18 19  1  0  0  0  0
 19 20  2  0  0  0  0
 19 23  1  0  0  0  0
 22 17  1  0  0  0  0
 24  4  1  0  0  0  0
 25 24  1  0  0  0  0
 26 24  2  0  0  0  0
M  END
>  <minimizedAffinity>
-4.50628901

>  <minimizedRMSD>
0.456580848

$$$$
