
 OpenBabel03232520523D

 29 30  0  0  1  0  0  0  0  0999 V2000
   46.0850   34.1600   44.1780 C   0  0  2  0  0  0  0  0  0  0  0  0
   44.9470   35.1500   44.2460 C   0  0  0  0  0  0  0  0  0  0  0  0
   44.4660   35.6740   42.9920 C   0  0  0  0  0  0  0  0  0  0  0  0
   45.0480   35.2640   41.7300 C   0  0  1  0  0  0  0  0  0  0  0  0
   46.2090   34.3470   41.7860 C   0  0  0  0  0  0  0  0  0  0  0  0
   46.0370   33.3740   42.9150 C   0  0  0  0  0  0  0  0  0  0  0  0
   47.0360   34.7700   44.1600 H   0  0  0  0  0  0  0  0  0  0  0  0
   44.3610   35.5970   45.0230 H   0  0  0  0  0  0  0  0  0  0  0  0
   43.6770   36.3690   42.9240 H   0  0  0  0  0  0  0  0  0  0  0  0
   45.3560   36.1770   41.1640 H   0  0  0  0  0  0  0  0  0  0  0  0
   46.2270   33.7490   40.8400 H   0  0  0  0  0  0  0  0  0  0  0  0
   47.2010   34.8270   41.8350 H   0  0  0  0  0  0  0  0  0  0  0  0
   45.1380   32.7720   42.7810 H   0  0  0  0  0  0  0  0  0  0  0  0
   46.9640   32.7390   42.9060 H   0  0  0  0  0  0  0  0  0  0  0  0
   45.2790   33.7050   46.4470 C   0  0  0  0  0  0  0  0  0  0  0  0
   46.1280   33.3780   45.4040 C   0  0  0  0  0  0  0  0  0  0  0  0
   46.9940   32.2920   45.6150 C   0  0  0  0  0  0  0  0  0  0  0  0
   46.9830   31.6130   46.7860 N   0  0  0  0  0  0  0  0  0  0  0  0
   46.1300   31.9710   47.7910 C   0  0  0  0  0  0  0  0  0  0  0  0
   45.2750   33.0180   47.6220 N   0  0  0  0  0  0  0  0  0  0  0  0
   44.5560   34.5080   46.4520 H   0  0  0  0  0  0  0  0  0  0  0  0
   47.6610   32.0100   44.8350 H   0  0  0  0  0  0  0  0  0  0  0  0
   46.1360   31.2320   49.0320 C   0  0  0  0  0  0  0  0  0  0  0  0
   46.9480   30.5880   49.2880 H   0  0  0  0  0  0  0  0  0  0  0  0
   45.1700   31.3480   49.8240 O   0  0  0  0  0  0  0  0  0  0  0  0
   43.9350   34.6420   40.8820 C   0  0  0  0  0  0  0  0  0  0  0  0
   43.0130   33.9450   41.6380 F   0  0  0  0  0  0  0  0  0  0  0  0
   43.2330   35.6890   40.2790 F   0  0  0  0  0  0  0  0  0  0  0  0
   44.4850   33.8790   39.8650 F   0  0  0  0  0  0  0  0  0  0  0  0
  1  7  1  6  0  0  0
  1  2  1  0  0  0  0
  1 16  1  0  0  0  0
  2  8  1  0  0  0  0
  3  2  2  0  0  0  0
  4 10  1  6  0  0  0
  4  5  1  0  0  0  0
  4  3  1  0  0  0  0
  5 12  1  0  0  0  0
  5  6  1  0  0  0  0
  6  1  1  0  0  0  0
  9  3  1  0  0  0  0
 11  5  1  0  0  0  0
 13  6  1  0  0  0  0
 14  6  1  0  0  0  0
 15 21  1  0  0  0  0
 15 20  1  0  0  0  0
 16 17  1  0  0  0  0
 16 15  2  0  0  0  0
 17 18  2  0  0  0  0
 18 19  1  0  0  0  0
 19 23  1  0  0  0  0
 20 19  2  0  0  0  0
 22 17  1  0  0  0  0
 23 24  1  0  0  0  0
 23 25  2  0  0  0  0
 26 27  1  0  0  0  0
 26  4  1  0  0  0  0
 28 26  1  0  0  0  0
 29 26  1  0  0  0  0
M  END
>  <minimizedAffinity>
-4.90609789

>  <minimizedRMSD>
1.45074904

$$$$
