REMARK  Name = 
REMARK  4 active torsions:
REMARK  status: ('A' for Active; 'I' for Inactive)
REMARK    1  A    between atoms: C_1  and  C_8
REMARK    2  A    between atoms: C_4  and  C_19
REMARK    3  A    between atoms: C_9  and  C_14
REMARK    4  A    between atoms: N_17  and  C_36
REMARK                            x       y       z     vdW  Elec       q    Type
REMARK                         _______ _______ _______ _____ _____    ______ ____
ROOT
ATOM      1  C   UNL     1      45.396  32.884  47.527  0.00  0.00    +0.000 A 
ATOM      2  C   UNL     1      45.916  32.636  46.300  0.00  0.00    +0.000 A 
ATOM      3  C   UNL     1      46.153  31.286  46.029  0.00  0.00    +0.000 A 
ATOM      4  N   UNL     1      45.891  30.284  46.906  0.00  0.00    +0.000 NA
ATOM      5  C   UNL     1      45.359  30.587  48.149  0.00  0.00    +0.000 A 
ATOM      6  N   UNL     1      45.127  31.868  48.425  0.00  0.00    +0.000 NA
ATOM      7  N   UNL     1      45.091  29.569  49.093  0.00  0.00    +0.000 N 
ATOM      8  H   UNL     1      45.178  33.892  47.841  0.00  0.00    +0.000 HD
ATOM      9  H   UNL     1      46.036  29.167  49.338  0.00  0.00    +0.000 HD
ATOM     10  H   UNL     1      44.203  29.234  49.501  0.00  0.00    +0.000 HD
ENDROOT
BRANCH   2  11
ATOM     11  C   UNL     1      46.159  33.597  45.278  0.00  0.00    +0.000 C 
ATOM     12  C   UNL     1      44.918  34.661  45.496  0.00  0.00    +0.000 C 
ATOM     13  C   UNL     1      44.687  35.597  44.431  0.00  0.00    +0.000 C 
ATOM     14  C   UNL     1      45.507  35.550  43.218  0.00  0.00    +0.000 C 
ATOM     15  C   UNL     1      46.587  34.572  43.182  0.00  0.00    +0.000 C 
ATOM     16  C   UNL     1      46.155  33.321  43.913  0.00  0.00    +0.000 C 
ATOM     17  H   UNL     1      46.906  34.368  45.628  0.00  0.00    +0.000 HD
ATOM     18  H   UNL     1      44.223  34.786  46.316  0.00  0.00    +0.000 HD
ATOM     19  H   UNL     1      43.901  36.299  44.535  0.00  0.00    +0.000 HD
ATOM     20  H   UNL     1      45.905  36.575  43.029  0.00  0.00    +0.000 HD
ATOM     21  H   UNL     1      47.459  34.968  43.760  0.00  0.00    +0.000 HD
ATOM     22  H   UNL     1      46.899  34.396  42.134  0.00  0.00    +0.000 HD
ATOM     23  H   UNL     1      47.025  32.691  43.587  0.00  0.00    +0.000 HD
ATOM     24  H   UNL     1      45.251  32.866  43.460  0.00  0.00    +0.000 HD
BRANCH  14  25
ATOM     25  C   UNL     1      44.515  35.267  42.050  0.00  0.00    +0.000 C 
ATOM     26  F   UNL     1      43.462  34.452  42.426  0.00  0.00    +0.000 F 
ATOM     27  F   UNL     1      43.953  36.493  41.706  0.00  0.00    +0.000 F 
ATOM     28  F   UNL     1      45.216  34.816  40.946  0.00  0.00    +0.000 F 
ENDBRANCH  14  25
ENDBRANCH   2  11
BRANCH   3  29
ATOM     29  C   UNL     1      46.753  30.598  44.897  0.00  0.00    +0.000 A 
ATOM     30  C   UNL     1      46.364  29.921  43.786  0.00  0.00    +0.000 A 
ATOM     31  C   UNL     1      47.513  29.468  43.130  0.00  0.00    +0.000 A 
ATOM     32  N   UNL     1      48.542  29.889  43.867  0.00  0.00    +0.000 N 
ATOM     33  N   UNL     1      48.114  30.558  44.913  0.00  0.00    +0.000 NA
ATOM     34  H   UNL     1      45.304  29.845  43.600  0.00  0.00    +0.000 HD
ATOM     35  H   UNL     1      47.415  28.895  42.205  0.00  0.00    +0.000 HD
BRANCH  32  36
ATOM     36  C   UNL     1      49.891  29.607  43.497  0.00  0.00    +0.000 A 
ATOM     37  C   UNL     1      50.423  30.478  42.550  0.00  0.00    +0.000 A 
ATOM     38  C   UNL     1      51.708  30.381  42.058  0.00  0.00    +0.000 A 
ATOM     39  C   UNL     1      52.526  29.370  42.519  0.00  0.00    +0.000 A 
ATOM     40  H   UNL     1      53.545  29.224  42.185  0.00  0.00    +0.000 HD
ATOM     41  C   UNL     1      51.951  28.532  43.458  0.00  0.00    +0.000 A 
ATOM     42  N   UNL     1      50.699  28.624  43.940  0.00  0.00    +0.000 NA
ENDBRANCH  32  36
ENDBRANCH   3  29
TORSDOF 4
