
 OpenBabel03232520033D

 27 29  0  0  0  0  0  0  0  0999 V2000
   46.1890   30.3840   49.1280 N   0  0  0  0  0  0  0  0  0  0  0  0
   45.3500   31.4030   49.4380 C   0  0  0  0  0  0  0  0  0  0  0  0
   45.2740   32.2340   48.3650 N   0  0  0  0  0  0  0  0  0  0  0  0
   46.0710   31.6960   47.4270 C   0  0  0  0  0  0  0  0  0  0  0  0
   46.3050   32.1990   46.1680 C   0  0  0  0  0  0  0  0  0  0  0  0
   47.1610   31.4870   45.3620 N   0  0  0  0  0  0  0  0  0  0  0  0
   47.7430   30.3540   45.7810 C   0  0  0  0  0  0  0  0  0  0  0  0
   47.4850   29.8990   47.0210 N   0  0  0  0  0  0  0  0  0  0  0  0
   46.6660   30.5340   47.8640 C   0  0  0  0  0  0  0  0  0  0  0  0
   46.4730   29.5660   49.7280 H   0  0  0  0  0  0  0  0  0  0  0  0
   44.8390   31.5020   50.4020 H   0  0  0  0  0  0  0  0  0  0  0  0
   48.6470   29.6310   44.8870 C   0  0  0  0  0  0  0  0  0  0  0  0
   48.9670   28.6350   45.1250 H   0  0  0  0  0  0  0  0  0  0  0  0
   49.0000   30.2610   43.8550 O   0  0  0  0  0  0  0  0  0  0  0  0
   45.6390   33.6630   45.4400 S   0  0  0  0  0  0  0  0  0  0  0  0
   47.7890   34.7230   42.3440 C   0  0  0  0  0  0  0  0  0  0  0  0
   47.0850   34.3450   41.2100 C   0  0  0  0  0  0  0  0  0  0  0  0
   45.8560   33.7150   41.4220 C   0  0  0  0  0  0  0  0  0  0  0  0
   45.4320   33.5170   42.7030 N   0  0  0  0  0  0  0  0  0  0  0  0
   46.1770   33.9160   43.7690 C   0  0  0  0  0  0  0  0  0  0  0  0
   47.3360   34.5080   43.5710 N   0  0  0  0  0  0  0  0  0  0  0  0
   47.4210   34.5020   40.1980 H   0  0  0  0  0  0  0  0  0  0  0  0
   45.2200   33.3770   40.6190 H   0  0  0  0  0  0  0  0  0  0  0  0
   49.0880   35.3880   42.1310 C   0  0  0  0  0  0  0  0  0  0  0  0
   49.2620   36.1610   41.1690 O   0  0  0  0  0  0  0  0  0  0  0  0
   50.1200   35.1430   43.0170 O   0  0  0  0  0  0  0  0  0  0  0  0
   51.0710   35.3620   42.8130 H   0  0  0  0  0  0  0  0  0  0  0  0
  1  2  1  0  0  0  0
  1 10  1  0  0  0  0
  2 11  1  0  0  0  0
  3  2  2  0  0  0  0
  4  9  1  0  0  0  0
  4  3  1  0  0  0  0
  5  4  2  0  0  0  0
  6  7  2  0  0  0  0
  6  5  1  0  0  0  0
  7  8  1  0  0  0  0
  8  9  2  0  0  0  0
  9  1  1  0  0  0  0
 12 13  1  0  0  0  0
 12  7  1  0  0  0  0
 14 12  2  0  0  0  0
 15  5  1  0  0  0  0
 16 21  1  0  0  0  0
 17 18  1  0  0  0  0
 17 16  2  0  0  0  0
 18 19  2  0  0  0  0
 19 20  1  0  0  0  0
 20 15  1  0  0  0  0
 21 20  2  0  0  0  0
 22 17  1  0  0  0  0
 23 18  1  0  0  0  0
 24 16  1  0  0  0  0
 24 26  1  0  0  0  0
 25 24  2  0  0  0  0
 27 26  1  0  0  0  0
M  END
>  <minimizedAffinity>
-5.55196428

>  <minimizedRMSD>
0.0347681642

$$$$
