
 OpenBabel03232520133D

 28 29  0  0  0  0  0  0  0  0999 V2000
   47.4590   34.1140   42.2450 C   0  0  0  0  0  0  0  0  0  0  0  0
   48.3520   35.2760   41.8120 C   0  0  0  0  0  0  0  0  0  0  0  0
   49.7090   35.2960   42.3850 C   0  0  0  0  0  0  0  0  0  0  0  0
   50.3730   33.9440   42.3960 C   0  0  0  0  0  0  0  0  0  0  0  0
   49.4770   32.7990   42.0470 C   0  0  0  0  0  0  0  0  0  0  0  0
   48.1630   32.9590   42.7880 C   0  0  0  0  0  0  0  0  0  0  0  0
   48.4600   35.1850   40.7120 H   0  0  0  0  0  0  0  0  0  0  0  0
   47.8700   36.2600   41.9680 H   0  0  0  0  0  0  0  0  0  0  0  0
   49.6540   35.6880   43.4360 H   0  0  0  0  0  0  0  0  0  0  0  0
   50.3160   36.0170   41.8250 H   0  0  0  0  0  0  0  0  0  0  0  0
   51.2470   33.9560   41.7230 H   0  0  0  0  0  0  0  0  0  0  0  0
   50.8100   33.7520   43.4130 H   0  0  0  0  0  0  0  0  0  0  0  0
   49.9440   31.8680   42.4390 H   0  0  0  0  0  0  0  0  0  0  0  0
   49.2960   32.6980   40.9580 H   0  0  0  0  0  0  0  0  0  0  0  0
   48.3730   33.0470   43.8700 H   0  0  0  0  0  0  0  0  0  0  0  0
   47.5570   32.0320   42.6720 H   0  0  0  0  0  0  0  0  0  0  0  0
   45.3070   34.3420   45.2700 C   0  0  0  0  0  0  0  0  0  0  0  0
   44.5650   35.5050   44.9910 C   0  0  0  0  0  0  0  0  0  0  0  0
   44.8080   36.2150   43.7930 C   0  0  0  0  0  0  0  0  0  0  0  0
   45.7630   35.7350   42.9520 N   0  0  0  0  0  0  0  0  0  0  0  0
   46.4580   34.6120   43.2550 C   0  0  0  0  0  0  0  0  0  0  0  0
   46.2280   33.9200   44.4110 N   0  0  0  0  0  0  0  0  0  0  0  0
   45.1780   33.7520   46.1530 H   0  0  0  0  0  0  0  0  0  0  0  0
   43.8180   35.8230   45.7190 H   0  0  0  0  0  0  0  0  0  0  0  0
   44.2340   37.1070   43.5900 H   0  0  0  0  0  0  0  0  0  0  0  0
   46.6220   33.7510   41.0580 C   0  0  0  0  0  0  0  0  0  0  0  0
   45.7190   33.1520   41.2360 H   0  0  0  0  0  0  0  0  0  0  0  0
   47.0210   34.1590   39.9750 O   0  0  0  0  0  0  0  0  0  0  0  0
  1  6  1  0  0  0  0
  1 21  1  0  0  0  0
  2  8  1  0  0  0  0
  2  1  1  0  0  0  0
  2  3  1  0  0  0  0
  3  4  1  0  0  0  0
  3  9  1  0  0  0  0
  4 12  1  0  0  0  0
  5  4  1  0  0  0  0
  5 13  1  0  0  0  0
  5  6  1  0  0  0  0
  6 15  1  0  0  0  0
  7  2  1  0  0  0  0
 10  3  1  0  0  0  0
 11  4  1  0  0  0  0
 14  5  1  0  0  0  0
 16  6  1  0  0  0  0
 17 23  1  0  0  0  0
 18 17  1  0  0  0  0
 18 24  1  0  0  0  0
 19 18  2  0  0  0  0
 20 21  2  0  0  0  0
 20 19  1  0  0  0  0
 21 22  1  0  0  0  0
 22 17  2  0  0  0  0
 25 19  1  0  0  0  0
 26 27  1  0  0  0  0
 26  1  1  0  0  0  0
 28 26  2  0  0  0  0
M  END
>  <minimizedAffinity>
-4.91177368

>  <minimizedRMSD>
0.324916959

$$$$
