
 OpenBabel03232519173D

 40 42  0  0  1  0  0  0  0  0999 V2000
   43.4670   33.5590   41.2070 C   0  0  1  0  0  0  0  0  0  0  0  0
   43.7560   32.5240   41.5020 H   0  0  0  0  0  0  0  0  0  0  0  0
   41.9970   33.6150   41.1290 C   0  0  0  0  0  0  0  0  0  0  0  0
   41.3770   34.8650   40.8260 C   0  0  0  0  0  0  0  0  0  0  0  0
   39.9790   34.9510   40.7400 C   0  0  0  0  0  0  0  0  0  0  0  0
   39.2880   33.8110   40.9580 N   0  0  0  0  0  0  0  0  0  0  0  0
   39.8810   32.6590   41.2390 C   0  0  0  0  0  0  0  0  0  0  0  0
   41.2310   32.5380   41.3300 N   0  0  0  0  0  0  0  0  0  0  0  0
   42.0170   35.7310   40.6660 H   0  0  0  0  0  0  0  0  0  0  0  0
   39.5120   35.8990   40.5100 H   0  0  0  0  0  0  0  0  0  0  0  0
   39.1050   31.4240   41.4680 C   0  0  0  0  0  0  0  0  0  0  0  0
   39.7480   30.3310   42.0470 C   0  0  0  0  0  0  0  0  0  0  0  0
   38.3480   29.0890   42.1000 S   0  0  0  0  0  0  0  0  0  0  0  0
   37.1560   30.3270   41.3130 C   0  0  0  0  0  0  0  0  0  0  0  0
   37.8340   31.2030   41.1870 N   0  0  0  0  0  0  0  0  0  0  0  0
   40.6790   30.0990   42.3960 H   0  0  0  0  0  0  0  0  0  0  0  0
   35.9840   30.4750   40.9260 H   0  0  0  0  0  0  0  0  0  0  0  0
   44.0590   33.7830   39.8380 C   0  0  0  0  0  0  0  0  0  0  0  0
   44.8550   33.0360   39.6000 H   0  0  0  0  0  0  0  0  0  0  0  0
   44.4370   34.8220   39.7200 H   0  0  0  0  0  0  0  0  0  0  0  0
   43.2770   33.6550   39.0600 H   0  0  0  0  0  0  0  0  0  0  0  0
   44.0200   34.5350   42.1740 C   0  0  0  0  0  0  0  0  0  0  0  0
   43.2620   34.5650   43.0180 H   0  0  0  0  0  0  0  0  0  0  0  0
   44.0520   35.5720   41.8310 H   0  0  0  0  0  0  0  0  0  0  0  0
   45.2460   34.1900   42.7830 N   0  0  0  0  0  0  0  0  0  0  0  0
   45.6760   33.1690   43.6820 C   0  0  0  0  0  0  0  0  0  0  0  0
   46.1590   31.9820   43.1680 C   0  0  0  0  0  0  0  0  0  0  0  0
   46.5900   30.9510   43.9700 C   0  0  0  0  0  0  0  0  0  0  0  0
   46.5160   31.1650   45.3000 N   0  0  0  0  0  0  0  0  0  0  0  0
   46.0440   32.3270   45.7940 C   0  0  0  0  0  0  0  0  0  0  0  0
   45.6140   33.3540   45.0230 N   0  0  0  0  0  0  0  0  0  0  0  0
   46.2070   31.8390   42.1070 H   0  0  0  0  0  0  0  0  0  0  0  0
   46.9660   30.0270   43.5710 H   0  0  0  0  0  0  0  0  0  0  0  0
   45.9980   32.4730   47.2490 C   0  0  0  0  0  0  0  0  0  0  0  0
   46.8090   32.1240   47.8780 H   0  0  0  0  0  0  0  0  0  0  0  0
   44.9960   33.0160   47.7870 O   0  0  0  0  0  0  0  0  0  0  0  0
   46.3920   34.9650   42.5280 C   0  0  0  0  0  0  0  0  0  0  0  0
   47.3890   34.6950   43.4200 F   0  0  0  0  0  0  0  0  0  0  0  0
   45.9670   36.2980   42.8160 F   0  0  0  0  0  0  0  0  0  0  0  0
   46.8510   34.9210   41.2410 F   0  0  0  0  0  0  0  0  0  0  0  0
  1  2  1  1  0  0  0
  1 22  1  0  0  0  0
  3  1  1  0  0  0  0
  3  8  1  0  0  0  0
  4  3  2  0  0  0  0
  5  4  1  0  0  0  0
  5  6  2  0  0  0  0
  6  7  1  0  0  0  0
  7  8  2  0  0  0  0
  7 11  1  0  0  0  0
  9  4  1  0  0  0  0
 10  5  1  0  0  0  0
 11 12  2  0  0  0  0
 12 13  1  0  0  0  0
 12 16  1  0  0  0  0
 14 13  1  0  0  0  0
 15 14  2  0  0  0  0
 15 11  1  0  0  0  0
 17 14  1  0  0  0  0
 18  1  1  0  0  0  0
 19 18  1  0  0  0  0
 20 18  1  0  0  0  0
 21 18  1  0  0  0  0
 22 25  1  0  0  0  0
 22 23  1  0  0  0  0
 24 22  1  0  0  0  0
 25 26  1  0  0  0  0
 26 31  1  0  0  0  0
 27 26  2  0  0  0  0
 27 28  1  0  0  0  0
 28 29  2  0  0  0  0
 29 30  1  0  0  0  0
 30 34  1  0  0  0  0
 31 30  2  0  0  0  0
 32 27  1  0  0  0  0
 33 28  1  0  0  0  0
 34 36  2  0  0  0  0
 34 35  1  0  0  0  0
 37 25  1  0  0  0  0
 37 39  1  0  0  0  0
 37 38  1  0  0  0  0
 40 37  1  0  0  0  0
M  END
>  <minimizedAffinity>
-5.49203348

>  <minimizedRMSD>
0.678609073

$$$$
