
 OpenBabel03232521003D

 42 45  0  0  1  0  0  0  0  0999 V2000
   45.3430   32.9200   47.4730 C   0  0  0  0  0  0  0  0  0  0  0  0
   45.9010   32.6660   46.2640 C   0  0  0  0  0  0  0  0  0  0  0  0
   46.1840   31.3190   46.0240 C   0  0  0  0  0  0  0  0  0  0  0  0
   45.9300   30.3250   46.9130 N   0  0  0  0  0  0  0  0  0  0  0  0
   45.3580   30.6340   48.1360 C   0  0  0  0  0  0  0  0  0  0  0  0
   45.0810   31.9120   48.3830 N   0  0  0  0  0  0  0  0  0  0  0  0
   45.0960   29.6250   49.0920 N   0  0  0  0  0  0  0  0  0  0  0  0
   45.0880   33.9260   47.7630 H   0  0  0  0  0  0  0  0  0  0  0  0
   46.0460   29.2560   49.3680 H   0  0  0  0  0  0  0  0  0  0  0  0
   44.2080   29.2710   49.4840 H   0  0  0  0  0  0  0  0  0  0  0  0
   46.1410   33.6160   45.2310 C   0  0  2  0  0  0  0  0  0  0  0  0
   44.9350   34.7130   45.4770 C   0  0  0  0  0  0  0  0  0  0  0  0
   44.7000   35.6500   44.4140 C   0  0  0  0  0  0  0  0  0  0  0  0
   45.4850   35.5760   43.1800 C   0  0  1  0  0  0  0  0  0  0  0  0
   46.5380   34.5700   43.1190 C   0  0  0  0  0  0  0  0  0  0  0  0
   46.0930   33.3340   43.8680 C   0  0  0  0  0  0  0  0  0  0  0  0
   46.9180   34.3680   45.5570 H   0  0  0  0  0  0  0  0  0  0  0  0
   44.2660   34.8600   46.3150 H   0  0  0  0  0  0  0  0  0  0  0  0
   43.9360   36.3730   44.5360 H   0  0  0  0  0  0  0  0  0  0  0  0
   45.9050   36.5890   42.9750 H   0  0  0  0  0  0  0  0  0  0  0  0
   47.4350   34.9450   43.6720 H   0  0  0  0  0  0  0  0  0  0  0  0
   46.8160   34.3810   42.0640 H   0  0  0  0  0  0  0  0  0  0  0  0
   46.9370   32.6790   43.5220 H   0  0  0  0  0  0  0  0  0  0  0  0
   45.1650   32.9010   43.4420 H   0  0  0  0  0  0  0  0  0  0  0  0
   44.4550   35.3140   42.0400 C   0  0  0  0  0  0  0  0  0  0  0  0
   43.3910   34.5290   42.4490 F   0  0  0  0  0  0  0  0  0  0  0  0
   43.9160   36.5530   41.7060 F   0  0  0  0  0  0  0  0  0  0  0  0
   45.1130   34.8400   40.9200 F   0  0  0  0  0  0  0  0  0  0  0  0
   46.8320   30.6290   44.9200 C   0  0  0  0  0  0  0  0  0  0  0  0
   46.5030   29.8070   43.8910 C   0  0  0  0  0  0  0  0  0  0  0  0
   47.6780   29.4720   43.2110 C   0  0  0  0  0  0  0  0  0  0  0  0
   48.6620   30.1030   43.8530 N   0  0  0  0  0  0  0  0  0  0  0  0
   48.1830   30.7920   44.8640 N   0  0  0  0  0  0  0  0  0  0  0  0
   45.4600   29.5590   43.7710 H   0  0  0  0  0  0  0  0  0  0  0  0
   47.6290   28.8110   42.3430 H   0  0  0  0  0  0  0  0  0  0  0  0
   50.0210   29.9910   43.4330 C   0  0  0  0  0  0  0  0  0  0  0  0
   50.8460   29.3120   44.3240 C   0  0  0  0  0  3  0  0  0  0  0  0
   52.1920   29.0940   44.1080 C   0  0  0  0  0  3  0  0  0  0  0  0
   52.7680   29.5700   42.9480 C   0  0  0  0  0  0  0  0  0  0  0  0
   53.8130   29.4420   42.7030 H   0  0  0  0  0  0  0  0  0  0  0  0
   51.9070   30.2390   42.0970 C   0  0  0  0  0  3  0  0  0  0  0  0
   50.5950   30.4520   42.3040 N   0  0  0  0  0  0  0  0  0  0  0  0
  1  8  1  0  0  0  0
  1  6  1  0  0  0  0
  2  1  2  0  0  0  0
  3  2  1  0  0  0  0
  3  4  2  0  0  0  0
  4  5  1  0  0  0  0
  5  6  2  0  0  0  0
  5  7  1  0  0  0  0
  7  9  1  0  0  0  0
  7 10  1  0  0  0  0
 11 12  1  0  0  0  0
 11 17  1  1  0  0  0
 11  2  1  0  0  0  0
 12 18  1  0  0  0  0
 13 19  1  0  0  0  0
 13 12  2  0  0  0  0
 14 20  1  6  0  0  0
 14 13  1  0  0  0  0
 15 14  1  0  0  0  0
 15 21  1  0  0  0  0
 15 16  1  0  0  0  0
 16 11  1  0  0  0  0
 22 15  1  0  0  0  0
 23 16  1  0  0  0  0
 24 16  1  0  0  0  0
 25 26  1  0  0  0  0
 25 14  1  0  0  0  0
 27 25  1  0  0  0  0
 28 25  1  0  0  0  0
 29  3  1  0  0  0  0
 30 29  1  0  0  0  0
 31 32  1  0  0  0  0
 31 30  2  0  0  0  0
 32 33  1  0  0  0  0
 33 29  2  0  0  0  0
 34 30  1  0  0  0  0
 35 31  1  0  0  0  0
 36 32  1  0  0  0  0
 36 37  1  0  0  0  0
 38 37  2  0  0  0  0
 39 38  1  0  0  0  0
 40 39  1  0  0  0  0
 41 42  1  0  0  0  0
 41 39  2  0  0  0  0
 42 36  2  0  0  0  0
M  END
>  <minimizedAffinity>
-5.85787201

>  <minimizedRMSD>
0.365653217

$$$$
