
     RDKit          3D

 42 46  0  0  1  0  0  0  0  0999 V2000
   39.1120   31.9460   46.5470 C   0  0  0  0  0  0  0  0  0  0  0  0
   39.9020   33.0410   46.1620 C   0  0  0  0  0  0  0  0  0  0  0  0
   40.6200   32.9780   44.9170 C   0  0  0  0  0  0  0  0  0  0  0  0
   40.4720   31.8410   44.1970 N   0  0  0  0  0  0  0  0  0  0  0  0
   39.6910   30.8080   44.6110 C   0  0  0  0  0  0  0  0  0  0  0  0
   39.0300   30.8600   45.7520 N   0  0  0  0  0  0  0  0  0  0  0  0
   39.5740   29.6370   43.8070 N   0  0  0  0  0  0  0  0  0  0  0  0
   38.7720   28.5810   44.0370 C   0  0  0  0  0  0  0  0  0  0  0  0
   38.8820   27.6420   43.1110 N   0  0  0  0  0  0  0  0  0  0  0  0
   39.7870   28.0660   42.2180 C   0  0  0  0  0  0  0  0  0  0  0  0
   40.2860   27.4970   41.0650 C   0  0  0  0  0  0  0  0  0  0  0  0
   39.8570   26.3680   40.7210 O   0  0  0  0  0  0  0  0  0  0  0  0
   41.2120   28.2020   40.3750 N   0  0  0  0  0  0  0  0  0  0  0  0
   41.6290   29.4260   40.8110 C   0  0  0  0  0  0  0  0  0  0  0  0
   42.6070   30.0060   39.9480 N   0  0  0  0  0  0  0  0  0  0  0  0
   41.1300   29.9680   41.9430 N   0  0  0  0  0  0  0  0  0  0  0  0
   40.2100   29.3130   42.6670 C   0  0  0  0  0  0  0  0  0  0  0  0
   38.6030   32.1270   47.8760 C   0  0  2  0  0  0  0  0  0  0  0  0
   37.9280   31.2410   48.8220 C   0  0  0  0  0  0  0  0  0  0  0  0
   38.4300   31.1090   50.0500 N   0  0  0  0  0  0  0  0  0  0  0  0
   37.8760   30.3020   50.9880 C   0  0  0  0  0  0  0  0  0  0  0  0
   36.7810   29.5760   50.7560 N   0  0  0  0  0  0  0  0  0  0  0  0
   36.1900   29.6410   49.5380 C   0  0  0  0  0  0  0  0  0  0  0  0
   35.0740   28.9000   49.2560 C   0  0  0  0  0  0  0  0  0  0  0  0
   34.4780   28.9500   48.0200 C   0  0  0  0  0  0  0  0  0  0  0  0
   35.0590   29.7760   47.0970 C   0  0  0  0  0  0  0  0  0  0  0  0
   36.1790   30.5040   47.4150 C   0  0  0  0  0  0  0  0  0  0  0  0
   36.7950   30.4770   48.6280 C   0  0  0  0  0  0  0  0  0  0  0  0
   38.2590   33.3360   48.3180 O   0  0  0  0  0  0  0  0  0  0  0  0
   39.9708   33.9329   46.8022 H   0  0  0  0  0  0  0  0  0  0  0  0
   41.2538   33.8072   44.5694 H   0  0  0  0  0  0  0  0  0  0  0  0
   38.0971   28.5064   44.9024 H   0  0  0  0  0  0  0  0  0  0  0  0
   41.6076   27.8095   39.5088 H   0  0  0  0  0  0  0  0  0  0  0  0
   43.0030   30.9313   40.1668 H   0  0  0  0  0  0  0  0  0  0  0  0
   42.9166   29.4992   39.1065 H   0  0  0  0  0  0  0  0  0  0  0  0
   39.5868   31.6559   47.7341 H   0  0  0  0  0  0  0  0  0  0  0  0
   38.3481   30.2435   51.9798 H   0  0  0  0  0  0  0  0  0  0  0  0
   34.6463   28.2517   50.0350 H   0  0  0  0  0  0  0  0  0  0  0  0
   33.5815   28.3577   47.7846 H   0  0  0  0  0  0  0  0  0  0  0  0
   34.6245   29.8578   46.0898 H   0  0  0  0  0  0  0  0  0  0  0  0
   36.6071   31.1528   46.6367 H   0  0  0  0  0  0  0  0  0  0  0  0
   38.2585   33.3376   49.3080 H   0  0  0  0  0  0  0  0  0  0  0  0
  1 18  1  0
  2  1  2  0
  3  2  1  0
  4  5  1  0
  4  3  2  0
  5  6  2  0
  6  1  1  0
  7  8  1  0
  7  5  1  0
  9  8  2  0
 10 17  2  0
 10  9  1  0
 11 10  1  0
 12 11  2  0
 13 14  1  0
 13 11  1  0
 14 16  2  0
 15 14  1  0
 16 17  1  0
 17  7  1  0
 18 29  1  0
 18 19  1  0
 19 20  2  0
 20 21  1  0
 22 21  2  0
 23 22  1  0
 24 23  2  0
 25 24  1  0
 26 27  1  0
 26 25  2  0
 27 28  2  0
 28 19  1  0
 28 23  1  0
  2 30  1  0
  3 31  1  0
  8 32  1  0
 13 33  1  0
 15 34  1  0
 15 35  1  0
 18 36  1  1
 21 37  1  0
 24 38  1  0
 25 39  1  0
 26 40  1  0
 27 41  1  0
 29 42  1  0
M  END
>  <Score>  (1) 
-8.47644

$$$$
