
     RDKit          3D

 46 50  0  0  1  0  0  0  0  0999 V2000
   38.6230   31.5600   48.0030 C   0  0  1  0  0  0  0  0  0  0  0  0
   37.8380   30.8950   49.0310 C   0  0  0  0  0  0  0  0  0  0  0  0
   38.3320   30.7690   50.2570 N   0  0  0  0  0  0  0  0  0  0  0  0
   37.6630   30.1500   51.2480 C   0  0  0  0  0  0  0  0  0  0  0  0
   36.4600   29.6180   51.0840 N   0  0  0  0  0  0  0  0  0  0  0  0
   35.8390   29.6770   49.8880 C   0  0  0  0  0  0  0  0  0  0  0  0
   34.6140   29.1370   49.6980 C   0  0  0  0  0  0  0  0  0  0  0  0
   33.9950   29.1990   48.4860 C   0  0  0  0  0  0  0  0  0  0  0  0
   34.6880   29.8440   47.4770 C   0  0  0  0  0  0  0  0  0  0  0  0
   35.9320   30.3800   47.7160 C   0  0  0  0  0  0  0  0  0  0  0  0
   36.5620   30.3230   48.9050 C   0  0  0  0  0  0  0  0  0  0  0  0
   38.9320   31.2360   46.6440 C   0  0  0  0  0  0  0  0  0  0  0  0
   40.1980   31.7690   46.2910 C   0  0  0  0  0  0  0  0  0  0  0  0
   40.7560   31.4650   45.0050 C   0  0  0  0  0  0  0  0  0  0  0  0
   40.0240   30.6870   44.2240 N   0  0  0  0  0  0  0  0  0  0  0  0
   38.8010   30.1900   44.5940 C   0  0  0  0  0  0  0  0  0  0  0  0
   38.2900   30.4690   45.7740 N   0  0  0  0  0  0  0  0  0  0  0  0
   37.9890   29.3410   43.6790 C   0  0  0  0  0  0  0  0  0  0  0  0
   36.6890   29.9620   43.5540 N   0  0  0  0  0  0  0  0  0  0  0  0
   35.5540   29.3120   43.9650 C   0  0  0  0  0  0  0  0  0  0  0  0
   34.4500   30.0510   43.7580 N   0  0  0  0  0  0  0  0  0  0  0  0
   34.8520   31.2040   43.2060 C   0  0  0  0  0  0  0  0  0  0  0  0
   34.1500   32.3000   42.8040 C   0  0  0  0  0  0  0  0  0  0  0  0
   34.8430   33.3180   42.2840 N   0  0  0  0  0  0  0  0  0  0  0  0
   36.1890   33.2210   42.1820 C   0  0  0  0  0  0  0  0  0  0  0  0
   36.9240   32.1370   42.5740 N   0  0  0  0  0  0  0  0  0  0  0  0
   36.2150   31.1110   43.0990 C   0  0  0  0  0  0  0  0  0  0  0  0
   38.3730   32.8860   48.3120 O   0  0  0  0  0  0  0  0  0  0  0  0
   39.2120   33.8380   48.8480 C   0  0  0  0  0  0  0  0  0  0  0  0
   39.9490   34.7780   48.0070 N   0  0  0  0  0  0  0  0  0  0  0  0
   39.3800   33.9420   50.0900 O   0  0  0  0  0  0  0  0  0  0  0  0
   39.5888   31.0349   48.0408 H   0  0  0  0  0  0  0  0  0  0  0  0
   38.1362   30.0827   52.2387 H   0  0  0  0  0  0  0  0  0  0  0  0
   34.1078   28.6383   50.5377 H   0  0  0  0  0  0  0  0  0  0  0  0
   33.0000   28.7608   48.3189 H   0  0  0  0  0  0  0  0  0  0  0  0
   34.2405   29.9288   46.4757 H   0  0  0  0  0  0  0  0  0  0  0  0
   36.4440   30.8866   46.8846 H   0  0  0  0  0  0  0  0  0  0  0  0
   40.7469   32.4096   46.9969 H   0  0  0  0  0  0  0  0  0  0  0  0
   41.7340   31.8553   44.6870 H   0  0  0  0  0  0  0  0  0  0  0  0
   38.4733   29.2805   42.6932 H   0  0  0  0  0  0  0  0  0  0  0  0
   37.8954   28.3198   44.0770 H   0  0  0  0  0  0  0  0  0  0  0  0
   35.5474   28.3064   44.4107 H   0  0  0  0  0  0  0  0  0  0  0  0
   33.0554   32.3456   42.9034 H   0  0  0  0  0  0  0  0  0  0  0  0
   36.7310   34.0765   41.7525 H   0  0  0  0  0  0  0  0  0  0  0  0
   40.5688   35.4784   48.4385 H   0  0  0  0  0  0  0  0  0  0  0  0
   39.8489   34.7403   46.9826 H   0  0  0  0  0  0  0  0  0  0  0  0
  1 28  1  0
  1  2  1  0
  2  3  2  0
  3  4  1  0
  5  4  2  0
  6  5  1  0
  7  6  2  0
  8  7  1  0
  9 10  1  0
  9  8  2  0
 10 11  2  0
 11  2  1  0
 11  6  1  0
 12  1  1  0
 13 12  2  0
 14 13  1  0
 15 16  1  0
 15 14  2  0
 16 17  2  0
 17 12  1  0
 18 16  1  0
 19 18  1  0
 19 20  1  0
 21 20  2  0
 22 21  1  0
 23 22  2  0
 24 23  1  0
 25 24  2  0
 25 26  1  0
 26 27  2  0
 27 22  1  0
 27 19  1  0
 28 29  1  0
 29 31  2  0
 30 29  1  0
  1 32  1  1
  4 33  1  0
  7 34  1  0
  8 35  1  0
  9 36  1  0
 10 37  1  0
 13 38  1  0
 14 39  1  0
 18 40  1  0
 18 41  1  0
 20 42  1  0
 23 43  1  0
 25 44  1  0
 30 45  1  0
 30 46  1  0
M  END
>  <Score>  (1) 
-7.14674

$$$$
