
     RDKit          3D

 44 47  0  0  0  0  0  0  0  0999 V2000
   36.8430   30.7860   46.1020 C   0  0  0  0  0  0  0  0  0  0  0  0
   35.8260   30.0260   46.6610 C   0  0  0  0  0  0  0  0  0  0  0  0
   35.5190   29.9840   47.9840 C   0  0  0  0  0  0  0  0  0  0  0  0
   36.2380   30.7300   48.8780 C   0  0  0  0  0  0  0  0  0  0  0  0
   37.2450   31.4950   48.3970 C   0  0  0  0  0  0  0  0  0  0  0  0
   37.9680   32.2490   49.3060 C   0  0  0  0  0  0  0  0  0  0  0  0
   39.0030   33.0490   48.9070 C   0  0  0  0  0  0  0  0  0  0  0  0
   39.3120   33.0880   47.5580 C   0  0  0  0  0  0  0  0  0  0  0  0
   38.5720   32.3290   46.6940 C   0  0  0  0  0  0  0  0  0  0  0  0
   37.5420   31.5240   47.0490 C   0  0  0  0  0  0  0  0  0  0  0  0
   36.1230   31.3330   42.6160 C   0  0  0  0  0  0  0  0  0  0  0  0
   37.3100   31.0160   41.9260 C   0  0  0  0  0  0  0  0  0  0  0  0
   38.3680   30.6090   42.6610 C   0  0  0  0  0  0  0  0  0  0  0  0
   38.1920   30.5450   43.9720 N   0  0  0  0  0  0  0  0  0  0  0  0
   37.1510   30.8140   44.6860 C   0  0  0  0  0  0  0  0  0  0  0  0
   36.1240   31.2110   43.9440 N   0  0  0  0  0  0  0  0  0  0  0  0
   39.6270   30.2460   42.1060 N   0  0  0  0  0  0  0  0  0  0  0  0
   40.7520   29.9270   42.9100 C   0  0  0  0  0  0  0  0  0  0  0  0
   40.9570   30.6470   43.9650 N   0  0  0  0  0  0  0  0  0  0  0  0
   41.6150   28.8600   42.5660 N   0  0  0  0  0  0  0  0  0  0  0  0
   41.7020   30.5440   44.6430 H   0  0  0  0  0  0  0  0  0  0  0  0
   37.4190   31.1130   40.5040 N   0  0  0  0  0  0  0  0  0  0  0  0
   37.2560   30.1780   39.5410 C   0  0  0  0  0  0  0  0  0  0  0  0
   37.4820   30.8220   38.3370 C   0  0  0  0  0  0  0  0  0  0  0  0
   37.7770   32.1150   38.5550 N   0  0  0  0  0  0  0  0  0  0  0  0
   37.7350   32.2870   39.8900 C   0  0  0  0  0  0  0  0  0  0  0  0
   35.9130   30.6760   50.2150 O   0  0  0  0  0  0  0  0  0  0  0  0
   36.4230   29.6320   51.0340 C   0  0  0  0  0  0  0  0  0  0  0  0
   37.2370   28.7400   50.4130 F   0  0  0  0  0  0  0  0  0  0  0  0
   37.2020   30.2350   52.0200 F   0  0  0  0  0  0  0  0  0  0  0  0
   35.3160   28.9980   51.5880 F   0  0  0  0  0  0  0  0  0  0  0  0
   35.2209   29.4093   45.9802 H   0  0  0  0  0  0  0  0  0  0  0  0
   34.6921   29.3500   48.3366 H   0  0  0  0  0  0  0  0  0  0  0  0
   37.7040   32.2035   50.3729 H   0  0  0  0  0  0  0  0  0  0  0  0
   39.5729   33.6437   49.6361 H   0  0  0  0  0  0  0  0  0  0  0  0
   40.1358   33.7166   47.1888 H   0  0  0  0  0  0  0  0  0  0  0  0
   38.8338   32.3759   45.6266 H   0  0  0  0  0  0  0  0  0  0  0  0
   35.2252   31.6700   42.0771 H   0  0  0  0  0  0  0  0  0  0  0  0
   39.7256   30.2135   41.0812 H   0  0  0  0  0  0  0  0  0  0  0  0
   42.4271   28.6422   43.1609 H   0  0  0  0  0  0  0  0  0  0  0  0
   41.4312   28.3010   41.7206 H   0  0  0  0  0  0  0  0  0  0  0  0
   36.9961   29.1189   39.6854 H   0  0  0  0  0  0  0  0  0  0  0  0
   37.4281   30.3456   37.3470 H   0  0  0  0  0  0  0  0  0  0  0  0
   37.9279   33.2374   40.4091 H   0  0  0  0  0  0  0  0  0  0  0  0
  1  2  2  0
  1 10  1  0
  2  3  1  0
  3  4  2  0
  4 27  1  0
  5  4  1  0
  5  6  2  0
  7  6  1  0
  8  7  2  0
  9 10  2  0
  9  8  1  0
 10  5  1  0
 11 16  2  0
 12 11  1  0
 12 13  2  0
 13 14  1  0
 14 15  2  0
 15  1  1  0
 16 15  1  0
 17 13  1  0
 17 18  1  0
 18 19  2  0
 19 21  1  0
 20 18  1  0
 22 12  1  0
 23 22  1  0
 24 25  1  0
 24 23  2  0
 25 26  2  0
 26 22  1  0
 27 28  1  0
 28 31  1  0
 28 30  1  0
 29 28  1  0
  2 32  1  0
  3 33  1  0
  6 34  1  0
  7 35  1  0
  8 36  1  0
  9 37  1  0
 11 38  1  0
 17 39  1  0
 20 40  1  0
 20 41  1  0
 23 42  1  0
 24 43  1  0
 26 44  1  0
M  END
>  <Score>  (1) 
-7.36575

$$$$
