
     RDKit          3D

 44 48  0  0  1  0  0  0  0  0999 V2000
   38.4730   32.2820   48.0860 C   0  0  1  0  0  0  0  0  0  0  0  0
   37.8640   31.3180   49.0010 C   0  0  0  0  0  0  0  0  0  0  0  0
   38.3840   31.1680   50.2200 N   0  0  0  0  0  0  0  0  0  0  0  0
   37.8920   30.2910   51.1290 C   0  0  0  0  0  0  0  0  0  0  0  0
   36.8440   29.5090   50.8740 N   0  0  0  0  0  0  0  0  0  0  0  0
   36.2470   29.5890   49.6700 C   0  0  0  0  0  0  0  0  0  0  0  0
   35.1640   28.7920   49.3530 C   0  0  0  0  0  0  0  0  0  0  0  0
   34.5510   28.8490   48.1420 C   0  0  0  0  0  0  0  0  0  0  0  0
   35.0700   29.7510   47.2420 C   0  0  0  0  0  0  0  0  0  0  0  0
   36.1470   30.5310   47.5790 C   0  0  0  0  0  0  0  0  0  0  0  0
   36.7820   30.4930   48.7830 C   0  0  0  0  0  0  0  0  0  0  0  0
   38.9080   32.2050   46.7240 C   0  0  0  0  0  0  0  0  0  0  0  0
   39.8950   33.1640   46.4560 C   0  0  0  0  0  0  0  0  0  0  0  0
   40.5590   33.1390   45.1840 C   0  0  0  0  0  0  0  0  0  0  0  0
   40.1810   32.1790   44.3240 N   0  0  0  0  0  0  0  0  0  0  0  0
   39.2160   31.2640   44.6130 C   0  0  0  0  0  0  0  0  0  0  0  0
   38.6070   31.2930   45.7880 N   0  0  0  0  0  0  0  0  0  0  0  0
   38.7070   30.1740   43.7880 C   0  0  0  0  0  0  0  0  0  0  0  0
   37.4010   29.6860   43.8670 C   0  0  0  0  0  0  0  0  0  0  0  0
   36.8960   28.6660   43.1080 C   0  0  0  0  0  0  0  0  0  0  0  0
   37.6960   28.0430   42.1830 C   0  0  0  0  0  0  0  0  0  0  0  0
   38.9960   28.4600   42.0400 C   0  0  0  0  0  0  0  0  0  0  0  0
   39.7540   27.8130   41.1140 C   0  0  0  0  0  0  0  0  0  0  0  0
   41.0650   28.1810   40.9210 C   0  0  0  0  0  0  0  0  0  0  0  0
   41.5760   29.2180   41.6950 C   0  0  0  0  0  0  0  0  0  0  0  0
   40.7420   29.8190   42.6100 C   0  0  0  0  0  0  0  0  0  0  0  0
   39.4300   29.4910   42.8390 C   0  0  0  0  0  0  0  0  0  0  0  0
   38.1380   33.4500   48.6300 O   0  0  0  0  0  0  0  0  0  0  0  0
   39.4548   31.8396   47.8616 H   0  0  0  0  0  0  0  0  0  0  0  0
   38.3763   30.2224   52.1143 H   0  0  0  0  0  0  0  0  0  0  0  0
   34.7849   28.0868   50.1073 H   0  0  0  0  0  0  0  0  0  0  0  0
   33.6896   28.2110   47.8953 H   0  0  0  0  0  0  0  0  0  0  0  0
   34.6176   29.8475   46.2440 H   0  0  0  0  0  0  0  0  0  0  0  0
   36.5240   31.2364   46.8239 H   0  0  0  0  0  0  0  0  0  0  0  0
   40.1561   33.9230   47.2082 H   0  0  0  0  0  0  0  0  0  0  0  0
   41.3393   33.8702   44.9260 H   0  0  0  0  0  0  0  0  0  0  0  0
   36.7260   30.1583   44.5959 H   0  0  0  0  0  0  0  0  0  0  0  0
   35.8517   28.3460   43.2387 H   0  0  0  0  0  0  0  0  0  0  0  0
   37.3016   27.2223   41.5658 H   0  0  0  0  0  0  0  0  0  0  0  0
   39.3186   26.9960   40.5200 H   0  0  0  0  0  0  0  0  0  0  0  0
   41.6919   27.6698   40.1756 H   0  0  0  0  0  0  0  0  0  0  0  0
   42.6187   29.5487   41.5787 H   0  0  0  0  0  0  0  0  0  0  0  0
   41.1658   30.6362   43.2121 H   0  0  0  0  0  0  0  0  0  0  0  0
   38.1601   33.3729   49.6167 H   0  0  0  0  0  0  0  0  0  0  0  0
  1 28  1  0
  1  2  1  0
  2  3  2  0
  3  4  1  0
  5  4  2  0
  6  5  1  0
  7  6  2  0
  8  7  1  0
  9 10  1  0
  9  8  2  0
 10 11  2  0
 11  2  1  0
 11  6  1  0
 12  1  1  0
 13 12  2  0
 14 13  1  0
 15 16  1  0
 15 14  2  0
 16 17  2  0
 17 12  1  0
 18 19  2  0
 18 16  1  0
 20 19  1  0
 21 20  2  0
 22 21  1  0
 22 27  2  0
 23 22  1  0
 24 23  2  0
 24 25  1  0
 25 26  2  0
 26 27  1  0
 27 18  1  0
  1 29  1  1
  4 30  1  0
  7 31  1  0
  8 32  1  0
  9 33  1  0
 10 34  1  0
 13 35  1  0
 14 36  1  0
 19 37  1  0
 20 38  1  0
 21 39  1  0
 23 40  1  0
 24 41  1  0
 25 42  1  0
 26 43  1  0
 28 44  1  0
M  END
>  <Score>  (1) 
-7.90121

$$$$
