
     RDKit          3D

 42 46  0  0  0  0  0  0  0  0999 V2000
   33.5700   26.8700   47.7090 C   0  0  0  0  0  0  0  0  0  0  0  0
   32.7360   27.4790   46.7840 C   0  0  0  0  0  0  0  0  0  0  0  0
   32.8520   28.8410   46.6640 C   0  0  0  0  0  0  0  0  0  0  0  0
   33.7490   29.4400   47.4500 N   0  0  0  0  0  0  0  0  0  0  0  0
   34.5560   28.9060   48.3350 C   0  0  0  0  0  0  0  0  0  0  0  0
   34.4140   27.6030   48.4160 N   0  0  0  0  0  0  0  0  0  0  0  0
   35.5510   29.4440   49.2320 C   0  0  0  0  0  0  0  0  0  0  0  0
   35.5790   29.1460   50.6100 C   0  0  0  0  0  0  0  0  0  0  0  0
   36.5160   29.6510   51.4730 C   0  0  0  0  0  0  0  0  0  0  0  0
   37.4920   30.4920   51.0190 C   0  0  0  0  0  0  0  0  0  0  0  0
   37.5170   30.8170   49.7000 C   0  0  0  0  0  0  0  0  0  0  0  0
   38.5210   31.6640   49.2930 C   0  0  0  0  0  0  0  0  0  0  0  0
   38.6120   32.0320   47.9830 C   0  0  0  0  0  0  0  0  0  0  0  0
   37.6730   31.5310   47.0920 C   0  0  0  0  0  0  0  0  0  0  0  0
   36.6910   30.6870   47.5600 C   0  0  0  0  0  0  0  0  0  0  0  0
   36.5650   30.2960   48.8500 C   0  0  0  0  0  0  0  0  0  0  0  0
   32.0840   29.7510   45.8530 C   0  0  0  0  0  0  0  0  0  0  0  0
   32.7600   30.5800   44.9430 C   0  0  0  0  0  0  0  0  0  0  0  0
   32.1670   31.4840   44.0940 C   0  0  0  0  0  0  0  0  0  0  0  0
   30.7980   31.6220   44.1030 C   0  0  0  0  0  0  0  0  0  0  0  0
   30.0750   30.8420   44.9650 C   0  0  0  0  0  0  0  0  0  0  0  0
   28.7040   30.9440   44.9580 C   0  0  0  0  0  0  0  0  0  0  0  0
   27.8970   30.1540   45.7800 C   0  0  0  0  0  0  0  0  0  0  0  0
   28.5670   29.2630   46.5990 C   0  0  0  0  0  0  0  0  0  0  0  0
   29.9390   29.1890   46.5810 C   0  0  0  0  0  0  0  0  0  0  0  0
   30.7340   29.9660   45.7780 C   0  0  0  0  0  0  0  0  0  0  0  0
   33.5299   25.7804   47.8545 H   0  0  0  0  0  0  0  0  0  0  0  0
   32.0206   26.9021   46.1795 H   0  0  0  0  0  0  0  0  0  0  0  0
   34.8082   28.4728   51.0134 H   0  0  0  0  0  0  0  0  0  0  0  0
   36.4820   29.3775   52.5379 H   0  0  0  0  0  0  0  0  0  0  0  0
   38.2451   30.8993   51.7097 H   0  0  0  0  0  0  0  0  0  0  0  0
   39.2501   32.0444   50.0235 H   0  0  0  0  0  0  0  0  0  0  0  0
   39.4092   32.7086   47.6412 H   0  0  0  0  0  0  0  0  0  0  0  0
   37.7128   31.8043   46.0272 H   0  0  0  0  0  0  0  0  0  0  0  0
   35.9577   30.3037   46.8352 H   0  0  0  0  0  0  0  0  0  0  0  0
   33.8564   30.4991   44.9065 H   0  0  0  0  0  0  0  0  0  0  0  0
   32.7815   32.0917   43.4135 H   0  0  0  0  0  0  0  0  0  0  0  0
   30.2981   32.3395   43.4357 H   0  0  0  0  0  0  0  0  0  0  0  0
   28.2275   31.6708   44.2837 H   0  0  0  0  0  0  0  0  0  0  0  0
   26.8000   30.2351   45.7763 H   0  0  0  0  0  0  0  0  0  0  0  0
   27.9954   28.6068   47.2718 H   0  0  0  0  0  0  0  0  0  0  0  0
   30.4278   28.4647   47.2492 H   0  0  0  0  0  0  0  0  0  0  0  0
  1  6  2  0
  2  1  1  0
  3  2  2  0
  3  4  1  0
  4  5  2  0
  5  6  1  0
  5  7  1  0
  7  8  2  0
  8  9  1  0
 10  9  2  0
 11 10  1  0
 12 11  2  0
 13 12  1  0
 14 15  1  0
 14 13  2  0
 15 16  2  0
 16  7  1  0
 16 11  1  0
 17  3  1  0
 18 17  2  0
 19 20  2  0
 19 18  1  0
 20 21  1  0
 21 26  2  0
 22 21  1  0
 22 23  2  0
 23 24  1  0
 25 24  2  0
 26 17  1  0
 26 25  1  0
  1 27  1  0
  2 28  1  0
  8 29  1  0
  9 30  1  0
 10 31  1  0
 12 32  1  0
 13 33  1  0
 14 34  1  0
 15 35  1  0
 18 36  1  0
 19 37  1  0
 20 38  1  0
 22 39  1  0
 23 40  1  0
 24 41  1  0
 25 42  1  0
M  END
>  <Score>  (1) 
-7.43933

$$$$
