
     RDKit          3D

 35 38  0  0  1  0  0  0  0  0999 V2000
   38.5350   32.0880   48.0020 C   0  0  1  0  0  0  0  0  0  0  0  0
   37.8640   31.1960   48.9410 C   0  0  0  0  0  0  0  0  0  0  0  0
   38.3670   31.0610   50.1700 N   0  0  0  0  0  0  0  0  0  0  0  0
   37.8160   30.2510   51.1080 C   0  0  0  0  0  0  0  0  0  0  0  0
   36.7250   29.5250   50.8700 N   0  0  0  0  0  0  0  0  0  0  0  0
   36.1310   29.5910   49.6500 C   0  0  0  0  0  0  0  0  0  0  0  0
   35.0130   28.8560   49.3730 C   0  0  0  0  0  0  0  0  0  0  0  0
   34.4080   28.9090   48.1550 C   0  0  0  0  0  0  0  0  0  0  0  0
   34.9870   29.7430   47.2220 C   0  0  0  0  0  0  0  0  0  0  0  0
   36.1120   30.4670   47.5340 C   0  0  0  0  0  0  0  0  0  0  0  0
   36.7360   30.4280   48.7510 C   0  0  0  0  0  0  0  0  0  0  0  0
   39.0400   31.9200   46.6690 C   0  0  0  0  0  0  0  0  0  0  0  0
   39.8810   32.9850   46.3080 C   0  0  0  0  0  0  0  0  0  0  0  0
   40.5920   32.9290   45.0550 C   0  0  0  0  0  0  0  0  0  0  0  0
   40.3810   31.8170   44.3070 N   0  0  0  0  0  0  0  0  0  0  0  0
   39.5540   30.8120   44.6970 C   0  0  0  0  0  0  0  0  0  0  0  0
   38.9010   30.8580   45.8440 N   0  0  0  0  0  0  0  0  0  0  0  0
   39.4020   29.6630   43.8090 C   0  0  0  0  0  0  0  0  0  0  0  0
   38.2190   29.0250   43.4920 C   0  0  0  0  0  0  0  0  0  0  0  0
   38.4600   28.0080   42.6450 N   0  0  0  0  0  0  0  0  0  0  0  0
   39.8030   27.9990   42.4230 C   0  0  0  0  0  0  0  0  0  0  0  0
   40.3510   28.9960   43.1270 N   0  0  0  0  0  0  0  0  0  0  0  0
   38.1900   33.2970   48.4480 O   0  0  0  0  0  0  0  0  0  0  0  0
   39.5178   31.6119   47.8697 H   0  0  0  0  0  0  0  0  0  0  0  0
   38.2868   30.1916   52.1004 H   0  0  0  0  0  0  0  0  0  0  0  0
   34.5916   28.2055   50.1535 H   0  0  0  0  0  0  0  0  0  0  0  0
   33.5075   28.3195   47.9276 H   0  0  0  0  0  0  0  0  0  0  0  0
   34.5441   29.8294   46.2188 H   0  0  0  0  0  0  0  0  0  0  0  0
   36.5377   31.1188   46.7569 H   0  0  0  0  0  0  0  0  0  0  0  0
   39.9961   33.8528   46.9741 H   0  0  0  0  0  0  0  0  0  0  0  0
   41.2628   33.7365   44.7264 H   0  0  0  0  0  0  0  0  0  0  0  0
   37.2271   29.3065   43.8751 H   0  0  0  0  0  0  0  0  0  0  0  0
   40.3446   27.2933   41.7760 H   0  0  0  0  0  0  0  0  0  0  0  0
   41.3560   29.2209   43.1445 H   0  0  0  0  0  0  0  0  0  0  0  0
   38.1903   33.2960   49.4380 H   0  0  0  0  0  0  0  0  0  0  0  0
  1 23  1  0
  1  2  1  0
  2  3  2  0
  3  4  1  0
  5  4  2  0
  6  5  1  0
  7  6  2  0
  8  7  1  0
  9 10  1  0
  9  8  2  0
 10 11  2  0
 11  2  1  0
 11  6  1  0
 12  1  1  0
 13 12  2  0
 14 13  1  0
 15 16  1  0
 15 14  2  0
 16 17  2  0
 17 12  1  0
 18 16  1  0
 19 18  2  0
 20 19  1  0
 21 20  2  0
 21 22  1  0
 22 18  1  0
  1 24  1  1
  4 25  1  0
  7 26  1  0
  8 27  1  0
  9 28  1  0
 10 29  1  0
 13 30  1  0
 14 31  1  0
 19 32  1  0
 21 33  1  0
 22 34  1  0
 23 35  1  0
M  END
>  <Score>  (1) 
-7.20636

$$$$
