
     RDKit          3D

 40 42  0  0  0  0  0  0  0  0999 V2000
   36.8460   30.8030   46.0940 C   0  0  0  0  0  0  0  0  0  0  0  0
   35.8160   30.0330   46.6430 C   0  0  0  0  0  0  0  0  0  0  0  0
   35.5120   29.9890   47.9680 C   0  0  0  0  0  0  0  0  0  0  0  0
   36.2300   30.7270   48.8680 C   0  0  0  0  0  0  0  0  0  0  0  0
   37.2350   31.4880   48.4010 C   0  0  0  0  0  0  0  0  0  0  0  0
   37.9570   32.2300   49.3130 C   0  0  0  0  0  0  0  0  0  0  0  0
   38.9890   33.0260   48.9240 C   0  0  0  0  0  0  0  0  0  0  0  0
   39.3070   33.0770   47.5740 C   0  0  0  0  0  0  0  0  0  0  0  0
   38.5690   32.3280   46.7020 C   0  0  0  0  0  0  0  0  0  0  0  0
   37.5400   31.5290   47.0500 C   0  0  0  0  0  0  0  0  0  0  0  0
   36.1320   31.3690   42.6100 C   0  0  0  0  0  0  0  0  0  0  0  0
   37.3150   31.0360   41.9180 C   0  0  0  0  0  0  0  0  0  0  0  0
   38.3750   30.6110   42.6520 C   0  0  0  0  0  0  0  0  0  0  0  0
   38.1850   30.5510   43.9710 N   0  0  0  0  0  0  0  0  0  0  0  0
   37.1500   30.8320   44.6820 C   0  0  0  0  0  0  0  0  0  0  0  0
   36.1240   31.2470   43.9400 N   0  0  0  0  0  0  0  0  0  0  0  0
   39.6260   30.2380   42.1120 N   0  0  0  0  0  0  0  0  0  0  0  0
   40.7490   29.9260   42.9120 C   0  0  0  0  0  0  0  0  0  0  0  0
   40.9620   30.6520   43.9660 N   0  0  0  0  0  0  0  0  0  0  0  0
   41.6060   28.8570   42.5700 N   0  0  0  0  0  0  0  0  0  0  0  0
   41.7010   30.5350   44.6510 H   0  0  0  0  0  0  0  0  0  0  0  0
   37.4380   31.1330   40.4390 C   0  0  0  0  0  0  0  0  0  0  0  0
   36.3100   31.6290   39.8320 F   0  0  0  0  0  0  0  0  0  0  0  0
   38.4310   32.0850   40.2020 F   0  0  0  0  0  0  0  0  0  0  0  0
   37.8940   29.9570   39.8760 F   0  0  0  0  0  0  0  0  0  0  0  0
   35.8990   30.6620   50.2060 O   0  0  0  0  0  0  0  0  0  0  0  0
   36.4190   29.6280   51.0240 C   0  0  0  0  0  0  0  0  0  0  0  0
   37.2300   28.7310   50.4000 F   0  0  0  0  0  0  0  0  0  0  0  0
   37.1970   30.2270   52.0060 F   0  0  0  0  0  0  0  0  0  0  0  0
   35.3120   28.9820   51.5830 F   0  0  0  0  0  0  0  0  0  0  0  0
   35.2109   29.4218   45.9572 H   0  0  0  0  0  0  0  0  0  0  0  0
   34.6834   29.3558   48.3179 H   0  0  0  0  0  0  0  0  0  0  0  0
   37.6919   32.1766   50.3792 H   0  0  0  0  0  0  0  0  0  0  0  0
   39.5568   33.6140   49.6602 H   0  0  0  0  0  0  0  0  0  0  0  0
   40.1345   33.7062   47.2144 H   0  0  0  0  0  0  0  0  0  0  0  0
   38.8341   32.3806   45.6357 H   0  0  0  0  0  0  0  0  0  0  0  0
   35.2405   31.7195   42.0692 H   0  0  0  0  0  0  0  0  0  0  0  0
   39.7245   30.1912   41.0878 H   0  0  0  0  0  0  0  0  0  0  0  0
   42.4208   28.6405   43.1618 H   0  0  0  0  0  0  0  0  0  0  0  0
   41.4163   28.2937   41.7288 H   0  0  0  0  0  0  0  0  0  0  0  0
  1  2  2  0
  1 10  1  0
  2  3  1  0
  3  4  2  0
  4 26  1  0
  5  4  1  0
  5  6  2  0
  7  6  1  0
  8  7  2  0
  9 10  2  0
  9  8  1  0
 10  5  1  0
 11 16  2  0
 12 11  1  0
 12 13  2  0
 13 14  1  0
 14 15  2  0
 15  1  1  0
 16 15  1  0
 17 13  1  0
 17 18  1  0
 18 19  2  0
 19 21  1  0
 20 18  1  0
 22 12  1  0
 23 22  1  0
 24 22  1  0
 25 22  1  0
 26 27  1  0
 27 30  1  0
 27 29  1  0
 28 27  1  0
  2 31  1  0
  3 32  1  0
  6 33  1  0
  7 34  1  0
  8 35  1  0
  9 36  1  0
 11 37  1  0
 17 38  1  0
 20 39  1  0
 20 40  1  0
M  END
>  <Score>  (1) 
-7.36733

$$$$
