MODEL 1
REMARK minimizedAffinity -2.33830738REMARK  Name = 7
REMARK  0 active torsions:
REMARK  status: ('A' for Active; 'I' for Inactive)
REMARK                            x       y       z     vdW  Elec       q    Type
REMARK                         _______ _______ _______ _____ _____    ______ ____
ROOT
ATOM      1  C   UNL     1      38.264  29.083  43.284  0.00  0.00    +0.000 A 
ATOM      2  C   UNL     1      37.619  27.891  43.680  0.00  0.00    +0.000 A 
ATOM      3  C   UNL     1      36.559  27.427  42.887  0.00  0.00    +0.000 A 
ATOM      4  N   UNL     1      36.211  28.155  41.785  0.00  0.00    +0.000 NA
ATOM      5  C   UNL     1      36.853  29.293  41.437  0.00  0.00    +0.000 A 
ATOM      6  N   UNL     1      37.876  29.750  42.184  0.00  0.00    +0.000 NA
ENDROOT
TORSDOF 0
ENDMDL
MODEL 2
REMARK minimizedAffinity -2.31700039REMARK  Name = 7
REMARK  0 active torsions:
REMARK  status: ('A' for Active; 'I' for Inactive)
REMARK                            x       y       z     vdW  Elec       q    Type
REMARK                         _______ _______ _______ _____ _____    ______ ____
ROOT
ATOM      1  C   UNL     1      37.660  28.122  43.678  0.00  0.00    +0.000 A 
ATOM      2  C   UNL     1      36.663  27.521  42.879  0.00  0.00    +0.000 A 
ATOM      3  C   UNL     1      36.330  28.146  41.668  0.00  0.00    +0.000 A 
ATOM      4  N   UNL     1      36.984  29.297  41.335  0.00  0.00    +0.000 NA
ATOM      5  C   UNL     1      37.936  29.843  42.126  0.00  0.00    +0.000 A 
ATOM      6  N   UNL     1      38.271  29.254  43.289  0.00  0.00    +0.000 NA
ENDROOT
TORSDOF 0
ENDMDL
MODEL 3
REMARK minimizedAffinity -2.30654073REMARK  Name = 7
REMARK  0 active torsions:
REMARK  status: ('A' for Active; 'I' for Inactive)
REMARK                            x       y       z     vdW  Elec       q    Type
REMARK                         _______ _______ _______ _____ _____    ______ ____
ROOT
ATOM      1  C   UNL     1      36.281  28.148  41.679  0.00  0.00    +0.000 A 
ATOM      2  C   UNL     1      36.577  27.420  42.852  0.00  0.00    +0.000 A 
ATOM      3  C   UNL     1      37.602  27.900  43.680  0.00  0.00    +0.000 A 
ATOM      4  N   UNL     1      38.254  29.039  43.303  0.00  0.00    +0.000 NA
ATOM      5  C   UNL     1      37.942  29.711  42.172  0.00  0.00    +0.000 A 
ATOM      6  N   UNL     1      36.958  29.267  41.368  0.00  0.00    +0.000 NA
ENDROOT
TORSDOF 0
ENDMDL
MODEL 4
REMARK minimizedAffinity -2.17909789REMARK  Name = 7
REMARK  0 active torsions:
REMARK  status: ('A' for Active; 'I' for Inactive)
REMARK                            x       y       z     vdW  Elec       q    Type
REMARK                         _______ _______ _______ _____ _____    ______ ____
ROOT
ATOM      1  C   UNL     1      38.884  28.098  43.241  0.00  0.00    +0.000 A 
ATOM      2  C   UNL     1      37.557  28.310  43.671  0.00  0.00    +0.000 A 
ATOM      3  C   UNL     1      36.593  27.355  43.314  0.00  0.00    +0.000 A 
ATOM      4  N   UNL     1      36.993  26.281  42.572  0.00  0.00    +0.000 NA
ATOM      5  C   UNL     1      38.276  26.110  42.180  0.00  0.00    +0.000 A 
ATOM      6  N   UNL     1      39.215  27.015  42.517  0.00  0.00    +0.000 NA
ENDROOT
TORSDOF 0
ENDMDL
MODEL 5
REMARK minimizedAffinity -2.1722002REMARK  Name = 7
REMARK  0 active torsions:
REMARK  status: ('A' for Active; 'I' for Inactive)
REMARK                            x       y       z     vdW  Elec       q    Type
REMARK                         _______ _______ _______ _____ _____    ______ ____
ROOT
ATOM      1  C   UNL     1      38.522  26.693  42.971  0.00  0.00    +0.000 A 
ATOM      2  C   UNL     1      39.240  27.878  43.240  0.00  0.00    +0.000 A 
ATOM      3  C   UNL     1      38.582  29.101  43.037  0.00  0.00    +0.000 A 
ATOM      4  N   UNL     1      37.292  29.073  42.590  0.00  0.00    +0.000 NA
ATOM      5  C   UNL     1      36.636  27.916  42.345  0.00  0.00    +0.000 A 
ATOM      6  N   UNL     1      37.250  26.734  42.538  0.00  0.00    +0.000 NA
ENDROOT
TORSDOF 0
ENDMDL
MODEL 6
REMARK minimizedAffinity -2.14290524REMARK  Name = 7
REMARK  0 active torsions:
REMARK  status: ('A' for Active; 'I' for Inactive)
REMARK                            x       y       z     vdW  Elec       q    Type
REMARK                         _______ _______ _______ _____ _____    ______ ____
ROOT
ATOM      1  C   UNL     1      35.470  28.910  40.703  0.00  0.00    +0.000 A 
ATOM      2  C   UNL     1      35.805  30.224  40.314  0.00  0.00    +0.000 A 
ATOM      3  C   UNL     1      36.905  30.831  40.939  0.00  0.00    +0.000 A 
ATOM      4  N   UNL     1      37.583  30.118  41.886  0.00  0.00    +0.000 NA
ATOM      5  C   UNL     1      37.233  28.858  42.231  0.00  0.00    +0.000 A 
ATOM      6  N   UNL     1      36.183  28.259  41.639  0.00  0.00    +0.000 NA
ENDROOT
TORSDOF 0
ENDMDL
MODEL 7
REMARK minimizedAffinity -2.12685037REMARK  Name = 7
REMARK  0 active torsions:
REMARK  status: ('A' for Active; 'I' for Inactive)
REMARK                            x       y       z     vdW  Elec       q    Type
REMARK                         _______ _______ _______ _____ _____    ______ ____
ROOT
ATOM      1  C   UNL     1      37.377  28.479  43.678  0.00  0.00    +0.000 A 
ATOM      2  C   UNL     1      38.676  28.684  43.164  0.00  0.00    +0.000 A 
ATOM      3  C   UNL     1      39.196  27.712  42.297  0.00  0.00    +0.000 A 
ATOM      4  N   UNL     1      38.420  26.627  42.003  0.00  0.00    +0.000 NA
ATOM      5  C   UNL     1      37.179  26.466  42.515  0.00  0.00    +0.000 A 
ATOM      6  N   UNL     1      36.662  27.391  43.345  0.00  0.00    +0.000 NA
ENDROOT
TORSDOF 0
ENDMDL
MODEL 8
REMARK minimizedAffinity -2.12260938REMARK  Name = 7
REMARK  0 active torsions:
REMARK  status: ('A' for Active; 'I' for Inactive)
REMARK                            x       y       z     vdW  Elec       q    Type
REMARK                         _______ _______ _______ _____ _____    ______ ____
ROOT
ATOM      1  C   UNL     1      37.933  27.253  41.455  0.00  0.00    +0.000 A 
ATOM      2  C   UNL     1      37.009  26.792  42.418  0.00  0.00    +0.000 A 
ATOM      3  C   UNL     1      36.806  27.582  43.559  0.00  0.00    +0.000 A 
ATOM      4  N   UNL     1      37.513  28.744  43.674  0.00  0.00    +0.000 NA
ATOM      5  C   UNL     1      38.390  29.154  42.729  0.00  0.00    +0.000 A 
ATOM      6  N   UNL     1      38.594  28.411  41.625  0.00  0.00    +0.000 NA
ENDROOT
TORSDOF 0
ENDMDL
MODEL 9
REMARK minimizedAffinity -2.10850191REMARK  Name = 7
REMARK  0 active torsions:
REMARK  status: ('A' for Active; 'I' for Inactive)
REMARK                            x       y       z     vdW  Elec       q    Type
REMARK                         _______ _______ _______ _____ _____    ______ ____
ROOT
ATOM      1  C   UNL     1      36.322  30.787  41.006  0.00  0.00    +0.000 A 
ATOM      2  C   UNL     1      37.044  31.864  40.448  0.00  0.00    +0.000 A 
ATOM      3  C   UNL     1      38.416  31.946  40.731  0.00  0.00    +0.000 A 
ATOM      4  N   UNL     1      38.969  30.986  41.528  0.00  0.00    +0.000 NA
ATOM      5  C   UNL     1      38.244  29.967  42.043  0.00  0.00    +0.000 A 
ATOM      6  N   UNL     1      36.928  29.870  41.778  0.00  0.00    +0.000 NA
ENDROOT
TORSDOF 0
ENDMDL
