MODEL 1
REMARK minimizedAffinity -2.33830738REMARK  Name = 7
REMARK  0 active torsions:
REMARK  status: ('A' for Active; 'I' for Inactive)
REMARK                            x       y       z     vdW  Elec       q    Type
REMARK                         _______ _______ _______ _____ _____    ______ ____
ROOT
ATOM      1  C   UNL     1      38.264  29.083  43.284  0.00  0.00    +0.000 A 
ATOM      2  C   UNL     1      37.619  27.891  43.680  0.00  0.00    +0.000 A 
ATOM      3  C   UNL     1      36.559  27.427  42.887  0.00  0.00    +0.000 A 
ATOM      4  N   UNL     1      36.211  28.155  41.785  0.00  0.00    +0.000 NA
ATOM      5  C   UNL     1      36.853  29.293  41.437  0.00  0.00    +0.000 A 
ATOM      6  N   UNL     1      37.876  29.750  42.184  0.00  0.00    +0.000 NA
ENDROOT
TORSDOF 0
ENDMDL
