MODEL 4
REMARK minimizedAffinity -2.17909789REMARK  Name = 7
REMARK  0 active torsions:
REMARK  status: ('A' for Active; 'I' for Inactive)
REMARK                            x       y       z     vdW  Elec       q    Type
REMARK                         _______ _______ _______ _____ _____    ______ ____
ROOT
ATOM      1  C   UNL     1      38.884  28.098  43.241  0.00  0.00    +0.000 A 
ATOM      2  C   UNL     1      37.557  28.310  43.671  0.00  0.00    +0.000 A 
ATOM      3  C   UNL     1      36.593  27.355  43.314  0.00  0.00    +0.000 A 
ATOM      4  N   UNL     1      36.993  26.281  42.572  0.00  0.00    +0.000 NA
ATOM      5  C   UNL     1      38.276  26.110  42.180  0.00  0.00    +0.000 A 
ATOM      6  N   UNL     1      39.215  27.015  42.517  0.00  0.00    +0.000 NA
ENDROOT
TORSDOF 0
ENDMDL
