./init_pose/1_4.pdbqt
 OpenBabel03232521043D

  6  6  0  0  0  0  0  0  0  0999 V2000
   38.5220   26.6930   42.9710 C   0  0  0  0  0  0  0  0  0  0  0  0
   39.2400   27.8780   43.2400 C   0  0  0  0  0  0  0  0  0  0  0  0
   38.5820   29.1010   43.0370 C   0  0  0  0  0  0  0  0  0  0  0  0
   37.2920   29.0730   42.5900 N   0  0  0  0  0  0  0  0  0  0  0  0
   36.6360   27.9160   42.3450 C   0  0  0  0  0  0  0  0  0  0  0  0
   37.2500   26.7340   42.5380 N   0  0  0  0  0  0  0  0  0  0  0  0
  1  2  1  0  0  0  0
  3  2  2  0  0  0  0
  4  3  1  0  0  0  0
  5  6  1  0  0  0  0
  5  4  2  0  0  0  0
  6  1  2  0  0  0  0
M  END
>  <MODEL>
5

>  <REMARK>
 minimizedAffinity -2.1722002REMARK  Name = 7
  0 active torsions:
  status: ('A' for Active; 'I' for Inactive)
                            x       y       z     vdW  Elec       q    Type
                         _______ _______ _______ _____ _____    ______ ____

>  <TORSDO>
F 0

$$$$
