./init_pose/1_8.pdbqt
 OpenBabel03232521043D

  6  6  0  0  0  0  0  0  0  0999 V2000
   36.3220   30.7870   41.0060 C   0  0  0  0  0  0  0  0  0  0  0  0
   37.0440   31.8640   40.4480 C   0  0  0  0  0  0  0  0  0  0  0  0
   38.4160   31.9460   40.7310 C   0  0  0  0  0  0  0  0  0  0  0  0
   38.9690   30.9860   41.5280 N   0  0  0  0  0  0  0  0  0  0  0  0
   38.2440   29.9670   42.0430 C   0  0  0  0  0  0  0  0  0  0  0  0
   36.9280   29.8700   41.7780 N   0  0  0  0  0  0  0  0  0  0  0  0
  1  6  1  0  0  0  0
  2  3  1  0  0  0  0
  2  1  2  0  0  0  0
  3  4  2  0  0  0  0
  4  5  1  0  0  0  0
  6  5  2  0  0  0  0
M  END
>  <MODEL>
9

>  <REMARK>
 minimizedAffinity -2.10850191REMARK  Name = 7
  0 active torsions:
  status: ('A' for Active; 'I' for Inactive)
                            x       y       z     vdW  Elec       q    Type
                         _______ _______ _______ _____ _____    ______ ____

>  <TORSDO>
F 0

$$$$
