RP4
     RDKit          2D

 25 27  0  0  0  0  0  0  0  0999 V2000
    1.4800    2.1089    0.0000 O   0  0  0  0  0  0  0  0  0  0  0  0
    1.7622    1.3336    0.0000 C   0  0  0  0  0  0  0  0  0  0  0  0
    2.5747    1.1904    0.0000 O   0  0  0  0  0  0  0  0  0  0  0  0
    1.2319    0.7016    0.0000 C   0  0  0  0  0  0  0  0  0  0  0  0
    0.7016    1.3336    0.0000 O   0  0  0  0  0  0  0  0  0  0  0  0
    1.9464    0.2891    0.0000 C   0  0  0  0  0  0  0  0  0  0  0  0
    1.9464   -0.5359    0.0000 C   0  0  0  0  0  0  0  0  0  0  0  0
    2.6608   -0.9484    0.0000 O   0  0  0  0  0  0  0  0  0  0  0  0
    1.2319   -0.9484    0.0000 C   0  0  0  0  0  0  0  0  0  0  0  0
    1.2319   -1.7734    0.0000 O   0  0  0  0  0  0  0  0  0  0  0  0
    0.5174   -0.5359    0.0000 C   0  0  0  0  0  0  0  0  0  0  0  0
    0.5174    0.2891    0.0000 C   0  0  0  0  0  0  0  0  0  0  0  0
   -0.1971   -0.9484    0.0000 C   0  0  0  0  0  0  0  0  0  0  0  0
   -0.1971   -1.7734    0.0000 C   0  0  0  0  0  0  0  0  0  0  0  0
   -0.9115   -2.1859    0.0000 C   0  0  0  0  0  0  0  0  0  0  0  0
   -1.6260   -1.7734    0.0000 C   0  0  0  0  0  0  0  0  0  0  0  0
   -1.6260   -0.9484    0.0000 C   0  0  0  0  0  0  0  0  0  0  0  0
   -0.9115   -0.5359    0.0000 C   0  0  0  0  0  0  0  0  0  0  0  0
   -2.3405   -0.5359    0.0000 S   0  0  0  0  0  0  0  0  0  0  0  0
   -2.3405    0.2891    0.0000 C   0  0  0  0  0  0  0  0  0  0  0  0
   -3.0549    0.7016    0.0000 C   0  0  0  0  0  0  0  0  0  0  0  0
   -3.0549    1.5266    0.0000 C   0  0  0  0  0  0  0  0  0  0  0  0
   -2.3405    1.9391    0.0000 C   0  0  0  0  0  0  0  0  0  0  0  0
   -1.6260    1.5266    0.0000 C   0  0  0  0  0  0  0  0  0  0  0  0
   -1.6260    0.7016    0.0000 C   0  0  0  0  0  0  0  0  0  0  0  0
  1  2  2  0
  2  3  1  0
  4  2  1  0
  4  5  1  6
  4  6  1  0
  4 12  1  0
  6  7  1  0
  7  8  1  1
  7  9  1  0
  9 10  1  6
  9 11  1  0
 11 12  2  0
 11 13  1  0
 13 14  2  0
 13 18  1  0
 14 15  1  0
 15 16  2  0
 16 17  1  0
 17 18  2  0
 17 19  1  0
 19 20  1  0
 20 21  2  0
 20 25  1  0
 21 22  1  0
 22 23  2  0
 23 24  1  0
 24 25  2  0
M  END
>  <DRUGBANK_ID>  (1) 
DB08485

>  <COMMON_NAME>  (1) 
(1S,4S,5S)-1,4,5-TRIHYDROXY-3-[3-(PHENYLTHIO)PHENYL]CYCLOHEX-2-ENE-1-CARBOXYLIC ACID

$$$$
