
     RDKit          2D

 28 32  0  0  0  0  0  0  0  0999 V2000
   -5.3350   -1.1333    0.0000 O   0  0  0  0  0  0  0  0  0  0  0  0
   -5.1635   -0.3263    0.0000 C   0  0  0  0  0  0  0  0  0  0  0  0
   -5.7155    0.2868    0.0000 C   0  0  0  0  0  0  0  0  0  0  0  0
   -5.3030    1.0012    0.0000 C   0  0  0  0  0  0  0  0  0  0  0  0
   -4.4960    0.8297    0.0000 C   0  0  0  0  0  0  0  0  0  0  0  0
   -4.4098    0.0092    0.0000 N   0  0  0  0  0  0  0  0  0  0  0  0
   -3.6953   -0.4033    0.0000 C   0  0  0  0  0  0  0  0  0  0  0  0
   -2.9808    0.0092    0.0000 C   0  0  0  0  0  0  0  0  0  0  0  0
   -2.2664   -0.4033    0.0000 C   0  0  0  0  0  0  0  0  0  0  0  0
   -2.2664   -1.2283    0.0000 C   0  0  0  0  0  0  0  0  0  0  0  0
   -1.5519   -1.6408    0.0000 O   0  0  0  0  0  0  0  0  0  0  0  0
   -0.8374   -1.2283    0.0000 C   0  0  0  0  0  0  0  0  0  0  0  0
   -0.1230   -1.6408    0.0000 C   0  0  0  0  0  0  0  0  0  0  0  0
    0.5915   -1.2283    0.0000 C   0  0  0  0  0  0  0  0  0  0  0  0
    0.5915   -0.4033    0.0000 C   0  0  0  0  0  0  0  0  0  0  0  0
    1.2365    0.1111    0.0000 C   0  0  0  0  0  0  0  0  0  0  0  0
    2.0408   -0.0725    0.0000 C   0  0  0  0  0  0  0  0  0  0  0  0
    2.3988   -0.8158    0.0000 N   0  0  0  0  0  0  0  0  0  0  0  0
    2.0408   -1.5591    0.0000 C   0  0  0  0  0  0  0  0  0  0  0  0
    1.2365   -1.7427    0.0000 C   0  0  0  0  0  0  0  0  0  0  0  0
    3.2238   -0.8158    0.0000 C   0  0  0  0  0  0  0  0  0  0  0  0
    3.8072   -0.2324    0.0000 C   0  0  0  0  0  0  0  0  0  0  0  0
    4.3905   -0.8158    0.0000 C   0  0  0  0  0  0  0  0  0  0  0  0
    3.8072   -1.3991    0.0000 C   0  0  0  0  0  0  0  0  0  0  0  0
   -0.1230    0.0092    0.0000 C   0  0  0  0  0  0  0  0  0  0  0  0
   -0.8374   -0.4033    0.0000 C   0  0  0  0  0  0  0  0  0  0  0  0
   -2.9808   -1.6408    0.0000 N   0  0  0  0  0  0  0  0  0  0  0  0
   -3.6953   -1.2283    0.0000 C   0  0  0  0  0  0  0  0  0  0  0  0
  1  2  2  0
  2  3  1  0
  2  6  1  0
  3  4  1  0
  4  5  1  0
  5  6  1  0
  6  7  1  0
  7  8  2  0
  7 28  1  0
  8  9  1  0
  9 10  2  0
 10 11  1  0
 10 27  1  0
 11 12  1  0
 12 13  2  0
 12 26  1  0
 13 14  1  0
 14 15  2  0
 14 20  1  0
 15 16  1  0
 15 25  1  0
 16 17  1  0
 17 18  1  0
 18 19  1  0
 18 21  1  0
 19 20  1  0
 21 22  1  0
 21 24  1  0
 22 23  1  0
 23 24  1  0
 25 26  2  0
 27 28  2  0
M  END
>  <DRUGBANK_ID>  (1) 
DB15120

>  <COMMON_NAME>  (1) 
GSK-239512

>  <CAS_NUMBER>  (1) 
720691-69-0

>  <UNII>  (1) 
4I7U5C459M

$$$$
