
     RDKit          2D

 27 27  0  0  1  0  0  0  0  0999 V2000
   -2.9707   -0.0651    0.0000 C   0  0  0  0  0  0  0  0  0  0  0  0
   -2.2562   -0.4776    0.0000 N   0  0  0  0  0  0  0  0  0  0  0  0
   -2.2562   -1.3026    0.0000 C   0  0  0  0  0  0  0  0  0  0  0  0
   -1.5418   -0.0651    0.0000 C   0  0  0  0  0  0  0  0  0  0  0  0
   -0.8273   -0.4776    0.0000 C   0  0  0  0  0  0  0  0  0  0  0  0
   -0.1128   -0.0651    0.0000 C   0  0  0  0  0  0  0  0  0  0  0  0
    0.6017   -0.4776    0.0000 C   0  0  0  0  0  0  0  0  0  0  0  0
    1.3161   -0.0651    0.0000 C   0  0  0  0  0  0  0  0  0  0  0  0
    2.0306   -0.4776    0.0000 C   0  0  0  0  0  0  0  0  0  0  0  0
    2.0306   -1.3026    0.0000 C   0  0  0  0  0  0  0  0  0  0  0  0
    1.3161   -1.7151    0.0000 C   0  0  0  0  0  0  0  0  0  0  0  0
    0.6017   -1.3026    0.0000 C   0  0  0  0  0  0  0  0  0  0  0  0
    2.7451   -1.7151    0.0000 Cl  0  0  0  0  0  0  0  0  0  0  0  0
   -0.1128    0.7599    0.0000 C   0  0  0  0  0  0  0  0  0  0  0  0
   -0.8273    1.1724    0.0000 C   0  0  0  0  0  0  0  0  0  0  0  0
   -0.8273    1.9974    0.0000 C   0  0  0  0  0  0  0  0  0  0  0  0
   -0.1128    2.4099    0.0000 C   0  0  0  0  0  0  0  0  0  0  0  0
    0.6017    1.9974    0.0000 C   0  0  0  0  0  0  0  0  0  0  0  0
    0.6017    1.1724    0.0000 N   0  0  0  0  0  0  0  0  0  0  0  0
    6.5754    0.7145    0.0000 C   0  0  0  0  0  0  0  0  0  0  0  0
    5.7504    0.7145    0.0000 C   0  0  0  0  0  0  0  0  0  0  0  0
    5.3379    0.0000    0.0000 C   0  0  0  0  0  0  0  0  0  0  0  0
    4.5129    0.0000    0.0000 O   0  0  0  0  0  0  0  0  0  0  0  0
    5.7504   -0.7145    0.0000 O   0  0  0  0  0  0  0  0  0  0  0  0
    6.9879    0.0000    0.0000 C   0  0  0  0  0  0  0  0  0  0  0  0
    7.8129   -0.0000    0.0000 O   0  0  0  0  0  0  0  0  0  0  0  0
    6.5754   -0.7145    0.0000 O   0  0  0  0  0  0  0  0  0  0  0  0
  1  2  1  0
  2  3  1  0
  2  4  1  0
  4  5  1  0
  6  5  1  6
  6  7  1  0
  6 14  1  0
  7  8  2  0
  7 12  1  0
  8  9  1  0
  9 10  2  0
 10 11  1  0
 10 13  1  0
 11 12  2  0
 14 15  2  0
 14 19  1  0
 15 16  1  0
 16 17  2  0
 17 18  1  0
 18 19  2  0
 20 21  2  0
 20 25  1  0
 21 22  1  0
 22 23  2  0
 22 24  1  0
 25 26  2  0
 25 27  1  0
M  END
>  <DRUGBANK_ID>  (1) 
DB09555

>  <COMMON_NAME>  (1) 
Dexchlorpheniramine maleate

>  <CAS_NUMBER>  (1) 
2438-32-6

>  <UNII>  (1) 
B10YD955QW

>  <SYNONYMS>  (1) 
Dexchlorpheniramine maleate

$$$$
