
     RDKit          2D

 30 35  0  0  0  0  0  0  0  0999 V2000
    6.0176    9.3571    0.0000 C   0  0  0  0  0  0  0  0  0  0  0  0
    5.3031    8.9446    0.0000 C   0  0  0  0  0  0  0  0  0  0  0  0
    5.2168    8.1241    0.0000 C   0  0  0  0  0  0  0  0  0  0  0  0
    4.4099    7.9526    0.0000 N   0  0  0  0  0  0  0  0  0  0  0  0
    3.9974    7.2381    0.0000 N   0  0  0  0  0  0  0  0  0  0  0  0
    3.1724    7.2381    0.0000 C   0  0  0  0  0  0  0  0  0  0  0  0
    2.7599    7.9526    0.0000 C   0  0  0  0  0  0  0  0  0  0  0  0
    3.1724    8.6671    0.0000 C   0  0  0  0  0  0  0  0  0  0  0  0
    2.7599    9.3816    0.0000 C   0  0  0  0  0  0  0  0  0  0  0  0
    3.9974    8.6671    0.0000 C   0  0  0  0  0  0  0  0  0  0  0  0
    4.5494    9.2802    0.0000 N   0  0  0  0  0  0  0  0  0  0  0  0
    2.7599    6.5237    0.0000 C   0  0  0  0  0  0  0  0  0  0  0  0
    3.1724    5.8092    0.0000 C   0  0  0  0  0  0  0  0  0  0  0  0
    2.7599    5.0947    0.0000 C   0  0  0  0  0  0  0  0  0  0  0  0
    3.1724    4.3803    0.0000 O   0  0  0  0  0  0  0  0  0  0  0  0
    1.9349    5.0947    0.0000 N   0  0  0  0  0  0  0  0  0  0  0  0
    1.5224    4.3803    0.0000 C   0  0  0  0  0  0  0  0  0  0  0  0
    0.6974    4.3803    0.0000 C   0  0  0  0  0  0  0  0  0  0  0  0
    0.2849    5.0947    0.0000 C   0  0  0  0  0  0  0  0  0  0  0  0
    0.6974    5.8092    0.0000 C   0  0  0  0  0  0  0  0  0  0  0  0
    1.5224    5.8092    0.0000 C   0  0  0  0  0  0  0  0  0  0  0  0
    1.9349    6.5237    0.0000 N   0  0  0  0  0  0  0  0  0  0  0  0
    0.2849    3.6658    0.0000 N   0  0  0  0  0  0  0  0  0  0  0  0
    0.6974    2.9513    0.0000 C   0  0  0  0  0  0  0  0  0  0  0  0
    0.2849    2.2368    0.0000 C   0  0  0  0  0  0  0  0  0  0  0  0
   -0.5401    2.2368    0.0000 N   0  0  0  0  0  0  0  0  0  0  0  0
   -0.9526    2.9513    0.0000 C   0  0  0  0  0  0  0  0  0  0  0  0
   -1.6671    2.5388    0.0000 C   0  0  0  0  0  0  0  0  0  0  0  0
   -1.6671    3.3638    0.0000 C   0  0  0  0  0  0  0  0  0  0  0  0
   -0.5401    3.6658    0.0000 C   0  0  0  0  0  0  0  0  0  0  0  0
  1  2  1  0
  2  3  2  0
  2 11  1  0
  3  4  1  0
  4  5  1  0
  4 10  1  0
  5  6  2  0
  6  7  1  0
  6 12  1  0
  7  8  2  0
  8  9  1  0
  8 10  1  0
 10 11  2  0
 12 13  2  0
 12 22  1  0
 13 14  1  0
 14 15  2  0
 14 16  1  0
 16 17  1  0
 16 21  1  0
 17 18  2  0
 18 19  1  0
 18 23  1  0
 19 20  2  0
 20 21  1  0
 21 22  2  0
 23 24  1  0
 23 30  1  0
 24 25  1  0
 25 26  1  0
 26 27  1  0
 27 28  1  0
 27 29  1  0
 27 30  1  0
 28 29  1  0
M  END
>  <DRUGBANK_ID>  (1) 
DB15305

>  <COMMON_NAME>  (1) 
Risdiplam

>  <CAS_NUMBER>  (1) 
1825352-65-5

>  <UNII>  (1) 
76RS4S2ET1

>  <SYNONYMS>  (1) 
Risdiplam; Risdiplamum

$$$$
