
     RDKit          2D

 32 32  0  0  1  0  0  0  0  0999 V2000
    3.1110    2.5694    0.0000 C   0  0  0  0  0  0  0  0  0  0  0  0
    7.7017   -1.9520    0.0000 C   0  0  0  0  0  0  0  0  0  0  0  0
    3.3810    1.7898    0.0000 C   0  0  0  0  0  0  0  0  0  0  0  0
    7.4317   -1.1725    0.0000 C   0  0  0  0  0  0  0  0  0  0  0  0
    4.4612    3.0371    0.0000 C   0  0  0  0  0  0  0  0  0  0  0  0
    4.7313   -2.1079    0.0000 C   0  0  0  0  0  0  0  0  0  0  0  0
    5.2713    0.6984    0.0000 C   0  0  0  0  0  0  0  0  0  0  0  0
    3.6511    3.1930    0.0000 C   0  0  0  0  0  0  0  0  0  0  0  0
    8.5119   -2.1079    0.0000 C   0  0  0  0  0  0  0  0  0  0  0  0
    5.5414   -0.0811    0.0000 C   0  0  0  0  0  0  0  0  0  0  0  0
    4.7313    2.2575    0.0000 C   0  0  0  0  0  0  0  0  0  0  0  0
    4.1912    1.6339    0.0000 C   0  0  0  0  0  0  0  0  0  0  0  0
    6.6216   -1.0166    0.0000 C   0  0  0  0  0  0  0  0  0  0  0  0
    5.0013   -2.8875    0.0000 C   0  0  0  0  0  0  0  0  0  0  0  0
    5.0013   -0.7048    0.0000 C   0  0  0  0  0  0  0  0  0  0  0  0
    8.7819   -2.8875    0.0000 C   0  0  0  0  0  0  0  0  0  0  0  0
    9.0520   -1.4843    0.0000 N   0  0  0  0  0  0  0  0  0  0  0  0
    5.2713   -1.4843    0.0000 N   0  0  0  0  0  0  0  0  0  0  0  0
    6.3515   -0.2370    0.0000 N   0  0  0  0  0  0  0  0  0  0  0  0
    3.3810    3.9726    0.0000 N   0  0  0  0  0  0  0  0  0  0  0  0
    5.5414    2.1016    0.0000 N   0  0  0  0  0  0  0  0  0  0  0  0
    6.0815   -1.6402    0.0000 O   0  0  0  0  0  0  0  0  0  0  0  0
    5.8114   -3.0434    0.0000 O   0  0  0  0  0  0  0  0  0  0  0  0
    4.4612   -3.5111    0.0000 O   0  0  0  0  0  0  0  0  0  0  0  0
    4.1912   -0.5488    0.0000 O   0  0  0  0  0  0  0  0  0  0  0  0
    9.5921   -3.0434    0.0000 O   0  0  0  0  0  0  0  0  0  0  0  0
    8.2418   -3.5111    0.0000 O   0  0  0  0  0  0  0  0  0  0  0  0
    2.5709    4.1285    0.0000 O   0  0  0  0  0  0  0  0  0  0  0  0
    3.9211    4.5962    0.0000 O   0  0  0  0  0  0  0  0  0  0  0  0
    5.8114    1.3221    0.0000 O   0  0  0  0  0  0  0  0  0  0  0  0
    6.0815    2.7253    0.0000 O   0  0  0  0  0  0  0  0  0  0  0  0
    4.4612    0.8543    0.0000 S   0  0  0  0  0  0  0  0  0  0  0  0
  3  1  2  0
  4  2  1  0
  8  1  1  0
  8  5  2  0
  9  2  1  0
  9 17  1  6
 10  7  1  6
 10 19  1  0
 11  5  1  0
 12  3  1  0
 12 11  2  0
 13  4  1  0
 14  6  1  0
 15 10  1  0
 16  9  1  0
 18  6  1  0
 18 15  1  0
 19 13  1  0
 20  8  1  0
 21 11  1  0
 22 13  2  0
 23 14  1  0
 24 14  2  0
 25 15  2  0
 26 16  1  0
 27 16  2  0
 28 20  1  0
 29 20  2  0
 30 21  1  0
 31 21  2  0
 32  7  1  0
 32 12  1  0
M  CHG  4  20   1  21   1  28  -1  30  -1
M  END
>  <DRUGBANK_ID>  (1) 
DB02458

>  <SECONDARY_ACCESSION_NUMBERS>  (1) 
EXPT01572; DB04412

>  <COMMON_NAME>  (1) 
S-(2,4-dinitrophenyl)glutathione

>  <CAS_NUMBER>  (1) 
26289-39-4

>  <UNII>  (1) 
HL4G8D2C8T

>  <SYNONYMS>  (1) 
dinitrophenyl-S-glutathione; DNP-S-glutathione; DNP-SGc

$$$$
