
     RDKit          2D

 13 14  0  0  1  0  0  0  0  0999 V2000
    0.8106   -1.0709    0.0000 C   0  0  0  0  0  0  0  0  0  0  0  0
    0.8106   -0.2459    0.0000 C   0  0  0  0  0  0  0  0  0  0  0  0
    0.0962    0.1666    0.0000 C   0  0  0  0  0  0  0  0  0  0  0  0
    0.0962    0.9916    0.0000 C   0  0  0  0  0  0  0  0  0  0  0  0
    0.8106    1.4041    0.0000 C   0  0  0  0  0  0  0  0  0  0  0  0
    1.5251    0.9916    0.0000 C   0  0  0  0  0  0  0  0  0  0  0  0
    1.5251    0.1666    0.0000 C   0  0  0  0  0  0  0  0  0  0  0  0
    2.2396   -0.2459    0.0000 O   0  0  0  0  0  0  0  0  0  0  0  0
    0.9481    0.8541    0.0000 C   0  0  0  0  0  0  0  0  0  0  0  0
    0.9481    0.3041    0.0000 O   0  0  0  0  0  0  0  0  0  0  0  0
    0.1925    0.5230    0.0000 C   0  0  0  0  0  0  0  0  0  0  0  0
    0.3585    0.2770    0.0000 C   0  0  0  0  0  0  0  0  0  0  0  0
   -0.6183   -0.2459    0.0000 O   0  0  0  0  0  0  0  0  0  0  0  0
  2  1  1  6
  2  3  1  0
  2  7  1  0
  2 10  1  0
  3  4  1  0
  3 13  1  6
  5  4  1  1
  5  6  1  0
  5  9  1  0
  6  7  1  0
  7  8  1  6
  9 10  1  0
  9 11  1  0
  9 12  1  0
M  END
>  <DRUGBANK_ID>  (1) 
DB13802

>  <COMMON_NAME>  (1) 
Epomediol

>  <CAS_NUMBER>  (1) 
1310101-21-3

>  <UNII>  (1) 
KFU4XSK3BK

$$$$
