
     RDKit          2D

 27 29  0  0  0  0  0  0  0  0999 V2000
    9.1094  -10.0031    0.0000 C   0  0  0  0  0  0  0  0  0  0  0  0
    8.3949   -9.5906    0.0000 N   0  0  0  0  0  0  0  0  0  0  0  0
    7.6805  -10.0031    0.0000 C   0  0  0  0  0  0  0  0  0  0  0  0
    6.9660   -9.5906    0.0000 C   0  0  0  0  0  0  0  0  0  0  0  0
    6.9660   -8.7656    0.0000 C   0  0  0  0  0  0  0  0  0  0  0  0
    7.6805   -8.3531    0.0000 C   0  0  0  0  0  0  0  0  0  0  0  0
    8.3950   -8.7656    0.0000 C   0  0  0  0  0  0  0  0  0  0  0  0
    6.2515   -8.3531    0.0000 C   0  0  0  0  0  0  0  0  0  0  0  0
    6.2515   -7.5281    0.0000 O   0  0  0  0  0  0  0  0  0  0  0  0
    5.5370   -8.7656    0.0000 C   0  0  0  0  0  0  0  0  0  0  0  0
    5.5371   -9.5906    0.0000 C   0  0  0  0  0  0  0  0  0  0  0  0
    4.8226  -10.0031    0.0000 C   0  0  0  0  0  0  0  0  0  0  0  0
    4.1081   -9.5906    0.0000 C   0  0  0  0  0  0  0  0  0  0  0  0
    4.1081   -8.7656    0.0000 C   0  0  0  0  0  0  0  0  0  0  0  0
    4.8226   -8.3531    0.0000 N   0  0  0  0  0  0  0  0  0  0  0  0
    3.3937   -8.3531    0.0000 N   0  0  0  0  0  0  0  0  0  0  0  0
    2.6792   -8.7656    0.0000 C   0  0  0  0  0  0  0  0  0  0  0  0
    2.6792   -9.5906    0.0000 O   0  0  0  0  0  0  0  0  0  0  0  0
    1.9647   -8.3531    0.0000 C   0  0  0  0  0  0  0  0  0  0  0  0
    1.2502   -8.7656    0.0000 C   0  0  0  0  0  0  0  0  0  0  0  0
    0.5357   -8.3531    0.0000 C   0  0  0  0  0  0  0  0  0  0  0  0
    0.5358   -7.5281    0.0000 C   0  0  0  0  0  0  0  0  0  0  0  0
    1.2502   -7.1156    0.0000 C   0  0  0  0  0  0  0  0  0  0  0  0
    1.9647   -7.5281    0.0000 C   0  0  0  0  0  0  0  0  0  0  0  0
    2.6792   -7.1156    0.0000 F   0  0  0  0  0  0  0  0  0  0  0  0
   -0.1786   -7.1156    0.0000 F   0  0  0  0  0  0  0  0  0  0  0  0
    1.2503   -9.5906    0.0000 F   0  0  0  0  0  0  0  0  0  0  0  0
  1  2  1  0
  2  3  1  0
  2  7  1  0
  3  4  1  0
  4  5  1  0
  5  6  1  0
  5  8  1  0
  6  7  1  0
  8  9  2  0
  8 10  1  0
 10 11  2  0
 10 15  1  0
 11 12  1  0
 12 13  2  0
 13 14  1  0
 14 15  2  0
 14 16  1  0
 16 17  1  0
 17 18  2  0
 17 19  1  0
 19 20  2  0
 19 24  1  0
 20 21  1  0
 20 27  1  0
 21 22  2  0
 22 23  1  0
 22 26  1  0
 23 24  2  0
 24 25  1  0
M  END
>  <DRUGBANK_ID>  (1) 
DB11732

>  <COMMON_NAME>  (1) 
Lasmiditan

>  <CAS_NUMBER>  (1) 
439239-90-4

>  <UNII>  (1) 
760I9WM792

>  <SYNONYMS>  (1) 
Lasmiditan

$$$$
