LYD
     RDKit          2D

 29 31  0  0  0  0  0  0  0  0999 V2000
    0.0282    0.1831    0.0000 C   0  0  0  0  0  0  0  0  0  0  0  0
    0.0282    1.0081    0.0000 C   0  0  0  0  0  0  0  0  0  0  0  0
    0.7427    1.4206    0.0000 C   0  0  0  0  0  0  0  0  0  0  0  0
    1.4572    1.0081    0.0000 C   0  0  0  0  0  0  0  0  0  0  0  0
    1.4572    0.1831    0.0000 C   0  0  0  0  0  0  0  0  0  0  0  0
    0.7427   -0.2294    0.0000 C   0  0  0  0  0  0  0  0  0  0  0  0
    2.1717   -0.2294    0.0000 C   0  0  0  0  0  0  0  0  0  0  0  0
    2.8861    0.1831    0.0000 O   0  0  0  0  0  0  0  0  0  0  0  0
    2.1717   -1.0544    0.0000 N   0  0  0  0  0  0  0  0  0  0  0  0
    2.8861   -1.4669    0.0000 C   0  0  0  0  0  0  0  0  0  0  0  0
    2.8861   -2.2919    0.0000 C   0  0  0  0  0  0  0  0  0  0  0  0
    3.6006   -2.7044    0.0000 C   0  0  0  0  0  0  0  0  0  0  0  0
    2.1717   -2.7044    0.0000 C   0  0  0  0  0  0  0  0  0  0  0  0
   -0.6862    1.4206    0.0000 C   0  0  0  0  0  0  0  0  0  0  0  0
   -1.4007    1.0081    0.0000 C   0  0  0  0  0  0  0  0  0  0  0  0
   -2.1152    1.4206    0.0000 C   0  0  0  0  0  0  0  0  0  0  0  0
    3.6006   -1.0544    0.0000 C   0  0  0  0  0  0  0  0  0  0  0  0
    3.6006   -0.2294    0.0000 O   0  0  0  0  0  0  0  0  0  0  0  0
    4.3151   -1.4669    0.0000 O   0  0  0  0  0  0  0  0  0  0  0  0
   -2.2014    2.2411    0.0000 C   0  0  0  0  0  0  0  0  0  0  0  0
   -3.0084    2.4126    0.0000 N   0  0  0  0  0  0  0  0  0  0  0  0
   -3.4209    1.6982    0.0000 C   0  0  0  0  0  0  0  0  0  0  0  0
   -2.8688    1.0851    0.0000 C   0  0  0  0  0  0  0  0  0  0  0  0
   -3.1238    0.3004    0.0000 C   0  0  0  0  0  0  0  0  0  0  0  0
   -2.5717   -0.3126    0.0000 O   0  0  0  0  0  0  0  0  0  0  0  0
   -3.9308    0.1289    0.0000 N   0  0  0  0  0  0  0  0  0  0  0  0
   -4.4828    0.7420    0.0000 C   0  0  0  0  0  0  0  0  0  0  0  0
   -4.2278    1.5266    0.0000 N   0  0  0  0  0  0  0  0  0  0  0  0
   -5.2898    0.5705    0.0000 N   0  0  0  0  0  0  0  0  0  0  0  0
  1  2  2  0
  1  6  1  0
  2  3  1  0
  2 14  1  0
  3  4  2  0
  4  5  1  0
  5  6  2  0
  5  7  1  0
  7  8  2  0
  7  9  1  0
 10  9  1  6
 10 11  1  0
 10 17  1  0
 11 12  1  0
 11 13  1  0
 14 15  1  0
 15 16  1  0
 16 20  2  0
 16 23  1  0
 17 18  2  0
 17 19  1  0
 20 21  1  0
 21 22  1  0
 22 23  2  0
 22 28  1  0
 23 24  1  0
 24 25  2  0
 24 26  1  0
 26 27  1  0
 27 28  2  0
 27 29  1  0
M  END
>  <DRUGBANK_ID>  (1) 
DB08131

>  <COMMON_NAME>  (1) 
2-{4-[2-(2-AMINO-4-OXO-4,7-DIHYDRO-3H-PYRROLO[2,3-D]PYRIMIDIN-5-YL)-ETHYL]-BENZOYLAMINO}-3-METHYL-BUTYRIC ACID

$$$$
