U1K
     RDKit          2D

 16 16  0  0  0  0  0  0  0  0999 V2000
    1.4699    2.6628    0.0000 O   0  0  0  0  0  0  0  0  0  0  0  0
    1.2984    1.8558    0.0000 C   0  0  0  0  0  0  0  0  0  0  0  0
    1.9115    1.3037    0.0000 O   0  0  0  0  0  0  0  0  0  0  0  0
    0.5138    1.6008    0.0000 C   0  0  0  0  0  0  0  0  0  0  0  0
    0.3423    0.7939    0.0000 C   0  0  0  0  0  0  0  0  0  0  0  0
   -0.4424    0.5389    0.0000 C   0  0  0  0  0  0  0  0  0  0  0  0
   -0.6973   -0.2457    0.0000 C   0  0  0  0  0  0  0  0  0  0  0  0
   -1.5223   -0.2457    0.0000 S   0  0  0  0  0  0  0  0  0  0  0  0
   -1.7772    0.5389    0.0000 N   0  0  0  0  0  0  0  0  0  0  0  0
   -1.1098    1.0239    0.0000 C   0  0  0  0  0  0  0  0  0  0  0  0
   -1.1098    1.8489    0.0000 O   0  0  0  0  0  0  0  0  0  0  0  0
   -0.2124   -0.9131    0.0000 C   0  0  0  0  0  0  0  0  0  0  0  0
    0.2725   -1.5806    0.0000 C   0  0  0  0  0  0  0  0  0  0  0  0
   -0.8798   -1.3981    0.0000 C   0  0  0  0  0  0  0  0  0  0  0  0
    0.4551   -0.4282    0.0000 C   0  0  0  0  0  0  0  0  0  0  0  0
   -0.0993    2.1529    0.0000 N   0  0  0  0  0  0  0  0  0  0  0  0
  1  2  1  0
  2  3  2  0
  2  4  1  0
  4  5  1  0
  4 16  1  6
  5  6  1  0
  6  7  2  0
  6 10  1  0
  7  8  1  0
  7 12  1  0
  8  9  1  0
  9 10  2  0
 10 11  1  0
 12 13  1  0
 12 14  1  0
 12 15  1  0
M  CHG  2  11  -1  16   1
M  END
>  <DRUGBANK_ID>  (1) 
DB04798

>  <COMMON_NAME>  (1) 
THIO-ATPA

$$$$
