
     RDKit          2D

 39 42  0  0  1  0  0  0  0  0999 V2000
    6.4765   -0.4537    0.0000 C   0  0  0  0  0  0  0  0  0  0  0  0
    6.9682   -1.1162    0.0000 C   0  0  0  0  0  0  0  0  0  0  0  0
    7.7878   -1.0215    0.0000 C   0  0  0  0  0  0  0  0  0  0  0  0
    8.1156   -0.2645    0.0000 N   0  0  0  0  0  0  0  0  0  0  0  0
    8.9352   -0.1698    0.0000 C   0  0  0  0  0  0  0  0  0  0  0  0
    9.4269   -0.8323    0.0000 C   0  0  0  0  0  0  0  0  0  0  0  0
    9.0991   -1.5893    0.0000 O   0  0  0  0  0  0  0  0  0  0  0  0
   10.2464   -0.7376    0.0000 N   0  0  0  0  0  0  0  0  0  0  0  0
   10.7382   -1.4001    0.0000 C   0  0  0  0  0  0  0  0  0  0  0  0
   10.4104   -2.1571    0.0000 C   0  0  0  0  0  0  0  0  0  0  0  0
   10.9021   -2.8196    0.0000 O   0  0  0  0  0  0  0  0  0  0  0  0
    9.5908   -2.2518    0.0000 N   0  0  0  0  0  0  0  0  0  0  0  0
    9.2630   -3.0088    0.0000 C   0  0  0  0  0  0  0  0  0  0  0  0
    8.4434   -3.1035    0.0000 C   0  0  0  0  0  0  0  0  0  0  0  0
    7.9517   -2.4410    0.0000 O   0  0  0  0  0  0  0  0  0  0  0  0
    8.1156   -3.8605    0.0000 N   0  0  0  0  0  0  0  0  0  0  0  0
    7.2960   -3.9552    0.0000 C   0  0  0  0  0  0  0  0  0  0  0  0
    6.8043   -3.2927    0.0000 C   0  0  0  0  0  0  0  0  0  0  0  0
    5.9848   -3.3874    0.0000 C   0  0  0  0  0  0  0  0  0  0  0  0
    5.4930   -2.7249    0.0000 C   0  0  0  0  0  0  0  0  0  0  0  0
    4.6735   -2.8196    0.0000 C   0  0  0  0  0  0  0  0  0  0  0  0
    4.1817   -2.1571    0.0000 C   0  0  0  0  0  0  0  0  0  0  0  0
    4.5096   -1.4001    0.0000 C   0  0  0  0  0  0  0  0  0  0  0  0
    5.3291   -1.3054    0.0000 C   0  0  0  0  0  0  0  0  0  0  0  0
    5.8209   -1.9679    0.0000 C   0  0  0  0  0  0  0  0  0  0  0  0
    6.6404   -1.8732    0.0000 O   0  0  0  0  0  0  0  0  0  0  0  0
    9.7547   -3.6713    0.0000 C   0  0  0  0  0  0  0  0  0  0  0  0
    9.4269   -4.4283    0.0000 C   0  0  0  0  0  0  0  0  0  0  0  0
    9.9186   -5.0908    0.0000 C   0  0  0  0  0  0  0  0  0  0  0  0
    9.5908   -5.8479    0.0000 C   0  0  0  0  0  0  0  0  0  0  0  0
    8.7712   -5.9425    0.0000 C   0  0  0  0  0  0  0  0  0  0  0  0
    8.2795   -5.2801    0.0000 C   0  0  0  0  0  0  0  0  0  0  0  0
    8.6073   -4.5230    0.0000 C   0  0  0  0  0  0  0  0  0  0  0  0
    8.4434   -6.6996    0.0000 F   0  0  0  0  0  0  0  0  0  0  0  0
   11.5577   -1.3054    0.0000 C   0  0  0  0  0  0  0  0  0  0  0  0
   10.5743    0.0194    0.0000 C   0  0  0  0  0  0  0  0  0  0  0  0
    9.2630    0.5873    0.0000 C   0  0  0  0  0  0  0  0  0  0  0  0
    9.1683    1.4068    0.0000 C   0  0  0  0  0  0  0  0  0  0  0  0
    9.9254    1.0790    0.0000 C   0  0  0  0  0  0  0  0  0  0  0  0
  2  1  1  6
  2  3  1  0
  2 26  1  0
  3  4  1  0
  4  5  1  0
  5  6  1  0
  5 37  1  1
  6  7  2  0
  6  8  1  0
  8  9  1  0
  8 36  1  0
  9 10  1  0
  9 35  1  6
 10 11  2  0
 10 12  1  0
 12 13  1  0
 13 14  1  0
 13 27  1  6
 14 15  2  0
 14 16  1  0
 16 17  1  0
 17 18  1  0
 18 19  1  0
 19 20  1  0
 20 21  1  0
 20 25  2  0
 21 22  2  0
 22 23  1  0
 23 24  2  0
 24 25  1  0
 25 26  1  0
 27 28  1  0
 28 29  2  0
 28 33  1  0
 29 30  1  0
 30 31  2  0
 31 32  1  0
 31 34  1  0
 32 33  2  0
 37 38  1  0
 37 39  1  0
 38 39  1  0
M  END
>  <DRUGBANK_ID>  (1) 
DB12128

>  <SECONDARY_ACCESSION_NUMBERS>  (1) 
DB05657

>  <COMMON_NAME>  (1) 
Ulimorelin

>  <CAS_NUMBER>  (1) 
842131-33-3

>  <UNII>  (1) 
LGI67MCW2S

>  <SYNONYMS>  (1) 
Ulimorelin

$$$$
