
     RDKit          2D

 22 25  0  0  0  0  0  0  0  0999 V2000
    4.7528    1.3336    0.0000 C   0  0  0  0  0  0  0  0  0  0  0  0
    2.2074    1.7652    0.0000 C   0  0  0  0  0  0  0  0  0  0  0  0
    0.7538    1.1118    0.0000 C   0  0  0  0  0  0  0  0  0  0  0  0
    4.5754   -0.8489    0.0000 C   0  0  0  0  0  0  0  0  0  0  0  0
    3.7633   -0.7037    0.0000 C   0  0  0  0  0  0  0  0  0  0  0  0
    6.1708    1.0432    0.0000 C   0  0  0  0  0  0  0  0  0  0  0  0
    3.7345    1.4789    0.0000 C   0  0  0  0  0  0  0  0  0  0  0  0
    2.0195   -0.2889    0.0000 C   0  0  0  0  0  0  0  0  0  0  0  0
    5.3587    1.1884    0.0000 C   0  0  0  0  0  0  0  0  0  0  0  0
    2.9224    1.6241    0.0000 C   0  0  0  0  0  0  0  0  0  0  0  0
    1.3367    0.1741    0.0000 C   0  0  0  0  0  0  0  0  0  0  0  0
    5.9193   -0.3634    0.0000 C   0  0  0  0  0  0  0  0  0  0  0  0
    5.1072   -0.2182    0.0000 C   0  0  0  0  0  0  0  0  0  0  0  0
    6.4511    0.2673    0.0000 C   0  0  0  0  0  0  0  0  0  0  0  0
    3.4830    0.0722    0.0000 C   0  0  0  0  0  0  0  0  0  0  0  0
    4.0148    0.7029    0.0000 C   0  0  0  0  0  0  0  0  0  0  0  0
    2.6708    0.2174    0.0000 C   0  0  0  0  0  0  0  0  0  0  0  0
    4.8269    0.5577    0.0000 C   0  0  0  0  0  0  0  0  0  0  0  0
    2.3905    0.9934    0.0000 C   0  0  0  0  0  0  0  0  0  0  0  0
    1.5660    0.9666    0.0000 C   0  0  0  0  0  0  0  0  0  0  0  0
    7.2632    0.1221    0.0000 O   0  0  0  0  0  0  0  0  0  0  0  0
    1.4487    1.7894    0.0000 O   0  0  0  0  0  0  0  0  0  0  0  0
  5  4  1  0
  9  6  2  0
 10  7  1  0
 11  8  1  0
 13  4  1  0
 13 12  2  0
 14  6  1  0
 14 12  1  0
 15  5  1  1
 16  7  1  6
 16 15  1  0
 17  8  1  6
 17 15  1  0
 18  1  1  6
 18  9  1  0
 18 13  1  0
 18 16  1  0
 19  2  1  6
 19 10  1  0
 19 17  1  0
 20  3  1  1
 20 11  1  0
 20 19  1  0
 20 22  1  0
 21 14  2  0
M  END
>  <DRUGBANK_ID>  (1) 
DB13586

>  <COMMON_NAME>  (1) 
Metandienone

>  <CAS_NUMBER>  (1) 
72-63-9

>  <UNII>  (1) 
COZ1R7EOCC

>  <SYNONYMS>  (1) 
Metandienone; Methandrostenolone

$$$$
