DI4
     RDKit          2D

 32 33  0  0  0  0  0  0  0  0999 V2000
   -1.6568    0.4930    0.0000 B   0  0  0  0  0  0  0  0  0  0  0  0
   -1.6568   -0.3320    0.0000 C   0  0  0  0  0  0  0  0  0  0  0  0
   -2.3712   -0.7445    0.0000 C   0  0  0  0  0  0  0  0  0  0  0  0
   -3.0857   -0.3320    0.0000 C   0  0  0  0  0  0  0  0  0  0  0  0
   -3.8002   -0.7445    0.0000 C   0  0  0  0  0  0  0  0  0  0  0  0
   -4.5146   -0.3320    0.0000 C   0  0  0  0  0  0  0  0  0  0  0  0
   -5.2291   -0.7445    0.0000 C   0  0  0  0  0  0  0  0  0  0  0  0
    0.4867   -0.7445    0.0000 C   0  0  0  0  0  0  0  0  0  0  0  0
   -0.2278   -0.3320    0.0000 C   0  0  0  0  0  0  0  0  0  0  0  0
    0.5729   -1.5650    0.0000 C   0  0  0  0  0  0  0  0  0  0  0  0
    1.3799   -1.7365    0.0000 C   0  0  0  0  0  0  0  0  0  0  0  0
    1.7924   -1.0220    0.0000 C   0  0  0  0  0  0  0  0  0  0  0  0
    1.4119    0.3981    0.0000 C   0  0  0  0  0  0  0  0  0  0  0  0
    2.8096    0.1010    0.0000 C   0  0  0  0  0  0  0  0  0  0  0  0
    2.1965    0.6530    0.0000 C   0  0  0  0  0  0  0  0  0  0  0  0
    1.7549    2.0120    0.0000 C   0  0  0  0  0  0  0  0  0  0  0  0
    0.9703    1.7571    0.0000 C   0  0  0  0  0  0  0  0  0  0  0  0
    4.5503    1.4178    0.0000 C   0  0  0  0  0  0  0  0  0  0  0  0
    5.1634    0.8658    0.0000 C   0  0  0  0  0  0  0  0  0  0  0  0
    4.9919    0.0588    0.0000 C   0  0  0  0  0  0  0  0  0  0  0  0
    4.2073   -0.1961    0.0000 C   0  0  0  0  0  0  0  0  0  0  0  0
    3.5942    0.3559    0.0000 C   0  0  0  0  0  0  0  0  0  0  0  0
    3.7657    1.1629    0.0000 C   0  0  0  0  0  0  0  0  0  0  0  0
   -0.9423   -0.7445    0.0000 N   0  0  0  0  0  0  0  0  0  0  0  0
   -5.9436   -0.3320    0.0000 N   0  0  0  0  0  0  0  0  0  0  0  0
    1.2403   -0.4089    0.0000 N   0  0  0  0  0  0  0  0  0  0  0  0
    2.3680    1.4600    0.0000 N   0  0  0  0  0  0  0  0  0  0  0  0
   -0.9423    0.9055    0.0000 O   0  0  0  0  0  0  0  0  0  0  0  0
   -2.3712    0.9055    0.0000 O   0  0  0  0  0  0  0  0  0  0  0  0
   -0.2278    0.4930    0.0000 O   0  0  0  0  0  0  0  0  0  0  0  0
    0.7988    0.9501    0.0000 O   0  0  0  0  0  0  0  0  0  0  0  0
    1.9264    2.8190    0.0000 O   0  0  0  0  0  0  0  0  0  0  0  0
  1 28  1  0
  1 29  1  0
  2  1  1  0
  2  3  1  1
  2 24  1  0
  3  4  1  0
  4  5  1  0
  5  6  1  0
  6  7  1  0
  7 25  1  0
  8  9  1  1
  8 10  1  0
  8 26  1  0
  9 24  1  0
  9 30  2  0
 10 11  1  0
 11 12  1  0
 12 26  1  0
 13 15  1  0
 13 26  1  0
 13 31  2  0
 15 14  1  6
 14 22  1  0
 15 27  1  0
 16 17  1  0
 16 27  1  0
 16 32  2  0
 18 19  2  0
 18 23  1  0
 19 20  1  0
 20 21  2  0
 21 22  1  0
 22 23  2  0
M  END
>  <DRUGBANK_ID>  (1) 
DB07659

>  <COMMON_NAME>  (1) 
AC-(D)PHE-PRO-BOROHOMOLYS-OH

$$$$
