
     RDKit          2D

 23 26  0  0  1  0  0  0  0  0999 V2000
    0.5429    2.3393    0.0000 O   0  0  0  0  0  0  0  0  0  0  0  0
    1.2654    2.7376    0.0000 C   0  0  0  0  0  0  0  0  0  0  0  0
    1.9716    2.3111    0.0000 C   0  0  0  0  0  0  0  0  0  0  0  0
    1.9554    1.4863    0.0000 C   0  0  0  0  0  0  0  0  0  0  0  0
    2.6131    0.9883    0.0000 N   0  0  0  0  0  0  0  0  0  0  0  0
    3.4379    0.9720    0.0000 C   0  0  0  0  0  0  0  0  0  0  0  0
    3.6774    0.1825    0.0000 N   0  0  0  0  0  0  0  0  0  0  0  0
    3.0005   -0.2892    0.0000 C   0  0  0  0  0  0  0  0  0  0  0  0
    2.3427    0.2088    0.0000 C   0  0  0  0  0  0  0  0  0  0  0  0
    1.5179    0.2251    0.0000 C   0  0  0  0  0  0  0  0  0  0  0  0
    0.9539   -0.3770    0.0000 C   0  0  0  0  0  0  0  0  0  0  0  0
    0.1505   -0.1896    0.0000 C   0  0  0  0  0  0  0  0  0  0  0  0
   -0.0890    0.5999    0.0000 C   0  0  0  0  0  0  0  0  0  0  0  0
    0.4750    1.2020    0.0000 C   0  0  0  0  0  0  0  0  0  0  0  0
    0.2356    1.9915    0.0000 F   0  0  0  0  0  0  0  0  0  0  0  0
    1.2785    1.0146    0.0000 C   0  0  0  0  0  0  0  0  0  0  0  0
    1.2817    3.5624    0.0000 C   0  0  0  0  0  0  0  0  0  0  0  0
    0.5755    3.9890    0.0000 C   0  0  0  0  0  0  0  0  0  0  0  0
    0.5917    4.8138    0.0000 C   0  0  0  0  0  0  0  0  0  0  0  0
    1.3142    5.2121    0.0000 C   0  0  0  0  0  0  0  0  0  0  0  0
    1.3305    6.0370    0.0000 O   0  0  0  0  0  0  0  0  0  0  0  0
    2.0204    4.7856    0.0000 C   0  0  0  0  0  0  0  0  0  0  0  0
    2.0041    3.9608    0.0000 C   0  0  0  0  0  0  0  0  0  0  0  0
  2  1  1  1
  2  3  1  0
  2 17  1  0
  4  3  1  6
  4  5  1  0
  4 16  1  0
  5  6  1  0
  5  9  1  0
  6  7  2  0
  7  8  1  0
  8  9  2  0
  9 10  1  0
 10 11  2  0
 10 16  1  0
 11 12  1  0
 12 13  2  0
 13 14  1  0
 14 15  1  0
 14 16  2  0
 17 18  1  1
 17 23  1  0
 18 19  1  0
 20 19  1  0
 20 21  1  6
 20 22  1  0
 22 23  1  0
M  END
>  <DRUGBANK_ID>  (1) 
DB15439

>  <COMMON_NAME>  (1) 
Navoximod

>  <CAS_NUMBER>  (1) 
1402837-78-8

>  <UNII>  (1) 
926SHL95NC

>  <SYNONYMS>  (1) 
Navoximod

$$$$
