
     RDKit          2D

 30 29  0  0  1  0  0  0  0  0999 V2000
    2.5855    4.0954    0.0000 C   0  0  0  0  0  0  0  0  0  0  0  0
    8.3013    3.2704    0.0000 C   0  0  0  0  0  0  0  0  0  0  0  0
    8.3013   -5.8046    0.0000 C   0  0  0  0  0  0  0  0  0  0  0  0
    7.1743   -6.1066    0.0000 C   0  0  0  0  0  0  0  0  0  0  0  0
    7.9993   -4.6776    0.0000 C   0  0  0  0  0  0  0  0  0  0  0  0
    2.5855    3.2704    0.0000 C   0  0  0  0  0  0  0  0  0  0  0  0
    7.5868    2.8579    0.0000 C   0  0  0  0  0  0  0  0  0  0  0  0
    3.3000    2.8579    0.0000 C   0  0  0  0  0  0  0  0  0  0  0  0
    7.5868    2.0329    0.0000 C   0  0  0  0  0  0  0  0  0  0  0  0
    3.3000    2.0329    0.0000 C   0  0  0  0  0  0  0  0  0  0  0  0
    6.8724    1.6204    0.0000 C   0  0  0  0  0  0  0  0  0  0  0  0
    4.0145    1.6204    0.0000 C   0  0  0  0  0  0  0  0  0  0  0  0
    6.8724    0.7954    0.0000 C   0  0  0  0  0  0  0  0  0  0  0  0
    5.4434   -1.6796    0.0000 C   0  0  0  0  0  0  0  0  0  0  0  0
    6.8724   -4.9796    0.0000 C   0  0  0  0  0  0  0  0  0  0  0  0
    6.8724   -4.1546    0.0000 C   0  0  0  0  0  0  0  0  0  0  0  0
    6.1579   -2.0921    0.0000 C   0  0  0  0  0  0  0  0  0  0  0  0
    4.7289   -0.4421    0.0000 C   0  0  0  0  0  0  0  0  0  0  0  0
    5.4434   -0.8546    0.0000 C   0  0  0  0  0  0  0  0  0  0  0  0
    4.0145    0.7954    0.0000 C   0  0  0  0  0  0  0  0  0  0  0  0
    6.1579    0.3829    0.0000 C   0  0  0  0  0  0  0  0  0  0  0  0
    7.5868   -5.3921    0.0000 N   0  0  0  0  0  0  0  0  0  0  0  0
    3.3000    0.3829    0.0000 O   0  0  0  0  0  0  0  0  0  0  0  0
    5.4434    0.7954    0.0000 O   0  0  0  0  0  0  0  0  0  0  0  0
    5.3329   -2.9171    0.0000 O   0  0  0  0  0  0  0  0  0  0  0  0
    6.9829   -2.9171    0.0000 O   0  0  0  0  0  0  0  0  0  0  0  0
    4.7289    0.3829    0.0000 O   0  0  0  0  0  0  0  0  0  0  0  0
    6.1579   -3.7421    0.0000 O   0  0  0  0  0  0  0  0  0  0  0  0
    6.1579   -0.4421    0.0000 O   0  0  0  0  0  0  0  0  0  0  0  0
    6.1579   -2.9171    0.0000 P   0  0  0  0  0  0  0  0  0  0  0  0
  6  1  1  0
  7  2  1  0
  8  6  1  0
  9  7  1  0
 10  8  1  0
 11  9  1  0
 12 10  1  0
 13 11  1  0
 16 15  1  0
 17 14  1  0
 19 14  1  1
 19 18  1  0
 19 29  1  0
 20 12  1  0
 21 13  1  0
 22  3  1  0
 22  4  1  0
 22  5  1  0
 22 15  1  0
 23 20  2  0
 24 21  2  0
 27 18  1  0
 27 20  1  0
 28 16  1  0
 29 21  1  0
 30 17  1  0
 30 25  2  0
 30 26  1  0
 30 28  1  0
M  CHG  2  22   1  26  -1
M  END
>  <DRUGBANK_ID>  (1) 
DB03827

>  <SECONDARY_ACCESSION_NUMBERS>  (1) 
EXPT00186

>  <COMMON_NAME>  (1) 
(3s)-3,4-Di-N-Hexanoyloxybutyl-1-Phosphocholine

$$$$
