
     RDKit          2D

 23 19  0  0  0  0  0  0  0  0999 V2000
    0.2062    0.3572    0.0000 C   0  0  0  0  0  0  0  0  0  0  0  0
   -0.2062   -0.3572    0.0000 C   0  0  0  0  0  0  0  0  0  0  0  0
    1.4437    1.0717    0.0000 C   0  0  0  0  0  0  0  0  0  0  0  0
    1.4437   -0.3572    0.0000 C   0  0  0  0  0  0  0  0  0  0  0  0
   -1.4437   -1.0717    0.0000 C   0  0  0  0  0  0  0  0  0  0  0  0
   -1.4437    0.3572    0.0000 C   0  0  0  0  0  0  0  0  0  0  0  0
    1.0312    1.7861    0.0000 C   0  0  0  0  0  0  0  0  0  0  0  0
    2.2687   -0.3572    0.0000 C   0  0  0  0  0  0  0  0  0  0  0  0
   -2.2687   -1.0717    0.0000 C   0  0  0  0  0  0  0  0  0  0  0  0
   -1.0312    1.0717    0.0000 C   0  0  0  0  0  0  0  0  0  0  0  0
    1.0312    0.3572    0.0000 N   0  0  0  0  0  0  0  0  0  0  0  0
   -1.0312   -0.3572    0.0000 N   0  0  0  0  0  0  0  0  0  0  0  0
    1.4437    2.5006    0.0000 O   0  0  0  0  0  0  0  0  0  0  0  0
    0.2062    1.7861    0.0000 O   0  0  0  0  0  0  0  0  0  0  0  0
    2.6812    0.3572    0.0000 O   0  0  0  0  0  0  0  0  0  0  0  0
    2.6812   -1.0717    0.0000 O   0  0  0  0  0  0  0  0  0  0  0  0
   -2.6812   -0.3572    0.0000 O   0  0  0  0  0  0  0  0  0  0  0  0
   -2.6812   -1.7861    0.0000 O   0  0  0  0  0  0  0  0  0  0  0  0
   -1.4437    1.7861    0.0000 O   0  0  0  0  0  0  0  0  0  0  0  0
   -0.2062    1.0717    0.0000 O   0  0  0  0  0  0  0  0  0  0  0  0
   -0.6187    1.7861    0.0000 Cu  0  0  0  0  0 15  0  0  0  0  0  0
    3.0937   -1.7861    0.0000 Na  0  0  0  0  0 15  0  0  0  0  0  0
   -3.0937   -2.5006    0.0000 Na  0  0  0  0  0 15  0  0  0  0  0  0
  2  1  1  0
  7  3  1  0
  8  4  1  0
  9  5  1  0
 10  6  1  0
 11  1  1  0
 11  3  1  0
 11  4  1  0
 12  2  1  0
 12  5  1  0
 12  6  1  0
 13  7  2  0
 14  7  1  0
 15  8  2  0
 16  8  1  0
 17  9  2  0
 18  9  1  0
 19 10  2  0
 20 10  1  0
M  CHG  7  14  -1  16  -1  18  -1  20  -1  21   2  22   1  23   1
M  END
>  <DRUGBANK_ID>  (1) 
DB14599

>  <SECONDARY_ACCESSION_NUMBERS>  (1) 
DBSALT001713

>  <COMMON_NAME>  (1) 
Edetate copper disodium

>  <CAS_NUMBER>  (1) 
14025-15-1

>  <UNII>  (1) 
6V475AX06U

>  <SYNONYMS>  (1) 
Copper disodium edetate; Copper disodium ethylenediaminetetraacetate; Copper versenate; EDTA copper disodium salt

$$$$
