
     RDKit          2D

 41 45  0  0  0  0  0  0  0  0999 V2000
    0.9356   -1.6292    0.0000 C   0  0  0  0  0  0  0  0  0  0  0  0
    0.9325   -2.4495    0.0000 C   0  0  0  0  0  0  0  0  0  0  0  0
    1.6473   -1.2148    0.0000 O   0  0  0  0  0  0  0  0  0  0  0  0
    0.2236   -1.2094    0.0000 C   0  0  0  0  0  0  0  0  0  0  0  0
    1.6408   -2.8728    0.0000 C   0  0  0  0  0  0  0  0  0  0  0  0
    0.2173   -2.8675    0.0000 C   0  0  0  0  0  0  0  0  0  0  0  0
    2.3696   -1.6347    0.0000 C   0  0  0  0  0  0  0  0  0  0  0  0
   -0.4949   -1.6238    0.0000 C   0  0  0  0  0  0  0  0  0  0  0  0
    2.3664   -2.4550    0.0000 C   0  0  0  0  0  0  0  0  0  0  0  0
    1.6377   -3.7036    0.0000 O   0  0  0  0  0  0  0  0  0  0  0  0
   -0.4980   -2.4441    0.0000 C   0  0  0  0  0  0  0  0  0  0  0  0
    0.2141   -3.6983    0.0000 O   0  0  0  0  0  0  0  0  0  0  0  0
    3.0917   -1.2203    0.0000 C   0  0  0  0  0  0  0  0  0  0  0  0
   -1.2033   -1.2039    0.0000 O   0  0  0  0  0  0  0  0  0  0  0  0
    3.0948   -0.3896    0.0000 C   0  0  0  0  0  0  0  0  0  0  0  0
    3.8002   -1.6400    0.0000 C   0  0  0  0  0  0  0  0  0  0  0  0
   -2.0962   -1.2246    0.0000 C   0  0  0  0  0  0  0  0  0  0  0  0
    3.8065    0.0179    0.0000 C   0  0  0  0  0  0  0  0  0  0  0  0
    4.5221   -1.2258    0.0000 C   0  0  0  0  0  0  0  0  0  0  0  0
   -2.5175   -0.5129    0.0000 C   0  0  0  0  0  0  0  0  0  0  0  0
   -2.5126   -1.9366    0.0000 O   0  0  0  0  0  0  0  0  0  0  0  0
    4.5252   -0.3951    0.0000 C   0  0  0  0  0  0  0  0  0  0  0  0
   -2.1648    0.5493    0.0000 O   0  0  0  0  0  0  0  0  0  0  0  0
   -3.3415   -0.5167    0.0000 C   0  0  0  0  0  0  0  0  0  0  0  0
   -3.3364   -1.9403    0.0000 C   0  0  0  0  0  0  0  0  0  0  0  0
    5.2404    0.0124    0.0000 O   0  0  0  0  0  0  0  0  0  0  0  0
   -3.1521    1.5401    0.0000 C   0  0  0  0  0  0  0  0  0  0  0  0
   -3.7474   -1.2320    0.0000 C   0  0  0  0  0  0  0  0  0  0  0  0
   -3.7592    0.1950    0.0000 O   0  0  0  0  0  0  0  0  0  0  0  0
   -3.7460   -2.6560    0.0000 C   0  0  0  0  0  0  0  0  0  0  0  0
   -3.9759    1.5115    0.0000 C   0  0  0  0  0  0  0  0  0  0  0  0
   -2.7735    2.2740    0.0000 O   0  0  0  0  0  0  0  0  0  0  0  0
   -4.5714   -1.2359    0.0000 O   0  0  0  0  0  0  0  0  0  0  0  0
   -3.3316   -3.3710    0.0000 O   0  0  0  0  0  0  0  0  0  0  0  0
   -4.4171    2.2072    0.0000 C   0  0  0  0  0  0  0  0  0  0  0  0
   -4.3580    0.7809    0.0000 O   0  0  0  0  0  0  0  0  0  0  0  0
   -3.2148    2.9697    0.0000 C   0  0  0  0  0  0  0  0  0  0  0  0
   -4.0347    2.9347    0.0000 C   0  0  0  0  0  0  0  0  0  0  0  0
   -5.2404    2.1720    0.0000 O   0  0  0  0  0  0  0  0  0  0  0  0
   -2.8362    3.7036    0.0000 C   0  0  0  0  0  0  0  0  0  0  0  0
   -4.4794    3.6299    0.0000 O   0  0  0  0  0  0  0  0  0  0  0  0
  1  2  2  0
  1  3  1  0
  1  4  1  0
  2  5  1  0
  2  6  1  0
  3  7  1  0
  4  8  2  0
  5  9  1  0
  5 10  2  0
  6 11  2  0
  6 12  1  0
  7 13  1  6
  7  9  1  0
  8 14  1  0
  8 11  1  0
 13 15  2  0
 13 16  1  0
 15 18  1  0
 16 19  2  0
 17 14  1  6
 17 20  1  0
 17 21  1  0
 18 22  2  0
 19 22  1  0
 20 23  1  1
 20 24  1  0
 21 25  1  0
 22 26  1  0
 24 28  1  0
 24 29  1  6
 25 30  1  6
 25 28  1  0
 27 23  1  1
 27 31  1  0
 27 32  1  0
 28 33  1  1
 30 34  1  0
 31 35  1  0
 31 36  1  6
 32 37  1  0
 35 38  1  0
 35 39  1  6
 37 40  1  6
 37 38  1  0
 38 41  1  1
M  END
>  <DRUGBANK_ID>  (1) 
DB16859

>  <COMMON_NAME>  (1) 
Naringin

>  <CAS_NUMBER>  (1) 
10236-47-2

>  <UNII>  (1) 
N7TD9J649B

>  <SYNONYMS>  (1) 
Aurantiin; Naringoside

$$$$
