
     RDKit          2D

 23 24  0  0  0  0  0  0  0  0999 V2000
   -0.3571   -0.8250    0.0000 C   0  0  0  0  0  0  0  0  0  0  0  0
   -0.3571   -1.6500    0.0000 C   0  0  0  0  0  0  0  0  0  0  0  0
   -1.0716   -0.4125    0.0000 O   0  0  0  0  0  0  0  0  0  0  0  0
   -1.0716   -2.0625    0.0000 C   0  0  0  0  0  0  0  0  0  0  0  0
   -1.7861   -0.8250    0.0000 C   0  0  0  0  0  0  0  0  0  0  0  0
   -1.7861   -1.6500    0.0000 C   0  0  0  0  0  0  0  0  0  0  0  0
    0.3573   -2.0625    0.0000 O   0  0  0  0  0  0  0  0  0  0  0  0
   -1.0716   -2.8874    0.0000 O   0  0  0  0  0  0  0  0  0  0  0  0
   -2.5005   -2.0625    0.0000 O   0  0  0  0  0  0  0  0  0  0  0  0
   -2.5005   -0.4125    0.0000 C   0  0  0  0  0  0  0  0  0  0  0  0
   -3.2151   -0.8250    0.0000 O   0  0  0  0  0  0  0  0  0  0  0  0
    1.7862    2.0625    0.0000 C   0  0  0  0  0  0  0  0  0  0  0  0
    2.5007    1.6500    0.0000 C   0  0  0  0  0  0  0  0  0  0  0  0
    1.0718    1.6500    0.0000 O   0  0  0  0  0  0  0  0  0  0  0  0
    2.5007    0.8250    0.0000 C   0  0  0  0  0  0  0  0  0  0  0  0
    1.0718    0.8250    0.0000 C   0  0  0  0  0  0  0  0  0  0  0  0
    1.7862    0.4125    0.0000 C   0  0  0  0  0  0  0  0  0  0  0  0
    1.7862    2.8874    0.0000 O   0  0  0  0  0  0  0  0  0  0  0  0
    3.2151    2.0625    0.0000 O   0  0  0  0  0  0  0  0  0  0  0  0
    3.2151    0.4125    0.0000 O   0  0  0  0  0  0  0  0  0  0  0  0
    1.7862   -0.4124    0.0000 O   0  0  0  0  0  0  0  0  0  0  0  0
    0.3573    0.4125    0.0000 C   0  0  0  0  0  0  0  0  0  0  0  0
    0.3573   -0.4125    0.0000 O   0  0  0  0  0  0  0  0  0  0  0  0
  1  2  1  0
  1  3  1  0
  1 23  1  1
  2  4  1  0
  2  7  1  6
  3  5  1  0
  4  6  1  0
  4  8  1  1
  5  6  1  0
  5 10  1  1
  6  9  1  1
 10 11  1  0
 12 13  1  0
 12 14  1  0
 12 18  1  0
 13 15  1  0
 13 19  1  6
 14 16  1  0
 15 17  1  0
 15 20  1  1
 16 17  1  0
 16 22  1  1
 17 21  1  6
 22 23  1  0
M  END
>  <DRUGBANK_ID>  (1) 
DB04116

>  <SECONDARY_ACCESSION_NUMBERS>  (1) 
EXPT01999

>  <COMMON_NAME>  (1) 
Allolactose

>  <CAS_NUMBER>  (1) 
645-03-4

>  <SYNONYMS>  (1) 
6-O-Î²-D-galactopyranosyl-D-glucopyranose

$$$$
