
     RDKit          2D

 26 27  0  0  0  0  0  0  0  0999 V2000
    2.9715   -2.5754    0.0000 P   0  0  0  0  0  0  0  0  0  0  0  0
    1.4361   -0.5420    0.0000 O   0  0  0  0  0  0  0  0  0  0  0  0
   -0.6833   -0.2871    0.0000 O   0  0  0  0  0  0  0  0  0  0  0  0
   -0.1286   -1.9941    0.0000 O   0  0  0  0  0  0  0  0  0  0  0  0
    2.4866   -1.9078    0.0000 O   0  0  0  0  0  0  0  0  0  0  0  0
    2.1977    0.7678    0.0000 O   0  0  0  0  0  0  0  0  0  0  0  0
    3.4565   -3.2427    0.0000 O   0  0  0  0  0  0  0  0  0  0  0  0
    3.6390   -2.0905    0.0000 O   0  0  0  0  0  0  0  0  0  0  0  0
    0.7688    3.2427    0.0000 O   0  0  0  0  0  0  0  0  0  0  0  0
    2.3042   -3.0602    0.0000 O   0  0  0  0  0  0  0  0  0  0  0  0
    0.7688    0.7678    0.0000 N   0  0  0  0  0  0  0  0  0  0  0  0
    1.4832    2.0052    0.0000 N   0  0  0  0  0  0  0  0  0  0  0  0
    0.1013   -0.5420    0.0000 C   0  0  0  0  0  0  0  0  0  0  0  0
    0.3562   -1.3267    0.0000 C   0  0  0  0  0  0  0  0  0  0  0  0
    0.7688   -0.0571    0.0000 C   0  0  0  0  0  0  0  0  0  0  0  0
    1.1812   -1.3267    0.0000 C   0  0  0  0  0  0  0  0  0  0  0  0
    1.6661   -1.9941    0.0000 C   0  0  0  0  0  0  0  0  0  0  0  0
   -1.2963   -0.8392    0.0000 C   0  0  0  0  0  0  0  0  0  0  0  0
    0.0542    1.1803    0.0000 C   0  0  0  0  0  0  0  0  0  0  0  0
    1.4832    1.1803    0.0000 C   0  0  0  0  0  0  0  0  0  0  0  0
   -2.0810   -0.5842    0.0000 C   0  0  0  0  0  0  0  0  0  0  0  0
    0.0542    2.0052    0.0000 C   0  0  0  0  0  0  0  0  0  0  0  0
   -2.6940   -1.1362    0.0000 C   0  0  0  0  0  0  0  0  0  0  0  0
    0.7688    2.4178    0.0000 C   0  0  0  0  0  0  0  0  0  0  0  0
   -0.6601    2.4178    0.0000 C   0  0  0  0  0  0  0  0  0  0  0  0
   -3.4787   -0.8813    0.0000 C   0  0  0  0  0  0  0  0  0  0  0  0
  1  5  1  0
  1  7  1  0
  1  8  1  0
  1 10  2  0
  2 15  1  0
  2 16  1  0
  3 18  1  0
  5 17  1  0
  6 20  2  0
  9 24  2  0
 11 19  1  0
 11 20  1  0
 12 20  1  0
 12 24  1  0
 13  3  1  1
 13 14  1  0
 13 15  1  0
 14  4  1  1
 14 16  1  0
 15 11  1  6
 16 17  1  6
 18 21  1  0
 19 22  2  0
 21 23  1  0
 22 24  1  0
 22 25  1  0
 23 26  1  0
M  END
>  <DRUGBANK_ID>  (1) 
DB04587

>  <COMMON_NAME>  (1) 
2'-O-butyl-5-methyluridine

$$$$
