
     RDKit          3D

 43 46  0  0  0  0  0  0  0  0999 V2000
    0.4956   -1.6242    0.9915 O   0  0  0  0  0  0  0  0  0  0  0  0
   -0.2220   -1.4565    0.8698 C   0  0  0  0  0  0  0  0  0  0  0  0
   -0.5232   -0.7005    0.7342 N   0  0  0  0  0  0  0  0  0  0  0  0
   -1.3661   -0.7640    0.6238 C   0  0  0  0  0  0  0  0  0  0  0  0
   -0.8753   -2.0222    0.8481 C   0  0  0  0  0  0  0  0  0  0  0  0
   -1.5776   -1.6002    0.7013 C   0  0  0  0  0  0  0  0  0  0  0  0
   -0.8066   -2.9349    0.9704 C   0  0  0  0  0  0  0  0  0  0  0  0
   -2.4255   -1.9586    0.6283 C   0  0  0  0  0  0  0  0  0  0  0  0
   -1.8982   -0.1274    0.4705 C   0  0  0  0  0  0  0  0  0  0  0  0
   -1.5895    0.6721    0.3291 C   0  0  0  0  0  0  0  0  0  0  0  0
   -0.8033    0.8720    0.2531 N   0  0  0  0  0  0  0  0  0  0  0  0
   -0.7374    1.6799    0.1246 C   0  0  0  0  0  0  0  0  0  0  0  0
   -2.0669    1.3924    0.2454 C   0  0  0  0  0  0  0  0  0  0  0  0
   -1.5366    2.0214    0.1216 C   0  0  0  0  0  0  0  0  0  0  0  0
   -2.9874    1.4499    0.2894 C   0  0  0  0  0  0  0  0  0  0  0  0
   -1.7554    2.9101   -0.0009 C   0  0  0  0  0  0  0  0  0  0  0  0
   -0.0036    2.1143    0.0154 C   0  0  0  0  0  0  0  0  0  0  0  0
    0.7379    1.6914   -0.0556 C   0  0  0  0  0  0  0  0  0  0  0  0
    0.8280    0.8541   -0.1200 N   0  0  0  0  0  0  0  0  0  0  0  0
    1.6466    0.6791   -0.1775 C   0  0  0  0  0  0  0  0  0  0  0  0
    1.5191    2.0433   -0.0737 C   0  0  0  0  0  0  0  0  0  0  0  0
    2.0810    1.4143   -0.1458 C   0  0  0  0  0  0  0  0  0  0  0  0
    1.7129    2.9446   -0.0199 C   0  0  0  0  0  0  0  0  0  0  0  0
    2.9988    1.5066   -0.1882 C   0  0  0  0  0  0  0  0  0  0  0  0
    1.9921   -0.1109   -0.2524 C   0  0  0  0  0  0  0  0  0  0  0  0
    1.5129   -0.7590   -0.5029 C   0  0  0  0  0  0  0  0  0  0  0  0
    0.7113   -0.7119   -0.7845 N   0  0  0  0  0  0  0  0  0  0  0  0
    0.4554   -1.4743   -0.9685 C   0  0  0  0  0  0  0  0  0  0  0  0
    1.7506   -1.5940   -0.5252 C   0  0  0  0  0  0  0  0  0  0  0  0
    1.1024   -2.0296   -0.8078 C   0  0  0  0  0  0  0  0  0  0  0  0
    2.5718   -1.9352   -0.2766 C   0  0  0  0  0  0  0  0  0  0  0  0
    1.0749   -2.9446   -0.9293 C   0  0  0  0  0  0  0  0  0  0  0  0
   -0.2199   -1.6561   -1.2292 O   0  0  0  0  0  0  0  0  0  0  0  0
   -2.8313   -1.9758    1.4732 C   0  0  0  0  0  0  0  0  0  0  0  0
   -3.3491    1.3345   -0.5677 C   0  0  0  0  0  0  0  0  0  0  0  0
   -4.2696    1.3920   -0.5236 C   0  0  0  0  0  0  0  0  0  0  0  0
   -4.7200    1.3089   -1.2068 O   0  0  0  0  0  0  0  0  0  0  0  0
   -4.6023    1.5130    0.1265 O   0  0  0  0  0  0  0  0  0  0  0  0
    3.3559    1.4783    0.6781 C   0  0  0  0  0  0  0  0  0  0  0  0
    4.2737    1.5705    0.6358 C   0  0  0  0  0  0  0  0  0  0  0  0
    4.7200    1.5637    1.3266 O   0  0  0  0  0  0  0  0  0  0  0  0
    4.6078    1.6506   -0.0199 O   0  0  0  0  0  0  0  0  0  0  0  0
    3.1426   -1.9489   -1.0202 C   0  0  0  0  0  0  0  0  0  0  0  0
  1  2  2  0
  2  3  1  0
  2  5  1  0
  3  4  1  0
  4  6  1  0
  4  9  2  0
  5  6  2  0
  5  7  1  0
  6  8  1  0
  8 34  1  0
  9 10  1  0
 10 11  2  0
 10 13  1  0
 11 12  1  0
 12 14  1  0
 12 17  2  0
 13 14  2  0
 13 15  1  0
 14 16  1  0
 15 35  1  0
 17 18  1  0
 18 19  1  0
 18 21  2  0
 19 20  1  0
 20 22  2  0
 20 25  1  0
 21 22  1  0
 21 23  1  0
 22 24  1  0
 24 39  1  0
 25 26  2  0
 26 27  1  0
 26 29  1  0
 27 28  1  0
 28 30  1  0
 28 33  2  0
 29 30  2  0
 29 31  1  0
 30 32  1  0
 31 43  1  0
 35 36  1  0
 36 37  1  0
 36 38  2  0
 39 40  1  0
 40 41  1  0
 40 42  2  0
M  END
>  <DRUGBANK_ID>  (1) 
DB04363

>  <SECONDARY_ACCESSION_NUMBERS>  (1) 
EXPT02129

>  <COMMON_NAME>  (1) 
Mesobiliverdin IV alpha

$$$$
