
     RDKit          2D

 12 12  0  0  1  0  0  0  0  0999 V2000
    0.9803   -0.1553    0.0000 C   0  0  0  0  0  0  0  0  0  0  0  0
    1.2352    0.6294    0.0000 C   0  0  0  0  0  0  0  0  0  0  0  0
   -0.3297   -0.8227    0.0000 C   0  0  0  0  0  0  0  0  0  0  0  0
    0.1553   -0.1553    0.0000 C   0  0  0  0  0  0  0  0  0  0  0  0
    0.5678    1.1143    0.0000 C   0  0  0  0  0  0  0  0  0  0  0  0
    0.0059   -1.5764    0.0000 C   0  0  0  0  0  0  0  0  0  0  0  0
    0.5678    1.9393    0.0000 C   0  0  0  0  0  0  0  0  0  0  0  0
   -0.0997    0.6294    0.0000 N   0  0  0  0  0  0  0  0  0  0  0  0
   -0.4790   -2.2438    0.0000 O   0  0  0  0  0  0  0  0  0  0  0  0
    0.8264   -1.6626    0.0000 O   0  0  0  0  0  0  0  0  0  0  0  0
   -0.1467    2.3518    0.0000 O   0  0  0  0  0  0  0  0  0  0  0  0
    1.2822    2.3518    0.0000 O   0  0  0  0  0  0  0  0  0  0  0  0
  2  1  1  0
  4  1  1  0
  4  3  1  1
  5  2  1  0
  5  7  1  6
  6  3  1  0
  8  4  1  0
  8  5  1  0
  9  6  2  0
 10  6  1  0
 11  7  2  0
 12  7  1  0
M  END
>  <DRUGBANK_ID>  (1) 
DB03215

>  <SECONDARY_ACCESSION_NUMBERS>  (1) 
EXPT02957

>  <COMMON_NAME>  (1) 
(2s,5s)-5-Carboxymethylproline

$$$$
