
     RDKit          2D

 34 34  0  0  0  0  0  0  0  0999 V2000
   -2.1719   -9.4259    0.0000 C   0  0  0  0  0  0  0  0  0  0  0  0
   -1.4575   -9.0134    0.0000 C   0  0  0  0  0  0  0  0  0  0  0  0
   -0.7430   -9.4259    0.0000 C   0  0  0  0  0  0  0  0  0  0  0  0
   -0.0285   -9.0134    0.0000 C   0  0  0  0  0  0  0  0  0  0  0  0
    0.6859   -9.4259    0.0000 C   0  0  0  0  0  0  0  0  0  0  0  0
    1.4004   -9.0134    0.0000 C   0  0  0  0  0  0  0  0  0  0  0  0
    2.1149   -9.4259    0.0000 C   0  0  0  0  0  0  0  0  0  0  0  0
    2.8294   -9.0134    0.0000 C   0  0  0  0  0  0  0  0  0  0  0  0
    3.5438   -9.4259    0.0000 C   0  0  0  0  0  0  0  0  0  0  0  0
    4.2583   -9.0134    0.0000 C   0  0  0  0  0  0  0  0  0  0  0  0
    4.9728   -9.4259    0.0000 C   0  0  0  0  0  0  0  0  0  0  0  0
    5.6872   -9.0134    0.0000 C   0  0  0  0  0  0  0  0  0  0  0  0
    6.4017   -9.4259    0.0000 C   0  0  0  0  0  0  0  0  0  0  0  0
    7.1162   -9.0134    0.0000 C   0  0  0  0  0  0  0  0  0  0  0  0
    7.8306   -9.4259    0.0000 O   0  0  0  0  0  0  0  0  0  0  0  0
    8.5451   -9.0134    0.0000 C   0  0  0  0  0  0  0  0  0  0  0  0
    8.6314   -8.1929    0.0000 C   0  0  0  0  0  0  0  0  0  0  0  0
    9.4383   -8.0213    0.0000 C   0  0  0  0  0  0  0  0  0  0  0  0
    9.8508   -8.7358    0.0000 C   0  0  0  0  0  0  0  0  0  0  0  0
    9.2988   -9.3489    0.0000 O   0  0  0  0  0  0  0  0  0  0  0  0
   10.6713   -8.8221    0.0000 C   0  0  0  0  0  0  0  0  0  0  0  0
   11.0069   -9.5757    0.0000 O   0  0  0  0  0  0  0  0  0  0  0  0
   11.1562   -8.1546    0.0000 O   0  0  0  0  0  0  0  0  0  0  0  0
   11.9767   -8.2409    0.0000 C   0  0  0  0  0  0  0  0  0  0  0  0
   12.4616   -7.5734    0.0000 C   0  0  0  0  0  0  0  0  0  0  0  0
   12.1261   -6.8197    0.0000 O   0  0  0  0  0  0  0  0  0  0  0  0
   13.2821   -7.6597    0.0000 N   0  0  0  0  0  0  0  0  0  0  0  0
   13.6177   -8.4133    0.0000 C   0  0  0  0  0  0  0  0  0  0  0  0
   13.7670   -6.9922    0.0000 C   0  0  0  0  0  0  0  0  0  0  0  0
   14.5875   -7.0784    0.0000 C   0  0  0  0  0  0  0  0  0  0  0  0
   14.9231   -7.8321    0.0000 O   0  0  0  0  0  0  0  0  0  0  0  0
   15.0724   -6.4110    0.0000 O   0  0  0  0  0  0  0  0  0  0  0  0
   15.8929   -6.4972    0.0000 C   0  0  0  0  0  0  0  0  0  0  0  0
   16.3778   -5.8298    0.0000 C   0  0  0  0  0  0  0  0  0  0  0  0
  1  2  1  0
  2  3  1  0
  3  4  1  0
  4  5  1  0
  5  6  1  0
  6  7  1  0
  7  8  1  0
  8  9  1  0
  9 10  1  0
 10 11  1  0
 11 12  1  0
 12 13  1  0
 13 14  1  0
 14 15  1  0
 15 16  1  0
 16 17  2  0
 16 20  1  0
 17 18  1  0
 18 19  2  0
 19 20  1  0
 19 21  1  0
 21 22  2  0
 21 23  1  0
 23 24  1  0
 24 25  1  0
 25 26  2  0
 25 27  1  0
 27 28  1  0
 27 29  1  0
 29 30  1  0
 30 31  2  0
 30 32  1  0
 32 33  1  0
 33 34  1  0
M  END
>  <DRUGBANK_ID>  (1) 
DB12642

>  <COMMON_NAME>  (1) 
Olumacostat glasaretil

>  <CAS_NUMBER>  (1) 
1261491-89-7

>  <UNII>  (1) 
4W6JDK2PLY

>  <SYNONYMS>  (1) 
Olumacostat glasaretil

$$$$
