
     RDKit          2D

  9 10  0  0  0  0  0  0  0  0999 V2000
   -1.3492   -0.4124    0.0000 C   0  0  0  0  0  0  0  0  0  0  0  0
   -1.3492    0.4125    0.0000 C   0  0  0  0  0  0  0  0  0  0  0  0
   -0.6347   -0.8250    0.0000 C   0  0  0  0  0  0  0  0  0  0  0  0
    0.0797   -0.4124    0.0000 C   0  0  0  0  0  0  0  0  0  0  0  0
    0.0797    0.4125    0.0000 C   0  0  0  0  0  0  0  0  0  0  0  0
   -0.6347    0.8250    0.0000 C   0  0  0  0  0  0  0  0  0  0  0  0
    0.8643   -0.6674    0.0000 O   0  0  0  0  0  0  0  0  0  0  0  0
    1.3492    0.0000    0.0000 C   0  0  0  0  0  0  0  0  0  0  0  0
    0.8643    0.6674    0.0000 C   0  0  0  0  0  0  0  0  0  0  0  0
  2  1  2  0
  3  1  1  0
  4  3  2  0
  5  4  1  0
  6  2  1  0
  6  5  2  0
  7  4  1  0
  8  7  1  0
  9  5  1  0
  9  8  2  0
M  END
>  <DRUGBANK_ID>  (1) 
DB04179

>  <SECONDARY_ACCESSION_NUMBERS>  (1) 
EXPT00790

>  <COMMON_NAME>  (1) 
Benzofuran

>  <CAS_NUMBER>  (1) 
271-89-6

>  <UNII>  (1) 
LK6946W774

>  <SYNONYMS>  (1) 
1-benzofuran; Coumaron; Coumarone; Cumarone

$$$$
