
     RDKit          2D

 40 44  0  0  0  0  0  0  0  0999 V2000
    2.4390    1.3602    0.0000 O   0  0  0  0  0  0  0  0  0  0  0  0
    2.4390    0.5352    0.0000 C   0  0  0  0  0  0  0  0  0  0  0  0
    1.7246    0.9477    0.0000 C   0  0  0  0  0  0  0  0  0  0  0  0
    1.7246    1.7726    0.0000 O   0  0  0  0  0  0  0  0  0  0  0  0
    1.0101    0.5352    0.0000 C   0  0  0  0  0  0  0  0  0  0  0  0
    0.2956    0.9477    0.0000 C   0  0  0  0  0  0  0  0  0  0  0  0
   -0.4187    0.5352    0.0000 C   0  0  0  0  0  0  0  0  0  0  0  0
   -1.1332    0.9477    0.0000 C   0  0  0  0  0  0  0  0  0  0  0  0
   -1.1332    1.7726    0.0000 O   0  0  0  0  0  0  0  0  0  0  0  0
   -1.8477    0.5352    0.0000 C   0  0  0  0  0  0  0  0  0  0  0  0
   -2.5622    0.9477    0.0000 N   0  0  0  0  0  0  0  0  0  0  0  0
   -3.2767    0.5352    0.0000 C   0  0  0  0  0  0  0  0  0  0  0  0
   -3.9912    0.9477    0.0000 C   0  0  0  0  0  0  0  0  0  0  0  0
   -4.0774    1.7681    0.0000 C   0  0  0  0  0  0  0  0  0  0  0  0
   -4.8843    1.9396    0.0000 C   0  0  0  0  0  0  0  0  0  0  0  0
   -5.2969    1.2252    0.0000 C   0  0  0  0  0  0  0  0  0  0  0  0
   -4.7448    0.6121    0.0000 N   0  0  0  0  0  0  0  0  0  0  0  0
   -4.9163   -0.1948    0.0000 C   0  0  0  0  0  0  0  0  0  0  0  0
   -3.2767   -0.2896    0.0000 O   0  0  0  0  0  0  0  0  0  0  0  0
   -1.8477   -0.2896    0.0000 C   0  0  0  0  0  0  0  0  0  0  0  0
   -1.1332   -0.7023    0.0000 C   0  0  0  0  0  0  0  0  0  0  0  0
   -1.1332   -1.5273    0.0000 F   0  0  0  0  0  0  0  0  0  0  0  0
   -0.4187   -0.2896    0.0000 C   0  0  0  0  0  0  0  0  0  0  0  0
    0.2956   -0.7023    0.0000 C   0  0  0  0  0  0  0  0  0  0  0  0
    1.0101   -0.2896    0.0000 C   0  0  0  0  0  0  0  0  0  0  0  0
    1.7246   -0.7023    0.0000 C   0  0  0  0  0  0  0  0  0  0  0  0
    2.4390   -0.2896    0.0000 C   0  0  0  0  0  0  0  0  0  0  0  0
    3.1535   -0.7023    0.0000 C   0  0  0  0  0  0  0  0  0  0  0  0
    3.8679   -0.2896    0.0000 C   0  0  0  0  0  0  0  0  0  0  0  0
    4.5824   -0.7023    0.0000 O   0  0  0  0  0  0  0  0  0  0  0  0
    3.8679    0.5352    0.0000 C   0  0  0  0  0  0  0  0  0  0  0  0
    4.5824    0.9477    0.0000 C   0  0  0  0  0  0  0  0  0  0  0  0
    4.5824    1.7726    0.0000 O   0  0  0  0  0  0  0  0  0  0  0  0
    5.2969    0.5352    0.0000 N   0  0  0  0  0  0  0  0  0  0  0  0
    3.1535    0.9477    0.0000 C   0  0  0  0  0  0  0  0  0  0  0  0
    3.1535    1.7726    0.0000 O   0  0  0  0  0  0  0  0  0  0  0  0
    3.1535   -1.5273    0.0000 N   0  0  0  0  0  0  0  0  0  0  0  0
    2.4390   -1.9397    0.0000 C   0  0  0  0  0  0  0  0  0  0  0  0
    3.8679   -1.9397    0.0000 C   0  0  0  0  0  0  0  0  0  0  0  0
    0.2956    1.7726    0.0000 O   0  0  0  0  0  0  0  0  0  0  0  0
  2  1  1  1
  2  3  1  0
  2 27  1  0
  2 35  1  0
  3  4  1  0
  3  5  2  0
  5  6  1  0
  5 25  1  0
  6  7  1  0
  6 40  2  0
  7  8  2  0
  7 23  1  0
  8  9  1  0
  8 10  1  0
 10 11  1  0
 10 20  2  0
 11 12  1  0
 12 19  2  0
 13 12  1  1
 13 14  1  0
 13 17  1  0
 14 15  1  0
 16 15  1  0
 17 16  1  0
 17 18  1  0
 21 20  1  0
 21 22  1  0
 23 21  2  0
 24 23  1  0
 25 24  1  6
 26 25  1  0
 27 26  1  6
 27 28  1  0
 28 29  1  0
 28 37  1  1
 29 30  1  0
 31 29  2  0
 31 32  1  0
 32 33  2  0
 32 34  1  0
 35 31  1  0
 35 36  2  0
 37 38  1  0
 37 39  1  0
M  END
>  <DRUGBANK_ID>  (1) 
DB15040

>  <COMMON_NAME>  (1) 
TP-271

>  <CAS_NUMBER>  (1) 
1207284-17-0

>  <UNII>  (1) 
Y6IUM7395Q

$$$$
