
     RDKit          2D

 23 25  0  0  0  0  0  0  0  0999 V2000
   -2.5006   -0.6187    0.0000 C   0  0  0  0  0  0  0  0  0  0  0  0
   -3.2151   -1.0312    0.0000 C   0  0  0  0  0  0  0  0  0  0  0  0
   -3.2151   -1.8562    0.0000 C   0  0  0  0  0  0  0  0  0  0  0  0
   -2.5006   -2.2687    0.0000 C   0  0  0  0  0  0  0  0  0  0  0  0
   -1.7861   -1.0312    0.0000 C   0  0  0  0  0  0  0  0  0  0  0  0
   -1.7861   -1.8562    0.0000 C   0  0  0  0  0  0  0  0  0  0  0  0
   -1.0716   -2.2687    0.0000 N   0  0  0  0  0  0  0  0  0  0  0  0
   -0.3572   -1.8562    0.0000 C   0  0  0  0  0  0  0  0  0  0  0  0
    0.3572   -2.2687    0.0000 N   0  0  0  0  0  0  0  0  0  0  0  0
   -0.3572   -1.0312    0.0000 C   0  0  0  0  0  0  0  0  0  0  0  0
   -1.0716   -0.6187    0.0000 C   0  0  0  0  0  0  0  0  0  0  0  0
    0.3572   -0.6187    0.0000 N   0  0  0  0  0  0  0  0  0  0  0  0
    0.3572    0.2062    0.0000 C   0  0  0  0  0  0  0  0  0  0  0  0
   -1.0716    0.2062    0.0000 N   0  0  0  0  0  0  0  0  0  0  0  0
   -1.7861    0.6187    0.0000 C   0  0  0  0  0  0  0  0  0  0  0  0
   -2.5006    1.8562    0.0000 C   0  0  0  0  0  0  0  0  0  0  0  0
   -1.7861    1.4437    0.0000 C   0  0  0  0  0  0  0  0  0  0  0  0
   -1.0716    1.8562    0.0000 C   0  0  0  0  0  0  0  0  0  0  0  0
   -1.7861    2.2687    0.0000 O   0  0  0  0  0  0  0  0  0  0  0  0
    1.0717    0.6187    0.0000 C   0  0  0  0  0  0  0  0  0  0  0  0
    1.7861    0.2062    0.0000 O   0  0  0  0  0  0  0  0  0  0  0  0
    2.5006    0.6187    0.0000 C   0  0  0  0  0  0  0  0  0  0  0  0
    3.2151    0.2062    0.0000 C   0  0  0  0  0  0  0  0  0  0  0  0
  1  2  2  0
  1  5  1  0
  2  3  1  0
  3  4  2  0
  4  6  1  0
  6  5  2  0
  6  7  1  0
  7  8  2  0
  8 10  1  0
  8  9  1  0
 10 12  1  0
 11  5  1  0
 11 10  2  0
 11 14  1  0
 13 12  2  0
 13 20  1  0
 14 13  1  0
 15 14  1  0
 15 17  1  0
 17 19  1  0
 17 16  1  0
 17 18  1  0
 20 21  1  0
 21 22  1  0
 22 23  1  0
M  END
>  <DRUGBANK_ID>  (1) 
DB06530

>  <COMMON_NAME>  (1) 
Resiquimod

>  <CAS_NUMBER>  (1) 
144875-48-9

>  <UNII>  (1) 
V3DMU7PVXF

>  <SYNONYMS>  (1) 
Resiquimod

$$$$
