CBC
     RDKit          2D

 27 29  0  0  0  0  0  0  0  0999 V2000
   -2.7701    1.8460    0.0000 F   0  0  0  0  0  0  0  0  0  0  0  0
   -2.7701    1.0210    0.0000 C   0  0  0  0  0  0  0  0  0  0  0  0
   -1.9451    1.0210    0.0000 F   0  0  0  0  0  0  0  0  0  0  0  0
   -3.5951    1.0210    0.0000 F   0  0  0  0  0  0  0  0  0  0  0  0
   -2.7701    0.1960    0.0000 C   0  0  0  0  0  0  0  0  0  0  0  0
   -3.4845   -0.2165    0.0000 C   0  0  0  0  0  0  0  0  0  0  0  0
   -3.4845   -1.0415    0.0000 C   0  0  0  0  0  0  0  0  0  0  0  0
   -2.7701   -1.4540    0.0000 C   0  0  0  0  0  0  0  0  0  0  0  0
   -2.0556   -1.0415    0.0000 C   0  0  0  0  0  0  0  0  0  0  0  0
   -2.0556   -0.2165    0.0000 C   0  0  0  0  0  0  0  0  0  0  0  0
   -1.3411    0.1960    0.0000 S   0  0  0  0  0  0  0  0  0  0  0  0
   -0.9286   -0.5185    0.0000 O   0  0  0  0  0  0  0  0  0  0  0  0
   -1.5126    1.0030    0.0000 O   0  0  0  0  0  0  0  0  0  0  0  0
   -0.6267    0.6085    0.0000 N   0  0  0  0  0  0  0  0  0  0  0  0
    0.0878    0.1960    0.0000 N   0  0  0  0  0  0  0  0  0  0  0  0
    0.8023    0.6085    0.0000 C   0  0  0  0  0  0  0  0  0  0  0  0
    0.8023    1.4335    0.0000 O   0  0  0  0  0  0  0  0  0  0  0  0
    1.5168    0.1960    0.0000 C   0  0  0  0  0  0  0  0  0  0  0  0
    2.2704    0.5316    0.0000 C   0  0  0  0  0  0  0  0  0  0  0  0
    1.6030   -0.6245    0.0000 O   0  0  0  0  0  0  0  0  0  0  0  0
    2.4100   -0.7960    0.0000 C   0  0  0  0  0  0  0  0  0  0  0  0
    2.8225   -0.0815    0.0000 C   0  0  0  0  0  0  0  0  0  0  0  0
    3.6475   -0.0815    0.0000 C   0  0  0  0  0  0  0  0  0  0  0  0
    2.8225   -1.5105    0.0000 C   0  0  0  0  0  0  0  0  0  0  0  0
    3.6475   -1.5105    0.0000 C   0  0  0  0  0  0  0  0  0  0  0  0
    4.0600   -0.7960    0.0000 C   0  0  0  0  0  0  0  0  0  0  0  0
    4.8850   -0.7960    0.0000 Cl  0  0  0  0  0  0  0  0  0  0  0  0
  1  2  1  0
  2  3  1  0
  2  4  1  0
  2  5  1  0
  5  6  2  0
  5 10  1  0
  6  7  1  0
  7  8  2  0
  8  9  1  0
  9 10  2  0
 10 11  1  0
 11 12  2  0
 11 13  2  0
 11 14  1  0
 14 15  1  0
 15 16  1  0
 16 17  2  0
 16 18  1  0
 18 19  2  0
 18 20  1  0
 19 22  1  0
 20 21  1  0
 21 22  2  0
 21 24  1  0
 22 23  1  0
 23 26  2  0
 24 25  2  0
 25 26  1  0
 26 27  1  0
M  END
>  <DRUGBANK_ID>  (1) 
DB07544

>  <COMMON_NAME>  (1) 
N'-(5-CHLOROBENZOFURAN-2-CARBONYL)-2-(TRIFLUOROMETHYL)BENZENESULFONOHYDRAZIDE

$$$$
