
     RDKit          2D

  5  4  0  0  0  0  0  0  0  0999 V2000
    0.7146    0.2062    0.0000 As  0  0  0  0  0  3  0  0  0  0  0  0
   -0.7146    0.2062    0.0000 As  0  0  0  0  0  3  0  0  0  0  0  0
    0.0000   -0.2062    0.0000 O   0  0  0  0  0  0  0  0  0  0  0  0
    1.4290   -0.2062    0.0000 O   0  0  0  0  0  0  0  0  0  0  0  0
   -1.4290   -0.2062    0.0000 O   0  0  0  0  0  0  0  0  0  0  0  0
  1  3  1  0
  1  4  2  0
  2  3  1  0
  2  5  2  0
M  END
>  <DRUGBANK_ID>  (1) 
DB01169

>  <SECONDARY_ACCESSION_NUMBERS>  (1) 
APRD00171

>  <COMMON_NAME>  (1) 
Arsenic trioxide

>  <CAS_NUMBER>  (1) 
1327-53-3

>  <UNII>  (1) 
S7V92P67HO

>  <SYNONYMS>  (1) 
Acide Arsenieux; Anhydride Arsenieux; Arsenic Blanc; Arsenic oxide; Arsenic trioxide; Arsenic(III) oxide; arsénico trióxido; Arsenigen Saure; Arsenolite; Arsenous oxide; Arsenous oxide anhydride; Diarsenic oxide; Diarsenic trioxide; White arsenic

$$$$
