
     RDKit          2D

  9  7  0  0  0  0  0  0  0  0999 V2000
    0.4125   -0.3572    0.0000 C   0  0  0  0  0  0  0  0  0  0  0  0
   -0.4125   -0.3572    0.0000 C   0  0  0  0  0  0  0  0  0  0  0  0
    0.8250    0.3572    0.0000 C   0  0  0  0  0  0  0  0  0  0  0  0
   -0.8250   -1.0717    0.0000 C   0  0  0  0  0  0  0  0  0  0  0  0
    1.6500    0.3572    0.0000 O   0  0  0  0  0  0  0  0  0  0  0  0
    0.4125    1.0717    0.0000 O   0  0  0  0  0  0  0  0  0  0  0  0
   -1.6500   -1.0717    0.0000 O   0  0  0  0  0  0  0  0  0  0  0  0
   -0.4125   -1.7861    0.0000 O   0  0  0  0  0  0  0  0  0  0  0  0
    0.0000    1.7861    0.0000 Fe  0  0  0  0  0 15  0  0  0  0  0  0
  2  1  2  0
  3  1  1  0
  4  2  1  0
  5  3  2  0
  6  3  1  0
  7  4  2  0
  8  4  1  0
M  CHG  3   6  -1   8  -1   9   2
M  END
>  <DRUGBANK_ID>  (1) 
DB14491

>  <SECONDARY_ACCESSION_NUMBERS>  (1) 
DBSALT000079

>  <COMMON_NAME>  (1) 
Ferrous fumarate

>  <CAS_NUMBER>  (1) 
141-01-5

>  <UNII>  (1) 
R5L488RY0Q

>  <SYNONYMS>  (1) 
Ferrous fumarate; Iron(2+) fumarate

$$$$
