
     RDKit          2D

 22 26  0  0  1  0  0  0  0  0999 V2000
   -0.7420    0.1762    0.0000 C   0  0  0  0  0  0  0  0  0  0  0  0
    0.0817    0.2234    0.0000 C   0  0  0  0  0  0  0  0  0  0  0  0
    4.3623    2.0281    0.0000 C   0  0  0  0  0  0  0  0  0  0  0  0
    4.3231    1.2040    0.0000 C   0  0  0  0  0  0  0  0  0  0  0  0
   -0.8237    1.6029    0.0000 C   0  0  0  0  0  0  0  0  0  0  0  0
    3.6683    2.4741    0.0000 C   0  0  0  0  0  0  0  0  0  0  0  0
    3.5899    0.8259    0.0000 C   0  0  0  0  0  0  0  0  0  0  0  0
    1.5656    3.1709    0.0000 C   0  0  0  0  0  0  0  0  0  0  0  0
   -0.3710    0.9131    0.0000 C   0  0  0  0  0  0  0  0  0  0  0  0
   -0.4527    2.3397    0.0000 C   0  0  0  0  0  0  0  0  0  0  0  0
    0.7420    3.1238    0.0000 C   0  0  0  0  0  0  0  0  0  0  0  0
    0.9053    0.2705    0.0000 C   0  0  0  0  0  0  0  0  0  0  0  0
    2.9350    2.0960    0.0000 C   0  0  0  0  0  0  0  0  0  0  0  0
    2.0183    2.4812    0.0000 C   0  0  0  0  0  0  0  0  0  0  0  0
    2.8958    1.2719    0.0000 C   0  0  0  0  0  0  0  0  0  0  0  0
    1.7290    0.3177    0.0000 C   0  0  0  0  0  0  0  0  0  0  0  0
    1.6473    1.7443    0.0000 C   0  0  0  0  0  0  0  0  0  0  0  0
    0.8237    1.6971    0.0000 C   0  0  0  0  0  0  0  0  0  0  0  0
    0.4527    0.9603    0.0000 C   0  0  0  0  0  0  0  0  0  0  0  0
    0.3710    2.3869    0.0000 N   0  0  0  0  0  0  0  0  0  0  0  0
    2.1000    1.0546    0.0000 N   0  0  0  0  0  0  0  0  0  0  0  0
    2.1816   -0.3720    0.0000 O   0  0  0  0  0  0  0  0  0  0  0  0
  2  1  1  0
  4  3  2  0
  6  3  1  0
  7  4  1  0
  9  5  1  0
 10  5  1  0
 11  8  1  0
 13  6  2  0
 14  8  1  0
 14 13  1  0
 15  7  2  0
 15 13  1  0
 16 12  1  0
 17 14  2  0
 18 17  1  0
 19  2  1  1
 19  9  1  0
 19 12  1  0
 19 18  1  0
 20 10  1  0
 20 11  1  0
 18 20  1  6
 21 15  1  0
 21 16  1  0
 21 17  1  0
 22 16  2  0
M  END
>  <DRUGBANK_ID>  (1) 
DB13793

>  <COMMON_NAME>  (1) 
Vinburnine

>  <CAS_NUMBER>  (1) 
4880-88-0

>  <UNII>  (1) 
G54D0HMY25

>  <SYNONYMS>  (1) 
Vinburnina

$$$$
