
     RDKit          2D

 24 25  0  0  0  0  0  0  0  0999 V2000
   -2.3988   -0.3390    0.0000 Br  0  0  0  0  0  0  0  0  0  0  0  0
    0.8930    1.1079    0.0000 O   0  0  0  0  0  0  0  0  0  0  0  0
   -0.1543    2.0798    0.0000 O   0  0  0  0  0  0  0  0  0  0  0  0
    2.3062   -1.6307    0.0000 N   0  0  0  0  0  0  0  0  0  0  0  0
    2.7186    0.1763    0.0000 N   0  0  0  0  0  0  0  0  0  0  0  0
    0.5751   -0.2850    0.0000 N   0  0  0  0  0  0  0  0  0  0  0  0
   -2.8851    1.2375    0.0000 N   0  0  0  0  0  0  0  0  0  0  0  0
    1.3793   -0.4685    0.0000 C   0  0  0  0  0  0  0  0  0  0  0  0
    1.5629   -1.2728    0.0000 C   0  0  0  0  0  0  0  0  0  0  0  0
    1.8937    0.1763    0.0000 C   0  0  0  0  0  0  0  0  0  0  0  0
    3.0494   -1.2728    0.0000 C   0  0  0  0  0  0  0  0  0  0  0  0
    3.2330   -0.4685    0.0000 C   0  0  0  0  0  0  0  0  0  0  0  0
    2.3062   -2.4557    0.0000 C   0  0  0  0  0  0  0  0  0  0  0  0
    3.0766    0.9196    0.0000 C   0  0  0  0  0  0  0  0  0  0  0  0
    3.0206   -2.8682    0.0000 C   0  0  0  0  0  0  0  0  0  0  0  0
    0.3319    0.5033    0.0000 C   0  0  0  0  0  0  0  0  0  0  0  0
   -0.4723    0.6868    0.0000 C   0  0  0  0  0  0  0  0  0  0  0  0
   -0.7155    1.4751    0.0000 C   0  0  0  0  0  0  0  0  0  0  0  0
   -1.0334    0.0821    0.0000 C   0  0  0  0  0  0  0  0  0  0  0  0
   -1.5197    1.6587    0.0000 C   0  0  0  0  0  0  0  0  0  0  0  0
   -1.8377    0.2657    0.0000 C   0  0  0  0  0  0  0  0  0  0  0  0
   -2.0809    1.0540    0.0000 C   0  0  0  0  0  0  0  0  0  0  0  0
   -0.3975    2.8682    0.0000 C   0  0  0  0  0  0  0  0  0  0  0  0
   -3.1282    2.0258    0.0000 C   0  0  0  0  0  0  0  0  0  0  0  0
  1 21  1  0
  2 16  2  0
  3 18  1  0
  3 23  1  0
  4  9  1  0
  4 11  1  0
  4 13  1  0
  5 10  1  0
  5 12  1  0
  5 14  1  0
  6 16  1  0
  7 22  1  0
  7 24  1  0
  8  6  1  6
  8  9  1  0
  8 10  1  0
 11 12  1  0
 13 15  1  0
 16 17  1  0
 17 18  2  0
 17 19  1  0
 18 20  1  0
 19 21  2  0
 20 22  2  0
 21 22  1  0
M  END
>  <DRUGBANK_ID>  (1) 
DB09207

>  <COMMON_NAME>  (1) 
AS-8112

$$$$
