Y11
     RDKit          2D

 29 31  0  0  0  0  0  0  0  0999 V2000
   -2.2642    0.2005    0.0000 C   0  0  0  0  0  0  0  0  0  0  0  0
   -1.5497   -1.0370    0.0000 C   0  0  0  0  0  0  0  0  0  0  0  0
   -1.5497   -1.8620    0.0000 C   0  0  0  0  0  0  0  0  0  0  0  0
   -2.9787   -1.8620    0.0000 C   0  0  0  0  0  0  0  0  0  0  0  0
   -2.9787   -1.0370    0.0000 C   0  0  0  0  0  0  0  0  0  0  0  0
   -2.9787    0.6130    0.0000 O   0  0  0  0  0  0  0  0  0  0  0  0
   -2.2642   -2.2745    0.0000 O   0  0  0  0  0  0  0  0  0  0  0  0
   -2.2642   -0.6245    0.0000 N   0  0  0  0  0  0  0  0  0  0  0  0
   -1.5497    0.6130    0.0000 N   0  0  0  0  0  0  0  0  0  0  0  0
   -0.8353    0.2005    0.0000 C   0  0  0  0  0  0  0  0  0  0  0  0
   -0.8353   -0.6245    0.0000 C   0  0  0  0  0  0  0  0  0  0  0  0
   -0.1208   -1.0370    0.0000 C   0  0  0  0  0  0  0  0  0  0  0  0
   -0.1208   -1.8620    0.0000 C   0  0  0  0  0  0  0  0  0  0  0  0
    0.5937   -2.2745    0.0000 C   0  0  0  0  0  0  0  0  0  0  0  0
    1.3081   -1.8620    0.0000 C   0  0  0  0  0  0  0  0  0  0  0  0
    1.3081   -1.0370    0.0000 C   0  0  0  0  0  0  0  0  0  0  0  0
    0.5937   -0.6245    0.0000 C   0  0  0  0  0  0  0  0  0  0  0  0
   -0.1208    0.6130    0.0000 C   0  0  0  0  0  0  0  0  0  0  0  0
   -0.1208    1.4380    0.0000 O   0  0  0  0  0  0  0  0  0  0  0  0
    0.5937    0.2005    0.0000 N   0  0  0  0  0  0  0  0  0  0  0  0
    0.7778    1.2450    0.0000 C   0  0  0  0  0  0  0  0  0  0  0  0
    1.0600    2.0202    0.0000 C   0  0  0  0  0  0  0  0  0  0  0  0
    2.4028    1.5315    0.0000 C   0  0  0  0  0  0  0  0  0  0  0  0
    2.1206    0.7563    0.0000 C   0  0  0  0  0  0  0  0  0  0  0  0
    1.8725    2.1635    0.0000 N   0  0  0  0  0  0  0  0  0  0  0  0
    2.1546    2.9388    0.0000 C   0  0  0  0  0  0  0  0  0  0  0  0
    1.5903   -0.1622    0.0000 C   0  0  0  0  0  0  0  0  0  0  0  0
    1.8725   -0.9375    0.0000 N   0  0  0  0  0  0  0  0  0  0  0  0
    1.3081    0.6130    0.0000 C   0  0  0  0  0  0  0  0  0  0  0  0
  1  6  2  0
  1  8  1  0
  2  3  1  0
  4  7  1  0
  5  8  1  0
  5  4  1  0
  7  3  1  0
  8  2  1  0
  9  1  1  0
 10 18  1  0
 10  9  1  0
 10 11  1  6
 12 11  1  0
 13 12  1  0
 14 13  1  0
 15 14  1  0
 15 16  1  0
 16 17  1  0
 17 12  1  0
 18 19  2  0
 20 18  1  0
 20 29  1  0
 21 22  1  0
 23 25  1  0
 24 29  1  0
 24 23  1  0
 25 22  1  0
 25 26  1  0
 27 28  3  0
 27 29  1  0
 29 21  1  0
M  END
>  <DRUGBANK_ID>  (1) 
DB08752

>  <COMMON_NAME>  (1) 
N-[(1S)-2-[(4-cyano-1-methylpiperidin-4-yl)amino]-1-(cyclohexylmethyl)-2-oxoethyl]morpholine-4-carboxamide

$$$$
