
     RDKit          2D

 28 30  0  0  0  0  0  0  0  0999 V2000
   -1.7861   -1.4598    0.0000 C   0  0  0  0  0  0  0  0  0  0  0  0
   -1.7861   -0.6347    0.0000 C   0  0  0  0  0  0  0  0  0  0  0  0
   -2.5006   -1.8722    0.0000 C   0  0  0  0  0  0  0  0  0  0  0  0
   -1.0717   -1.8722    0.0000 C   0  0  0  0  0  0  0  0  0  0  0  0
   -1.0717   -0.2222    0.0000 C   0  0  0  0  0  0  0  0  0  0  0  0
   -2.5006   -0.2222    0.0000 C   0  0  0  0  0  0  0  0  0  0  0  0
   -3.2151   -1.4598    0.0000 C   0  0  0  0  0  0  0  0  0  0  0  0
   -2.5006   -2.6972    0.0000 C   0  0  0  0  0  0  0  0  0  0  0  0
   -1.0717   -2.6972    0.0000 C   0  0  0  0  0  0  0  0  0  0  0  0
   -1.0717    0.6027    0.0000 C   0  0  0  0  0  0  0  0  0  0  0  0
   -3.2151   -0.6347    0.0000 C   0  0  0  0  0  0  0  0  0  0  0  0
   -1.7861   -3.1098    0.0000 C   0  0  0  0  0  0  0  0  0  0  0  0
   -1.7861    1.0152    0.0000 C   0  0  0  0  0  0  0  0  0  0  0  0
   -0.3572    1.0152    0.0000 C   0  0  0  0  0  0  0  0  0  0  0  0
   -1.7861    1.8402    0.0000 C   0  0  0  0  0  0  0  0  0  0  0  0
    0.3572    0.6027    0.0000 O   0  0  0  0  0  0  0  0  0  0  0  0
   -0.3572    1.8402    0.0000 O   0  0  0  0  0  0  0  0  0  0  0  0
   -1.1187    2.3251    0.0000 C   0  0  0  0  0  0  0  0  0  0  0  0
   -2.4536    2.3251    0.0000 O   0  0  0  0  0  0  0  0  0  0  0  0
    1.0716    1.0152    0.0000 C   0  0  0  0  0  0  0  0  0  0  0  0
   -1.3736    3.1098    0.0000 C   0  0  0  0  0  0  0  0  0  0  0  0
   -2.1986    3.1098    0.0000 C   0  0  0  0  0  0  0  0  0  0  0  0
    1.7861    0.6027    0.0000 C   0  0  0  0  0  0  0  0  0  0  0  0
    2.5006    1.0152    0.0000 N   0  0  0  0  0  0  0  0  0  0  0  0
    2.5006    1.8402    0.0000 C   0  0  0  0  0  0  0  0  0  0  0  0
    3.2151    0.6027    0.0000 C   0  0  0  0  0  0  0  0  0  0  0  0
    3.2151    2.2527    0.0000 C   0  0  0  0  0  0  0  0  0  0  0  0
    3.2151   -0.2222    0.0000 C   0  0  0  0  0  0  0  0  0  0  0  0
  1  2  1  0
  1  3  1  0
  1  4  2  0
  2  5  1  0
  2  6  2  0
  3  7  1  0
  3  8  2  0
  4  9  1  0
  5 10  1  0
  6 11  1  0
  7 11  2  0
  8 12  1  0
  9 12  2  0
 10 13  1  0
 10 14  1  0
 13 15  1  0
 14 16  1  0
 14 17  2  0
 15 18  1  0
 15 19  1  0
 16 20  1  0
 18 21  1  0
 19 22  1  0
 20 23  1  0
 21 22  1  0
 23 24  1  0
 24 25  1  0
 24 26  1  0
 25 27  1  0
 26 28  1  0
M  END
>  <DRUGBANK_ID>  (1) 
DB13588

>  <COMMON_NAME>  (1) 
Naftidrofuryl

>  <CAS_NUMBER>  (1) 
31329-57-4

>  <UNII>  (1) 
42H8PQ0NMJ

>  <SYNONYMS>  (1) 
Nafronyl; Naftidrofurilo; Naftidrofuryl; Naftidrofurylum

$$$$
