
     RDKit          2D

 12 12  0  0  1  0  0  0  0  0999 V2000
    1.4289   -0.0000    0.0000 C   0  0  0  0  0  0  0  0  0  0  0  0
    0.0000   -0.0000    0.0000 C   0  0  0  0  0  0  0  0  0  0  0  0
    1.4289    0.8250    0.0000 C   0  0  0  0  0  0  0  0  0  0  0  0
    0.0000    0.8250    0.0000 C   0  0  0  0  0  0  0  0  0  0  0  0
    0.7145   -0.4125    0.0000 C   0  0  0  0  0  0  0  0  0  0  0  0
    0.7145    1.2375    0.0000 C   0  0  0  0  0  0  0  0  0  0  0  0
    0.7145   -1.2375    0.0000 C   0  0  0  0  0  0  0  0  0  0  0  0
   -0.0000   -1.6500    0.0000 C   0  0  0  0  0  0  0  0  0  0  0  0
    1.4289   -1.6500    0.0000 N   0  0  0  0  0  0  0  0  0  0  0  0
    0.7145    2.0625    0.0000 O   0  0  0  0  0  0  0  0  0  0  0  0
   -0.0000   -2.4750    0.0000 O   0  0  0  0  0  0  0  0  0  0  0  0
   -0.7145   -1.2375    0.0000 O   0  0  0  0  0  0  0  0  0  0  0  0
  3  1  2  0
  4  2  1  0
  5  1  1  0
  5  2  2  0
  6  3  1  0
  6  4  2  0
  7  5  1  0
  7  9  1  1
  8  7  1  0
 10  6  1  0
 11  8  1  0
 12  8  2  0
M  END
>  <DRUGBANK_ID>  (1) 
DB04308

>  <SECONDARY_ACCESSION_NUMBERS>  (1) 
EXPT01178

>  <COMMON_NAME>  (1) 
D-4-hydroxyphenylglycine

>  <CAS_NUMBER>  (1) 
22818-40-2

>  <UNII>  (1) 
PCM9OIX717

>  <SYNONYMS>  (1) 
(R)-(4-hydroxyphenyl)glycine; (R)-2-(4-hydroxyphenyl)glycine; (R)-alpha-Amino-4-hydroxybenzeneacetic acid; (R)-ethyl 2-amino-2-(4-hydroxyphenyl)acetate; 4-hydroxy-d-phenylglycine; D-(-)-2-(p-hydroxyphenyl)glycine; D-(-)-4-hydroxyphenylglycine; D-(-)-amino(4-hydroxyphenyl)acetic acid; D-(-)-p-hydroxyphenylglycine; D-2-amino-2-(p-hydroxyphenyl)acetic acid; D-4-hydroxyphenylglycine; D-N-(4-Hydroxyphenyl)glycine; D-p-hydroxyphenylglycine; P-hydroxy-(R)-phenylglycine; P-hydroxy-d-phenylglycine

$$$$
