
     RDKit          2D

  2  1  0  0  0  0  0  0  0  0999 V2000
    0.8250    0.0000    0.0000 C   0  0  0  0  0  0  0  0  0  0  0  0
    0.0000    0.0000    0.0000 N   0  0  0  0  0  0  0  0  0  0  0  0
  1  2  1  0
M  END
>  <DRUGBANK_ID>  (1) 
DB01828

>  <SECONDARY_ACCESSION_NUMBERS>  (1) 
EXPT02363

>  <COMMON_NAME>  (1) 
Methylamine

>  <CAS_NUMBER>  (1) 
74-89-5

>  <UNII>  (1) 
BSF23SJ79E

$$$$
