
     RDKit          2D

 22 23  0  0  0  0  0  0  0  0999 V2000
    3.0171    2.7288    0.0000 C   0  0  0  0  0  0  0  0  0  0  0  0
    2.6815    3.4824    0.0000 C   0  0  0  0  0  0  0  0  0  0  0  0
    1.8610    3.5687    0.0000 C   0  0  0  0  0  0  0  0  0  0  0  0
    1.5255    4.3223    0.0000 C   0  0  0  0  0  0  0  0  0  0  0  0
    0.7050    4.4086    0.0000 C   0  0  0  0  0  0  0  0  0  0  0  0
    0.3694    5.1623    0.0000 C   0  0  0  0  0  0  0  0  0  0  0  0
   -0.4509    5.2485    0.0000 C   0  0  0  0  0  0  0  0  0  0  0  0
   -0.7865    6.0022    0.0000 C   0  0  0  0  0  0  0  0  0  0  0  0
   -2.0821    8.1696    0.0000 C   0  0  0  0  0  0  0  0  0  0  0  0
   -2.8357    7.8341    0.0000 C   0  0  0  0  0  0  0  0  0  0  0  0
   -3.5894    8.1696    0.0000 C   0  0  0  0  0  0  0  0  0  0  0  0
   -4.2569    7.6847    0.0000 C   0  0  0  0  0  0  0  0  0  0  0  0
   -4.1706    6.8642    0.0000 C   0  0  0  0  0  0  0  0  0  0  0  0
   -3.4169    6.5287    0.0000 C   0  0  0  0  0  0  0  0  0  0  0  0
   -1.9425    6.8421    0.0000 C   0  0  0  0  0  0  0  0  0  0  0  0
   -1.6070    6.0884    0.0000 N   0  0  0  0  0  0  0  0  0  0  0  0
   -2.7495    7.0136    0.0000 N   0  0  0  0  0  0  0  0  0  0  0  0
   -3.6757    8.9901    0.0000 O   0  0  0  0  0  0  0  0  0  0  0  0
   -5.0105    8.0203    0.0000 O   0  0  0  0  0  0  0  0  0  0  0  0
   -4.8381    6.3793    0.0000 O   0  0  0  0  0  0  0  0  0  0  0  0
   -3.3307    5.7082    0.0000 O   0  0  0  0  0  0  0  0  0  0  0  0
   -1.5300    7.5565    0.0000 S   0  0  0  0  0  0  0  0  0  0  0  0
  2  1  1  0
  3  2  1  0
  4  3  1  0
  5  4  1  0
  6  5  1  0
  7  6  1  0
  8  7  1  0
 10  9  1  1
 11 10  1  0
 11 18  1  6
 12 11  1  0
 12 19  1  1
 13 12  1  0
 13 20  1  6
 14 13  1  0
 14 21  1  1
 16  8  1  0
 16 15  2  0
 17 10  1  0
 17 14  1  0
 17 15  1  0
 22  9  1  0
 22 15  1  0
M  END
>  <DRUGBANK_ID>  (1) 
DB07370

>  <COMMON_NAME>  (1) 
(3Z,5S,6R,7S,8R,8aS)-3-(octylimino)hexahydro[1,3]thiazolo[3,4-a]pyridine-5,6,7,8-tetrol

$$$$
