
     RDKit          2D

 36 40  0  0  1  0  0  0  0  0999 V2000
   -3.4154   -0.9504    0.0000 C   0  0  0  0  0  0  0  0  0  0  0  0
   -3.8526   -1.6500    0.0000 C   0  0  0  0  0  0  0  0  0  0  0  0
   -4.6771   -1.6212    0.0000 C   0  0  0  0  0  0  0  0  0  0  0  0
   -3.4653   -2.3784    0.0000 C   0  0  0  0  0  0  0  0  0  0  0  0
   -3.9024   -3.0781    0.0000 C   0  0  0  0  0  0  0  0  0  0  0  0
   -3.5151   -3.8065    0.0000 C   0  0  0  0  0  0  0  0  0  0  0  0
   -2.6906   -3.8353    0.0000 C   0  0  0  0  0  0  0  0  0  0  0  0
   -2.2534   -3.1357    0.0000 C   0  0  0  0  0  0  0  0  0  0  0  0
   -2.6408   -2.4072    0.0000 C   0  0  0  0  0  0  0  0  0  0  0  0
   -1.9263   -1.9947    0.0000 C   0  0  0  0  0  0  0  0  0  0  0  0
   -1.2118   -2.4072    0.0000 C   0  0  0  0  0  0  0  0  0  0  0  0
   -0.4973   -1.9947    0.0000 N   0  0  0  0  0  0  0  0  0  0  0  0
   -0.4973   -1.1697    0.0000 C   0  0  0  0  0  0  0  0  0  0  0  0
    0.2171   -2.4072    0.0000 C   0  0  0  0  0  0  0  0  0  0  0  0
    0.9316   -1.9947    0.0000 C   0  0  0  0  0  0  0  0  0  0  0  0
    1.6461   -2.4072    0.0000 C   0  0  0  0  0  0  0  0  0  0  0  0
    2.3605   -1.9947    0.0000 C   0  0  0  0  0  0  0  0  0  0  0  0
    2.4468   -1.1742    0.0000 N   0  0  0  0  0  0  0  0  0  0  0  0
    3.2538   -1.0027    0.0000 C   0  0  0  0  0  0  0  0  0  0  0  0
    3.6663   -0.2882    0.0000 C   0  0  0  0  0  0  0  0  0  0  0  0
    4.4913   -0.2882    0.0000 C   0  0  0  0  0  0  0  0  0  0  0  0
    4.9038   -1.0027    0.0000 C   0  0  0  0  0  0  0  0  0  0  0  0
    4.4913   -1.7172    0.0000 C   0  0  0  0  0  0  0  0  0  0  0  0
    3.6663   -1.7172    0.0000 C   0  0  0  0  0  0  0  0  0  0  0  0
    3.1142   -2.3303    0.0000 N   0  0  0  0  0  0  0  0  0  0  0  0
   -2.5832   -1.5842    0.0000 O   0  0  0  0  0  0  0  0  0  0  0  0
   -1.8417   -1.2226    0.0000 C   0  0  0  0  0  0  0  0  0  0  0  0
   -1.1577   -1.6839    0.0000 O   0  0  0  0  0  0  0  0  0  0  0  0
   -1.7842   -0.3996    0.0000 C   0  0  0  0  0  0  0  0  0  0  0  0
   -2.1458    0.3419    0.0000 C   0  0  0  0  0  0  0  0  0  0  0  0
   -1.3228    0.2844    0.0000 C   0  0  0  0  0  0  0  0  0  0  0  0
   -3.9523   -4.5061    0.0000 C   0  0  0  0  0  0  0  0  0  0  0  0
   -4.7768   -4.4774    0.0000 C   0  0  0  0  0  0  0  0  0  0  0  0
   -5.2140   -5.1770    0.0000 F   0  0  0  0  0  0  0  0  0  0  0  0
   -5.1641   -3.7489    0.0000 C   0  0  0  0  0  0  0  0  0  0  0  0
   -4.7269   -3.0493    0.0000 C   0  0  0  0  0  0  0  0  0  0  0  0
  1  2  1  0
  2  3  1  0
  4  2  1  6
  4  5  1  0
  4  9  1  0
  5  6  2  0
  5 36  1  0
  6  7  1  0
  6 32  1  0
  7  8  1  0
  9  8  1  0
  9 10  1  1
  9 26  1  0
 10 11  1  0
 11 12  1  0
 12 13  1  0
 12 14  1  0
 14 15  1  0
 15 16  1  0
 16 17  1  0
 17 18  2  0
 17 25  1  0
 18 19  1  0
 19 20  2  0
 19 24  1  0
 20 21  1  0
 21 22  2  0
 22 23  1  0
 23 24  2  0
 24 25  1  0
 26 27  1  0
 27 28  2  0
 27 29  1  0
 29 30  1  0
 29 31  1  0
 30 31  1  0
 32 33  2  0
 33 34  1  0
 33 35  1  0
 35 36  2  0
M  END
>  <DRUGBANK_ID>  (1) 
DB17037

>  <COMMON_NAME>  (1) 
NNC-55-0396 free base

>  <CAS_NUMBER>  (1) 
357400-14-7

>  <UNII>  (1) 
MET7ZRB8Y7

>  <SYNONYMS>  (1) 
Cyclopropanecarboxylic acid, (1s,2s)-2-(2-((3-(1h-benzimidazol-2-yl)propyl)methylamino)ethyl)-6-fluoro-1,2,3,4-tetrahydro-1-(1-methylethyl)-2-naphthalenyl ester

$$$$
