
     RDKit          2D

 21 22  0  0  0  0  0  0  0  0999 V2000
    0.1105    5.1414    0.0000 C   0  0  0  0  0  0  0  0  0  0  0  0
    3.4105    2.8875    0.0000 C   0  0  0  0  0  0  0  0  0  0  0  0
    2.1730    2.1730    0.0000 C   0  0  0  0  0  0  0  0  0  0  0  0
    0.1105    1.8414    0.0000 C   0  0  0  0  0  0  0  0  0  0  0  0
    0.8250    2.2538    0.0000 C   0  0  0  0  0  0  0  0  0  0  0  0
   -0.6039    2.2538    0.0000 C   0  0  0  0  0  0  0  0  0  0  0  0
    0.8250    3.0789    0.0000 C   0  0  0  0  0  0  0  0  0  0  0  0
   -0.6039    3.0789    0.0000 C   0  0  0  0  0  0  0  0  0  0  0  0
   -1.1269    5.0309    0.0000 C   0  0  0  0  0  0  0  0  0  0  0  0
   -1.1269    3.6019    0.0000 C   0  0  0  0  0  0  0  0  0  0  0  0
   -1.9519    5.0309    0.0000 C   0  0  0  0  0  0  0  0  0  0  0  0
   -1.9519    3.6019    0.0000 C   0  0  0  0  0  0  0  0  0  0  0  0
    2.1730    3.6019    0.0000 C   0  0  0  0  0  0  0  0  0  0  0  0
    1.3480    3.6019    0.0000 C   0  0  0  0  0  0  0  0  0  0  0  0
    0.1105    3.4914    0.0000 C   0  0  0  0  0  0  0  0  0  0  0  0
   -0.7144    4.3164    0.0000 C   0  0  0  0  0  0  0  0  0  0  0  0
   -2.3644    4.3164    0.0000 C   0  0  0  0  0  0  0  0  0  0  0  0
    0.1105    4.3164    0.0000 C   0  0  0  0  0  0  0  0  0  0  0  0
   -3.1894    4.3164    0.0000 Cl  0  0  0  0  0  0  0  0  0  0  0  0
    2.5855    2.8875    0.0000 N   0  0  0  0  0  0  0  0  0  0  0  0
    0.9355    4.3164    0.0000 O   0  0  0  0  0  0  0  0  0  0  0  0
  5  4  2  0
  6  4  1  0
  7  5  1  0
  8  6  2  0
 11  9  2  0
 12 10  1  0
 14 13  1  0
 15  7  2  0
 15  8  1  0
 16  9  1  0
 16 10  2  0
 17 11  1  0
 17 12  2  0
 18  1  1  0
 18 15  1  0
 18 16  1  0
 19 17  1  0
 20  2  1  0
 20  3  1  0
 20 13  1  0
 21 14  1  0
 21 18  1  0
M  END
>  <DRUGBANK_ID>  (1) 
DB09007

>  <COMMON_NAME>  (1) 
Chlorphenoxamine

>  <CAS_NUMBER>  (1) 
77-38-3

>  <UNII>  (1) 
3UVD77BP8R

>  <SYNONYMS>  (1) 
Chlorphenoxamine

$$$$
