
     RDKit          2D

 27 31  0  0  1  0  0  0  0  0999 V2000
    0.0128   -2.4169    0.0000 O   0  0  0  0  0  0  0  0  0  0  0  0
   -0.4049   -1.6782    0.0000 C   0  0  0  0  0  0  0  0  0  0  0  0
   -1.2142   -1.6782    0.0000 C   0  0  0  0  0  0  0  0  0  0  0  0
   -1.6328   -0.9801    0.0000 C   0  0  0  0  0  0  0  0  0  0  0  0
   -1.2142   -0.2540    0.0000 C   0  0  0  0  0  0  0  0  0  0  0  0
   -0.4049   -0.2540    0.0000 C   0  0  0  0  0  0  0  0  0  0  0  0
    0.0146    0.4440    0.0000 C   0  0  0  0  0  0  0  0  0  0  0  0
    0.8240    0.4440    0.0000 C   0  0  0  0  0  0  0  0  0  0  0  0
    1.2156    1.1422    0.0000 N   0  0  0  0  0  0  0  0  0  0  0  0
    1.3721    1.9760    0.0000 C   0  0  0  0  0  0  0  0  0  0  0  0
    0.6419    2.4085    0.0000 C   0  0  0  0  0  0  0  0  0  0  0  0
    0.2258    3.1481    0.0000 C   0  0  0  0  0  0  0  0  0  0  0  0
   -0.2065    2.4178    0.0000 C   0  0  0  0  0  0  0  0  0  0  0  0
    0.4053    1.1700    0.0000 C   0  0  0  0  0  0  0  0  0  0  0  0
    0.4053   -0.3660    0.0000 C   0  0  0  0  0  0  0  0  0  0  0  0
    0.8240   -0.9801    0.0000 C   0  0  0  0  0  0  0  0  0  0  0  0
    1.2156   -1.6782    0.0000 C   0  0  0  0  0  0  0  0  0  0  0  0
    2.0521   -1.6782    0.0000 C   0  0  0  0  0  0  0  0  0  0  0  0
    2.4809   -2.4104    0.0000 O   0  0  0  0  0  0  0  0  0  0  0  0
    2.4437   -0.9801    0.0000 C   0  0  0  0  0  0  0  0  0  0  0  0
    2.0521   -0.2540    0.0000 C   0  0  0  0  0  0  0  0  0  0  0  0
    1.2156   -0.2540    0.0000 C   0  0  0  0  0  0  0  0  0  0  0  0
    1.6444    0.4781    0.0000 O   0  0  0  0  0  0  0  0  0  0  0  0
    0.0146   -0.9801    0.0000 C   0  0  0  0  0  0  0  0  0  0  0  0
   -1.6324   -2.4167    0.0000 C   0  0  0  0  0  0  0  0  0  0  0  0
   -2.4809   -2.4237    0.0000 N   0  0  0  0  0  0  0  0  0  0  0  0
   -1.2020   -3.1481    0.0000 O   0  0  0  0  0  0  0  0  0  0  0  0
  1  2  1  0
  2 24  2  0
  3  2  1  0
  3  4  2  0
  4  5  1  0
  5  6  2  0
  6 24  1  0
  7  6  1  0
  8  7  1  1
  8  9  1  0
  8 22  1  0
  9 14  1  0
 10  9  1  0
 10 11  1  0
 11 12  1  0
 11 13  1  0
 13 12  1  0
 14 15  1  0
 16 15  1  1
 16 24  1  0
 17 16  1  0
 18 17  1  0
 18 19  2  0
 20 18  1  0
 21 20  1  0
 21 22  1  0
 22 23  1  1
 22 16  1  0
 25  3  1  0
 25 26  1  0
 25 27  2  0
M  END
>  <DRUGBANK_ID>  (1) 
DB12543

>  <COMMON_NAME>  (1) 
Samidorphan

>  <CAS_NUMBER>  (1) 
852626-89-2

>  <UNII>  (1) 
7W2581Z5L8

>  <SYNONYMS>  (1) 
Samidorphan

$$$$
