
     RDKit          2D

 29 32  0  0  0  0  0  0  0  0999 V2000
   -7.0522   -3.1636    0.0000 C   0  0  0  0  0  0  0  0  0  0  0  0
   -6.3378   -3.5761    0.0000 N   0  0  0  0  0  0  0  0  0  0  0  0
   -6.3378   -4.4011    0.0000 C   0  0  0  0  0  0  0  0  0  0  0  0
   -5.6233   -3.1636    0.0000 C   0  0  0  0  0  0  0  0  0  0  0  0
   -4.9088   -3.5761    0.0000 C   0  0  0  0  0  0  0  0  0  0  0  0
   -4.1943   -3.1636    0.0000 C   0  0  0  0  0  0  0  0  0  0  0  0
   -3.4799   -3.5761    0.0000 O   0  0  0  0  0  0  0  0  0  0  0  0
   -2.7654   -3.1636    0.0000 C   0  0  0  0  0  0  0  0  0  0  0  0
   -2.7654   -2.3386    0.0000 C   0  0  0  0  0  0  0  0  0  0  0  0
   -2.0509   -1.9261    0.0000 C   0  0  0  0  0  0  0  0  0  0  0  0
   -1.3365   -2.3386    0.0000 C   0  0  0  0  0  0  0  0  0  0  0  0
   -1.3365   -3.1636    0.0000 C   0  0  0  0  0  0  0  0  0  0  0  0
   -2.0509   -3.5761    0.0000 C   0  0  0  0  0  0  0  0  0  0  0  0
   -0.5518   -3.4186    0.0000 C   0  0  0  0  0  0  0  0  0  0  0  0
   -0.0669   -2.7511    0.0000 N   0  0  0  0  0  0  0  0  0  0  0  0
   -0.5518   -2.0837    0.0000 N   0  0  0  0  0  0  0  0  0  0  0  0
   -0.2969   -4.2032    0.0000 S   0  0  0  0  0  0  0  0  0  0  0  0
   -1.0815   -4.4581    0.0000 O   0  0  0  0  0  0  0  0  0  0  0  0
    0.4877   -3.9482    0.0000 O   0  0  0  0  0  0  0  0  0  0  0  0
   -0.0420   -4.9878    0.0000 C   0  0  0  0  0  0  0  0  0  0  0  0
   -0.5940   -5.6009    0.0000 C   0  0  0  0  0  0  0  0  0  0  0  0
   -0.3391   -6.3855    0.0000 C   0  0  0  0  0  0  0  0  0  0  0  0
    0.4679   -6.5571    0.0000 C   0  0  0  0  0  0  0  0  0  0  0  0
    1.0199   -5.9440    0.0000 C   0  0  0  0  0  0  0  0  0  0  0  0
    0.7650   -5.1593    0.0000 C   0  0  0  0  0  0  0  0  0  0  0  0
    1.3170   -4.5462    0.0000 C   0  0  0  0  0  0  0  0  0  0  0  0
    2.1240   -4.7178    0.0000 C   0  0  0  0  0  0  0  0  0  0  0  0
    2.3790   -5.5024    0.0000 C   0  0  0  0  0  0  0  0  0  0  0  0
    1.8269   -6.1155    0.0000 C   0  0  0  0  0  0  0  0  0  0  0  0
  1  2  1  0
  2  3  1  0
  2  4  1  0
  4  5  1  0
  5  6  1  0
  6  7  1  0
  7  8  1  0
  8  9  2  0
  8 13  1  0
  9 10  1  0
 10 11  2  0
 11 12  1  0
 11 16  1  0
 12 13  2  0
 12 14  1  0
 14 15  2  0
 14 17  1  0
 15 16  1  0
 17 18  2  0
 17 19  2  0
 17 20  1  0
 20 21  2  0
 20 25  1  0
 21 22  1  0
 22 23  2  0
 23 24  1  0
 24 25  2  0
 24 29  1  0
 25 26  1  0
 26 27  2  0
 27 28  1  0
 28 29  2  0
M  END
>  <DRUGBANK_ID>  (1) 
DB12229

>  <COMMON_NAME>  (1) 
Cerlapirdine

>  <CAS_NUMBER>  (1) 
925448-93-7

>  <UNII>  (1) 
EK40PJ0V49

>  <SYNONYMS>  (1) 
Cerlapirdine

$$$$
