19U
     RDKit          2D

 22 23  0  0  0  0  0  0  0  0999 V2000
    0.5754   -1.1325    0.0000 N   0  0  0  0  0  0  0  0  0  0  0  0
    0.3205   -1.9171    0.0000 C   0  0  0  0  0  0  0  0  0  0  0  0
   -0.0920    0.1775    0.0000 C   0  0  0  0  0  0  0  0  0  0  0  0
    1.9731   -1.4296    0.0000 C   0  0  0  0  0  0  0  0  0  0  0  0
    3.3709   -1.7267    0.0000 C   0  0  0  0  0  0  0  0  0  0  0  0
    0.6225    1.4150    0.0000 C   0  0  0  0  0  0  0  0  0  0  0  0
   -0.0920    2.6525    0.0000 C   0  0  0  0  0  0  0  0  0  0  0  0
   -1.5210    2.6525    0.0000 C   0  0  0  0  0  0  0  0  0  0  0  0
    2.7578   -1.1746    0.0000 C   0  0  0  0  0  0  0  0  0  0  0  0
    1.8016   -2.2365    0.0000 N   0  0  0  0  0  0  0  0  0  0  0  0
    1.3600   -0.8775    0.0000 C   0  0  0  0  0  0  0  0  0  0  0  0
    1.5316   -0.0706    0.0000 O   0  0  0  0  0  0  0  0  0  0  0  0
   -0.5045   -1.9171    0.0000 C   0  0  0  0  0  0  0  0  0  0  0  0
   -0.7595   -1.1325    0.0000 C   0  0  0  0  0  0  0  0  0  0  0  0
   -0.0920   -0.6475    0.0000 C   0  0  0  0  0  0  0  0  0  0  0  0
    0.6225    0.5900    0.0000 N   0  0  0  0  0  0  0  0  0  0  0  0
   -0.0920    1.8275    0.0000 C   0  0  0  0  0  0  0  0  0  0  0  0
   -0.8065    1.4150    0.0000 C   0  0  0  0  0  0  0  0  0  0  0  0
   -1.5210    1.8275    0.0000 C   0  0  0  0  0  0  0  0  0  0  0  0
   -0.8065    3.0650    0.0000 C   0  0  0  0  0  0  0  0  0  0  0  0
   -0.8065    0.5900    0.0000 O   0  0  0  0  0  0  0  0  0  0  0  0
   -2.2354    1.4150    0.0000 Cl  0  0  0  0  0  0  0  0  0  0  0  0
  1  2  1  0
  1 11  1  0
  1 15  1  0
  2 13  1  0
  3 16  1  0
  3 21  2  0
  4  9  1  0
  4 10  1  1
  4 11  1  0
  5  9  1  0
  6 16  1  0
  6 17  1  0
  7 17  2  0
  7 20  1  0
  8 19  1  0
  8 20  2  0
 11 12  2  0
 13 14  1  0
 14 15  1  0
 15  3  1  1
 17 18  1  0
 18 19  2  0
 19 22  1  0
M  END
>  <DRUGBANK_ID>  (1) 
DB06878

>  <COMMON_NAME>  (1) 
1-[(2R)-2-aminobutanoyl]-N-(3-chlorobenzyl)-L-prolinamide

$$$$
