
     RDKit          2D

 10 10  0  0  0  0  0  0  0  0999 V2000
   -0.6733   -0.4124    0.0000 P   0  0  0  0  0  0  0  0  0  0  0  0
    0.0412    0.0000    0.0000 C   0  0  0  0  0  0  0  0  0  0  0  0
    0.7557   -0.4124    0.0000 C   0  0  0  0  0  0  0  0  0  0  0  0
    1.4702    0.0000    0.0000 C   0  0  0  0  0  0  0  0  0  0  0  0
    1.4702    0.8250    0.0000 N   0  0  0  0  0  0  0  0  0  0  0  0
    0.7557    1.2376    0.0000 C   0  0  0  0  0  0  0  0  0  0  0  0
    0.0412    0.8250    0.0000 C   0  0  0  0  0  0  0  0  0  0  0  0
   -1.4702   -0.1989    0.0000 O   0  0  0  0  0  0  0  0  0  0  0  0
   -0.6732   -1.2376    0.0000 O   0  0  0  0  0  0  0  0  0  0  0  0
   -0.8856    0.3672    0.0000 C   0  0  0  0  0  0  0  0  0  0  0  0
  1  2  1  0
  1  8  1  0
  1  9  2  0
  1 10  1  0
  2  3  2  0
  2  7  1  0
  3  4  1  0
  4  5  1  0
  6  5  1  0
  7  6  1  0
M  END
>  <DRUGBANK_ID>  (1) 
DB16754

>  <COMMON_NAME>  (1) 
TPMPA

>  <CAS_NUMBER>  (1) 
182485-36-5

>  <UNII>  (1) 
TR7I0800L2

>  <SYNONYMS>  (1) 
(1,2,5,6-tetrahydropyridine-4-yl)methylphosphinic acid; P-Methyl-P-(1,2,3,6-tetrahydro-4-pyridinyl)phosphinic acid; Phosphinic acid, P-methyl-P-(1,2,3,6-tetrahydro-4-pyridinyl)-

$$$$
