
     RDKit          2D

 20 23  0  0  0  0  0  0  0  0999 V2000
    1.5086   -0.1073    0.0000 C   0  0  0  0  0  0  0  0  0  0  0  0
    0.7942   -0.5198    0.0000 C   0  0  0  0  0  0  0  0  0  0  0  0
    1.5086    0.7177    0.0000 C   0  0  0  0  0  0  0  0  0  0  0  0
    2.2933   -0.3621    0.0000 C   0  0  0  0  0  0  0  0  0  0  0  0
    0.0797   -0.1073    0.0000 C   0  0  0  0  0  0  0  0  0  0  0  0
    0.7942   -1.3448    0.0000 C   0  0  0  0  0  0  0  0  0  0  0  0
    0.7942    1.1302    0.0000 C   0  0  0  0  0  0  0  0  0  0  0  0
    2.2933    0.9726    0.0000 C   0  0  0  0  0  0  0  0  0  0  0  0
    1.5949    1.5382    0.0000 C   0  0  0  0  0  0  0  0  0  0  0  0
    2.7782    0.3052    0.0000 C   0  0  0  0  0  0  0  0  0  0  0  0
   -0.6347   -0.5198    0.0000 C   0  0  0  0  0  0  0  0  0  0  0  0
    0.0797    0.7177    0.0000 C   0  0  0  0  0  0  0  0  0  0  0  0
    0.0797   -1.7573    0.0000 C   0  0  0  0  0  0  0  0  0  0  0  0
    2.5482    1.7573    0.0000 O   0  0  0  0  0  0  0  0  0  0  0  0
   -0.6347   -1.3448    0.0000 C   0  0  0  0  0  0  0  0  0  0  0  0
   -1.3491   -0.1073    0.0000 C   0  0  0  0  0  0  0  0  0  0  0  0
   -1.3491   -1.7573    0.0000 C   0  0  0  0  0  0  0  0  0  0  0  0
   -2.0637   -0.5198    0.0000 C   0  0  0  0  0  0  0  0  0  0  0  0
   -2.0637   -1.3448    0.0000 C   0  0  0  0  0  0  0  0  0  0  0  0
   -2.7782   -1.7573    0.0000 O   0  0  0  0  0  0  0  0  0  0  0  0
  1  2  1  0
  1  3  1  0
  1  4  1  1
  2  5  2  0
  2  6  1  0
  3  7  1  0
  3  8  1  0
  3  9  1  1
  4 10  1  0
  5 11  1  0
  5 12  1  0
  6 13  2  0
  7 12  1  0
  8 14  2  0
  8 10  1  0
 11 15  2  0
 11 16  1  0
 13 15  1  0
 15 17  1  0
 16 18  2  0
 17 19  2  0
 18 19  1  0
 19 20  1  0
M  END
>  <DRUGBANK_ID>  (1) 
DB03515

>  <SECONDARY_ACCESSION_NUMBERS>  (1) 
EXPT01356

>  <COMMON_NAME>  (1) 
Equilenin

>  <CAS_NUMBER>  (1) 
517-09-9

>  <UNII>  (1) 
W8FTJ17C4J

>  <SYNONYMS>  (1) 
3-Hydroxyestra-1,3,5(10),6,8-pentaen-17-one; Equilenina

$$$$
