
     RDKit          2D

  5  8  0  0  0  0  0  0  0  0999 V2000
    0.0109    0.0070    0.0000 S   0  0  0  0  0  0  0  0  0  0  0  0
    0.6495   -0.1904    0.0000 Cu  0  0  0  0  0  3  0  0  0  0  0  0
    0.1964    0.6566    0.0000 Cu  0  0  0  0  0  3  0  0  0  0  0  0
   -0.1869   -0.6566    0.0000 Cu  0  0  0  0  0  3  0  0  0  0  0  0
   -0.6495    0.1886    0.0000 Cu  0  0  0  0  0  3  0  0  0  0  0  0
  1  4  1  0
  1  2  1  0
  1  5  1  0
  1  3  1  0
  2  3  1  0
  3  5  1  0
  4  2  1  0
  4  5  1  0
M  END
>  <DRUGBANK_ID>  (1) 
DB03151

>  <SECONDARY_ACCESSION_NUMBERS>  (1) 
EXPT01060

>  <COMMON_NAME>  (1) 
mu4-sulfido-quadro-tetracopper

>  <SYNONYMS>  (1) 
Î¼4-sulfido-quadro-tetracopper

$$$$
