1535
     RDKit          2D

 29 31  0  0  0  0  0  0  0  0999 V2000
    2.2820    1.4946    0.0000 O   0  0  0  0  0  0  0  0  0  0  0  0
    2.7751    2.5520    0.0000 O   0  0  0  0  0  0  0  0  0  0  0  0
    3.4282    3.4054    0.0000 O   0  0  0  0  0  0  0  0  0  0  0  0
    3.6893   -0.4036    0.0000 N   0  0  0  0  0  0  0  0  0  0  0  0
    4.1018    1.9609    0.0000 N   0  0  0  0  0  0  0  0  0  0  0  0
    3.6893    1.2464    0.0000 C   0  0  0  0  0  0  0  0  0  0  0  0
    4.4038    0.8339    0.0000 C   0  0  0  0  0  0  0  0  0  0  0  0
    2.9749    0.8339    0.0000 C   0  0  0  0  0  0  0  0  0  0  0  0
    4.4038    0.0089    0.0000 C   0  0  0  0  0  0  0  0  0  0  0  0
    2.9749    0.0089    0.0000 C   0  0  0  0  0  0  0  0  0  0  0  0
    3.6893   -1.2286    0.0000 C   0  0  0  0  0  0  0  0  0  0  0  0
    3.0573    1.7768    0.0000 C   0  0  0  0  0  0  0  0  0  0  0  0
    4.9268    1.9609    0.0000 C   0  0  0  0  0  0  0  0  0  0  0  0
    2.9749   -1.6411    0.0000 C   0  0  0  0  0  0  0  0  0  0  0  0
    3.9585    2.7734    0.0000 C   0  0  0  0  0  0  0  0  0  0  0  0
    4.5906    3.3037    0.0000 C   0  0  0  0  0  0  0  0  0  0  0  0
    2.9749   -2.4661    0.0000 C   0  0  0  0  0  0  0  0  0  0  0  0
    5.3394    2.6754    0.0000 C   0  0  0  0  0  0  0  0  0  0  0  0
    5.3394    1.2464    0.0000 C   0  0  0  0  0  0  0  0  0  0  0  0
    4.4473    4.1162    0.0000 C   0  0  0  0  0  0  0  0  0  0  0  0
    1.6500    2.0248    0.0000 C   0  0  0  0  0  0  0  0  0  0  0  0
    6.1644    2.6754    0.0000 C   0  0  0  0  0  0  0  0  0  0  0  0
    6.1644    1.2464    0.0000 C   0  0  0  0  0  0  0  0  0  0  0  0
    3.6893   -2.8787    0.0000 C   0  0  0  0  0  0  0  0  0  0  0  0
    2.2603   -2.8787    0.0000 C   0  0  0  0  0  0  0  0  0  0  0  0
    6.5769    1.9609    0.0000 C   0  0  0  0  0  0  0  0  0  0  0  0
    3.6893   -3.7037    0.0000 C   0  0  0  0  0  0  0  0  0  0  0  0
    2.2603   -3.7037    0.0000 C   0  0  0  0  0  0  0  0  0  0  0  0
    2.9749   -4.1162    0.0000 C   0  0  0  0  0  0  0  0  0  0  0  0
  1 12  1  0
  1 21  1  0
  2 12  2  0
  3 15  2  0
  4  9  1  0
  4 10  1  0
  4 11  1  0
  5  6  1  0
  5 13  1  0
  5 15  1  0
  6  7  1  0
  6  8  1  0
  6 12  1  0
  7  9  1  0
  8 10  1  0
 11 14  1  0
 13 18  2  0
 13 19  1  0
 14 17  1  0
 15 16  1  0
 16 20  1  0
 17 24  2  0
 17 25  1  0
 18 22  1  0
 19 23  2  0
 22 26  2  0
 23 26  1  0
 24 27  1  0
 25 28  2  0
 27 29  2  0
 28 29  1  0
M  END
>  <DRUGBANK_ID>  (1) 
DB01535

>  <COMMON_NAME>  (1) 
Carfentanil

>  <CAS_NUMBER>  (1) 
59708-52-0

>  <UNII>  (1) 
LA9DTA2L8F

>  <SYNONYMS>  (1) 
Carfentanil; carfentanila; Carfentanyl

$$$$
