H24
     RDKit          2D

 24 26  0  0  0  0  0  0  0  0999 V2000
   40.5612   28.1505    0.0000 C   0  0  0  0  0  0  0  0  0  0  0  0
   39.8467   27.7380    0.0000 O   0  0  0  0  0  0  0  0  0  0  0  0
   39.8467   26.9130    0.0000 C   0  0  0  0  0  0  0  0  0  0  0  0
   40.5612   26.5005    0.0000 C   0  0  0  0  0  0  0  0  0  0  0  0
   40.5612   25.6755    0.0000 C   0  0  0  0  0  0  0  0  0  0  0  0
   39.8467   25.2630    0.0000 C   0  0  0  0  0  0  0  0  0  0  0  0
   39.1322   25.6755    0.0000 C   0  0  0  0  0  0  0  0  0  0  0  0
   39.1322   26.5005    0.0000 C   0  0  0  0  0  0  0  0  0  0  0  0
   38.4178   25.2630    0.0000 C   0  0  0  0  0  0  0  0  0  0  0  0
   38.4178   24.4380    0.0000 C   0  0  0  0  0  0  0  0  0  0  0  0
   37.7033   24.0255    0.0000 C   0  0  0  0  0  0  0  0  0  0  0  0
   36.9888   24.4380    0.0000 C   0  0  0  0  0  0  0  0  0  0  0  0
   36.9888   25.2630    0.0000 C   0  0  0  0  0  0  0  0  0  0  0  0
   36.2743   25.6755    0.0000 C   0  0  0  0  0  0  0  0  0  0  0  0
   36.8046   26.3074    0.0000 C   0  0  0  0  0  0  0  0  0  0  0  0
   35.9922   24.9002    0.0000 C   0  0  0  0  0  0  0  0  0  0  0  0
   35.1797   24.7570    0.0000 C   0  0  0  0  0  0  0  0  0  0  0  0
   34.8975   23.9817    0.0000 O   0  0  0  0  0  0  0  0  0  0  0  0
   34.6494   25.3889    0.0000 N   0  0  0  0  0  0  0  0  0  0  0  0
   33.8369   25.2457    0.0000 C   0  0  0  0  0  0  0  0  0  0  0  0
   34.9316   26.1642    0.0000 C   0  0  0  0  0  0  0  0  0  0  0  0
   34.4013   26.7962    0.0000 N   0  0  0  0  0  0  0  0  0  0  0  0
   35.7440   26.3074    0.0000 N   0  0  0  0  0  0  0  0  0  0  0  0
   37.7033   25.6755    0.0000 C   0  0  0  0  0  0  0  0  0  0  0  0
  1  2  1  0
  2  3  1  0
  3  4  2  0
  3  8  1  0
  4  5  1  0
  5  6  2  0
  6  7  1  0
  7  8  2  0
  7  9  1  0
  9 10  2  0
  9 24  1  0
 10 11  1  0
 11 12  2  0
 12 13  1  0
 13 24  2  0
 14 13  1  0
 14 15  1  1
 14 16  1  0
 14 23  1  0
 16 17  1  0
 17 18  2  0
 17 19  1  0
 19 20  1  0
 19 21  1  0
 21 23  2  0
 21 22  1  0
M  END
>  <DRUGBANK_ID>  (1) 
DB07874

>  <COMMON_NAME>  (1) 
(6S)-2-amino-6-(3'-methoxybiphenyl-3-yl)-3,6-dimethyl-5,6-dihydropyrimidin-4(3H)-one

$$$$
