RM2
     RDKit          2D

 14 15  0  0  0  0  0  0  0  0999 V2000
   -2.4131    2.0347    0.0000 C   0  0  0  0  0  0  0  0  0  0  0  0
   -1.6061    1.8632    0.0000 C   0  0  0  0  0  0  0  0  0  0  0  0
   -1.3512    1.0786    0.0000 C   0  0  0  0  0  0  0  0  0  0  0  0
   -0.5442    0.9071    0.0000 N   0  0  0  0  0  0  0  0  0  0  0  0
   -0.2893    0.1224    0.0000 C   0  0  0  0  0  0  0  0  0  0  0  0
   -0.7742   -0.5450    0.0000 C   0  0  0  0  0  0  0  0  0  0  0  0
   -0.2893   -1.2124    0.0000 C   0  0  0  0  0  0  0  0  0  0  0  0
    0.4953   -0.9575    0.0000 C   0  0  0  0  0  0  0  0  0  0  0  0
    0.4953   -0.1325    0.0000 C   0  0  0  0  0  0  0  0  0  0  0  0
    1.2098    0.2800    0.0000 C   0  0  0  0  0  0  0  0  0  0  0  0
    1.2098   -1.3700    0.0000 C   0  0  0  0  0  0  0  0  0  0  0  0
    1.9243   -0.9575    0.0000 C   0  0  0  0  0  0  0  0  0  0  0  0
    1.9243   -0.1325    0.0000 C   0  0  0  0  0  0  0  0  0  0  0  0
    1.2098   -2.1950    0.0000 O   0  0  0  0  0  0  0  0  0  0  0  0
  1  2  2  0
  2  3  1  0
  3  4  2  0
  5  4  1  1
  5  6  1  0
  5  9  1  0
  6  7  1  0
  7  8  1  0
  8  9  2  0
  8 11  1  0
  9 10  1  0
 10 13  2  0
 11 12  2  0
 11 14  1  0
 12 13  1  0
M  END
>  <DRUGBANK_ID>  (1) 
DB08480

>  <COMMON_NAME>  (1) 
4-HYDROXY-N-PROPARGYL-1(R)-AMINOINDAN

$$$$
