PC0
     RDKit          2D

 23 24  0  0  0  0  0  0  0  0999 V2000
   -2.7367    0.0353    0.0000 C   0  0  0  0  0  0  0  0  0  0  0  0
   -3.4511   -0.3772    0.0000 N   0  0  0  0  0  0  0  0  0  0  0  0
   -4.1656    0.0353    0.0000 C   0  0  0  0  0  0  0  0  0  0  0  0
   -4.1656    0.8603    0.0000 C   0  0  0  0  0  0  0  0  0  0  0  0
   -3.4511    1.2728    0.0000 C   0  0  0  0  0  0  0  0  0  0  0  0
   -2.7367    0.8603    0.0000 C   0  0  0  0  0  0  0  0  0  0  0  0
   -4.8801    1.2728    0.0000 C   0  0  0  0  0  0  0  0  0  0  0  0
   -2.0222   -0.3772    0.0000 N   0  0  0  0  0  0  0  0  0  0  0  0
   -1.3077    0.0353    0.0000 C   0  0  0  0  0  0  0  0  0  0  0  0
   -1.3077    0.8603    0.0000 S   0  0  0  0  0  0  0  0  0  0  0  0
   -0.5933   -0.3772    0.0000 N   0  0  0  0  0  0  0  0  0  0  0  0
    0.1212    0.0353    0.0000 C   0  0  0  0  0  0  0  0  0  0  0  0
    0.8357   -0.3772    0.0000 C   0  0  0  0  0  0  0  0  0  0  0  0
    1.5502    0.0353    0.0000 C   0  0  0  0  0  0  0  0  0  0  0  0
    1.5502    0.8603    0.0000 N   0  0  0  0  0  0  0  0  0  0  0  0
    2.2646    1.2728    0.0000 C   0  0  0  0  0  0  0  0  0  0  0  0
    2.9791    0.8603    0.0000 C   0  0  0  0  0  0  0  0  0  0  0  0
    2.9791    0.0353    0.0000 C   0  0  0  0  0  0  0  0  0  0  0  0
    2.2646   -0.3772    0.0000 C   0  0  0  0  0  0  0  0  0  0  0  0
    3.6936   -0.3772    0.0000 O   0  0  0  0  0  0  0  0  0  0  0  0
    3.6936   -1.2022    0.0000 C   0  0  0  0  0  0  0  0  0  0  0  0
    4.4080   -1.6147    0.0000 C   0  0  0  0  0  0  0  0  0  0  0  0
    2.2646   -1.2022    0.0000 F   0  0  0  0  0  0  0  0  0  0  0  0
  1  2  2  0
  1  6  1  0
  1  8  1  0
  2  3  1  0
  3  4  2  0
  4  5  1  0
  4  7  1  0
  5  6  2  0
  8  9  1  0
  9 10  2  0
  9 11  1  0
 11 12  1  0
 12 13  1  0
 13 14  1  0
 14 15  2  0
 14 19  1  0
 15 16  1  0
 16 17  2  0
 17 18  1  0
 18 19  2  0
 18 20  1  0
 19 23  1  0
 20 21  1  0
 21 22  1  0
M  END
>  <DRUGBANK_ID>  (1) 
DB08372

>  <COMMON_NAME>  (1) 
1-[2-(4-ETHOXY-3-FLUOROPYRIDIN-2-YL)ETHYL]-3-(5-METHYLPYRIDIN-2-YL)THIOUREA

$$$$
