
     RDKit          2D

 33 35  0  0  1  0  0  0  0  0999 V2000
    6.8860   -2.2456    0.0000 C   0  0  0  0  0  0  0  0  0  0  0  0
    6.8860   -3.0706    0.0000 C   0  0  0  0  0  0  0  0  0  0  0  0
    6.1716   -3.4831    0.0000 N   0  0  0  0  0  0  0  0  0  0  0  0
    5.4571   -3.0706    0.0000 C   0  0  0  0  0  0  0  0  0  0  0  0
    5.4571   -2.2456    0.0000 O   0  0  0  0  0  0  0  0  0  0  0  0
    4.7426   -3.4831    0.0000 C   0  0  0  0  0  0  0  0  0  0  0  0
    4.6564   -4.3036    0.0000 C   0  0  0  0  0  0  0  0  0  0  0  0
    3.8494   -4.4751    0.0000 C   0  0  0  0  0  0  0  0  0  0  0  0
    3.4369   -3.7606    0.0000 C   0  0  0  0  0  0  0  0  0  0  0  0
    3.9890   -3.1475    0.0000 N   0  0  0  0  0  0  0  0  0  0  0  0
    3.8174   -2.3405    0.0000 C   0  0  0  0  0  0  0  0  0  0  0  0
    4.4305   -1.7885    0.0000 O   0  0  0  0  0  0  0  0  0  0  0  0
    3.0328   -2.0856    0.0000 C   0  0  0  0  0  0  0  0  0  0  0  0
    2.3654   -2.5705    0.0000 C   0  0  0  0  0  0  0  0  0  0  0  0
    1.6979   -2.0856    0.0000 C   0  0  0  0  0  0  0  0  0  0  0  0
    1.9529   -1.3010    0.0000 C   0  0  0  0  0  0  0  0  0  0  0  0
    2.7779   -1.3010    0.0000 N   0  0  0  0  0  0  0  0  0  0  0  0
    3.2628   -0.6335    0.0000 C   0  0  0  0  0  0  0  0  0  0  0  0
    4.0833   -0.7198    0.0000 O   0  0  0  0  0  0  0  0  0  0  0  0
    2.9272    0.1201    0.0000 C   0  0  0  0  0  0  0  0  0  0  0  0
    2.1068    0.2064    0.0000 O   0  0  0  0  0  0  0  0  0  0  0  0
    3.4122    0.7876    0.0000 C   0  0  0  0  0  0  0  0  0  0  0  0
    4.2326    0.7013    0.0000 N   0  0  0  0  0  0  0  0  0  0  0  0
    3.0766    1.5412    0.0000 C   0  0  0  0  0  0  0  0  0  0  0  0
    3.5615    2.2087    0.0000 C   0  0  0  0  0  0  0  0  0  0  0  0
    3.2260    2.9624    0.0000 C   0  0  0  0  0  0  0  0  0  0  0  0
    3.7109    3.6298    0.0000 C   0  0  0  0  0  0  0  0  0  0  0  0
    4.5314    3.5436    0.0000 C   0  0  0  0  0  0  0  0  0  0  0  0
    4.8669    2.7899    0.0000 C   0  0  0  0  0  0  0  0  0  0  0  0
    4.3820    2.1224    0.0000 C   0  0  0  0  0  0  0  0  0  0  0  0
    7.6005   -3.4831    0.0000 C   0  0  0  0  0  0  0  0  0  0  0  0
    8.3150   -3.0706    0.0000 N   0  0  0  0  0  0  0  0  0  0  0  0
    7.6005   -4.3081    0.0000 O   0  0  0  0  0  0  0  0  0  0  0  0
  2  1  1  1
  2  3  1  0
  2 31  1  0
  3  4  1  0
  4  5  2  0
  6  4  1  6
  6  7  1  0
  6 10  1  0
  7  8  1  0
  8  9  1  0
  9 10  1  0
 10 11  1  0
 11 12  2  0
 13 11  1  6
 13 14  1  0
 13 17  1  0
 14 15  1  0
 15 16  1  0
 16 17  1  0
 17 18  1  0
 18 19  2  0
 18 20  1  0
 20 21  1  1
 20 22  1  0
 22 23  1  1
 22 24  1  0
 24 25  1  0
 25 26  2  0
 25 30  1  0
 26 27  1  0
 27 28  2  0
 28 29  1  0
 29 30  2  0
 31 32  1  0
 31 33  2  0
M  END
>  <DRUGBANK_ID>  (1) 
DB04092

>  <SECONDARY_ACCESSION_NUMBERS>  (1) 
EXPT00584

>  <COMMON_NAME>  (1) 
Apstatin

>  <CAS_NUMBER>  (1) 
160470-73-5

>  <UNII>  (1) 
JZK8P9AG86

$$$$
