ESX
     RDKit          2D

 12 13  0  0  0  0  0  0  0  0999 V2000
   -1.5296   -0.2296    0.0000 C   0  0  0  0  0  0  0  0  0  0  0  0
   -0.7046   -0.2296    0.0000 C   0  0  0  0  0  0  0  0  0  0  0  0
   -1.9421    0.4848    0.0000 N   0  0  0  0  0  0  0  0  0  0  0  0
   -1.9421   -0.9441    0.0000 N   0  0  0  0  0  0  0  0  0  0  0  0
   -0.2197   -0.8971    0.0000 S   0  0  0  0  0  0  0  0  0  0  0  0
    0.5649   -0.6421    0.0000 C   0  0  0  0  0  0  0  0  0  0  0  0
    0.5649    0.1829    0.0000 C   0  0  0  0  0  0  0  0  0  0  0  0
   -0.2197    0.4378    0.0000 C   0  0  0  0  0  0  0  0  0  0  0  0
    1.2794   -1.0546    0.0000 C   0  0  0  0  0  0  0  0  0  0  0  0
    1.9938   -0.6421    0.0000 C   0  0  0  0  0  0  0  0  0  0  0  0
    1.9938    0.1829    0.0000 C   0  0  0  0  0  0  0  0  0  0  0  0
    1.2794    0.5954    0.0000 C   0  0  0  0  0  0  0  0  0  0  0  0
  1  2  1  0
  1  3  1  0
  1  4  2  0
  2  5  1  0
  2  8  2  0
  5  6  1  0
  6  7  2  0
  6  9  1  0
  7  8  1  0
  7 12  1  0
  9 10  2  0
 10 11  1  0
 11 12  2  0
M  CHG  1   4   1
M  END
>  <DRUGBANK_ID>  (1) 
DB04446

>  <SECONDARY_ACCESSION_NUMBERS>  (1) 
EXPT01365

>  <COMMON_NAME>  (1) 
Benzo[B]Thiophene-2-Carboxamidine

$$$$
