GF7
     RDKit          2D

 18 19  0  0  0  0  0  0  0  0999 V2000
    2.4385   -1.8185    0.0000 O   0  0  0  0  0  0  0  0  0  0  0  0
    1.6180   -1.9048    0.0000 C   0  0  0  0  0  0  0  0  0  0  0  0
    1.2825   -2.6584    0.0000 C   0  0  0  0  0  0  0  0  0  0  0  0
    1.1331   -1.2373    0.0000 C   0  0  0  0  0  0  0  0  0  0  0  0
    0.3126   -1.3236    0.0000 C   0  0  0  0  0  0  0  0  0  0  0  0
   -0.1723   -0.6561    0.0000 C   0  0  0  0  0  0  0  0  0  0  0  0
    1.4687   -0.4836    0.0000 C   0  0  0  0  0  0  0  0  0  0  0  0
    0.9837    0.1838    0.0000 C   0  0  0  0  0  0  0  0  0  0  0  0
    0.1633    0.0976    0.0000 C   0  0  0  0  0  0  0  0  0  0  0  0
   -0.3217    0.7650    0.0000 N   0  0  0  0  0  0  0  0  0  0  0  0
   -0.0667    1.5496    0.0000 C   0  0  0  0  0  0  0  0  0  0  0  0
    0.7179    1.8046    0.0000 O   0  0  0  0  0  0  0  0  0  0  0  0
   -1.1467    0.7650    0.0000 C   0  0  0  0  0  0  0  0  0  0  0  0
   -1.4016    1.5496    0.0000 C   0  0  0  0  0  0  0  0  0  0  0  0
   -0.7342    2.0345    0.0000 C   0  0  0  0  0  0  0  0  0  0  0  0
   -2.1862    1.8046    0.0000 C   0  0  0  0  0  0  0  0  0  0  0  0
   -2.7993    1.2525    0.0000 O   0  0  0  0  0  0  0  0  0  0  0  0
   -2.3577    2.6115    0.0000 O   0  0  0  0  0  0  0  0  0  0  0  0
  1  2  2  0
  2  4  1  0
  2  3  1  0
  4  5  2  0
  5  6  1  0
  7  4  1  0
  7  8  2  0
  8  9  1  0
  9  6  2  0
  9 10  1  0
 10 13  1  0
 11 10  1  0
 11 15  1  0
 12 11  2  0
 13 14  1  0
 14 16  1  1
 15 14  1  0
 16 17  2  0
 16 18  1  0
M  END
>  <DRUGBANK_ID>  (1) 
DB07825

>  <COMMON_NAME>  (1) 
(3S)-1-(4-acetylphenyl)-5-oxopyrrolidine-3-carboxylic acid

$$$$
