
     RDKit          2D

 31 33  0  0  1  0  0  0  0  0999 V2000
    1.8799   -1.8094    0.0000 C   0  0  0  0  0  0  0  0  0  0  0  0
    1.0549   -1.8094    0.0000 C   0  0  0  0  0  0  0  0  0  0  0  0
    0.6424   -1.0950    0.0000 C   0  0  0  0  0  0  0  0  0  0  0  0
   -0.1826   -1.0950    0.0000 C   0  0  0  0  0  0  0  0  0  0  0  0
   -0.5951   -0.3805    0.0000 C   0  0  0  0  0  0  0  0  0  0  0  0
   -1.4201   -0.3805    0.0000 C   0  0  0  0  0  0  0  0  0  0  0  0
   -1.8326   -1.0950    0.0000 C   0  0  0  0  0  0  0  0  0  0  0  0
   -1.8326    0.3340    0.0000 C   0  0  0  0  0  0  0  0  0  0  0  0
   -1.4970    1.0876    0.0000 C   0  0  0  0  0  0  0  0  0  0  0  0
   -2.1101    1.6397    0.0000 C   0  0  0  0  0  0  0  0  0  0  0  0
   -2.8246    1.2272    0.0000 C   0  0  0  0  0  0  0  0  0  0  0  0
   -2.6530    0.4202    0.0000 C   0  0  0  0  0  0  0  0  0  0  0  0
   -3.2661   -0.1318    0.0000 C   0  0  0  0  0  0  0  0  0  0  0  0
   -4.0508    0.1231    0.0000 C   0  0  0  0  0  0  0  0  0  0  0  0
   -4.2223    0.9301    0.0000 C   0  0  0  0  0  0  0  0  0  0  0  0
   -3.6092    1.4821    0.0000 C   0  0  0  0  0  0  0  0  0  0  0  0
   -3.7807    2.2891    0.0000 C   0  0  0  0  0  0  0  0  0  0  0  0
   -4.5653    2.5440    0.0000 C   0  0  0  0  0  0  0  0  0  0  0  0
   -4.7369    3.3510    0.0000 C   0  0  0  0  0  0  0  0  0  0  0  0
   -5.5215    3.6059    0.0000 C   0  0  0  0  0  0  0  0  0  0  0  0
   -5.6930    4.4129    0.0000 C   0  0  0  0  0  0  0  0  0  0  0  0
   -5.0799    4.9649    0.0000 C   0  0  0  0  0  0  0  0  0  0  0  0
   -4.2953    4.7100    0.0000 C   0  0  0  0  0  0  0  0  0  0  0  0
   -4.1238    3.9030    0.0000 C   0  0  0  0  0  0  0  0  0  0  0  0
   -3.3392    3.6481    0.0000 C   0  0  0  0  0  0  0  0  0  0  0  0
   -3.6822    5.2620    0.0000 O   0  0  0  0  0  0  0  0  0  0  0  0
   -6.4776    4.6678    0.0000 O   0  0  0  0  0  0  0  0  0  0  0  0
   -2.3981   -0.3644    0.0000 C   0  0  0  0  0  0  0  0  0  0  0  0
    1.0549   -0.3805    0.0000 C   0  0  0  0  0  0  0  0  0  0  0  0
    0.6424    0.3340    0.0000 C   0  0  0  0  0  0  0  0  0  0  0  0
    1.8799   -0.3805    0.0000 C   0  0  0  0  0  0  0  0  0  0  0  0
  1  2  1  0
  3  2  1  6
  3  4  1  0
  3 29  1  0
  4  5  1  0
  5  6  1  0
  6  7  1  1
  8  6  1  0
  8  9  1  6
  8 12  1  0
  9 10  1  0
 11 10  1  6
 11 12  1  0
 11 16  1  0
 12 13  1  0
 12 28  1  6
 13 14  1  0
 14 15  1  0
 15 16  1  0
 16 17  2  0
 17 18  1  0
 18 19  2  0
 19 20  1  0
 19 24  1  0
 20 21  1  0
 21 22  1  0
 21 27  1  1
 22 23  1  0
 23 24  1  0
 23 26  1  6
 24 25  2  0
 29 30  1  0
 29 31  1  0
M  END
>  <DRUGBANK_ID>  (1) 
DB13097

>  <COMMON_NAME>  (1) 
1alpha-Hydroxyvitamin D5

>  <CAS_NUMBER>  (1) 
187935-17-7

>  <UNII>  (1) 
XY02042OD4

>  <SYNONYMS>  (1) 
1-Hydroxyvitamin D5; 1alpha-Hydroxy-24-ethylcholecalciferol

$$$$
