
     RDKit          2D

 25 27  0  0  1  0  0  0  0  0999 V2000
    1.3222   -1.7116    0.0000 C   0  0  0  0  0  0  0  0  0  0  0  0
    1.3222   -2.5366    0.0000 O   0  0  0  0  0  0  0  0  0  0  0  0
    2.0367   -2.9491    0.0000 N   0  0  0  0  0  0  0  0  0  0  0  0
    2.0367   -3.7741    0.0000 C   0  0  0  0  0  0  0  0  0  0  0  0
    2.7041   -4.2590    0.0000 C   0  0  0  0  0  0  0  0  0  0  0  0
    2.4492   -5.0437    0.0000 C   0  0  0  0  0  0  0  0  0  0  0  0
    2.9341   -5.7111    0.0000 C   0  0  0  0  0  0  0  0  0  0  0  0
    2.5986   -6.4648    0.0000 O   0  0  0  0  0  0  0  0  0  0  0  0
    1.6242   -5.0437    0.0000 N   0  0  0  0  0  0  0  0  0  0  0  0
    1.3693   -4.2590    0.0000 C   0  0  0  0  0  0  0  0  0  0  0  0
    1.1393   -5.7111    0.0000 C   0  0  0  0  0  0  0  0  0  0  0  0
    1.4748   -6.4648    0.0000 O   0  0  0  0  0  0  0  0  0  0  0  0
    0.3188   -5.6249    0.0000 C   0  0  0  0  0  0  0  0  0  0  0  0
   -0.1661   -6.2923    0.0000 C   0  0  0  0  0  0  0  0  0  0  0  0
   -0.9866   -6.2061    0.0000 C   0  0  0  0  0  0  0  0  0  0  0  0
   -1.3222   -5.4524    0.0000 C   0  0  0  0  0  0  0  0  0  0  0  0
   -0.8372   -4.7849    0.0000 C   0  0  0  0  0  0  0  0  0  0  0  0
   -0.0168   -4.8712    0.0000 C   0  0  0  0  0  0  0  0  0  0  0  0
   -2.1426   -5.3661    0.0000 C   0  0  0  0  0  0  0  0  0  0  0  0
   -2.6276   -6.0336    0.0000 C   0  0  0  0  0  0  0  0  0  0  0  0
   -2.2920   -6.7873    0.0000 C   0  0  0  0  0  0  0  0  0  0  0  0
   -3.4480   -5.9473    0.0000 C   0  0  0  0  0  0  0  0  0  0  0  0
   -3.7836   -5.1937    0.0000 C   0  0  0  0  0  0  0  0  0  0  0  0
   -3.2987   -4.5262    0.0000 C   0  0  0  0  0  0  0  0  0  0  0  0
   -2.4782   -4.6125    0.0000 C   0  0  0  0  0  0  0  0  0  0  0  0
  1  2  1  0
  2  3  1  0
  3  4  2  0
  4  5  1  0
  4 10  1  0
  6  5  1  0
  6  7  1  1
  6  9  1  0
  7  8  1  0
  9 10  1  0
  9 11  1  0
 11 12  2  0
 11 13  1  0
 13 14  2  0
 13 18  1  0
 14 15  1  0
 15 16  2  0
 16 17  1  0
 16 19  1  0
 17 18  2  0
 19 20  2  0
 19 25  1  0
 20 21  1  0
 20 22  1  0
 22 23  2  0
 23 24  1  0
 24 25  2  0
M  END
>  <DRUGBANK_ID>  (1) 
DB16259

>  <COMMON_NAME>  (1) 
Nolasiban

>  <CAS_NUMBER>  (1) 
1477482-19-1

>  <UNII>  (1) 
3765U8A1EC

>  <SYNONYMS>  (1) 
Erlosiban; Nolasiban

$$$$
