
     RDKit          2D

 36 38  0  0  0  0  0  0  0  0999 V2000
   -5.2686    1.4458    0.0000 C   0  0  0  0  0  0  0  0  0  0  0  0
   -5.2698    0.6185    0.0000 C   0  0  0  0  0  0  0  0  0  0  0  0
   -4.5548    0.2056    0.0000 C   0  0  0  0  0  0  0  0  0  0  0  0
   -3.8383    0.6189    0.0000 C   0  0  0  0  0  0  0  0  0  0  0  0
   -3.8412    1.4496    0.0000 C   0  0  0  0  0  0  0  0  0  0  0  0
   -4.5566    1.8587    0.0000 C   0  0  0  0  0  0  0  0  0  0  0  0
   -3.1295    0.2083    0.0000 C   0  0  0  0  0  0  0  0  0  0  0  0
   -2.6499    0.8718    0.0000 O   0  0  0  0  0  0  0  0  0  0  0  0
   -1.8655    0.6156    0.0000 N   0  0  0  0  0  0  0  0  0  0  0  0
   -1.8649   -0.2095    0.0000 C   0  0  0  0  0  0  0  0  0  0  0  0
   -2.6524   -0.4643    0.0000 C   0  0  0  0  0  0  0  0  0  0  0  0
    0.2827   -1.4562    0.0000 C   0  0  0  0  0  0  0  0  0  0  0  0
    0.9953   -1.8645    0.0000 C   0  0  0  0  0  0  0  0  0  0  0  0
    1.7078   -1.4520    0.0000 N   0  0  0  0  0  0  0  0  0  0  0  0
    2.4204   -1.8603    0.0000 C   0  0  0  0  0  0  0  0  0  0  0  0
    3.1330   -1.4477    0.0000 C   0  0  0  0  0  0  0  0  0  0  0  0
    3.8455   -1.8562    0.0000 N   0  0  0  0  0  0  0  0  0  0  0  0
    4.5581   -1.4436    0.0000 C   0  0  0  0  0  0  0  0  0  0  0  0
    5.2731   -1.8552    0.0000 C   0  0  0  0  0  0  0  0  0  0  0  0
    5.9879   -2.2670    0.0000 F   0  0  0  0  0  0  0  0  0  0  0  0
   -1.1474   -0.6292    0.0000 C   0  0  0  0  0  0  0  0  0  0  0  0
   -1.1485   -1.4566    0.0000 C   0  0  0  0  0  0  0  0  0  0  0  0
   -0.4336   -1.8695    0.0000 C   0  0  0  0  0  0  0  0  0  0  0  0
    0.2799   -0.6255    0.0000 C   0  0  0  0  0  0  0  0  0  0  0  0
   -0.4354   -0.2164    0.0000 C   0  0  0  0  0  0  0  0  0  0  0  0
    0.9875   -2.6877    0.0000 O   0  0  0  0  0  0  0  0  0  0  0  0
    3.1252   -0.6209    0.0000 O   0  0  0  0  0  0  0  0  0  0  0  0
    4.8614   -2.5703    0.0000 F   0  0  0  0  0  0  0  0  0  0  0  0
    5.6846   -1.1403    0.0000 F   0  0  0  0  0  0  0  0  0  0  0  0
   -3.7170   -0.3750    0.0000 C   0  0  0  0  0  0  0  0  0  0  0  0
   -3.5081   -1.0459    0.0000 F   0  0  0  0  0  0  0  0  0  0  0  0
   -4.4738   -0.2329    0.0000 F   0  0  0  0  0  0  0  0  0  0  0  0
   -4.3046   -0.9584    0.0000 F   0  0  0  0  0  0  0  0  0  0  0  0
   -5.9879    0.2125    0.0000 Cl  0  0  0  0  0  0  0  0  0  0  0  0
   -4.5629    2.6877    0.0000 Cl  0  0  0  0  0  0  0  0  0  0  0  0
    0.9917   -0.2084    0.0000 C   0  0  0  0  0  0  0  0  0  0  0  0
  1  2  2  0
  2  3  1  0
  2 34  1  0
  3  4  2  0
  4  5  1  0
  5  6  2  0
  6  1  1  0
  6 35  1  0
  7  8  1  0
  7  4  1  0
  7 30  1  0
  8  9  1  0
  9 10  2  0
 10 11  1  0
 11  7  1  0
 12 24  2  0
 12 13  1  0
 13 26  2  0
 13 14  1  0
 14 15  1  0
 15 16  1  0
 16 27  2  0
 16 17  1  0
 17 18  1  0
 18 19  1  0
 19 20  1  0
 19 28  1  0
 19 29  1  0
 21 22  1  0
 21 10  1  0
 22 23  2  0
 23 12  1  0
 24 25  1  0
 24 36  1  0
 25 21  2  0
 30 31  1  0
 30 32  1  0
 30 33  1  0
M  END
>  <DRUGBANK_ID>  (1) 
DB11414

>  <COMMON_NAME>  (1) 
Fluralaner

>  <CAS_NUMBER>  (1) 
864731-61-3

>  <UNII>  (1) 
WSH8393RM5

>  <SYNONYMS>  (1) 
Fluralaner

$$$$
