
     RDKit          2D

 27 30  0  0  1  0  0  0  0  0999 V2000
    3.9503    0.0961    0.0000 C   0  0  0  0  0  0  0  0  0  0  0  0
    6.4662    0.4982    0.0000 C   0  0  0  0  0  0  0  0  0  0  0  0
    3.9215   -2.0864    0.0000 C   0  0  0  0  0  0  0  0  0  0  0  0
    4.7336   -1.9412    0.0000 C   0  0  0  0  0  0  0  0  0  0  0  0
    2.3261   -0.1943    0.0000 C   0  0  0  0  0  0  0  0  0  0  0  0
    6.4774   -1.5264    0.0000 C   0  0  0  0  0  0  0  0  0  0  0  0
    3.1382   -0.0491    0.0000 C   0  0  0  0  0  0  0  0  0  0  0  0
    7.1602   -1.0634    0.0000 C   0  0  0  0  0  0  0  0  0  0  0  0
    2.5776   -1.6009    0.0000 C   0  0  0  0  0  0  0  0  0  0  0  0
    5.5745    0.3866    0.0000 C   0  0  0  0  0  0  0  0  0  0  0  0
    8.2749   -0.7564    0.0000 C   0  0  0  0  0  0  0  0  0  0  0  0
    3.3897   -1.4557    0.0000 C   0  0  0  0  0  0  0  0  0  0  0  0
    2.0458   -0.9702    0.0000 C   0  0  0  0  0  0  0  0  0  0  0  0
    5.8261   -1.0201    0.0000 C   0  0  0  0  0  0  0  0  0  0  0  0
    5.0139   -1.1653    0.0000 C   0  0  0  0  0  0  0  0  0  0  0  0
    4.7624    0.2414    0.0000 C   0  0  0  0  0  0  0  0  0  0  0  0
    7.7430   -0.1257    0.0000 C   0  0  0  0  0  0  0  0  0  0  0  0
    3.6700   -0.6798    0.0000 C   0  0  0  0  0  0  0  0  0  0  0  0
    6.1064   -0.2441    0.0000 C   0  0  0  0  0  0  0  0  0  0  0  0
    6.9309   -0.2709    0.0000 C   0  0  0  0  0  0  0  0  0  0  0  0
    4.4821   -0.5346    0.0000 C   0  0  0  0  0  0  0  0  0  0  0  0
    4.4226    0.2883    0.0000 F   0  0  0  0  0  0  0  0  0  0  0  0
    9.0870   -0.6112    0.0000 O   0  0  0  0  0  0  0  0  0  0  0  0
    1.2336   -1.1154    0.0000 O   0  0  0  0  0  0  0  0  0  0  0  0
    4.2306    0.8721    0.0000 O   0  0  0  0  0  0  0  0  0  0  0  0
    8.0233    0.6502    0.0000 O   0  0  0  0  0  0  0  0  0  0  0  0
    6.8714    0.5519    0.0000 O   0  0  0  0  0  0  0  0  0  0  0  0
  4  3  1  0
  7  5  2  0
  8  6  1  0
 12  3  1  0
 12  9  2  0
 13  5  1  0
 13  9  1  0
 14  6  1  1
 15  4  1  6
 15 14  1  0
 16 10  1  0
 16 25  1  1
 17 11  1  0
 18  1  1  1
 18  7  1  0
 18 12  1  0
 19  2  1  1
 19 10  1  0
 19 14  1  0
 20  8  1  0
 20 17  1  0
 20 19  1  0
 20 27  1  6
 21 15  1  0
 21 16  1  0
 21 18  1  0
 21 22  1  6
 23 11  1  0
 24 13  2  0
 26 17  2  0
M  END
>  <DRUGBANK_ID>  (1) 
DB11522

>  <COMMON_NAME>  (1) 
Isoflupredone

>  <CAS_NUMBER>  (1) 
338-95-4

>  <UNII>  (1) 
HYS0B45Z2S

>  <SYNONYMS>  (1) 
9-fluoroprednisolone; delta-Fluorocortisone; Isoflupredona; Isoflupredone; Isoflupredonum

$$$$
