421
     RDKit          2D

 28 30  0  0  0  0  0  0  0  0999 V2000
   -0.2940   -1.7154    0.0000 C   0  0  0  0  0  0  0  0  0  0  0  0
   -1.0085   -2.1279    0.0000 C   0  0  0  0  0  0  0  0  0  0  0  0
   -1.7229   -1.7154    0.0000 C   0  0  0  0  0  0  0  0  0  0  0  0
   -1.7229   -0.8904    0.0000 C   0  0  0  0  0  0  0  0  0  0  0  0
   -1.0085   -0.4779    0.0000 C   0  0  0  0  0  0  0  0  0  0  0  0
   -0.2940   -0.8904    0.0000 C   0  0  0  0  0  0  0  0  0  0  0  0
    0.4205   -0.4779    0.0000 C   0  0  0  0  0  0  0  0  0  0  0  0
    1.1349   -0.8904    0.0000 C   0  0  0  0  0  0  0  0  0  0  0  0
    1.1349   -1.7154    0.0000 C   0  0  0  0  0  0  0  0  0  0  0  0
    0.4205   -2.1279    0.0000 C   0  0  0  0  0  0  0  0  0  0  0  0
   -2.4374   -0.4779    0.0000 C   0  0  0  0  0  0  0  0  0  0  0  0
   -3.1519   -0.8904    0.0000 N   0  0  0  0  0  0  0  0  0  0  0  0
   -2.4374    0.3471    0.0000 N   0  0  0  0  0  0  0  0  0  0  0  0
    0.4205    0.3471    0.0000 N   0  0  0  0  0  0  0  0  0  0  0  0
   -0.2940    0.7596    0.0000 C   0  0  0  0  0  0  0  0  0  0  0  0
   -0.2940    1.5846    0.0000 C   0  0  0  0  0  0  0  0  0  0  0  0
   -1.0085    0.3471    0.0000 O   0  0  0  0  0  0  0  0  0  0  0  0
   -1.0085    1.9971    0.0000 C   0  0  0  0  0  0  0  0  0  0  0  0
   -1.0085    2.8221    0.0000 C   0  0  0  0  0  0  0  0  0  0  0  0
   -0.2940    3.2346    0.0000 C   0  0  0  0  0  0  0  0  0  0  0  0
    0.4205    2.8221    0.0000 C   0  0  0  0  0  0  0  0  0  0  0  0
    0.4205    1.9971    0.0000 C   0  0  0  0  0  0  0  0  0  0  0  0
    1.1349    1.5846    0.0000 C   0  0  0  0  0  0  0  0  0  0  0  0
    1.1349    3.2346    0.0000 O   0  0  0  0  0  0  0  0  0  0  0  0
    1.8494   -2.1279    0.0000 C   0  0  0  0  0  0  0  0  0  0  0  0
    1.8494   -2.9529    0.0000 O   0  0  0  0  0  0  0  0  0  0  0  0
    2.5639   -1.7154    0.0000 O   0  0  0  0  0  0  0  0  0  0  0  0
    3.2784   -2.1279    0.0000 C   0  0  0  0  0  0  0  0  0  0  0  0
  1  2  2  0
  1  6  1  0
  1 10  1  0
  2  3  1  0
  3  4  2  0
  4  5  1  0
  4 11  1  0
  5  6  2  0
  6  7  1  0
  7  8  2  0
  7 14  1  0
  8  9  1  0
  9 10  2  0
  9 25  1  0
 11 12  1  0
 11 13  2  0
 14 15  1  0
 15 16  1  0
 15 17  2  0
 16 18  2  0
 16 22  1  0
 18 19  1  0
 19 20  2  0
 20 21  1  0
 21 22  2  0
 21 24  1  0
 22 23  1  0
 25 26  2  0
 25 27  1  0
 27 28  1  0
M  END
>  <DRUGBANK_ID>  (1) 
DB07074

>  <COMMON_NAME>  (1) 
6-CARBAMIMIDOYL-4-(3-HYDROXY-2-METHYL-BENZOYLAMINO)-NAPHTHALENE-2-CARBOXYLIC ACID METHYL ESTER

$$$$
