
     RDKit          2D

 13 13  0  0  0  0  0  0  0  0999 V2000
   -2.8579   -2.4750    0.0000 O   0  0  0  0  0  0  0  0  0  0  0  0
   -2.1434   -2.0625    0.0000 S   0  0  0  0  0  0  0  0  0  0  0  0
   -1.7309   -2.7770    0.0000 O   0  0  0  0  0  0  0  0  0  0  0  0
   -2.5559   -1.3480    0.0000 O   0  0  0  0  0  0  0  0  0  0  0  0
   -1.4289   -1.6500    0.0000 C   0  0  0  0  0  0  0  0  0  0  0  0
   -0.7145   -2.0625    0.0000 C   0  0  0  0  0  0  0  0  0  0  0  0
    0.0000   -1.6500    0.0000 N   0  0  0  0  0  0  0  0  0  0  0  0
    0.7145   -2.0625    0.0000 C   0  0  0  0  0  0  0  0  0  0  0  0
    1.4289   -1.6500    0.0000 C   0  0  0  0  0  0  0  0  0  0  0  0
    2.1434   -2.0625    0.0000 C   0  0  0  0  0  0  0  0  0  0  0  0
    2.1434   -2.8875    0.0000 C   0  0  0  0  0  0  0  0  0  0  0  0
    1.4289   -3.3000    0.0000 C   0  0  0  0  0  0  0  0  0  0  0  0
    0.7145   -2.8875    0.0000 C   0  0  0  0  0  0  0  0  0  0  0  0
  1  2  1  0
  2  3  2  0
  2  4  2  0
  2  5  1  0
  5  6  1  0
  6  7  1  0
  7  8  1  0
  8  9  1  0
  8 13  1  0
  9 10  1  0
 10 11  1  0
 11 12  1  0
 12 13  1  0
M  END
>  <DRUGBANK_ID>  (1) 
DB03309

>  <SECONDARY_ACCESSION_NUMBERS>  (1) 
EXPT02344

>  <COMMON_NAME>  (1) 
N-cyclohexyltaurine

>  <CAS_NUMBER>  (1) 
103-47-9

>  <UNII>  (1) 
71X53V3RZ1

>  <SYNONYMS>  (1) 
2-(cyclohexylamino)ethanesulfonic acid; CHES

$$$$
