
     RDKit          2D

 11 12  0  0  0  0  0  0  0  0999 V2000
    1.6436    0.3570    0.0000 C   0  0  0  0  0  0  0  0  0  0  0  0
    0.2526    0.2537    0.0000 C   0  0  0  0  0  0  0  0  0  0  0  0
    1.3626   -0.1549    0.0000 C   0  0  0  0  0  0  0  0  0  0  0  0
    0.1351   -2.0602    0.0000 C   0  0  0  0  0  0  0  0  0  0  0  0
    0.5004   -1.3997    0.0000 C   0  0  0  0  0  0  0  0  0  0  0  0
    1.6411   -2.0402    0.0000 C   0  0  0  0  0  0  0  0  0  0  0  0
    0.9106   -1.6699    0.0000 C   0  0  0  0  0  0  0  0  0  0  0  0
    1.9362   -1.4148    0.0000 C   0  0  0  0  0  0  0  0  0  0  0  0
    0.9807   -0.1341    0.0000 C   0  0  0  0  0  0  0  0  0  0  0  0
    1.1407   -0.9495    0.0000 C   0  0  0  0  0  0  0  0  0  0  0  0
    2.7243   -1.1707    0.0000 O   0  0  0  0  0  0  0  0  0  0  0  0
  5  4  1  0
  7  4  1  1
  7  6  1  0
  8  6  1  0
  9  1  1  0
  9  2  1  0
  9  7  1  0
 10  3  1  1
 10  5  1  0
 10  8  1  0
 10  9  1  0
 11  8  2  0
M  END
>  <DRUGBANK_ID>  (1) 
DB01744

>  <SECONDARY_ACCESSION_NUMBERS>  (1) 
EXPT00827

>  <COMMON_NAME>  (1) 
Camphor

>  <CAS_NUMBER>  (1) 
464-49-3

>  <UNII>  (1) 
N20HL7Q941

>  <SYNONYMS>  (1) 
(+)-bornan-2-one; (+)-Camphor; (1R,4R)-camphor; (1R)-(+)-camphor; (R)-(+)-camphor; (R)-camphor; Camphor (natural); Camphor D-form; Camphor oil; Camphor(D); Camphora; D-Camphor; Dextrocamphor; Natural camphor

$$$$
