
     RDKit          2D

 11 10  0  0  1  0  0  0  0  0999 V2000
   13.7124  -11.6928    0.0000 C   0  0  0  0  0  0  0  0  0  0  0  0
   14.4269  -11.2803    0.0000 C   0  0  0  0  0  0  0  0  0  0  0  0
   15.1414  -11.6928    0.0000 C   0  0  0  0  0  0  0  0  0  0  0  0
   14.4269  -10.4553    0.0000 N   0  0  0  0  0  0  0  0  0  0  0  0
   12.9980  -11.2803    0.0000 O   0  0  0  0  0  0  0  0  0  0  0  0
   13.7124  -12.5178    0.0000 O   0  0  0  0  0  0  0  0  0  0  0  0
   15.8559  -11.2803    0.0000 C   0  0  0  0  0  0  0  0  0  0  0  0
   16.5704  -11.6928    0.0000 C   0  0  0  0  0  0  0  0  0  0  0  0
   17.2848  -11.2803    0.0000 C   0  0  0  0  0  0  0  0  0  0  0  0
   17.9993  -11.6928    0.0000 N   0  0  0  0  0  0  0  0  0  0  0  0
   18.7138  -11.2803    0.0000 C   0  0  0  0  0  0  0  0  0  0  0  0
  1  2  1  0
  1  5  2  0
  1  6  1  0
  2  3  1  0
  2  4  1  1
  3  7  1  0
  7  8  1  0
  8  9  1  0
  9 10  1  0
 10 11  1  0
M  END
>  <DRUGBANK_ID>  (1) 
DB01714

>  <SECONDARY_ACCESSION_NUMBERS>  (1) 
EXPT02190

>  <COMMON_NAME>  (1) 
Epsilon-N-methyllysine

>  <CAS_NUMBER>  (1) 
1188-07-4

>  <UNII>  (1) 
FCR6T2IYVU

>  <SYNONYMS>  (1) 
N-Epsilon-methyllysine; N(6)-Methyllysine

$$$$
