339
     RDKit          2D

  9  9  0  0  0  0  0  0  0  0999 V2000
    2.8075   -1.2375    0.0000 O   0  0  0  0  0  0  0  0  0  0  0  0
    4.2365   -0.4125    0.0000 N   0  0  0  0  0  0  0  0  0  0  0  0
    4.2365    1.2375    0.0000 N   0  0  0  0  0  0  0  0  0  0  0  0
    2.0930    0.0000    0.0000 N   0  0  0  0  0  0  0  0  0  0  0  0
    3.5220    0.0000    0.0000 C   0  0  0  0  0  0  0  0  0  0  0  0
    3.5220    0.8250    0.0000 C   0  0  0  0  0  0  0  0  0  0  0  0
    2.8075   -0.4125    0.0000 C   0  0  0  0  0  0  0  0  0  0  0  0
    4.9509    0.0000    0.0000 C   0  0  0  0  0  0  0  0  0  0  0  0
    4.9509    0.8250    0.0000 C   0  0  0  0  0  0  0  0  0  0  0  0
  1  7  2  0
  2  5  2  0
  2  8  1  0
  3  6  2  0
  3  9  1  0
  4  7  1  0
  5  6  1  0
  5  7  1  0
  8  9  2  0
M  END
>  <DRUGBANK_ID>  (1) 
DB00339

>  <SECONDARY_ACCESSION_NUMBERS>  (1) 
APRD01206

>  <COMMON_NAME>  (1) 
Pyrazinamide

>  <CAS_NUMBER>  (1) 
98-96-4

>  <UNII>  (1) 
2KNI5N06TI

>  <SYNONYMS>  (1) 
2-carbamylpyrazine; 2-pyrazinecarboxamide; Aldinamide; Pirazinamida; Pirazinamide; Pyrazinamid; Pyrazinamida; Pyrazinamide; Pyrazinamidum; Pyrazine carboxamide; pyrazine-2-carboxamide; Pyrazineamide; Pyrazinecarboxamide; Pyrazinoic acid amide; Pyrizinamide

$$$$
