
     RDKit          2D

 26 25  0  0  0  0  0  0  0  0999 V2000
   -0.2215   -0.6187    0.0000 O   0  0  0  0  0  0  0  0  0  0  0  0
   -0.9359    3.0938    0.0000 O   0  0  0  0  0  0  0  0  0  0  0  0
   -0.2215    4.3313    0.0000 O   0  0  0  0  0  0  0  0  0  0  0  0
   -3.0794   -1.4437    0.0000 O   0  0  0  0  0  0  0  0  0  0  0  0
    1.9219    2.2687    0.0000 O   0  0  0  0  0  0  0  0  0  0  0  0
   -3.7939   -4.3313    0.0000 O   0  0  0  0  0  0  0  0  0  0  0  0
   -2.3649   -4.3313    0.0000 O   0  0  0  0  0  0  0  0  0  0  0  0
    1.2074    3.5063    0.0000 N   0  0  0  0  0  0  0  0  0  0  0  0
   -1.6504   -0.6187    0.0000 N   0  0  0  0  0  0  0  0  0  0  0  0
   -2.3649   -2.6813    0.0000 N   0  0  0  0  0  0  0  0  0  0  0  0
    3.3509    3.0938    0.0000 N   0  0  0  0  0  0  0  0  0  0  0  0
   -0.2215    1.8562    0.0000 C   0  0  0  0  0  0  0  0  0  0  0  0
    0.4930    2.2687    0.0000 C   0  0  0  0  0  0  0  0  0  0  0  0
   -0.2215    1.0312    0.0000 C   0  0  0  0  0  0  0  0  0  0  0  0
    0.4930    3.0938    0.0000 C   0  0  0  0  0  0  0  0  0  0  0  0
   -0.9359    0.6187    0.0000 C   0  0  0  0  0  0  0  0  0  0  0  0
   -0.9359   -0.2062    0.0000 C   0  0  0  0  0  0  0  0  0  0  0  0
   -1.6504   -1.4437    0.0000 C   0  0  0  0  0  0  0  0  0  0  0  0
   -0.2215    3.5063    0.0000 C   0  0  0  0  0  0  0  0  0  0  0  0
   -2.3649   -1.8562    0.0000 C   0  0  0  0  0  0  0  0  0  0  0  0
   -0.9359   -1.8562    0.0000 C   0  0  0  0  0  0  0  0  0  0  0  0
    1.9219    3.0938    0.0000 C   0  0  0  0  0  0  0  0  0  0  0  0
   -3.0794   -3.0938    0.0000 C   0  0  0  0  0  0  0  0  0  0  0  0
    2.6364    3.5063    0.0000 C   0  0  0  0  0  0  0  0  0  0  0  0
   -3.7939   -2.6813    0.0000 C   0  0  0  0  0  0  0  0  0  0  0  0
   -3.0794   -3.9188    0.0000 C   0  0  0  0  0  0  0  0  0  0  0  0
  1 17  2  0
  2 19  1  0
  3 19  2  0
  4 20  2  0
  5 22  2  0
  6 26  1  0
  7 26  2  0
  8 22  1  0
  9 17  1  0
 10 20  1  0
 11 24  1  0
 12 13  1  0
 12 14  1  0
 15 13  1  1
 14 16  1  0
 15  8  1  0
 15 19  1  0
 16 17  1  0
 18  9  1  0
 18 20  1  0
 18 21  1  6
 22 24  1  0
 23 10  1  0
 23 25  1  1
 23 26  1  0
M  END
>  <DRUGBANK_ID>  (1) 
DB02578

>  <SECONDARY_ACCESSION_NUMBERS>  (1) 
EXPT02773

>  <COMMON_NAME>  (1) 
N-[(6S)-6-Carboxy-6-(glycylamino)hexanoyl]-D-alanyl-D-alanine

>  <SYNONYMS>  (1) 
Glycyl-L-alpha-amino-epsilon-pimelyl-D-alanyl-D-alanine

$$$$
