
     RDKit          2D

  9  8  0  0  0  0  0  0  0  0999 V2000
   -3.1875    1.3438    0.0000 N   0  0  0  0  0  0  0  0  0  0  0  0
   -2.4730    0.1063    0.0000 N   0  0  0  0  0  0  0  0  0  0  0  0
   -2.4730    0.9313    0.0000 C   0  0  0  0  0  0  0  0  0  0  0  0
   -1.7586    1.3438    0.0000 N   0  0  0  0  0  0  0  0  0  0  0  0
   -1.0441    0.1063    0.0000 N   0  0  0  0  0  0  0  0  0  0  0  0
   -1.0441    0.9313    0.0000 C   0  0  0  0  0  0  0  0  0  0  0  0
   -0.3296    2.1688    0.0000 C   0  0  0  0  0  0  0  0  0  0  0  0
   -0.3296    1.3438    0.0000 N   0  0  0  0  0  0  0  0  0  0  0  0
    0.3849    0.9313    0.0000 C   0  0  0  0  0  0  0  0  0  0  0  0
  1  3  1  0
  3  2  2  0
  3  4  1  0
  4  6  1  0
  6  5  2  0
  6  8  1  0
  8  7  1  0
  8  9  1  0
M  END
>  <DRUGBANK_ID>  (1) 
DB00331

>  <SECONDARY_ACCESSION_NUMBERS>  (1) 
APRD01099

>  <COMMON_NAME>  (1) 
Metformin

>  <CAS_NUMBER>  (1) 
657-24-9

>  <UNII>  (1) 
9100L32L2N

>  <SYNONYMS>  (1) 
1,1-Dimethylbiguanide; Dimethylbiguanid; Metformin; Metformina; Metformine; Metforminum

$$$$
