
     RDKit          2D

  9  9  0  0  1  0  0  0  0  0999 V2000
    0.9803   -0.1553    0.0000 C   0  0  0  0  0  0  0  0  0  0  0  0
    0.1553   -0.1553    0.0000 C   0  0  0  0  0  0  0  0  0  0  0  0
   -0.0997    0.6294    0.0000 N   0  0  0  0  0  0  0  0  0  0  0  0
    0.5678    1.1143    0.0000 C   0  0  0  0  0  0  0  0  0  0  0  0
    0.5678    1.9393    0.0000 O   0  0  0  0  0  0  0  0  0  0  0  0
    1.2352    0.6294    0.0000 S   0  0  0  0  0  0  0  0  0  0  0  0
   -0.3297   -0.8227    0.0000 C   0  0  0  0  0  0  0  0  0  0  0  0
    0.0059   -1.5764    0.0000 O   0  0  0  0  0  0  0  0  0  0  0  0
   -1.1501   -0.7365    0.0000 O   0  0  0  0  0  0  0  0  0  0  0  0
  1  2  1  0
  1  6  1  0
  2  3  1  0
  2  7  1  1
  3  4  1  0
  4  5  2  0
  4  6  1  0
  7  8  2  0
  7  9  1  0
M  END
>  <DRUGBANK_ID>  (1) 
DB12224

>  <COMMON_NAME>  (1) 
Oxothiazolidinecarboxylic acid

>  <CAS_NUMBER>  (1) 
19771-63-2

>  <UNII>  (1) 
X7063P804E

>  <SYNONYMS>  (1) 
(-)-2-OXO-4-THIAZOLIDINECARBOXYLIC ACID; (R)-2-OXOTHIAZOLIDINE-4-CARBOXYLIC ACID; 2-OXO-4-THIAZOLIDINECARBOXYLIC ACID, L-; 2-OXO-L-THIAZOLIDINE-4-CARBOXYLIC ACID; 4-THIAZOLIDINECARBOXYLIC ACID, 2-OXO-, (R)-; L-2-OXO-4-THIAZOLIDINECARBOXYLIC ACI; L-2-oxothiazolidine-4-carboxylic acid; Procysteine

$$$$
