PYU
     RDKit          2D

 16 17  0  0  0  0  0  0  0  0999 V2000
    0.7525   -0.7107    0.0000 N   0  0  0  0  0  0  0  0  0  0  0  0
    0.0381    1.3518    0.0000 C   0  0  0  0  0  0  0  0  0  0  0  0
   -1.3909    0.5268    0.0000 C   0  0  0  0  0  0  0  0  0  0  0  0
   -0.6764    1.7643    0.0000 C   0  0  0  0  0  0  0  0  0  0  0  0
    1.4200   -1.1956    0.0000 C   0  0  0  0  0  0  0  0  0  0  0  0
    0.0851   -1.1956    0.0000 C   0  0  0  0  0  0  0  0  0  0  0  0
    1.1650   -1.9802    0.0000 C   0  0  0  0  0  0  0  0  0  0  0  0
    0.3400   -1.9802    0.0000 C   0  0  0  0  0  0  0  0  0  0  0  0
    0.0381    0.5268    0.0000 C   0  0  0  0  0  0  0  0  0  0  0  0
   -1.3909    1.3518    0.0000 C   0  0  0  0  0  0  0  0  0  0  0  0
   -0.6764    0.1143    0.0000 C   0  0  0  0  0  0  0  0  0  0  0  0
    0.7525    0.1143    0.0000 C   0  0  0  0  0  0  0  0  0  0  0  0
    1.4670    0.5268    0.0000 O   0  0  0  0  0  0  0  0  0  0  0  0
   -2.1054    1.7643    0.0000 O   0  0  0  0  0  0  0  0  0  0  0  0
   -0.6764   -0.7107    0.0000 O   0  0  0  0  0  0  0  0  0  0  0  0
    0.7525    1.7643    0.0000 O   0  0  0  0  0  0  0  0  0  0  0  0
  1  5  1  0
  1  6  1  0
  2 16  1  0
  3 11  1  0
  3 10  2  0
  4  2  2  0
  5  7  2  0
  6  8  2  0
  7  8  1  0
  9  2  1  0
  9 12  1  0
 10  4  1  0
 11  9  2  0
 12  1  1  0
 13 12  2  0
 14 10  1  0
 15 11  1  0
M  END
>  <DRUGBANK_ID>  (1) 
DB08443

>  <COMMON_NAME>  (1) 
2-(1H-pyrrol-1-ylcarbonyl)benzene-1,3,5-triol

$$$$
