49U
     RDKit          2D

 27 29  0  0  0  0  0  0  0  0999 V2000
    0.6300    0.7839    0.0000 O   0  0  0  0  0  0  0  0  0  0  0  0
   -0.0845    0.3714    0.0000 C   0  0  0  0  0  0  0  0  0  0  0  0
   -0.7990    0.7839    0.0000 N   0  0  0  0  0  0  0  0  0  0  0  0
   -0.7990    1.6089    0.0000 C   0  0  0  0  0  0  0  0  0  0  0  0
   -1.5134    2.0214    0.0000 C   0  0  0  0  0  0  0  0  0  0  0  0
   -1.5134    2.8464    0.0000 C   0  0  0  0  0  0  0  0  0  0  0  0
   -2.2279    3.2589    0.0000 C   0  0  0  0  0  0  0  0  0  0  0  0
   -2.9424    2.8464    0.0000 C   0  0  0  0  0  0  0  0  0  0  0  0
   -3.6569    3.2589    0.0000 C   0  0  0  0  0  0  0  0  0  0  0  0
   -4.3713    2.8464    0.0000 N   0  0  0  0  0  0  0  0  0  0  0  0
   -3.6569    4.0839    0.0000 N   0  0  0  0  0  0  0  0  0  0  0  0
   -2.9424    2.0214    0.0000 C   0  0  0  0  0  0  0  0  0  0  0  0
   -2.2279    1.6089    0.0000 C   0  0  0  0  0  0  0  0  0  0  0  0
   -0.0845   -0.4536    0.0000 C   0  0  0  0  0  0  0  0  0  0  0  0
   -0.7519   -0.9386    0.0000 C   0  0  0  0  0  0  0  0  0  0  0  0
   -0.4970   -1.7232    0.0000 C   0  0  0  0  0  0  0  0  0  0  0  0
    0.3280   -1.7232    0.0000 C   0  0  0  0  0  0  0  0  0  0  0  0
    0.5829   -0.9386    0.0000 N   0  0  0  0  0  0  0  0  0  0  0  0
    1.3676   -0.6836    0.0000 C   0  0  0  0  0  0  0  0  0  0  0  0
    1.5391    0.1233    0.0000 O   0  0  0  0  0  0  0  0  0  0  0  0
    1.9806   -1.2357    0.0000 C   0  0  0  0  0  0  0  0  0  0  0  0
    2.7653   -0.9807    0.0000 C   0  0  0  0  0  0  0  0  0  0  0  0
    3.3784   -1.5328    0.0000 C   0  0  0  0  0  0  0  0  0  0  0  0
    4.1853   -1.3612    0.0000 C   0  0  0  0  0  0  0  0  0  0  0  0
    4.5978   -2.0757    0.0000 C   0  0  0  0  0  0  0  0  0  0  0  0
    4.0458   -2.6888    0.0000 C   0  0  0  0  0  0  0  0  0  0  0  0
    3.2921   -2.3532    0.0000 C   0  0  0  0  0  0  0  0  0  0  0  0
  2  1  2  0
  3  2  1  0
  4  3  1  0
  4  5  1  0
  5 13  1  0
  6  5  2  0
  6  7  1  0
  7  8  2  0
  8 12  1  0
  8  9  1  0
  9 10  2  0
 11  9  1  0
 13 12  2  0
 14  2  1  1
 14 18  1  0
 15 16  1  0
 15 14  1  0
 16 17  1  0
 17 18  1  0
 18 19  1  0
 19 20  2  0
 19 21  1  0
 21 22  1  0
 23 22  1  0
 23 24  1  0
 25 24  1  0
 26 25  1  0
 27 23  1  0
 27 26  1  0
M  END
>  <DRUGBANK_ID>  (1) 
DB07095

>  <COMMON_NAME>  (1) 
(S)-N-(4-carbamimidoylbenzyl)-1-(3-cyclopentylpropanoyl)pyrrolidine-2-carboxamide

$$$$
