
     RDKit          2D

 23 24  0  0  0  0  0  0  0  0999 V2000
    1.7259    2.1094    0.0000 C   0  0  0  0  0  0  0  0  0  0  0  0
    1.0093    1.7007    0.0000 C   0  0  0  0  0  0  0  0  0  0  0  0
    1.0093    0.8730    0.0000 C   0  0  0  0  0  0  0  0  0  0  0  0
    0.2977    0.4642    0.0000 C   0  0  0  0  0  0  0  0  0  0  0  0
   -0.4188    0.8730    0.0000 C   0  0  0  0  0  0  0  0  0  0  0  0
   -0.4188    1.7007    0.0000 C   0  0  0  0  0  0  0  0  0  0  0  0
    0.2977    2.1094    0.0000 C   0  0  0  0  0  0  0  0  0  0  0  0
    2.4374    2.5232    0.0000 N   0  0  0  0  0  0  0  0  0  0  0  0
    1.7259    0.4642    0.0000 C   0  0  0  0  0  0  0  0  0  0  0  0
    1.7259   -0.3633    0.0000 F   0  0  0  0  0  0  0  0  0  0  0  0
    2.4374    0.0504    0.0000 F   0  0  0  0  0  0  0  0  0  0  0  0
    2.4374    0.8730    0.0000 F   0  0  0  0  0  0  0  0  0  0  0  0
   -1.1304    0.4642    0.0000 N   0  0  0  0  0  0  0  0  0  0  0  0
   -1.2161   -0.3583    0.0000 C   0  0  0  0  0  0  0  0  0  0  0  0
   -2.0236   -0.5299    0.0000 C   0  0  0  0  0  0  0  0  0  0  0  0
   -2.4374    0.1867    0.0000 C   0  0  0  0  0  0  0  0  0  0  0  0
   -1.8873    0.7973    0.0000 C   0  0  0  0  0  0  0  0  0  0  0  0
   -0.6056   -0.9084    0.0000 C   0  0  0  0  0  0  0  0  0  0  0  0
   -0.7771   -1.7158    0.0000 C   0  0  0  0  0  0  0  0  0  0  0  0
    0.1766   -0.6560    0.0000 O   0  0  0  0  0  0  0  0  0  0  0  0
   -0.9487   -2.5232    0.0000 F   0  0  0  0  0  0  0  0  0  0  0  0
   -1.5593   -1.9732    0.0000 F   0  0  0  0  0  0  0  0  0  0  0  0
   -0.1665   -2.2659    0.0000 F   0  0  0  0  0  0  0  0  0  0  0  0
  1  2  1  0
  1  8  3  0
  2  3  2  0
  2  7  1  0
  3  4  1  0
  3  9  1  0
  4  5  2  0
  5  6  1  0
  5 13  1  0
  6  7  2  0
  9 10  1  0
  9 11  1  0
  9 12  1  0
 13 14  1  0
 13 17  1  0
 14 15  1  1
 14 18  1  0
 15 16  1  0
 16 17  1  0
 18 19  1  0
 18 20  1  1
 19 21  1  0
 19 22  1  0
 19 23  1  0
M  END
>  <DRUGBANK_ID>  (1) 
DB13934

>  <COMMON_NAME>  (1) 
Ligandrol

>  <CAS_NUMBER>  (1) 
1165910-22-4

>  <UNII>  (1) 
1EJT54415A

$$$$
