
     RDKit          2D

 24 27  0  0  1  0  0  0  0  0999 V2000
    2.2581    0.8137    0.0000 C   0  0  0  0  0  0  0  0  0  0  0  0
    1.4717    0.5641    0.0000 C   0  0  0  0  0  0  0  0  0  0  0  0
    0.8760   -0.3738    0.0000 C   0  0  0  0  0  0  0  0  0  0  0  0
    1.6989   -0.3147    0.0000 C   0  0  0  0  0  0  0  0  0  0  0  0
    2.2389    0.3090    0.0000 C   0  0  0  0  0  0  0  0  0  0  0  0
    2.9811   -0.0512    0.0000 C   0  0  0  0  0  0  0  0  0  0  0  0
    3.6642    0.4115    0.0000 C   0  0  0  0  0  0  0  0  0  0  0  0
    3.6050    1.2344    0.0000 C   0  0  0  0  0  0  0  0  0  0  0  0
    2.8628    1.5946    0.0000 C   0  0  0  0  0  0  0  0  0  0  0  0
    2.1797    1.1319    0.0000 C   0  0  0  0  0  0  0  0  0  0  0  0
    1.5561    1.6719    0.0000 C   0  0  0  0  0  0  0  0  0  0  0  0
    0.7332    1.6128    0.0000 C   0  0  0  0  0  0  0  0  0  0  0  0
    0.1931    0.9891    0.0000 C   0  0  0  0  0  0  0  0  0  0  0  0
    0.2523    0.1662    0.0000 N   0  0  0  0  0  0  0  0  0  0  0  0
   -0.4853   -0.2033    0.0000 C   0  0  0  0  0  0  0  0  0  0  0  0
   -1.1741    0.2507    0.0000 C   0  0  0  0  0  0  0  0  0  0  0  0
   -1.9117   -0.1189    0.0000 C   0  0  0  0  0  0  0  0  0  0  0  0
   -1.9605   -0.9425    0.0000 C   0  0  0  0  0  0  0  0  0  0  0  0
   -2.6981   -1.3120    0.0000 C   0  0  0  0  0  0  0  0  0  0  0  0
   -3.3869   -0.8580    0.0000 C   0  0  0  0  0  0  0  0  0  0  0  0
   -3.3382   -0.0345    0.0000 C   0  0  0  0  0  0  0  0  0  0  0  0
   -2.6006    0.3351    0.0000 C   0  0  0  0  0  0  0  0  0  0  0  0
    1.8163    2.4548    0.0000 C   0  0  0  0  0  0  0  0  0  0  0  0
    4.2881    1.6971    0.0000 O   0  0  0  0  0  0  0  0  0  0  0  0
  2  1  1  1
  2  3  1  0
  2 11  1  0
  3  4  1  1
  3 14  1  0
  4  5  1  0
  5  6  1  0
  5 10  2  0
  6  7  2  0
  7  8  1  0
  8  9  2  0
  8 24  1  0
  9 10  1  0
 10 11  1  0
 11 12  1  0
 11 23  1  6
 12 13  1  0
 13 14  1  0
 14 15  1  0
 15 16  1  0
 16 17  1  0
 17 18  2  0
 17 22  1  0
 18 19  1  0
 19 20  2  0
 20 21  1  0
 21 22  2  0
M  END
>  <DRUGBANK_ID>  (1) 
DB13606

>  <COMMON_NAME>  (1) 
Phenazocine

>  <CAS_NUMBER>  (1) 
58073-76-0

>  <UNII>  (1) 
J0ND6N0AQC

$$$$
