7IP
     RDKit          2D

 23 25  0  0  0  0  0  0  0  0999 V2000
    3.9100    2.3242    0.0000 C   0  0  0  0  0  0  0  0  0  0  0  0
    3.1956    1.9117    0.0000 O   0  0  0  0  0  0  0  0  0  0  0  0
    3.1956    1.0867    0.0000 C   0  0  0  0  0  0  0  0  0  0  0  0
    3.9100    0.6742    0.0000 C   0  0  0  0  0  0  0  0  0  0  0  0
    3.9100   -0.1508    0.0000 C   0  0  0  0  0  0  0  0  0  0  0  0
    3.1956   -0.5633    0.0000 C   0  0  0  0  0  0  0  0  0  0  0  0
    2.4811   -0.1508    0.0000 C   0  0  0  0  0  0  0  0  0  0  0  0
    2.4811    0.6742    0.0000 C   0  0  0  0  0  0  0  0  0  0  0  0
    1.7666   -0.5633    0.0000 C   0  0  0  0  0  0  0  0  0  0  0  0
    1.0522   -0.1508    0.0000 C   0  0  0  0  0  0  0  0  0  0  0  0
    0.3377   -0.5633    0.0000 C   0  0  0  0  0  0  0  0  0  0  0  0
    0.3377   -1.3883    0.0000 C   0  0  0  0  0  0  0  0  0  0  0  0
    1.0522   -1.8008    0.0000 C   0  0  0  0  0  0  0  0  0  0  0  0
    1.0522   -2.6258    0.0000 C   0  0  0  0  0  0  0  0  0  0  0  0
    0.3377   -3.0383    0.0000 C   0  0  0  0  0  0  0  0  0  0  0  0
    0.3377   -3.8633    0.0000 C   0  0  0  0  0  0  0  0  0  0  0  0
   -0.3768   -4.2758    0.0000 C   0  0  0  0  0  0  0  0  0  0  0  0
   -0.3768   -5.1008    0.0000 C   0  0  0  0  0  0  0  0  0  0  0  0
    0.3377   -5.5133    0.0000 C   0  0  0  0  0  0  0  0  0  0  0  0
    1.0522   -5.1008    0.0000 C   0  0  0  0  0  0  0  0  0  0  0  0
    1.7666   -5.5133    0.0000 N   0  0  0  0  0  0  0  0  0  0  0  0
    1.0522   -4.2758    0.0000 N   0  0  0  0  0  0  0  0  0  0  0  0
    1.7666   -1.3883    0.0000 C   0  0  0  0  0  0  0  0  0  0  0  0
  1  2  1  0
  2  3  1  0
  3  4  2  0
  3  8  1  0
  4  5  1  0
  5  6  2  0
  6  7  1  0
  7  8  2  0
  7  9  1  0
  9 23  1  0
  9 10  2  0
 10 11  1  0
 11 12  2  0
 12 13  1  0
 13 23  2  0
 13 14  1  0
 14 15  1  0
 15 16  1  0
 16 22  1  0
 16 17  2  0
 17 18  1  0
 18 19  2  0
 19 20  1  0
 20 21  1  0
 20 22  2  0
M  END
>  <DRUGBANK_ID>  (1) 
DB07245

>  <COMMON_NAME>  (1) 
6-[2-(3'-METHOXYBIPHENYL-3-YL)ETHYL]PYRIDIN-2-AMINE

$$$$
