IQA
     RDKit          2D

 22 25  0  0  0  0  0  0  0  0999 V2000
   -2.3672   -2.3040    0.0000 O   0  0  0  0  0  0  0  0  0  0  0  0
   -1.9919   -1.5693    0.0000 C   0  0  0  0  0  0  0  0  0  0  0  0
   -2.4405   -0.8769    0.0000 O   0  0  0  0  0  0  0  0  0  0  0  0
   -1.1680   -1.5270    0.0000 C   0  0  0  0  0  0  0  0  0  0  0  0
   -0.7927   -0.7923    0.0000 C   0  0  0  0  0  0  0  0  0  0  0  0
    0.0223   -0.6641    0.0000 C   0  0  0  0  0  0  0  0  0  0  0  0
    0.6629   -1.1839    0.0000 N   0  0  0  0  0  0  0  0  0  0  0  0
    1.4334   -0.8891    0.0000 C   0  0  0  0  0  0  0  0  0  0  0  0
    2.0740   -1.4090    0.0000 O   0  0  0  0  0  0  0  0  0  0  0  0
    1.5633   -0.0744    0.0000 C   0  0  0  0  0  0  0  0  0  0  0  0
    2.3339    0.2204    0.0000 C   0  0  0  0  0  0  0  0  0  0  0  0
    2.4638    1.0352    0.0000 C   0  0  0  0  0  0  0  0  0  0  0  0
    1.8232    1.5550    0.0000 C   0  0  0  0  0  0  0  0  0  0  0  0
    1.0527    1.2602    0.0000 C   0  0  0  0  0  0  0  0  0  0  0  0
    0.9227    0.4455    0.0000 C   0  0  0  0  0  0  0  0  0  0  0  0
    0.1522    0.1506    0.0000 N   0  0  0  0  0  0  0  0  0  0  0  0
   -0.5825    0.5259    0.0000 C   0  0  0  0  0  0  0  0  0  0  0  0
   -1.1664   -0.0568    0.0000 C   0  0  0  0  0  0  0  0  0  0  0  0
   -1.9631    0.1576    0.0000 C   0  0  0  0  0  0  0  0  0  0  0  0
   -2.1758    0.9547    0.0000 C   0  0  0  0  0  0  0  0  0  0  0  0
   -1.5918    1.5374    0.0000 C   0  0  0  0  0  0  0  0  0  0  0  0
   -0.7951    1.3231    0.0000 C   0  0  0  0  0  0  0  0  0  0  0  0
  1  2  1  0
  2  3  2  0
  2  4  1  0
  4  5  1  0
  5  6  2  0
  5 18  1  0
  6  7  1  0
  6 16  1  0
  7  8  1  0
  8  9  2  0
  8 10  1  0
 10 11  1  0
 10 15  2  0
 11 12  2  0
 12 13  1  0
 13 14  2  0
 14 15  1  0
 15 16  1  0
 16 17  1  0
 17 18  2  0
 17 22  1  0
 18 19  1  0
 19 20  2  0
 20 21  1  0
 21 22  2  0
M  END
>  <DRUGBANK_ID>  (1) 
DB01765

>  <SECONDARY_ACCESSION_NUMBERS>  (1) 
EXPT01927

>  <COMMON_NAME>  (1) 
(5-hydroxyindolo[1,2-a]quinazolin-7-yl)acetic acid

>  <CAS_NUMBER>  (1) 
391670-48-7

>  <SYNONYMS>  (1) 
(5-oxo-5,6-dihydro-indolo[1,2-a]quinazolin-7-yl)-acetic acid

$$$$
