4DE
     RDKit          2D

 20 21  0  0  0  0  0  0  0  0999 V2000
   -0.4243    2.0775    0.0000 O   0  0  0  0  0  0  0  0  0  0  0  0
    0.2902    1.6650    0.0000 C   0  0  0  0  0  0  0  0  0  0  0  0
    1.0047    2.0775    0.0000 O   0  0  0  0  0  0  0  0  0  0  0  0
    1.0047    2.9025    0.0000 C   0  0  0  0  0  0  0  0  0  0  0  0
    1.7192    3.3150    0.0000 C   0  0  0  0  0  0  0  0  0  0  0  0
    0.2902    0.8400    0.0000 C   0  0  0  0  0  0  0  0  0  0  0  0
    0.9577    0.3551    0.0000 C   0  0  0  0  0  0  0  0  0  0  0  0
    1.7423    0.6100    0.0000 C   0  0  0  0  0  0  0  0  0  0  0  0
    0.7027   -0.4295    0.0000 N   0  0  0  0  0  0  0  0  0  0  0  0
   -0.1223   -0.4295    0.0000 N   0  0  0  0  0  0  0  0  0  0  0  0
   -0.3772    0.3551    0.0000 C   0  0  0  0  0  0  0  0  0  0  0  0
   -1.1618    0.6100    0.0000 C   0  0  0  0  0  0  0  0  0  0  0  0
   -0.6072   -1.0970    0.0000 C   0  0  0  0  0  0  0  0  0  0  0  0
   -0.2716   -1.8506    0.0000 C   0  0  0  0  0  0  0  0  0  0  0  0
   -0.7566   -2.5181    0.0000 C   0  0  0  0  0  0  0  0  0  0  0  0
   -1.5770   -2.4318    0.0000 C   0  0  0  0  0  0  0  0  0  0  0  0
   -1.9126   -1.6782    0.0000 C   0  0  0  0  0  0  0  0  0  0  0  0
   -1.4277   -1.0107    0.0000 C   0  0  0  0  0  0  0  0  0  0  0  0
   -2.0620   -3.0993    0.0000 O   0  0  0  0  0  0  0  0  0  0  0  0
   -1.7264   -3.8530    0.0000 C   0  0  0  0  0  0  0  0  0  0  0  0
  1  2  2  0
  2  3  1  0
  2  6  1  0
  3  4  1  0
  4  5  1  0
  6  7  1  0
  6 11  2  0
  7  8  1  0
  7  9  2  0
  9 10  1  0
 10 11  1  0
 10 13  1  0
 11 12  1  0
 13 14  2  0
 13 18  1  0
 14 15  1  0
 15 16  2  0
 16 17  1  0
 16 19  1  0
 17 18  2  0
 19 20  1  0
M  END
>  <DRUGBANK_ID>  (1) 
DB04469

>  <SECONDARY_ACCESSION_NUMBERS>  (1) 
EXPT00210

>  <COMMON_NAME>  (1) 
1-(4-Methoxyphenyl)-3,5-Dimethyl-1h-Pyrazole-4-Carboxylic Acid Ethyl Ester

$$$$
