
     RDKit          2D

 18 19  0  0  0  0  0  0  0  0999 V2000
   -0.0000   -1.4559    0.0000 C   0  0  0  0  0  0  0  0  0  0  0  0
   -0.0000   -0.6309    0.0000 N   0  0  0  0  0  0  0  0  0  0  0  0
    0.7145   -0.2184    0.0000 C   0  0  0  0  0  0  0  0  0  0  0  0
    1.4289   -0.6309    0.0000 C   0  0  0  0  0  0  0  0  0  0  0  0
    2.1434   -0.2184    0.0000 C   0  0  0  0  0  0  0  0  0  0  0  0
    2.1434    0.6066    0.0000 C   0  0  0  0  0  0  0  0  0  0  0  0
    1.4289    1.0191    0.0000 C   0  0  0  0  0  0  0  0  0  0  0  0
    0.7145    0.6066    0.0000 C   0  0  0  0  0  0  0  0  0  0  0  0
    0.0000    1.0191    0.0000 C   0  0  0  0  0  0  0  0  0  0  0  0
   -0.7145    0.6066    0.0000 C   0  0  0  0  0  0  0  0  0  0  0  0
   -0.7145   -0.2184    0.0000 C   0  0  0  0  0  0  0  0  0  0  0  0
   -1.4289   -0.6309    0.0000 C   0  0  0  0  0  0  0  0  0  0  0  0
   -2.1434   -0.2184    0.0000 C   0  0  0  0  0  0  0  0  0  0  0  0
   -2.1434    0.6066    0.0000 C   0  0  0  0  0  0  0  0  0  0  0  0
   -1.4289    1.0191    0.0000 C   0  0  0  0  0  0  0  0  0  0  0  0
   -2.8579   -0.6309    0.0000 N   0  0  0  0  0  0  0  0  0  0  0  0
    2.8579   -0.6309    0.0000 N   0  0  0  0  0  0  0  0  0  0  0  0
    5.2150    0.0000    0.0000 Cl  0  0  0  0  0  0  0  0  0  0  0  0
  1  2  1  0
  2  3  2  0
  2 11  1  0
  3  4  1  0
  3  8  1  0
  4  5  2  0
  5  6  1  0
  5 17  1  0
  6  7  2  0
  7  8  1  0
  8  9  2  0
  9 10  1  0
 10 11  2  0
 10 15  1  0
 11 12  1  0
 12 13  2  0
 13 14  1  0
 13 16  1  0
 14 15  2  0
M  CHG  2   2   1  18  -1
M  END
>  <DRUGBANK_ID>  (1) 
DB13326

>  <COMMON_NAME>  (1) 
Euflavine

>  <CAS_NUMBER>  (1) 
86-40-8

>  <UNII>  (1) 
1TW3Q60E36

>  <SYNONYMS>  (1) 
3,6-diamino-10-methylacridinium chloride

$$$$
