VC3
     RDKit          2D

 14 15  0  0  0  0  0  0  0  0999 V2000
   42.8491   33.3269    0.0000 N   0  0  0  0  0  0  0  0  0  0  0  0
   41.1643   36.7813    0.0000 N   0  0  0  0  0  0  0  0  0  0  0  0
   40.9094   35.9967    0.0000 C   0  0  0  0  0  0  0  0  0  0  0  0
   40.4969   37.2662    0.0000 N   0  0  0  0  0  0  0  0  0  0  0  0
   42.3641   33.9944    0.0000 C   0  0  0  0  0  0  0  0  0  0  0  0
   40.0844   35.9967    0.0000 C   0  0  0  0  0  0  0  0  0  0  0  0
   43.6695   33.4132    0.0000 O   0  0  0  0  0  0  0  0  0  0  0  0
   42.5135   32.5732    0.0000 O   0  0  0  0  0  0  0  0  0  0  0  0
   41.3943   35.3292    0.0000 C   0  0  0  0  0  0  0  0  0  0  0  0
   39.8294   36.7813    0.0000 C   0  0  0  0  0  0  0  0  0  0  0  0
   41.5436   33.9081    0.0000 C   0  0  0  0  0  0  0  0  0  0  0  0
   42.6997   34.7480    0.0000 C   0  0  0  0  0  0  0  0  0  0  0  0
   41.0587   34.5756    0.0000 C   0  0  0  0  0  0  0  0  0  0  0  0
   42.2148   35.4155    0.0000 C   0  0  0  0  0  0  0  0  0  0  0  0
  1  5  1  0
  1  7  1  0
  1  8  2  0
  2  3  2  0
  2  4  1  0
  3  6  1  0
  3  9  1  0
  4 10  1  0
  5 11  2  0
  5 12  1  0
  6 10  2  0
  9 13  2  0
  9 14  1  0
 11 13  1  0
 12 14  2  0
M  CHG  2   1   1   7  -1
M  END
>  <DRUGBANK_ID>  (1) 
DB08695

>  <COMMON_NAME>  (1) 
3-(4-nitrophenyl)-1H-pyrazole

>  <UNII>  (1) 
K0B6P40GV5

$$$$
