ST2
     RDKit          2D

 15 15  0  0  0  0  0  0  0  0999 V2000
    1.9498    0.8089    0.0000 C   0  0  0  0  0  0  0  0  0  0  0  0
    1.9498    1.6339    0.0000 O   0  0  0  0  0  0  0  0  0  0  0  0
    2.6643    0.3964    0.0000 O   0  0  0  0  0  0  0  0  0  0  0  0
    1.2354    0.3964    0.0000 C   0  0  0  0  0  0  0  0  0  0  0  0
    1.2354   -0.4286    0.0000 C   0  0  0  0  0  0  0  0  0  0  0  0
    0.5209   -0.8411    0.0000 C   0  0  0  0  0  0  0  0  0  0  0  0
    0.5209   -1.6661    0.0000 N   0  0  0  0  0  0  0  0  0  0  0  0
   -0.1936   -0.4285    0.0000 C   0  0  0  0  0  0  0  0  0  0  0  0
   -0.9081   -0.8410    0.0000 N   0  0  0  0  0  0  0  0  0  0  0  0
   -1.6225   -0.4285    0.0000 C   0  0  0  0  0  0  0  0  0  0  0  0
   -2.3370   -0.8410    0.0000 O   0  0  0  0  0  0  0  0  0  0  0  0
   -1.6225    0.3965    0.0000 C   0  0  0  0  0  0  0  0  0  0  0  0
   -0.1936    0.3965    0.0000 C   0  0  0  0  0  0  0  0  0  0  0  0
   -0.9081    0.8090    0.0000 O   0  0  0  0  0  0  0  0  0  0  0  0
    0.5209    0.8090    0.0000 C   0  0  0  0  0  0  0  0  0  0  0  0
  1  2  2  0
  1  3  1  0
  1  4  1  0
  4  5  2  0
  4 15  1  0
  5  6  1  0
  6  7  1  0
  6  8  2  0
  8  9  1  0
  8 13  1  0
  9 10  1  0
 10 11  2  0
 10 12  1  0
 13 14  1  0
 13 15  2  0
M  END
>  <DRUGBANK_ID>  (1) 
DB08571

>  <COMMON_NAME>  (1) 
4-(ACETYLAMINO)-5-AMINO-3-HYDROXYBENZOIC ACID

$$$$
