6OB
     RDKit          2D

 22 21  0  0  0  0  0  0  0  0999 V2000
   -0.3713   -0.5223    0.0000 C   0  0  0  0  0  0  0  0  0  0  0  0
   -5.3726   -1.7598    0.0000 C   0  0  0  0  0  0  0  0  0  0  0  0
   -4.6581   -2.1723    0.0000 C   0  0  0  0  0  0  0  0  0  0  0  0
   -3.9437   -1.7598    0.0000 C   0  0  0  0  0  0  0  0  0  0  0  0
   -3.2292   -2.1723    0.0000 C   0  0  0  0  0  0  0  0  0  0  0  0
   -2.5147   -1.7598    0.0000 C   0  0  0  0  0  0  0  0  0  0  0  0
   -1.8002   -2.1723    0.0000 C   0  0  0  0  0  0  0  0  0  0  0  0
   -1.0858   -1.7598    0.0000 C   0  0  0  0  0  0  0  0  0  0  0  0
   -1.0858   -0.9348    0.0000 C   0  0  0  0  0  0  0  0  0  0  0  0
   -0.3713    0.3027    0.0000 C   0  0  0  0  0  0  0  0  0  0  0  0
    0.3432    0.7152    0.0000 C   0  0  0  0  0  0  0  0  0  0  0  0
    0.3432    1.5402    0.0000 C   0  0  0  0  0  0  0  0  0  0  0  0
    1.0576    1.9527    0.0000 C   0  0  0  0  0  0  0  0  0  0  0  0
    1.0576    2.7777    0.0000 O   0  0  0  0  0  0  0  0  0  0  0  0
    1.7721    1.5402    0.0000 C   0  0  0  0  0  0  0  0  0  0  0  0
    2.4866    1.9527    0.0000 C   0  0  0  0  0  0  0  0  0  0  0  0
    3.2011    1.5402    0.0000 C   0  0  0  0  0  0  0  0  0  0  0  0
    3.9155    1.9527    0.0000 C   0  0  0  0  0  0  0  0  0  0  0  0
    4.6300    1.5402    0.0000 C   0  0  0  0  0  0  0  0  0  0  0  0
    5.3445    1.9527    0.0000 O   0  0  0  0  0  0  0  0  0  0  0  0
    4.6300    0.7152    0.0000 O   0  0  0  0  0  0  0  0  0  0  0  0
    0.3432   -0.9348    0.0000 O   0  0  0  0  0  0  0  0  0  0  0  0
  1  9  1  0
  1 10  1  0
  1 22  1  1
  2  3  1  0
  3  4  1  0
  4  5  1  0
  5  6  1  0
  6  7  1  0
  7  8  2  0
  8  9  1  0
 10 11  2  0
 11 12  1  0
 12 13  1  0
 13 14  2  0
 13 15  1  0
 15 16  1  0
 16 17  1  0
 17 18  1  0
 18 19  1  0
 19 20  2  0
 19 21  1  0
M  END
>  <DRUGBANK_ID>  (1) 
DB07208

>  <COMMON_NAME>  (1) 
(8E,10S,12Z)-10-hydroxy-6-oxooctadeca-8,12-dienoic acid

$$$$
