B3H
     RDKit          2D

 21 20  0  0  0  0  0  0  0  0999 V2000
    0.4437    0.9708    0.0000 O   0  0  0  0  0  0  0  0  0  0  0  0
    0.4437    0.1457    0.0000 C   0  0  0  0  0  0  0  0  0  0  0  0
   -0.2707   -0.2668    0.0000 C   0  0  0  0  0  0  0  0  0  0  0  0
   -0.9853    0.1457    0.0000 C   0  0  0  0  0  0  0  0  0  0  0  0
   -1.6998   -0.2668    0.0000 C   0  0  0  0  0  0  0  0  0  0  0  0
   -2.4143    0.1457    0.0000 C   0  0  0  0  0  0  0  0  0  0  0  0
   -3.1288   -0.2668    0.0000 C   0  0  0  0  0  0  0  0  0  0  0  0
   -3.8434    0.1457    0.0000 C   0  0  0  0  0  0  0  0  0  0  0  0
   -4.5579   -0.2668    0.0000 C   0  0  0  0  0  0  0  0  0  0  0  0
   -5.2724    0.1457    0.0000 C   0  0  0  0  0  0  0  0  0  0  0  0
    4.0164   -1.0919    0.0000 O   0  0  0  0  0  0  0  0  0  0  0  0
    4.0164   -0.2668    0.0000 C   0  0  0  0  0  0  0  0  0  0  0  0
    4.7310    0.1457    0.0000 C   0  0  0  0  0  0  0  0  0  0  0  0
    5.4454   -0.2668    0.0000 C   0  0  0  0  0  0  0  0  0  0  0  0
    6.1600    0.1457    0.0000 C   0  0  0  0  0  0  0  0  0  0  0  0
    1.8728    0.1457    0.0000 C   0  0  0  0  0  0  0  0  0  0  0  0
    1.1583   -0.2668    0.0000 O   0  0  0  0  0  0  0  0  0  0  0  0
    2.5874   -0.2668    0.0000 C   0  0  0  0  0  0  0  0  0  0  0  0
    3.3018    0.1457    0.0000 O   0  0  0  0  0  0  0  0  0  0  0  0
    2.5874   -1.0919    0.0000 C   0  0  0  0  0  0  0  0  0  0  0  0
    3.3018   -1.5044    0.0000 O   0  0  0  0  0  0  0  0  0  0  0  0
  1  2  2  0
  2  3  1  0
  2 17  1  0
  3  4  1  0
  4  5  1  0
  5  6  1  0
  6  7  1  0
  7  8  1  0
  8  9  1  0
  9 10  1  0
 11 12  2  0
 12 13  1  0
 12 19  1  0
 13 14  1  0
 14 15  1  0
 16 17  1  0
 18 16  1  1
 18 19  1  0
 18 20  1  0
 20 21  1  0
M  END
>  <DRUGBANK_ID>  (1) 
DB07416

>  <COMMON_NAME>  (1) 
(2S)-2-(BUTYRYLOXY)-3-HYDROXYPROPYL NONANOATE

$$$$
