
     RDKit          2D

 22 20  0  0  1  0  0  0  0  0999 V2000
    1.1653    0.6077    0.0000 C   0  0  0  0  0  0  0  0  0  0  0  0
    1.1653   -0.2173    0.0000 C   0  0  0  0  0  0  0  0  0  0  0  0
    0.4508   -0.6298    0.0000 C   0  0  0  0  0  0  0  0  0  0  0  0
   -0.2637   -0.2173    0.0000 C   0  0  0  0  0  0  0  0  0  0  0  0
   -0.2637    0.6077    0.0000 C   0  0  0  0  0  0  0  0  0  0  0  0
    0.4508    1.0202    0.0000 C   0  0  0  0  0  0  0  0  0  0  0  0
    0.4508    1.8452    0.0000 C   0  0  0  0  0  0  0  0  0  0  0  0
   -0.2637    2.2577    0.0000 C   0  0  0  0  0  0  0  0  0  0  0  0
   -0.2637    3.0827    0.0000 C   0  0  0  0  0  0  0  0  0  0  0  0
   -0.9782    3.4952    0.0000 O   0  0  0  0  0  0  0  0  0  0  0  0
    0.4508    3.4952    0.0000 O   0  0  0  0  0  0  0  0  0  0  0  0
   -0.9782    1.8452    0.0000 N   0  0  0  0  0  0  0  0  0  0  0  0
    0.4508   -1.4548    0.0000 N   0  0  0  0  0  0  0  0  0  0  0  0
    0.4508   -2.2798    0.0000 C   0  0  0  0  0  0  0  0  0  0  0  0
   -0.2637   -2.6923    0.0000 C   0  0  0  0  0  0  0  0  0  0  0  0
   -0.2637   -3.5173    0.0000 Cl  0  0  0  0  0  0  0  0  0  0  0  0
   -0.3742   -1.4548    0.0000 C   0  0  0  0  0  0  0  0  0  0  0  0
   -0.7867   -2.1693    0.0000 C   0  0  0  0  0  0  0  0  0  0  0  0
   -1.6117   -2.1693    0.0000 Cl  0  0  0  0  0  0  0  0  0  0  0  0
    1.2758   -1.4548    0.0000 O   0  0  0  0  0  0  0  0  0  0  0  0
    3.2794    0.0000    0.0000 Cl  0  0  0  0  0  0  0  0  0  0  0  0
    0.0000   -5.1673    0.0000 Cl  0  0  0  0  0  0  0  0  0  0  0  0
  1  2  2  0
  1  6  1  0
  2  3  1  0
  3  4  2  0
  3 13  1  0
  4  5  1  0
  5  6  2  0
  6  7  1  0
  7  8  1  0
  8  9  1  0
  8 12  1  6
  9 10  2  0
  9 11  1  0
 13 14  1  0
 13 17  1  0
 13 20  1  0
 14 15  1  0
 15 16  1  0
 17 18  1  0
 18 19  1  0
M  CHG  2  13   1  20  -1
M  END
>  <DRUGBANK_ID>  (1) 
DB06082

>  <COMMON_NAME>  (1) 
PX-478

>  <CAS_NUMBER>  (1) 
685898-44-6

>  <UNII>  (1) 
T23U22X160

$$$$
