DZE
     RDKit          2D

 17 16  0  0  0  0  0  0  0  0999 V2000
   -2.8768    0.1896    0.0000 C   0  0  0  0  0  0  0  0  0  0  0  0
   -2.1624   -0.2229    0.0000 C   0  0  0  0  0  0  0  0  0  0  0  0
   -2.5749   -0.9374    0.0000 C   0  0  0  0  0  0  0  0  0  0  0  0
   -1.7499    0.4916    0.0000 C   0  0  0  0  0  0  0  0  0  0  0  0
   -1.4479   -0.6354    0.0000 O   0  0  0  0  0  0  0  0  0  0  0  0
   -0.7334   -0.2229    0.0000 C   0  0  0  0  0  0  0  0  0  0  0  0
   -0.7334    0.6021    0.0000 O   0  0  0  0  0  0  0  0  0  0  0  0
   -0.0190   -0.6354    0.0000 N   0  0  0  0  0  0  0  0  0  0  0  0
    0.6955   -0.2229    0.0000 C   0  0  0  0  0  0  0  0  0  0  0  0
    0.6955    0.6021    0.0000 C   0  0  0  0  0  0  0  0  0  0  0  0
   -0.0190    1.0146    0.0000 C   0  0  0  0  0  0  0  0  0  0  0  0
    1.4100    1.0146    0.0000 O   0  0  0  0  0  0  0  0  0  0  0  0
    1.4100   -0.6354    0.0000 C   0  0  0  0  0  0  0  0  0  0  0  0
    2.1245   -0.2229    0.0000 C   0  0  0  0  0  0  0  0  0  0  0  0
    2.8389   -0.6354    0.0000 O   0  0  0  0  0  0  0  0  0  0  0  0
    3.5534   -0.2229    0.0000 C   0  0  0  0  0  0  0  0  0  0  0  0
    2.1245    0.6021    0.0000 O   0  0  0  0  0  0  0  0  0  0  0  0
  1  2  1  0
  2  3  1  0
  2  5  1  0
  4  2  1  0
  5  6  1  0
  6  8  1  0
  7  6  2  0
  9  8  1  0
  9 13  1  6
  9 10  1  0
 10 12  2  0
 11 10  1  0
 14 13  1  0
 14 15  1  0
 15 16  1  0
 17 14  2  0
M  END
>  <DRUGBANK_ID>  (1) 
DB07696

>  <COMMON_NAME>  (1) 
methyl (3S)-3-[(tert-butoxycarbonyl)amino]-4-oxopentanoate

$$$$
