CMF
     RDKit          2D

 33 37  0  0  0  0  0  0  0  0999 V2000
   -0.8413    2.6316    0.0000 C   0  0  0  0  0  0  0  0  0  0  0  0
   -1.0962    3.4163    0.0000 C   0  0  0  0  0  0  0  0  0  0  0  0
   -0.5442    4.0294    0.0000 O   0  0  0  0  0  0  0  0  0  0  0  0
    0.2628    3.8578    0.0000 C   0  0  0  0  0  0  0  0  0  0  0  0
    0.5177    3.0732    0.0000 C   0  0  0  0  0  0  0  0  0  0  0  0
   -0.0343    2.4601    0.0000 N   0  0  0  0  0  0  0  0  0  0  0  0
    0.2206    1.6755    0.0000 C   0  0  0  0  0  0  0  0  0  0  0  0
    1.0276    1.5040    0.0000 O   0  0  0  0  0  0  0  0  0  0  0  0
   -0.3314    1.0624    0.0000 C   0  0  0  0  0  0  0  0  0  0  0  0
   -0.0765    0.2778    0.0000 N   0  0  0  0  0  0  0  0  0  0  0  0
    0.7081    0.0228    0.0000 C   0  0  0  0  0  0  0  0  0  0  0  0
    1.4226    0.4353    0.0000 C   0  0  0  0  0  0  0  0  0  0  0  0
    2.1371    0.0228    0.0000 C   0  0  0  0  0  0  0  0  0  0  0  0
    2.8516    0.4353    0.0000 C   0  0  0  0  0  0  0  0  0  0  0  0
    3.5660    0.0228    0.0000 O   0  0  0  0  0  0  0  0  0  0  0  0
    2.8516    1.2603    0.0000 O   0  0  0  0  0  0  0  0  0  0  0  0
    2.1371   -0.8022    0.0000 C   0  0  0  0  0  0  0  0  0  0  0  0
    1.4226   -1.2147    0.0000 C   0  0  0  0  0  0  0  0  0  0  0  0
    0.7081   -0.8022    0.0000 C   0  0  0  0  0  0  0  0  0  0  0  0
   -0.0765   -1.0571    0.0000 C   0  0  0  0  0  0  0  0  0  0  0  0
   -0.3314   -1.8417    0.0000 C   0  0  0  0  0  0  0  0  0  0  0  0
    0.2206   -2.4548    0.0000 C   0  0  0  0  0  0  0  0  0  0  0  0
   -0.0343   -3.2394    0.0000 C   0  0  0  0  0  0  0  0  0  0  0  0
   -0.8413   -3.4110    0.0000 C   0  0  0  0  0  0  0  0  0  0  0  0
   -1.3933   -2.7979    0.0000 C   0  0  0  0  0  0  0  0  0  0  0  0
   -1.1384   -2.0132    0.0000 C   0  0  0  0  0  0  0  0  0  0  0  0
   -0.5614   -0.3897    0.0000 C   0  0  0  0  0  0  0  0  0  0  0  0
   -1.3864   -0.3897    0.0000 C   0  0  0  0  0  0  0  0  0  0  0  0
   -1.7989   -1.1041    0.0000 C   0  0  0  0  0  0  0  0  0  0  0  0
   -2.6239   -1.1041    0.0000 C   0  0  0  0  0  0  0  0  0  0  0  0
   -3.0364   -0.3897    0.0000 C   0  0  0  0  0  0  0  0  0  0  0  0
   -2.6239    0.3248    0.0000 C   0  0  0  0  0  0  0  0  0  0  0  0
   -1.7989    0.3248    0.0000 C   0  0  0  0  0  0  0  0  0  0  0  0
  1  2  1  0
  1  6  1  0
  2  3  1  0
  3  4  1  0
  4  5  1  0
  5  6  1  0
  6  7  1  0
  7  8  2  0
  7  9  1  0
  9 10  1  0
 10 11  1  0
 10 27  1  0
 11 12  2  0
 11 19  1  0
 12 13  1  0
 13 14  1  0
 13 17  2  0
 14 15  2  0
 14 16  1  0
 17 18  1  0
 18 19  2  0
 19 20  1  0
 20 21  1  0
 20 27  2  0
 21 22  1  0
 21 26  1  0
 22 23  1  0
 23 24  1  0
 24 25  1  0
 25 26  1  0
 27 28  1  0
 28 29  2  0
 28 33  1  0
 29 30  1  0
 30 31  2  0
 31 32  1  0
 32 33  2  0
M  END
>  <DRUGBANK_ID>  (1) 
DB07570

>  <COMMON_NAME>  (1) 
3-CYCLOHEXYL-1-(2-MORPHOLIN-4-YL-2-OXOETHYL)-2-PHENYL-1H-INDOLE-6-CARBOXYLIC ACID

$$$$
