Guanosine.mol
     RDKit          2D

 20 22  0  0  0  0  0  0  0  0999 V2000
    2.8542    1.2513    0.0000 O   0  0  0  0  0  0  0  0  0  0  0  0
    2.0292    1.2513    0.0000 C   0  0  0  0  0  0  0  0  0  0  0  0
    1.6167    0.5368    0.0000 C   0  0  0  0  0  0  0  0  0  0  0  0
    1.9523   -0.2169    0.0000 C   0  0  0  0  0  0  0  0  0  0  0  0
    2.7593   -0.3884    0.0000 O   0  0  0  0  0  0  0  0  0  0  0  0
    1.3392   -0.7689    0.0000 C   0  0  0  0  0  0  0  0  0  0  0  0
    1.4254   -1.5894    0.0000 O   0  0  0  0  0  0  0  0  0  0  0  0
    0.6247   -0.3564    0.0000 C   0  0  0  0  0  0  0  0  0  0  0  0
    0.7963    0.4506    0.0000 O   0  0  0  0  0  0  0  0  0  0  0  0
   -0.1290   -0.6920    0.0000 N   0  0  0  0  0  0  0  0  0  0  0  0
   -0.3005   -1.4990    0.0000 C   0  0  0  0  0  0  0  0  0  0  0  0
   -1.1210   -1.5852    0.0000 N   0  0  0  0  0  0  0  0  0  0  0  0
   -1.4565   -0.8315    0.0000 C   0  0  0  0  0  0  0  0  0  0  0  0
   -2.2411   -0.5766    0.0000 C   0  0  0  0  0  0  0  0  0  0  0  0
   -2.8542   -1.1286    0.0000 O   0  0  0  0  0  0  0  0  0  0  0  0
   -2.4127    0.2304    0.0000 N   0  0  0  0  0  0  0  0  0  0  0  0
   -1.7996    0.7824    0.0000 C   0  0  0  0  0  0  0  0  0  0  0  0
   -1.9711    1.5894    0.0000 N   0  0  0  0  0  0  0  0  0  0  0  0
   -1.0149    0.5275    0.0000 N   0  0  0  0  0  0  0  0  0  0  0  0
   -0.8434   -0.2795    0.0000 C   0  0  0  0  0  0  0  0  0  0  0  0
  1  2  1  0
  3  2  1  6
  3  4  1  0
  3  9  1  0
  4  5  1  1
  4  6  1  0
  6  7  1  1
  6  8  1  0
  8  9  1  0
  8 10  1  6
 10 11  1  0
 10 20  1  0
 11 12  2  0
 12 13  1  0
 13 14  1  0
 13 20  2  0
 14 15  2  0
 14 16  1  0
 16 17  1  0
 17 18  1  0
 17 19  2  0
 19 20  1  0
M  END
>  <DRUGBANK_ID>  (1) 
DB02857

>  <SECONDARY_ACCESSION_NUMBERS>  (1) 
EXPT01622

>  <COMMON_NAME>  (1) 
Guanosine

>  <CAS_NUMBER>  (1) 
118-00-3

>  <UNII>  (1) 
12133JR80S

>  <SYNONYMS>  (1) 
2-amino-1,9-dihydro-9-β-D-ribofuranosyl-6H-purin-6-one; 2(3H)-imino-9-β-D-ribofuranosyl-9H-purin-6(1H)-one; 9-β-D-ribofuranosyl-guanine; Guanine riboside; Guanine-9-β-D-ribofuranoside; Guanosin; Guanosina; Guo

$$$$
