
     RDKit          2D

 40 43  0  0  0  0  0  0  0  0999 V2000
    2.9646    6.5384    0.0000 F   0  0  0  0  0  0  0  0  0  0  0  0
    2.2501    6.1259    0.0000 C   0  0  0  0  0  0  0  0  0  0  0  0
    1.8376    6.8404    0.0000 F   0  0  0  0  0  0  0  0  0  0  0  0
    2.6626    5.4114    0.0000 F   0  0  0  0  0  0  0  0  0  0  0  0
    1.5356    5.7134    0.0000 O   0  0  0  0  0  0  0  0  0  0  0  0
    0.8212    6.1259    0.0000 C   0  0  0  0  0  0  0  0  0  0  0  0
    0.1067    5.7134    0.0000 C   0  0  0  0  0  0  0  0  0  0  0  0
   -0.6078    6.1259    0.0000 C   0  0  0  0  0  0  0  0  0  0  0  0
   -1.3222    5.7134    0.0000 C   0  0  0  0  0  0  0  0  0  0  0  0
   -1.3222    4.8884    0.0000 C   0  0  0  0  0  0  0  0  0  0  0  0
   -2.0367    4.4759    0.0000 O   0  0  0  0  0  0  0  0  0  0  0  0
   -0.6078    4.4759    0.0000 N   0  0  0  0  0  0  0  0  0  0  0  0
   -0.6078    3.6509    0.0000 C   0  0  0  0  0  0  0  0  0  0  0  0
    0.1067    3.2384    0.0000 N   0  0  0  0  0  0  0  0  0  0  0  0
    0.1067    2.4134    0.0000 N   0  0  0  0  0  0  0  0  0  0  0  0
   -0.6078    2.0009    0.0000 C   0  0  0  0  0  0  0  0  0  0  0  0
   -0.6078    1.1759    0.0000 C   0  0  0  0  0  0  0  0  0  0  0  0
   -1.3222    0.7634    0.0000 C   0  0  0  0  0  0  0  0  0  0  0  0
   -1.3222   -0.0616    0.0000 C   0  0  0  0  0  0  0  0  0  0  0  0
   -2.0367   -0.4741    0.0000 C   0  0  0  0  0  0  0  0  0  0  0  0
   -2.0367   -1.2991    0.0000 C   0  0  0  0  0  0  0  0  0  0  0  0
   -1.3693   -1.7840    0.0000 N   0  0  0  0  0  0  0  0  0  0  0  0
   -1.6242   -2.5687    0.0000 N   0  0  0  0  0  0  0  0  0  0  0  0
   -2.4492   -2.5687    0.0000 C   0  0  0  0  0  0  0  0  0  0  0  0
   -2.9341   -3.2361    0.0000 N   0  0  0  0  0  0  0  0  0  0  0  0
   -3.7546   -3.1499    0.0000 C   0  0  0  0  0  0  0  0  0  0  0  0
   -4.0902   -2.3962    0.0000 O   0  0  0  0  0  0  0  0  0  0  0  0
   -4.2395   -3.8173    0.0000 C   0  0  0  0  0  0  0  0  0  0  0  0
   -3.9040   -4.5710    0.0000 C   0  0  0  0  0  0  0  0  0  0  0  0
   -3.0835   -4.6572    0.0000 N   0  0  0  0  0  0  0  0  0  0  0  0
   -2.7479   -5.4109    0.0000 C   0  0  0  0  0  0  0  0  0  0  0  0
   -3.2329   -6.0783    0.0000 C   0  0  0  0  0  0  0  0  0  0  0  0
   -4.0533   -5.9921    0.0000 C   0  0  0  0  0  0  0  0  0  0  0  0
   -4.3889   -5.2384    0.0000 C   0  0  0  0  0  0  0  0  0  0  0  0
   -2.7041   -1.7840    0.0000 S   0  0  0  0  0  0  0  0  0  0  0  0
   -1.3222    2.4134    0.0000 C   0  0  0  0  0  0  0  0  0  0  0  0
   -1.3222    3.2384    0.0000 C   0  0  0  0  0  0  0  0  0  0  0  0
   -0.6078    6.9509    0.0000 C   0  0  0  0  0  0  0  0  0  0  0  0
    0.1067    7.3634    0.0000 C   0  0  0  0  0  0  0  0  0  0  0  0
    0.8212    6.9509    0.0000 C   0  0  0  0  0  0  0  0  0  0  0  0
  1  2  1  0
  2  3  1  0
  2  4  1  0
  2  5  1  0
  5  6  1  0
  6  7  2  0
  6 40  1  0
  7  8  1  0
  8  9  1  0
  8 38  2  0
  9 10  1  0
 10 11  2  0
 10 12  1  0
 12 13  1  0
 13 14  2  0
 13 37  1  0
 14 15  1  0
 15 16  2  0
 16 17  1  0
 16 36  1  0
 17 18  1  0
 18 19  1  0
 19 20  1  0
 20 21  1  0
 21 22  2  0
 21 35  1  0
 22 23  1  0
 23 24  2  0
 24 25  1  0
 24 35  1  0
 25 26  1  0
 26 27  2  0
 26 28  1  0
 28 29  1  0
 29 30  2  0
 29 34  1  0
 30 31  1  0
 31 32  2  0
 32 33  1  0
 33 34  2  0
 36 37  2  0
 38 39  1  0
 39 40  2  0
M  END
>  <DRUGBANK_ID>  (1) 
DB15232

>  <COMMON_NAME>  (1) 
Telaglenastat

>  <CAS_NUMBER>  (1) 
1439399-58-2

>  <UNII>  (1) 
U6CL98GLP4

>  <SYNONYMS>  (1) 
Telaglenastat

$$$$
