DT1
     RDKit          2D

 28 31  0  0  0  0  0  0  0  0999 V2000
   -4.6049   -3.6865    0.0000 O   0  0  0  0  0  0  0  0  0  0  0  0
   -3.8904   -3.2740    0.0000 S   0  0  0  0  0  0  0  0  0  0  0  0
   -3.4779   -3.9884    0.0000 O   0  0  0  0  0  0  0  0  0  0  0  0
   -4.3029   -2.5595    0.0000 N   0  0  0  0  0  0  0  0  0  0  0  0
   -3.1759   -2.8615    0.0000 C   0  0  0  0  0  0  0  0  0  0  0  0
   -3.1759   -2.0365    0.0000 C   0  0  0  0  0  0  0  0  0  0  0  0
   -2.4615   -3.2740    0.0000 C   0  0  0  0  0  0  0  0  0  0  0  0
   -1.7470   -2.8615    0.0000 C   0  0  0  0  0  0  0  0  0  0  0  0
   -2.4615   -1.6240    0.0000 C   0  0  0  0  0  0  0  0  0  0  0  0
   -1.7470   -2.0365    0.0000 C   0  0  0  0  0  0  0  0  0  0  0  0
   -1.0325   -1.6240    0.0000 N   0  0  0  0  0  0  0  0  0  0  0  0
   -1.0325   -0.7990    0.0000 C   0  0  0  0  0  0  0  0  0  0  0  0
   -1.7470   -0.3865    0.0000 N   0  0  0  0  0  0  0  0  0  0  0  0
   -1.7470    0.4385    0.0000 C   0  0  0  0  0  0  0  0  0  0  0  0
   -1.0325    0.8510    0.0000 N   0  0  0  0  0  0  0  0  0  0  0  0
   -2.5316    0.6935    0.0000 N   0  0  0  0  0  0  0  0  0  0  0  0
   -3.0165    0.0260    0.0000 C   0  0  0  0  0  0  0  0  0  0  0  0
   -2.5316   -0.6414    0.0000 N   0  0  0  0  0  0  0  0  0  0  0  0
   -0.3181   -0.3865    0.0000 C   0  0  0  0  0  0  0  0  0  0  0  0
   -0.3181    0.4385    0.0000 C   0  0  0  0  0  0  0  0  0  0  0  0
    0.3964    1.6760    0.0000 C   0  0  0  0  0  0  0  0  0  0  0  0
    0.3964    0.8510    0.0000 O   0  0  0  0  0  0  0  0  0  0  0  0
    1.1109    2.0885    0.0000 C   0  0  0  0  0  0  0  0  0  0  0  0
    1.1109    2.9135    0.0000 C   0  0  0  0  0  0  0  0  0  0  0  0
    1.8254    3.3260    0.0000 C   0  0  0  0  0  0  0  0  0  0  0  0
    2.5398    2.9135    0.0000 C   0  0  0  0  0  0  0  0  0  0  0  0
    2.5398    2.0885    0.0000 C   0  0  0  0  0  0  0  0  0  0  0  0
    1.8254    1.6760    0.0000 C   0  0  0  0  0  0  0  0  0  0  0  0
  1  2  2  0
  2  3  2  0
  2  4  1  0
  2  5  1  0
  5  6  2  0
  5  7  1  0
  6  9  1  0
  7  8  2  0
  8 10  1  0
  9 10  2  0
 10 11  1  0
 11 12  1  0
 12 13  1  0
 12 19  2  0
 13 14  1  0
 13 18  1  0
 14 15  1  0
 14 16  2  0
 15 20  2  0
 16 17  1  0
 17 18  2  0
 19 20  1  0
 20 22  1  0
 21 22  1  0
 21 23  1  0
 23 24  1  0
 23 28  1  0
 24 25  1  0
 25 26  1  0
 26 27  1  0
 27 28  1  0
M  END
>  <DRUGBANK_ID>  (1) 
DB07685

>  <COMMON_NAME>  (1) 
4-{[5-(CYCLOHEXYLMETHOXY)[1,2,4]TRIAZOLO[1,5-A]PYRIMIDIN-7-YL]AMINO}BENZENESULFONAMIDE

$$$$
