
     RDKit          2D

 18 19  0  0  1  0  0  0  0  0999 V2000
    1.3222   -0.0616    0.0000 C   0  0  0  0  0  0  0  0  0  0  0  0
    2.0367   -0.4741    0.0000 C   0  0  0  0  0  0  0  0  0  0  0  0
    2.7512   -0.0616    0.0000 C   0  0  0  0  0  0  0  0  0  0  0  0
    2.7512    0.7634    0.0000 C   0  0  0  0  0  0  0  0  0  0  0  0
    3.4656    1.1759    0.0000 C   0  0  0  0  0  0  0  0  0  0  0  0
    4.1801    0.7634    0.0000 C   0  0  0  0  0  0  0  0  0  0  0  0
    4.1801   -0.0616    0.0000 C   0  0  0  0  0  0  0  0  0  0  0  0
    3.4656   -0.4741    0.0000 C   0  0  0  0  0  0  0  0  0  0  0  0
    4.8946    1.1759    0.0000 I   0  0  0  0  0  0  0  0  0  0  0  0
    2.0367   -1.2991    0.0000 N   0  0  0  0  0  0  0  0  0  0  0  0
    2.7041   -1.7840    0.0000 C   0  0  0  0  0  0  0  0  0  0  0  0
    2.4492   -2.5687    0.0000 N   0  0  0  0  0  0  0  0  0  0  0  0
    1.6242   -2.5687    0.0000 C   0  0  0  0  0  0  0  0  0  0  0  0
    1.3693   -1.7840    0.0000 C   0  0  0  0  0  0  0  0  0  0  0  0
    0.5846   -1.5291    0.0000 C   0  0  0  0  0  0  0  0  0  0  0  0
   -0.0284   -2.0811    0.0000 O   0  0  0  0  0  0  0  0  0  0  0  0
    0.4131   -0.7221    0.0000 O   0  0  0  0  0  0  0  0  0  0  0  0
   -0.3715   -0.4672    0.0000 C   0  0  0  0  0  0  0  0  0  0  0  0
  2  1  1  6
  2  3  1  0
  2 10  1  0
  3  4  2  0
  3  8  1  0
  4  5  1  0
  5  6  2  0
  6  7  1  0
  6  9  1  0
  7  8  2  0
 10 11  1  0
 10 14  1  0
 11 12  2  0
 12 13  1  0
 13 14  2  0
 14 15  1  0
 15 16  2  0
 15 17  1  0
 17 18  1  0
M  END
>  <DRUGBANK_ID>  (1) 
DB13021

>  <COMMON_NAME>  (1) 
123I-iodometomidate

>  <CAS_NUMBER>  (1) 
813466-05-6

>  <UNII>  (1) 
U21CVV13SV

>  <SYNONYMS>  (1) 
123 I Iodometomidate

$$$$
