6IN
     RDKit          2D

 28 30  0  0  0  0  0  0  0  0999 V2000
    0.8492   -1.3827    0.0000 C   0  0  0  0  0  0  0  0  0  0  0  0
    0.1347   -1.7952    0.0000 C   0  0  0  0  0  0  0  0  0  0  0  0
   -0.5798   -1.3827    0.0000 C   0  0  0  0  0  0  0  0  0  0  0  0
   -0.5798   -0.5577    0.0000 C   0  0  0  0  0  0  0  0  0  0  0  0
    0.1347   -0.1452    0.0000 C   0  0  0  0  0  0  0  0  0  0  0  0
    0.8492   -0.5577    0.0000 C   0  0  0  0  0  0  0  0  0  0  0  0
   -1.1929   -0.0056    0.0000 N   0  0  0  0  0  0  0  0  0  0  0  0
   -0.8573    0.7481    0.0000 C   0  0  0  0  0  0  0  0  0  0  0  0
   -0.0368    0.6618    0.0000 C   0  0  0  0  0  0  0  0  0  0  0  0
   -1.9998   -0.1772    0.0000 C   0  0  0  0  0  0  0  0  0  0  0  0
   -2.5519    0.4359    0.0000 C   0  0  0  0  0  0  0  0  0  0  0  0
   -3.3588    0.2644    0.0000 C   0  0  0  0  0  0  0  0  0  0  0  0
   -3.9109    0.8775    0.0000 C   0  0  0  0  0  0  0  0  0  0  0  0
   -3.6559    1.6621    0.0000 C   0  0  0  0  0  0  0  0  0  0  0  0
   -2.8490    1.8337    0.0000 C   0  0  0  0  0  0  0  0  0  0  0  0
   -2.2969    1.2206    0.0000 C   0  0  0  0  0  0  0  0  0  0  0  0
   -1.2698    1.4625    0.0000 C   0  0  0  0  0  0  0  0  0  0  0  0
    0.5152    1.2749    0.0000 C   0  0  0  0  0  0  0  0  0  0  0  0
    0.2603    2.0595    0.0000 C   0  0  0  0  0  0  0  0  0  0  0  0
   -0.5467    2.2311    0.0000 N   0  0  0  0  0  0  0  0  0  0  0  0
    0.8123    2.6726    0.0000 O   0  0  0  0  0  0  0  0  0  0  0  0
    1.5637   -1.7952    0.0000 O   0  0  0  0  0  0  0  0  0  0  0  0
    2.2781   -1.3827    0.0000 C   0  0  0  0  0  0  0  0  0  0  0  0
    2.9926   -1.7952    0.0000 C   0  0  0  0  0  0  0  0  0  0  0  0
    3.7071   -1.3827    0.0000 C   0  0  0  0  0  0  0  0  0  0  0  0
    4.4215   -1.7952    0.0000 C   0  0  0  0  0  0  0  0  0  0  0  0
    5.1360   -1.3827    0.0000 O   0  0  0  0  0  0  0  0  0  0  0  0
    4.4215   -2.6202    0.0000 O   0  0  0  0  0  0  0  0  0  0  0  0
  1  2  2  0
  1  6  1  0
  1 22  1  0
  2  3  1  0
  3  4  2  0
  4  5  1  0
  4  7  1  0
  5  6  2  0
  5  9  1  0
  7  8  1  0
  7 10  1  0
  8  9  2  0
  8 17  1  0
  9 18  1  0
 10 11  1  0
 11 12  2  0
 11 16  1  0
 12 13  1  0
 13 14  2  0
 14 15  1  0
 15 16  2  0
 18 19  1  0
 19 20  1  0
 19 21  2  0
 22 23  1  0
 23 24  1  0
 24 25  1  0
 25 26  1  0
 26 27  1  0
 26 28  2  0
M  END
>  <DRUGBANK_ID>  (1) 
DB02936

>  <SECONDARY_ACCESSION_NUMBERS>  (1) 
EXPT00286

>  <COMMON_NAME>  (1) 
4-(1-Benzyl-3-Carbamoylmethyl-2-Methyl-1h-Indol-5-Yloxy)-Butyric Acid

$$$$
