
     RDKit          2D

 34 37  0  0  0  0  0  0  0  0999 V2000
   -3.1601   -0.8877    0.0000 N   0  0  0  0  0  0  0  0  0  0  0  0
    1.1266   -0.8877    0.0000 N   0  0  0  0  0  0  0  0  0  0  0  0
   -2.4457   -1.3001    0.0000 C   0  0  0  0  0  0  0  0  0  0  0  0
    0.4121   -1.3001    0.0000 C   0  0  0  0  0  0  0  0  0  0  0  0
   -3.8746   -1.3001    0.0000 C   0  0  0  0  0  0  0  0  0  0  0  0
   -1.7312   -0.8877    0.0000 N   0  0  0  0  0  0  0  0  0  0  0  0
    1.8411   -1.3001    0.0000 C   0  0  0  0  0  0  0  0  0  0  0  0
   -3.1601   -2.5376    0.0000 O   0  0  0  0  0  0  0  0  0  0  0  0
   -3.8746   -2.1252    0.0000 C   0  0  0  0  0  0  0  0  0  0  0  0
   -0.3022   -0.8877    0.0000 N   0  0  0  0  0  0  0  0  0  0  0  0
    0.4121   -2.1252    0.0000 C   0  0  0  0  0  0  0  0  0  0  0  0
    2.5555    1.5873    0.0000 C   0  0  0  0  0  0  0  0  0  0  0  0
   -2.4457   -2.1252    0.0000 C   0  0  0  0  0  0  0  0  0  0  0  0
   -1.0167   -1.3001    0.0000 C   0  0  0  0  0  0  0  0  0  0  0  0
    3.2700    1.1748    0.0000 C   0  0  0  0  0  0  0  0  0  0  0  0
    1.8411    1.1748    0.0000 C   0  0  0  0  0  0  0  0  0  0  0  0
    1.8411   -2.1252    0.0000 N   0  0  0  0  0  0  0  0  0  0  0  0
    2.5555   -0.0626    0.0000 C   0  0  0  0  0  0  0  0  0  0  0  0
    3.2700    0.3498    0.0000 C   0  0  0  0  0  0  0  0  0  0  0  0
    1.8411    0.3498    0.0000 C   0  0  0  0  0  0  0  0  0  0  0  0
    2.5555   -0.8877    0.0000 N   0  0  0  0  0  0  0  0  0  0  0  0
    1.1266   -2.5376    0.0000 C   0  0  0  0  0  0  0  0  0  0  0  0
   -4.5891   -0.8877    0.0000 O   0  0  0  0  0  0  0  0  0  0  0  0
   -1.7312   -2.5376    0.0000 C   0  0  0  0  0  0  0  0  0  0  0  0
   -0.3022   -2.5376    0.0000 F   0  0  0  0  0  0  0  0  0  0  0  0
   -1.0167   -2.1252    0.0000 C   0  0  0  0  0  0  0  0  0  0  0  0
    2.5555    2.4123    0.0000 O   0  0  0  0  0  0  0  0  0  0  0  0
    1.1266    1.5873    0.0000 O   0  0  0  0  0  0  0  0  0  0  0  0
    3.9845    1.5873    0.0000 O   0  0  0  0  0  0  0  0  0  0  0  0
   -4.6991   -2.1540    0.0000 C   0  0  0  0  0  0  0  0  0  0  0  0
   -4.3118   -2.8247    0.0000 C   0  0  0  0  0  0  0  0  0  0  0  0
    1.8411    2.8247    0.0000 C   0  0  0  0  0  0  0  0  0  0  0  0
    0.4121    1.1748    0.0000 C   0  0  0  0  0  0  0  0  0  0  0  0
    4.6990    1.1748    0.0000 C   0  0  0  0  0  0  0  0  0  0  0  0
  3  1  1  0
  3  6  1  0
  4  2  2  0
  4 10  1  0
  5  1  1  0
  5  9  1  0
  5 23  2  0
  7  2  1  0
  7 17  2  0
  7 21  1  0
  9  8  1  0
 11  4  1  0
 11 22  2  0
 11 25  1  0
 12 15  2  0
 12 16  1  0
 12 27  1  0
 13  3  2  0
 13  8  1  0
 13 24  1  0
 14  6  2  0
 14 10  1  0
 14 26  1  0
 15 19  1  0
 15 29  1  0
 16 20  2  0
 16 28  1  0
 18 19  2  0
 18 20  1  0
 18 21  1  0
 22 17  1  0
 24 26  2  0
 30  9  1  0
 31  9  1  0
 32 27  1  0
 33 28  1  0
 34 29  1  0
M  END
>  <DRUGBANK_ID>  (1) 
DB07159

>  <SECONDARY_ACCESSION_NUMBERS>  (1) 
DB06646

>  <COMMON_NAME>  (1) 
Tamatinib

>  <CAS_NUMBER>  (1) 
841290-80-0

>  <UNII>  (1) 
RC3A285J2G

>  <SYNONYMS>  (1) 
6-({5-fluoro-2-[(3,4,5-trimethoxyphenyl)amino]pyrimidin-4-yl}amino)-2,2-dimethyl-2H-pyrido[3,2-b][1,4]oxazin-3(4H)-one

$$$$
