
     RDKit          2D

 31 33  0  0  0  0  0  0  0  0999 V2000
    2.5047   -0.4236    0.0000 C   0  0  0  0  0  0  0  0  0  0  0  0
    2.5047   -1.2486    0.0000 C   0  0  0  0  0  0  0  0  0  0  0  0
    1.7837   -0.0074    0.0000 C   0  0  0  0  0  0  0  0  0  0  0  0
    1.7837   -1.6573    0.0000 C   0  0  0  0  0  0  0  0  0  0  0  0
    1.0702   -0.4236    0.0000 C   0  0  0  0  0  0  0  0  0  0  0  0
    1.0702   -1.2486    0.0000 C   0  0  0  0  0  0  0  0  0  0  0  0
    0.3567   -1.6573    0.0000 N   0  0  0  0  0  0  0  0  0  0  0  0
    0.3567   -2.4823    0.0000 C   0  0  0  0  0  0  0  0  0  0  0  0
   -0.3642   -1.2411    0.0000 C   0  0  0  0  0  0  0  0  0  0  0  0
   -0.3642   -2.8911    0.0000 C   0  0  0  0  0  0  0  0  0  0  0  0
   -1.0777   -1.6573    0.0000 C   0  0  0  0  0  0  0  0  0  0  0  0
   -1.0777   -2.4823    0.0000 C   0  0  0  0  0  0  0  0  0  0  0  0
   -1.7837   -2.8911    0.0000 C   0  0  0  0  0  0  0  0  0  0  0  0
   -2.5047   -2.4823    0.0000 O   0  0  0  0  0  0  0  0  0  0  0  0
   -1.7837   -3.7161    0.0000 O   0  0  0  0  0  0  0  0  0  0  0  0
    0.3567   -0.0074    0.0000 N   0  0  0  0  0  0  0  0  0  0  0  0
    0.3567    0.8175    0.0000 C   0  0  0  0  0  0  0  0  0  0  0  0
   -0.3642    1.2263    0.0000 N   0  0  0  0  0  0  0  0  0  0  0  0
    1.0702    1.2263    0.0000 O   0  0  0  0  0  0  0  0  0  0  0  0
   -0.3642    2.0513    0.0000 C   0  0  0  0  0  0  0  0  0  0  0  0
   -1.0777    2.4750    0.0000 C   0  0  0  0  0  0  0  0  0  0  0  0
    0.3567    2.4750    0.0000 O   0  0  0  0  0  0  0  0  0  0  0  0
   -1.0777    3.3000    0.0000 C   0  0  0  0  0  0  0  0  0  0  0  0
   -1.7837    3.7161    0.0000 C   0  0  0  0  0  0  0  0  0  0  0  0
   -1.7837    2.0661    0.0000 C   0  0  0  0  0  0  0  0  0  0  0  0
   -2.5047    3.3000    0.0000 C   0  0  0  0  0  0  0  0  0  0  0  0
   -2.5047    2.4750    0.0000 C   0  0  0  0  0  0  0  0  0  0  0  0
   -3.2182    2.0661    0.0000 F   0  0  0  0  0  0  0  0  0  0  0  0
   -3.2182    3.7087    0.0000 F   0  0  0  0  0  0  0  0  0  0  0  0
   -0.3642    3.7161    0.0000 Cl  0  0  0  0  0  0  0  0  0  0  0  0
    3.2182   -0.0074    0.0000 F   0  0  0  0  0  0  0  0  0  0  0  0
  1  2  2  0
  1  3  1  0
  1 31  1  0
  2  4  1  0
  3  5  2  0
  4  6  2  0
  5  6  1  0
  5 16  1  0
  6  7  1  0
  7  8  1  0
  7  9  1  0
  8 10  1  0
  9 11  1  0
 10 12  1  0
 11 12  1  0
 12 13  1  0
 13 14  1  0
 13 15  2  0
 16 17  1  0
 17 18  1  0
 17 19  2  0
 18 20  1  0
 20 21  1  0
 20 22  2  0
 21 23  2  0
 21 25  1  0
 23 24  1  0
 23 30  1  0
 24 26  2  0
 25 27  2  0
 26 27  1  0
 26 29  1  0
 27 28  1  0
M  END
>  <DRUGBANK_ID>  (1) 
DB07396

>  <COMMON_NAME>  (1) 
AVE-2865

>  <CAS_NUMBER>  (1) 
648917-13-9

>  <UNII>  (1) 
6O70DED99N

$$$$
