CX6
     RDKit          2D

 18 21  0  0  0  0  0  0  0  0999 V2000
    0.8284    0.9170    0.0000 O   0  0  0  0  0  0  0  0  0  0  0  0
    0.8284   -1.5580    0.0000 O   0  0  0  0  0  0  0  0  0  0  0  0
    1.5429   -0.3205    0.0000 N   0  0  0  0  0  0  0  0  0  0  0  0
    1.5429    0.5045    0.0000 C   0  0  0  0  0  0  0  0  0  0  0  0
    2.3275    0.7594    0.0000 C   0  0  0  0  0  0  0  0  0  0  0  0
    2.8125    0.0920    0.0000 C   0  0  0  0  0  0  0  0  0  0  0  0
    2.3275   -0.5755    0.0000 C   0  0  0  0  0  0  0  0  0  0  0  0
    0.8284   -0.7330    0.0000 C   0  0  0  0  0  0  0  0  0  0  0  0
    0.1140   -0.3205    0.0000 C   0  0  0  0  0  0  0  0  0  0  0  0
    0.1140    0.5045    0.0000 C   0  0  0  0  0  0  0  0  0  0  0  0
   -0.6005    0.9170    0.0000 C   0  0  0  0  0  0  0  0  0  0  0  0
   -1.3150    0.5045    0.0000 C   0  0  0  0  0  0  0  0  0  0  0  0
   -1.3150   -0.3205    0.0000 C   0  0  0  0  0  0  0  0  0  0  0  0
   -0.6005   -0.7330    0.0000 C   0  0  0  0  0  0  0  0  0  0  0  0
   -2.0294    0.9170    0.0000 O   0  0  0  0  0  0  0  0  0  0  0  0
   -2.0294   -0.7330    0.0000 O   0  0  0  0  0  0  0  0  0  0  0  0
   -2.7439   -0.3205    0.0000 C   0  0  0  0  0  0  0  0  0  0  0  0
   -2.7439    0.5045    0.0000 C   0  0  0  0  0  0  0  0  0  0  0  0
  1  4  1  0
  1 10  1  0
  2  8  2  0
  3  4  1  0
  3  7  1  0
  3  8  1  0
  4  5  1  6
  5  6  1  0
  6  7  1  0
  8  9  1  0
  9 10  2  0
  9 14  1  0
 10 11  1  0
 11 12  2  0
 12 13  1  0
 12 15  1  0
 13 14  2  0
 13 16  1  0
 15 18  1  0
 16 17  1  0
 17 18  1  0
M  END
>  <DRUGBANK_ID>  (1) 
DB07598

>  <COMMON_NAME>  (1) 
2,3,6A,7,8,9-HEXAHYDRO-11H-[1,4]DIOXINO[2,3-G]PYRROLO[2,1-B][1,3]BENZOXAZIN-11-ONE

$$$$
