
     RDKit          2D

 21 24  0  0  0  0  0  0  0  0999 V2000
    1.4977    0.5560    0.0000 C   0  0  0  0  0  0  0  0  0  0  0  0
    1.4977   -0.2515    0.0000 C   0  0  0  0  0  0  0  0  0  0  0  0
    0.7961   -0.6669    0.0000 C   0  0  0  0  0  0  0  0  0  0  0  0
    0.7961   -1.4976    0.0000 C   0  0  0  0  0  0  0  0  0  0  0  0
    0.0854   -1.9085    0.0000 C   0  0  0  0  0  0  0  0  0  0  0  0
   -0.6300   -1.4976    0.0000 C   0  0  0  0  0  0  0  0  0  0  0  0
   -0.6300   -0.6669    0.0000 C   0  0  0  0  0  0  0  0  0  0  0  0
    0.0854   -0.2515    0.0000 C   0  0  0  0  0  0  0  0  0  0  0  0
    0.0854    0.5560    0.0000 C   0  0  0  0  0  0  0  0  0  0  0  0
    0.7961    0.9716    0.0000 C   0  0  0  0  0  0  0  0  0  0  0  0
   -1.3501   -0.2515    0.0000 C   0  0  0  0  0  0  0  0  0  0  0  0
   -2.0699   -0.6669    0.0000 C   0  0  0  0  0  0  0  0  0  0  0  0
   -2.0699   -1.4976    0.0000 C   0  0  0  0  0  0  0  0  0  0  0  0
   -2.7854   -1.9085    0.0000 O   0  0  0  0  0  0  0  0  0  0  0  0
   -1.3501   -1.9085    0.0000 C   0  0  0  0  0  0  0  0  0  0  0  0
    2.2916   -0.5053    0.0000 C   0  0  0  0  0  0  0  0  0  0  0  0
    2.7854    0.1546    0.0000 C   0  0  0  0  0  0  0  0  0  0  0  0
    2.2916    0.8100    0.0000 C   0  0  0  0  0  0  0  0  0  0  0  0
    2.2916    1.6315    0.0000 O   0  0  0  0  0  0  0  0  0  0  0  0
    1.4977    1.3823    0.0000 C   0  0  0  0  0  0  0  0  0  0  0  0
    0.8700    1.9085    0.0000 C   0  0  0  0  0  0  0  0  0  0  0  0
  1 20  1  1
  2  1  1  0
  3  2  1  0
  3  8  1  0
  3  4  1  6
  5  4  1  0
  6  5  1  0
  6  7  1  0
  7  8  1  0
  8  9  1  1
  9 10  1  0
 10  1  1  0
  7 11  1  6
 12 11  1  0
 13 12  1  0
 14 13  2  0
 15 13  1  0
 15  6  2  0
  2 16  1  1
 16 17  1  0
 17 18  1  0
 18  1  1  0
 18 19  1  1
 21 20  1  0
M  END
>  <DRUGBANK_ID>  (1) 
DB01543

>  <COMMON_NAME>  (1) 
18-methyl-19-nortestosterone

>  <CAS_NUMBER>  (1) 
793-55-5

>  <UNII>  (1) 
6AL6ML53DZ

>  <SYNONYMS>  (1) 
13beta-ethyl-17beta-hydroxygon-4-en-3-one

$$$$
