
     RDKit          2D

 10  9  0  0  0  0  0  0  0  0999 V2000
    1.7862   -0.2062    0.0000 O   0  0  0  0  0  0  0  0  0  0  0  0
    1.0717    0.2062    0.0000 C   0  0  0  0  0  0  0  0  0  0  0  0
    0.3572   -0.2063    0.0000 C   0  0  0  0  0  0  0  0  0  0  0  0
   -0.3571    0.2060    0.0000 C   0  0  0  0  0  0  0  0  0  0  0  0
   -1.7862    0.2060    0.0000 O   0  0  0  0  0  0  0  0  0  0  0  0
   -1.0717   -0.2063    0.0000 S   0  0  0  0  0  0  0  0  0  0  0  0
    1.0717    1.0313    0.0000 O   0  0  0  0  0  0  0  0  0  0  0  0
    0.3572   -1.0313    0.0000 N   0  0  0  0  0  0  0  0  0  0  0  0
   -0.6592   -0.9208    0.0000 O   0  0  0  0  0  0  0  0  0  0  0  0
   -1.4842   -0.9208    0.0000 O   0  0  0  0  0  0  0  0  0  0  0  0
  1  2  1  0
  3  2  1  0
  3  8  1  1
  4  3  1  0
  5  6  1  0
  6  4  1  0
  7  2  2  0
  9  6  2  0
 10  6  2  0
M  END
>  <DRUGBANK_ID>  (1) 
DB03661

>  <SECONDARY_ACCESSION_NUMBERS>  (1) 
EXPT02415

>  <COMMON_NAME>  (1) 
L-cysteic acid

>  <CAS_NUMBER>  (1) 
498-40-8

>  <UNII>  (1) 
M6W2DJ6N5K

>  <SYNONYMS>  (1) 
(2R)-2-amino-3-sulfopropanoic acid; 2-Amino-3-sulfopropionic acid; 3-sulfo-L-alanine; 3-Sulfoalanine; Cysteinesulfonic acid; Cysteric acid; L-Cysteate

$$$$
