
     RDKit          2D

 22 25  0  0  0  0  0  0  0  0999 V2000
    0.6793   -1.7774    0.0000 C   0  0  0  0  0  0  0  0  0  0  0  0
    0.6793   -0.9524    0.0000 C   0  0  0  0  0  0  0  0  0  0  0  0
   -0.7495   -0.9524    0.0000 C   0  0  0  0  0  0  0  0  0  0  0  0
   -0.0350   -2.1899    0.0000 C   0  0  0  0  0  0  0  0  0  0  0  0
   -0.7495   -1.7774    0.0000 C   0  0  0  0  0  0  0  0  0  0  0  0
   -1.4640   -0.5399    0.0000 C   0  0  0  0  0  0  0  0  0  0  0  0
   -1.4640   -2.1899    0.0000 C   0  0  0  0  0  0  0  0  0  0  0  0
   -2.1784   -0.9524    0.0000 C   0  0  0  0  0  0  0  0  0  0  0  0
   -2.1784   -1.7774    0.0000 C   0  0  0  0  0  0  0  0  0  0  0  0
   -0.0350   -0.5399    0.0000 C   0  0  0  0  0  0  0  0  0  0  0  0
    2.1784   -0.7948    0.0000 C   0  0  0  0  0  0  0  0  0  0  0  0
    0.6793    0.6975    0.0000 C   0  0  0  0  0  0  0  0  0  0  0  0
    2.6634   -0.1274    0.0000 C   0  0  0  0  0  0  0  0  0  0  0  0
   -0.0350    0.2850    0.0000 C   0  0  0  0  0  0  0  0  0  0  0  0
   -2.8929   -2.1899    0.0000 O   0  0  0  0  0  0  0  0  0  0  0  0
    1.3938    0.2850    0.0000 C   0  0  0  0  0  0  0  0  0  0  0  0
    1.3938    1.1100    0.0000 C   0  0  0  0  0  0  0  0  0  0  0  0
    1.3938   -0.5399    0.0000 C   0  0  0  0  0  0  0  0  0  0  0  0
    2.1784    0.5399    0.0000 C   0  0  0  0  0  0  0  0  0  0  0  0
    2.8929    0.9524    0.0000 O   0  0  0  0  0  0  0  0  0  0  0  0
    2.1784    1.3649    0.0000 C   0  0  0  0  0  0  0  0  0  0  0  0
    2.1784    2.1899    0.0000 C   0  0  0  0  0  0  0  0  0  0  0  0
  1  4  1  0
  2  1  1  6
  2 18  1  0
  3  5  1  0
  3  6  1  6
  4  5  1  0
  5  7  2  0
  6  8  1  0
  7  9  1  0
  8  9  1  0
  9 15  2  0
 10  2  1  0
 10  3  1  0
 10 14  1  1
 11 13  1  0
 12 14  1  0
 16 12  1  0
 16 19  1  0
 16 17  1  1
 18 11  1  1
 18 16  1  0
 19 13  1  0
 19 20  1  1
 19 21  1  0
 21 22  3  0
M  END
>  <DRUGBANK_ID>  (1) 
DB00717

>  <SECONDARY_ACCESSION_NUMBERS>  (1) 
APRD00679

>  <COMMON_NAME>  (1) 
Norethisterone

>  <CAS_NUMBER>  (1) 
68-22-4

>  <UNII>  (1) 
T18F433X4S

>  <SYNONYMS>  (1) 
(17alpha)-17-ethynyl-17-hydroxyestra-4,8(14),9-trien-3-one; 17-hydroxy-19-nor-17-α-pregn-4-en-20-yn-3-one; 17-hydroxy-19-nor-17α-pregn-4-en-20-yn-3-one; 17-α-ethynyl-17-hydroxy-4-estren-3-one; 17-α-ethynyl-19-norandrost-4-en-17-β-ol-3-one; 17-α-ethynyl-19-nortestosterone; 17-α-ethynyl-4-estren-17-ol-3-one; 17-β-hydroxy-19-norpregn-4-en-20-yn-3-one; 17α-ethinyl-19-nortestosterone; 17α-ethinylestra-4-en-17β-ol-3-one; 17α-ethynyl-17-hydroxy-4-estren-3-one; 17α-ethynyl-17β-hydroxy-19-norandrost-4-en-3-one; 17α-ethynyl-19-nor-4-androsten-17β-ol-3-one; 17α-ethynyl-19-norandrost-4-en-17β-ol-3-one; 17α-ethynyl-19-nortestosterone; 17α-ethynyl-4-estren-17-ol-3-one; 17β-hydroxy-19-norpregn-4-en-20-yn-3-one; 19-nor-17-α-ethynyl-17-β-hydroxy-4-androsten-3-one; 19-nor-17-α-ethynylandrosten-17-β-ol-3-one; 19-nor-17-α-ethynyltestosterone; 19-Nor-17alpha-ethynyl-17beta-hydroxy-4-androsten-3-one; 19-nor-17α-ethynyl-17β-hydroxy-4-androsten-3-one; 19-nor-17α-ethynylandrosten-17β-ol-3-one; 19-nor-17α-ethynyltestosterone; 19-nor-ethindrone; 19-norethisterone; 4-estren-17α-ethynyl-17β-ol-3-one; Norethindrone; Norethisteron; Noréthistérone; Norethisterone; Norethisteronum; Noretisterona

$$$$
