8IN
     RDKit          2D

 29 31  0  0  0  0  0  0  0  0999 V2000
    1.1934   -0.3812    0.0000 C   0  0  0  0  0  0  0  0  0  0  0  0
    0.4789   -0.7937    0.0000 C   0  0  0  0  0  0  0  0  0  0  0  0
   -0.2356   -0.3812    0.0000 C   0  0  0  0  0  0  0  0  0  0  0  0
   -0.2356    0.4438    0.0000 C   0  0  0  0  0  0  0  0  0  0  0  0
    0.4789    0.8563    0.0000 C   0  0  0  0  0  0  0  0  0  0  0  0
    1.1934    0.4438    0.0000 C   0  0  0  0  0  0  0  0  0  0  0  0
   -1.0202   -0.6361    0.0000 N   0  0  0  0  0  0  0  0  0  0  0  0
   -1.5051    0.0313    0.0000 C   0  0  0  0  0  0  0  0  0  0  0  0
   -1.0202    0.6987    0.0000 C   0  0  0  0  0  0  0  0  0  0  0  0
   -1.2751    1.4834    0.0000 C   0  0  0  0  0  0  0  0  0  0  0  0
   -2.0821    1.6549    0.0000 C   0  0  0  0  0  0  0  0  0  0  0  0
   -2.6341    1.0418    0.0000 O   0  0  0  0  0  0  0  0  0  0  0  0
   -2.3370    2.4395    0.0000 N   0  0  0  0  0  0  0  0  0  0  0  0
   -2.3301    0.0313    0.0000 C   0  0  0  0  0  0  0  0  0  0  0  0
   -1.2751   -1.4208    0.0000 C   0  0  0  0  0  0  0  0  0  0  0  0
   -2.0821   -1.5923    0.0000 C   0  0  0  0  0  0  0  0  0  0  0  0
   -2.3370   -2.3769    0.0000 C   0  0  0  0  0  0  0  0  0  0  0  0
   -3.1440   -2.5484    0.0000 C   0  0  0  0  0  0  0  0  0  0  0  0
   -3.6960   -1.9353    0.0000 C   0  0  0  0  0  0  0  0  0  0  0  0
   -3.4411   -1.1507    0.0000 C   0  0  0  0  0  0  0  0  0  0  0  0
   -2.6341   -0.9792    0.0000 C   0  0  0  0  0  0  0  0  0  0  0  0
    1.9079    0.8563    0.0000 O   0  0  0  0  0  0  0  0  0  0  0  0
    2.6223    0.4438    0.0000 C   0  0  0  0  0  0  0  0  0  0  0  0
    3.3368    0.8563    0.0000 C   0  0  0  0  0  0  0  0  0  0  0  0
    4.0513    0.4438    0.0000 C   0  0  0  0  0  0  0  0  0  0  0  0
    4.7657    0.8563    0.0000 P   0  0  0  0  0  0  0  0  0  0  0  0
    5.4802    1.2688    0.0000 O   0  0  0  0  0  0  0  0  0  0  0  0
    5.1782    0.1418    0.0000 O   0  0  0  0  0  0  0  0  0  0  0  0
    4.3532    1.5708    0.0000 O   0  0  0  0  0  0  0  0  0  0  0  0
  1  2  2  0
  1  6  1  0
  2  3  1  0
  3  4  2  0
  3  7  1  0
  4  5  1  0
  4  9  1  0
  5  6  2  0
  6 22  1  0
  7  8  1  0
  7 15  1  0
  8  9  2  0
  8 14  1  0
  9 10  1  0
 10 11  1  0
 11 12  2  0
 11 13  1  0
 15 16  1  0
 16 17  2  0
 16 21  1  0
 17 18  1  0
 18 19  2  0
 19 20  1  0
 20 21  2  0
 22 23  1  0
 23 24  1  0
 24 25  1  0
 25 26  1  0
 26 27  2  0
 26 28  1  0
 26 29  1  0
M  END
>  <DRUGBANK_ID>  (1) 
DB02504

>  <SECONDARY_ACCESSION_NUMBERS>  (1) 
EXPT00335

>  <COMMON_NAME>  (1) 
[3-(1-Benzyl-3-Carbamoylmethyl-2-Methyl-1h-Indol-5-Yloxy)-Propyl-]-Phosphonic Acid

$$$$
