
     RDKit          2D

 33 34  0  0  0  0  0  0  0  0999 V2000
    3.5984    0.3308    0.0000 N   0  0  0  0  0  0  0  0  0  0  0  0
    4.1818   -0.2523    0.0000 C   0  0  0  0  0  0  0  0  0  0  0  0
    4.9786   -0.0389    0.0000 N   0  0  0  0  0  0  0  0  0  0  0  0
    5.1921    0.7579    0.0000 C   0  0  0  0  0  0  0  0  0  0  0  0
    4.6088    1.3413    0.0000 C   0  0  0  0  0  0  0  0  0  0  0  0
    3.8119    1.1276    0.0000 C   0  0  0  0  0  0  0  0  0  0  0  0
    2.5484   -0.6733    0.0000 C   0  0  0  0  0  0  0  0  0  0  0  0
    2.8052    0.1108    0.0000 C   0  0  0  0  0  0  0  0  0  0  0  0
    2.1359    0.5975    0.0000 O   0  0  0  0  0  0  0  0  0  0  0  0
    1.4667    0.1108    0.0000 C   0  0  0  0  0  0  0  0  0  0  0  0
    1.7234   -0.6733    0.0000 C   0  0  0  0  0  0  0  0  0  0  0  0
    0.7484    0.5267    0.0000 C   0  0  0  0  0  0  0  0  0  0  0  0
    0.1609   -0.0565    0.0000 O   0  0  0  0  0  0  0  0  0  0  0  0
   -0.6640   -0.0523    0.0000 P   0  0  0  0  0  0  0  0  0  0  0  0
   -1.4890   -0.0483    0.0000 O   0  0  0  0  0  0  0  0  0  0  0  0
   -2.3140   -0.0440    0.0000 P   0  0  0  0  0  0  0  0  0  0  0  0
   -3.1390   -0.0398    0.0000 O   0  0  0  0  0  0  0  0  0  0  0  0
   -0.6681    0.7726    0.0000 O   0  0  0  0  0  0  0  0  0  0  0  0
   -2.3181    0.7809    0.0000 O   0  0  0  0  0  0  0  0  0  0  0  0
   -2.3098   -0.8690    0.0000 O   0  0  0  0  0  0  0  0  0  0  0  0
   -0.6598   -0.8773    0.0000 O   0  0  0  0  0  0  0  0  0  0  0  0
    5.9890    0.9715    0.0000 N   0  0  0  0  0  0  0  0  0  0  0  0
    3.9682   -1.0492    0.0000 O   0  0  0  0  0  0  0  0  0  0  0  0
    1.2392   -1.3412    0.0000 O   0  0  0  0  0  0  0  0  0  0  0  0
    3.0325   -1.3412    0.0000 O   0  0  0  0  0  0  0  0  0  0  0  0
   -3.8515    0.3726    0.0000 C   0  0  0  0  0  0  0  0  0  0  0  0
   -4.5640   -0.0398    0.0000 C   0  0  0  0  0  0  0  0  0  0  0  0
   -5.2765    0.3726    0.0000 C   0  0  0  0  0  0  0  0  0  0  0  0
   -5.9890   -0.0398    0.0000 C   0  0  0  0  0  0  0  0  0  0  0  0
   -5.9880   -0.8648    0.0000 O   0  0  0  0  0  0  0  0  0  0  0  0
   -4.5640   -0.8648    0.0000 O   0  0  0  0  0  0  0  0  0  0  0  0
   -5.8640    0.9600    0.0000 C   0  0  0  0  0  0  0  0  0  0  0  0
   -4.6931    0.9600    0.0000 O   0  0  0  0  0  0  0  0  0  0  0  0
  1  2  1  0
  2 23  2  0
  2  3  1  0
  3  4  2  0
  4  5  1  0
  4 22  1  0
  5  6  2  0
  6  1  1  0
  7  8  1  0
  7 25  1  6
  8  9  1  0
  8  1  1  1
  9 10  1  0
 10 11  1  0
 10 12  1  1
 11  7  1  0
 11 24  1  6
 12 13  1  0
 13 14  1  0
 14 18  2  0
 14 21  1  0
 14 15  1  0
 15 16  1  0
 16 17  1  0
 16 19  2  0
 16 20  1  0
 17 26  1  0
 26 27  1  0
 27 28  1  0
 27 31  1  1
 28 29  1  0
 28 32  1  1
 28 33  1  0
 29 30  1  0
M  END
>  <DRUGBANK_ID>  (1) 
DB03687

>  <SECONDARY_ACCESSION_NUMBERS>  (1) 
EXPT00873

>  <COMMON_NAME>  (1) 
4-(Cytidine 5'-diphospho)-2-C-methyl-D-erythritol

>  <CAS_NUMBER>  (1) 
263016-94-0

>  <UNII>  (1) 
FB44VKC5JD

>  <SYNONYMS>  (1) 
4-CDP-2-C-methyl-D-erythritol; 4-Diphosphocytidyl-2-C-methyl-D-erythritol

$$$$
