
     RDKit          2D

 13 15  0  0  0  0  0  0  0  0999 V2000
   -1.5468   -1.0597    0.0000 C   0  0  0  0  0  0  0  0  0  0  0  0
   -1.0619   -0.3923    0.0000 C   0  0  0  0  0  0  0  0  0  0  0  0
   -1.0619   -1.7271    0.0000 C   0  0  0  0  0  0  0  0  0  0  0  0
   -0.2773   -0.6472    0.0000 C   0  0  0  0  0  0  0  0  0  0  0  0
   -0.2773   -1.4722    0.0000 C   0  0  0  0  0  0  0  0  0  0  0  0
    0.5073   -0.3923    0.0000 C   0  0  0  0  0  0  0  0  0  0  0  0
    0.7622    0.3923    0.0000 C   0  0  0  0  0  0  0  0  0  0  0  0
    0.5073   -1.7271    0.0000 N   0  0  0  0  0  0  0  0  0  0  0  0
    0.9922   -1.0597    0.0000 N   0  0  0  0  0  0  0  0  0  0  0  0
    1.5468    0.6472    0.0000 N   0  0  0  0  0  0  0  0  0  0  0  0
    0.2773    1.0597    0.0000 N   0  0  0  0  0  0  0  0  0  0  0  0
    1.5468    1.4722    0.0000 N   0  0  0  0  0  0  0  0  0  0  0  0
    0.7622    1.7271    0.0000 N   0  0  0  0  0  0  0  0  0  0  0  0
  2  1  1  0
  3  1  1  0
  4  2  1  0
  5  3  1  0
  5  4  2  0
  6  4  1  0
  7  6  1  0
  8  5  1  0
  9  6  2  0
  9  8  1  0
 10  7  2  0
 11  7  1  0
 12 10  1  0
 13 11  2  0
 13 12  1  0
M  END
>  <DRUGBANK_ID>  (1) 
DB05939

>  <COMMON_NAME>  (1) 
MK-0354

>  <CAS_NUMBER>  (1) 
851776-28-8

>  <UNII>  (1) 
4U62D8JYIQ

$$$$
