
     RDKit          2D

 40 45  0  0  1  0  0  0  0  0999 V2000
   -4.2868    0.8250    0.0000 O   0  0  0  0  0  0  0  0  0  0  0  0
   -3.5724    1.2375    0.0000 C   0  0  0  0  0  0  0  0  0  0  0  0
   -3.5724    2.0625    0.0000 O   0  0  0  0  0  0  0  0  0  0  0  0
   -2.8579    0.8250    0.0000 C   0  0  0  0  0  0  0  0  0  0  0  0
   -2.1434    1.2375    0.0000 C   0  0  0  0  0  0  0  0  0  0  0  0
   -1.4289    0.8250    0.0000 C   0  0  0  0  0  0  0  0  0  0  0  0
   -1.4289    0.0000    0.0000 C   0  0  0  0  0  0  0  0  0  0  0  0
   -2.1434   -0.4125    0.0000 C   0  0  0  0  0  0  0  0  0  0  0  0
   -2.8579    0.0000    0.0000 C   0  0  0  0  0  0  0  0  0  0  0  0
   -0.7145   -0.4125    0.0000 C   0  0  0  0  0  0  0  0  0  0  0  0
   -0.7145   -1.2375    0.0000 C   0  0  0  0  0  0  0  0  0  0  0  0
    0.0000   -1.6500    0.0000 C   0  0  0  0  0  0  0  0  0  0  0  0
    0.0000   -2.4750    0.0000 N   0  0  0  0  0  0  0  0  0  0  0  0
    0.7145   -2.8875    0.0000 C   0  0  0  0  0  0  0  0  0  0  0  0
    1.4289   -2.4750    0.0000 O   0  0  0  0  0  0  0  0  0  0  0  0
    0.7145   -3.7125    0.0000 C   0  0  0  0  0  0  0  0  0  0  0  0
    0.4323   -4.4877    0.0000 C   0  0  0  0  0  0  0  0  0  0  0  0
   -0.0980   -3.8558    0.0000 C   0  0  0  0  0  0  0  0  0  0  0  0
    1.5269   -3.8558    0.0000 C   0  0  0  0  0  0  0  0  0  0  0  0
    2.0572   -3.2238    0.0000 C   0  0  0  0  0  0  0  0  0  0  0  0
    2.8697   -3.3670    0.0000 C   0  0  0  0  0  0  0  0  0  0  0  0
    3.1519   -4.1423    0.0000 C   0  0  0  0  0  0  0  0  0  0  0  0
    3.9764   -4.1135    0.0000 O   0  0  0  0  0  0  0  0  0  0  0  0
    4.2038   -3.3204    0.0000 C   0  0  0  0  0  0  0  0  0  0  0  0
    4.9687   -3.6295    0.0000 F   0  0  0  0  0  0  0  0  0  0  0  0
    4.5911   -2.5920    0.0000 F   0  0  0  0  0  0  0  0  0  0  0  0
    3.5198   -2.8591    0.0000 O   0  0  0  0  0  0  0  0  0  0  0  0
    2.6216   -4.7743    0.0000 C   0  0  0  0  0  0  0  0  0  0  0  0
    1.8091   -4.6310    0.0000 C   0  0  0  0  0  0  0  0  0  0  0  0
    0.7145   -1.2375    0.0000 C   0  0  0  0  0  0  0  0  0  0  0  0
    0.7145   -0.4125    0.0000 C   0  0  0  0  0  0  0  0  0  0  0  0
    0.0000   -0.0000    0.0000 O   0  0  0  0  0  0  0  0  0  0  0  0
    1.4289   -0.0000    0.0000 C   0  0  0  0  0  0  0  0  0  0  0  0
    2.1434   -0.4125    0.0000 C   0  0  0  0  0  0  0  0  0  0  0  0
    2.8579   -0.0000    0.0000 O   0  0  0  0  0  0  0  0  0  0  0  0
    2.8579    0.8250    0.0000 C   0  0  0  0  0  0  0  0  0  0  0  0
    2.1434    1.2375    0.0000 F   0  0  0  0  0  0  0  0  0  0  0  0
    3.5724    1.2375    0.0000 F   0  0  0  0  0  0  0  0  0  0  0  0
    2.1434   -1.2375    0.0000 C   0  0  0  0  0  0  0  0  0  0  0  0
    1.4289   -1.6500    0.0000 C   0  0  0  0  0  0  0  0  0  0  0  0
  1  2  1  0
  2  3  2  0
  2  4  1  0
  4  5  2  0
  4  9  1  0
  5  6  1  0
  6  7  2  0
  7  8  1  0
  8  9  2  0
 10  7  1  6
 10 11  1  0
 10 32  1  0
 12 11  1  0
 12 13  1  6
 12 30  1  0
 13 14  1  0
 14 15  2  0
 14 16  1  0
 16 17  1  0
 16 18  1  0
 16 19  1  0
 17 18  1  0
 19 20  2  0
 19 29  1  0
 20 21  1  0
 21 22  2  0
 21 27  1  0
 22 23  1  0
 22 28  1  0
 23 24  1  0
 24 25  1  0
 24 26  1  0
 24 27  1  0
 28 29  2  0
 30 31  2  0
 30 40  1  0
 31 32  1  0
 31 33  1  0
 33 34  2  0
 34 35  1  0
 34 39  1  0
 35 36  1  0
 36 37  1  0
 36 38  1  0
 39 40  2  0
M  END
>  <DRUGBANK_ID>  (1) 
DB14894

>  <COMMON_NAME>  (1) 
Galicaftor

>  <CAS_NUMBER>  (1) 
1918143-53-9

>  <UNII>  (1) 
J0IIT8QSQS

>  <SYNONYMS>  (1) 
Galicaftor

$$$$
