FSP
     RDKit          2D

 32 34  0  0  0  0  0  0  0  0999 V2000
    2.7401   -2.6670    0.0000 C   0  0  0  0  0  0  0  0  0  0  0  0
    2.0256   -2.2545    0.0000 C   0  0  0  0  0  0  0  0  0  0  0  0
    2.0256   -1.4295    0.0000 C   0  0  0  0  0  0  0  0  0  0  0  0
    1.3112   -1.0170    0.0000 C   0  0  0  0  0  0  0  0  0  0  0  0
    1.3112   -0.1920    0.0000 C   0  0  0  0  0  0  0  0  0  0  0  0
    0.5967    0.2205    0.0000 N   0  0  0  0  0  0  0  0  0  0  0  0
   -0.1178   -0.1920    0.0000 C   0  0  0  0  0  0  0  0  0  0  0  0
   -0.1178   -1.0170    0.0000 O   0  0  0  0  0  0  0  0  0  0  0  0
   -0.8322    0.2205    0.0000 O   0  0  0  0  0  0  0  0  0  0  0  0
   -1.5467   -0.1920    0.0000 C   0  0  0  0  0  0  0  0  0  0  0  0
   -2.2612    0.2205    0.0000 C   0  0  0  0  0  0  0  0  0  0  0  0
   -1.8487    0.9350    0.0000 C   0  0  0  0  0  0  0  0  0  0  0  0
   -2.2612    1.6494    0.0000 C   0  0  0  0  0  0  0  0  0  0  0  0
   -3.0862    1.6494    0.0000 C   0  0  0  0  0  0  0  0  0  0  0  0
   -3.4987    2.3639    0.0000 C   0  0  0  0  0  0  0  0  0  0  0  0
   -3.0862    3.0784    0.0000 C   0  0  0  0  0  0  0  0  0  0  0  0
   -3.4987    3.7928    0.0000 F   0  0  0  0  0  0  0  0  0  0  0  0
   -2.2612    3.0784    0.0000 C   0  0  0  0  0  0  0  0  0  0  0  0
   -1.8487    2.3639    0.0000 C   0  0  0  0  0  0  0  0  0  0  0  0
   -2.6737   -0.4940    0.0000 C   0  0  0  0  0  0  0  0  0  0  0  0
   -3.3881   -0.0815    0.0000 C   0  0  0  0  0  0  0  0  0  0  0  0
   -2.9756    0.6330    0.0000 C   0  0  0  0  0  0  0  0  0  0  0  0
    2.7401   -0.1920    0.0000 C   0  0  0  0  0  0  0  0  0  0  0  0
    2.7401   -1.0170    0.0000 O   0  0  0  0  0  0  0  0  0  0  0  0
    3.4546    0.2205    0.0000 N   0  0  0  0  0  0  0  0  0  0  0  0
    4.1691   -0.1920    0.0000 C   0  0  0  0  0  0  0  0  0  0  0  0
    4.9227    0.1435    0.0000 C   0  0  0  0  0  0  0  0  0  0  0  0
    5.4748   -0.4695    0.0000 C   0  0  0  0  0  0  0  0  0  0  0  0
    5.0623   -1.1840    0.0000 N   0  0  0  0  0  0  0  0  0  0  0  0
    4.2553   -1.0125    0.0000 N   0  0  0  0  0  0  0  0  0  0  0  0
    2.0256    0.2205    0.0000 C   0  0  0  0  0  0  0  0  0  0  0  0
    2.0256    1.0455    0.0000 O   0  0  0  0  0  0  0  0  0  0  0  0
  1  2  1  0
  2  3  1  0
  3  4  1  0
  5  4  1  6
  5  6  1  0
  5 31  1  0
  6  7  1  0
  7  8  2  0
  7  9  1  0
  9 10  1  0
 10 11  1  0
 11 12  1  0
 11 20  1  0
 11 22  1  0
 12 13  1  0
 13 14  2  0
 13 19  1  0
 14 15  1  0
 15 16  2  0
 16 17  1  0
 16 18  1  0
 18 19  2  0
 20 21  1  0
 21 22  1  0
 23 24  2  0
 23 25  1  0
 23 31  1  0
 25 26  1  0
 26 27  2  0
 26 30  1  0
 27 28  1  0
 28 29  2  0
 29 30  1  0
 31 32  2  0
M  END
>  <DRUGBANK_ID>  (1) 
DB01858

>  <SECONDARY_ACCESSION_NUMBERS>  (1) 
EXPT01501

>  <COMMON_NAME>  (1) 
[1-(4-Fluorobenzyl)Cyclobutyl]Methyl (1s)-1-[Oxo(1h-Pyrazol-5-Ylamino)Acetyl]Pentylcarbamate

$$$$
