
     RDKit          2D

 32 35  0  0  0  0  0  0  0  0999 V2000
   -4.6441   -0.4124    0.0000 C   0  0  0  0  0  0  0  0  0  0  0  0
   -5.3585   -0.8249    0.0000 C   0  0  0  0  0  0  0  0  0  0  0  0
   -5.3585   -1.6500    0.0000 C   0  0  0  0  0  0  0  0  0  0  0  0
   -4.6441   -2.0625    0.0000 N   0  0  0  0  0  0  0  0  0  0  0  0
   -3.9296   -1.6500    0.0000 C   0  0  0  0  0  0  0  0  0  0  0  0
   -3.9296   -0.8249    0.0000 N   0  0  0  0  0  0  0  0  0  0  0  0
   -3.2151   -0.4124    0.0000 C   0  0  0  0  0  0  0  0  0  0  0  0
   -2.5007    0.8250    0.0000 C   0  0  0  0  0  0  0  0  0  0  0  0
   -3.2151    0.4125    0.0000 C   0  0  0  0  0  0  0  0  0  0  0  0
   -2.5007   -0.8249    0.0000 C   0  0  0  0  0  0  0  0  0  0  0  0
   -1.7862   -0.4124    0.0000 C   0  0  0  0  0  0  0  0  0  0  0  0
   -1.7862    0.4125    0.0000 N   0  0  0  0  0  0  0  0  0  0  0  0
   -3.2151   -2.0624    0.0000 O   0  0  0  0  0  0  0  0  0  0  0  0
   -1.0716    0.8250    0.0000 C   0  0  0  0  0  0  0  0  0  0  0  0
   -1.0716    1.6500    0.0000 O   0  0  0  0  0  0  0  0  0  0  0  0
   -0.3573    0.4125    0.0000 C   0  0  0  0  0  0  0  0  0  0  0  0
   -0.3573   -0.4124    0.0000 O   0  0  0  0  0  0  0  0  0  0  0  0
    0.3572    0.8250    0.0000 C   0  0  0  0  0  0  0  0  0  0  0  0
    1.0716    0.4125    0.0000 S   0  0  0  0  0  0  0  0  0  0  0  0
    0.6224   -0.2357    0.0000 O   0  0  0  0  0  0  0  0  0  0  0  0
    1.3958   -0.2651    0.0000 O   0  0  0  0  0  0  0  0  0  0  0  0
    1.7862    0.8250    0.0000 C   0  0  0  0  0  0  0  0  0  0  0  0
    2.5006    2.0625    0.0000 C   0  0  0  0  0  0  0  0  0  0  0  0
    1.7862    1.6500    0.0000 C   0  0  0  0  0  0  0  0  0  0  0  0
    2.5006    0.4125    0.0000 C   0  0  0  0  0  0  0  0  0  0  0  0
    3.2151    0.8250    0.0000 C   0  0  0  0  0  0  0  0  0  0  0  0
    3.2151    1.6500    0.0000 C   0  0  0  0  0  0  0  0  0  0  0  0
    3.9296    2.0625    0.0000 C   0  0  0  0  0  0  0  0  0  0  0  0
    3.9296    0.4125    0.0000 C   0  0  0  0  0  0  0  0  0  0  0  0
    4.6440    0.8250    0.0000 C   0  0  0  0  0  0  0  0  0  0  0  0
    4.6440    1.6500    0.0000 C   0  0  0  0  0  0  0  0  0  0  0  0
    5.3584    2.0625    0.0000 Cl  0  0  0  0  0  0  0  0  0  0  0  0
  1  2  1  0
  1  6  1  0
  2  3  1  0
  3  4  1  0
  4  5  1  0
  5  6  1  0
  5 13  2  0
  6  7  1  0
  7 10  1  0
  8  9  1  0
  8 12  1  0
  9  7  1  0
 10 11  1  0
 11 12  1  0
 12 14  1  0
 14 15  2  0
 14 16  1  0
 16 17  1  1
 16 18  1  0
 18 19  1  0
 19 20  2  0
 19 21  2  0
 19 22  1  0
 22 25  2  0
 23 24  2  0
 23 27  1  0
 24 22  1  0
 25 26  1  0
 26 27  2  0
 26 29  1  0
 28 27  1  0
 28 31  2  0
 29 30  2  0
 30 31  1  0
 31 32  1  0
M  END
>  <DRUGBANK_ID>  (1) 
DB11984

>  <COMMON_NAME>  (1) 
Letaxaban

>  <CAS_NUMBER>  (1) 
870262-90-1

>  <UNII>  (1) 
Y3WB03966W

>  <SYNONYMS>  (1) 
Letaxaban; Letaxab√°n; Letaxabanum

$$$$
