
     RDKit          2D

 12 11  0  0  0  0  0  0  0  0999 V2000
    1.0462   -1.4290    0.0000 C   0  0  0  0  0  0  0  0  0  0  0  0
    1.7606   -1.8415    0.0000 C   0  0  0  0  0  0  0  0  0  0  0  0
    1.7606   -2.6666    0.0000 O   0  0  0  0  0  0  0  0  0  0  0  0
    2.4752   -1.4290    0.0000 N   0  0  0  0  0  0  0  0  0  0  0  0
    2.4752   -0.6039    0.0000 Br  0  0  0  0  0  0  0  0  0  0  0  0
    3.1897   -1.8415    0.0000 C   0  0  0  0  0  0  0  0  0  0  0  0
    3.9042   -1.4290    0.0000 C   0  0  0  0  0  0  0  0  0  0  0  0
    4.6187   -1.8415    0.0000 O   0  0  0  0  0  0  0  0  0  0  0  0
    5.3333   -1.4290    0.0000 P   0  0  0  0  0  0  0  0  0  0  0  0
    6.0479   -1.0165    0.0000 O   0  0  0  0  0  0  0  0  0  0  0  0
    5.7458   -2.1436    0.0000 O   0  0  0  0  0  0  0  0  0  0  0  0
    4.9208   -0.7146    0.0000 O   0  0  0  0  0  0  0  0  0  0  0  0
  1  2  1  0
  2  3  2  0
  2  4  1  0
  4  5  1  0
  4  6  1  0
  6  7  1  0
  7  8  1  0
  8  9  1  0
  9 10  1  0
  9 11  1  0
  9 12  2  0
M  END
>  <DRUGBANK_ID>  (1) 
DB02257

>  <SECONDARY_ACCESSION_NUMBERS>  (1) 
EXPT00655

>  <COMMON_NAME>  (1) 
N-Bromoacetyl-Aminoethyl Phosphate

$$$$
