A3M
     RDKit          2D

 12 12  0  0  0  0  0  0  0  0999 V2000
    0.9744    1.6063    0.0000 C   0  0  0  0  0  0  0  0  0  0  0  0
    0.7195    0.8217    0.0000 C   0  0  0  0  0  0  0  0  0  0  0  0
   -0.1055    0.8217    0.0000 N   0  0  0  0  0  0  0  0  0  0  0  0
   -0.3605    1.6063    0.0000 C   0  0  0  0  0  0  0  0  0  0  0  0
    0.3070    2.0912    0.0000 C   0  0  0  0  0  0  0  0  0  0  0  0
   -0.5904    0.1543    0.0000 C   0  0  0  0  0  0  0  0  0  0  0  0
   -0.2549   -0.5994    0.0000 C   0  0  0  0  0  0  0  0  0  0  0  0
   -0.7398   -1.2669    0.0000 C   0  0  0  0  0  0  0  0  0  0  0  0
   -0.4042   -2.0205    0.0000 C   0  0  0  0  0  0  0  0  0  0  0  0
   -1.4109    0.2405    0.0000 O   0  0  0  0  0  0  0  0  0  0  0  0
    0.5656   -0.6857    0.0000 N   0  0  0  0  0  0  0  0  0  0  0  0
   -1.5603   -1.1806    0.0000 C   0  0  0  0  0  0  0  0  0  0  0  0
  1  2  1  0
  1  5  1  0
  2  3  1  0
  3  4  1  0
  3  6  1  0
  4  5  1  0
  6  7  1  0
  6 10  2  0
  7  8  1  0
  7 11  1  1
  8  9  1  0
  8 12  1  0
M  END
>  <DRUGBANK_ID>  (1) 
DB01884

>  <SECONDARY_ACCESSION_NUMBERS>  (1) 
EXPT00369

>  <COMMON_NAME>  (1) 
2-Amino-3-Methyl-1-Pyrrolidin-1-Yl-Butan-1-One

$$$$
