631
     RDKit          2D

 20 22  0  0  1  0  0  0  0  0999 V2000
    1.6500   -0.5556    0.0000 Cl  0  0  0  0  0  0  0  0  0  0  0  0
    6.2821   -0.1650    0.0000 F   0  0  0  0  0  0  0  0  0  0  0  0
    4.3467    0.7358    0.0000 O   0  0  0  0  0  0  0  0  0  0  0  0
    6.2852    1.6299    0.0000 O   0  0  0  0  0  0  0  0  0  0  0  0
    5.1323    2.7996    0.0000 O   0  0  0  0  0  0  0  0  0  0  0  0
    4.5741   -0.7167    0.0000 N   0  0  0  0  0  0  0  0  0  0  0  0
    4.5741   -2.0446    0.0000 N   0  0  0  0  0  0  0  0  0  0  0  0
    3.0791   -0.5556    0.0000 N   0  0  0  0  0  0  0  0  0  0  0  0
    2.3645   -1.7931    0.0000 N   0  0  0  0  0  0  0  0  0  0  0  0
    3.0791   -3.0306    0.0000 N   0  0  0  0  0  0  0  0  0  0  0  0
    4.8305    0.0675    0.0000 C   0  0  0  0  0  0  0  0  0  0  0  0
    5.6170    1.1461    0.0000 C   0  0  0  0  0  0  0  0  0  0  0  0
    5.6155    0.3211    0.0000 C   0  0  0  0  0  0  0  0  0  0  0  0
    4.8328    1.4024    0.0000 C   0  0  0  0  0  0  0  0  0  0  0  0
    4.5792    2.1875    0.0000 C   0  0  0  0  0  0  0  0  0  0  0  0
    3.7935   -0.9681    0.0000 C   0  0  0  0  0  0  0  0  0  0  0  0
    5.0556   -1.3806    0.0000 C   0  0  0  0  0  0  0  0  0  0  0  0
    3.7935   -1.7931    0.0000 C   0  0  0  0  0  0  0  0  0  0  0  0
    3.0791   -2.2056    0.0000 C   0  0  0  0  0  0  0  0  0  0  0  0
    2.3645   -0.9681    0.0000 C   0  0  0  0  0  0  0  0  0  0  0  0
  1 20  1  0
 13  2  1  6
  3 11  1  0
  3 14  1  0
  5 15  1  0
  6 16  1  0
  6 17  1  0
  7 17  2  0
  7 18  1  0
  8 16  1  0
  8 20  2  0
  9 19  2  0
  9 20  1  0
 10 19  1  0
 11  6  1  6
 11 13  1  0
 12  4  1  1
 12 13  1  0
 12 14  1  0
 14 15  1  6
 16 18  2  0
 18 19  1  0
M  END
>  <DRUGBANK_ID>  (1) 
DB00631

>  <SECONDARY_ACCESSION_NUMBERS>  (1) 
APRD00878; DB07554; DB06189

>  <COMMON_NAME>  (1) 
Clofarabine

>  <CAS_NUMBER>  (1) 
123318-82-1

>  <UNII>  (1) 
762RDY0Y2H

>  <SYNONYMS>  (1) 
(2R,3R,4S,5R)-5-(6-amino-2-chloropurin-9-yl)-4-fluoro-2-(hydroxymethyl)oxolan-3-ol; 2-chloro-9-(2-deoxy-2-fluoro-β-D-arabinofuranosyl)adenine; 2-chloro-9-(2'-deoxy-2'-fluoro-β-D-arabinofuranosyl)adenine; CAFdA; Cl-F-Ara-A; Clofarabin; Clofarabina; Clofarabine; Clofarabinum

$$$$
