NW1
     RDKit          2D

 18 19  0  0  0  0  0  0  0  0999 V2000
   -1.0655    1.0567    0.0000 N   0  0  0  0  0  0  0  0  0  0  0  0
   -1.0655    0.2317    0.0000 C   0  0  0  0  0  0  0  0  0  0  0  0
   -0.3510   -0.1808    0.0000 O   0  0  0  0  0  0  0  0  0  0  0  0
    0.3634    0.2317    0.0000 C   0  0  0  0  0  0  0  0  0  0  0  0
    1.0779   -0.1808    0.0000 C   0  0  0  0  0  0  0  0  0  0  0  0
    1.7924    0.2317    0.0000 C   0  0  0  0  0  0  0  0  0  0  0  0
    2.5069   -0.1808    0.0000 C   0  0  0  0  0  0  0  0  0  0  0  0
    2.5069   -1.0058    0.0000 C   0  0  0  0  0  0  0  0  0  0  0  0
    1.7924   -1.4183    0.0000 C   0  0  0  0  0  0  0  0  0  0  0  0
    1.0779   -1.0058    0.0000 C   0  0  0  0  0  0  0  0  0  0  0  0
   -1.7800   -0.1808    0.0000 C   0  0  0  0  0  0  0  0  0  0  0  0
   -1.7800   -1.0058    0.0000 N   0  0  0  0  0  0  0  0  0  0  0  0
   -1.0655   -1.4183    0.0000 O   0  0  0  0  0  0  0  0  0  0  0  0
   -2.4944    0.2317    0.0000 C   0  0  0  0  0  0  0  0  0  0  0  0
   -3.2089   -0.1808    0.0000 N   0  0  0  0  0  0  0  0  0  0  0  0
   -2.4944    1.0567    0.0000 N   0  0  0  0  0  0  0  0  0  0  0  0
   -1.7800    1.4692    0.0000 C   0  0  0  0  0  0  0  0  0  0  0  0
   -1.7800    2.2942    0.0000 N   0  0  0  0  0  0  0  0  0  0  0  0
  1  2  2  0
  1 17  1  0
  2  3  1  0
  2 11  1  0
  3  4  1  0
  4  5  1  0
  5  6  1  0
  5 10  1  0
  6  7  1  0
  7  8  1  0
  8  9  1  0
  9 10  1  0
 11 12  1  0
 11 14  2  0
 12 13  2  0
 14 15  1  0
 14 16  1  0
 16 17  2  0
 17 18  1  0
M  END
>  <DRUGBANK_ID>  (1) 
DB08312

>  <COMMON_NAME>  (1) 
6-CYCLOHEXYLMETHYLOXY-5-NITROSO-PYRIMIDINE-2,4-DIAMINE

$$$$
