NPA
     RDKit          2D

 14 14  0  0  0  0  0  0  0  0999 V2000
    0.3880    0.4084    0.0000 C   0  0  0  0  0  0  0  0  0  0  0  0
    0.3880   -0.4166    0.0000 C   0  0  0  0  0  0  0  0  0  0  0  0
   -0.3265   -0.8291    0.0000 C   0  0  0  0  0  0  0  0  0  0  0  0
   -1.0410   -0.4166    0.0000 C   0  0  0  0  0  0  0  0  0  0  0  0
   -1.0410    0.4084    0.0000 C   0  0  0  0  0  0  0  0  0  0  0  0
   -0.3265    0.8209    0.0000 C   0  0  0  0  0  0  0  0  0  0  0  0
    1.1025    0.8209    0.0000 C   0  0  0  0  0  0  0  0  0  0  0  0
    1.8169    0.4084    0.0000 C   0  0  0  0  0  0  0  0  0  0  0  0
   -0.3265   -1.6541    0.0000 N   0  0  0  0  0  0  0  0  0  0  0  0
   -1.0410   -2.0666    0.0000 O   0  0  0  0  0  0  0  0  0  0  0  0
    0.3880   -2.0666    0.0000 O   0  0  0  0  0  0  0  0  0  0  0  0
   -1.7554   -0.8291    0.0000 O   0  0  0  0  0  0  0  0  0  0  0  0
    2.5314    0.8209    0.0000 O   0  0  0  0  0  0  0  0  0  0  0  0
    1.8169   -0.4166    0.0000 O   0  0  0  0  0  0  0  0  0  0  0  0
  1  2  2  0
  1  6  1  0
  1  7  1  0
  2  3  1  0
  3  4  2  0
  3  9  1  0
  4  5  1  0
  4 12  1  0
  5  6  2  0
  7  8  1  0
  8 13  2  0
  8 14  1  0
  9 10  1  0
  9 11  2  0
M  CHG  2   9   1  10  -1
M  END
>  <DRUGBANK_ID>  (1) 
DB08294

>  <COMMON_NAME>  (1) 
2-(4-HYDROXY-3-NITROPHENYL)ACETIC ACID

$$$$
