FR9
     RDKit          2D

 33 36  0  0  0  0  0  0  0  0999 V2000
   -3.3456    1.2250    0.0000 C   0  0  0  0  0  0  0  0  0  0  0  0
   -3.0100    0.4713    0.0000 N   0  0  0  0  0  0  0  0  0  0  0  0
   -3.6231   -0.0807    0.0000 C   0  0  0  0  0  0  0  0  0  0  0  0
   -4.3376    0.3318    0.0000 N   0  0  0  0  0  0  0  0  0  0  0  0
   -4.1660    1.1388    0.0000 C   0  0  0  0  0  0  0  0  0  0  0  0
   -4.7181    1.7519    0.0000 C   0  0  0  0  0  0  0  0  0  0  0  0
   -5.5250    1.5804    0.0000 O   0  0  0  0  0  0  0  0  0  0  0  0
   -4.4631    2.5365    0.0000 N   0  0  0  0  0  0  0  0  0  0  0  0
   -2.2030    0.2998    0.0000 C   0  0  0  0  0  0  0  0  0  0  0  0
   -1.6510    0.9129    0.0000 C   0  0  0  0  0  0  0  0  0  0  0  0
   -0.8440    0.7414    0.0000 O   0  0  0  0  0  0  0  0  0  0  0  0
   -1.9481   -0.4848    0.0000 C   0  0  0  0  0  0  0  0  0  0  0  0
   -1.1411   -0.6563    0.0000 C   0  0  0  0  0  0  0  0  0  0  0  0
   -0.8862   -1.4410    0.0000 N   0  0  0  0  0  0  0  0  0  0  0  0
   -1.3711   -2.1084    0.0000 C   0  0  0  0  0  0  0  0  0  0  0  0
   -0.8862   -2.7758    0.0000 C   0  0  0  0  0  0  0  0  0  0  0  0
   -0.1016   -2.5209    0.0000 C   0  0  0  0  0  0  0  0  0  0  0  0
   -0.1016   -1.6959    0.0000 C   0  0  0  0  0  0  0  0  0  0  0  0
    0.6129   -2.9334    0.0000 C   0  0  0  0  0  0  0  0  0  0  0  0
    1.3274   -2.5209    0.0000 C   0  0  0  0  0  0  0  0  0  0  0  0
    1.3274   -1.6959    0.0000 C   0  0  0  0  0  0  0  0  0  0  0  0
    0.6129   -1.2834    0.0000 C   0  0  0  0  0  0  0  0  0  0  0  0
    2.0419   -1.2834    0.0000 N   0  0  0  0  0  0  0  0  0  0  0  0
    2.0419   -0.4584    0.0000 C   0  0  0  0  0  0  0  0  0  0  0  0
    1.3274   -0.0459    0.0000 O   0  0  0  0  0  0  0  0  0  0  0  0
    2.7563   -0.0459    0.0000 N   0  0  0  0  0  0  0  0  0  0  0  0
    2.7563    0.7791    0.0000 C   0  0  0  0  0  0  0  0  0  0  0  0
    4.1853    0.7791    0.0000 C   0  0  0  0  0  0  0  0  0  0  0  0
    3.4708    1.1916    0.0000 C   0  0  0  0  0  0  0  0  0  0  0  0
    3.4708    2.0166    0.0000 C   0  0  0  0  0  0  0  0  0  0  0  0
    4.1853    2.4291    0.0000 C   0  0  0  0  0  0  0  0  0  0  0  0
    4.8997    2.0166    0.0000 C   0  0  0  0  0  0  0  0  0  0  0  0
    4.8997    1.1916    0.0000 C   0  0  0  0  0  0  0  0  0  0  0  0
  1  2  1  0
  1  5  2  0
  2  3  1  0
  3  4  2  0
  4  5  1  0
  5  6  1  0
  6  7  2  0
  6  8  1  0
  9  2  1  0
  9 10  1  1
  9 12  1  0
 10 11  1  0
 12 13  1  0
 13 14  1  0
 14 15  1  0
 14 18  1  0
 15 16  2  0
 16 17  1  0
 17 18  2  0
 17 19  1  0
 18 22  1  0
 19 20  2  0
 20 21  1  0
 21 22  2  0
 21 23  1  0
 23 24  1  0
 24 25  2  0
 24 26  1  0
 26 27  1  0
 27 29  1  0
 28 29  2  0
 28 33  1  0
 29 30  1  0
 30 31  2  0
 31 32  1  0
 32 33  2  0
M  END
>  <DRUGBANK_ID>  (1) 
DB02830

>  <SECONDARY_ACCESSION_NUMBERS>  (1) 
EXPT01487

>  <COMMON_NAME>  (1) 
FR236913

$$$$
