CM4
     RDKit          2D

 33 37  0  0  0  0  0  0  0  0999 V2000
    1.1813   -1.4800    0.0000 C   0  0  0  0  0  0  0  0  0  0  0  0
    1.1813   -0.6550    0.0000 C   0  0  0  0  0  0  0  0  0  0  0  0
    1.8958   -0.2425    0.0000 O   0  0  0  0  0  0  0  0  0  0  0  0
    2.6103   -0.6550    0.0000 C   0  0  0  0  0  0  0  0  0  0  0  0
    3.3247   -0.2425    0.0000 C   0  0  0  0  0  0  0  0  0  0  0  0
    4.0392   -0.6550    0.0000 C   0  0  0  0  0  0  0  0  0  0  0  0
    4.0392   -1.4800    0.0000 C   0  0  0  0  0  0  0  0  0  0  0  0
    4.7537   -1.8925    0.0000 O   0  0  0  0  0  0  0  0  0  0  0  0
    3.3247   -1.8925    0.0000 C   0  0  0  0  0  0  0  0  0  0  0  0
    2.6103   -1.4800    0.0000 C   0  0  0  0  0  0  0  0  0  0  0  0
    1.8958   -1.8925    0.0000 C   0  0  0  0  0  0  0  0  0  0  0  0
    1.8958   -2.7175    0.0000 C   0  0  0  0  0  0  0  0  0  0  0  0
    0.4669   -1.8925    0.0000 C   0  0  0  0  0  0  0  0  0  0  0  0
    0.4669   -2.7175    0.0000 C   0  0  0  0  0  0  0  0  0  0  0  0
   -0.2476   -3.1300    0.0000 C   0  0  0  0  0  0  0  0  0  0  0  0
   -0.9621   -2.7175    0.0000 C   0  0  0  0  0  0  0  0  0  0  0  0
   -1.6766   -3.1300    0.0000 O   0  0  0  0  0  0  0  0  0  0  0  0
   -0.9621   -1.8925    0.0000 C   0  0  0  0  0  0  0  0  0  0  0  0
   -0.2476   -1.4800    0.0000 C   0  0  0  0  0  0  0  0  0  0  0  0
    0.4669   -0.2425    0.0000 C   0  0  0  0  0  0  0  0  0  0  0  0
   -0.2476   -0.6550    0.0000 C   0  0  0  0  0  0  0  0  0  0  0  0
   -0.9621   -0.2425    0.0000 C   0  0  0  0  0  0  0  0  0  0  0  0
   -0.9621    0.5825    0.0000 C   0  0  0  0  0  0  0  0  0  0  0  0
   -0.2476    0.9950    0.0000 C   0  0  0  0  0  0  0  0  0  0  0  0
    0.4669    0.5825    0.0000 C   0  0  0  0  0  0  0  0  0  0  0  0
   -1.6766    0.9950    0.0000 O   0  0  0  0  0  0  0  0  0  0  0  0
   -1.6766    1.8200    0.0000 C   0  0  0  0  0  0  0  0  0  0  0  0
   -2.3910    2.2325    0.0000 C   0  0  0  0  0  0  0  0  0  0  0  0
   -2.3910    3.0575    0.0000 N   0  0  0  0  0  0  0  0  0  0  0  0
   -3.0585    3.5425    0.0000 C   0  0  0  0  0  0  0  0  0  0  0  0
   -2.8035    4.3271    0.0000 C   0  0  0  0  0  0  0  0  0  0  0  0
   -1.9785    4.3271    0.0000 C   0  0  0  0  0  0  0  0  0  0  0  0
   -1.7236    3.5425    0.0000 C   0  0  0  0  0  0  0  0  0  0  0  0
  1  2  1  0
  1 11  1  0
  1 13  1  6
  2  3  1  0
  2 20  1  6
  3  4  1  0
  4  5  2  0
  4 10  1  0
  5  6  1  0
  6  7  2  0
  7  8  1  0
  7  9  1  0
  9 10  2  0
 10 11  1  0
 11 12  1  1
 13 14  2  0
 13 19  1  0
 14 15  1  0
 15 16  2  0
 16 17  1  0
 16 18  1  0
 18 19  2  0
 20 21  2  0
 20 25  1  0
 21 22  1  0
 22 23  2  0
 23 24  1  0
 23 26  1  0
 24 25  2  0
 26 27  1  0
 27 28  1  0
 28 29  1  0
 29 30  1  0
 29 33  1  0
 30 31  1  0
 31 32  1  0
 32 33  1  0
M  END
>  <DRUGBANK_ID>  (1) 
DB07567

>  <COMMON_NAME>  (1) 
(2R,3R,4S)-3-(4-HYDROXYPHENYL)-4-METHYL-2-[4-(2-PYRROLIDIN-1-YLETHOXY)PHENYL]CHROMAN-6-OL

$$$$
