
     RDKit          2D

 33 36  0  0  0  0  0  0  0  0999 V2000
    0.3196   -1.4640    0.0000 C   0  0  0  0  0  0  0  0  0  0  0  0
   -0.3914   -1.8823    0.0000 C   0  0  0  0  0  0  0  0  0  0  0  0
    0.3196   -0.6692    0.0000 C   0  0  0  0  0  0  0  0  0  0  0  0
    1.7000   -1.4640    0.0000 C   0  0  0  0  0  0  0  0  0  0  0  0
   -1.1024   -1.4640    0.0000 C   0  0  0  0  0  0  0  0  0  0  0  0
   -0.3914   -2.6770    0.0000 C   0  0  0  0  0  0  0  0  0  0  0  0
    1.0307   -0.2509    0.0000 C   0  0  0  0  0  0  0  0  0  0  0  0
   -0.3914   -0.2509    0.0000 C   0  0  0  0  0  0  0  0  0  0  0  0
    0.3196    0.1673    0.0000 C   0  0  0  0  0  0  0  0  0  0  0  0
    1.7000   -0.6692    0.0000 C   0  0  0  0  0  0  0  0  0  0  0  0
   -1.8135   -1.8823    0.0000 C   0  0  0  0  0  0  0  0  0  0  0  0
   -1.1024   -0.6692    0.0000 C   0  0  0  0  0  0  0  0  0  0  0  0
   -1.1024   -3.0953    0.0000 C   0  0  0  0  0  0  0  0  0  0  0  0
    1.0307    0.5856    0.0000 C   0  0  0  0  0  0  0  0  0  0  0  0
   -1.8135   -2.6770    0.0000 C   0  0  0  0  0  0  0  0  0  0  0  0
   -2.5246   -1.4640    0.0000 C   0  0  0  0  0  0  0  0  0  0  0  0
   -1.8135   -1.0457    0.0000 C   0  0  0  0  0  0  0  0  0  0  0  0
   -1.8135   -0.2509    0.0000 O   0  0  0  0  0  0  0  0  0  0  0  0
    1.7418    1.0038    0.0000 C   0  0  0  0  0  0  0  0  0  0  0  0
    0.3196    1.0038    0.0000 O   0  0  0  0  0  0  0  0  0  0  0  0
   -2.5246   -3.0953    0.0000 C   0  0  0  0  0  0  0  0  0  0  0  0
   -3.2357   -1.8823    0.0000 C   0  0  0  0  0  0  0  0  0  0  0  0
   -3.2357   -2.6770    0.0000 C   0  0  0  0  0  0  0  0  0  0  0  0
   -3.9468   -3.0953    0.0000 O   0  0  0  0  0  0  0  0  0  0  0  0
    1.8255   -0.0418    0.0000 O   0  0  0  0  0  0  0  0  0  0  0  0
    2.4994   -0.5375    0.0000 C   0  0  0  0  0  0  0  0  0  0  0  0
    2.4979   -1.3803    0.0000 O   0  0  0  0  0  0  0  0  0  0  0  0
    3.2400   -0.1637    0.0000 C   0  0  0  0  0  0  0  0  0  0  0  0
    3.9468   -0.6267    0.0000 C   0  0  0  0  0  0  0  0  0  0  0  0
    1.7350    1.8404    0.0000 O   0  0  0  0  0  0  0  0  0  0  0  0
    2.4611    2.2676    0.0000 C   0  0  0  0  0  0  0  0  0  0  0  0
    3.1866    1.8566    0.0000 C   0  0  0  0  0  0  0  0  0  0  0  0
    2.4543    3.0953    0.0000 O   0  0  0  0  0  0  0  0  0  0  0  0
  1  2  1  0
  1  3  1  0
  1  4  1  1
  2  5  1  0
  2  6  1  6
  3  7  1  0
  3  8  1  0
  3  9  1  1
  4 10  1  0
  5 11  1  0
  5 12  1  1
  6 13  1  0
  7 14  1  0
  7 10  1  0
  7 25  1  6
  8 12  1  0
 11 15  1  0
 11 16  1  0
 11 17  1  1
 12 18  1  1
 13 15  1  0
 14 19  1  0
 14 20  2  0
 15 21  2  0
 16 22  1  0
 19 30  1  0
 21 23  1  0
 22 23  1  0
 23 24  2  0
 25 26  1  0
 26 27  2  0
 26 28  1  0
 28 29  1  0
 30 31  1  0
 31 32  1  0
 31 33  2  0
M  END
>  <DRUGBANK_ID>  (1) 
DB14538

>  <SECONDARY_ACCESSION_NUMBERS>  (1) 
DBSALT001278

>  <COMMON_NAME>  (1) 
Hydrocortisone aceponate

>  <CAS_NUMBER>  (1) 
74050-20-7

>  <UNII>  (1) 
2340UP1L2G

>  <SYNONYMS>  (1) 
Hydrocortisone aceponate

$$$$
