
     RDKit          2D

 30 34  0  0  0  0  0  0  0  0999 V2000
    1.5226    0.3383    0.0000 C   0  0  0  0  0  0  0  0  0  0  0  0
    0.7251    0.0967    0.0000 C   0  0  0  0  0  0  0  0  0  0  0  0
    0.7251   -0.7250    0.0000 C   0  0  0  0  0  0  0  0  0  0  0  0
   -1.4259   -1.1601    0.0000 C   0  0  0  0  0  0  0  0  0  0  0  0
    0.0241   -1.1601    0.0000 C   0  0  0  0  0  0  0  0  0  0  0  0
    1.9819   -0.3142    0.0000 C   0  0  0  0  0  0  0  0  0  0  0  0
   -0.7009   -0.7250    0.0000 C   0  0  0  0  0  0  0  0  0  0  0  0
   -1.4259   -2.0061    0.0000 C   0  0  0  0  0  0  0  0  0  0  0  0
    0.0241    0.5075    0.0000 C   0  0  0  0  0  0  0  0  0  0  0  0
   -0.7009    0.0967    0.0000 C   0  0  0  0  0  0  0  0  0  0  0  0
   -2.1511   -0.7250    0.0000 C   0  0  0  0  0  0  0  0  0  0  0  0
    1.5226   -1.0151    0.0000 C   0  0  0  0  0  0  0  0  0  0  0  0
   -2.1511   -2.3928    0.0000 C   0  0  0  0  0  0  0  0  0  0  0  0
    0.0241   -2.0061    0.0000 C   0  0  0  0  0  0  0  0  0  0  0  0
   -2.8761   -1.1601    0.0000 C   0  0  0  0  0  0  0  0  0  0  0  0
   -2.8761   -2.0061    0.0000 C   0  0  0  0  0  0  0  0  0  0  0  0
   -0.7009   -2.3928    0.0000 C   0  0  0  0  0  0  0  0  0  0  0  0
   -3.6012   -2.4169    0.0000 O   0  0  0  0  0  0  0  0  0  0  0  0
    0.7251    0.9184    0.0000 C   0  0  0  0  0  0  0  0  0  0  0  0
   -1.4259    0.5317    0.0000 O   0  0  0  0  0  0  0  0  0  0  0  0
   -1.4259   -0.3142    0.0000 C   0  0  0  0  0  0  0  0  0  0  0  0
    2.0061    0.9909    0.0000 O   0  0  0  0  0  0  0  0  0  0  0  0
    2.7795    0.7251    0.0000 C   0  0  0  0  0  0  0  0  0  0  0  0
    2.7554   -0.0724    0.0000 O   0  0  0  0  0  0  0  0  0  0  0  0
    1.5226    1.1843    0.0000 C   0  0  0  0  0  0  0  0  0  0  0  0
    2.2236    1.5951    0.0000 C   0  0  0  0  0  0  0  0  0  0  0  0
    0.8218    1.5951    0.0000 O   0  0  0  0  0  0  0  0  0  0  0  0
    2.2236    2.4169    0.0000 O   0  0  0  0  0  0  0  0  0  0  0  0
    3.6012    0.7251    0.0000 C   0  0  0  0  0  0  0  0  0  0  0  0
    3.3597    1.3052    0.0000 C   0  0  0  0  0  0  0  0  0  0  0  0
  1 22  1  0
  1 25  1  1
  2  1  1  0
  2 19  1  1
  3  2  1  0
  4 21  1  1
  5  3  1  0
  6  1  1  0
  6 24  1  0
  7  4  1  0
  7  5  1  0
  8  4  1  0
  9  2  1  0
  7 10  1  1
 10  9  1  0
 10 20  1  1
 11  4  1  0
  3 12  1  1
  6 12  1  6
 13  8  2  0
  5 14  1  6
 15 11  2  0
 16 13  1  0
 16 15  1  0
 17  8  1  0
 17 14  1  0
 18 16  2  0
 23 22  1  0
 24 23  1  0
 26 25  1  0
 27 25  2  0
 28 26  1  0
 29 23  1  0
 30 23  1  0
M  END
>  <DRUGBANK_ID>  (1) 
DB01260

>  <COMMON_NAME>  (1) 
Desonide

>  <CAS_NUMBER>  (1) 
638-94-8

>  <UNII>  (1) 
J280872D1O

>  <SYNONYMS>  (1) 
11β,21-dihydroxy-16α,17-[(1-methylethylidene)bis(oxy)]pregna-1,4-diene-3,20-dione; 11β,21-dihydroxy-16α,17-isopropylidenedioxypregna-1,4-diene-3,20-dione; 11β,21-dihydroxy-16α,17α-isopropylidenedioxypregna-1,4-diene-3,20-dione; 16α-hydroxyprednisole-16,17-acetonide; 16α-hydroxyprednisolone-16α,17-acetonide; 16α,17α-isopropylidenedioxyprednisolone; Desfluorotriamcinolone acetonide; Desonida; Desonide; Desonidum

$$$$
