
     RDKit          2D

 21 22  0  0  0  0  0  0  0  0999 V2000
   -2.4145   -1.3885    0.0000 P   0  0  0  0  0  0  0  0  0  0  0  0
    3.2367    1.7251    0.0000 F   0  0  0  0  0  0  0  0  0  0  0  0
    0.4661   -0.6182    0.0000 O   0  0  0  0  0  0  0  0  0  0  0  0
   -1.5924   -1.3885    0.0000 O   0  0  0  0  0  0  0  0  0  0  0  0
   -0.4337   -2.5473    0.0000 O   0  0  0  0  0  0  0  0  0  0  0  0
    0.3754    0.0680    0.0000 O   0  0  0  0  0  0  0  0  0  0  0  0
    1.7996    2.5473    0.0000 O   0  0  0  0  0  0  0  0  0  0  0  0
   -2.4145   -2.2042    0.0000 O   0  0  0  0  0  0  0  0  0  0  0  0
   -3.2367   -1.3885    0.0000 O   0  0  0  0  0  0  0  0  0  0  0  0
   -2.4145   -0.5599    0.0000 O   0  0  0  0  0  0  0  0  0  0  0  0
    1.7996    0.0615    0.0000 N   0  0  0  0  0  0  0  0  0  0  0  0
    1.0940    1.3109    0.0000 N   0  0  0  0  0  0  0  0  0  0  0  0
    1.1394   -1.0972    0.0000 C   0  0  0  0  0  0  0  0  0  0  0  0
   -0.1941   -1.0972    0.0000 C   0  0  0  0  0  0  0  0  0  0  0  0
    0.0517   -1.8805    0.0000 C   0  0  0  0  0  0  0  0  0  0  0  0
    1.0940    0.4822    0.0000 C   0  0  0  0  0  0  0  0  0  0  0  0
    0.8804   -1.8805    0.0000 C   0  0  0  0  0  0  0  0  0  0  0  0
    2.5247    0.4822    0.0000 C   0  0  0  0  0  0  0  0  0  0  0  0
    2.5247    1.3109    0.0000 C   0  0  0  0  0  0  0  0  0  0  0  0
    1.7996    1.7251    0.0000 C   0  0  0  0  0  0  0  0  0  0  0  0
   -0.9774   -0.8383    0.0000 C   0  0  0  0  0  0  0  0  0  0  0  0
  1  4  1  0
  1  8  2  0
  1  9  1  0
  1 10  1  0
  2 19  1  0
  3 13  1  0
  3 14  1  0
  4 21  1  0
  6 16  2  0
  7 20  2  0
 11 16  1  0
 11 18  1  0
 12 16  1  0
 12 20  1  0
 13 11  1  1
 13 17  1  0
 14 15  1  0
 14 21  1  1
 15  5  1  6
 15 17  1  0
 18 19  2  0
 19 20  1  0
M  END
>  <DRUGBANK_ID>  (1) 
DB03761

>  <SECONDARY_ACCESSION_NUMBERS>  (1) 
EXPT03176

>  <COMMON_NAME>  (1) 
5-fluoro-2'-deoxyuridine-5'-monophosphate

>  <CAS_NUMBER>  (1) 
134-46-3

>  <UNII>  (1) 
7CJ707H131

>  <SYNONYMS>  (1) 
5-fluorodeoxyuridine monophosphate; 5FdUMP; F-dUMP

$$$$
