
     RDKit          2D

 16 16  0  0  1  0  0  0  0  0999 V2000
    0.0000   -2.4750    0.0000 C   0  0  0  0  0  0  0  0  0  0  0  0
    0.7145   -2.8875    0.0000 C   0  0  0  0  0  0  0  0  0  0  0  0
    1.4289   -2.4750    0.0000 C   0  0  0  0  0  0  0  0  0  0  0  0
    2.1434   -2.8875    0.0000 C   0  0  0  0  0  0  0  0  0  0  0  0
    2.8579   -2.4750    0.0000 C   0  0  0  0  0  0  0  0  0  0  0  0
    3.5724   -2.8875    0.0000 N   0  0  0  0  0  0  0  0  0  0  0  0
    4.2868   -2.4750    0.0000 C   0  0  0  0  0  0  0  0  0  0  0  0
    5.0013   -2.8875    0.0000 C   0  0  0  0  0  0  0  0  0  0  0  0
    5.7158   -2.4750    0.0000 O   0  0  0  0  0  0  0  0  0  0  0  0
    5.0013   -3.7125    0.0000 C   0  0  0  0  0  0  0  0  0  0  0  0
    5.7158   -4.1250    0.0000 O   0  0  0  0  0  0  0  0  0  0  0  0
    4.2868   -4.1250    0.0000 C   0  0  0  0  0  0  0  0  0  0  0  0
    4.2868   -4.9500    0.0000 O   0  0  0  0  0  0  0  0  0  0  0  0
    3.5724   -3.7125    0.0000 C   0  0  0  0  0  0  0  0  0  0  0  0
    2.8579   -4.1250    0.0000 C   0  0  0  0  0  0  0  0  0  0  0  0
    2.1434   -3.7125    0.0000 O   0  0  0  0  0  0  0  0  0  0  0  0
  1  2  1  0
  2  3  1  0
  3  4  1  0
  4  5  1  0
  5  6  1  0
  6  7  1  0
  8  7  1  0
  8  9  1  6
 10  8  1  0
 10 11  1  1
 10 12  1  0
 12 13  1  6
 12 14  1  0
 14  6  1  0
 14 15  1  6
 15 16  1  0
M  END
>  <DRUGBANK_ID>  (1) 
DB17619

>  <COMMON_NAME>  (1) 
Sinbaglustat

>  <CAS_NUMBER>  (1) 
441061-33-2

>  <UNII>  (1) 
T5Y7NB5M2U

>  <SYNONYMS>  (1) 
(2s,3r,4r,5s)-2-(hydroxymethyl)-1-pentyl-3,4,5-piperidinetriol; (2S,3R,4R,5S)-2-(Hydroxymethyl)-1-Pentylpiperidine-3,4,5-Triol; 3,4,5-piperidinetriol, 2-(hydroxymethyl)-1-pentyl-, (2s,3r,4r,5s)-; ACT-519276; OGT-2378; OGT2378; Sinbaglustat

$$$$
