
     RDKit          2D

 21 23  0  0  0  0  0  0  0  0999 V2000
    0.9608   -0.6475    0.0000 S   0  0  0  0  0  0  0  0  0  0  0  0
   -1.0817    0.2610    0.0000 N   0  0  0  0  0  0  0  0  0  0  0  0
    2.3529    0.8283    0.0000 N   0  0  0  0  0  0  0  0  0  0  0  0
    0.3928   -0.0262    0.0000 C   0  0  0  0  0  0  0  0  0  0  0  0
   -0.4279   -0.2139    0.0000 C   0  0  0  0  0  0  0  0  0  0  0  0
   -0.6776   -0.9826    0.0000 C   0  0  0  0  0  0  0  0  0  0  0  0
    0.9871    0.5214    0.0000 C   0  0  0  0  0  0  0  0  0  0  0  0
   -0.1240   -1.6168    0.0000 C   0  0  0  0  0  0  0  0  0  0  0  0
   -1.4858   -0.9826    0.0000 C   0  0  0  0  0  0  0  0  0  0  0  0
   -1.7356   -0.2139    0.0000 C   0  0  0  0  0  0  0  0  0  0  0  0
    0.7006   -1.4481    0.0000 C   0  0  0  0  0  0  0  0  0  0  0  0
    0.2156    0.7623    0.0000 C   0  0  0  0  0  0  0  0  0  0  0  0
    1.7585    0.2805    0.0000 C   0  0  0  0  0  0  0  0  0  0  0  0
   -1.0817    1.0692    0.0000 C   0  0  0  0  0  0  0  0  0  0  0  0
   -2.0394   -1.6168    0.0000 C   0  0  0  0  0  0  0  0  0  0  0  0
   -2.5563   -0.0262    0.0000 C   0  0  0  0  0  0  0  0  0  0  0  0
   -1.7817    1.4733    0.0000 C   0  0  0  0  0  0  0  0  0  0  0  0
   -2.8642   -1.4481    0.0000 C   0  0  0  0  0  0  0  0  0  0  0  0
   -3.1244   -0.6475    0.0000 C   0  0  0  0  0  0  0  0  0  0  0  0
    3.1244    0.5875    0.0000 C   0  0  0  0  0  0  0  0  0  0  0  0
    2.1758    1.6168    0.0000 C   0  0  0  0  0  0  0  0  0  0  0  0
  1  4  1  0
  1 11  1  0
  2  5  1  0
  2 10  1  0
  2 14  1  0
  3 13  1  0
  3 20  1  0
  3 21  1  0
  4  5  1  0
  4  7  1  0
  4 12  1  0
  5  6  2  0
  6  8  1  0
  6  9  1  0
  7 13  1  0
  8 11  1  0
  9 10  2  0
  9 15  1  0
 10 16  1  0
 14 17  1  0
 15 18  2  0
 16 19  2  0
 18 19  1  0
M  END
>  <DRUGBANK_ID>  (1) 
DB09192

>  <COMMON_NAME>  (1) 
Tandamine

>  <CAS_NUMBER>  (1) 
42408-80-0

>  <UNII>  (1) 
6L5FH5A43E

>  <SYNONYMS>  (1) 
Tandamine

$$$$
