
     RDKit          2D

 29 30  0  0  1  0  0  0  0  0999 V2000
   -3.2929   -2.2370    0.0000 C   0  0  0  0  0  0  0  0  0  0  0  0
   -2.5785   -1.8245    0.0000 C   0  0  0  0  0  0  0  0  0  0  0  0
   -2.5785   -0.9995    0.0000 C   0  0  0  0  0  0  0  0  0  0  0  0
   -1.8640   -2.2370    0.0000 C   0  0  0  0  0  0  0  0  0  0  0  0
   -1.8640   -3.0620    0.0000 O   0  0  0  0  0  0  0  0  0  0  0  0
   -1.1495   -1.8245    0.0000 O   0  0  0  0  0  0  0  0  0  0  0  0
   -0.4351   -2.2370    0.0000 C   0  0  0  0  0  0  0  0  0  0  0  0
    0.2794   -1.8245    0.0000 C   0  0  0  0  0  0  0  0  0  0  0  0
    0.6150   -2.5782    0.0000 C   0  0  0  0  0  0  0  0  0  0  0  0
    0.1300   -3.2456    0.0000 Cl  0  0  0  0  0  0  0  0  0  0  0  0
   -0.2055   -1.1571    0.0000 O   0  0  0  0  0  0  0  0  0  0  0  0
    0.2794   -0.4896    0.0000 C   0  0  0  0  0  0  0  0  0  0  0  0
    1.0640   -0.7446    0.0000 C   0  0  0  0  0  0  0  0  0  0  0  0
    1.7315   -0.2596    0.0000 F   0  0  0  0  0  0  0  0  0  0  0  0
    1.0640   -1.5696    0.0000 C   0  0  0  0  0  0  0  0  0  0  0  0
    1.7315   -2.0545    0.0000 O   0  0  0  0  0  0  0  0  0  0  0  0
    1.6452   -2.8750    0.0000 C   0  0  0  0  0  0  0  0  0  0  0  0
    0.8916   -3.2105    0.0000 O   0  0  0  0  0  0  0  0  0  0  0  0
    2.3127   -3.3599    0.0000 C   0  0  0  0  0  0  0  0  0  0  0  0
    3.0663   -3.0243    0.0000 C   0  0  0  0  0  0  0  0  0  0  0  0
    2.2264   -4.1804    0.0000 C   0  0  0  0  0  0  0  0  0  0  0  0
    0.0245    0.2950    0.0000 N   0  0  0  0  0  0  0  0  0  0  0  0
   -0.7825    0.4665    0.0000 C   0  0  0  0  0  0  0  0  0  0  0  0
   -1.0374    1.2511    0.0000 C   0  0  0  0  0  0  0  0  0  0  0  0
   -0.4854    1.8642    0.0000 C   0  0  0  0  0  0  0  0  0  0  0  0
   -0.7403    2.6489    0.0000 N   0  0  0  0  0  0  0  0  0  0  0  0
    0.3216    1.6927    0.0000 N   0  0  0  0  0  0  0  0  0  0  0  0
    0.5765    0.9081    0.0000 C   0  0  0  0  0  0  0  0  0  0  0  0
    1.3835    0.7366    0.0000 O   0  0  0  0  0  0  0  0  0  0  0  0
  1  2  1  0
  2  3  1  0
  2  4  1  0
  4  5  2  0
  4  6  1  0
  6  7  1  0
  8  7  1  1
  8  9  1  0
  8 11  1  0
  9 10  1  0
 12 11  1  0
 12 22  1  1
 13 12  1  0
 13 14  1  6
 13 15  1  0
 15  8  1  0
 15 16  1  6
 16 17  1  0
 17 18  2  0
 17 19  1  0
 19 20  1  0
 19 21  1  0
 22 23  1  0
 22 28  1  0
 23 24  2  0
 24 25  1  0
 25 26  1  0
 25 27  2  0
 27 28  1  0
 28 29  2  0
M  END
>  <DRUGBANK_ID>  (1) 
DB14808

>  <COMMON_NAME>  (1) 
Lumicitabine

>  <CAS_NUMBER>  (1) 
1445385-02-3

>  <UNII>  (1) 
BNW5PQ52G1

>  <SYNONYMS>  (1) 
ALS-008176; Lumicitabine

$$$$
