BS1
     RDKit          2D

 26 30  0  0  0  0  0  0  0  0999 V2000
   -2.1257   -1.2710    0.0000 C   0  0  0  0  0  0  0  0  0  0  0  0
   -1.4496   -1.7438    0.0000 N   0  0  0  0  0  0  0  0  0  0  0  0
   -1.7183   -2.5238    0.0000 C   0  0  0  0  0  0  0  0  0  0  0  0
   -0.8964   -1.2946    0.0000 C   0  0  0  0  0  0  0  0  0  0  0  0
   -0.2764   -1.7641    0.0000 C   0  0  0  0  0  0  0  0  0  0  0  0
   -0.0463   -2.4525    0.0000 C   0  0  0  0  0  0  0  0  0  0  0  0
   -0.6257   -1.7877    0.0000 C   0  0  0  0  0  0  0  0  0  0  0  0
   -0.7057   -0.3854    0.0000 C   0  0  0  0  0  0  0  0  0  0  0  0
    0.1220   -0.4318    0.0000 C   0  0  0  0  0  0  0  0  0  0  0  0
   -0.4104   -0.8402    0.0000 C   0  0  0  0  0  0  0  0  0  0  0  0
    0.9103   -0.1886    0.0000 O   0  0  0  0  0  0  0  0  0  0  0  0
    1.0939    0.6157    0.0000 C   0  0  0  0  0  0  0  0  0  0  0  0
    0.4489    1.1301    0.0000 C   0  0  0  0  0  0  0  0  0  0  0  0
   -0.2656    0.7176    0.0000 C   0  0  0  0  0  0  0  0  0  0  0  0
   -0.9801    1.1301    0.0000 C   0  0  0  0  0  0  0  0  0  0  0  0
   -0.9801    1.9551    0.0000 C   0  0  0  0  0  0  0  0  0  0  0  0
   -0.2656    2.3676    0.0000 C   0  0  0  0  0  0  0  0  0  0  0  0
    0.4489    1.9551    0.0000 C   0  0  0  0  0  0  0  0  0  0  0  0
    1.0939    2.4695    0.0000 C   0  0  0  0  0  0  0  0  0  0  0  0
    1.8982    2.2859    0.0000 C   0  0  0  0  0  0  0  0  0  0  0  0
    2.2562    1.5426    0.0000 C   0  0  0  0  0  0  0  0  0  0  0  0
    3.0789    1.6043    0.0000 C   0  0  0  0  0  0  0  0  0  0  0  0
    3.5436    0.9226    0.0000 C   0  0  0  0  0  0  0  0  0  0  0  0
    3.1856    0.1793    0.0000 C   0  0  0  0  0  0  0  0  0  0  0  0
    2.3630    0.1177    0.0000 C   0  0  0  0  0  0  0  0  0  0  0  0
    1.8982    0.7993    0.0000 C   0  0  0  0  0  0  0  0  0  0  0  0
  1  2  1  0
  2  3  1  0
  2  4  1  0
  2  7  1  0
  4  5  1  6
  4  8  1  0
  5  6  1  0
  7  6  1  1
  7 10  1  0
  8  9  1  0
  9 10  1  0
  9 11  1  6
 11 12  1  0
 12 13  1  0
 12 26  1  0
 13 14  2  0
 13 18  1  0
 14 15  1  0
 15 16  2  0
 16 17  1  0
 17 18  2  0
 18 19  1  0
 19 20  1  0
 20 21  1  0
 21 22  1  0
 21 26  2  0
 22 23  2  0
 23 24  1  0
 24 25  2  0
 25 26  1  0
M  CHG  1   2   1
M  END
>  <DRUGBANK_ID>  (1) 
DB07494

>  <COMMON_NAME>  (1) 
(3-EXO)-3-(10,11-DIHYDRO-5H-DIBENZO[A,D][7]ANNULEN-5-YLOXY)-8,8-DIMETHYL-8-AZONIABICYCLO[3.2.1]OCTANE

$$$$
