73Q
     RDKit          2D

 18 20  0  0  0  0  0  0  0  0999 V2000
   -1.2177   -1.4445    0.0000 C   0  0  0  0  0  0  0  0  0  0  0  0
   -0.9627   -0.6599    0.0000 C   0  0  0  0  0  0  0  0  0  0  0  0
   -1.4476    0.0076    0.0000 N   0  0  0  0  0  0  0  0  0  0  0  0
   -0.9627    0.6750    0.0000 N   0  0  0  0  0  0  0  0  0  0  0  0
   -1.2177    1.4596    0.0000 C   0  0  0  0  0  0  0  0  0  0  0  0
   -0.1781    0.4201    0.0000 C   0  0  0  0  0  0  0  0  0  0  0  0
    0.5364    0.8326    0.0000 N   0  0  0  0  0  0  0  0  0  0  0  0
    0.5364    1.6576    0.0000 O   0  0  0  0  0  0  0  0  0  0  0  0
    1.2508    0.4201    0.0000 C   0  0  0  0  0  0  0  0  0  0  0  0
    1.9653    0.8326    0.0000 C   0  0  0  0  0  0  0  0  0  0  0  0
    2.6798    0.4201    0.0000 C   0  0  0  0  0  0  0  0  0  0  0  0
    2.6798   -0.4049    0.0000 C   0  0  0  0  0  0  0  0  0  0  0  0
    3.3943   -0.8174    0.0000 Cl  0  0  0  0  0  0  0  0  0  0  0  0
    1.9653   -0.8174    0.0000 C   0  0  0  0  0  0  0  0  0  0  0  0
    1.2508   -0.4049    0.0000 C   0  0  0  0  0  0  0  0  0  0  0  0
    0.5364   -0.8174    0.0000 C   0  0  0  0  0  0  0  0  0  0  0  0
    0.5364   -1.6424    0.0000 O   0  0  0  0  0  0  0  0  0  0  0  0
   -0.1781   -0.4049    0.0000 C   0  0  0  0  0  0  0  0  0  0  0  0
  1  2  1  0
  2  3  2  0
  2 18  1  0
  3  4  1  0
  4  5  1  0
  4  6  1  0
  6  7  1  0
  6 18  2  0
  7  8  1  0
  7  9  1  0
  9 10  1  0
  9 15  2  0
 10 11  2  0
 11 12  1  0
 12 13  1  0
 12 14  2  0
 14 15  1  0
 15 16  1  0
 16 17  2  0
 16 18  1  0
M  END
>  <DRUGBANK_ID>  (1) 
DB07218

>  <COMMON_NAME>  (1) 
6-CHLORO-9-HYDROXY-1,3-DIMETHYL-1,9-DIHYDRO-4H-PYRAZOLO[3,4-B]QUINOLIN-4-ONE

$$$$
