M2C
     RDKit          2D

 15 15  0  0  0  0  0  0  0  0999 V2000
    0.0518    0.6974    0.0000 O   0  0  0  0  0  0  0  0  0  0  0  0
   -0.3607   -0.0171    0.0000 C   0  0  0  0  0  0  0  0  0  0  0  0
   -0.7732   -0.7315    0.0000 O   0  0  0  0  0  0  0  0  0  0  0  0
    0.3537   -0.4296    0.0000 C   0  0  0  0  0  0  0  0  0  0  0  0
    1.0682   -0.0171    0.0000 C   0  0  0  0  0  0  0  0  0  0  0  0
    1.7827   -0.4296    0.0000 C   0  0  0  0  0  0  0  0  0  0  0  0
    2.4971   -0.0171    0.0000 S   0  0  0  0  0  0  0  0  0  0  0  0
    3.2116   -0.4296    0.0000 C   0  0  0  0  0  0  0  0  0  0  0  0
    0.3537   -1.2546    0.0000 N   0  0  0  0  0  0  0  0  0  0  0  0
   -1.0752    0.3954    0.0000 C   0  0  0  0  0  0  0  0  0  0  0  0
   -1.7897   -0.0171    0.0000 C   0  0  0  0  0  0  0  0  0  0  0  0
   -2.5042    0.3954    0.0000 C   0  0  0  0  0  0  0  0  0  0  0  0
   -2.5042    1.2204    0.0000 C   0  0  0  0  0  0  0  0  0  0  0  0
   -1.7897    1.6329    0.0000 C   0  0  0  0  0  0  0  0  0  0  0  0
   -1.0752    1.2204    0.0000 N   0  0  0  0  0  0  0  0  0  0  0  0
  1  2  1  0
  2  3  1  0
  2  4  1  0
  2 10  1  0
  4  5  1  0
  4  9  1  6
  5  6  1  0
  6  7  1  0
  7  8  1  0
 10 11  2  0
 10 15  1  0
 11 12  1  0
 12 13  2  0
 13 14  1  0
 14 15  2  0
M  END
>  <DRUGBANK_ID>  (1) 
DB01882

>  <SECONDARY_ACCESSION_NUMBERS>  (1) 
EXPT02085

>  <COMMON_NAME>  (1) 
(2s)-2-Amino-4-(Methylsulfanyl)-1-Pyridin-2-Ylbutane-1,1-Diol

$$$$
