2S8
     RDKit          2D

 27 28  0  0  0  0  0  0  0  0999 V2000
   -3.7469    1.6748    0.0000 O   0  0  0  0  0  0  0  0  0  0  0  0
   -3.0324    1.2623    0.0000 C   0  0  0  0  0  0  0  0  0  0  0  0
   -2.3179    1.6748    0.0000 O   0  0  0  0  0  0  0  0  0  0  0  0
   -3.0324    0.4373    0.0000 C   0  0  0  0  0  0  0  0  0  0  0  0
   -3.7469    0.0248    0.0000 C   0  0  0  0  0  0  0  0  0  0  0  0
   -4.5005    0.3603    0.0000 C   0  0  0  0  0  0  0  0  0  0  0  0
   -5.0526   -0.2528    0.0000 N   0  0  0  0  0  0  0  0  0  0  0  0
   -4.6401   -0.9672    0.0000 C   0  0  0  0  0  0  0  0  0  0  0  0
   -4.8950   -1.7519    0.0000 C   0  0  0  0  0  0  0  0  0  0  0  0
   -4.3430   -2.3650    0.0000 C   0  0  0  0  0  0  0  0  0  0  0  0
   -3.5360   -2.1934    0.0000 C   0  0  0  0  0  0  0  0  0  0  0  0
   -3.2811   -1.4088    0.0000 C   0  0  0  0  0  0  0  0  0  0  0  0
   -3.8331   -0.7957    0.0000 C   0  0  0  0  0  0  0  0  0  0  0  0
   -2.3179    0.0248    0.0000 C   0  0  0  0  0  0  0  0  0  0  0  0
   -1.6034    0.4373    0.0000 C   0  0  0  0  0  0  0  0  0  0  0  0
   -0.8890    0.0248    0.0000 C   0  0  0  0  0  0  0  0  0  0  0  0
   -0.1745    0.4373    0.0000 C   0  0  0  0  0  0  0  0  0  0  0  0
    0.5400    0.0248    0.0000 C   0  0  0  0  0  0  0  0  0  0  0  0
    1.2544    0.4373    0.0000 C   0  0  0  0  0  0  0  0  0  0  0  0
    1.9689    0.0248    0.0000 N   0  0  0  0  0  0  0  0  0  0  0  0
    2.6834    0.4373    0.0000 C   0  0  0  0  0  0  0  0  0  0  0  0
    2.6834    1.2623    0.0000 O   0  0  0  0  0  0  0  0  0  0  0  0
    3.3979    0.0248    0.0000 O   0  0  0  0  0  0  0  0  0  0  0  0
    4.1123    0.4373    0.0000 C   0  0  0  0  0  0  0  0  0  0  0  0
    4.8268    0.8498    0.0000 C   0  0  0  0  0  0  0  0  0  0  0  0
    3.6998    1.1517    0.0000 C   0  0  0  0  0  0  0  0  0  0  0  0
    4.5248   -0.2772    0.0000 C   0  0  0  0  0  0  0  0  0  0  0  0
  2  1  1  0
  3  2  2  0
  4  2  1  0
  4  5  1  0
  4 14  1  1
  5 13  1  0
  6  5  2  0
  6  7  1  0
  7  8  1  0
  8 13  2  0
  8  9  1  0
  9 10  2  0
 10 11  1  0
 12 11  2  0
 13 12  1  0
 15 14  1  0
 16 15  1  0
 16 17  1  0
 18 17  1  0
 19 18  1  0
 19 20  1  0
 20 21  1  0
 21 23  1  0
 22 21  2  0
 23 24  1  0
 24 25  1  0
 24 27  1  0
 26 24  1  0
M  END
>  <DRUGBANK_ID>  (1) 
DB06982

>  <COMMON_NAME>  (1) 
(2S)-8-[(tert-butoxycarbonyl)amino]-2-(1H-indol-3-yl)octanoic acid

$$$$
