
     RDKit          2D

 32 35  0  0  1  0  0  0  0  0999 V2000
   -1.7029    0.2165    0.0000 C   0  0  0  0  0  0  0  0  0  0  0  0
   -2.4173   -0.1960    0.0000 C   0  0  0  0  0  0  0  0  0  0  0  0
   -1.7029   -1.4335    0.0000 C   0  0  0  0  0  0  0  0  0  0  0  0
   -0.2739   -1.4335    0.0000 C   0  0  0  0  0  0  0  0  0  0  0  0
   -0.9884   -0.1960    0.0000 C   0  0  0  0  0  0  0  0  0  0  0  0
   -0.2739    1.0415    0.0000 C   0  0  0  0  0  0  0  0  0  0  0  0
    0.4405    1.4540    0.0000 C   0  0  0  0  0  0  0  0  0  0  0  0
    1.9396   -0.0384    0.0000 C   0  0  0  0  0  0  0  0  0  0  0  0
    2.4246    0.6290    0.0000 C   0  0  0  0  0  0  0  0  0  0  0  0
   -0.9884    0.6290    0.0000 C   0  0  0  0  0  0  0  0  0  0  0  0
   -0.2739    0.2165    0.0000 C   0  0  0  0  0  0  0  0  0  0  0  0
    0.4405   -0.1960    0.0000 C   0  0  0  0  0  0  0  0  0  0  0  0
    1.1550    0.2165    0.0000 C   0  0  0  0  0  0  0  0  0  0  0  0
    1.1550    1.0415    0.0000 C   0  0  0  0  0  0  0  0  0  0  0  0
    1.1550    1.8665    0.0000 C   0  0  0  0  0  0  0  0  0  0  0  0
    3.3686    2.1214    0.0000 C   0  0  0  0  0  0  0  0  0  0  0  0
    2.6541    2.5339    0.0000 C   0  0  0  0  0  0  0  0  0  0  0  0
    1.2251    2.5339    0.0000 C   0  0  0  0  0  0  0  0  0  0  0  0
    1.9396    2.1214    0.0000 C   0  0  0  0  0  0  0  0  0  0  0  0
    1.9396    1.2964    0.0000 C   0  0  0  0  0  0  0  0  0  0  0  0
   -2.4173   -1.0210    0.0000 C   0  0  0  0  0  0  0  0  0  0  0  0
   -3.1318   -1.4335    0.0000 O   0  0  0  0  0  0  0  0  0  0  0  0
    0.4405   -1.0210    0.0000 C   0  0  0  0  0  0  0  0  0  0  0  0
    1.1550   -1.4335    0.0000 O   0  0  0  0  0  0  0  0  0  0  0  0
   -0.9884   -1.0210    0.0000 C   0  0  0  0  0  0  0  0  0  0  0  0
    4.0830    2.5339    0.0000 C   0  0  0  0  0  0  0  0  0  0  0  0
    4.0830    3.3589    0.0000 O   0  0  0  0  0  0  0  0  0  0  0  0
    4.7975    2.1214    0.0000 N   0  0  0  0  0  0  0  0  0  0  0  0
    5.5119    2.5339    0.0000 C   0  0  0  0  0  0  0  0  0  0  0  0
    6.9409    2.5339    0.0000 O   0  0  0  0  0  0  0  0  0  0  0  0
    6.2264    2.1214    0.0000 C   0  0  0  0  0  0  0  0  0  0  0  0
    6.2264    1.2964    0.0000 O   0  0  0  0  0  0  0  0  0  0  0  0
  2  1  1  0
  4 23  1  0
  5 11  1  0
  5 10  1  1
  5  1  1  0
  6  7  1  0
  9  8  1  0
 11  6  1  1
 11 12  1  0
 12 13  1  0
 12 23  1  6
 13 14  1  0
 13  8  1  1
 14 20  1  0
 14  7  1  0
 14 15  1  1
 16 17  1  0
 16 26  1  0
 19 17  1  0
 19 18  1  6
 20  9  1  1
 20 19  1  0
 21  3  1  0
 21  2  1  0
 21 22  1  6
 23 24  1  6
 25  5  1  0
 25  3  1  6
 25  4  1  0
 26 28  1  0
 26 27  2  0
 28 29  1  0
 29 31  1  0
 31 30  1  0
 31 32  2  0
M  END
>  <DRUGBANK_ID>  (1) 
DB02123

>  <SECONDARY_ACCESSION_NUMBERS>  (1) 
EXPT00909

>  <COMMON_NAME>  (1) 
Glycochenodeoxycholic Acid

>  <CAS_NUMBER>  (1) 
640-79-9

>  <UNII>  (1) 
451ZNJ667Y

$$$$
