
     RDKit          2D

 38 39  0  0  0  0  0  0  0  0999 V2000
    2.4989    0.2062    0.0000 C   0  0  0  0  0  0  0  0  0  0  0  0
    3.2147   -0.2062    0.0000 C   0  0  0  0  0  0  0  0  0  0  0  0
    3.9304    0.2062    0.0000 C   0  0  0  0  0  0  0  0  0  0  0  0
    4.6340   -0.2062    0.0000 C   0  0  0  0  0  0  0  0  0  0  0  0
    4.6340   -1.0311    0.0000 N   0  0  0  0  0  0  0  0  0  0  0  0
    5.3497    0.2062    0.0000 N   0  0  0  0  0  0  0  0  0  0  0  0
    5.3497    1.0311    0.0000 C   0  0  0  0  0  0  0  0  0  0  0  0
    6.0655    1.4435    0.0000 N   0  0  0  0  0  0  0  0  0  0  0  0
    4.6340    1.4435    0.0000 N   0  0  0  0  0  0  0  0  0  0  0  0
    3.9304    1.0311    0.0000 C   0  0  0  0  0  0  0  0  0  0  0  0
    3.2147    1.4435    0.0000 O   0  0  0  0  0  0  0  0  0  0  0  0
    1.7832   -0.2062    0.0000 C   0  0  0  0  0  0  0  0  0  0  0  0
    1.0674    0.2062    0.0000 C   0  0  0  0  0  0  0  0  0  0  0  0
    0.3518   -0.2062    0.0000 C   0  0  0  0  0  0  0  0  0  0  0  0
   -0.3517    0.2062    0.0000 C   0  0  0  0  0  0  0  0  0  0  0  0
   -1.0674   -0.2062    0.0000 C   0  0  0  0  0  0  0  0  0  0  0  0
   -1.0674   -1.0311    0.0000 C   0  0  0  0  0  0  0  0  0  0  0  0
   -0.3517   -1.4435    0.0000 C   0  0  0  0  0  0  0  0  0  0  0  0
    0.3518   -1.0311    0.0000 C   0  0  0  0  0  0  0  0  0  0  0  0
   -1.7832   -1.4435    0.0000 C   0  0  0  0  0  0  0  0  0  0  0  0
   -2.4989   -1.0311    0.0000 N   0  0  0  0  0  0  0  0  0  0  0  0
   -3.2147   -1.4435    0.0000 C   0  0  0  0  0  0  0  0  0  0  0  0
   -3.9303   -1.0311    0.0000 C   0  0  0  0  0  0  0  0  0  0  0  0
   -4.6340   -1.4435    0.0000 C   0  0  0  0  0  0  0  0  0  0  0  0
   -5.3497   -1.0311    0.0000 C   0  0  0  0  0  0  0  0  0  0  0  0
   -6.0655   -1.4435    0.0000 O   0  0  0  0  0  0  0  0  0  0  0  0
   -5.3497   -0.2062    0.0000 O   0  0  0  0  0  0  0  0  0  0  0  0
   -3.2147   -2.2684    0.0000 C   0  0  0  0  0  0  0  0  0  0  0  0
   -2.4989   -2.6809    0.0000 O   0  0  0  0  0  0  0  0  0  0  0  0
   -3.9303   -2.6809    0.0000 O   0  0  0  0  0  0  0  0  0  0  0  0
   -1.7832   -2.2684    0.0000 O   0  0  0  0  0  0  0  0  0  0  0  0
    1.0674    1.0311    0.0000 C   0  0  0  0  0  0  0  0  0  0  0  0
    1.0674    1.8560    0.0000 C   0  0  0  0  0  0  0  0  0  0  0  0
    1.8924    1.8560    0.0000 F   0  0  0  0  0  0  0  0  0  0  0  0
    0.2426    1.8560    0.0000 F   0  0  0  0  0  0  0  0  0  0  0  0
    1.0674    2.6809    0.0000 F   0  0  0  0  0  0  0  0  0  0  0  0
    1.8924    1.0311    0.0000 O   0  0  0  0  0  0  0  0  0  0  0  0
    0.2426    1.0311    0.0000 O   0  0  0  0  0  0  0  0  0  0  0  0
  1  2  1  0
  1 12  1  0
  2  3  1  0
  3  4  1  0
  3 10  1  0
  4  5  1  6
  4  6  1  0
  6  7  1  0
  7  8  1  6
  7  9  1  0
  9 10  2  0
 10 11  1  0
 13 12  1  6
 13 14  1  0
 13 32  1  0
 14 15  2  0
 14 19  1  0
 15 16  1  0
 16 17  2  0
 17 18  1  0
 17 20  1  0
 18 19  2  0
 20 21  1  0
 20 31  2  0
 21 22  1  0
 22 23  1  6
 22 28  1  0
 23 24  1  0
 24 25  1  0
 25 26  2  0
 25 27  1  0
 28 29  2  0
 28 30  1  0
 32 33  1  0
 32 37  1  0
 32 38  1  0
 33 34  1  0
 33 35  1  0
 33 36  1  0
M  END
>  <DRUGBANK_ID>  (1) 
DB03546

>  <SECONDARY_ACCESSION_NUMBERS>  (1) 
EXPT01969

>  <COMMON_NAME>  (1) 
N-({4-[(1R)-4-[(2R,4S,5S)-2,4-diamino-6-oxohexahydropyrimidin-5-yl]-1-(2,2,2-trifluoro-1,1-dihydroxyethyl)butyl]phenyl}carbonyl)-L-glutamic acid

$$$$
