
     RDKit          2D

 23 24  0  0  0  0  0  0  0  0999 V2000
   -0.4703   -0.0969    0.0000 C   0  0  0  0  0  0  0  0  0  0  0  0
   -1.2004   -0.5094    0.0000 C   0  0  0  0  0  0  0  0  0  0  0  0
    0.3589   -0.5466    0.0000 N   0  0  0  0  0  0  0  0  0  0  0  0
    1.1138   -0.1588    0.0000 C   0  0  0  0  0  0  0  0  0  0  0  0
    1.8317   -0.5589    0.0000 C   0  0  0  0  0  0  0  0  0  0  0  0
   -0.4826    0.7157    0.0000 C   0  0  0  0  0  0  0  0  0  0  0  0
    2.5495   -0.1588    0.0000 C   0  0  0  0  0  0  0  0  0  0  0  0
    1.8317   -1.2892    0.0000 C   0  0  0  0  0  0  0  0  0  0  0  0
   -1.2004   -1.3511    0.0000 C   0  0  0  0  0  0  0  0  0  0  0  0
   -1.9225   -0.0969    0.0000 C   0  0  0  0  0  0  0  0  0  0  0  0
    1.1138    0.6662    0.0000 C   0  0  0  0  0  0  0  0  0  0  0  0
   -1.1757    1.0994    0.0000 O   0  0  0  0  0  0  0  0  0  0  0  0
    2.6361   -1.7306    0.0000 O   0  0  0  0  0  0  0  0  0  0  0  0
    0.1815    1.1160    0.0000 N   0  0  0  0  0  0  0  0  0  0  0  0
    2.5495    0.6662    0.0000 C   0  0  0  0  0  0  0  0  0  0  0  0
    1.8317    1.0870    0.0000 C   0  0  0  0  0  0  0  0  0  0  0  0
   -0.4621   -1.7553    0.0000 Br  0  0  0  0  0  0  0  0  0  0  0  0
   -1.9225    0.6043    0.0000 Br  0  0  0  0  0  0  0  0  0  0  0  0
   -2.6361   -1.3511    0.0000 C   0  0  0  0  0  0  0  0  0  0  0  0
   -1.9225   -1.7595    0.0000 C   0  0  0  0  0  0  0  0  0  0  0  0
   -2.6361   -0.5094    0.0000 C   0  0  0  0  0  0  0  0  0  0  0  0
    1.1592   -1.6977    0.0000 C   0  0  0  0  0  0  0  0  0  0  0  0
    1.8317    1.7595    0.0000 C   0  0  0  0  0  0  0  0  0  0  0  0
  1  6  1  0
  2  1  1  0
  1  3  1  1
  4  3  1  0
  5  4  2  0
  7  5  1  0
  8  5  1  0
  9  2  2  0
 10  2  1  0
 11  4  1  0
 12  6  2  0
 13  8  2  0
 14  6  1  0
 15 16  1  0
 15  7  2  0
 16 11  2  0
 17  9  1  0
 18 10  1  0
 19 21  1  0
 19 20  2  0
 20  9  1  0
 21 10  2  0
 22  8  1  0
 23 16  1  0
M  END
>  <DRUGBANK_ID>  (1) 
DB07327

>  <COMMON_NAME>  (1) 
R-95845

>  <CAS_NUMBER>  (1) 
163435-77-6

>  <UNII>  (1) 
X1KA97Q99G

$$$$
