BN4
     RDKit          2D

 29 30  0  0  0  0  0  0  0  0999 V2000
   -4.0090    2.0088    0.0000 C   0  0  0  0  0  0  0  0  0  0  0  0
   -3.2946    1.5963    0.0000 C   0  0  0  0  0  0  0  0  0  0  0  0
   -3.2946    0.7713    0.0000 C   0  0  0  0  0  0  0  0  0  0  0  0
   -4.0090    0.3588    0.0000 C   0  0  0  0  0  0  0  0  0  0  0  0
   -4.0090   -0.4662    0.0000 Cl  0  0  0  0  0  0  0  0  0  0  0  0
   -4.7235    0.7713    0.0000 C   0  0  0  0  0  0  0  0  0  0  0  0
   -4.7235    1.5963    0.0000 C   0  0  0  0  0  0  0  0  0  0  0  0
   -1.8656    0.7713    0.0000 N   0  0  0  0  0  0  0  0  0  0  0  0
   -2.5801    0.3588    0.0000 C   0  0  0  0  0  0  0  0  0  0  0  0
   -2.5801   -0.4662    0.0000 O   0  0  0  0  0  0  0  0  0  0  0  0
   -0.4367    0.7713    0.0000 N   0  0  0  0  0  0  0  0  0  0  0  0
    0.2778    0.3588    0.0000 C   0  0  0  0  0  0  0  0  0  0  0  0
    0.9923    0.7713    0.0000 C   0  0  0  0  0  0  0  0  0  0  0  0
    1.7067    0.3588    0.0000 C   0  0  0  0  0  0  0  0  0  0  0  0
    1.7067   -0.4662    0.0000 C   0  0  0  0  0  0  0  0  0  0  0  0
    2.4212   -0.8787    0.0000 O   0  0  0  0  0  0  0  0  0  0  0  0
    3.1357   -0.4662    0.0000 C   0  0  0  0  0  0  0  0  0  0  0  0
    3.8501   -0.8787    0.0000 C   0  0  0  0  0  0  0  0  0  0  0  0
    4.5646   -0.4662    0.0000 C   0  0  0  0  0  0  0  0  0  0  0  0
    0.9923   -0.8787    0.0000 C   0  0  0  0  0  0  0  0  0  0  0  0
    0.2778   -0.4662    0.0000 C   0  0  0  0  0  0  0  0  0  0  0  0
   -1.1512    0.3588    0.0000 C   0  0  0  0  0  0  0  0  0  0  0  0
   -1.1512   -0.4662    0.0000 O   0  0  0  0  0  0  0  0  0  0  0  0
   -5.4380    2.0088    0.0000 Cl  0  0  0  0  0  0  0  0  0  0  0  0
   -0.4367   -0.8787    0.0000 C   0  0  0  0  0  0  0  0  0  0  0  0
    5.2791   -0.8787    0.0000 C   0  0  0  0  0  0  0  0  0  0  0  0
    5.9936   -0.4662    0.0000 O   0  0  0  0  0  0  0  0  0  0  0  0
    5.2791   -1.7037    0.0000 O   0  0  0  0  0  0  0  0  0  0  0  0
    0.9923   -1.7037    0.0000 C   0  0  0  0  0  0  0  0  0  0  0  0
  1  2  2  0
  1  7  1  0
  2  3  1  0
  3  4  2  0
  3  9  1  0
  4  5  1  0
  4  6  1  0
  6  7  2  0
  7 24  1  0
  8  9  1  0
  8 22  1  0
  9 10  2  0
 11 12  1  0
 11 22  1  0
 12 13  2  0
 12 21  1  0
 13 14  1  0
 14 15  2  0
 15 16  1  0
 15 20  1  0
 16 17  1  0
 17 18  1  0
 18 19  1  0
 19 26  1  0
 20 21  2  0
 20 29  1  0
 21 25  1  0
 22 23  2  0
 26 27  1  0
 26 28  2  0
M  END
>  <DRUGBANK_ID>  (1) 
DB04644

>  <COMMON_NAME>  (1) 
4-{4-[3-(2,4-DICHLORO-BENZOYL)-UREIDO]-2,3-DIMETHYL-PHENOXY}-BUTYRIC ACID

$$$$
