327
     RDKit          2D

 21 25  0  0  1  0  0  0  0  0999 V2000
    2.1326   -0.2369    0.0000 O   0  0  0  0  0  0  0  0  0  0  0  0
    1.9319   -2.3664    0.0000 O   0  0  0  0  0  0  0  0  0  0  0  0
    1.9319    1.8010    0.0000 O   0  0  0  0  0  0  0  0  0  0  0  0
    5.5409   -1.1076    0.0000 N   0  0  0  0  0  0  0  0  0  0  0  0
    3.3976   -0.6952    0.0000 C   0  0  0  0  0  0  0  0  0  0  0  0
    4.1120   -1.1076    0.0000 C   0  0  0  0  0  0  0  0  0  0  0  0
    4.8265   -0.6952    0.0000 C   0  0  0  0  0  0  0  0  0  0  0  0
    2.6831   -1.1076    0.0000 C   0  0  0  0  0  0  0  0  0  0  0  0
    3.8742   -0.0902    0.0000 C   0  0  0  0  0  0  0  0  0  0  0  0
    3.3976    0.1297    0.0000 C   0  0  0  0  0  0  0  0  0  0  0  0
    4.1120   -1.9327    0.0000 C   0  0  0  0  0  0  0  0  0  0  0  0
    4.8265    0.1297    0.0000 C   0  0  0  0  0  0  0  0  0  0  0  0
    5.0475   -0.0902    0.0000 C   0  0  0  0  0  0  0  0  0  0  0  0
    4.1120    0.5422    0.0000 C   0  0  0  0  0  0  0  0  0  0  0  0
    3.3976   -2.3452    0.0000 C   0  0  0  0  0  0  0  0  0  0  0  0
    2.6831   -1.9327    0.0000 C   0  0  0  0  0  0  0  0  0  0  0  0
    2.6831    0.5422    0.0000 C   0  0  0  0  0  0  0  0  0  0  0  0
    6.1318   -1.7427    0.0000 C   0  0  0  0  0  0  0  0  0  0  0  0
    4.1120    1.3672    0.0000 C   0  0  0  0  0  0  0  0  0  0  0  0
    2.6831    1.3672    0.0000 C   0  0  0  0  0  0  0  0  0  0  0  0
    3.3976    1.7796    0.0000 C   0  0  0  0  0  0  0  0  0  0  0  0
  1 17  1  0
  3 20  1  0
  4  7  1  0
  4 13  1  0
  4 18  1  0
  5  6  1  0
  5  8  1  0
  5  9  1  1
  5 10  1  0
  6  7  1  0
  6 11  1  6
  7 12  1  1
  8 16  1  0
  8  1  1  6
  9 13  1  0
 10 14  1  0
 10 17  2  0
 11 15  1  0
 12 14  1  0
 14 19  2  0
 15 16  1  0
 16  2  1  6
 17 20  1  0
 19 21  1  0
 20 21  2  0
M  END
>  <DRUGBANK_ID>  (1) 
DB01565

>  <COMMON_NAME>  (1) 
Dihydromorphine

>  <CAS_NUMBER>  (1) 
509-60-4

>  <UNII>  (1) 
C3S5FRP6JW

>  <SYNONYMS>  (1) 
Dihydromorphine

$$$$
