
     RDKit          2D

 25 27  0  0  0  0  0  0  0  0999 V2000
   -2.3649   -4.9661    0.0000 Cl  0  0  0  0  0  0  0  0  0  0  0  0
    1.8748    4.1815    0.0000 S   0  0  0  0  0  0  0  0  0  0  0  0
   -0.2214   -2.0785    0.0000 N   0  0  0  0  0  0  0  0  0  0  0  0
    0.4929    2.4590    0.0000 N   0  0  0  0  0  0  0  0  0  0  0  0
    1.9220    2.4590    0.0000 N   0  0  0  0  0  0  0  0  0  0  0  0
    0.4929   -0.8410    0.0000 C   0  0  0  0  0  0  0  0  0  0  0  0
   -0.2214   -1.2535    0.0000 C   0  0  0  0  0  0  0  0  0  0  0  0
    0.4929   -0.0160    0.0000 C   0  0  0  0  0  0  0  0  0  0  0  0
   -0.9359   -2.4910    0.0000 C   0  0  0  0  0  0  0  0  0  0  0  0
   -0.9359   -3.3160    0.0000 C   0  0  0  0  0  0  0  0  0  0  0  0
   -0.2214    0.3965    0.0000 C   0  0  0  0  0  0  0  0  0  0  0  0
    1.2074    0.3965    0.0000 C   0  0  0  0  0  0  0  0  0  0  0  0
   -0.2214    1.2215    0.0000 C   0  0  0  0  0  0  0  0  0  0  0  0
    1.2074    1.2215    0.0000 C   0  0  0  0  0  0  0  0  0  0  0  0
    0.4929    1.6340    0.0000 C   0  0  0  0  0  0  0  0  0  0  0  0
   -1.6504   -3.7285    0.0000 C   0  0  0  0  0  0  0  0  0  0  0  0
   -0.2214   -3.7285    0.0000 C   0  0  0  0  0  0  0  0  0  0  0  0
   -1.6504   -4.5536    0.0000 C   0  0  0  0  0  0  0  0  0  0  0  0
   -0.2214   -4.5536    0.0000 C   0  0  0  0  0  0  0  0  0  0  0  0
   -0.9359   -4.9661    0.0000 C   0  0  0  0  0  0  0  0  0  0  0  0
    1.2074    2.8715    0.0000 C   0  0  0  0  0  0  0  0  0  0  0  0
    1.2074    3.6965    0.0000 C   0  0  0  0  0  0  0  0  0  0  0  0
    0.5400    4.1815    0.0000 C   0  0  0  0  0  0  0  0  0  0  0  0
    0.7949    4.9661    0.0000 C   0  0  0  0  0  0  0  0  0  0  0  0
    1.6199    4.9661    0.0000 C   0  0  0  0  0  0  0  0  0  0  0  0
  1 18  1  0
  2 22  1  0
  2 25  1  0
  3  7  1  0
  3  9  1  0
  4 15  1  0
  4 21  2  0
  5 21  1  0
  6  7  1  0
  6  8  1  0
  8 11  2  0
  8 12  1  0
  9 10  1  0
 10 16  2  0
 10 17  1  0
 11 13  1  0
 12 14  2  0
 13 15  2  0
 14 15  1  0
 16 18  1  0
 17 19  2  0
 18 20  2  0
 19 20  1  0
 21 22  1  0
 22 23  2  0
 23 24  1  0
 24 25  2  0
M  END
>  <DRUGBANK_ID>  (1) 
DB03449

>  <SECONDARY_ACCESSION_NUMBERS>  (1) 
EXPT00560

>  <COMMON_NAME>  (1) 
N-(4-{2-[(3-chlorobenzyl)amino]ethyl}phenyl)thiophene-2-carboximidamide

$$$$
