
     RDKit          2D

  7  6  0  0  1  0  0  0  0  0999 V2000
    2.0625    0.7145    0.0000 N   0  0  0  0  0  0  0  0  0  0  0  0
    1.2375    0.7145    0.0000 C   0  0  0  0  0  0  0  0  0  0  0  0
    0.8250    1.4289    0.0000 C   0  0  0  0  0  0  0  0  0  0  0  0
    1.2375    2.1434    0.0000 Cl  0  0  0  0  0  0  0  0  0  0  0  0
    0.8250    0.0000    0.0000 C   0  0  0  0  0  0  0  0  0  0  0  0
    1.2375   -0.7145    0.0000 O   0  0  0  0  0  0  0  0  0  0  0  0
    0.0000    0.0000    0.0000 O   0  0  0  0  0  0  0  0  0  0  0  0
  2  1  1  1
  2  3  1  0
  2  5  1  0
  3  4  1  0
  5  6  1  0
  5  7  2  0
M  CHG  2   1   1   6  -1
M  END
>  <DRUGBANK_ID>  (1) 
DB01735

>  <SECONDARY_ACCESSION_NUMBERS>  (1) 
EXPT00806

>  <COMMON_NAME>  (1) 
3-Chloroalaninate

>  <UNII>  (1) 
PJ3SK4HU57

$$$$
