79Z
     RDKit          2D

 31 34  0  0  0  0  0  0  0  0999 V2000
    2.1861    1.2467    0.0000 C   0  0  0  0  0  0  0  0  0  0  0  0
    1.7736    0.5322    0.0000 C   0  0  0  0  0  0  0  0  0  0  0  0
    2.5986    0.5322    0.0000 C   0  0  0  0  0  0  0  0  0  0  0  0
   -2.4643   -0.2928    0.0000 C   0  0  0  0  0  0  0  0  0  0  0  0
   -2.8768    0.4217    0.0000 C   0  0  0  0  0  0  0  0  0  0  0  0
   -3.7018    0.4217    0.0000 C   0  0  0  0  0  0  0  0  0  0  0  0
   -4.1143   -0.2928    0.0000 C   0  0  0  0  0  0  0  0  0  0  0  0
   -3.7018   -1.0073    0.0000 C   0  0  0  0  0  0  0  0  0  0  0  0
   -2.8768   -1.0073    0.0000 C   0  0  0  0  0  0  0  0  0  0  0  0
    1.0592    0.1197    0.0000 C   0  0  0  0  0  0  0  0  0  0  0  0
    1.0592   -0.7053    0.0000 C   0  0  0  0  0  0  0  0  0  0  0  0
    0.3447   -1.1178    0.0000 C   0  0  0  0  0  0  0  0  0  0  0  0
    0.3447    0.5322    0.0000 C   0  0  0  0  0  0  0  0  0  0  0  0
   -0.3698    0.1197    0.0000 C   0  0  0  0  0  0  0  0  0  0  0  0
   -0.3698   -0.7053    0.0000 C   0  0  0  0  0  0  0  0  0  0  0  0
   -1.1544   -0.9602    0.0000 O   0  0  0  0  0  0  0  0  0  0  0  0
   -1.6393   -0.2928    0.0000 C   0  0  0  0  0  0  0  0  0  0  0  0
   -1.1544    0.3746    0.0000 C   0  0  0  0  0  0  0  0  0  0  0  0
   -1.4093    1.1593    0.0000 C   0  0  0  0  0  0  0  0  0  0  0  0
   -0.8573    1.7724    0.0000 O   0  0  0  0  0  0  0  0  0  0  0  0
   -2.2163    1.3308    0.0000 N   0  0  0  0  0  0  0  0  0  0  0  0
   -2.4712    2.1154    0.0000 C   0  0  0  0  0  0  0  0  0  0  0  0
    1.7736   -1.1178    0.0000 N   0  0  0  0  0  0  0  0  0  0  0  0
    1.7736   -1.9428    0.0000 S   0  0  0  0  0  0  0  0  0  0  0  0
    0.9486   -1.9428    0.0000 O   0  0  0  0  0  0  0  0  0  0  0  0
    1.7736   -2.7678    0.0000 O   0  0  0  0  0  0  0  0  0  0  0  0
    2.5986   -1.9428    0.0000 C   0  0  0  0  0  0  0  0  0  0  0  0
   -4.9393   -0.2928    0.0000 F   0  0  0  0  0  0  0  0  0  0  0  0
    2.4881   -0.7053    0.0000 C   0  0  0  0  0  0  0  0  0  0  0  0
    3.2026   -1.1178    0.0000 C   0  0  0  0  0  0  0  0  0  0  0  0
    3.9171   -0.7053    0.0000 O   0  0  0  0  0  0  0  0  0  0  0  0
  1  3  1  0
  1  2  1  0
  2 10  1  0
  3  2  1  0
  4  9  2  0
  5  6  2  0
  5  4  1  0
  6  7  1  0
  7 28  1  0
  7  8  2  0
  9  8  1  0
 10 11  2  0
 11 12  1  0
 11 23  1  0
 13 14  2  0
 13 10  1  0
 14 15  1  0
 15 16  1  0
 15 12  2  0
 17  4  1  0
 17 16  1  0
 18 14  1  0
 18 17  2  0
 19 18  1  0
 20 19  2  0
 21 19  1  0
 22 21  1  0
 23 24  1  0
 24 25  2  0
 24 27  1  0
 26 24  2  0
 29 23  1  0
 30 29  1  0
 31 30  1  0
M  END
>  <DRUGBANK_ID>  (1) 
DB07238

>  <SECONDARY_ACCESSION_NUMBERS>  (1) 
DB12516

>  <COMMON_NAME>  (1) 
Nesbuvir

>  <CAS_NUMBER>  (1) 
691852-58-1

>  <UNII>  (1) 
EYK815W3Z8

>  <SYNONYMS>  (1) 
Nesbuvir

$$$$
