
     RDKit          2D

 12 12  0  0  0  0  0  0  0  0999 V2000
    0.3572   -0.7698    0.0000 C   0  0  0  0  0  0  0  0  0  0  0  0
   -0.3572    0.4677    0.0000 C   0  0  0  0  0  0  0  0  0  0  0  0
   -1.0718    0.0552    0.0000 C   0  0  0  0  0  0  0  0  0  0  0  0
   -0.3572   -1.1823    0.0000 C   0  0  0  0  0  0  0  0  0  0  0  0
   -1.0718   -0.7698    0.0000 C   0  0  0  0  0  0  0  0  0  0  0  0
   -1.7862   -1.1823    0.0000 C   0  0  0  0  0  0  0  0  0  0  0  0
    0.3572    0.0552    0.0000 C   0  0  0  0  0  0  0  0  0  0  0  0
    1.0718    0.4677    0.0000 S   0  0  0  0  0  0  0  0  0  0  0  0
    1.7862    0.0552    0.0000 N   0  0  0  0  0  0  0  0  0  0  0  0
    1.7862   -0.7698    0.0000 Cl  0  0  0  0  0  0  0  0  0  0  0  0
    0.6591    1.1823    0.0000 O   0  0  0  0  0  0  0  0  0  0  0  0
    1.4843    1.1823    0.0000 O   0  0  0  0  0  0  0  0  0  0  0  0
  1  7  2  0
  1  4  1  0
  2  3  2  0
  3  5  1  0
  5  4  2  0
  5  6  1  0
  7  2  1  0
  7  8  1  0
  8  9  1  0
  9 10  1  0
 11  8  2  0
 12  8  2  0
M  END
>  <DRUGBANK_ID>  (1) 
DB14708

>  <COMMON_NAME>  (1) 
Tosylchloramide

>  <CAS_NUMBER>  (1) 
144-86-5

>  <UNII>  (1) 
UF17KA8AC5

>  <SYNONYMS>  (1) 
N-chloro-p-toluenesulfonamide; N-chlorotoluene-p-sulfonamide

$$$$
