
     RDKit          2D

 23 24  0  0  0  0  0  0  0  0999 V2000
    1.0326   -5.6833    0.0000 C   0  0  0  0  0  0  0  0  0  0  0  0
    0.7776   -6.4679    0.0000 C   0  0  0  0  0  0  0  0  0  0  0  0
   -0.0474   -6.4679    0.0000 C   0  0  0  0  0  0  0  0  0  0  0  0
   -0.3023   -5.6833    0.0000 O   0  0  0  0  0  0  0  0  0  0  0  0
    0.3651   -5.1984    0.0000 C   0  0  0  0  0  0  0  0  0  0  0  0
    0.3651   -4.3734    0.0000 C   0  0  0  0  0  0  0  0  0  0  0  0
    1.0796   -3.9609    0.0000 C   0  0  0  0  0  0  0  0  0  0  0  0
    1.0796   -3.1359    0.0000 C   0  0  0  0  0  0  0  0  0  0  0  0
    1.7941   -2.7234    0.0000 N   0  0  0  0  0  0  0  0  0  0  0  0
    1.7941   -1.8984    0.0000 N   0  0  0  0  0  0  0  0  0  0  0  0
    2.5086   -1.4859    0.0000 C   0  0  0  0  0  0  0  0  0  0  0  0
    3.2230   -1.8984    0.0000 O   0  0  0  0  0  0  0  0  0  0  0  0
    2.5086   -0.6609    0.0000 C   0  0  0  0  0  0  0  0  0  0  0  0
    1.8411   -0.1759    0.0000 C   0  0  0  0  0  0  0  0  0  0  0  0
    2.0961    0.6087    0.0000 C   0  0  0  0  0  0  0  0  0  0  0  0
    2.9211    0.6087    0.0000 C   0  0  0  0  0  0  0  0  0  0  0  0
    3.1760   -0.1759    0.0000 S   0  0  0  0  0  0  0  0  0  0  0  0
    3.4060    1.2761    0.0000 N   0  0  0  0  0  0  0  0  0  0  0  0
    3.0704    2.0298    0.0000 O   0  0  0  0  0  0  0  0  0  0  0  0
    4.2265    1.1899    0.0000 O   0  0  0  0  0  0  0  0  0  0  0  0
   -0.5323   -7.1353    0.0000 N   0  0  0  0  0  0  0  0  0  0  0  0
   -0.1967   -7.8890    0.0000 O   0  0  0  0  0  0  0  0  0  0  0  0
   -1.3528   -7.0491    0.0000 O   0  0  0  0  0  0  0  0  0  0  0  0
  1  2  1  0
  1  5  2  0
  2  3  2  0
  3  4  1  0
  3 21  1  0
  4  5  1  0
  5  6  1  0
  6  7  2  0
  7  8  1  0
  8  9  2  0
  9 10  1  0
 10 11  1  0
 11 12  2  0
 11 13  1  0
 13 14  2  0
 13 17  1  0
 14 15  1  0
 15 16  2  0
 16 17  1  0
 16 18  1  0
 18 19  2  0
 18 20  1  0
 21 22  2  0
 21 23  1  0
M  CHG  4  18   1  20  -1  21   1  23  -1
M  END
>  <DRUGBANK_ID>  (1) 
DB13325

>  <COMMON_NAME>  (1) 
Nifurzide

>  <CAS_NUMBER>  (1) 
39978-42-2

>  <UNII>  (1) 
Z35R6K4C26

>  <SYNONYMS>  (1) 
Nifurzide

$$$$
