
     RDKit          2D

 32 34  0  0  0  0  0  0  0  0999 V2000
   -4.8432    0.4077    0.0000 C   0  0  0  0  0  0  0  0  0  0  0  0
   -4.1285    0.8202    0.0000 C   0  0  0  0  0  0  0  0  0  0  0  0
   -5.5579    0.8202    0.0000 C   0  0  0  0  0  0  0  0  0  0  0  0
   -6.2724    0.4077    0.0000 O   0  0  0  0  0  0  0  0  0  0  0  0
   -5.5579    1.6454    0.0000 O   0  0  0  0  0  0  0  0  0  0  0  0
   -3.4139    0.4077    0.0000 C   0  0  0  0  0  0  0  0  0  0  0  0
   -3.4157   -0.4185    0.0000 C   0  0  0  0  0  0  0  0  0  0  0  0
   -2.7018   -0.8310    0.0000 C   0  0  0  0  0  0  0  0  0  0  0  0
   -1.9863   -0.4184    0.0000 C   0  0  0  0  0  0  0  0  0  0  0  0
   -1.9889    0.4111    0.0000 C   0  0  0  0  0  0  0  0  0  0  0  0
   -2.7033    0.8198    0.0000 C   0  0  0  0  0  0  0  0  0  0  0  0
   -1.2758    0.8261    0.0000 O   0  0  0  0  0  0  0  0  0  0  0  0
   -0.5597    0.4161    0.0000 C   0  0  0  0  0  0  0  0  0  0  0  0
    0.1533    0.8311    0.0000 C   0  0  0  0  0  0  0  0  0  0  0  0
    0.8696    0.4211    0.0000 C   0  0  0  0  0  0  0  0  0  0  0  0
    1.5826    0.8362    0.0000 N   0  0  0  0  0  0  0  0  0  0  0  0
    0.1506    1.6563    0.0000 O   0  0  0  0  0  0  0  0  0  0  0  0
    2.2987    0.4262    0.0000 C   0  0  0  0  0  0  0  0  0  0  0  0
    3.0121    0.8412    0.0000 C   0  0  0  0  0  0  0  0  0  0  0  0
    1.8775   -0.2799    0.0000 C   0  0  0  0  0  0  0  0  0  0  0  0
    2.7027   -0.2799    0.0000 C   0  0  0  0  0  0  0  0  0  0  0  0
    3.7280    0.4313    0.0000 C   0  0  0  0  0  0  0  0  0  0  0  0
    3.8208   -0.3855    0.0000 C   0  0  0  0  0  0  0  0  0  0  0  0
    4.4843    0.7729    0.0000 C   0  0  0  0  0  0  0  0  0  0  0  0
    5.0386    0.1617    0.0000 C   0  0  0  0  0  0  0  0  0  0  0  0
    4.6267   -0.5517    0.0000 C   0  0  0  0  0  0  0  0  0  0  0  0
    5.0384   -1.2633    0.0000 C   0  0  0  0  0  0  0  0  0  0  0  0
    5.8622   -1.2626    0.0000 C   0  0  0  0  0  0  0  0  0  0  0  0
    6.2724   -0.5442    0.0000 C   0  0  0  0  0  0  0  0  0  0  0  0
    5.8583    0.1643    0.0000 C   0  0  0  0  0  0  0  0  0  0  0  0
   -1.2712   -0.8300    0.0000 F   0  0  0  0  0  0  0  0  0  0  0  0
   -2.7024   -1.6563    0.0000 F   0  0  0  0  0  0  0  0  0  0  0  0
  1  3  1  0
  1  2  1  0
  2  6  1  0
  3  5  2  0
  3  4  1  0
  6  7  2  0
  7  8  1  0
  8  9  2  0
  8 32  1  0
  9 10  1  0
  9 31  1  0
 10 11  2  0
 10 12  1  0
 11  6  1  0
 12 13  1  0
 13 14  1  0
 14 17  1  6
 14 15  1  0
 15 16  1  0
 16 18  1  0
 18 19  1  0
 18 20  1  0
 18 21  1  0
 19 22  1  0
 22 23  1  0
 23 26  1  0
 24 22  1  0
 25 24  1  0
 25 26  2  0
 26 27  1  0
 27 28  2  0
 28 29  1  0
 29 30  2  0
 30 25  1  0
M  END
>  <DRUGBANK_ID>  (1) 
DB05255

>  <COMMON_NAME>  (1) 
Ronacaleret

>  <CAS_NUMBER>  (1) 
753449-67-1

>  <UNII>  (1) 
DIH95YP7J3

>  <SYNONYMS>  (1) 
Ronacaleret

$$$$
