
     RDKit          2D

 28 29  0  0  0  0  0  0  0  0999 V2000
    1.1854   -0.2579    0.0000 N   0  0  0  0  0  0  0  0  0  0  0  0
    1.1854    0.5684    0.0000 C   0  0  0  0  0  0  0  0  0  0  0  0
    1.8980   -0.6861    0.0000 C   0  0  0  0  0  0  0  0  0  0  0  0
    0.3592   -0.2579    0.0000 C   0  0  0  0  0  0  0  0  0  0  0  0
    0.3592    0.5684    0.0000 C   0  0  0  0  0  0  0  0  0  0  0  0
    1.8980    0.9814    0.0000 S   0  0  0  0  0  0  0  0  0  0  0  0
    2.6219   -0.2653    0.0000 C   0  0  0  0  0  0  0  0  0  0  0  0
    1.8904   -1.5123    0.0000 C   0  0  0  0  0  0  0  0  0  0  0  0
   -0.2243   -0.8377    0.0000 O   0  0  0  0  0  0  0  0  0  0  0  0
   -0.4767    1.0928    0.0000 N   0  0  0  0  0  0  0  0  0  0  0  0
    2.6219    0.5684    0.0000 C   0  0  0  0  0  0  0  0  0  0  0  0
    3.3344   -0.6748    0.0000 C   0  0  0  0  0  0  0  0  0  0  0  0
    1.1741   -1.9141    0.0000 O   0  0  0  0  0  0  0  0  0  0  0  0
    2.6030   -1.9255    0.0000 O   0  0  0  0  0  0  0  0  0  0  0  0
    4.0507   -0.2616    0.0000 O   0  0  0  0  0  0  0  0  0  0  0  0
   -1.9056    1.0992    0.0000 C   0  0  0  0  0  0  0  0  0  0  0  0
    4.7633   -0.6748    0.0000 C   0  0  0  0  0  0  0  0  0  0  0  0
   -2.6219    0.6899    0.0000 C   0  0  0  0  0  0  0  0  0  0  0  0
    5.4759   -0.2616    0.0000 C   0  0  0  0  0  0  0  0  0  0  0  0
    4.7672   -1.4971    0.0000 O   0  0  0  0  0  0  0  0  0  0  0  0
   -3.3344    1.0992    0.0000 C   0  0  0  0  0  0  0  0  0  0  0  0
   -4.0470    0.6899    0.0000 C   0  0  0  0  0  0  0  0  0  0  0  0
   -4.7633    1.0992    0.0000 C   0  0  0  0  0  0  0  0  0  0  0  0
   -4.0470   -0.1362    0.0000 N   0  0  0  0  0  0  0  0  0  0  0  0
   -5.4759    0.6861    0.0000 O   0  0  0  0  0  0  0  0  0  0  0  0
   -4.7596    1.9255    0.0000 O   0  0  0  0  0  0  0  0  0  0  0  0
   -1.1930    0.6835    0.0000 C   0  0  0  0  0  0  0  0  0  0  0  0
   -1.1967   -0.1414    0.0000 O   0  0  0  0  0  0  0  0  0  0  0  0
  1  2  1  0
  1  3  1  0
  1  4  1  0
  2  5  1  0
  2  6  1  1
  3  7  2  0
  3  8  1  0
  4  9  2  0
  4  5  1  0
  5 10  1  1
  6 11  1  0
  7 12  1  0
  7 11  1  0
  8 13  1  0
  8 14  2  0
 12 15  1  0
 15 17  1  0
 16 18  1  0
 16 27  1  0
 17 19  1  0
 17 20  2  0
 18 21  1  0
 21 22  1  0
 22 23  1  0
 22 24  1  1
 23 25  1  0
 23 26  2  0
 27 10  1  0
 27 28  2  0
M  END
>  <DRUGBANK_ID>  (1) 
DB03313

>  <SECONDARY_ACCESSION_NUMBERS>  (1) 
EXPT01031

>  <COMMON_NAME>  (1) 
Cephalosporin C

>  <CAS_NUMBER>  (1) 
61-24-5

>  <UNII>  (1) 
3XIY7HJT5L

>  <SYNONYMS>  (1) 
7-(5-Amino-5-carboxyvaleramido)cephalosporanic acid; Cephalosporin C

$$$$
