
     RDKit          2D

 20 20  0  0  1  0  0  0  0  0999 V2000
   -0.7145    0.4125    0.0000 C   0  0  0  0  0  0  0  0  0  0  0  0
   -0.7145   -0.4125    0.0000 C   0  0  0  0  0  0  0  0  0  0  0  0
    0.0000   -0.8250    0.0000 C   0  0  0  0  0  0  0  0  0  0  0  0
    0.0000    0.8250    0.0000 C   0  0  0  0  0  0  0  0  0  0  0  0
    0.7145   -0.4125    0.0000 C   0  0  0  0  0  0  0  0  0  0  0  0
    0.7145    0.4125    0.0000 C   0  0  0  0  0  0  0  0  0  0  0  0
   -1.4289   -0.8250    0.0000 C   0  0  0  0  0  0  0  0  0  0  0  0
   -2.1434   -0.4125    0.0000 C   0  0  0  0  0  0  0  0  0  0  0  0
   -1.4289   -1.6500    0.0000 O   0  0  0  0  0  0  0  0  0  0  0  0
   -2.8579   -0.8250    0.0000 N   0  0  0  0  0  0  0  0  0  0  0  0
   -2.1434    0.4125    0.0000 C   0  0  0  0  0  0  0  0  0  0  0  0
   -3.5724   -0.4125    0.0000 C   0  0  0  0  0  0  0  0  0  0  0  0
   -1.4289    0.8250    0.0000 O   0  0  0  0  0  0  0  0  0  0  0  0
    1.4289    0.8250    0.0000 N   0  0  0  0  0  0  0  0  0  0  0  0
   -4.2868   -0.8250    0.0000 C   0  0  0  0  0  0  0  0  0  0  0  0
   -3.5724    0.4125    0.0000 O   0  0  0  0  0  0  0  0  0  0  0  0
    2.1434    0.4125    0.0000 O   0  0  0  0  0  0  0  0  0  0  0  0
    1.4289    1.6500    0.0000 O   0  0  0  0  0  0  0  0  0  0  0  0
   -4.2868   -1.6500    0.0000 Cl  0  0  0  0  0  0  0  0  0  0  0  0
   -5.0013   -0.4125    0.0000 Cl  0  0  0  0  0  0  0  0  0  0  0  0
  1  4  2  0
  2  1  1  0
  2  7  1  0
  2  3  2  0
  3  5  1  0
  4  6  1  0
  5  6  2  0
  6 14  1  0
  7  8  1  0
  7  9  1  1
  8 10  1  0
  8 11  1  6
 10 12  1  0
 11 13  1  0
 12 15  1  0
 12 16  2  0
 14 17  1  0
 14 18  2  0
 15 19  1  0
 15 20  1  0
M  CHG  2  14   1  17  -1
M  END
>  <DRUGBANK_ID>  (1) 
DB00446

>  <SECONDARY_ACCESSION_NUMBERS>  (1) 
APRD00862; EXPT00942

>  <COMMON_NAME>  (1) 
Chloramphenicol

>  <CAS_NUMBER>  (1) 
56-75-7

>  <UNII>  (1) 
66974FR9Q1

>  <SYNONYMS>  (1) 
Chloramphénicol; Chloramphenicol; Chloramphenicolum; Chlornitromycin; Cloramfenicol; Cloranfenicol; D-(−)-2,2-dichloro-N-(β-hydroxy-α-(hydroxymethyl)-p-nitrophenylethyl)acetamide; D-(−)-threo-1-p-nitrophenyl-2-dichloroacetylamino-1,3-propanediol; Laevomycetinum; Levomicetina; Levomycetin

$$$$
