
     RDKit          2D

 14 14  0  0  0  0  0  0  0  0999 V2000
    1.0312    0.3020    0.0000 C   0  0  0  0  0  0  0  0  0  0  0  0
    0.6187    1.0165    0.0000 C   0  0  0  0  0  0  0  0  0  0  0  0
    0.6187   -0.4125    0.0000 C   0  0  0  0  0  0  0  0  0  0  0  0
    1.8562    0.3020    0.0000 As  0  0  0  0  0  5  0  0  0  0  0  0
   -0.2062    1.0165    0.0000 C   0  0  0  0  0  0  0  0  0  0  0  0
   -0.2062   -0.4125    0.0000 C   0  0  0  0  0  0  0  0  0  0  0  0
    2.6812    0.3020    0.0000 O   0  0  0  0  0  0  0  0  0  0  0  0
    1.8562   -0.5229    0.0000 O   0  0  0  0  0  0  0  0  0  0  0  0
    1.8562    1.1270    0.0000 O   0  0  0  0  0  0  0  0  0  0  0  0
   -0.6187    0.3020    0.0000 C   0  0  0  0  0  0  0  0  0  0  0  0
   -1.4437    0.3020    0.0000 N   0  0  0  0  0  0  0  0  0  0  0  0
   -1.8562   -0.4125    0.0000 C   0  0  0  0  0  0  0  0  0  0  0  0
   -2.6812   -0.4125    0.0000 N   0  0  0  0  0  0  0  0  0  0  0  0
   -1.4437   -1.1270    0.0000 O   0  0  0  0  0  0  0  0  0  0  0  0
  1  2  2  0
  1  3  1  0
  1  4  1  0
  2  5  1  0
  3  6  2  0
  4  7  1  0
  4  8  1  0
  4  9  2  0
  5 10  2  0
  6 10  1  0
 10 11  1  0
 11 12  1  0
 12 13  1  0
 12 14  2  0
M  END
>  <DRUGBANK_ID>  (1) 
DB11382

>  <COMMON_NAME>  (1) 
Carbarsone

>  <CAS_NUMBER>  (1) 
121-59-5

>  <UNII>  (1) 
8PK70TXE1T

>  <SYNONYMS>  (1) 
Carbarson; Carbarsone; Carbarsonum; Pentarsone; Phenarsone

$$$$
