
     RDKit          2D

 10 10  0  0  0  0  0  0  0  0999 V2000
    0.7132    1.0313    0.0000 N   0  0  0  0  0  0  0  0  0  0  0  0
   -0.0025    1.4388    0.0000 N   0  0  0  0  0  0  0  0  0  0  0  0
   -0.0025   -0.2063    0.0000 C   0  0  0  0  0  0  0  0  0  0  0  0
    0.7132    0.2063    0.0000 C   0  0  0  0  0  0  0  0  0  0  0  0
   -0.7132    0.2063    0.0000 C   0  0  0  0  0  0  0  0  0  0  0  0
   -0.0025   -1.0313    0.0000 C   0  0  0  0  0  0  0  0  0  0  0  0
   -1.4288   -0.2063    0.0000 C   0  0  0  0  0  0  0  0  0  0  0  0
   -0.7132   -1.4388    0.0000 C   0  0  0  0  0  0  0  0  0  0  0  0
   -1.4288   -1.0313    0.0000 C   0  0  0  0  0  0  0  0  0  0  0  0
    1.4288   -0.2063    0.0000 C   0  0  0  0  0  0  0  0  0  0  0  0
  1  2  1  0
  1  4  1  0
  3  4  1  0
  3  5  2  0
  3  6  1  0
  4 10  1  0
  5  7  1  0
  6  8  2  0
  7  9  2  0
  8  9  1  0
M  END
>  <DRUGBANK_ID>  (1) 
DB09248

>  <COMMON_NAME>  (1) 
Mebanazine

>  <CAS_NUMBER>  (1) 
65-64-5

>  <UNII>  (1) 
Z5R55CJ4CG

>  <SYNONYMS>  (1) 
Mebanazine

$$$$
