
     RDKit          2D

 23 22  0  0  0  0  0  0  0  0999 V2000
    1.7719    0.4370    0.0000 C   0  0  0  0  0  0  0  0  0  0  0  0
    1.0644    0.0125    0.0000 C   0  0  0  0  0  0  0  0  0  0  0  0
    0.3570    0.4370    0.0000 C   0  0  0  0  0  0  0  0  0  0  0  0
   -0.3504    0.0125    0.0000 C   0  0  0  0  0  0  0  0  0  0  0  0
   -1.0576    0.4370    0.0000 C   0  0  0  0  0  0  0  0  0  0  0  0
   -1.7650    0.0125    0.0000 C   0  0  0  0  0  0  0  0  0  0  0  0
   -2.4725    0.4370    0.0000 C   0  0  0  0  0  0  0  0  0  0  0  0
    1.7719    1.2388    0.0000 O   0  0  0  0  0  0  0  0  0  0  0  0
    2.4794    0.0125    0.0000 N   0  0  0  0  0  0  0  0  0  0  0  0
   -3.1939    0.0365    0.0000 C   0  0  0  0  0  0  0  0  0  0  0  0
   -3.2078   -0.7883    0.0000 C   0  0  0  0  0  0  0  0  0  0  0  0
    0.3434   -1.2388    0.0000 C   0  0  0  0  0  0  0  0  0  0  0  0
   -0.3639   -0.8142    0.0000 C   0  0  0  0  0  0  0  0  0  0  0  0
   -1.0715   -1.2387    0.0000 C   0  0  0  0  0  0  0  0  0  0  0  0
   -1.7788   -0.8142    0.0000 C   0  0  0  0  0  0  0  0  0  0  0  0
   -2.5081   -1.2253    0.0000 C   0  0  0  0  0  0  0  0  0  0  0  0
   -4.6227    0.0365    0.0000 C   0  0  0  0  0  0  0  0  0  0  0  0
   -4.6227   -0.7884    0.0000 C   0  0  0  0  0  0  0  0  0  0  0  0
   -3.9083    0.4490    0.0000 C   0  0  0  0  0  0  0  0  0  0  0  0
   -3.9083   -1.2008    0.0000 C   0  0  0  0  0  0  0  0  0  0  0  0
    3.1937    0.4249    0.0000 C   0  0  0  0  0  0  0  0  0  0  0  0
    3.9082    0.0125    0.0000 C   0  0  0  0  0  0  0  0  0  0  0  0
    4.6227    0.4249    0.0000 O   0  0  0  0  0  0  0  0  0  0  0  0
  2  1  1  0
  3  2  1  0
  3  4  1  0
  5  4  1  0
  5  6  1  0
  7  6  1  0
  7 10  1  0
  8  1  2  0
  9  1  1  0
  9 21  1  0
 10 19  1  0
 11 20  1  0
 12 13  1  0
 13 14  1  0
 14 15  1  0
 15 16  1  0
 16 11  1  0
 18 17  1  0
 19 17  2  0
 20 18  1  0
 21 22  1  0
 22 23  1  0
M  END
>  <DRUGBANK_ID>  (1) 
DB16495

>  <COMMON_NAME>  (1) 
Oleic monoethanolamide

>  <CAS_NUMBER>  (1) 
111-58-0

>  <UNII>  (1) 
1HI5J9N8E6

>  <SYNONYMS>  (1) 
N-(2-Hydroxyethyl)oleamide; N-OEA; N-oleoyl ethanolamine; N-oleoylethanolamine; OEA; Oleamide MEA; Oleoyl Ethanolamide; Oleoyl monoethanolamide; Oleoylethanolamide; Oleylethanolamide

$$$$
