
     RDKit          2D

 10 10  0  0  0  0  0  0  0  0999 V2000
    0.3572    1.0312    0.0000 C   0  0  0  0  0  0  0  0  0  0  0  0
    0.3572    1.8562    0.0000 S   0  0  0  0  0  0  0  0  0  0  0  0
   -0.3571    0.6187    0.0000 N   0  0  0  0  0  0  0  0  0  0  0  0
    1.0716    0.6187    0.0000 N   0  0  0  0  0  0  0  0  0  0  0  0
    0.3572   -1.4437    0.0000 C   0  0  0  0  0  0  0  0  0  0  0  0
   -0.3571   -1.8562    0.0000 C   0  0  0  0  0  0  0  0  0  0  0  0
   -1.0717   -1.4437    0.0000 C   0  0  0  0  0  0  0  0  0  0  0  0
   -1.0717   -0.6187    0.0000 C   0  0  0  0  0  0  0  0  0  0  0  0
   -0.3571   -0.2062    0.0000 C   0  0  0  0  0  0  0  0  0  0  0  0
    0.3572   -0.6187    0.0000 C   0  0  0  0  0  0  0  0  0  0  0  0
  2  1  2  0
  3  1  1  0
  4  1  1  0
  6  5  2  0
  7  6  1  0
  8  7  2  0
  9  3  1  0
  9  8  1  0
 10  5  1  0
 10  9  2  0
M  END
>  <DRUGBANK_ID>  (1) 
DB03694

>  <SECONDARY_ACCESSION_NUMBERS>  (1) 
EXPT03208

>  <COMMON_NAME>  (1) 
N-phenylthiourea

>  <CAS_NUMBER>  (1) 
103-85-5

>  <UNII>  (1) 
6F82C6Q54C

>  <SYNONYMS>  (1) 
1-phenyl-2-thiourea; monophenyl thiourea; phenyl-2-thiourea; phenylthiocarbamide; phenylthiourea; Î±-phenylthiourea

$$$$
