
     RDKit          2D

 12 11  0  0  1  0  0  0  0  0999 V2000
    0.7815   -2.3883    0.0000 N   0  0  0  0  0  0  0  0  0  0  0  0
    1.5395   -2.0625    0.0000 C   0  0  0  0  0  0  0  0  0  0  0  0
    2.2006   -2.5560    0.0000 C   0  0  0  0  0  0  0  0  0  0  0  0
    2.9585   -2.2302    0.0000 C   0  0  0  0  0  0  0  0  0  0  0  0
    3.6197   -2.7236    0.0000 C   0  0  0  0  0  0  0  0  0  0  0  0
    3.1262   -3.3848    0.0000 N   0  0  0  0  0  0  0  0  0  0  0  0
    4.2808   -3.2171    0.0000 C   0  0  0  0  0  0  0  0  0  0  0  0
    5.0388   -2.8913    0.0000 F   0  0  0  0  0  0  0  0  0  0  0  0
    4.1840   -4.0364    0.0000 F   0  0  0  0  0  0  0  0  0  0  0  0
    4.1132   -2.0625    0.0000 C   0  0  0  0  0  0  0  0  0  0  0  0
    3.7873   -1.3046    0.0000 O   0  0  0  0  0  0  0  0  0  0  0  0
    4.9325   -2.1593    0.0000 O   0  0  0  0  0  0  0  0  0  0  0  0
  1  2  1  0
  2  3  1  0
  3  4  1  0
  4  5  1  0
  5  6  1  1
  5  7  1  0
  5 10  1  0
  7  8  1  0
  7  9  1  0
 10 11  1  0
 10 12  2  0
M  END
>  <DRUGBANK_ID>  (1) 
DB03856

>  <SECONDARY_ACCESSION_NUMBERS>  (1) 
EXPT01229

>  <COMMON_NAME>  (1) 
L-Eflornithine

>  <CAS_NUMBER>  (1) 
66640-93-5

>  <UNII>  (1) 
C780YUS9YI

>  <SYNONYMS>  (1) 
(-)-2-difluoromethylornithine

$$$$
