
     RDKit          2D

 26 29  0  0  1  0  0  0  0  0999 V2000
   -2.1420    2.1099    0.0000 C   0  0  0  0  0  0  0  0  0  0  0  0
   -1.4274    2.5222    0.0000 C   0  0  0  0  0  0  0  0  0  0  0  0
   -0.7156    2.1104    0.0000 C   0  0  0  0  0  0  0  0  0  0  0  0
   -0.7156    1.2851    0.0000 C   0  0  0  0  0  0  0  0  0  0  0  0
   -1.4257    0.8734    0.0000 C   0  0  0  0  0  0  0  0  0  0  0  0
   -2.1420    1.2814    0.0000 C   0  0  0  0  0  0  0  0  0  0  0  0
   -0.0011    0.8727    0.0000 O   0  0  0  0  0  0  0  0  0  0  0  0
    0.7132    1.2851    0.0000 C   0  0  0  0  0  0  0  0  0  0  0  0
    1.4276    0.8727    0.0000 C   0  0  0  0  0  0  0  0  0  0  0  0
    1.4276    0.0478    0.0000 N   0  0  0  0  0  0  0  0  0  0  0  0
    2.1421   -0.3646    0.0000 C   0  0  0  0  0  0  0  0  0  0  0  0
    2.1421   -1.1896    0.0000 C   0  0  0  0  0  0  0  0  0  0  0  0
    2.5545   -1.9040    0.0000 C   0  0  0  0  0  0  0  0  0  0  0  0
    1.9596   -2.4988    0.0000 N   0  0  0  0  0  0  0  0  0  0  0  0
    1.2490   -2.1919    0.0000 N   0  0  0  0  0  0  0  0  0  0  0  0
    1.3413   -1.3680    0.0000 C   0  0  0  0  0  0  0  0  0  0  0  0
    0.4915   -2.5225    0.0000 C   0  0  0  0  0  0  0  0  0  0  0  0
   -0.1761   -2.0307    0.0000 C   0  0  0  0  0  0  0  0  0  0  0  0
   -0.0861   -1.2107    0.0000 C   0  0  0  0  0  0  0  0  0  0  0  0
    0.6710   -0.8742    0.0000 N   0  0  0  0  0  0  0  0  0  0  0  0
   -1.2122    0.0765    0.0000 C   0  0  0  0  0  0  0  0  0  0  0  0
   -0.4153   -0.1369    0.0000 N   0  0  0  0  0  0  0  0  0  0  0  0
    2.8565    0.0478    0.0000 O   0  0  0  0  0  0  0  0  0  0  0  0
    0.7132    2.1101    0.0000 C   0  0  0  0  0  0  0  0  0  0  0  0
   -1.7954   -0.5067    0.0000 C   0  0  0  0  0  0  0  0  0  0  0  0
   -2.8565    2.5225    0.0000 F   0  0  0  0  0  0  0  0  0  0  0  0
  1  6  2  0
  1 26  1  0
  2  1  1  0
  3  2  2  0
  4  3  1  0
  4  7  1  0
  5  4  2  0
  5 21  1  0
  6  5  1  0
  7  8  1  0
  8  9  1  0
  8 24  1  1
  9 10  1  0
 10 11  1  0
 11 12  1  0
 11 23  2  0
 12 16  2  0
 13 12  1  0
 13 14  2  0
 14 15  1  0
 15 17  1  0
 16 15  1  0
 16 20  1  0
 18 17  2  0
 19 18  1  0
 20 19  2  0
 21 22  1  0
 21 25  1  6
 22 19  1  0
M  END
>  <DRUGBANK_ID>  (1) 
DB16826

>  <COMMON_NAME>  (1) 
Repotrectinib

>  <CAS_NUMBER>  (1) 
1802220-02-5

>  <UNII>  (1) 
08O3FQ4UNP

>  <SYNONYMS>  (1) 
(3R,6S,)-45-FLUORO-3,6-DIMETHYL-5-OXA-2,8-DIAZA-1(5,3)-PYRAZOLO(1,5-A)PYRIMIDINA-4(1,2)-BENZENANONAPHAN-9-ONE; (7S,13R)-11-Fluoro-7,13-Dimethyl-6,7,13,14-Tetrahydro-1,15-Ethenopyrazolo[4,3-F][1,4,8,10]Benzoxatriazacyclotridecin-4(5H)-One; 1,15-ETHENO-1H-PYRAZOLO(4,3-F)(1,4,8,10)BENZOXATRIAZACYCLOTRIDECIN-4(5H)-ONE, 11-FLUORO-6,7,13,14-TETRAHYDRO-7,13-DIMETHYL-, (7S,13R)-; Repotrectinib

$$$$
