648
     RDKit          2D

 18 19  0  0  1  0  0  0  0  0999 V2000
    2.3645    1.6500    0.0000 Cl  0  0  0  0  0  0  0  0  0  0  0  0
    1.6500    0.4125    0.0000 Cl  0  0  0  0  0  0  0  0  0  0  0  0
    1.6500   -0.4125    0.0000 Cl  0  0  0  0  0  0  0  0  0  0  0  0
    5.9370    2.0625    0.0000 Cl  0  0  0  0  0  0  0  0  0  0  0  0
    3.0791    0.4125    0.0000 C   0  0  0  0  0  0  0  0  0  0  0  0
    3.7935    0.8250    0.0000 C   0  0  0  0  0  0  0  0  0  0  0  0
    3.0791   -0.4125    0.0000 C   0  0  0  0  0  0  0  0  0  0  0  0
    2.3645    0.8250    0.0000 C   0  0  0  0  0  0  0  0  0  0  0  0
    4.5080    0.4125    0.0000 C   0  0  0  0  0  0  0  0  0  0  0  0
    3.7935    1.6500    0.0000 C   0  0  0  0  0  0  0  0  0  0  0  0
    2.3645   -0.8250    0.0000 C   0  0  0  0  0  0  0  0  0  0  0  0
    3.7935   -0.8250    0.0000 C   0  0  0  0  0  0  0  0  0  0  0  0
    5.2224    0.8250    0.0000 C   0  0  0  0  0  0  0  0  0  0  0  0
    4.5080    2.0625    0.0000 C   0  0  0  0  0  0  0  0  0  0  0  0
    2.3645   -1.6500    0.0000 C   0  0  0  0  0  0  0  0  0  0  0  0
    3.7935   -1.6500    0.0000 C   0  0  0  0  0  0  0  0  0  0  0  0
    5.2224    1.6500    0.0000 C   0  0  0  0  0  0  0  0  0  0  0  0
    3.0791   -2.0625    0.0000 C   0  0  0  0  0  0  0  0  0  0  0  0
  1  8  1  0
  2  8  1  0
  3 11  1  0
  4 17  1  0
  5  6  1  0
  5  7  1  0
  5  8  1  0
  6  9  2  0
  6 10  1  0
  7 11  2  0
  7 12  1  0
  9 13  1  0
 10 14  2  0
 11 15  1  0
 12 16  2  0
 13 17  2  0
 14 17  1  0
 15 18  2  0
 16 18  1  0
M  END
>  <DRUGBANK_ID>  (1) 
DB00648

>  <SECONDARY_ACCESSION_NUMBERS>  (1) 
APRD00494

>  <COMMON_NAME>  (1) 
Mitotane

>  <CAS_NUMBER>  (1) 
53-19-0

>  <UNII>  (1) 
78E4J5IB5J

>  <SYNONYMS>  (1) 
1-chloro-2-[2,2-dichloro-1-(4-chlorophenyl)ethyl]-benzene; Mitotan; Mitotane; Mitotano; Mitotanum; o,p'-DDD

$$$$
