
     RDKit          2D

 16 17  0  0  0  0  0  0  0  0999 V2000
   -0.6077    3.5276    0.0000 C   0  0  0  0  0  0  0  0  0  0  0  0
   -2.2196    0.3531    0.0000 C   0  0  0  0  0  0  0  0  0  0  0  0
   -0.6547    1.8052    0.0000 C   0  0  0  0  0  0  0  0  0  0  0  0
   -0.6077    4.3526    0.0000 C   0  0  0  0  0  0  0  0  0  0  0  0
   -1.3222    2.2901    0.0000 C   0  0  0  0  0  0  0  0  0  0  0  0
   -1.7347    1.0206    0.0000 C   0  0  0  0  0  0  0  0  0  0  0  0
   -1.3222    4.7651    0.0000 C   0  0  0  0  0  0  0  0  0  0  0  0
   -2.0367    3.5276    0.0000 C   0  0  0  0  0  0  0  0  0  0  0  0
    0.1067    4.7651    0.0000 F   0  0  0  0  0  0  0  0  0  0  0  0
   -1.3222    5.5901    0.0000 N   0  0  0  0  0  0  0  0  0  0  0  0
   -2.0367    4.3526    0.0000 N   0  0  0  0  0  0  0  0  0  0  0  0
   -1.3222    3.1151    0.0000 N   0  0  0  0  0  0  0  0  0  0  0  0
   -1.8841   -0.4004    0.0000 O   0  0  0  0  0  0  0  0  0  0  0  0
   -2.7511    3.1151    0.0000 O   0  0  0  0  0  0  0  0  0  0  0  0
   -1.9896    1.8052    0.0000 O   0  0  0  0  0  0  0  0  0  0  0  0
   -0.9097    1.0206    0.0000 S   0  0  0  0  0  0  0  0  0  0  0  0
  4  1  2  0
  5  3  1  0
  6  2  1  0
  7  4  1  0
  9  4  1  0
 10  7  2  0
 11  7  1  0
 11  8  2  0
 12  1  1  0
 12  5  1  0
 12  8  1  0
 13  2  1  0
 14  8  1  0
 15  5  1  0
 15  6  1  0
 16  3  1  0
 16  6  1  0
M  END
>  <DRUGBANK_ID>  (1) 
DB12753

>  <COMMON_NAME>  (1) 
Racivir

>  <CAS_NUMBER>  (1) 
143491-54-7

>  <SYNONYMS>  (1) 
(+/-)-Emtricitabine; Emtricitabine, (+/-)-; RCV

$$$$
