
     RDKit          2D

 33 36  0  0  1  0  0  0  0  0999 V2000
   -0.2861   -2.2796    0.0000 C   0  0  0  0  0  0  0  0  0  0  0  0
    0.1264   -1.5652    0.0000 C   0  0  0  0  0  0  0  0  0  0  0  0
    0.9514   -1.5652    0.0000 C   0  0  0  0  0  0  0  0  0  0  0  0
    1.3639   -2.2796    0.0000 C   0  0  0  0  0  0  0  0  0  0  0  0
    0.9514   -2.9941    0.0000 C   0  0  0  0  0  0  0  0  0  0  0  0
    0.1264   -2.9941    0.0000 C   0  0  0  0  0  0  0  0  0  0  0  0
    1.3639   -3.7086    0.0000 C   0  0  0  0  0  0  0  0  0  0  0  0
    0.9514   -4.4231    0.0000 O   0  0  0  0  0  0  0  0  0  0  0  0
    2.1889   -3.7086    0.0000 N   0  0  0  0  0  0  0  0  0  0  0  0
    1.3639   -0.8507    0.0000 C   0  0  0  0  0  0  0  0  0  0  0  0
    2.1866   -0.9123    0.0000 C   0  0  0  0  0  0  0  0  0  0  0  0
    2.7477   -0.3076    0.0000 C   0  0  0  0  0  0  0  0  0  0  0  0
    2.6248    0.5082    0.0000 C   0  0  0  0  0  0  0  0  0  0  0  0
    1.9103    0.9207    0.0000 C   0  0  0  0  0  0  0  0  0  0  0  0
    1.1423    0.6193    0.0000 C   0  0  0  0  0  0  0  0  0  0  0  0
    0.8992   -0.1690    0.0000 C   0  0  0  0  0  0  0  0  0  0  0  0
    2.0609    0.3565    0.0000 N   0  0  0  0  0  0  0  0  0  0  0  0
    2.4734    1.0710    0.0000 C   0  0  0  0  0  0  0  0  0  0  0  0
    2.0609    1.7855    0.0000 C   0  0  0  0  0  0  0  0  0  0  0  0
    2.4734    2.4999    0.0000 N   0  0  0  0  0  0  0  0  0  0  0  0
    2.0609    3.2144    0.0000 C   0  0  0  0  0  0  0  0  0  0  0  0
    2.4734    3.9289    0.0000 C   0  0  0  0  0  0  0  0  0  0  0  0
    2.0609    4.6434    0.0000 C   0  0  0  0  0  0  0  0  0  0  0  0
    2.4734    5.3578    0.0000 C   0  0  0  0  0  0  0  0  0  0  0  0
    3.2984    5.3578    0.0000 C   0  0  0  0  0  0  0  0  0  0  0  0
    3.7109    4.6434    0.0000 C   0  0  0  0  0  0  0  0  0  0  0  0
    3.2984    3.9289    0.0000 C   0  0  0  0  0  0  0  0  0  0  0  0
    3.2984    2.4999    0.0000 C   0  0  0  0  0  0  0  0  0  0  0  0
    3.7109    3.2144    0.0000 O   0  0  0  0  0  0  0  0  0  0  0  0
    3.7109    1.7855    0.0000 C   0  0  0  0  0  0  0  0  0  0  0  0
    4.5359    1.7855    0.0000 C   0  0  0  0  0  0  0  0  0  0  0  0
    4.9484    1.0710    0.0000 O   0  0  0  0  0  0  0  0  0  0  0  0
    3.2984    1.0710    0.0000 O   0  0  0  0  0  0  0  0  0  0  0  0
  1  2  2  0
  1  6  1  0
  2  3  1  0
  3  4  2  0
  4  5  1  0
  5  6  2  0
  5  7  1  0
  7  8  2  0
  7  9  1  0
 10  3  1  6
 10 11  1  0
 10 16  1  0
 12 11  1  6
 12 13  1  0
 12 17  1  0
 13 14  1  0
 15 14  1  6
 15 16  1  0
 15 17  1  0
 17 18  1  0
 18 19  1  0
 19 20  1  0
 20 21  1  0
 20 28  1  0
 21 22  1  0
 22 23  1  0
 22 27  1  0
 23 24  1  0
 24 25  1  0
 25 26  1  0
 26 27  1  0
 28 29  2  0
 28 30  1  0
 30 31  1  0
 30 33  1  6
 31 32  1  0
M  END
>  <DRUGBANK_ID>  (1) 
DB12013

>  <COMMON_NAME>  (1) 
Axelopran

>  <CAS_NUMBER>  (1) 
949904-48-7

>  <UNII>  (1) 
85U7ROB149

>  <SYNONYMS>  (1) 
Axelopran

$$$$
