
     RDKit          2D

 24 24  0  0  0  0  0  0  0  0999 V2000
   -1.7862   -1.8562    0.0000 O   0  0  0  0  0  0  0  0  0  0  0  0
   -1.7862   -4.3313    0.0000 O   0  0  0  0  0  0  0  0  0  0  0  0
   -3.2152   -3.5063    0.0000 O   0  0  0  0  0  0  0  0  0  0  0  0
   -0.3572   -3.5063    0.0000 O   0  0  0  0  0  0  0  0  0  0  0  0
   -3.2152   -1.0312    0.0000 O   0  0  0  0  0  0  0  0  0  0  0  0
   -1.0717   -0.6187    0.0000 O   0  0  0  0  0  0  0  0  0  0  0  0
    2.5006    3.9188    0.0000 O   0  0  0  0  0  0  0  0  0  0  0  0
    3.2152    2.6813    0.0000 O   0  0  0  0  0  0  0  0  0  0  0  0
   -0.3572   -1.8562    0.0000 N   0  0  0  0  0  0  0  0  0  0  0  0
    1.7862    2.6813    0.0000 N   0  0  0  0  0  0  0  0  0  0  0  0
   -1.7862   -3.5063    0.0000 C   0  0  0  0  0  0  0  0  0  0  0  0
   -2.5006   -3.0938    0.0000 C   0  0  0  0  0  0  0  0  0  0  0  0
   -1.0717   -3.0938    0.0000 C   0  0  0  0  0  0  0  0  0  0  0  0
   -2.5006   -2.2687    0.0000 C   0  0  0  0  0  0  0  0  0  0  0  0
   -1.0717   -2.2687    0.0000 C   0  0  0  0  0  0  0  0  0  0  0  0
   -3.2152   -1.8562    0.0000 C   0  0  0  0  0  0  0  0  0  0  0  0
   -0.3572   -1.0312    0.0000 C   0  0  0  0  0  0  0  0  0  0  0  0
    0.3572   -0.6187    0.0000 C   0  0  0  0  0  0  0  0  0  0  0  0
    0.3572    0.2062    0.0000 C   0  0  0  0  0  0  0  0  0  0  0  0
    1.0717    0.6187    0.0000 C   0  0  0  0  0  0  0  0  0  0  0  0
    1.0717    1.4437    0.0000 C   0  0  0  0  0  0  0  0  0  0  0  0
    1.7862    1.8562    0.0000 C   0  0  0  0  0  0  0  0  0  0  0  0
    2.5006    3.0938    0.0000 C   0  0  0  0  0  0  0  0  0  0  0  0
    3.2152    4.3313    0.0000 C   0  0  0  0  0  0  0  0  0  0  0  0
  1 14  1  0
  1 15  1  0
  5 16  1  0
  6 17  2  0
  7 23  1  0
  7 24  1  0
  8 23  2  0
  9 17  1  0
 10 22  1  0
 10 23  1  0
 11  2  1  1
 11 12  1  0
 11 13  1  0
 12  3  1  1
 12 14  1  0
 13  4  1  6
 13 15  1  0
 14 16  1  1
 15  9  1  1
 17 18  1  0
 18 19  1  0
 19 20  1  0
 20 21  1  0
 21 22  1  0
M  END
>  <DRUGBANK_ID>  (1) 
DB02474

>  <SECONDARY_ACCESSION_NUMBERS>  (1) 
EXPT00089

>  <COMMON_NAME>  (1) 
BMSC-0013

>  <SYNONYMS>  (1) 
N-{6-[(Methoxycarbonyl)amino]hexanoyl}-Î²-D-galactopyranosylamine

$$$$
