
     RDKit          2D

 23 25  0  0  0  0  0  0  0  0999 V2000
   -2.1433    0.8249    0.0000 C   0  0  0  0  0  0  0  0  0  0  0  0
   -2.8578    1.2374    0.0000 C   0  0  0  0  0  0  0  0  0  0  0  0
   -2.8578    2.0624    0.0000 C   0  0  0  0  0  0  0  0  0  0  0  0
   -2.1434    2.4749    0.0000 C   0  0  0  0  0  0  0  0  0  0  0  0
   -1.4289    2.0624    0.0000 C   0  0  0  0  0  0  0  0  0  0  0  0
   -1.4289    1.2374    0.0000 C   0  0  0  0  0  0  0  0  0  0  0  0
   -0.7144    0.8249    0.0000 N   0  0  0  0  0  0  0  0  0  0  0  0
   -0.7144    2.4749    0.0000 S   0  0  0  0  0  0  0  0  0  0  0  0
    0.0000    2.0624    0.0000 C   0  0  0  0  0  0  0  0  0  0  0  0
    0.0000    1.2374    0.0000 C   0  0  0  0  0  0  0  0  0  0  0  0
    0.7144    0.8249    0.0000 C   0  0  0  0  0  0  0  0  0  0  0  0
    0.7144    2.4750    0.0000 C   0  0  0  0  0  0  0  0  0  0  0  0
    1.4289    2.0625    0.0000 C   0  0  0  0  0  0  0  0  0  0  0  0
    1.4289    1.2375    0.0000 C   0  0  0  0  0  0  0  0  0  0  0  0
   -0.7144    0.0000    0.0000 C   0  0  0  0  0  0  0  0  0  0  0  0
    0.0000   -0.4125    0.0000 C   0  0  0  0  0  0  0  0  0  0  0  0
    0.0000   -1.2375    0.0000 C   0  0  0  0  0  0  0  0  0  0  0  0
    0.7145   -1.6500    0.0000 N   0  0  0  0  0  0  0  0  0  0  0  0
    0.7145   -2.4750    0.0000 C   0  0  0  0  0  0  0  0  0  0  0  0
    1.4289   -1.2374    0.0000 C   0  0  0  0  0  0  0  0  0  0  0  0
    0.7145    0.0000    0.0000 C   0  0  0  0  0  0  0  0  0  0  0  0
    2.1434    0.8250    0.0000 C   0  0  0  0  0  0  0  0  0  0  0  0
    2.8578    1.2375    0.0000 C   0  0  0  0  0  0  0  0  0  0  0  0
  1  2  2  0
  1  6  1  0
  2  3  1  0
  3  4  2  0
  4  5  1  0
  5  8  1  0
  6  5  2  0
  7  6  1  0
  7 10  1  0
  7 15  1  0
  8  9  1  0
  9 12  1  0
 10  9  2  0
 11 10  1  0
 11 14  2  0
 12 13  2  0
 13 14  1  0
 14 22  1  0
 15 16  1  0
 16 17  1  0
 16 21  1  0
 17 18  1  0
 18 19  1  0
 18 20  1  0
 22 23  1  0
M  END
>  <DRUGBANK_ID>  (1) 
DB11517

>  <COMMON_NAME>  (1) 
Etymemazine

>  <UNII>  (1) 
861J4K81C7

>  <SYNONYMS>  (1) 
Ethylisobutrazine; Etymemazine

$$$$
