
     RDKit          2D

 10 10  0  0  0  0  0  0  0  0999 V2000
    0.4220   -0.0114    0.0000 C   0  0  0  0  0  0  0  0  0  0  0  0
    1.2112   -0.2657    0.0000 C   0  0  0  0  0  0  0  0  0  0  0  0
    0.4220    0.7927    0.0000 C   0  0  0  0  0  0  0  0  0  0  0  0
   -0.2600   -0.4209    0.0000 N   0  0  0  0  0  0  0  0  0  0  0  0
    1.6949    0.3855    0.0000 S   0  0  0  0  0  0  0  0  0  0  0  0
    1.4633   -1.0367    0.0000 O   0  0  0  0  0  0  0  0  0  0  0  0
    1.2318    1.0367    0.0000 C   0  0  0  0  0  0  0  0  0  0  0  0
   -0.9729   -0.0114    0.0000 C   0  0  0  0  0  0  0  0  0  0  0  0
   -1.6949   -0.4105    0.0000 C   0  0  0  0  0  0  0  0  0  0  0  0
   -0.9729    0.7767    0.0000 O   0  0  0  0  0  0  0  0  0  0  0  0
  1  2  1  0
  1  3  1  0
  1  4  1  0
  2  5  1  0
  2  6  2  0
  3  7  1  0
  4  8  1  0
  5  7  1  0
  8  9  1  0
  8 10  2  0
M  END
>  <DRUGBANK_ID>  (1) 
DB13442

>  <COMMON_NAME>  (1) 
Citiolone

>  <CAS_NUMBER>  (1) 
1195-16-0

>  <UNII>  (1) 
70JKL15MUH

>  <SYNONYMS>  (1) 
Citiolona; Citiolone; Citiolonum

$$$$
