
     RDKit          2D

 35 37  0  0  0  0  0  0  0  0999 V2000
    0.0280    3.5062    0.0000 S   0  0  0  0  0  0  0  0  0  0  0  0
   -2.1153   -3.5062    0.0000 P   0  0  0  0  0  0  0  0  0  0  0  0
   -1.4009    0.2062    0.0000 O   0  0  0  0  0  0  0  0  0  0  0  0
    0.0280   -1.4437    0.0000 O   0  0  0  0  0  0  0  0  0  0  0  0
   -2.1153   -1.0312    0.0000 O   0  0  0  0  0  0  0  0  0  0  0  0
   -2.1153   -2.6812    0.0000 O   0  0  0  0  0  0  0  0  0  0  0  0
    0.0280    4.3312    0.0000 O   0  0  0  0  0  0  0  0  0  0  0  0
    0.8530    3.5062    0.0000 O   0  0  0  0  0  0  0  0  0  0  0  0
   -0.7969    3.5062    0.0000 O   0  0  0  0  0  0  0  0  0  0  0  0
    1.4704    3.5347    0.0000 O   0  0  0  0  0  0  0  0  0  0  0  0
    2.9403    1.0113    0.0000 O   0  0  0  0  0  0  0  0  0  0  0  0
   -2.1153   -4.3312    0.0000 O   0  0  0  0  0  0  0  0  0  0  0  0
   -2.9403   -3.5062    0.0000 O   0  0  0  0  0  0  0  0  0  0  0  0
   -1.2903   -3.5062    0.0000 O   0  0  0  0  0  0  0  0  0  0  0  0
    0.0280    1.0312    0.0000 N   0  0  0  0  0  0  0  0  0  0  0  0
    0.0280    2.6812    0.0000 N   0  0  0  0  0  0  0  0  0  0  0  0
    1.4799    1.0026    0.0000 N   0  0  0  0  0  0  0  0  0  0  0  0
    2.2275    2.2859    0.0000 N   0  0  0  0  0  0  0  0  0  0  0  0
    0.0280    0.2062    0.0000 C   0  0  0  0  0  0  0  0  0  0  0  0
   -0.6864   -0.2062    0.0000 C   0  0  0  0  0  0  0  0  0  0  0  0
   -0.6864   -1.0312    0.0000 C   0  0  0  0  0  0  0  0  0  0  0  0
   -0.6864    1.4437    0.0000 C   0  0  0  0  0  0  0  0  0  0  0  0
   -0.6864    2.2687    0.0000 C   0  0  0  0  0  0  0  0  0  0  0  0
    0.7425    1.4437    0.0000 C   0  0  0  0  0  0  0  0  0  0  0  0
   -1.4009   -1.4437    0.0000 C   0  0  0  0  0  0  0  0  0  0  0  0
    0.7425    2.2687    0.0000 C   0  0  0  0  0  0  0  0  0  0  0  0
   -1.4239    1.0026    0.0000 C   0  0  0  0  0  0  0  0  0  0  0  0
   -1.4239    2.7098    0.0000 C   0  0  0  0  0  0  0  0  0  0  0  0
   -2.1714    1.4265    0.0000 C   0  0  0  0  0  0  0  0  0  0  0  0
   -2.1714    2.2859    0.0000 C   0  0  0  0  0  0  0  0  0  0  0  0
   -1.4009   -2.2687    0.0000 C   0  0  0  0  0  0  0  0  0  0  0  0
    1.4799    2.7098    0.0000 C   0  0  0  0  0  0  0  0  0  0  0  0
   -2.8842    1.0113    0.0000 C   0  0  0  0  0  0  0  0  0  0  0  0
   -2.8842    2.7011    0.0000 C   0  0  0  0  0  0  0  0  0  0  0  0
    2.2275    1.4265    0.0000 C   0  0  0  0  0  0  0  0  0  0  0  0
  1  7  1  0
  1  8  2  0
  1  9  2  0
  1 16  1  0
  2  6  1  0
  2 12  1  0
  2 13  1  0
  2 14  2  0
  6 31  1  0
 10 32  2  0
 11 35  2  0
 15 19  1  0
 15 22  1  0
 15 24  1  0
 16 23  1  0
 16 26  2  0
 17 24  2  0
 17 35  1  0
 18 32  1  0
 18 35  1  0
 19 20  1  0
 20  3  1  1
 20 21  1  0
 21  4  1  6
 21 25  1  0
 22 23  2  0
 22 27  1  0
 23 28  1  0
 24 26  1  0
 25  5  1  1
 25 31  1  0
 26 32  1  0
 27 29  2  0
 28 30  2  0
 29 30  1  0
 29 33  1  0
 30 34  1  0
M  CHG  2   7  -1  16   1
M  END
>  <DRUGBANK_ID>  (1) 
DB02164

>  <SECONDARY_ACCESSION_NUMBERS>  (1) 
EXPT01464

>  <COMMON_NAME>  (1) 
N-sulfo-flavin mononucleotide

$$$$
