
     RDKit          2D

 29 30  0  0  0  0  0  0  0  0999 V2000
    4.1529   -0.0497    0.0000 S   0  0  0  0  0  0  0  0  0  0  0  0
    1.9544   -1.7176    0.0000 O   0  0  0  0  0  0  0  0  0  0  0  0
    3.8558   -2.7822    0.0000 O   0  0  0  0  0  0  0  0  0  0  0  0
    5.2149   -2.3407    0.0000 O   0  0  0  0  0  0  0  0  0  0  0  0
    0.9419   -0.7250    0.0000 O   0  0  0  0  0  0  0  0  0  0  0  0
   -2.5509    2.7822    0.0000 O   0  0  0  0  0  0  0  0  0  0  0  0
   -1.1714    2.4096    0.0000 O   0  0  0  0  0  0  0  0  0  0  0  0
   -3.3483    2.5704    0.0000 O   0  0  0  0  0  0  0  0  0  0  0  0
    3.3684   -1.1296    0.0000 N   0  0  0  0  0  0  0  0  0  0  0  0
    1.9544    0.2833    0.0000 N   0  0  0  0  0  0  0  0  0  0  0  0
   -2.9812    1.1893    0.0000 N   0  0  0  0  0  0  0  0  0  0  0  0
   -4.9429    2.1466    0.0000 N   0  0  0  0  0  0  0  0  0  0  0  0
    3.3684   -0.3046    0.0000 C   0  0  0  0  0  0  0  0  0  0  0  0
    4.6379   -0.7172    0.0000 C   0  0  0  0  0  0  0  0  0  0  0  0
    4.1529   -1.3845    0.0000 C   0  0  0  0  0  0  0  0  0  0  0  0
    2.5365   -0.3013    0.0000 C   0  0  0  0  0  0  0  0  0  0  0  0
    2.5365   -1.1330    0.0000 C   0  0  0  0  0  0  0  0  0  0  0  0
    5.3054   -1.2020    0.0000 C   0  0  0  0  0  0  0  0  0  0  0  0
    5.3054   -0.2322    0.0000 C   0  0  0  0  0  0  0  0  0  0  0  0
    4.4080   -2.1692    0.0000 C   0  0  0  0  0  0  0  0  0  0  0  0
    1.1571    0.0714    0.0000 C   0  0  0  0  0  0  0  0  0  0  0  0
    0.5749    0.6559    0.0000 C   0  0  0  0  0  0  0  0  0  0  0  0
   -0.2223    0.4441    0.0000 C   0  0  0  0  0  0  0  0  0  0  0  0
   -0.8044    1.0285    0.0000 C   0  0  0  0  0  0  0  0  0  0  0  0
   -1.6018    0.8166    0.0000 C   0  0  0  0  0  0  0  0  0  0  0  0
   -2.1840    1.4013    0.0000 C   0  0  0  0  0  0  0  0  0  0  0  0
   -1.9688    2.1978    0.0000 C   0  0  0  0  0  0  0  0  0  0  0  0
   -3.5635    1.7740    0.0000 C   0  0  0  0  0  0  0  0  0  0  0  0
   -4.3607    1.5621    0.0000 C   0  0  0  0  0  0  0  0  0  0  0  0
 13  1  1  1
  1 14  1  0
  2 17  2  0
  3 20  1  0
  4 20  2  0
  5 21  2  0
  6 27  1  0
  7 27  2  0
  8 28  2  0
  9 13  1  0
  9 15  1  0
  9 17  1  0
 10 21  1  0
 11 28  1  0
 12 29  1  0
 13 16  1  0
 14 15  1  0
 14 18  1  0
 14 19  1  0
 15 20  1  6
 16 10  1  1
 16 17  1  0
 21 22  1  0
 22 23  1  0
 23 24  1  0
 24 25  1  0
 26 25  1  6
 26 11  1  0
 26 27  1  0
 28 29  1  0
M  CHG  3   3  -1   6  -1  12   1
M  END
>  <DRUGBANK_ID>  (1) 
DB03820

>  <SECONDARY_ACCESSION_NUMBERS>  (1) 
EXPT01725

>  <COMMON_NAME>  (1) 
(2S,5R,6R)-6-({(6S)-6-[(Ammonioacetyl)amino]-6-carboxylatohexanoyl}amino)-3,3-dimethyl-7-oxo-4-thia-1-azabicyclo[3.2.0]heptane-2-carboxylate

$$$$
