
     RDKit          2D

 32 35  0  0  0  0  0  0  0  0999 V2000
    0.3213    3.7183    0.0000 O   0  0  0  0  0  0  0  0  0  0  0  0
    1.2225    2.7217    0.0000 N   0  0  0  0  0  0  0  0  0  0  0  0
    0.5905    0.5414    0.0000 N   0  0  0  0  0  0  0  0  0  0  0  0
   -0.6469    2.9059    0.0000 N   0  0  0  0  0  0  0  0  0  0  0  0
    1.5260   -1.5210    0.0000 N   0  0  0  0  0  0  0  0  0  0  0  0
    0.5905    2.1914    0.0000 C   0  0  0  0  0  0  0  0  0  0  0  0
   -0.1239    1.7789    0.0000 C   0  0  0  0  0  0  0  0  0  0  0  0
    1.3049    1.7789    0.0000 C   0  0  0  0  0  0  0  0  0  0  0  0
   -0.1239    0.9539    0.0000 C   0  0  0  0  0  0  0  0  0  0  0  0
    1.3049    0.9539    0.0000 C   0  0  0  0  0  0  0  0  0  0  0  0
    1.9978    2.4396    0.0000 C   0  0  0  0  0  0  0  0  0  0  0  0
    1.0792    3.5342    0.0000 C   0  0  0  0  0  0  0  0  0  0  0  0
    2.6297    2.9699    0.0000 C   0  0  0  0  0  0  0  0  0  0  0  0
    1.7112    4.0645    0.0000 C   0  0  0  0  0  0  0  0  0  0  0  0
    0.1780    2.9059    0.0000 C   0  0  0  0  0  0  0  0  0  0  0  0
    2.4865    3.7824    0.0000 C   0  0  0  0  0  0  0  0  0  0  0  0
    0.5905   -0.2835    0.0000 C   0  0  0  0  0  0  0  0  0  0  0  0
   -0.1239   -0.6960    0.0000 C   0  0  0  0  0  0  0  0  0  0  0  0
   -0.1239   -1.5210    0.0000 C   0  0  0  0  0  0  0  0  0  0  0  0
   -0.1239   -2.3460    0.0000 C   0  0  0  0  0  0  0  0  0  0  0  0
   -0.9489   -1.5210    0.0000 C   0  0  0  0  0  0  0  0  0  0  0  0
    0.7010   -1.5210    0.0000 C   0  0  0  0  0  0  0  0  0  0  0  0
   -0.8383   -2.7585    0.0000 C   0  0  0  0  0  0  0  0  0  0  0  0
   -1.3614   -0.8065    0.0000 C   0  0  0  0  0  0  0  0  0  0  0  0
    0.5905   -2.7585    0.0000 C   0  0  0  0  0  0  0  0  0  0  0  0
   -1.3614   -2.2354    0.0000 C   0  0  0  0  0  0  0  0  0  0  0  0
   -0.8383   -3.5835    0.0000 C   0  0  0  0  0  0  0  0  0  0  0  0
   -2.1864   -0.8065    0.0000 C   0  0  0  0  0  0  0  0  0  0  0  0
    0.5905   -3.5835    0.0000 C   0  0  0  0  0  0  0  0  0  0  0  0
   -2.1864   -2.2354    0.0000 C   0  0  0  0  0  0  0  0  0  0  0  0
   -0.1239   -3.9960    0.0000 C   0  0  0  0  0  0  0  0  0  0  0  0
   -2.5989   -1.5210    0.0000 C   0  0  0  0  0  0  0  0  0  0  0  0
  1 15  2  0
  2  6  1  0
  2 11  1  0
  2 12  1  0
  3  9  1  0
  3 10  1  0
  3 17  1  0
  4 15  1  0
  5 22  3  0
  6  7  1  0
  6  8  1  0
  6 15  1  0
  7  9  1  0
  8 10  1  0
 11 13  1  0
 12 14  1  0
 13 16  1  0
 14 16  1  0
 17 18  1  0
 18 19  1  0
 19 20  1  0
 19 21  1  0
 19 22  1  0
 20 23  2  0
 20 25  1  0
 21 24  2  0
 21 26  1  0
 23 27  1  0
 24 28  1  0
 25 29  2  0
 26 30  2  0
 27 31  2  0
 28 32  2  0
 29 31  1  0
 30 32  1  0
M  END
>  <DRUGBANK_ID>  (1) 
DB12492

>  <COMMON_NAME>  (1) 
Piritramide

>  <CAS_NUMBER>  (1) 
302-41-0

>  <UNII>  (1) 
4RP92LYZ2F

>  <SYNONYMS>  (1) 
Piritramida; Piritramide; Piritramidum

$$$$
