QIG
     RDKit          2D

 27 31  0  0  0  0  0  0  0  0999 V2000
   -2.4696   -3.2042    0.0000 C   0  0  0  0  0  0  0  0  0  0  0  0
   -2.4696   -2.3792    0.0000 C   0  0  0  0  0  0  0  0  0  0  0  0
   -3.1841   -1.9667    0.0000 C   0  0  0  0  0  0  0  0  0  0  0  0
   -3.1841   -1.1417    0.0000 C   0  0  0  0  0  0  0  0  0  0  0  0
   -2.4696   -0.7292    0.0000 C   0  0  0  0  0  0  0  0  0  0  0  0
   -1.7552   -1.1417    0.0000 C   0  0  0  0  0  0  0  0  0  0  0  0
   -1.7552   -1.9667    0.0000 N   0  0  0  0  0  0  0  0  0  0  0  0
   -1.0407   -0.7292    0.0000 C   0  0  0  0  0  0  0  0  0  0  0  0
   -1.0407    0.0958    0.0000 N   0  0  0  0  0  0  0  0  0  0  0  0
   -0.3262    0.5083    0.0000 C   0  0  0  0  0  0  0  0  0  0  0  0
   -0.3262    1.3333    0.0000 N   0  0  0  0  0  0  0  0  0  0  0  0
    0.3882    1.7458    0.0000 C   0  0  0  0  0  0  0  0  0  0  0  0
    0.3882    2.5708    0.0000 C   0  0  0  0  0  0  0  0  0  0  0  0
    1.1027    2.9833    0.0000 C   0  0  0  0  0  0  0  0  0  0  0  0
    1.8172    2.5708    0.0000 C   0  0  0  0  0  0  0  0  0  0  0  0
    2.6018    2.8257    0.0000 N   0  0  0  0  0  0  0  0  0  0  0  0
    3.0867    2.1583    0.0000 N   0  0  0  0  0  0  0  0  0  0  0  0
    2.6018    1.4908    0.0000 C   0  0  0  0  0  0  0  0  0  0  0  0
    1.8172    1.7458    0.0000 C   0  0  0  0  0  0  0  0  0  0  0  0
    1.1027    1.3333    0.0000 C   0  0  0  0  0  0  0  0  0  0  0  0
    0.3882    0.0958    0.0000 C   0  0  0  0  0  0  0  0  0  0  0  0
    1.1027    0.5083    0.0000 C   0  0  0  0  0  0  0  0  0  0  0  0
    1.8172    0.0958    0.0000 C   0  0  0  0  0  0  0  0  0  0  0  0
    1.8172   -0.7292    0.0000 C   0  0  0  0  0  0  0  0  0  0  0  0
    1.1027   -1.1417    0.0000 C   0  0  0  0  0  0  0  0  0  0  0  0
    0.3882   -0.7292    0.0000 C   0  0  0  0  0  0  0  0  0  0  0  0
   -0.3262   -1.1417    0.0000 N   0  0  0  0  0  0  0  0  0  0  0  0
  1  2  1  0
  2  3  2  0
  2  7  1  0
  3  4  1  0
  4  5  2  0
  5  6  1  0
  6  7  2  0
  6  8  1  0
  8  9  2  0
  8 27  1  0
  9 10  1  0
 10 11  1  0
 10 21  2  0
 11 12  1  0
 12 13  2  0
 12 20  1  0
 13 14  1  0
 14 15  2  0
 15 16  1  0
 15 19  1  0
 16 17  1  0
 17 18  2  0
 18 19  1  0
 19 20  2  0
 21 22  1  0
 21 26  1  0
 22 23  2  0
 23 24  1  0
 24 25  2  0
 25 26  1  0
 26 27  2  0
M  END
>  <DRUGBANK_ID>  (1) 
DB08450

>  <COMMON_NAME>  (1) 
N-1H-indazol-5-yl-2-(6-methylpyridin-2-yl)quinazolin-4-amine

$$$$
