
     RDKit          2D

 29 33  0  0  0  0  0  0  0  0999 V2000
   -3.3597    0.6618    0.0000 N   0  0  0  0  0  0  0  0  0  0  0  0
   -3.7722    1.3762    0.0000 C   0  0  0  0  0  0  0  0  0  0  0  0
   -3.3597    2.0907    0.0000 C   0  0  0  0  0  0  0  0  0  0  0  0
   -2.5347    2.0907    0.0000 C   0  0  0  0  0  0  0  0  0  0  0  0
   -2.1222    1.3763    0.0000 C   0  0  0  0  0  0  0  0  0  0  0  0
   -2.5347    0.6618    0.0000 C   0  0  0  0  0  0  0  0  0  0  0  0
   -1.9827    0.0487    0.0000 C   0  0  0  0  0  0  0  0  0  0  0  0
   -1.3152    1.2047    0.0000 C   0  0  0  0  0  0  0  0  0  0  0  0
   -1.2290    0.3843    0.0000 N   0  0  0  0  0  0  0  0  0  0  0  0
   -0.5145   -0.0281    0.0000 C   0  0  0  0  0  0  0  0  0  0  0  0
    0.1998   -1.2656    0.0000 C   0  0  0  0  0  0  0  0  0  0  0  0
   -0.5145   -0.8531    0.0000 C   0  0  0  0  0  0  0  0  0  0  0  0
    0.1998    0.3843    0.0000 C   0  0  0  0  0  0  0  0  0  0  0  0
    0.9143   -0.0281    0.0000 C   0  0  0  0  0  0  0  0  0  0  0  0
    0.9143   -0.8531    0.0000 C   0  0  0  0  0  0  0  0  0  0  0  0
    2.3433   -0.8532    0.0000 C   0  0  0  0  0  0  0  0  0  0  0  0
    1.6288   -1.2656    0.0000 C   0  0  0  0  0  0  0  0  0  0  0  0
    1.6288    0.3843    0.0000 N   0  0  0  0  0  0  0  0  0  0  0  0
    2.3433   -0.0282    0.0000 C   0  0  0  0  0  0  0  0  0  0  0  0
   -1.2290   -1.2656    0.0000 F   0  0  0  0  0  0  0  0  0  0  0  0
    1.6288   -2.0906    0.0000 O   0  0  0  0  0  0  0  0  0  0  0  0
    3.0577   -1.2657    0.0000 C   0  0  0  0  0  0  0  0  0  0  0  0
    3.7722   -0.8532    0.0000 O   0  0  0  0  0  0  0  0  0  0  0  0
    3.0577   -2.0907    0.0000 O   0  0  0  0  0  0  0  0  0  0  0  0
    1.6288    1.2093    0.0000 C   0  0  0  0  0  0  0  0  0  0  0  0
    1.1690    1.8132    0.0000 C   0  0  0  0  0  0  0  0  0  0  0  0
    1.9322    1.8338    0.0000 C   0  0  0  0  0  0  0  0  0  0  0  0
    0.1998    1.2093    0.0000 C   0  0  0  0  0  0  0  0  0  0  0  0
    0.2125    1.8930    0.0000 N   0  0  0  0  0  0  0  0  0  0  0  0
  1  2  1  0
  1  6  1  0
  2  3  1  0
  3  4  1  0
  5  4  1  1
  5  8  1  0
  6  5  1  0
  6  7  1  1
  7  9  1  0
  8  9  1  0
  9 10  1  0
 10 13  2  0
 11 12  2  0
 11 15  1  0
 12 10  1  0
 12 20  1  0
 13 14  1  0
 13 28  1  0
 14 18  1  0
 15 14  2  0
 16 17  1  0
 16 19  2  0
 16 22  1  0
 17 15  1  0
 17 21  2  0
 18 19  1  0
 18 25  1  0
 22 23  1  0
 22 24  2  0
 25 26  1  0
 25 27  1  0
 26 27  1  0
 28 29  3  0
M  END
>  <DRUGBANK_ID>  (1) 
DB11453

>  <COMMON_NAME>  (1) 
Pradofloxacin

>  <CAS_NUMBER>  (1) 
195532-12-8

>  <UNII>  (1) 
6O0T5E048I

>  <SYNONYMS>  (1) 
Pradofloxacin

$$$$
