
     RDKit          2D

 24 27  0  0  0  0  0  0  0  0999 V2000
    1.7862   -0.5634    0.0000 C   0  0  0  0  0  0  0  0  0  0  0  0
    2.5007   -0.1511    0.0000 C   0  0  0  0  0  0  0  0  0  0  0  0
    3.2152   -0.5634    0.0000 C   0  0  0  0  0  0  0  0  0  0  0  0
    3.2152   -1.3885    0.0000 C   0  0  0  0  0  0  0  0  0  0  0  0
    2.5007   -1.8010    0.0000 C   0  0  0  0  0  0  0  0  0  0  0  0
    1.7862   -1.3885    0.0000 C   0  0  0  0  0  0  0  0  0  0  0  0
    2.1637   -0.9760    0.0000 C   0  0  0  0  0  0  0  0  0  0  0  0
    1.0717   -0.1511    0.0000 C   0  0  0  0  0  0  0  0  0  0  0  0
    1.0717    0.6738    0.0000 N   0  0  0  0  0  0  0  0  0  0  0  0
    0.3572    1.0864    0.0000 S   0  0  0  0  0  0  0  0  0  0  0  0
   -0.3572    0.6738    0.0000 C   0  0  0  0  0  0  0  0  0  0  0  0
   -0.3572   -0.1511    0.0000 C   0  0  0  0  0  0  0  0  0  0  0  0
    0.3572   -0.5634    0.0000 N   0  0  0  0  0  0  0  0  0  0  0  0
   -1.0717    1.0864    0.0000 C   0  0  0  0  0  0  0  0  0  0  0  0
   -1.7861    0.6738    0.0000 C   0  0  0  0  0  0  0  0  0  0  0  0
   -1.7861   -0.1511    0.0000 C   0  0  0  0  0  0  0  0  0  0  0  0
   -1.0717   -0.5634    0.0000 C   0  0  0  0  0  0  0  0  0  0  0  0
   -2.5008   -0.5634    0.0000 Cl  0  0  0  0  0  0  0  0  0  0  0  0
   -2.5008    1.0864    0.0000 S   0  0  0  0  0  0  0  0  0  0  0  0
   -0.0552    1.8010    0.0000 O   0  0  0  0  0  0  0  0  0  0  0  0
    0.7696    1.8010    0.0000 O   0  0  0  0  0  0  0  0  0  0  0  0
   -2.0883    1.8010    0.0000 O   0  0  0  0  0  0  0  0  0  0  0  0
   -2.9131    1.8010    0.0000 O   0  0  0  0  0  0  0  0  0  0  0  0
   -3.2152    0.6738    0.0000 N   0  0  0  0  0  0  0  0  0  0  0  0
  1  2  1  0
  1  6  1  0
  1  8  1  0
  2  3  1  0
  2  7  1  0
  3  4  2  0
  4  5  1  0
  5  6  1  0
  5  7  1  0
  8  9  1  0
  8 13  1  0
  9 10  1  0
 10 11  1  0
 10 20  2  0
 10 21  2  0
 11 12  2  0
 11 14  1  0
 12 13  1  0
 12 17  1  0
 14 15  2  0
 15 16  1  0
 15 19  1  0
 16 17  2  0
 16 18  1  0
 19 22  2  0
 19 23  2  0
 19 24  1  0
M  END
>  <DRUGBANK_ID>  (1) 
DB00606

>  <SECONDARY_ACCESSION_NUMBERS>  (1) 
APRD00895; EXPT01082

>  <COMMON_NAME>  (1) 
Cyclothiazide

>  <CAS_NUMBER>  (1) 
2259-96-3

>  <UNII>  (1) 
P71U09G5BW

>  <SYNONYMS>  (1) 
6-chloro-3-(2-norbornen-5-yl)-7-sulfamyl-3,4-dihydro-1,2,4-benzothiadiazine 1,1-dioxide; 6-chloro-3,4-dihydro-3-(2-norbornen-5-yl)-2H-1,2,4-benzothiadiazine-7-sulfonamide 1,1-dioxide; 6-chloro-3,4-dihydro-3-(2-norbornen-5-yl)-7-sulfamoyl-1,2,4-benzothiadiazine 1,1-dioxide; 6-chloro-3,4-dihydro-3-(5-norbornen-2-yl)-2H-1,2,4-benzothiadiazine-7-sulfonamide 1,1-dioxide; Ciclotiazida; Ciclotiazide; Cyclothiazide; Cyclothiazidum

$$$$
