TN4
     RDKit          2D

 27 29  0  0  0  0  0  0  0  0999 V2000
    1.4651    2.3006    0.0000 N   0  0  0  0  0  0  0  0  0  0  0  0
    0.7506    2.7131    0.0000 C   0  0  0  0  0  0  0  0  0  0  0  0
    0.7506    3.5381    0.0000 O   0  0  0  0  0  0  0  0  0  0  0  0
    0.0361    2.3006    0.0000 O   0  0  0  0  0  0  0  0  0  0  0  0
    0.0361    1.4756    0.0000 C   0  0  0  0  0  0  0  0  0  0  0  0
    0.7506    1.0631    0.0000 C   0  0  0  0  0  0  0  0  0  0  0  0
    0.7506    0.2381    0.0000 C   0  0  0  0  0  0  0  0  0  0  0  0
    0.0361   -0.1744    0.0000 C   0  0  0  0  0  0  0  0  0  0  0  0
    0.4486   -0.8889    0.0000 O   0  0  0  0  0  0  0  0  0  0  0  0
   -0.3764   -0.8889    0.0000 C   0  0  0  0  0  0  0  0  0  0  0  0
   -0.6783    0.2381    0.0000 C   0  0  0  0  0  0  0  0  0  0  0  0
   -0.6783    1.0631    0.0000 C   0  0  0  0  0  0  0  0  0  0  0  0
   -1.3928    1.4756    0.0000 O   0  0  0  0  0  0  0  0  0  0  0  0
   -2.1073    1.0631    0.0000 C   0  0  0  0  0  0  0  0  0  0  0  0
   -1.3928   -0.1744    0.0000 C   0  0  0  0  0  0  0  0  0  0  0  0
   -1.9231   -0.8064    0.0000 O   0  0  0  0  0  0  0  0  0  0  0  0
   -1.1106   -0.9497    0.0000 C   0  0  0  0  0  0  0  0  0  0  0  0
   -0.4787   -1.4800    0.0000 C   0  0  0  0  0  0  0  0  0  0  0  0
   -0.6219   -2.2924    0.0000 C   0  0  0  0  0  0  0  0  0  0  0  0
    0.0101   -2.8227    0.0000 C   0  0  0  0  0  0  0  0  0  0  0  0
   -0.1332   -3.6352    0.0000 C   0  0  0  0  0  0  0  0  0  0  0  0
    0.7853   -2.5406    0.0000 C   0  0  0  0  0  0  0  0  0  0  0  0
   -1.9231    0.4576    0.0000 C   0  0  0  0  0  0  0  0  0  0  0  0
    2.1795    2.7131    0.0000 C   0  0  0  0  0  0  0  0  0  0  0  0
    2.1795    3.5381    0.0000 O   0  0  0  0  0  0  0  0  0  0  0  0
    2.8940    2.3006    0.0000 C   0  0  0  0  0  0  0  0  0  0  0  0
    3.6085    2.7131    0.0000 Cl  0  0  0  0  0  0  0  0  0  0  0  0
  1  2  1  0
  1 24  1  0
  2  3  2  0
  2  4  1  0
  5  4  1  6
  5  6  1  0
  5 12  1  0
  6  7  1  0
  8  7  1  6
  8  9  1  0
  8 10  1  0
 11  8  1  1
  9 10  1  0
 11 12  1  0
 12 13  1  6
 13 14  1  0
 15 11  1  0
 15 16  1  0
 15 17  1  0
 15 23  1  1
 16 17  1  0
 17 18  1  1
 18 19  1  0
 19 20  2  3
 20 21  1  0
 20 22  1  0
 24 25  2  0
 24 26  1  0
 26 27  1  0
M  END
>  <DRUGBANK_ID>  (1) 
DB08633

>  <SECONDARY_ACCESSION_NUMBERS>  (1) 
DB12828

>  <COMMON_NAME>  (1) 
TNP-470

>  <CAS_NUMBER>  (1) 
129298-91-5

>  <UNII>  (1) 
X47GR46481

>  <SYNONYMS>  (1) 
O-(chloroacetylcarbamoyl)fumagillol; O-chloroacetylcarbamoylfumagillol

$$$$
