
     RDKit          2D

 10 10  0  0  0  0  0  0  0  0999 V2000
    1.4289   -1.6500    0.0000 O   0  0  0  0  0  0  0  0  0  0  0  0
    0.7145   -1.2375    0.0000 C   0  0  0  0  0  0  0  0  0  0  0  0
    0.7145   -0.4125    0.0000 C   0  0  0  0  0  0  0  0  0  0  0  0
    0.0000    0.0000    0.0000 C   0  0  0  0  0  0  0  0  0  0  0  0
    0.0000    0.8250    0.0000 C   0  0  0  0  0  0  0  0  0  0  0  0
   -0.7145    1.2375    0.0000 O   0  0  0  0  0  0  0  0  0  0  0  0
    0.7145    1.2375    0.0000 C   0  0  0  0  0  0  0  0  0  0  0  0
    0.7145    2.0625    0.0000 O   0  0  0  0  0  0  0  0  0  0  0  0
    1.4289    0.8250    0.0000 C   0  0  0  0  0  0  0  0  0  0  0  0
    1.4289    0.0000    0.0000 O   0  0  0  0  0  0  0  0  0  0  0  0
  1  2  1  0
  2  3  1  0
  3  4  2  0
  3 10  1  0
  4  5  1  0
  5  6  2  0
  5  7  1  0
  7  8  1  0
  7  9  2  0
  9 10  1  0
M  END
>  <DRUGBANK_ID>  (1) 
DB01759

>  <SECONDARY_ACCESSION_NUMBERS>  (1) 
EXPT01978

>  <COMMON_NAME>  (1) 
Kojic acid

>  <CAS_NUMBER>  (1) 
501-30-4

>  <UNII>  (1) 
6K23F1TT52

>  <SYNONYMS>  (1) 
5-hydroxy-2-(hydroxymethyl)-4-pyrone; 5-hydroxy-2-(hydroxymethyl)-4H-pyran-4-one; ácido kójico

$$$$
