
     RDKit          2D

 35 37  0  0  0  0  0  0  0  0999 V2000
    3.1772    2.1600    0.0000 N   0  0  0  0  0  0  0  0  0  0  0  0
    2.3926    1.9050    0.0000 C   0  0  0  0  0  0  0  0  0  0  0  0
    2.3926    1.0800    0.0000 C   0  0  0  0  0  0  0  0  0  0  0  0
    3.1772    0.8251    0.0000 C   0  0  0  0  0  0  0  0  0  0  0  0
    3.6621    1.4925    0.0000 C   0  0  0  0  0  0  0  0  0  0  0  0
    1.7251    2.3899    0.0000 O   0  0  0  0  0  0  0  0  0  0  0  0
    1.7251    0.5951    0.0000 C   0  0  0  0  0  0  0  0  0  0  0  0
    1.7251   -0.2298    0.0000 C   0  0  0  0  0  0  0  0  0  0  0  0
    2.4788   -0.5654    0.0000 C   0  0  0  0  0  0  0  0  0  0  0  0
    3.2325   -0.9009    0.0000 N   0  0  0  0  0  0  0  0  0  0  0  0
    1.0332   -0.6791    0.0000 N   0  0  0  0  0  0  0  0  0  0  0  0
    0.2981   -0.3046    0.0000 C   0  0  0  0  0  0  0  0  0  0  0  0
    0.2550    0.5192    0.0000 O   0  0  0  0  0  0  0  0  0  0  0  0
   -1.2006   -0.5823    0.0000 N   0  0  0  0  0  0  0  0  0  0  0  0
   -1.6131   -1.2968    0.0000 C   0  0  0  0  0  0  0  0  0  0  0  0
   -1.0611   -1.9099    0.0000 C   0  0  0  0  0  0  0  0  0  0  0  0
   -0.3074   -1.5744    0.0000 C   0  0  0  0  0  0  0  0  0  0  0  0
   -0.3937   -0.7539    0.0000 C   0  0  0  0  0  0  0  0  0  0  0  0
   -0.4067   -2.2928    0.0000 C   0  0  0  0  0  0  0  0  0  0  0  0
   -0.5783   -3.0997    0.0000 C   0  0  0  0  0  0  0  0  0  0  0  0
    0.3332   -2.5759    0.0000 C   0  0  0  0  0  0  0  0  0  0  0  0
   -1.5362    0.1713    0.0000 C   0  0  0  0  0  0  0  0  0  0  0  0
   -2.3567    0.2575    0.0000 C   0  0  0  0  0  0  0  0  0  0  0  0
   -1.0513    0.8387    0.0000 O   0  0  0  0  0  0  0  0  0  0  0  0
   -2.8416   -0.4098    0.0000 C   0  0  0  0  0  0  0  0  0  0  0  0
   -2.6922    1.0112    0.0000 N   0  0  0  0  0  0  0  0  0  0  0  0
   -2.2073    1.6786    0.0000 C   0  0  0  0  0  0  0  0  0  0  0  0
   -2.5429    2.4323    0.0000 C   0  0  0  0  0  0  0  0  0  0  0  0
   -1.3868    1.5924    0.0000 O   0  0  0  0  0  0  0  0  0  0  0  0
   -3.3633    2.5185    0.0000 F   0  0  0  0  0  0  0  0  0  0  0  0
   -2.0579    3.0997    0.0000 F   0  0  0  0  0  0  0  0  0  0  0  0
   -2.8608    3.0827    0.0000 F   0  0  0  0  0  0  0  0  0  0  0  0
   -3.6621   -0.3236    0.0000 C   0  0  0  0  0  0  0  0  0  0  0  0
   -2.5060   -1.1635    0.0000 C   0  0  0  0  0  0  0  0  0  0  0  0
   -3.3265   -1.0773    0.0000 C   0  0  0  0  0  0  0  0  0  0  0  0
  1  2  1  0
  1  5  1  0
  2  3  1  0
  2  6  2  0
  3  4  1  0
  3  7  1  1
  4  5  1  0
  8  9  1  1
  8  7  1  0
  8 11  1  0
  9 10  3  0
 11 12  1  0
 12 13  2  0
 14 15  1  0
 14 18  1  0
 14 22  1  0
 16 15  1  1
 16 17  1  0
 16 19  1  0
 17 18  1  0
 17 19  1  1
 18 12  1  6
 19 20  1  0
 19 21  1  0
 22 23  1  0
 22 24  2  0
 23 25  1  0
 23 26  1  6
 25 33  1  0
 25 34  1  0
 25 35  1  0
 26 27  1  0
 27 29  2  0
 27 28  1  0
 28 31  1  0
 28 32  1  0
 28 30  1  0
M  END
>  <DRUGBANK_ID>  (1) 
DB16691

>  <COMMON_NAME>  (1) 
Nirmatrelvir

>  <CAS_NUMBER>  (1) 
2628280-40-8

>  <UNII>  (1) 
7R9A5P7H32

$$$$
