
     RDKit          2D

 22 24  0  0  0  0  0  0  0  0999 V2000
    4.6575    3.9476    0.0000 C   0  0  0  0  0  0  0  0  0  0  0  0
    4.0527    3.3865    0.0000 C   0  0  0  0  0  0  0  0  0  0  0  0
    3.0808   -2.2457    0.0000 C   0  0  0  0  0  0  0  0  0  0  0  0
    3.8691   -2.0025    0.0000 C   0  0  0  0  0  0  0  0  0  0  0  0
    2.4760   -1.6845    0.0000 C   0  0  0  0  0  0  0  0  0  0  0  0
    4.0527   -1.1982    0.0000 C   0  0  0  0  0  0  0  0  0  0  0  0
    2.6596   -0.8802    0.0000 C   0  0  0  0  0  0  0  0  0  0  0  0
    1.5575    1.5066    0.0000 C   0  0  0  0  0  0  0  0  0  0  0  0
    2.2720    1.9191    0.0000 C   0  0  0  0  0  0  0  0  0  0  0  0
    3.4479    2.8253    0.0000 C   0  0  0  0  0  0  0  0  0  0  0  0
    2.2720    0.2691    0.0000 C   0  0  0  0  0  0  0  0  0  0  0  0
    4.7938    1.0941    0.0000 C   0  0  0  0  0  0  0  0  0  0  0  0
    3.4479   -0.6370    0.0000 C   0  0  0  0  0  0  0  0  0  0  0  0
    1.5575    0.6816    0.0000 C   0  0  0  0  0  0  0  0  0  0  0  0
    2.9865    0.6816    0.0000 C   0  0  0  0  0  0  0  0  0  0  0  0
    2.9865    1.5066    0.0000 C   0  0  0  0  0  0  0  0  0  0  0  0
    4.4358    1.8374    0.0000 C   0  0  0  0  0  0  0  0  0  0  0  0
    3.6315    0.1673    0.0000 C   0  0  0  0  0  0  0  0  0  0  0  0
    0.8431    0.2691    0.0000 Cl  0  0  0  0  0  0  0  0  0  0  0  0
    4.4358    0.3508    0.0000 N   0  0  0  0  0  0  0  0  0  0  0  0
    3.6315    2.0210    0.0000 N   0  0  0  0  0  0  0  0  0  0  0  0
    4.9502    2.4825    0.0000 O   0  0  0  0  0  0  0  0  0  0  0  0
  2  1  3  0
  4  3  2  0
  5  3  1  0
  6  4  1  0
  7  5  2  0
  9  8  2  0
 10  2  1  0
 13  6  2  0
 13  7  1  0
 14  8  1  0
 14 11  2  0
 15 11  1  0
 16  9  1  0
 16 15  2  0
 17 12  1  0
 18 13  1  0
 18 15  1  0
 19 14  1  0
 20 12  1  0
 20 18  2  0
 21 10  1  0
 21 16  1  0
 21 17  1  0
 22 17  2  0
M  END
>  <DRUGBANK_ID>  (1) 
DB13335

>  <COMMON_NAME>  (1) 
Pinazepam

>  <CAS_NUMBER>  (1) 
52463-83-9

>  <UNII>  (1) 
5286RBZ882

>  <SYNONYMS>  (1) 
Pinazepam

$$$$
