76V
     RDKit          2D

 27 27  0  0  0  0  0  0  0  0999 V2000
    2.6774    3.7030    0.0000 C   0  0  0  0  0  0  0  0  0  0  0  0
    3.2175    4.3266    0.0000 C   0  0  0  0  0  0  0  0  0  0  0  0
    2.4075    2.2998    0.0000 C   0  0  0  0  0  0  0  0  0  0  0  0
    1.5972    2.4556    0.0000 O   0  0  0  0  0  0  0  0  0  0  0  0
    2.9475    2.9234    0.0000 O   0  0  0  0  0  0  0  0  0  0  0  0
    2.5215    0.7101    0.0000 C   0  0  0  0  0  0  0  0  0  0  0  0
    2.6774    1.5202    0.0000 C   0  0  0  0  0  0  0  0  0  0  0  0
    3.3012    0.9801    0.0000 O   0  0  0  0  0  0  0  0  0  0  0  0
    1.9815    0.0864    0.0000 C   0  0  0  0  0  0  0  0  0  0  0  0
    2.2516   -0.6932    0.0000 O   0  0  0  0  0  0  0  0  0  0  0  0
    1.1713    0.2423    0.0000 N   0  0  0  0  0  0  0  0  0  0  0  0
    0.6312   -0.3813    0.0000 C   0  0  0  0  0  0  0  0  0  0  0  0
   -0.1789   -0.2254    0.0000 C   0  0  0  0  0  0  0  0  0  0  0  0
   -0.4490    0.5541    0.0000 O   0  0  0  0  0  0  0  0  0  0  0  0
    0.9012   -1.1609    0.0000 C   0  0  0  0  0  0  0  0  0  0  0  0
    1.7114   -1.3168    0.0000 C   0  0  0  0  0  0  0  0  0  0  0  0
    0.3612   -1.7845    0.0000 C   0  0  0  0  0  0  0  0  0  0  0  0
    1.9815   -2.0964    0.0000 C   0  0  0  0  0  0  0  0  0  0  0  0
   -0.7191   -0.8491    0.0000 N   0  0  0  0  0  0  0  0  0  0  0  0
   -1.5292   -0.6932    0.0000 C   0  0  0  0  0  0  0  0  0  0  0  0
   -1.7992    0.0864    0.0000 C   0  0  0  0  0  0  0  0  0  0  0  0
   -2.6093    0.2423    0.0000 O   0  0  0  0  0  0  0  0  0  0  0  0
   -2.0693   -1.3168    0.0000 C   0  0  0  0  0  0  0  0  0  0  0  0
   -2.8794   -1.1609    0.0000 C   0  0  0  0  0  0  0  0  0  0  0  0
   -1.7992   -2.0964    0.0000 C   0  0  0  0  0  0  0  0  0  0  0  0
   -3.4196   -1.7845    0.0000 C   0  0  0  0  0  0  0  0  0  0  0  0
   -1.2591    0.7101    0.0000 O   0  0  0  0  0  0  0  0  0  0  0  0
  1  2  1  0
  1  5  1  0
  3  4  2  0
  3  5  1  0
  6  7  1  0
  6  8  1  0
  6  9  1  6
  7  3  1  1
  7  8  1  0
  9 10  2  0
  9 11  1  0
 12 11  1  1
 12 13  1  0
 12 15  1  0
 13 14  2  0
 13 19  1  0
 15 16  1  0
 15 17  1  6
 16 18  1  0
 20 19  1  1
 20 21  1  0
 20 23  1  0
 21 22  1  0
 21 27  2  0
 23 24  1  0
 23 25  1  1
 24 26  1  0
M  END
>  <DRUGBANK_ID>  (1) 
DB07225

>  <COMMON_NAME>  (1) 
N-{[(2S,3S)-3-(ETHOXYCARBONYL)OXIRAN-2-YL]CARBONYL}-L-ISOLEUCYL-L-ISOLEUCINE

$$$$
