
     RDKit          2D

 27 30  0  0  1  0  0  0  0  0999 V2000
   -2.2539   -2.4750    0.0000 C   0  0  0  0  0  0  0  0  0  0  0  0
   -1.4289   -2.4750    0.0000 C   0  0  0  0  0  0  0  0  0  0  0  0
   -0.6039   -2.4750    0.0000 C   0  0  0  0  0  0  0  0  0  0  0  0
   -1.4289   -1.6500    0.0000 N   0  0  0  0  0  0  0  0  0  0  0  0
   -0.7145   -1.2375    0.0000 C   0  0  0  0  0  0  0  0  0  0  0  0
    0.0000   -1.6500    0.0000 O   0  0  0  0  0  0  0  0  0  0  0  0
   -0.7145   -0.4125    0.0000 O   0  0  0  0  0  0  0  0  0  0  0  0
   -0.0000    0.0000    0.0000 C   0  0  0  0  0  0  0  0  0  0  0  0
    0.0000    0.8250    0.0000 C   0  0  0  0  0  0  0  0  0  0  0  0
    0.7145    1.2375    0.0000 N   0  0  0  0  0  0  0  0  0  0  0  0
    1.4289    0.8250    0.0000 C   0  0  0  0  0  0  0  0  0  0  0  0
    1.4289    0.0000    0.0000 C   0  0  0  0  0  0  0  0  0  0  0  0
    0.7145   -0.4125    0.0000 C   0  0  0  0  0  0  0  0  0  0  0  0
    0.8520    0.1375    0.0000 C   0  0  0  0  0  0  0  0  0  0  0  0
    0.8520    0.6875    0.0000 C   0  0  0  0  0  0  0  0  0  0  0  0
   -1.4289   -3.3000    0.0000 C   0  0  0  0  0  0  0  0  0  0  0  0
   -0.7615   -3.7849    0.0000 C   0  0  0  0  0  0  0  0  0  0  0  0
   -1.0164   -4.5695    0.0000 S   0  0  0  0  0  0  0  0  0  0  0  0
   -1.8414   -4.5695    0.0000 C   0  0  0  0  0  0  0  0  0  0  0  0
   -2.0964   -3.7849    0.0000 N   0  0  0  0  0  0  0  0  0  0  0  0
   -2.3264   -5.2370    0.0000 C   0  0  0  0  0  0  0  0  0  0  0  0
   -1.9908   -5.9907    0.0000 C   0  0  0  0  0  0  0  0  0  0  0  0
   -2.4757   -6.6581    0.0000 C   0  0  0  0  0  0  0  0  0  0  0  0
   -3.2962   -6.5719    0.0000 C   0  0  0  0  0  0  0  0  0  0  0  0
   -3.7811   -7.2393    0.0000 F   0  0  0  0  0  0  0  0  0  0  0  0
   -3.6318   -5.8182    0.0000 C   0  0  0  0  0  0  0  0  0  0  0  0
   -3.1468   -5.1507    0.0000 C   0  0  0  0  0  0  0  0  0  0  0  0
  1  2  1  0
  2  3  1  0
  2  4  1  0
  2 16  1  0
  4  5  1  0
  5  6  2  0
  5  7  1  0
  8  7  1  6
  8  9  1  0
  8 13  1  0
  9 10  1  0
 10 11  1  0
 10 15  1  0
 11 12  1  0
 12 13  1  0
 13 14  1  0
 14 15  1  0
 16 17  2  0
 16 20  1  0
 17 18  1  0
 18 19  1  0
 19 20  2  0
 19 21  1  0
 21 22  2  0
 21 27  1  0
 22 23  1  0
 23 24  2  0
 24 25  1  0
 24 26  1  0
 26 27  2  0
M  END
>  <DRUGBANK_ID>  (1) 
DB14966

>  <COMMON_NAME>  (1) 
Venglustat

>  <CAS_NUMBER>  (1) 
1401090-53-6

>  <UNII>  (1) 
BLP1XA3FZA

>  <SYNONYMS>  (1) 
GENZ-682452; Venglustat

$$$$
