
     RDKit          2D

 31 34  0  0  0  0  0  0  0  0999 V2000
   -4.5019   -1.2559    0.0000 C   0  0  0  0  0  0  0  0  0  0  0  0
   -4.5030   -2.0832    0.0000 C   0  0  0  0  0  0  0  0  0  0  0  0
   -3.7882   -2.4961    0.0000 C   0  0  0  0  0  0  0  0  0  0  0  0
   -3.7900   -0.8431    0.0000 C   0  0  0  0  0  0  0  0  0  0  0  0
   -3.0745   -1.2522    0.0000 C   0  0  0  0  0  0  0  0  0  0  0  0
   -3.0739   -2.0791    0.0000 C   0  0  0  0  0  0  0  0  0  0  0  0
   -2.3585   -2.4900    0.0000 N   0  0  0  0  0  0  0  0  0  0  0  0
   -1.6435   -2.0753    0.0000 C   0  0  0  0  0  0  0  0  0  0  0  0
   -1.6483   -1.2453    0.0000 C   0  0  0  0  0  0  0  0  0  0  0  0
   -2.3642   -0.8381    0.0000 C   0  0  0  0  0  0  0  0  0  0  0  0
   -2.3686   -0.0131    0.0000 C   0  0  0  0  0  0  0  0  0  0  0  0
   -1.6563    0.4031    0.0000 N   0  0  0  0  0  0  0  0  0  0  0  0
   -1.6607    1.2281    0.0000 C   0  0  0  0  0  0  0  0  0  0  0  0
   -0.9923    1.7119    0.0000 C   0  0  0  0  0  0  0  0  0  0  0  0
   -1.2515    2.4961    0.0000 S   0  0  0  0  0  0  0  0  0  0  0  0
   -2.0776    2.4905    0.0000 C   0  0  0  0  0  0  0  0  0  0  0  0
   -2.3262    1.7028    0.0000 C   0  0  0  0  0  0  0  0  0  0  0  0
   -0.2072    1.4582    0.0000 C   0  0  0  0  0  0  0  0  0  0  0  0
   -0.0343    0.6517    0.0000 O   0  0  0  0  0  0  0  0  0  0  0  0
    0.4048    2.0114    0.0000 N   0  0  0  0  0  0  0  0  0  0  0  0
    1.1899    1.7578    0.0000 C   0  0  0  0  0  0  0  0  0  0  0  0
    1.3609    0.9525    0.0000 C   0  0  0  0  0  0  0  0  0  0  0  0
    2.1450    0.6988    0.0000 C   0  0  0  0  0  0  0  0  0  0  0  0
    2.7581    1.2522    0.0000 C   0  0  0  0  0  0  0  0  0  0  0  0
    2.5818    2.0625    0.0000 C   0  0  0  0  0  0  0  0  0  0  0  0
    1.7978    2.3124    0.0000 C   0  0  0  0  0  0  0  0  0  0  0  0
    3.5435    0.9996    0.0000 O   0  0  0  0  0  0  0  0  0  0  0  0
    3.7176    0.1931    0.0000 C   0  0  0  0  0  0  0  0  0  0  0  0
    4.5030   -0.0593    0.0000 F   0  0  0  0  0  0  0  0  0  0  0  0
    3.1062   -0.3606    0.0000 F   0  0  0  0  0  0  0  0  0  0  0  0
    3.8649   -0.5439    0.0000 F   0  0  0  0  0  0  0  0  0  0  0  0
  1  2  2  0
  2  3  1  0
  3  6  2  0
  4  1  1  0
  5  4  2  0
  5  6  1  0
  6  7  1  0
  7  8  2  0
  8  9  1  0
  9 10  2  0
 10  5  1  0
 10 11  1  0
 11 12  1  0
 12 13  1  0
 13 14  2  0
 14 18  1  0
 14 15  1  0
 15 16  1  0
 16 17  2  0
 17 13  1  0
 18 19  2  0
 18 20  1  0
 20 21  1  0
 21 22  2  0
 22 23  1  0
 23 24  2  0
 24 25  1  0
 24 27  1  0
 25 26  2  0
 26 21  1  0
 27 28  1  0
 28 29  1  0
 28 30  1  0
 28 31  1  0
M  END
>  <DRUGBANK_ID>  (1) 
DB05913

>  <COMMON_NAME>  (1) 
OSI-930

>  <CAS_NUMBER>  (1) 
728033-96-3

>  <UNII>  (1) 
G1PEG5Q9Y2

$$$$
