
     RDKit          2D

 42 45  0  0  0  0  0  0  0  0999 V2000
    0.6452    2.4930    0.0000 C   0  0  0  0  0  0  0  0  0  0  0  0
    0.0841    1.8882    0.0000 C   0  0  0  0  0  0  0  0  0  0  0  0
   -0.7202    2.0718    0.0000 N   0  0  0  0  0  0  0  0  0  0  0  0
   -1.2813    1.4670    0.0000 C   0  0  0  0  0  0  0  0  0  0  0  0
   -1.0381    0.6787    0.0000 C   0  0  0  0  0  0  0  0  0  0  0  0
   -2.0856    1.6506    0.0000 O   0  0  0  0  0  0  0  0  0  0  0  0
    0.3272    1.0999    0.0000 C   0  0  0  0  0  0  0  0  0  0  0  0
    1.1315    0.9163    0.0000 O   0  0  0  0  0  0  0  0  0  0  0  0
   -0.2338    0.4951    0.0000 N   0  0  0  0  0  0  0  0  0  0  0  0
    0.0093   -0.2932    0.0000 C   0  0  0  0  0  0  0  0  0  0  0  0
    0.8250   -0.4161    0.0000 C   0  0  0  0  0  0  0  0  0  0  0  0
    1.2376   -1.1306    0.0000 C   0  0  0  0  0  0  0  0  0  0  0  0
    0.9362   -1.8986    0.0000 C   0  0  0  0  0  0  0  0  0  0  0  0
    0.1478   -2.1417    0.0000 C   0  0  0  0  0  0  0  0  0  0  0  0
   -0.5954   -0.8543    0.0000 C   0  0  0  0  0  0  0  0  0  0  0  0
   -0.5338   -1.6770    0.0000 N   0  0  0  0  0  0  0  0  0  0  0  0
   -1.3634   -0.5529    0.0000 O   0  0  0  0  0  0  0  0  0  0  0  0
   -1.2482   -2.0895    0.0000 C   0  0  0  0  0  0  0  0  0  0  0  0
   -1.2482   -2.9145    0.0000 C   0  0  0  0  0  0  0  0  0  0  0  0
   -0.5338   -3.3270    0.0000 C   0  0  0  0  0  0  0  0  0  0  0  0
   -0.5338   -4.1520    0.0000 C   0  0  0  0  0  0  0  0  0  0  0  0
   -1.2482   -4.5645    0.0000 C   0  0  0  0  0  0  0  0  0  0  0  0
   -1.9627   -4.1520    0.0000 C   0  0  0  0  0  0  0  0  0  0  0  0
   -1.9627   -3.3270    0.0000 C   0  0  0  0  0  0  0  0  0  0  0  0
   -1.2482   -5.3895    0.0000 C   0  0  0  0  0  0  0  0  0  0  0  0
   -0.5338   -5.8020    0.0000 C   0  0  0  0  0  0  0  0  0  0  0  0
   -0.5338   -6.6270    0.0000 C   0  0  0  0  0  0  0  0  0  0  0  0
   -1.2482   -7.0395    0.0000 C   0  0  0  0  0  0  0  0  0  0  0  0
   -1.9627   -6.6270    0.0000 C   0  0  0  0  0  0  0  0  0  0  0  0
   -1.9627   -5.8020    0.0000 C   0  0  0  0  0  0  0  0  0  0  0  0
    0.4020    3.2813    0.0000 C   0  0  0  0  0  0  0  0  0  0  0  0
   -0.4022    3.4649    0.0000 C   0  0  0  0  0  0  0  0  0  0  0  0
   -0.6454    4.2532    0.0000 C   0  0  0  0  0  0  0  0  0  0  0  0
   -0.0842    4.8580    0.0000 C   0  0  0  0  0  0  0  0  0  0  0  0
    0.7200    4.6744    0.0000 C   0  0  0  0  0  0  0  0  0  0  0  0
    0.9632    3.8861    0.0000 C   0  0  0  0  0  0  0  0  0  0  0  0
   -0.3274    5.6464    0.0000 C   0  0  0  0  0  0  0  0  0  0  0  0
    0.2336    6.2511    0.0000 C   0  0  0  0  0  0  0  0  0  0  0  0
   -0.0094    7.0395    0.0000 O   0  0  0  0  0  0  0  0  0  0  0  0
    1.0380    6.0675    0.0000 O   0  0  0  0  0  0  0  0  0  0  0  0
    1.2811    5.2792    0.0000 C   0  0  0  0  0  0  0  0  0  0  0  0
    2.0856    5.0956    0.0000 O   0  0  0  0  0  0  0  0  0  0  0  0
  1  2  2  0
  1 31  1  0
  2  3  1  0
  4  3  1  0
  4  5  1  0
  4  6  2  0
  7  2  1  0
  7  8  2  0
  7  9  1  0
 10  9  1  1
 10 11  1  0
 10 15  1  0
 11 12  1  0
 12 13  1  0
 13 14  1  0
 14 16  1  0
 15 16  1  0
 15 17  2  0
 18 16  1  0
 18 19  1  0
 19 20  2  0
 19 24  1  0
 20 21  1  0
 21 22  2  0
 22 23  1  0
 22 25  1  0
 23 24  2  0
 25 26  2  0
 25 30  1  0
 26 27  1  0
 27 28  2  0
 28 29  1  0
 29 30  2  0
 31 32  2  0
 31 36  1  0
 32 33  1  0
 33 34  2  0
 34 35  1  0
 34 37  1  0
 35 36  2  0
 35 41  1  0
 37 38  1  0
 38 39  1  0
 38 40  2  0
 41 42  2  0
M  END
>  <DRUGBANK_ID>  (1) 
DB03104

>  <SECONDARY_ACCESSION_NUMBERS>  (1) 
EXPT00321

>  <COMMON_NAME>  (1) 
2-[4-[(Z)-2-Acetamido-3-oxo-3-[[(3S)-2-oxo-1-[(4-phenylphenyl)methyl]azepan-3-yl]amino]prop-1-enyl]-2-formylphenyl]acetic acid

$$$$
