
     RDKit          2D

 30 32  0  0  0  0  0  0  0  0999 V2000
    0.3875    1.0924    0.0000 C   0  0  0  0  0  0  0  0  0  0  0  0
    0.3875    0.2674    0.0000 C   0  0  0  0  0  0  0  0  0  0  0  0
    1.0549   -0.2174    0.0000 C   0  0  0  0  0  0  0  0  0  0  0  0
    0.8000   -1.0020    0.0000 S   0  0  0  0  0  0  0  0  0  0  0  0
   -0.0249   -1.0020    0.0000 C   0  0  0  0  0  0  0  0  0  0  0  0
   -0.2799   -0.2174    0.0000 N   0  0  0  0  0  0  0  0  0  0  0  0
   -0.5099   -1.6695    0.0000 N   0  0  0  0  0  0  0  0  0  0  0  0
   -1.3303   -1.5832    0.0000 C   0  0  0  0  0  0  0  0  0  0  0  0
   -1.6659   -0.8296    0.0000 O   0  0  0  0  0  0  0  0  0  0  0  0
   -1.8153   -2.2507    0.0000 N   0  0  0  0  0  0  0  0  0  0  0  0
   -1.5603   -3.0353    0.0000 C   0  0  0  0  0  0  0  0  0  0  0  0
   -2.2278   -3.5202    0.0000 C   0  0  0  0  0  0  0  0  0  0  0  0
   -2.8952   -3.0353    0.0000 C   0  0  0  0  0  0  0  0  0  0  0  0
   -2.6403   -2.2507    0.0000 C   0  0  0  0  0  0  0  0  0  0  0  0
   -3.1252   -1.5832    0.0000 C   0  0  0  0  0  0  0  0  0  0  0  0
   -3.9457   -1.6695    0.0000 O   0  0  0  0  0  0  0  0  0  0  0  0
   -2.7896   -0.8296    0.0000 N   0  0  0  0  0  0  0  0  0  0  0  0
    1.8395    0.0374    0.0000 C   0  0  0  0  0  0  0  0  0  0  0  0
    2.0111    0.8444    0.0000 C   0  0  0  0  0  0  0  0  0  0  0  0
    2.7957    1.0993    0.0000 C   0  0  0  0  0  0  0  0  0  0  0  0
    3.4088    0.5473    0.0000 N   0  0  0  0  0  0  0  0  0  0  0  0
    3.2372   -0.2596    0.0000 C   0  0  0  0  0  0  0  0  0  0  0  0
    2.4526   -0.5145    0.0000 C   0  0  0  0  0  0  0  0  0  0  0  0
    2.9672    1.9063    0.0000 C   0  0  0  0  0  0  0  0  0  0  0  0
    3.7742    1.7348    0.0000 C   0  0  0  0  0  0  0  0  0  0  0  0
    2.1602    2.0778    0.0000 C   0  0  0  0  0  0  0  0  0  0  0  0
    3.1387    2.7133    0.0000 C   0  0  0  0  0  0  0  0  0  0  0  0
    3.3103    3.5202    0.0000 F   0  0  0  0  0  0  0  0  0  0  0  0
    3.9457    2.5417    0.0000 F   0  0  0  0  0  0  0  0  0  0  0  0
    2.3318    2.8848    0.0000 F   0  0  0  0  0  0  0  0  0  0  0  0
  1  2  1  0
  2  3  2  0
  3  4  1  0
  3 18  1  0
  4  5  1  0
  5  6  2  0
  5  7  1  0
  6  2  1  0
  7  8  1  0
  8  9  2  0
  8 10  1  0
 10 11  1  0
 11 12  1  0
 12 13  1  0
 13 14  1  0
 14 10  1  0
 14 15  1  1
 15 16  2  0
 15 17  1  0
 18 19  2  0
 19 20  1  0
 20 21  2  0
 20 24  1  0
 21 22  1  0
 22 23  2  0
 23 18  1  0
 24 25  1  0
 24 26  1  0
 24 27  1  0
 27 28  1  0
 27 29  1  0
 27 30  1  0
M  END
>  <DRUGBANK_ID>  (1) 
DB12015

>  <COMMON_NAME>  (1) 
Alpelisib

>  <CAS_NUMBER>  (1) 
1217486-61-7

>  <UNII>  (1) 
08W5N2C97Q

>  <SYNONYMS>  (1) 
Alpelisib

$$$$
