GZ2
     RDKit          2D

 13 14  0  0  0  0  0  0  0  0999 V2000
   -0.5423    2.2590    0.0000 O   0  0  0  0  0  0  0  0  0  0  0  0
   -0.5423    1.4340    0.0000 C   0  0  0  0  0  0  0  0  0  0  0  0
    0.1722    1.0215    0.0000 C   0  0  0  0  0  0  0  0  0  0  0  0
    0.1722    0.1965    0.0000 C   0  0  0  0  0  0  0  0  0  0  0  0
   -0.5423   -0.2160    0.0000 C   0  0  0  0  0  0  0  0  0  0  0  0
   -1.2567    0.1965    0.0000 C   0  0  0  0  0  0  0  0  0  0  0  0
   -1.2567    1.0215    0.0000 C   0  0  0  0  0  0  0  0  0  0  0  0
    0.8867   -0.2160    0.0000 N   0  0  0  0  0  0  0  0  0  0  0  0
    0.8867   -1.0410    0.0000 C   0  0  0  0  0  0  0  0  0  0  0  0
    1.5541   -1.5259    0.0000 N   0  0  0  0  0  0  0  0  0  0  0  0
    1.2992   -2.3105    0.0000 N   0  0  0  0  0  0  0  0  0  0  0  0
    0.4742   -2.3105    0.0000 N   0  0  0  0  0  0  0  0  0  0  0  0
    0.2192   -1.5259    0.0000 N   0  0  0  0  0  0  0  0  0  0  0  0
  1  2  2  0
  2  3  1  0
  2  7  1  0
  3  4  2  0
  4  5  1  0
  4  8  1  0
  5  6  1  0
  6  7  1  0
  8  9  1  0
  9 10  2  0
  9 13  1  0
 10 11  1  0
 11 12  2  0
 12 13  1  0
M  END
>  <DRUGBANK_ID>  (1) 
DB07865

>  <COMMON_NAME>  (1) 
3-(1H-tetrazol-5-ylamino)cyclohex-2-en-1-one

$$$$
