
     RDKit          2D

 20 21  0  0  0  0  0  0  0  0999 V2000
   -0.3216   -2.3251    0.0000 C   0  0  0  0  0  0  0  0  0  0  0  0
    0.3457   -1.8401    0.0000 N   0  0  0  0  0  0  0  0  0  0  0  0
   -1.1063   -2.0702    0.0000 N   0  0  0  0  0  0  0  0  0  0  0  0
   -0.0667   -3.1097    0.0000 C   0  0  0  0  0  0  0  0  0  0  0  0
    0.7582   -3.1097    0.0000 N   0  0  0  0  0  0  0  0  0  0  0  0
    1.0131   -2.3250    0.0000 C   0  0  0  0  0  0  0  0  0  0  0  0
   -1.0832    0.6347    0.0000 C   0  0  0  0  0  0  0  0  0  0  0  0
   -1.7193   -2.6223    0.0000 O   0  0  0  0  0  0  0  0  0  0  0  0
   -1.2778   -1.2632    0.0000 O   0  0  0  0  0  0  0  0  0  0  0  0
   -1.7977    0.2222    0.0000 O   0  0  0  0  0  0  0  0  0  0  0  0
   -1.0833    1.4597    0.0000 C   0  0  0  0  0  0  0  0  0  0  0  0
    0.3457   -1.0151    0.0000 C   0  0  0  0  0  0  0  0  0  0  0  0
   -0.3688    0.2223    0.0000 O   0  0  0  0  0  0  0  0  0  0  0  0
   -0.3687   -0.6026    0.0000 C   0  0  0  0  0  0  0  0  0  0  0  0
    1.7978   -2.0701    0.0000 C   0  0  0  0  0  0  0  0  0  0  0  0
   -1.7978    1.8722    0.0000 C   0  0  0  0  0  0  0  0  0  0  0  0
   -0.3688    1.8723    0.0000 C   0  0  0  0  0  0  0  0  0  0  0  0
   -0.3688    2.6973    0.0000 C   0  0  0  0  0  0  0  0  0  0  0  0
   -1.7978    2.6972    0.0000 C   0  0  0  0  0  0  0  0  0  0  0  0
   -1.0833    3.1097    0.0000 C   0  0  0  0  0  0  0  0  0  0  0  0
  2  1  1  0
  3  1  1  0
  4  1  2  0
  5  4  1  0
  5  6  2  0
  6  2  1  0
  7 13  1  0
  8  3  1  0
  9  3  2  0
 10  7  2  0
 11  7  1  0
 12  2  1  0
 13 14  1  0
 14 12  1  0
 15  6  1  0
 16 11  2  0
 17 11  1  0
 18 17  2  0
 19 16  1  0
 20 18  1  0
 20 19  2  0
M  CHG  2   3   1   8  -1
M  END
>  <DRUGBANK_ID>  (1) 
DB15759

>  <COMMON_NAME>  (1) 
Metronidazole benzoate

>  <CAS_NUMBER>  (1) 
13182-89-3

>  <UNII>  (1) 
A355C835XC

>  <SYNONYMS>  (1) 
2-(2-Methyl-5-nitroimidazol-1-yl)ethyl benzoate; Benzoyl metronidazole; Benzoylmetronidazole; Metronidazol benzoilo; Metronidazole benzoate

$$$$
