6EA
     RDKit          2D

 30 34  0  0  0  0  0  0  0  0999 V2000
   -5.3215    2.1346    0.0000 N   0  0  0  0  0  0  0  0  0  0  0  0
   -4.7695    2.7477    0.0000 C   0  0  0  0  0  0  0  0  0  0  0  0
   -3.9625    2.5762    0.0000 C   0  0  0  0  0  0  0  0  0  0  0  0
   -3.7076    1.7916    0.0000 C   0  0  0  0  0  0  0  0  0  0  0  0
   -4.2596    1.1785    0.0000 C   0  0  0  0  0  0  0  0  0  0  0  0
   -5.0666    1.3500    0.0000 C   0  0  0  0  0  0  0  0  0  0  0  0
   -2.9006    1.6200    0.0000 C   0  0  0  0  0  0  0  0  0  0  0  0
   -2.6457    0.8354    0.0000 C   0  0  0  0  0  0  0  0  0  0  0  0
   -1.8387    0.6639    0.0000 C   0  0  0  0  0  0  0  0  0  0  0  0
   -1.2867    1.2770    0.0000 C   0  0  0  0  0  0  0  0  0  0  0  0
   -1.5416    2.0616    0.0000 C   0  0  0  0  0  0  0  0  0  0  0  0
   -2.3486    2.2331    0.0000 N   0  0  0  0  0  0  0  0  0  0  0  0
   -0.4797    1.1055    0.0000 C   0  0  0  0  0  0  0  0  0  0  0  0
    0.0723    1.7185    0.0000 C   0  0  0  0  0  0  0  0  0  0  0  0
   -0.1826    2.5032    0.0000 N   0  0  0  0  0  0  0  0  0  0  0  0
   -0.9896    2.6747    0.0000 C   0  0  0  0  0  0  0  0  0  0  0  0
   -0.2248    0.3208    0.0000 O   0  0  0  0  0  0  0  0  0  0  0  0
    0.5822    0.1493    0.0000 C   0  0  0  0  0  0  0  0  0  0  0  0
    0.8371   -0.6353    0.0000 C   0  0  0  0  0  0  0  0  0  0  0  0
    0.2851   -1.2484    0.0000 N   0  0  0  0  0  0  0  0  0  0  0  0
    1.6441   -0.8068    0.0000 C   0  0  0  0  0  0  0  0  0  0  0  0
    1.8990   -1.5915    0.0000 C   0  0  0  0  0  0  0  0  0  0  0  0
    1.4141   -2.2589    0.0000 C   0  0  0  0  0  0  0  0  0  0  0  0
    1.8990   -2.9263    0.0000 N   0  0  0  0  0  0  0  0  0  0  0  0
    2.6837   -2.6714    0.0000 C   0  0  0  0  0  0  0  0  0  0  0  0
    2.6837   -1.8464    0.0000 C   0  0  0  0  0  0  0  0  0  0  0  0
    3.3981   -3.0839    0.0000 C   0  0  0  0  0  0  0  0  0  0  0  0
    4.1126   -2.6714    0.0000 C   0  0  0  0  0  0  0  0  0  0  0  0
    4.1126   -1.8464    0.0000 C   0  0  0  0  0  0  0  0  0  0  0  0
    3.3981   -1.4339    0.0000 C   0  0  0  0  0  0  0  0  0  0  0  0
  1  2  2  0
  1  6  1  0
  2  3  1  0
  3  4  2  0
  4  5  1  0
  4  7  1  0
  5  6  2  0
  7  8  2  0
  7 12  1  0
  8  9  1  0
  9 10  2  0
 10 11  1  0
 10 13  1  0
 11 12  2  0
 11 16  1  0
 13 14  2  0
 13 17  1  0
 14 15  1  0
 15 16  2  0
 17 18  1  0
 18 19  1  0
 19 20  1  6
 19 21  1  0
 21 22  1  0
 22 23  2  0
 22 26  1  0
 23 24  1  0
 24 25  1  0
 25 26  2  0
 25 27  1  0
 26 30  1  0
 27 28  2  0
 28 29  1  0
 29 30  2  0
M  END
>  <DRUGBANK_ID>  (1) 
DB07204

>  <COMMON_NAME>  (1) 
(1S)-1-(1H-INDOL-3-YLMETHYL)-2-(2-PYRIDIN-4-YL-[1,7]NAPHTYRIDIN-5-YLOXY)-EHYLAMINE

$$$$
