
     RDKit          2D

  6  4  0  0  0  0  0  0  0  0999 V2000
   -0.8032   -0.0071    0.0000 Cl  0  0  0  0  0  0  0  0  0  0  0  0
   -0.8388    0.8246    0.0000 O   0  0  0  0  0  0  0  0  0  0  0  0
   -1.7100   -0.0071    0.0000 O   0  0  0  0  0  0  0  0  0  0  0  0
   -0.8032   -0.8246    0.0000 O   0  0  0  0  0  0  0  0  0  0  0  0
    0.0036    0.0177    0.0000 O   0  0  0  0  0  0  0  0  0  0  0  0
    1.7100    0.0820    0.0000 Na  0  0  0  0  0 15  0  0  0  0  0  0
  1  2  1  0
  1  3  1  0
  1  4  1  0
  1  5  1  0
M  CHG  6   1   3   2  -1   3  -1   4  -1   5  -1   6   1
M  END
>  <DRUGBANK_ID>  (1) 
DB16608

>  <COMMON_NAME>  (1) 
Sodium perchlorate

>  <CAS_NUMBER>  (1) 
7601-89-0

>  <UNII>  (1) 
97F4MTY3VA

>  <SYNONYMS>  (1) 
Natriumperchloraat; Natriumperchlorat; Perchlorate de sodium; Perchloric acid, sodium salt

$$$$
