
     RDKit          2D

 23 25  0  0  1  0  0  0  0  0999 V2000
    4.5079    0.8107    0.0000 O   0  0  0  0  0  0  0  0  0  0  0  0
    2.3644   -0.4268    0.0000 N   0  0  0  0  0  0  0  0  0  0  0  0
    3.0790   -0.8393    0.0000 C   0  0  0  0  0  0  0  0  0  0  0  0
    3.7934   -0.4268    0.0000 C   0  0  0  0  0  0  0  0  0  0  0  0
    3.0790   -1.6643    0.0000 C   0  0  0  0  0  0  0  0  0  0  0  0
    3.7934    0.3982    0.0000 C   0  0  0  0  0  0  0  0  0  0  0  0
    1.6500   -0.8393    0.0000 C   0  0  0  0  0  0  0  0  0  0  0  0
    2.3644    0.3982    0.0000 C   0  0  0  0  0  0  0  0  0  0  0  0
    3.7934   -2.0768    0.0000 C   0  0  0  0  0  0  0  0  0  0  0  0
    2.3644   -2.0768    0.0000 C   0  0  0  0  0  0  0  0  0  0  0  0
    4.5079    1.6357    0.0000 C   0  0  0  0  0  0  0  0  0  0  0  0
    5.2223    2.0482    0.0000 C   0  0  0  0  0  0  0  0  0  0  0  0
    3.7934   -2.9018    0.0000 C   0  0  0  0  0  0  0  0  0  0  0  0
    2.3644   -2.9018    0.0000 C   0  0  0  0  0  0  0  0  0  0  0  0
    5.2223    2.8732    0.0000 C   0  0  0  0  0  0  0  0  0  0  0  0
    3.0790   -3.3143    0.0000 C   0  0  0  0  0  0  0  0  0  0  0  0
    3.7934    2.0482    0.0000 C   0  0  0  0  0  0  0  0  0  0  0  0
    5.9599    1.6071    0.0000 C   0  0  0  0  0  0  0  0  0  0  0  0
    4.5079    3.2857    0.0000 C   0  0  0  0  0  0  0  0  0  0  0  0
    3.7934    2.8732    0.0000 C   0  0  0  0  0  0  0  0  0  0  0  0
    5.9599    3.3143    0.0000 C   0  0  0  0  0  0  0  0  0  0  0  0
    6.7073    2.0311    0.0000 C   0  0  0  0  0  0  0  0  0  0  0  0
    6.7073    2.8904    0.0000 C   0  0  0  0  0  0  0  0  0  0  0  0
  1  6  1  0
  1 11  1  0
  2  7  1  0
  2  8  1  0
  3  2  1  0
  3  4  1  1
  3  5  1  0
  4  6  1  0
  5  9  2  0
  5 10  1  0
  9 13  1  0
 10 14  2  0
 11 12  1  0
 11 17  2  0
 12 15  2  0
 12 18  1  0
 13 16  2  0
 14 16  1  0
 15 19  1  0
 15 21  1  0
 17 20  1  0
 18 22  2  0
 19 20  2  0
 21 23  2  0
 22 23  1  0
M  END
>  <DRUGBANK_ID>  (1) 
DB04884

>  <COMMON_NAME>  (1) 
Dapoxetine

>  <CAS_NUMBER>  (1) 
119356-77-3

>  <UNII>  (1) 
GB2433A4M3

>  <SYNONYMS>  (1) 
Dapoxetina; Dapoxetine; Dapoxetinum

$$$$
