DSV
     RDKit          2D

 24 26  0  0  0  0  0  0  0  0999 V2000
   -0.3129    0.0021    0.0000 C   0  0  0  0  0  0  0  0  0  0  0  0
    0.4016    0.4146    0.0000 C   0  0  0  0  0  0  0  0  0  0  0  0
    0.4016    1.2396    0.0000 C   0  0  0  0  0  0  0  0  0  0  0  0
   -0.3129    1.6521    0.0000 C   0  0  0  0  0  0  0  0  0  0  0  0
   -1.0273    1.2396    0.0000 C   0  0  0  0  0  0  0  0  0  0  0  0
   -1.0273    0.4146    0.0000 C   0  0  0  0  0  0  0  0  0  0  0  0
    1.0147    1.7916    0.0000 S   0  0  0  0  0  0  0  0  0  0  0  0
    0.6791    2.5453    0.0000 C   0  0  0  0  0  0  0  0  0  0  0  0
   -0.1413    2.4591    0.0000 C   0  0  0  0  0  0  0  0  0  0  0  0
    1.0147    3.2990    0.0000 C   0  0  0  0  0  0  0  0  0  0  0  0
    0.5298    3.9664    0.0000 C   0  0  0  0  0  0  0  0  0  0  0  0
   -0.2907    3.8802    0.0000 C   0  0  0  0  0  0  0  0  0  0  0  0
   -0.6263    3.1265    0.0000 C   0  0  0  0  0  0  0  0  0  0  0  0
   -0.3129   -0.8229    0.0000 S   0  0  0  0  0  0  0  0  0  0  0  0
   -1.1379   -0.8229    0.0000 O   0  0  0  0  0  0  0  0  0  0  0  0
    0.5121   -0.8229    0.0000 O   0  0  0  0  0  0  0  0  0  0  0  0
   -0.3129   -1.6479    0.0000 N   0  0  0  0  0  0  0  0  0  0  0  0
    0.4016   -2.0604    0.0000 C   0  0  0  0  0  0  0  0  0  0  0  0
    0.4016   -2.8854    0.0000 C   0  0  0  0  0  0  0  0  0  0  0  0
    1.1161   -3.2979    0.0000 C   0  0  0  0  0  0  0  0  0  0  0  0
   -0.3129   -3.2979    0.0000 C   0  0  0  0  0  0  0  0  0  0  0  0
    1.1161   -1.6479    0.0000 C   0  0  0  0  0  0  0  0  0  0  0  0
    1.1161   -0.8229    0.0000 O   0  0  0  0  0  0  0  0  0  0  0  0
    1.8305   -2.0604    0.0000 O   0  0  0  0  0  0  0  0  0  0  0  0
  1  6  2  0
  1 14  1  0
  2  1  1  0
  3  2  2  0
  4  3  1  0
  4  5  2  0
  5  6  1  0
  7  3  1  0
  8  7  1  0
  8  9  2  0
  9  4  1  0
 10  8  1  0
 11 10  2  0
 11 12  1  0
 12 13  2  0
 13  9  1  0
 14 16  2  0
 15 14  2  0
 17 14  1  0
 18 17  1  6
 18 19  1  0
 19 20  1  0
 21 19  1  0
 22 18  1  0
 23 22  2  0
 24 22  1  0
M  END
>  <DRUGBANK_ID>  (1) 
DB07683

>  <COMMON_NAME>  (1) 
N-(dibenzo[b,d]thiophen-3-ylsulfonyl)-L-valine

$$$$
