
     RDKit          2D

 37 41  0  0  0  0  0  0  0  0999 V2000
    0.7145   -0.4125    0.0000 C   0  0  0  0  0  0  0  0  0  0  0  0
    0.7145   -1.2375    0.0000 N   0  0  0  0  0  0  0  0  0  0  0  0
    1.3819   -1.7224    0.0000 C   0  0  0  0  0  0  0  0  0  0  0  0
    2.1665   -1.4675    0.0000 C   0  0  0  0  0  0  0  0  0  0  0  0
    1.1270   -2.5070    0.0000 C   0  0  0  0  0  0  0  0  0  0  0  0
    0.3020   -2.5070    0.0000 C   0  0  0  0  0  0  0  0  0  0  0  0
    0.0470   -1.7224    0.0000 C   0  0  0  0  0  0  0  0  0  0  0  0
   -0.7376   -1.4675    0.0000 C   0  0  0  0  0  0  0  0  0  0  0  0
   -1.3507   -2.0195    0.0000 O   0  0  0  0  0  0  0  0  0  0  0  0
   -0.9091   -0.6605    0.0000 C   0  0  0  0  0  0  0  0  0  0  0  0
   -0.2960   -0.1085    0.0000 O   0  0  0  0  0  0  0  0  0  0  0  0
   -1.6937   -0.4056    0.0000 N   0  0  0  0  0  0  0  0  0  0  0  0
   -1.8653    0.4014    0.0000 C   0  0  0  0  0  0  0  0  0  0  0  0
   -2.6499    0.6563    0.0000 C   0  0  0  0  0  0  0  0  0  0  0  0
   -2.8214    1.4633    0.0000 C   0  0  0  0  0  0  0  0  0  0  0  0
   -2.2083    2.0153    0.0000 C   0  0  0  0  0  0  0  0  0  0  0  0
   -1.4237    1.7604    0.0000 C   0  0  0  0  0  0  0  0  0  0  0  0
   -1.2522    0.9534    0.0000 C   0  0  0  0  0  0  0  0  0  0  0  0
   -2.3798    2.8223    0.0000 N   0  0  0  0  0  0  0  0  0  0  0  0
   -3.1645    3.0773    0.0000 C   0  0  0  0  0  0  0  0  0  0  0  0
   -3.3360    3.8842    0.0000 C   0  0  0  0  0  0  0  0  0  0  0  0
   -2.7229    4.4363    0.0000 N   0  0  0  0  0  0  0  0  0  0  0  0
   -1.9383    4.1813    0.0000 C   0  0  0  0  0  0  0  0  0  0  0  0
   -1.7668    3.3743    0.0000 C   0  0  0  0  0  0  0  0  0  0  0  0
   -2.8944    5.2432    0.0000 C   0  0  0  0  0  0  0  0  0  0  0  0
   -3.6791    5.4982    0.0000 N   0  0  0  0  0  0  0  0  0  0  0  0
   -3.8506    6.3051    0.0000 C   0  0  0  0  0  0  0  0  0  0  0  0
   -3.2375    6.8572    0.0000 C   0  0  0  0  0  0  0  0  0  0  0  0
   -3.4090    7.6641    0.0000 F   0  0  0  0  0  0  0  0  0  0  0  0
   -2.4529    6.6022    0.0000 C   0  0  0  0  0  0  0  0  0  0  0  0
   -2.2813    5.7953    0.0000 N   0  0  0  0  0  0  0  0  0  0  0  0
   -0.1830   -3.1745    0.0000 C   0  0  0  0  0  0  0  0  0  0  0  0
    0.1526   -3.9282    0.0000 C   0  0  0  0  0  0  0  0  0  0  0  0
   -0.3323   -4.5956    0.0000 C   0  0  0  0  0  0  0  0  0  0  0  0
   -1.1528   -4.5094    0.0000 C   0  0  0  0  0  0  0  0  0  0  0  0
   -1.4884   -3.7557    0.0000 C   0  0  0  0  0  0  0  0  0  0  0  0
   -1.0034   -3.0882    0.0000 C   0  0  0  0  0  0  0  0  0  0  0  0
  1  2  1  0
  2  3  1  0
  2  7  1  0
  3  4  1  0
  3  5  2  0
  5  6  1  0
  6  7  2  0
  6 32  1  0
  7  8  1  0
  8  9  2  0
  8 10  1  0
 10 11  2  0
 10 12  1  0
 12 13  1  0
 13 14  2  0
 13 18  1  0
 14 15  1  0
 15 16  2  0
 16 17  1  0
 16 19  1  0
 17 18  2  0
 19 20  1  0
 19 24  1  0
 20 21  1  0
 21 22  1  0
 22 23  1  0
 22 25  1  0
 23 24  1  0
 25 26  2  0
 25 31  1  0
 26 27  1  0
 27 28  2  0
 28 29  1  0
 28 30  1  0
 30 31  2  0
 32 33  2  0
 32 37  1  0
 33 34  1  0
 34 35  2  0
 35 36  1  0
 36 37  2  0
M  END
>  <DRUGBANK_ID>  (1) 
DB15245

>  <COMMON_NAME>  (1) 
Olorofim

>  <CAS_NUMBER>  (1) 
1928707-56-5

>  <UNII>  (1) 
T34SH2H9HI

>  <SYNONYMS>  (1) 
Olorofim

$$$$
