
     RDKit          2D

 42 46  0  0  1  0  0  0  0  0999 V2000
    0.3339    6.2564    0.0000 C   0  0  0  0  0  0  0  0  0  0  0  0
   -0.3806    5.8439    0.0000 C   0  0  0  0  0  0  0  0  0  0  0  0
   -0.3806    5.0189    0.0000 O   0  0  0  0  0  0  0  0  0  0  0  0
   -1.0950    4.6064    0.0000 C   0  0  0  0  0  0  0  0  0  0  0  0
   -1.8095    5.0189    0.0000 O   0  0  0  0  0  0  0  0  0  0  0  0
   -1.0950    3.7814    0.0000 O   0  0  0  0  0  0  0  0  0  0  0  0
   -1.8095    3.3689    0.0000 C   0  0  0  0  0  0  0  0  0  0  0  0
   -2.5240    3.7814    0.0000 C   0  0  0  0  0  0  0  0  0  0  0  0
   -1.8095    2.5439    0.0000 N   0  0  0  0  0  0  0  0  0  0  0  0
   -1.1421    2.0590    0.0000 N   0  0  0  0  0  0  0  0  0  0  0  0
   -1.3970    1.2743    0.0000 N   0  0  0  0  0  0  0  0  0  0  0  0
   -2.2220    1.2743    0.0000 N   0  0  0  0  0  0  0  0  0  0  0  0
   -2.4769    2.0590    0.0000 C   0  0  0  0  0  0  0  0  0  0  0  0
   -3.2616    2.3139    0.0000 C   0  0  0  0  0  0  0  0  0  0  0  0
   -3.9290    1.8290    0.0000 C   0  0  0  0  0  0  0  0  0  0  0  0
   -4.5964    2.3139    0.0000 C   0  0  0  0  0  0  0  0  0  0  0  0
   -4.3415    3.0985    0.0000 N   0  0  0  0  0  0  0  0  0  0  0  0
   -3.5165    3.0985    0.0000 N   0  0  0  0  0  0  0  0  0  0  0  0
   -3.0316    3.7660    0.0000 C   0  0  0  0  0  0  0  0  0  0  0  0
   -3.9290    1.0040    0.0000 C   0  0  0  0  0  0  0  0  0  0  0  0
   -3.2145    0.5915    0.0000 C   0  0  0  0  0  0  0  0  0  0  0  0
   -3.2145   -0.2335    0.0000 C   0  0  0  0  0  0  0  0  0  0  0  0
   -3.9290   -0.6460    0.0000 C   0  0  0  0  0  0  0  0  0  0  0  0
   -4.6435   -0.2335    0.0000 C   0  0  0  0  0  0  0  0  0  0  0  0
   -4.6435    0.5915    0.0000 C   0  0  0  0  0  0  0  0  0  0  0  0
   -5.3579    1.0040    0.0000 F   0  0  0  0  0  0  0  0  0  0  0  0
   -3.9290   -1.4710    0.0000 C   0  0  0  0  0  0  0  0  0  0  0  0
   -4.6435   -1.8835    0.0000 O   0  0  0  0  0  0  0  0  0  0  0  0
   -3.2145   -1.8835    0.0000 N   0  0  0  0  0  0  0  0  0  0  0  0
   -3.2145   -2.7085    0.0000 C   0  0  0  0  0  0  0  0  0  0  0  0
   -2.5001   -3.1210    0.0000 C   0  0  0  0  0  0  0  0  0  0  0  0
   -2.5001   -3.9460    0.0000 C   0  0  0  0  0  0  0  0  0  0  0  0
   -3.2145   -4.3585    0.0000 C   0  0  0  0  0  0  0  0  0  0  0  0
   -3.9290   -3.9460    0.0000 N   0  0  0  0  0  0  0  0  0  0  0  0
   -3.9290   -3.1210    0.0000 C   0  0  0  0  0  0  0  0  0  0  0  0
   -2.5001   -1.4710    0.0000 C   0  0  0  0  0  0  0  0  0  0  0  0
   -2.5001   -0.6460    0.0000 N   0  0  0  0  0  0  0  0  0  0  0  0
   -1.7856   -0.2335    0.0000 C   0  0  0  0  0  0  0  0  0  0  0  0
   -1.0711   -0.6460    0.0000 C   0  0  0  0  0  0  0  0  0  0  0  0
   -1.0711   -1.4710    0.0000 C   0  0  0  0  0  0  0  0  0  0  0  0
   -1.7856   -1.8835    0.0000 C   0  0  0  0  0  0  0  0  0  0  0  0
   -1.7856   -2.7085    0.0000 Cl  0  0  0  0  0  0  0  0  0  0  0  0
  1  2  1  0
  2  3  1  0
  3  4  1  0
  4  5  2  0
  4  6  1  0
  7  6  1  0
  7  8  1  6
  7  9  1  0
  9 10  1  0
  9 13  1  0
 10 11  2  0
 11 12  1  0
 12 13  2  0
 13 14  1  0
 14 15  2  0
 14 18  1  0
 15 16  1  0
 15 20  1  0
 16 17  2  0
 17 18  1  0
 18 19  1  0
 20 21  2  0
 20 25  1  0
 21 22  1  0
 22 23  2  0
 23 24  1  0
 23 27  1  0
 24 25  2  0
 25 26  1  0
 27 28  2  0
 27 29  1  0
 29 36  1  0
 30 29  1  6
 30 31  1  0
 30 35  1  0
 31 32  1  0
 32 33  1  0
 33 34  1  0
 34 35  1  0
 36 37  2  0
 36 41  1  0
 37 38  1  0
 38 39  2  0
 39 40  1  0
 40 41  2  0
 41 42  1  0
M  END
>  <DRUGBANK_ID>  (1) 
DB14862

>  <COMMON_NAME>  (1) 
PF-06815345

>  <CAS_NUMBER>  (1) 
1900686-46-5

>  <UNII>  (1) 
4H9X9HO87K

$$$$
