
     RDKit          2D

 35 38  0  0  0  0  0  0  0  0999 V2000
    1.4451   -0.1036    0.0000 C   0  0  0  0  0  0  0  0  0  0  0  0
    1.7155    0.6894    0.0000 C   0  0  0  0  0  0  0  0  0  0  0  0
    2.2248   -1.2314    0.0000 C   0  0  0  0  0  0  0  0  0  0  0  0
    2.9955   -1.4377    0.0000 C   0  0  0  0  0  0  0  0  0  0  0  0
    2.0973    1.7413    0.0000 C   0  0  0  0  0  0  0  0  0  0  0  0
    1.3981   -1.4311    0.0000 C   0  0  0  0  0  0  0  0  0  0  0  0
    1.9949   -2.4203    0.0000 O   0  0  0  0  0  0  0  0  0  0  0  0
    2.6481   -1.8635    0.0000 C   0  0  0  0  0  0  0  0  0  0  0  0
    0.5796   -0.0224    0.0000 O   0  0  0  0  0  0  0  0  0  0  0  0
   -0.1234    0.5904    0.0000 C   0  0  0  0  0  0  0  0  0  0  0  0
    3.2748    0.7845    0.0000 C   0  0  0  0  0  0  0  0  0  0  0  0
    3.8339    1.3746    0.0000 O   0  0  0  0  0  0  0  0  0  0  0  0
   -2.9403    0.5138    0.0000 C   0  0  0  0  0  0  0  0  0  0  0  0
   -2.9267    1.3837    0.0000 O   0  0  0  0  0  0  0  0  0  0  0  0
   -0.7183    0.1126    0.0000 C   0  0  0  0  0  0  0  0  0  0  0  0
   -1.4755    0.5544    0.0000 S   0  0  0  0  0  0  0  0  0  0  0  0
   -4.4503   -1.2215    0.0000 N   0  0  0  0  0  0  0  0  0  0  0  0
   -3.6254   -0.7301    0.0000 C   0  0  0  0  0  0  0  0  0  0  0  0
    1.7786   -0.8067    0.0000 C   0  0  0  0  0  0  0  0  0  0  0  0
    2.5088    2.4203    0.0000 C   0  0  0  0  0  0  0  0  0  0  0  0
    3.3155   -0.7752    0.0000 C   0  0  0  0  0  0  0  0  0  0  0  0
    2.4906    1.0231    0.0000 C   0  0  0  0  0  0  0  0  0  0  0  0
    0.5796   -1.1673    0.0000 C   0  0  0  0  0  0  0  0  0  0  0  0
    3.6265    0.0224    0.0000 C   0  0  0  0  0  0  0  0  0  0  0  0
   -3.6389    0.0946    0.0000 C   0  0  0  0  0  0  0  0  0  0  0  0
   -2.1965   -0.7166    0.0000 C   0  0  0  0  0  0  0  0  0  0  0  0
   -2.1965    0.0946    0.0000 C   0  0  0  0  0  0  0  0  0  0  0  0
    2.5719   -1.0862    0.0000 C   0  0  0  0  0  0  0  0  0  0  0  0
   -2.8997   -1.1313    0.0000 C   0  0  0  0  0  0  0  0  0  0  0  0
    3.8789   -1.3837    0.0000 C   0  0  0  0  0  0  0  0  0  0  0  0
    3.4462   -2.1048    0.0000 C   0  0  0  0  0  0  0  0  0  0  0  0
    3.0324    1.6453    0.0000 C   0  0  0  0  0  0  0  0  0  0  0  0
    4.4503   -0.0227    0.0000 C   0  0  0  0  0  0  0  0  0  0  0  0
    0.9788   -0.6042    0.0000 C   0  0  0  0  0  0  0  0  0  0  0  0
   -0.1234    1.4314    0.0000 O   0  0  0  0  0  0  0  0  0  0  0  0
  1 19  1  0
  1  2  1  0
  1  9  1  6
  2 22  1  0
  3  4  1  0
  3  6  1  0
  5 20  2  0
  6 23  1  0
  7  8  2  0
 28  8  1  1
  8 31  1  0
  9 10  1  0
 10 15  1  0
 10 35  2  0
 11 24  1  0
 11 12  1  1
 11 22  1  0
 13 27  1  0
 13 25  1  0
 13 14  1  1
 15 16  1  0
 18 29  1  0
 18 25  1  0
 18 17  1  1
 19  6  1  0
 19 28  1  0
 19 34  1  6
 21 30  1  6
 21  4  1  0
 21 24  1  0
 21 28  1  0
 22  5  1  0
 22 32  1  6
 24 33  1  6
 26 29  1  0
 26 27  1  0
 27 16  1  6
 30 31  1  0
M  END
>  <DRUGBANK_ID>  (1) 
DB12825

>  <SECONDARY_ACCESSION_NUMBERS>  (1) 
DB12430

>  <COMMON_NAME>  (1) 
Lefamulin

>  <CAS_NUMBER>  (1) 
1061337-51-6

>  <UNII>  (1) 
21904A5386

>  <SYNONYMS>  (1) 
Lefamulin

$$$$
