
     RDKit          2D

 12 13  0  0  1  0  0  0  0  0999 V2000
   -0.8125    0.1433    0.0000 C   0  0  0  0  0  0  0  0  0  0  0  0
   -0.0000    0.0000    0.0000 C   0  0  0  0  0  0  0  0  0  0  0  0
    0.7145   -0.4125    0.0000 C   0  0  0  0  0  0  0  0  0  0  0  0
    1.4289    0.0000    0.0000 C   0  0  0  0  0  0  0  0  0  0  0  0
    1.4289    0.8250    0.0000 C   0  0  0  0  0  0  0  0  0  0  0  0
    0.7145    1.2375    0.0000 C   0  0  0  0  0  0  0  0  0  0  0  0
    0.5082    0.4125    0.0000 C   0  0  0  0  0  0  0  0  0  0  0  0
    0.0000    0.8250    0.0000 C   0  0  0  0  0  0  0  0  0  0  0  0
   -0.4372    1.5246    0.0000 C   0  0  0  0  0  0  0  0  0  0  0  0
   -0.8245    0.8538    0.0000 C   0  0  0  0  0  0  0  0  0  0  0  0
   -0.2822   -0.7752    0.0000 N   0  0  0  0  0  0  0  0  0  0  0  0
    0.2481   -1.4072    0.0000 C   0  0  0  0  0  0  0  0  0  0  0  0
  2  1  1  1
  2  3  1  0
  2  8  1  0
  2 11  1  0
  3  4  1  1
  3  7  1  0
  4  5  1  0
  6  5  1  1
  6  7  1  0
  6  8  1  0
  8  9  1  0
  8 10  1  0
 11 12  1  0
M  END
>  <DRUGBANK_ID>  (1) 
DB11807

>  <COMMON_NAME>  (1) 
Dexmecamylamine

>  <CAS_NUMBER>  (1) 
107538-05-6

>  <UNII>  (1) 
5Y1141YI4U

>  <SYNONYMS>  (1) 
Dexmecamylamine

$$$$
