
     RDKit          2D

 16 16  0  0  0  0  0  0  0  0999 V2000
    0.1260    1.9926    0.0000 C   0  0  0  0  0  0  0  0  0  0  0  0
    1.7581    1.1747    0.0000 C   0  0  0  0  0  0  0  0  0  0  0  0
   -0.5843    1.2824    0.0000 C   0  0  0  0  0  0  0  0  0  0  0  0
    0.9959    1.4904    0.0000 C   0  0  0  0  0  0  0  0  0  0  0  0
    0.2337    1.1747    0.0000 C   0  0  0  0  0  0  0  0  0  0  0  0
   -0.9000    2.0446    0.0000 O   0  0  0  0  0  0  0  0  0  0  0  0
    0.9959    2.3154    0.0000 O   0  0  0  0  0  0  0  0  0  0  0  0
    2.5760   -0.4574    0.0000 O   0  0  0  0  0  0  0  0  0  0  0  0
    1.8657   -1.1676    0.0000 O   0  0  0  0  0  0  0  0  0  0  0  0
   -0.5843   -0.4574    0.0000 O   0  0  0  0  0  0  0  0  0  0  0  0
    0.1260   -1.1676    0.0000 O   0  0  0  0  0  0  0  0  0  0  0  0
    2.0738    0.4125    0.0000 O   0  0  0  0  0  0  0  0  0  0  0  0
   -0.0821    0.4125    0.0000 O   0  0  0  0  0  0  0  0  0  0  0  0
    0.9959   -0.6654    0.0000 O   0  0  0  0  0  0  0  0  0  0  0  0
    1.7581   -0.3497    0.0000 P   0  0  0  0  0  0  0  0  0  0  0  0
    0.2337   -0.3497    0.0000 P   0  0  0  0  0  0  0  0  0  0  0  0
  4  2  1  0
  4  7  1  6
  5  1  1  6
  5  3  1  0
  5  4  1  0
  6  3  1  0
 12  2  1  0
 13  5  1  0
 15  8  1  0
 15  9  2  0
 15 12  1  0
 15 14  1  0
 16 10  1  0
 16 11  2  0
 16 13  1  0
 16 14  1  0
M  END
>  <DRUGBANK_ID>  (1) 
DB03961

>  <SECONDARY_ACCESSION_NUMBERS>  (1) 
EXPT00871

>  <COMMON_NAME>  (1) 
2c-Methyl-D-Erythritol 2,4-Cyclodiphosphate

$$$$
