B97
     RDKit          2D

 27 31  0  0  0  0  0  0  0  0999 V2000
   -0.0959   -0.1125    0.0000 C   0  0  0  0  0  0  0  0  0  0  0  0
    2.1865    0.8448    0.0000 C   0  0  0  0  0  0  0  0  0  0  0  0
    0.3528   -2.2486    0.0000 C   0  0  0  0  0  0  0  0  0  0  0  0
   -0.4080   -2.5677    0.0000 C   0  0  0  0  0  0  0  0  0  0  0  0
    0.6649    0.2066    0.0000 C   0  0  0  0  0  0  0  0  0  0  0  0
    2.9473    1.1639    0.0000 C   0  0  0  0  0  0  0  0  0  0  0  0
    2.7392   -0.4729    0.0000 C   0  0  0  0  0  0  0  0  0  0  0  0
   -0.1999   -0.9309    0.0000 C   0  0  0  0  0  0  0  0  0  0  0  0
   -0.9607   -1.2500    0.0000 C   0  0  0  0  0  0  0  0  0  0  0  0
    2.0825    0.0264    0.0000 C   0  0  0  0  0  0  0  0  0  0  0  0
    0.4569   -1.4302    0.0000 C   0  0  0  0  0  0  0  0  0  0  0  0
   -1.7069   -0.8982    0.0000 C   0  0  0  0  0  0  0  0  0  0  0  0
   -1.0647   -2.0684    0.0000 C   0  0  0  0  0  0  0  0  0  0  0  0
    1.3217   -0.2927    0.0000 C   0  0  0  0  0  0  0  0  0  0  0  0
   -2.2721   -1.4991    0.0000 C   0  0  0  0  0  0  0  0  0  0  0  0
    3.6040    0.6646    0.0000 C   0  0  0  0  0  0  0  0  0  0  0  0
   -3.0944   -1.4319    0.0000 C   0  0  0  0  0  0  0  0  0  0  0  0
   -2.5360    0.3358    0.0000 C   0  0  0  0  0  0  0  0  0  0  0  0
   -3.3060    0.0396    0.0000 C   0  0  0  0  0  0  0  0  0  0  0  0
    4.3648    0.9837    0.0000 C   0  0  0  0  0  0  0  0  0  0  0  0
   -3.9069    0.6048    0.0000 C   0  0  0  0  0  0  0  0  0  0  0  0
    3.5000   -0.1538    0.0000 N   0  0  0  0  0  0  0  0  0  0  0  0
    1.2176   -1.1111    0.0000 N   0  0  0  0  0  0  0  0  0  0  0  0
   -1.8243   -0.0816    0.0000 N   0  0  0  0  0  0  0  0  0  0  0  0
   -3.5545   -0.7471    0.0000 N   0  0  0  0  0  0  0  0  0  0  0  0
   -3.5117   -2.1436    0.0000 O   0  0  0  0  0  0  0  0  0  0  0  0
   -1.8752   -2.2224    0.0000 S   0  0  0  0  0  0  0  0  0  0  0  0
  1  5  2  0
  1  8  1  0
  2  6  2  0
  2 10  1  0
  3  4  1  0
  3 11  2  0
  4 13  2  0
  5 14  1  0
  6 16  1  0
  7 10  2  0
  7 22  1  0
  8  9  2  0
  8 11  1  0
  9 12  1  0
  9 13  1  0
 10 14  1  0
 11 23  1  0
 12 15  2  0
 12 24  1  0
 13 27  1  0
 14 23  2  0
 15 17  1  0
 15 27  1  0
 16 20  1  0
 16 22  2  0
 17 25  1  0
 17 26  2  0
 18 19  1  0
 18 24  1  0
 19 21  1  6
 19 25  1  0
M  END
>  <DRUGBANK_ID>  (1) 
DB07430

>  <COMMON_NAME>  (1) 
(10R)-10-methyl-3-(6-methylpyridin-3-yl)-9,10,11,12-tetrahydro-8H-[1,4]diazepino[5',6':4,5]thieno[3,2-f]quinolin-8-one

$$$$
