VGI
     RDKit          2D

 26 29  0  0  0  0  0  0  0  0999 V2000
   -0.9145   -2.2804    0.0000 C   0  0  0  0  0  0  0  0  0  0  0  0
   -1.6290   -2.6929    0.0000 C   0  0  0  0  0  0  0  0  0  0  0  0
   -1.6290   -3.5179    0.0000 Br  0  0  0  0  0  0  0  0  0  0  0  0
   -2.3434   -2.2804    0.0000 C   0  0  0  0  0  0  0  0  0  0  0  0
   -2.3434   -1.4554    0.0000 C   0  0  0  0  0  0  0  0  0  0  0  0
   -1.6290   -1.0429    0.0000 C   0  0  0  0  0  0  0  0  0  0  0  0
   -0.9145   -1.4554    0.0000 C   0  0  0  0  0  0  0  0  0  0  0  0
   -0.2000   -1.0429    0.0000 N   0  0  0  0  0  0  0  0  0  0  0  0
   -0.2000   -0.2179    0.0000 C   0  0  0  0  0  0  0  0  0  0  0  0
   -0.9145    0.1946    0.0000 O   0  0  0  0  0  0  0  0  0  0  0  0
    0.5145   -1.4554    0.0000 C   0  0  0  0  0  0  0  0  0  0  0  0
    0.5145   -2.2804    0.0000 O   0  0  0  0  0  0  0  0  0  0  0  0
    1.2289   -1.0429    0.0000 C   0  0  0  0  0  0  0  0  0  0  0  0
    1.9434   -1.4554    0.0000 C   0  0  0  0  0  0  0  0  0  0  0  0
    2.6579   -1.0429    0.0000 C   0  0  0  0  0  0  0  0  0  0  0  0
    2.6579   -0.2179    0.0000 C   0  0  0  0  0  0  0  0  0  0  0  0
    1.9434    0.1946    0.0000 C   0  0  0  0  0  0  0  0  0  0  0  0
    1.2289   -0.2179    0.0000 C   0  0  0  0  0  0  0  0  0  0  0  0
    0.5145    0.1946    0.0000 C   0  0  0  0  0  0  0  0  0  0  0  0
    0.5145    1.0196    0.0000 C   0  0  0  0  0  0  0  0  0  0  0  0
    1.2289    1.4321    0.0000 C   0  0  0  0  0  0  0  0  0  0  0  0
    1.9434    1.0196    0.0000 C   0  0  0  0  0  0  0  0  0  0  0  0
    2.6579    1.4321    0.0000 N   0  0  0  0  0  0  0  0  0  0  0  0
    2.6579    2.2571    0.0000 C   0  0  0  0  0  0  0  0  0  0  0  0
    3.3723    2.6696    0.0000 C   0  0  0  0  0  0  0  0  0  0  0  0
    3.3723    3.4946    0.0000 O   0  0  0  0  0  0  0  0  0  0  0  0
  1  2  2  0
  1  7  1  0
  2  3  1  0
  2  4  1  0
  4  5  2  0
  5  6  1  0
  6  7  2  0
  7  8  1  0
  8  9  1  0
  8 11  1  0
  9 10  2  0
  9 19  1  0
 11 12  2  0
 11 13  1  0
 13 14  2  0
 13 18  1  0
 14 15  1  0
 15 16  2  0
 16 17  1  0
 17 18  1  0
 17 22  2  0
 18 19  2  0
 19 20  1  0
 20 21  2  0
 21 22  1  0
 22 23  1  0
 23 24  1  0
 24 25  1  0
 25 26  1  0
M  END
>  <DRUGBANK_ID>  (1) 
DB08701

>  <COMMON_NAME>  (1) 
2-(3-BROMOPHENYL)-6-[(2-HYDROXYETHYL)AMINO]-1H-BENZO[DE]ISOQUINOLINE-1,3(2H)-DIONE

$$$$
