
     RDKit          2D

 34 37  0  0  0  0  0  0  0  0999 V2000
    0.6624   -3.2453    0.0000 C   0  0  0  0  0  0  0  0  0  0  0  0
    1.4874   -3.2453    0.0000 C   0  0  0  0  0  0  0  0  0  0  0  0
    1.8999   -2.5308    0.0000 C   0  0  0  0  0  0  0  0  0  0  0  0
    2.7249   -2.5308    0.0000 N   0  0  0  0  0  0  0  0  0  0  0  0
    3.1374   -3.2453    0.0000 C   0  0  0  0  0  0  0  0  0  0  0  0
    3.9624   -3.2453    0.0000 C   0  0  0  0  0  0  0  0  0  0  0  0
    4.3749   -3.9598    0.0000 C   0  0  0  0  0  0  0  0  0  0  0  0
    3.1374   -1.8164    0.0000 C   0  0  0  0  0  0  0  0  0  0  0  0
    2.7249   -1.1019    0.0000 O   0  0  0  0  0  0  0  0  0  0  0  0
    3.9624   -1.8164    0.0000 C   0  0  0  0  0  0  0  0  0  0  0  0
    4.3203   -1.0731    0.0000 C   0  0  0  0  0  0  0  0  0  0  0  0
    5.1247   -0.8895    0.0000 C   0  0  0  0  0  0  0  0  0  0  0  0
    5.2476   -0.0737    0.0000 C   0  0  0  0  0  0  0  0  0  0  0  0
    6.0156    0.2277    0.0000 C   0  0  0  0  0  0  0  0  0  0  0  0
    6.6606   -0.2867    0.0000 C   0  0  0  0  0  0  0  0  0  0  0  0
    6.5376   -1.1024    0.0000 C   0  0  0  0  0  0  0  0  0  0  0  0
    5.7697   -1.4039    0.0000 C   0  0  0  0  0  0  0  0  0  0  0  0
    5.7697   -2.2289    0.0000 N   0  0  0  0  0  0  0  0  0  0  0  0
    5.1247   -2.7432    0.0000 C   0  0  0  0  0  0  0  0  0  0  0  0
    4.3203   -2.5597    0.0000 C   0  0  0  0  0  0  0  0  0  0  0  0
    5.3082   -3.5475    0.0000 N   0  0  0  0  0  0  0  0  0  0  0  0
    7.4286    0.0147    0.0000 C   0  0  0  0  0  0  0  0  0  0  0  0
    7.5515    0.8305    0.0000 C   0  0  0  0  0  0  0  0  0  0  0  0
    8.3195    1.1319    0.0000 C   0  0  0  0  0  0  0  0  0  0  0  0
    8.9645    0.6176    0.0000 C   0  0  0  0  0  0  0  0  0  0  0  0
    8.8416   -0.1982    0.0000 C   0  0  0  0  0  0  0  0  0  0  0  0
    8.0736   -0.4996    0.0000 C   0  0  0  0  0  0  0  0  0  0  0  0
    9.7325    0.9190    0.0000 C   0  0  0  0  0  0  0  0  0  0  0  0
    9.8554    1.7347    0.0000 O   0  0  0  0  0  0  0  0  0  0  0  0
   10.3775    0.4046    0.0000 N   0  0  0  0  0  0  0  0  0  0  0  0
   11.1728    0.6241    0.0000 C   0  0  0  0  0  0  0  0  0  0  0  0
   11.6273   -0.0645    0.0000 C   0  0  0  0  0  0  0  0  0  0  0  0
   11.1129   -0.7095    0.0000 C   0  0  0  0  0  0  0  0  0  0  0  0
   10.3405   -0.4196    0.0000 C   0  0  0  0  0  0  0  0  0  0  0  0
  1  2  1  0
  2  3  1  0
  3  4  1  0
  4  5  1  0
  4  8  1  0
  5  6  1  0
  6  7  1  0
  8  9  2  0
  8 10  1  0
 10 11  2  0
 10 20  1  0
 11 12  1  0
 12 13  2  0
 12 17  1  0
 13 14  1  0
 14 15  2  0
 15 16  1  0
 15 22  1  0
 16 17  2  0
 17 18  1  0
 18 19  2  0
 19 20  1  0
 19 21  1  0
 22 23  2  0
 22 27  1  0
 23 24  1  0
 24 25  2  0
 25 26  1  0
 25 28  1  0
 26 27  2  0
 28 29  2  0
 28 30  1  0
 30 31  1  0
 30 34  1  0
 31 32  1  0
 32 33  1  0
 33 34  1  0
M  END
>  <DRUGBANK_ID>  (1) 
DB12303

>  <COMMON_NAME>  (1) 
Motolimod

>  <CAS_NUMBER>  (1) 
926927-61-9

>  <UNII>  (1) 
WP6PY72ZH3

>  <SYNONYMS>  (1) 
{2-amino-8-[4-(pyrrolidinylcarbonyl)phenyl](3H-benzo[f]azepin-4-yl)}-N,N-dipropycarboxamide; Motolimod

$$$$
