
     RDKit          2D

 14 13  0  0  0  0  0  0  0  0999 V2000
   -0.7139    0.0050    0.0000 C   0  0  0  0  0  0  0  0  0  0  0  0
   -0.7139   -0.8197    0.0000 C   0  0  0  0  0  0  0  0  0  0  0  0
   -1.4284    0.4176    0.0000 C   0  0  0  0  0  0  0  0  0  0  0  0
   -1.4284   -1.2323    0.0000 C   0  0  0  0  0  0  0  0  0  0  0  0
   -2.1428    0.0050    0.0000 C   0  0  0  0  0  0  0  0  0  0  0  0
   -2.1428   -0.8197    0.0000 C   0  0  0  0  0  0  0  0  0  0  0  0
    0.7148    0.0050    0.0000 C   0  0  0  0  0  0  0  0  0  0  0  0
    0.7148   -0.8197    0.0000 C   0  0  0  0  0  0  0  0  0  0  0  0
    0.0004    0.4176    0.0000 C   0  0  0  0  0  0  0  0  0  0  0  0
    0.0004   -1.2323    0.0000 C   0  0  0  0  0  0  0  0  0  0  0  0
    1.4340    0.4075    0.0000 C   0  0  0  0  0  0  0  0  0  0  0  0
    2.1428   -0.0144    0.0000 O   0  0  0  0  0  0  0  0  0  0  0  0
    1.4450    1.2324    0.0000 O   0  0  0  0  0  0  0  0  0  0  0  0
    1.4293   -1.2324    0.0000 C   0  0  0  0  0  0  0  0  0  0  0  0
  1  9  1  0
  2 10  1  0
  3  1  1  0
  4  2  1  0
  5  3  1  0
  6  4  1  0
  6  5  1  0
  7 11  1  0
  8 14  1  0
  9  7  1  0
 10  8  1  0
 11 12  1  0
 11 13  2  0
M  END
>  <DRUGBANK_ID>  (1) 
DB03017

>  <SECONDARY_ACCESSION_NUMBERS>  (1) 
EXPT01112; EXPT02006

>  <COMMON_NAME>  (1) 
Lauric acid

>  <CAS_NUMBER>  (1) 
143-07-7

>  <UNII>  (1) 
1160N9NU9U

>  <SYNONYMS>  (1) 
1-undecanecarboxylic acid; ABL; C12 fatty acid; C12:0; Coconut oil fatty acids; DAO; Dodecanoic acid; Dodecoic acid; Dodecylcarboxylate; Dodecylic acid; Duodecyclic acid; Duodecylic acid; Laurins√§ure; Laurostearic acid; n-dodecanoic acid; Undecane-1-carboxylic acid; Vulvic acid

$$$$
