TP2
     RDKit          2D

 21 22  0  0  0  0  0  0  0  0999 V2000
   -3.6717   -0.9678    0.0000 S   0  0  0  0  0  0  0  0  0  0  0  0
   -2.9572   -1.3803    0.0000 C   0  0  0  0  0  0  0  0  0  0  0  0
   -2.2428   -0.9678    0.0000 C   0  0  0  0  0  0  0  0  0  0  0  0
   -1.5283   -1.3803    0.0000 N   0  0  0  0  0  0  0  0  0  0  0  0
   -0.8138   -0.9678    0.0000 C   0  0  0  0  0  0  0  0  0  0  0  0
   -0.0993   -1.3803    0.0000 C   0  0  0  0  0  0  0  0  0  0  0  0
    0.6543   -1.0447    0.0000 N   0  0  0  0  0  0  0  0  0  0  0  0
    0.8259   -0.2377    0.0000 S   0  0  0  0  0  0  0  0  0  0  0  0
    0.9974    0.5692    0.0000 C   0  0  0  0  0  0  0  0  0  0  0  0
    0.3843    1.1213    0.0000 C   0  0  0  0  0  0  0  0  0  0  0  0
    0.5558    1.9282    0.0000 C   0  0  0  0  0  0  0  0  0  0  0  0
    1.3404    2.1832    0.0000 C   0  0  0  0  0  0  0  0  0  0  0  0
    1.9535    1.6311    0.0000 C   0  0  0  0  0  0  0  0  0  0  0  0
    1.7820    0.8242    0.0000 C   0  0  0  0  0  0  0  0  0  0  0  0
    1.5120    2.9902    0.0000 C   0  0  0  0  0  0  0  0  0  0  0  0
    1.6328   -0.4093    0.0000 O   0  0  0  0  0  0  0  0  0  0  0  0
    0.0189   -0.0662    0.0000 O   0  0  0  0  0  0  0  0  0  0  0  0
    1.2064   -1.6578    0.0000 C   0  0  0  0  0  0  0  0  0  0  0  0
    0.7939   -2.3723    0.0000 C   0  0  0  0  0  0  0  0  0  0  0  0
   -0.0131   -2.2007    0.0000 C   0  0  0  0  0  0  0  0  0  0  0  0
   -0.8138   -0.1428    0.0000 O   0  0  0  0  0  0  0  0  0  0  0  0
  1  2  1  0
  2  3  1  0
  3  4  1  0
  4  5  1  0
  5 21  2  0
  6  5  1  6
  6  7  1  0
  6 20  1  0
  7  8  1  0
  7 18  1  0
  8  9  1  0
  8 16  2  0
  8 17  2  0
  9 10  2  0
  9 14  1  0
 10 11  1  0
 11 12  2  0
 12 13  1  0
 12 15  1  0
 13 14  2  0
 18 19  1  0
 19 20  1  0
M  END
>  <DRUGBANK_ID>  (1) 
DB03818

>  <SECONDARY_ACCESSION_NUMBERS>  (1) 
EXPT03085

>  <COMMON_NAME>  (1) 
N-[Tosyl-D-Prolinyl]Amino-Ethanethiol

$$$$
