1FR
     RDKit          2D

 29 32  0  0  0  0  0  0  0  0999 V2000
    2.9901    1.0492    0.0000 C   0  0  0  0  0  0  0  0  0  0  0  0
    3.7046    0.6367    0.0000 C   0  0  0  0  0  0  0  0  0  0  0  0
    3.7046   -0.1883    0.0000 C   0  0  0  0  0  0  0  0  0  0  0  0
    2.2757   -0.1883    0.0000 C   0  0  0  0  0  0  0  0  0  0  0  0
    2.2757    0.6367    0.0000 C   0  0  0  0  0  0  0  0  0  0  0  0
    1.5612    1.0492    0.0000 C   0  0  0  0  0  0  0  0  0  0  0  0
   -1.4871   -2.0012    0.0000 C   0  0  0  0  0  0  0  0  0  0  0  0
   -1.7842   -0.6035    0.0000 C   0  0  0  0  0  0  0  0  0  0  0  0
   -3.3982   -0.9465    0.0000 C   0  0  0  0  0  0  0  0  0  0  0  0
   -2.8461   -1.5596    0.0000 C   0  0  0  0  0  0  0  0  0  0  0  0
   -2.0392   -1.3881    0.0000 C   0  0  0  0  0  0  0  0  0  0  0  0
   -3.1432   -0.1619    0.0000 C   0  0  0  0  0  0  0  0  0  0  0  0
   -2.3363    0.0096    0.0000 C   0  0  0  0  0  0  0  0  0  0  0  0
   -2.0813    0.7943    0.0000 C   0  0  0  0  0  0  0  0  0  0  0  0
   -1.2967    1.0492    0.0000 C   0  0  0  0  0  0  0  0  0  0  0  0
   -1.2967    1.8742    0.0000 C   0  0  0  0  0  0  0  0  0  0  0  0
   -0.5822    2.2867    0.0000 C   0  0  0  0  0  0  0  0  0  0  0  0
   -0.5822    0.6367    0.0000 C   0  0  0  0  0  0  0  0  0  0  0  0
    0.1322    1.0492    0.0000 C   0  0  0  0  0  0  0  0  0  0  0  0
   -4.2051   -1.1180    0.0000 Cl  0  0  0  0  0  0  0  0  0  0  0  0
   -0.6802   -1.8296    0.0000 C   0  0  0  0  0  0  0  0  0  0  0  0
   -0.1281   -2.4427    0.0000 C   0  0  0  0  0  0  0  0  0  0  0  0
   -0.3831   -3.2274    0.0000 O   0  0  0  0  0  0  0  0  0  0  0  0
   -2.0813    2.1291    0.0000 O   0  0  0  0  0  0  0  0  0  0  0  0
   -2.5662    1.4617    0.0000 N   0  0  0  0  0  0  0  0  0  0  0  0
    0.1322    1.8742    0.0000 N   0  0  0  0  0  0  0  0  0  0  0  0
    0.8467    0.6367    0.0000 N   0  0  0  0  0  0  0  0  0  0  0  0
    1.5612    1.8742    0.0000 C   0  0  0  0  0  0  0  0  0  0  0  0
    2.9901   -0.6008    0.0000 C   0  0  0  0  0  0  0  0  0  0  0  0
  1  2  2  0
  1  5  1  0
  2  3  1  0
  3 29  2  0
  4  5  2  0
  4 29  1  0
  5  6  1  0
  6 27  1  0
  6 28  1  1
  7 11  1  0
  7 21  1  0
  8 11  2  0
  8 13  1  0
  9 10  2  0
  9 12  1  0
  9 20  1  0
 10 11  1  0
 12 13  2  0
 13 14  1  0
 14 15  1  0
 14 25  2  0
 15 16  1  0
 15 18  2  0
 16 17  2  0
 16 24  1  0
 17 26  1  0
 18 19  1  0
 19 26  2  0
 19 27  1  0
 21 22  1  0
 22 23  1  0
 24 25  1  0
M  END
>  <DRUGBANK_ID>  (1) 
DB06897

>  <COMMON_NAME>  (1) 
3-[3-chloro-5-(5-{[(1S)-1-phenylethyl]amino}isoxazolo[5,4-c]pyridin-3-yl)phenyl]propan-1-ol

$$$$
