35A
     RDKit          2D

 32 34  0  0  0  0  0  0  0  0999 V2000
   -0.9931    0.7445    0.0000 C   0  0  0  0  0  0  0  0  0  0  0  0
   -0.6095    0.0141    0.0000 C   0  0  0  0  0  0  0  0  0  0  0  0
    4.1262    0.0141    0.0000 C   0  0  0  0  0  0  0  0  0  0  0  0
    3.7426    0.7445    0.0000 C   0  0  0  0  0  0  0  0  0  0  0  0
    0.2036    2.0313    0.0000 O   0  0  0  0  0  0  0  0  0  0  0  0
   -0.5001    1.6008    0.0000 C   0  0  0  0  0  0  0  0  0  0  0  0
    2.9183    0.7775    0.0000 C   0  0  0  0  0  0  0  0  0  0  0  0
    2.4877    1.4812    0.0000 C   0  0  0  0  0  0  0  0  0  0  0  0
    1.8206    1.9666    0.0000 C   0  0  0  0  0  0  0  0  0  0  0  0
    3.6855   -0.6833    0.0000 C   0  0  0  0  0  0  0  0  0  0  0  0
    2.8611   -0.6503    0.0000 C   0  0  0  0  0  0  0  0  0  0  0  0
    2.4775    0.0800    0.0000 C   0  0  0  0  0  0  0  0  0  0  0  0
    0.0474   -1.8725    0.0000 C   0  0  0  0  0  0  0  0  0  0  0  0
    0.8495   -2.0657    0.0000 C   0  0  0  0  0  0  0  0  0  0  0  0
    1.6644   -1.9372    0.0000 C   0  0  0  0  0  0  0  0  0  0  0  0
    2.3681   -1.5066    0.0000 C   0  0  0  0  0  0  0  0  0  0  0  0
   -1.0502   -0.6833    0.0000 C   0  0  0  0  0  0  0  0  0  0  0  0
   -0.6197   -1.3871    0.0000 C   0  0  0  0  0  0  0  0  0  0  0  0
   -1.8746   -0.6503    0.0000 N   0  0  0  0  0  0  0  0  0  0  0  0
   -1.8174    0.7775    0.0000 C   0  0  0  0  0  0  0  0  0  0  0  0
   -2.2582    0.0800    0.0000 C   0  0  0  0  0  0  0  0  0  0  0  0
   -3.0825    0.1130    0.0000 N   0  0  0  0  0  0  0  0  0  0  0  0
   -3.5233   -0.5844    0.0000 S   0  0  0  0  0  0  0  0  0  0  0  0
   -3.9640   -1.2818    0.0000 C   0  0  0  0  0  0  0  0  0  0  0  0
   -4.2207   -0.1436    0.0000 O   0  0  0  0  0  0  0  0  0  0  0  0
   -2.8258   -1.0251    0.0000 O   0  0  0  0  0  0  0  0  0  0  0  0
   -3.4661    0.8434    0.0000 C   0  0  0  0  0  0  0  0  0  0  0  0
    0.8165   -2.8900    0.0000 C   0  0  0  0  0  0  0  0  0  0  0  0
    1.0186    2.1598    0.0000 C   0  0  0  0  0  0  0  0  0  0  0  0
    1.0515    2.9841    0.0000 O   0  0  0  0  0  0  0  0  0  0  0  0
    2.4377    2.5142    0.0000 C   0  0  0  0  0  0  0  0  0  0  0  0
    1.8374    2.7914    0.0000 N   0  0  0  0  0  0  0  0  0  0  0  0
  1 20  1  0
  1  6  1  0
  1  2  2  0
  2 17  1  0
  3  4  1  0
  3 10  2  0
  4  7  2  0
  5  6  1  0
  5 29  1  0
  7  8  1  0
  7 12  1  0
  8  9  1  0
  9 29  1  0
  9 31  1  1
  9 32  1  0
 10 11  1  0
 11 12  2  0
 11 16  1  0
 13 18  1  0
 13 14  1  0
 14 15  1  0
 14 28  1  1
 15 16  1  0
 17 19  2  0
 17 18  1  0
 19 21  1  0
 20 21  2  0
 21 22  1  0
 22 27  1  0
 22 23  1  0
 23 24  1  0
 23 25  2  0
 23 26  2  0
 29 30  2  0
M  END
>  <DRUGBANK_ID>  (1) 
DB07019

>  <COMMON_NAME>  (1) 
N-[(5R,14R)-5-AMINO-5,14-DIMETHYL-4-OXO-3-OXA-18-AZATRICYCLO[15.3.1.1~7,11~]DOCOSA-1(21),7(22),8,10,17,19-HEXAEN-19-YL]-N-METHYLMETHANESULFONAMIDE

$$$$
