
     RDKit          2D

 41 42  0  0  0  0  0  0  0  0999 V2000
    7.0539    0.1855    0.0000 C   0  0  0  0  0  0  0  0  0  0  0  0
    7.0566    1.0133    0.0000 C   0  0  0  0  0  0  0  0  0  0  0  0
    6.3469    1.4413    0.0000 C   0  0  0  0  0  0  0  0  0  0  0  0
    7.7692    1.4206    0.0000 C   0  0  0  0  0  0  0  0  0  0  0  0
    8.4831    1.0071    0.0000 C   0  0  0  0  0  0  0  0  0  0  0  0
    8.4844    0.1864    0.0000 C   0  0  0  0  0  0  0  0  0  0  0  0
    7.7677   -0.2278    0.0000 C   0  0  0  0  0  0  0  0  0  0  0  0
    7.0410   -0.6464    0.0000 C   0  0  0  0  0  0  0  0  0  0  0  0
    8.4803   -0.7258    0.0000 C   0  0  0  0  0  0  0  0  0  0  0  0
   -7.7404    0.7176    0.0000 C   0  0  0  0  0  0  0  0  0  0  0  0
   -7.0602    0.2110    0.0000 C   0  0  0  0  0  0  0  0  0  0  0  0
   -6.3769    0.7207    0.0000 C   0  0  0  0  0  0  0  0  0  0  0  0
   -7.7755   -0.2056    0.0000 C   0  0  0  0  0  0  0  0  0  0  0  0
   -7.7714   -1.0264    0.0000 C   0  0  0  0  0  0  0  0  0  0  0  0
   -8.4844   -1.4413    0.0000 O   0  0  0  0  0  0  0  0  0  0  0  0
   -7.0561   -1.4374    0.0000 C   0  0  0  0  0  0  0  0  0  0  0  0
   -6.3449   -1.0279    0.0000 C   0  0  0  0  0  0  0  0  0  0  0  0
   -5.6306   -1.4407    0.0000 C   0  0  0  0  0  0  0  0  0  0  0  0
   -6.3449   -0.1999    0.0000 C   0  0  0  0  0  0  0  0  0  0  0  0
   -5.6308    0.2131    0.0000 C   0  0  0  0  0  0  0  0  0  0  0  0
   -4.9135   -0.1999    0.0000 C   0  0  0  0  0  0  0  0  0  0  0  0
   -4.2036    0.2117    0.0000 C   0  0  0  0  0  0  0  0  0  0  0  0
   -4.2048    1.0367    0.0000 C   0  0  0  0  0  0  0  0  0  0  0  0
   -3.4862   -0.2013    0.0000 C   0  0  0  0  0  0  0  0  0  0  0  0
   -2.7763    0.2103    0.0000 C   0  0  0  0  0  0  0  0  0  0  0  0
   -2.0589   -0.2027    0.0000 C   0  0  0  0  0  0  0  0  0  0  0  0
   -1.3408    0.2089    0.0000 C   0  0  0  0  0  0  0  0  0  0  0  0
   -1.3380    1.0339    0.0000 C   0  0  0  0  0  0  0  0  0  0  0  0
   -0.6317   -0.2042    0.0000 C   0  0  0  0  0  0  0  0  0  0  0  0
    0.0864    0.2075    0.0000 C   0  0  0  0  0  0  0  0  0  0  0  0
    0.7954   -0.2056    0.0000 C   0  0  0  0  0  0  0  0  0  0  0  0
    1.5136    0.2061    0.0000 C   0  0  0  0  0  0  0  0  0  0  0  0
    2.2310   -0.2070    0.0000 C   0  0  0  0  0  0  0  0  0  0  0  0
    2.2323   -1.0320    0.0000 C   0  0  0  0  0  0  0  0  0  0  0  0
    2.9409    0.2047    0.0000 C   0  0  0  0  0  0  0  0  0  0  0  0
    3.6583   -0.2084    0.0000 C   0  0  0  0  0  0  0  0  0  0  0  0
    4.3682    0.2032    0.0000 C   0  0  0  0  0  0  0  0  0  0  0  0
    5.0855   -0.2098    0.0000 C   0  0  0  0  0  0  0  0  0  0  0  0
    5.0860   -0.7048    0.0000 C   0  0  0  0  0  0  0  0  0  0  0  0
    5.7997    0.2032    0.0000 C   0  0  0  0  0  0  0  0  0  0  0  0
    6.4218   -0.1844    0.0000 C   0  0  0  0  0  0  0  0  0  0  0  0
  1  2  2  0
  2  3  1  0
  2  4  1  0
  4  5  1  0
  5  6  1  0
  6  7  1  0
  7  1  1  0
  7  8  1  0
  7  9  1  0
 10 11  1  0
 11 12  1  0
 11 13  1  0
 13 14  1  0
 14 15  1  1
 14 16  1  0
 16 17  1  0
 17 18  1  0
 17 19  2  0
 19 11  1  0
 19 20  1  0
 20 21  2  0
 21 22  1  0
 22 23  1  0
 22 24  2  0
 24 25  1  0
 25 26  2  0
 26 27  1  0
 27 28  1  0
 27 29  2  0
 29 30  1  0
 30 31  2  0
 31 32  1  0
 32 33  2  0
 33 34  1  0
 33 35  1  0
 35 36  2  0
 36 37  1  0
 37 38  2  0
 38 39  1  0
 38 40  1  0
 40 41  2  0
 41  1  1  0
M  END
>  <DRUGBANK_ID>  (1) 
DB15914

>  <COMMON_NAME>  (1) 
Cryptoxanthin

>  <CAS_NUMBER>  (1) 
472-70-8

>  <UNII>  (1) 
6ZIB13GI33

>  <SYNONYMS>  (1) 
beta-Cryptoxanthin; Cryptoxanthine; Cryptoxanthol; Kryptoxanthin; Neocryptoxanthin

$$$$
