3CA
     RDKit          2D

 18 19  0  0  0  0  0  0  0  0999 V2000
    1.7306    2.0187    0.0000 O   0  0  0  0  0  0  0  0  0  0  0  0
    1.0162    1.6062    0.0000 C   0  0  0  0  0  0  0  0  0  0  0  0
    0.3017    2.0187    0.0000 O   0  0  0  0  0  0  0  0  0  0  0  0
    1.0162    0.7812    0.0000 C   0  0  0  0  0  0  0  0  0  0  0  0
    1.7306    0.3687    0.0000 C   0  0  0  0  0  0  0  0  0  0  0  0
    2.4451    0.7812    0.0000 O   0  0  0  0  0  0  0  0  0  0  0  0
    1.7306   -0.4563    0.0000 C   0  0  0  0  0  0  0  0  0  0  0  0
    1.0162   -0.8688    0.0000 C   0  0  0  0  0  0  0  0  0  0  0  0
    0.3017   -0.4563    0.0000 C   0  0  0  0  0  0  0  0  0  0  0  0
    0.3017    0.3687    0.0000 C   0  0  0  0  0  0  0  0  0  0  0  0
   -0.4128   -0.8688    0.0000 C   0  0  0  0  0  0  0  0  0  0  0  0
   -0.4128   -1.6938    0.0000 C   0  0  0  0  0  0  0  0  0  0  0  0
   -1.1272   -0.4563    0.0000 C   0  0  0  0  0  0  0  0  0  0  0  0
   -1.1272    0.3687    0.0000 Cl  0  0  0  0  0  0  0  0  0  0  0  0
   -1.8417   -0.8688    0.0000 C   0  0  0  0  0  0  0  0  0  0  0  0
   -1.8417   -1.6938    0.0000 C   0  0  0  0  0  0  0  0  0  0  0  0
   -2.5562   -2.1063    0.0000 Cl  0  0  0  0  0  0  0  0  0  0  0  0
   -1.1272   -2.1063    0.0000 C   0  0  0  0  0  0  0  0  0  0  0  0
  1  2  2  0
  2  3  1  0
  2  4  1  0
  4  5  2  0
  4 10  1  0
  5  6  1  0
  5  7  1  0
  7  8  2  0
  8  9  1  0
  9 10  2  0
  9 11  1  0
 11 12  2  0
 11 13  1  0
 12 18  1  0
 13 14  1  0
 13 15  2  0
 15 16  1  0
 16 17  1  0
 16 18  2  0
M  END
>  <DRUGBANK_ID>  (1) 
DB07047

>  <COMMON_NAME>  (1) 
2',4'-DICHLORO-4-HYDROXY-1,1'-BIPHENYL-3-CARBOXYLIC ACID

$$$$
