
     RDKit          2D

  7  6  0  0  0  0  0  0  0  0999 V2000
   -0.7251   -0.1875    0.0000 N   0  0  0  0  0  0  0  0  0  0  0  0
    1.4394   -0.4867    0.0000 O   0  0  0  0  0  0  0  0  0  0  0  0
    0.0102   -0.5615    0.0000 C   0  0  0  0  0  0  0  0  0  0  0  0
    0.7081   -0.1128    0.0000 C   0  0  0  0  0  0  0  0  0  0  0  0
   -1.4165   -0.6375    0.0000 C   0  0  0  0  0  0  0  0  0  0  0  0
   -1.4394    0.2249    0.0000 C   0  0  0  0  0  0  0  0  0  0  0  0
   -0.7251    0.6375    0.0000 C   0  0  0  0  0  0  0  0  0  0  0  0
  1  5  1  0
  1  6  1  0
  1  7  1  0
  2  4  1  0
  3  1  1  0
  4  3  1  0
M  CHG  1   1   1
M  ISO  1   7  11
M  END
>  <DRUGBANK_ID>  (1) 
DB09563

>  <COMMON_NAME>  (1) 
Choline C-11

>  <CAS_NUMBER>  (1) 
94793-58-5

>  <UNII>  (1) 
M4AS4XGD4Q

>  <SYNONYMS>  (1) 
(11)C-choline; Choline C11

$$$$
