
     RDKit          2D

 19 20  0  0  0  0  0  0  0  0999 V2000
    0.9157    2.3138    0.0000 P   0  0  0  0  0  0  0  0  0  0  0  0
    0.5363   -0.5593    0.0000 O   0  0  0  0  0  0  0  0  0  0  0  0
   -1.5831   -0.8142    0.0000 O   0  0  0  0  0  0  0  0  0  0  0  0
   -1.0285    0.8927    0.0000 O   0  0  0  0  0  0  0  0  0  0  0  0
    0.4308    1.6463    0.0000 O   0  0  0  0  0  0  0  0  0  0  0  0
    1.3209   -1.2743    0.0000 O   0  0  0  0  0  0  0  0  0  0  0  0
   -1.0285   -2.9812    0.0000 O   0  0  0  0  0  0  0  0  0  0  0  0
    1.4006    2.9812    0.0000 O   0  0  0  0  0  0  0  0  0  0  0  0
    0.2482    2.7987    0.0000 O   0  0  0  0  0  0  0  0  0  0  0  0
    1.5831    1.8288    0.0000 O   0  0  0  0  0  0  0  0  0  0  0  0
   -0.7985   -1.5292    0.0000 N   0  0  0  0  0  0  0  0  0  0  0  0
    0.2814   -2.3138    0.0000 N   0  0  0  0  0  0  0  0  0  0  0  0
   -0.1310   -1.0442    0.0000 C   0  0  0  0  0  0  0  0  0  0  0  0
   -0.7985   -0.5593    0.0000 C   0  0  0  0  0  0  0  0  0  0  0  0
   -0.5435    0.2253    0.0000 C   0  0  0  0  0  0  0  0  0  0  0  0
    0.2814    0.2253    0.0000 C   0  0  0  0  0  0  0  0  0  0  0  0
    0.5363   -1.5292    0.0000 C   0  0  0  0  0  0  0  0  0  0  0  0
    0.7663    0.8927    0.0000 C   0  0  0  0  0  0  0  0  0  0  0  0
   -0.5435   -2.3138    0.0000 C   0  0  0  0  0  0  0  0  0  0  0  0
  1  5  1  0
  1  8  1  0
  1  9  1  0
  1 10  2  0
  2 16  1  0
  5 18  1  0
  6 17  2  0
  7 19  2  0
 13 11  1  1
 11 19  1  0
 12 17  1  0
 12 19  1  0
 13  2  1  0
 13 14  1  0
 13 17  1  0
 14  3  1  6
 14 15  1  0
 15  4  1  6
 15 16  1  0
 16 18  1  1
M  END
>  <DRUGBANK_ID>  (1) 
DB02493

>  <SECONDARY_ACCESSION_NUMBERS>  (1) 
EXPT01683; DB02150

>  <COMMON_NAME>  (1) 
Hydantocidin-5'-phosphate

>  <SYNONYMS>  (1) 
[(5S,7R,8S,9R)-8,9-dihydroxy-2,4-dioxo-6-oxa-1,3-diazaspiro[4.4]non-7-yl]methyl dihydrogen phosphate; Phosphohydantocidin

$$$$
