
     RDKit          2D

 35 41  0  0  0  0  0  0  0  0999 V2000
   -1.6996   -1.3816    0.0000 C   0  0  0  0  0  0  0  0  0  0  0  0
   -2.4422   -0.9691    0.0000 C   0  0  0  0  0  0  0  0  0  0  0  0
   -3.1433   -1.4228    0.0000 C   0  0  0  0  0  0  0  0  0  0  0  0
   -3.1433   -2.2478    0.0000 C   0  0  0  0  0  0  0  0  0  0  0  0
   -2.4009   -2.6190    0.0000 C   0  0  0  0  0  0  0  0  0  0  0  0
   -1.6996   -2.2066    0.0000 C   0  0  0  0  0  0  0  0  0  0  0  0
   -1.4521    2.6190    0.0000 C   0  0  0  0  0  0  0  0  0  0  0  0
   -0.6272    2.6190    0.0000 C   0  0  0  0  0  0  0  0  0  0  0  0
   -0.2149    1.8767    0.0000 C   0  0  0  0  0  0  0  0  0  0  0  0
   -0.6272    1.1342    0.0000 C   0  0  0  0  0  0  0  0  0  0  0  0
   -1.4521    1.1342    0.0000 C   0  0  0  0  0  0  0  0  0  0  0  0
   -1.8647    1.8354    0.0000 C   0  0  0  0  0  0  0  0  0  0  0  0
   -0.3798    0.3919    0.0000 C   0  0  0  0  0  0  0  0  0  0  0  0
   -0.9985   -0.1442    0.0000 N   0  0  0  0  0  0  0  0  0  0  0  0
   -1.6996    0.3506    0.0000 C   0  0  0  0  0  0  0  0  0  0  0  0
   -2.4833    0.1444    0.0000 O   0  0  0  0  0  0  0  0  0  0  0  0
    0.4037    0.1444    0.0000 O   0  0  0  0  0  0  0  0  0  0  0  0
   -1.0811    1.6291    0.0000 C   0  0  0  0  0  0  0  0  0  0  0  0
   -0.9985   -0.9279    0.0000 C   0  0  0  0  0  0  0  0  0  0  0  0
   -1.0165   -2.6098    0.0000 C   0  0  0  0  0  0  0  0  0  0  0  0
   -0.3137   -2.1779    0.0000 N   0  0  0  0  0  0  0  0  0  0  0  0
   -0.3292   -1.3646    0.0000 C   0  0  0  0  0  0  0  0  0  0  0  0
    0.3735   -0.9329    0.0000 C   0  0  0  0  0  0  0  0  0  0  0  0
    1.1136   -1.3497    0.0000 N   0  0  0  0  0  0  0  0  0  0  0  0
    1.0939   -2.1845    0.0000 C   0  0  0  0  0  0  0  0  0  0  0  0
    0.3912   -2.6164    0.0000 C   0  0  0  0  0  0  0  0  0  0  0  0
    1.8166   -0.9179    0.0000 C   0  0  0  0  0  0  0  0  0  0  0  0
    1.8927   -0.0965    0.0000 C   0  0  0  0  0  0  0  0  0  0  0  0
    2.7116    0.0676    0.0000 C   0  0  0  0  0  0  0  0  0  0  0  0
    3.1433   -0.6351    0.0000 S   0  0  0  0  0  0  0  0  0  0  0  0
    2.5700   -1.2777    0.0000 N   0  0  0  0  0  0  0  0  0  0  0  0
    1.3204    0.5200    0.0000 C   0  0  0  0  0  0  0  0  0  0  0  0
    1.5669    1.3007    0.0000 C   0  0  0  0  0  0  0  0  0  0  0  0
    2.3859    1.4648    0.0000 C   0  0  0  0  0  0  0  0  0  0  0  0
    2.9581    0.8483    0.0000 C   0  0  0  0  0  0  0  0  0  0  0  0
  1  2  1  0
  1  6  1  0
  1 19  1  1
  2  3  1  0
  3  4  1  0
  4  5  1  0
  5  6  1  0
  6 20  1  6
  7  8  1  0
 12  7  1  6
  9  8  1  6
  9 10  1  0
  9 18  1  0
 10 11  1  0
 10 13  1  1
 11 12  1  0
 11 15  1  1
 12 18  1  0
 13 14  1  0
 13 17  2  0
 14 15  1  0
 14 19  1  0
 15 16  2  0
 20 21  1  0
 21 22  1  0
 21 26  1  0
 22 23  1  0
 23 24  1  0
 24 25  1  0
 24 27  1  0
 25 26  1  0
 27 28  1  0
 27 31  2  0
 28 29  2  0
 28 32  1  0
 29 30  1  0
 29 35  1  0
 30 31  1  0
 32 33  2  0
 33 34  1  0
 34 35  2  0
M  END
>  <DRUGBANK_ID>  (1) 
DB08815

>  <COMMON_NAME>  (1) 
Lurasidone

>  <CAS_NUMBER>  (1) 
367514-87-2

>  <UNII>  (1) 
22IC88528T

>  <SYNONYMS>  (1) 
Lurasidona; Lurasidone; Lurasidonum

$$$$
