
     RDKit          2D

 10 10  0  0  0  0  0  0  0  0999 V2000
    0.2183    0.2899    0.0000 C   0  0  0  0  0  0  0  0  0  0  0  0
    0.2183   -0.5356    0.0000 C   0  0  0  0  0  0  0  0  0  0  0  0
   -0.4980    0.6993    0.0000 C   0  0  0  0  0  0  0  0  0  0  0  0
    0.9210    0.7026    0.0000 C   0  0  0  0  0  0  0  0  0  0  0  0
   -0.4980   -0.9551    0.0000 N   0  0  0  0  0  0  0  0  0  0  0  0
   -1.2075    0.2899    0.0000 C   0  0  0  0  0  0  0  0  0  0  0  0
    1.6339    0.2934    0.0000 N   0  0  0  0  0  0  0  0  0  0  0  0
    0.9176    1.5179    0.0000 O   0  0  0  0  0  0  0  0  0  0  0  0
   -1.2075   -0.5356    0.0000 C   0  0  0  0  0  0  0  0  0  0  0  0
   -0.4980   -1.7636    0.0000 C   0  0  0  0  0  0  0  0  0  0  0  0
  1  2  2  0
  1  3  1  0
  1  4  1  0
  2  5  1  0
  3  6  2  0
  4  7  1  0
  4  8  2  0
  5  9  2  0
  5 10  1  0
  6  9  1  0
M  CHG  1   5   1
M  END
>  <DRUGBANK_ID>  (1) 
DB11710

>  <COMMON_NAME>  (1) 
Trigonellamide

>  <CAS_NUMBER>  (1) 
3106-60-3

>  <UNII>  (1) 
UM47085BXC

$$$$
