NAM
     RDKit          2D

 16 17  0  0  0  0  0  0  0  0999 V2000
   -1.6484   -0.6971    0.0000 N   0  0  0  0  0  0  0  0  0  0  0  0
   -0.9339   -1.1096    0.0000 C   0  0  0  0  0  0  0  0  0  0  0  0
   -0.2194   -0.6971    0.0000 C   0  0  0  0  0  0  0  0  0  0  0  0
   -0.9339   -1.9346    0.0000 C   0  0  0  0  0  0  0  0  0  0  0  0
   -1.6484   -2.3471    0.0000 O   0  0  0  0  0  0  0  0  0  0  0  0
   -0.2194   -2.3471    0.0000 N   0  0  0  0  0  0  0  0  0  0  0  0
   -0.2194    0.1279    0.0000 C   0  0  0  0  0  0  0  0  0  0  0  0
   -0.9339    0.5404    0.0000 C   0  0  0  0  0  0  0  0  0  0  0  0
   -0.9339    1.3654    0.0000 C   0  0  0  0  0  0  0  0  0  0  0  0
   -0.2194    1.7779    0.0000 C   0  0  0  0  0  0  0  0  0  0  0  0
    0.4950    1.3654    0.0000 C   0  0  0  0  0  0  0  0  0  0  0  0
    1.2095    1.7779    0.0000 C   0  0  0  0  0  0  0  0  0  0  0  0
    1.9240    1.3654    0.0000 C   0  0  0  0  0  0  0  0  0  0  0  0
    1.9240    0.5404    0.0000 C   0  0  0  0  0  0  0  0  0  0  0  0
    1.2095    0.1279    0.0000 C   0  0  0  0  0  0  0  0  0  0  0  0
    0.4950    0.5404    0.0000 C   0  0  0  0  0  0  0  0  0  0  0  0
  2  1  1  1
  2  3  1  0
  2  4  1  0
  3  7  1  0
  4  5  2  0
  4  6  1  0
  7  8  2  0
  7 16  1  0
  8  9  1  0
  9 10  2  0
 10 11  1  0
 11 12  1  0
 11 16  2  0
 12 13  2  0
 13 14  1  0
 14 15  2  0
 15 16  1  0
M  END
>  <DRUGBANK_ID>  (1) 
DB08253

>  <COMMON_NAME>  (1) 
NAM NAPTHYLAMINOALANINE

$$$$
