991
     RDKit          2D

 26 29  0  0  0  0  0  0  0  0999 V2000
    2.0534   -0.4671    0.0000 C   0  0  0  0  0  0  0  0  0  0  0  0
    2.0534   -1.2921    0.0000 C   0  0  0  0  0  0  0  0  0  0  0  0
    2.7678   -1.7046    0.0000 Cl  0  0  0  0  0  0  0  0  0  0  0  0
    1.3389   -1.7046    0.0000 C   0  0  0  0  0  0  0  0  0  0  0  0
    0.6244   -1.2921    0.0000 C   0  0  0  0  0  0  0  0  0  0  0  0
    0.6244   -0.4671    0.0000 C   0  0  0  0  0  0  0  0  0  0  0  0
    1.3389   -0.0546    0.0000 C   0  0  0  0  0  0  0  0  0  0  0  0
    2.7678   -0.0546    0.0000 C   0  0  0  0  0  0  0  0  0  0  0  0
    3.4823   -0.4671    0.0000 N   0  0  0  0  0  0  0  0  0  0  0  0
    2.7678    0.7704    0.0000 N   0  0  0  0  0  0  0  0  0  0  0  0
   -0.1602   -1.5470    0.0000 N   0  0  0  0  0  0  0  0  0  0  0  0
   -0.1602   -0.2121    0.0000 C   0  0  0  0  0  0  0  0  0  0  0  0
   -0.6451   -0.8796    0.0000 C   0  0  0  0  0  0  0  0  0  0  0  0
   -1.4701   -0.8796    0.0000 C   0  0  0  0  0  0  0  0  0  0  0  0
   -1.8826   -1.5940    0.0000 C   0  0  0  0  0  0  0  0  0  0  0  0
   -2.7076   -1.5940    0.0000 C   0  0  0  0  0  0  0  0  0  0  0  0
   -3.1201   -0.8796    0.0000 C   0  0  0  0  0  0  0  0  0  0  0  0
   -2.7076   -0.1651    0.0000 C   0  0  0  0  0  0  0  0  0  0  0  0
   -3.1201    0.5494    0.0000 O   0  0  0  0  0  0  0  0  0  0  0  0
   -1.8826   -0.1651    0.0000 C   0  0  0  0  0  0  0  0  0  0  0  0
   -1.4701    0.5494    0.0000 O   0  0  0  0  0  0  0  0  0  0  0  0
   -1.8871    1.3501    0.0000 C   0  0  0  0  0  0  0  0  0  0  0  0
   -2.7076    1.2638    0.0000 C   0  0  0  0  0  0  0  0  0  0  0  0
   -3.0432    2.0175    0.0000 C   0  0  0  0  0  0  0  0  0  0  0  0
   -2.4301    2.5695    0.0000 C   0  0  0  0  0  0  0  0  0  0  0  0
   -1.7156    2.1570    0.0000 C   0  0  0  0  0  0  0  0  0  0  0  0
  1  2  2  0
  1  7  1  0
  1  8  1  0
  2  3  1  0
  2  4  1  0
  4  5  2  0
  5  6  1  0
  5 11  1  0
  6  7  2  0
  6 12  1  0
  8  9  1  0
  8 10  2  0
 11 13  1  0
 12 13  2  0
 13 14  1  0
 14 15  2  0
 14 20  1  0
 15 16  1  0
 16 17  2  0
 17 18  1  0
 18 19  1  0
 18 20  2  0
 19 23  1  0
 20 21  1  0
 22 23  1  0
 22 26  1  0
 23 24  1  0
 24 25  1  0
 25 26  1  0
M  CHG  2  10   1  21  -1
M  END
>  <DRUGBANK_ID>  (1) 
DB01771

>  <SECONDARY_ACCESSION_NUMBERS>  (1) 
EXPT00350

>  <COMMON_NAME>  (1) 
CRA_10991

$$$$
