KI2
     RDKit          2D

 24 25  0  0  0  0  0  0  0  0999 V2000
   -0.2639   -2.2693    0.0000 O   0  0  0  0  0  0  0  0  0  0  0  0
    2.1665   -3.9843    0.0000 C   0  0  0  0  0  0  0  0  0  0  0  0
    1.3564   -4.1402    0.0000 C   0  0  0  0  0  0  0  0  0  0  0  0
    0.8163   -3.5165    0.0000 C   0  0  0  0  0  0  0  0  0  0  0  0
    1.0863   -2.7370    0.0000 C   0  0  0  0  0  0  0  0  0  0  0  0
    1.8964   -2.5811    0.0000 C   0  0  0  0  0  0  0  0  0  0  0  0
    2.4365   -3.2047    0.0000 C   0  0  0  0  0  0  0  0  0  0  0  0
   -0.8040   -1.6456    0.0000 C   0  0  0  0  0  0  0  0  0  0  0  0
   -0.5340   -0.8661    0.0000 O   0  0  0  0  0  0  0  0  0  0  0  0
   -1.6141   -1.8015    0.0000 N   0  0  0  0  0  0  0  0  0  0  0  0
   -2.1542   -1.1779    0.0000 C   0  0  0  0  0  0  0  0  0  0  0  0
   -1.8842   -0.3983    0.0000 C   0  0  0  0  0  0  0  0  0  0  0  0
   -2.4243    0.2253    0.0000 C   0  0  0  0  0  0  0  0  0  0  0  0
   -3.2344    0.0694    0.0000 C   0  0  0  0  0  0  0  0  0  0  0  0
   -3.7745    0.6930    0.0000 C   0  0  0  0  0  0  0  0  0  0  0  0
   -3.5045    1.4726    0.0000 C   0  0  0  0  0  0  0  0  0  0  0  0
   -2.6943    1.6285    0.0000 C   0  0  0  0  0  0  0  0  0  0  0  0
   -2.1542    1.0049    0.0000 C   0  0  0  0  0  0  0  0  0  0  0  0
    0.5462   -2.1133    0.0000 C   0  0  0  0  0  0  0  0  0  0  0  0
   -2.9644   -1.3338    0.0000 C   0  0  0  0  0  0  0  0  0  0  0  0
   -3.5045   -0.7102    0.0000 O   0  0  0  0  0  0  0  0  0  0  0  0
   -3.2344   -2.1133    0.0000 C   0  0  0  0  0  0  0  0  0  0  0  0
   -2.6943   -2.7370    0.0000 O   0  0  0  0  0  0  0  0  0  0  0  0
   -4.0445   -2.2693    0.0000 O   0  0  0  0  0  0  0  0  0  0  0  0
  1  8  1  0
  1 19  1  0
  2  3  2  0
  2  7  1  0
  3  4  1  0
  4  5  2  0
  5  6  1  0
  5 19  1  0
  6  7  2  0
  8  9  2  0
  8 10  1  0
 11 10  1  0
 11 12  1  6
 11 20  1  0
 12 13  1  0
 13 14  2  0
 13 18  1  0
 14 15  1  0
 15 16  2  0
 16 17  1  0
 17 18  2  0
 20 21  1  6
 20 22  1  0
 22 23  2  0
 22 24  1  0
M  END
>  <DRUGBANK_ID>  (1) 
DB08041

>  <COMMON_NAME>  (1) 
3-BENZYLOXYCARBONYLAMINO-2-HYDROXY-4-PHENYL-BUTYRIC ACID

$$$$
