
     RDKit          2D

 23 24  0  0  0  0  0  0  0  0999 V2000
    1.0729    0.8250    0.0000 C   0  0  0  0  0  0  0  0  0  0  0  0
    1.7854    0.4125    0.0000 C   0  0  0  0  0  0  0  0  0  0  0  0
    0.3562    0.4125    0.0000 C   0  0  0  0  0  0  0  0  0  0  0  0
   -1.7854   -1.6500    0.0000 C   0  0  0  0  0  0  0  0  0  0  0  0
    1.0729   -1.6500    0.0000 C   0  0  0  0  0  0  0  0  0  0  0  0
    0.3562   -2.0625    0.0000 C   0  0  0  0  0  0  0  0  0  0  0  0
    1.0729   -0.8250    0.0000 C   0  0  0  0  0  0  0  0  0  0  0  0
    0.3562   -0.4125    0.0000 C   0  0  0  0  0  0  0  0  0  0  0  0
    1.7854   -0.4125    0.0000 C   0  0  0  0  0  0  0  0  0  0  0  0
   -1.7854   -0.8250    0.0000 C   0  0  0  0  0  0  0  0  0  0  0  0
   -1.0729   -2.0625    0.0000 C   0  0  0  0  0  0  0  0  0  0  0  0
   -0.3562   -1.6500    0.0000 C   0  0  0  0  0  0  0  0  0  0  0  0
   -1.0729   -0.4125    0.0000 C   0  0  0  0  0  0  0  0  0  0  0  0
    1.0729    1.6500    0.0000 O   0  0  0  0  0  0  0  0  0  0  0  0
   -0.3562    0.8250    0.0000 O   0  0  0  0  0  0  0  0  0  0  0  0
    2.5020    0.8250    0.0000 O   0  0  0  0  0  0  0  0  0  0  0  0
   -2.5020   -2.0625    0.0000 O   0  0  0  0  0  0  0  0  0  0  0  0
   -0.3562   -0.8250    0.0000 C   0  0  0  0  0  0  0  0  0  0  0  0
   -2.5020   -0.4125    0.0000 O   0  0  0  0  0  0  0  0  0  0  0  0
    0.3562    2.0625    0.0000 C   0  0  0  0  0  0  0  0  0  0  0  0
    3.2146    0.4125    0.0000 C   0  0  0  0  0  0  0  0  0  0  0  0
   -1.0729    0.4125    0.0000 C   0  0  0  0  0  0  0  0  0  0  0  0
   -3.2146   -0.8250    0.0000 C   0  0  0  0  0  0  0  0  0  0  0  0
  2  1  2  0
  3  1  1  0
  4 11  2  0
  5  7  1  0
  6  5  2  0
  7  8  1  0
  8  3  2  0
  9  2  1  0
  9  7  2  0
 10 13  2  0
 10  4  1  0
 11 12  1  0
 12  6  1  0
 13 18  1  0
 14  1  1  0
 15  3  1  0
 16  2  1  0
 17  4  1  0
 18 12  2  0
 19 10  1  0
 20 14  1  0
 21 16  1  0
 22 15  1  0
 23 19  1  0
M  END
>  <DRUGBANK_ID>  (1) 
DB14680

>  <COMMON_NAME>  (1) 
Combretastatin A4

>  <CAS_NUMBER>  (1) 
117048-59-6

>  <UNII>  (1) 
16U6OP69RQ

>  <SYNONYMS>  (1) 
2'-deoxycombretastatin A1; CA4; Combrestatin A4; Combretastatin 4; Combretastatin A-4; PHENOL, 2-METHOXY-5-(2-(3,4,5-TRIMETHOXYPHENYL)ETHENYL)-, (Z)-

$$$$
