NHL
     RDKit          2D

 21 22  0  0  0  0  0  0  0  0999 V2000
   -2.0786   -2.8378    0.0000 C   0  0  0  0  0  0  0  0  0  0  0  0
   -2.9036   -2.8378    0.0000 C   0  0  0  0  0  0  0  0  0  0  0  0
   -3.3161   -2.1234    0.0000 C   0  0  0  0  0  0  0  0  0  0  0  0
   -4.1411   -2.1234    0.0000 C   0  0  0  0  0  0  0  0  0  0  0  0
   -4.5536   -1.4089    0.0000 C   0  0  0  0  0  0  0  0  0  0  0  0
   -4.1411   -0.6944    0.0000 C   0  0  0  0  0  0  0  0  0  0  0  0
   -3.3161   -0.6944    0.0000 C   0  0  0  0  0  0  0  0  0  0  0  0
   -2.9036   -1.4089    0.0000 C   0  0  0  0  0  0  0  0  0  0  0  0
   -2.0786   -1.4089    0.0000 C   0  0  0  0  0  0  0  0  0  0  0  0
   -1.6661   -2.1234    0.0000 C   0  0  0  0  0  0  0  0  0  0  0  0
   -0.8411   -2.1234    0.0000 C   0  0  0  0  0  0  0  0  0  0  0  0
   -0.4286   -1.4089    0.0000 C   0  0  0  0  0  0  0  0  0  0  0  0
   -0.8411   -0.6944    0.0000 C   0  0  0  0  0  0  0  0  0  0  0  0
   -0.4286    0.0201    0.0000 O   0  0  0  0  0  0  0  0  0  0  0  0
   -1.6661   -0.6944    0.0000 O   0  0  0  0  0  0  0  0  0  0  0  0
    0.3964   -1.4089    0.0000 C   0  0  0  0  0  0  0  0  0  0  0  0
    0.8089   -0.6944    0.0000 C   0  0  0  0  0  0  0  0  0  0  0  0
    0.3964    0.0201    0.0000 N   0  0  0  0  0  0  0  0  0  0  0  0
    1.6339   -0.6944    0.0000 C   0  0  0  0  0  0  0  0  0  0  0  0
    2.0464   -1.4089    0.0000 O   0  0  0  0  0  0  0  0  0  0  0  0
    2.0464    0.0201    0.0000 O   0  0  0  0  0  0  0  0  0  0  0  0
  1  2  2  0
  1 10  1  0
  2  3  1  0
  3  4  2  0
  3  8  1  0
  4  5  1  0
  5  6  2  0
  6  7  1  0
  7  8  2  0
  8  9  1  0
  9 10  2  0
 10 11  1  0
 12 11  1  6
 12 13  1  0
 12 16  1  0
 13 15  2  0
 13 14  1  0
 16 17  1  0
 17 18  1  1
 17 19  1  0
 19 21  2  0
 19 20  1  0
M  END
>  <DRUGBANK_ID>  (1) 
DB08272

>  <COMMON_NAME>  (1) 
(4S)-4-(2-NAPHTHYLMETHYL)-D-GLUTAMIC ACID

$$$$
