
     RDKit          2D

 10  9  0  0  0  0  0  0  0  0999 V2000
    1.0165   -0.6741    0.0000 O   0  0  0  0  0  0  0  0  0  0  0  0
    0.3019   -0.2615    0.0000 C   0  0  0  0  0  0  0  0  0  0  0  0
   -0.4125   -0.6741    0.0000 P   0  0  0  0  0  0  0  0  0  0  0  0
   -1.1270   -1.0866    0.0000 O   0  0  0  0  0  0  0  0  0  0  0  0
    0.0000   -1.3886    0.0000 O   0  0  0  0  0  0  0  0  0  0  0  0
   -0.8251    0.0404    0.0000 O   0  0  0  0  0  0  0  0  0  0  0  0
    0.3019    0.5634    0.0000 P   0  0  0  0  0  0  0  0  0  0  0  0
    0.3019    1.3885    0.0000 O   0  0  0  0  0  0  0  0  0  0  0  0
    1.1270    0.5634    0.0000 O   0  0  0  0  0  0  0  0  0  0  0  0
   -0.5230    0.5634    0.0000 O   0  0  0  0  0  0  0  0  0  0  0  0
  1  2  1  0
  2  3  1  0
  2  7  1  0
  3  4  1  0
  3  5  1  0
  3  6  2  0
  7  8  1  0
  7  9  1  0
  7 10  2  0
M  END
>  <DRUGBANK_ID>  (1) 
DB14159

>  <COMMON_NAME>  (1) 
Oxidronic acid

>  <CAS_NUMBER>  (1) 
15468-10-7

>  <UNII>  (1) 
71MR4V32TI

>  <SYNONYMS>  (1) 
(Hydroxymethylene)diphosphonic acid; Acido oxidronico; Acidum oxidronicum; HMD-P; HMDP; Hydroxymethanediphosphonic acid; Oxidronate; Oxidronic acid

$$$$
