XND
     RDKit          2D

 30 33  0  0  0  0  0  0  0  0999 V2000
   -0.8341   -3.5622    0.0000 Cl  0  0  0  0  0  0  0  0  0  0  0  0
   -0.4761   -2.8189    0.0000 C   0  0  0  0  0  0  0  0  0  0  0  0
    0.3466   -2.7573    0.0000 C   0  0  0  0  0  0  0  0  0  0  0  0
    0.7045   -2.0140    0.0000 C   0  0  0  0  0  0  0  0  0  0  0  0
    1.5272   -1.9523    0.0000 Cl  0  0  0  0  0  0  0  0  0  0  0  0
   -0.9409   -2.1373    0.0000 C   0  0  0  0  0  0  0  0  0  0  0  0
   -0.5829   -1.3940    0.0000 C   0  0  0  0  0  0  0  0  0  0  0  0
    0.2398   -1.3323    0.0000 C   0  0  0  0  0  0  0  0  0  0  0  0
    0.5977   -0.5890    0.0000 C   0  0  0  0  0  0  0  0  0  0  0  0
    0.0833    0.0560    0.0000 C   0  0  0  0  0  0  0  0  0  0  0  0
   -0.7050   -0.1872    0.0000 C   0  0  0  0  0  0  0  0  0  0  0  0
   -0.8886   -0.9915    0.0000 O   0  0  0  0  0  0  0  0  0  0  0  0
   -1.3098    0.3740    0.0000 C   0  0  0  0  0  0  0  0  0  0  0  0
    1.4227   -0.5890    0.0000 N   0  0  0  0  0  0  0  0  0  0  0  0
    1.7807   -1.3323    0.0000 C   0  0  0  0  0  0  0  0  0  0  0  0
    2.6034   -1.3940    0.0000 C   0  0  0  0  0  0  0  0  0  0  0  0
    1.8054   -2.1569    0.0000 O   0  0  0  0  0  0  0  0  0  0  0  0
    1.9371    0.0560    0.0000 C   0  0  0  0  0  0  0  0  0  0  0  0
    2.7255   -0.1872    0.0000 C   0  0  0  0  0  0  0  0  0  0  0  0
    3.3302    0.3740    0.0000 C   0  0  0  0  0  0  0  0  0  0  0  0
    3.1466    1.1783    0.0000 C   0  0  0  0  0  0  0  0  0  0  0  0
    2.3583    1.4214    0.0000 C   0  0  0  0  0  0  0  0  0  0  0  0
    2.1747    2.2258    0.0000 O   0  0  0  0  0  0  0  0  0  0  0  0
    1.7535    0.8603    0.0000 C   0  0  0  0  0  0  0  0  0  0  0  0
    1.0102    1.2183    0.0000 N   0  0  0  0  0  0  0  0  0  0  0  0
    0.2669    0.8603    0.0000 C   0  0  0  0  0  0  0  0  0  0  0  0
   -0.3378    1.4214    0.0000 C   0  0  0  0  0  0  0  0  0  0  0  0
   -1.1262    1.1783    0.0000 C   0  0  0  0  0  0  0  0  0  0  0  0
   -1.9236    1.3898    0.0000 C   0  0  0  0  0  0  0  0  0  0  0  0
   -1.3967    1.9577    0.0000 C   0  0  0  0  0  0  0  0  0  0  0  0
  1  2  1  0
  2  3  2  0
  2  6  1  0
  3  4  1  0
  4  5  1  0
  4  8  2  0
  6  7  2  0
  7  8  1  0
  9  8  1  1
  9 10  1  0
  9 14  1  0
 10 11  1  0
 10 26  2  0
 11 12  2  0
 11 13  1  0
 13 28  1  0
 14 15  1  0
 14 18  1  0
 15 16  1  0
 15 17  2  0
 18 19  1  0
 18 24  2  0
 19 20  2  0
 20 21  1  0
 21 22  2  0
 22 23  1  0
 22 24  1  0
 24 25  1  0
 25 26  1  0
 26 27  1  0
 27 28  1  0
 28 29  1  0
 28 30  1  0
M  END
>  <DRUGBANK_ID>  (1) 
DB08747

>  <COMMON_NAME>  (1) 
(11R)-10-acetyl-11-(2,4-dichlorophenyl)-6-hydroxy-3,3-dimethyl-2,3,4,5,10,11-hexahydro-1H-dibenzo[b,e][1,4]diazepin-1-one

$$$$
