1468
     RDKit          2D

 18 19  0  0  1  0  0  0  0  0999 V2000
    5.2616   -0.3195    0.0000 S   0  0  0  0  0  0  0  0  0  0  0  0
    3.1261   -1.7065    0.0000 S   0  0  0  0  0  0  0  0  0  0  0  0
    2.3645    1.2535    0.0000 N   0  0  0  0  0  0  0  0  0  0  0  0
    3.0791    0.8410    0.0000 C   0  0  0  0  0  0  0  0  0  0  0  0
    3.0791    0.0160    0.0000 C   0  0  0  0  0  0  0  0  0  0  0  0
    2.3645    2.0786    0.0000 C   0  0  0  0  0  0  0  0  0  0  0  0
    3.7935    1.2535    0.0000 C   0  0  0  0  0  0  0  0  0  0  0  0
    3.7935   -0.3965    0.0000 C   0  0  0  0  0  0  0  0  0  0  0  0
    1.6500    0.8410    0.0000 C   0  0  0  0  0  0  0  0  0  0  0  0
    1.6500    2.4911    0.0000 C   0  0  0  0  0  0  0  0  0  0  0  0
    4.5080    0.0160    0.0000 C   0  0  0  0  0  0  0  0  0  0  0  0
    3.7935   -1.2215    0.0000 C   0  0  0  0  0  0  0  0  0  0  0  0
    4.5942    0.8365    0.0000 C   0  0  0  0  0  0  0  0  0  0  0  0
    4.4610   -1.7065    0.0000 C   0  0  0  0  0  0  0  0  0  0  0  0
    5.4012    1.0081    0.0000 C   0  0  0  0  0  0  0  0  0  0  0  0
    4.2060   -2.4911    0.0000 C   0  0  0  0  0  0  0  0  0  0  0  0
    5.8137    0.2935    0.0000 C   0  0  0  0  0  0  0  0  0  0  0  0
    3.3810   -2.4911    0.0000 C   0  0  0  0  0  0  0  0  0  0  0  0
  1 11  1  0
  1 17  1  0
  2 12  1  0
  2 18  1  0
  3  4  1  0
  3  6  1  0
  3  9  1  0
  4  5  1  0
  4  7  1  0
  5  8  2  3
  6 10  1  0
  8 11  1  0
  8 12  1  0
 11 13  2  0
 12 14  2  0
 13 15  1  0
 14 16  1  0
 15 17  2  0
 16 18  2  0
M  END
>  <DRUGBANK_ID>  (1) 
DB01468

>  <COMMON_NAME>  (1) 
Ethylmethylthiambutene

>  <CAS_NUMBER>  (1) 
441-61-2

>  <UNII>  (1) 
722BFZ899Q

>  <SYNONYMS>  (1) 
Ethylmethylthiambutene

$$$$
