
     RDKit          2D

 15 15  0  0  1  0  0  0  0  0999 V2000
    0.5678    1.9393    0.0000 B   0  0  0  0  0  0  0  0  0  0  0  0
    0.5678    1.1143    0.0000 C   0  0  0  0  0  0  0  0  0  0  0  0
    1.2352    0.6294    0.0000 C   0  0  0  0  0  0  0  0  0  0  0  0
    0.9803   -0.1553    0.0000 C   0  0  0  0  0  0  0  0  0  0  0  0
    0.1553   -0.1553    0.0000 C   0  0  0  0  0  0  0  0  0  0  0  0
   -0.0997    0.6294    0.0000 N   0  0  0  0  0  0  0  0  0  0  0  0
   -0.8843    0.8843    0.0000 C   0  0  0  0  0  0  0  0  0  0  0  0
   -1.0558    1.6913    0.0000 O   0  0  0  0  0  0  0  0  0  0  0  0
   -1.4974    0.3323    0.0000 C   0  0  0  0  0  0  0  0  0  0  0  0
   -2.2820    0.5872    0.0000 C   0  0  0  0  0  0  0  0  0  0  0  0
   -2.8951    0.0352    0.0000 C   0  0  0  0  0  0  0  0  0  0  0  0
   -2.4535    1.3942    0.0000 C   0  0  0  0  0  0  0  0  0  0  0  0
   -1.3259   -0.4747    0.0000 N   0  0  0  0  0  0  0  0  0  0  0  0
   -0.1467    2.3518    0.0000 O   0  0  0  0  0  0  0  0  0  0  0  0
    1.2822    2.3518    0.0000 O   0  0  0  0  0  0  0  0  0  0  0  0
  1 14  1  0
  1 15  1  0
  2  1  1  6
  2  3  1  0
  2  6  1  0
  3  4  1  0
  4  5  1  0
  5  6  1  0
  6  7  1  0
  7  8  2  0
  7  9  1  0
  9 10  1  0
  9 13  1  1
 10 11  1  0
 10 12  1  0
M  END
>  <DRUGBANK_ID>  (1) 
DB06182

>  <COMMON_NAME>  (1) 
Talabostat

>  <CAS_NUMBER>  (1) 
149682-77-9

>  <UNII>  (1) 
KZ1O2SH88Z

>  <SYNONYMS>  (1) 
Talabostat

$$$$
