
     RDKit          2D

 30 32  0  0  0  0  0  0  0  0999 V2000
    2.8579   -0.0000    0.0000 C   0  0  0  0  0  0  0  0  0  0  0  0
    2.1434   -0.4125    0.0000 C   0  0  0  0  0  0  0  0  0  0  0  0
    2.1434   -1.2375    0.0000 C   0  0  0  0  0  0  0  0  0  0  0  0
    2.8579   -1.6500    0.0000 C   0  0  0  0  0  0  0  0  0  0  0  0
    3.5724   -1.2375    0.0000 C   0  0  0  0  0  0  0  0  0  0  0  0
    2.8579   -2.4750    0.0000 C   0  0  0  0  0  0  0  0  0  0  0  0
    2.1434   -2.8875    0.0000 C   0  0  0  0  0  0  0  0  0  0  0  0
    2.1434   -3.7125    0.0000 C   0  0  0  0  0  0  0  0  0  0  0  0
    1.4289   -4.1250    0.0000 O   0  0  0  0  0  0  0  0  0  0  0  0
    2.8579   -4.1250    0.0000 N   0  0  0  0  0  0  0  0  0  0  0  0
    2.8579   -4.9500    0.0000 C   0  0  0  0  0  0  0  0  0  0  0  0
    3.1401   -5.7252    0.0000 C   0  0  0  0  0  0  0  0  0  0  0  0
    2.6098   -6.3572    0.0000 C   0  0  0  0  0  0  0  0  0  0  0  0
    1.7973   -6.2140    0.0000 C   0  0  0  0  0  0  0  0  0  0  0  0
    1.5151   -5.4387    0.0000 C   0  0  0  0  0  0  0  0  0  0  0  0
    2.0454   -4.8067    0.0000 C   0  0  0  0  0  0  0  0  0  0  0  0
    3.6704   -4.8067    0.0000 C   0  0  0  0  0  0  0  0  0  0  0  0
    4.2007   -5.4387    0.0000 O   0  0  0  0  0  0  0  0  0  0  0  0
    3.9525   -4.0315    0.0000 O   0  0  0  0  0  0  0  0  0  0  0  0
    1.4289   -2.4750    0.0000 C   0  0  0  0  0  0  0  0  0  0  0  0
    0.7145   -2.8875    0.0000 O   0  0  0  0  0  0  0  0  0  0  0  0
    1.4289   -1.6500    0.0000 N   0  0  0  0  0  0  0  0  0  0  0  0
    0.7145   -1.2375    0.0000 C   0  0  0  0  0  0  0  0  0  0  0  0
    0.7145   -0.4125    0.0000 C   0  0  0  0  0  0  0  0  0  0  0  0
    0.0000    0.0000    0.0000 C   0  0  0  0  0  0  0  0  0  0  0  0
    0.0000    0.8250    0.0000 C   0  0  0  0  0  0  0  0  0  0  0  0
    0.7145    1.2375    0.0000 C   0  0  0  0  0  0  0  0  0  0  0  0
    0.7145    2.0625    0.0000 F   0  0  0  0  0  0  0  0  0  0  0  0
    1.4289    0.8250    0.0000 C   0  0  0  0  0  0  0  0  0  0  0  0
    1.4289    0.0000    0.0000 C   0  0  0  0  0  0  0  0  0  0  0  0
  1  2  1  0
  2  3  1  0
  3  4  2  0
  3 22  1  0
  4  5  1  0
  4  6  1  0
  6  7  2  0
  7  8  1  0
  7 20  1  0
  8  9  2  0
  8 10  1  0
 10 11  1  0
 11 12  1  0
 11 16  1  0
 11 17  1  0
 12 13  1  0
 13 14  1  0
 14 15  1  0
 15 16  1  0
 17 18  1  0
 17 19  2  0
 20 21  2  0
 20 22  1  0
 22 23  1  0
 23 24  1  0
 24 25  2  0
 24 30  1  0
 25 26  1  0
 26 27  2  0
 27 28  1  0
 27 29  1  0
 29 30  2  0
M  END
>  <DRUGBANK_ID>  (1) 
DB16321

>  <COMMON_NAME>  (1) 
S-777469

>  <CAS_NUMBER>  (1) 
885496-53-7

>  <UNII>  (1) 
88NI79737I

$$$$
