756
     RDKit          2D

 21 22  0  0  0  0  0  0  0  0999 V2000
    5.1469    0.1168    0.0000 Cl  0  0  0  0  0  0  0  0  0  0  0  0
    4.9509   -0.9947    0.0000 Cl  0  0  0  0  0  0  0  0  0  0  0  0
    3.0257    2.6447    0.0000 Cl  0  0  0  0  0  0  0  0  0  0  0  0
    2.0930   -2.6447    0.0000 Cl  0  0  0  0  0  0  0  0  0  0  0  0
    5.7112    1.6673    0.0000 Cl  0  0  0  0  0  0  0  0  0  0  0  0
    4.9509   -2.6447    0.0000 Cl  0  0  0  0  0  0  0  0  0  0  0  0
    2.4613    1.0943    0.0000 O   0  0  0  0  0  0  0  0  0  0  0  0
    2.0930   -0.9947    0.0000 O   0  0  0  0  0  0  0  0  0  0  0  0
    3.5220   -0.1697    0.0000 C   0  0  0  0  0  0  0  0  0  0  0  0
    3.8041    0.6056    0.0000 C   0  0  0  0  0  0  0  0  0  0  0  0
    3.5220   -0.9947    0.0000 C   0  0  0  0  0  0  0  0  0  0  0  0
    3.2738    1.2375    0.0000 C   0  0  0  0  0  0  0  0  0  0  0  0
    2.8075   -1.4072    0.0000 C   0  0  0  0  0  0  0  0  0  0  0  0
    4.6166    0.7488    0.0000 C   0  0  0  0  0  0  0  0  0  0  0  0
    4.2364   -1.4072    0.0000 C   0  0  0  0  0  0  0  0  0  0  0  0
    3.5560    2.0128    0.0000 C   0  0  0  0  0  0  0  0  0  0  0  0
    2.8075   -2.2322    0.0000 C   0  0  0  0  0  0  0  0  0  0  0  0
    4.8988    1.5240    0.0000 C   0  0  0  0  0  0  0  0  0  0  0  0
    4.2364   -2.2322    0.0000 C   0  0  0  0  0  0  0  0  0  0  0  0
    4.3684    2.1560    0.0000 C   0  0  0  0  0  0  0  0  0  0  0  0
    3.5220   -2.6447    0.0000 C   0  0  0  0  0  0  0  0  0  0  0  0
  1 14  1  0
  2 15  1  0
  3 16  1  0
  4 17  1  0
  5 18  1  0
  6 19  1  0
  7 12  1  0
  8 13  1  0
  9 10  1  0
  9 11  1  0
 10 12  2  0
 10 14  1  0
 11 13  2  0
 11 15  1  0
 12 16  1  0
 13 17  1  0
 14 18  2  0
 15 19  2  0
 16 20  2  0
 17 21  2  0
 18 20  1  0
 19 21  1  0
M  END
>  <DRUGBANK_ID>  (1) 
DB00756

>  <SECONDARY_ACCESSION_NUMBERS>  (1) 
APRD00722

>  <COMMON_NAME>  (1) 
Hexachlorophene

>  <CAS_NUMBER>  (1) 
70-30-4

>  <UNII>  (1) 
IWW5FV6NK2

>  <SYNONYMS>  (1) 
2,2'-dihydroxy-3,3',5,5',6,6'-hexachlorodiphenylmethane; 2,2'-dihydroxy-3,5,6,3',5',6'-hexachlorodiphenylmethane; 2,2'-methanediylbis(3,4,6-trichlorophenol); 2,2'-methylenebis(3,4,6-trichlorophenol); 2,2',3,3',5,5'-hexachloro-6,6'-dihydroxydiphenylmethane; bis(2-hydroxy-3,5,6-trichlorophenyl)methane; bis(3,5,6-trichloro-2-hydroxyphenyl)methane; hexachloroph√®ne; Hexachlorophene; Hexachlorophenum; Hexaclorofeno

$$$$
