
     RDKit          2D

 23 24  0  0  0  0  0  0  0  0999 V2000
    0.6159   -0.4733    0.0000 C   0  0  0  0  0  0  0  0  0  0  0  0
    0.8268   -1.2654    0.0000 C   0  0  0  0  0  0  0  0  0  0  0  0
    1.6456   -1.3126    0.0000 C   0  0  0  0  0  0  0  0  0  0  0  0
    1.9381   -0.5470    0.0000 C   0  0  0  0  0  0  0  0  0  0  0  0
    1.3044   -0.0293    0.0000 O   0  0  0  0  0  0  0  0  0  0  0  0
   -2.2287    0.3583    0.0000 C   0  0  0  0  0  0  0  0  0  0  0  0
   -2.2328   -0.4668    0.0000 C   0  0  0  0  0  0  0  0  0  0  0  0
   -1.5198   -0.8850    0.0000 C   0  0  0  0  0  0  0  0  0  0  0  0
   -0.8026   -0.4739    0.0000 C   0  0  0  0  0  0  0  0  0  0  0  0
   -0.7984    0.3510    0.0000 O   0  0  0  0  0  0  0  0  0  0  0  0
   -1.5115    0.7651    0.0000 C   0  0  0  0  0  0  0  0  0  0  0  0
   -0.0895   -0.8922    0.0000 O   0  0  0  0  0  0  0  0  0  0  0  0
   -1.5238   -1.7101    0.0000 O   0  0  0  0  0  0  0  0  0  0  0  0
   -2.9499   -0.8778    0.0000 O   0  0  0  0  0  0  0  0  0  0  0  0
   -2.9417    0.7722    0.0000 Cl  0  0  0  0  0  0  0  0  0  0  0  0
   -1.5074    1.5904    0.0000 C   0  0  0  0  0  0  0  0  0  0  0  0
    0.4130    0.3220    0.0000 C   0  0  0  0  0  0  0  0  0  0  0  0
    2.0967   -2.0012    0.0000 O   0  0  0  0  0  0  0  0  0  0  0  0
    2.7353   -0.3305    0.0000 C   0  0  0  0  0  0  0  0  0  0  0  0
    0.3058   -1.9074    0.0000 O   0  0  0  0  0  0  0  0  0  0  0  0
    2.9499    0.4701    0.0000 Cl  0  0  0  0  0  0  0  0  0  0  0  0
    0.8187    1.0424    0.0000 Cl  0  0  0  0  0  0  0  0  0  0  0  0
   -0.7901    2.0012    0.0000 O   0  0  0  0  0  0  0  0  0  0  0  0
  1 12  1  0
  1  2  1  0
  1 17  1  1
  2  3  1  0
  2 20  1  6
  3  4  1  0
  3 18  1  1
  4  5  1  0
  4 19  1  6
  5  1  1  0
  6 15  1  1
  6  7  1  0
  7 14  1  1
  7  8  1  0
  8 13  1  6
  8  9  1  0
  9 12  1  6
  9 10  1  0
 10 11  1  0
 11 16  1  1
 11  6  1  0
 16 23  1  0
 17 22  1  0
 19 21  1  0
M  END
>  <DRUGBANK_ID>  (1) 
DB15049

>  <COMMON_NAME>  (1) 
Sucralose

>  <CAS_NUMBER>  (1) 
56038-13-2

>  <UNII>  (1) 
96K6UQ3ZD4

>  <SYNONYMS>  (1) 
Sucralose; Trichlorosucrose

$$$$
