1505
     RDKit          2D

 23 24  0  0  0  0  0  0  0  0999 V2000
    2.8876    2.7150    0.0000 O   0  0  0  0  0  0  0  0  0  0  0  0
    3.8558    3.5274    0.0000 O   0  0  0  0  0  0  0  0  0  0  0  0
    3.4106   -1.7121    0.0000 O   0  0  0  0  0  0  0  0  0  0  0  0
    1.9816   -3.3621    0.0000 O   0  0  0  0  0  0  0  0  0  0  0  0
    4.1251    0.3505    0.0000 N   0  0  0  0  0  0  0  0  0  0  0  0
    4.1251    2.0005    0.0000 C   0  0  0  0  0  0  0  0  0  0  0  0
    4.8396    1.5880    0.0000 C   0  0  0  0  0  0  0  0  0  0  0  0
    3.4106    1.5880    0.0000 C   0  0  0  0  0  0  0  0  0  0  0  0
    4.8396    0.7630    0.0000 C   0  0  0  0  0  0  0  0  0  0  0  0
    3.4106    0.7630    0.0000 C   0  0  0  0  0  0  0  0  0  0  0  0
    4.7571    2.5308    0.0000 C   0  0  0  0  0  0  0  0  0  0  0  0
    3.7126    2.7150    0.0000 C   0  0  0  0  0  0  0  0  0  0  0  0
    4.1251   -0.4746    0.0000 C   0  0  0  0  0  0  0  0  0  0  0  0
    4.6138    3.3433    0.0000 C   0  0  0  0  0  0  0  0  0  0  0  0
    5.5323    2.2487    0.0000 C   0  0  0  0  0  0  0  0  0  0  0  0
    3.4106   -0.8871    0.0000 C   0  0  0  0  0  0  0  0  0  0  0  0
    5.2458    3.8736    0.0000 C   0  0  0  0  0  0  0  0  0  0  0  0
    6.1644    2.7790    0.0000 C   0  0  0  0  0  0  0  0  0  0  0  0
    6.0211    3.5915    0.0000 C   0  0  0  0  0  0  0  0  0  0  0  0
    2.4751    3.4295    0.0000 C   0  0  0  0  0  0  0  0  0  0  0  0
    2.6961   -2.1246    0.0000 C   0  0  0  0  0  0  0  0  0  0  0  0
    1.6500    3.4295    0.0000 C   0  0  0  0  0  0  0  0  0  0  0  0
    2.6961   -2.9496    0.0000 C   0  0  0  0  0  0  0  0  0  0  0  0
  1 12  1  0
  1 20  1  0
  2 12  2  0
  3 16  1  0
  3 21  1  0
  4 23  1  0
  5  9  1  0
  5 10  1  0
  5 13  1  0
  6  7  1  0
  6  8  1  0
  6 11  1  0
  6 12  1  0
  7  9  1  0
  8 10  1  0
 11 14  2  0
 11 15  1  0
 13 16  1  0
 14 17  1  0
 15 18  2  0
 17 19  2  0
 18 19  1  0
 20 22  1  0
 21 23  1  0
M  END
>  <DRUGBANK_ID>  (1) 
DB01505

>  <COMMON_NAME>  (1) 
Etoxeridine

>  <CAS_NUMBER>  (1) 
469-82-9

>  <UNII>  (1) 
RHW35E1G7E

>  <SYNONYMS>  (1) 
Etoxeridine

$$$$
