654
     RDKit          2D

 18 20  0  0  0  0  0  0  0  0999 V2000
    0.5514    2.8142    0.0000 S   0  0  0  0  0  0  0  0  0  0  0  0
    0.2964    2.0295    0.0000 C   0  0  0  0  0  0  0  0  0  0  0  0
   -0.5286    2.0295    0.0000 C   0  0  0  0  0  0  0  0  0  0  0  0
   -0.7835    2.8142    0.0000 C   0  0  0  0  0  0  0  0  0  0  0  0
   -0.1161    3.2991    0.0000 C   0  0  0  0  0  0  0  0  0  0  0  0
    0.7813    1.3621    0.0000 C   0  0  0  0  0  0  0  0  0  0  0  0
    1.6063    1.3621    0.0000 N   0  0  0  0  0  0  0  0  0  0  0  0
    0.5264    0.5775    0.0000 C   0  0  0  0  0  0  0  0  0  0  0  0
    1.1938    0.0926    0.0000 N   0  0  0  0  0  0  0  0  0  0  0  0
    1.8613    0.5775    0.0000 C   0  0  0  0  0  0  0  0  0  0  0  0
    1.1938   -0.7324    0.0000 C   0  0  0  0  0  0  0  0  0  0  0  0
    0.4794   -1.1449    0.0000 C   0  0  0  0  0  0  0  0  0  0  0  0
    0.4794   -1.9699    0.0000 C   0  0  0  0  0  0  0  0  0  0  0  0
   -0.2351   -2.3824    0.0000 C   0  0  0  0  0  0  0  0  0  0  0  0
   -0.2351   -0.7324    0.0000 C   0  0  0  0  0  0  0  0  0  0  0  0
   -0.9496   -1.1449    0.0000 C   0  0  0  0  0  0  0  0  0  0  0  0
   -0.9496   -1.9699    0.0000 C   0  0  0  0  0  0  0  0  0  0  0  0
   -1.6640   -2.3824    0.0000 C   0  0  0  0  0  0  0  0  0  0  0  0
  1  2  1  0
  1  5  1  0
  2  3  2  0
  2  6  1  0
  3  4  1  0
  4  5  2  0
  6  7  1  0
  6  8  2  0
  7 10  2  0
  8  9  1  0
  9 10  1  0
  9 11  1  0
 11 12  1  0
 12 13  2  0
 12 15  1  0
 13 14  1  0
 14 17  2  0
 15 16  2  0
 16 17  1  0
 17 18  1  0
M  END
>  <DRUGBANK_ID>  (1) 
DB03030

>  <SECONDARY_ACCESSION_NUMBERS>  (1) 
EXPT00269

>  <COMMON_NAME>  (1) 
4-(2-Thienyl)-1-(4-Methylbenzyl)-1h-Imidazole

$$$$
