LDM
     RDKit          2D

 21 20  0  0  0  0  0  0  0  0999 V2000
   -4.7974    0.1525    0.0000 N   0  0  0  0  0  0  0  0  0  0  0  0
   -5.5118    0.5650    0.0000 O   0  0  0  0  0  0  0  0  0  0  0  0
   -4.0828   -0.2600    0.0000 C   0  0  0  0  0  0  0  0  0  0  0  0
   -2.6537   -0.2600    0.0000 C   0  0  0  0  0  0  0  0  0  0  0  0
   -1.2247   -0.2600    0.0000 C   0  0  0  0  0  0  0  0  0  0  0  0
   -0.5101    0.1525    0.0000 C   0  0  0  0  0  0  0  0  0  0  0  0
    0.9189    0.1525    0.0000 C   0  0  0  0  0  0  0  0  0  0  0  0
    1.6334   -0.2600    0.0000 C   0  0  0  0  0  0  0  0  0  0  0  0
    3.0624   -0.2600    0.0000 C   0  0  0  0  0  0  0  0  0  0  0  0
    3.7770    0.1525    0.0000 C   0  0  0  0  0  0  0  0  0  0  0  0
    4.4915   -0.2600    0.0000 C   0  0  0  0  0  0  0  0  0  0  0  0
   -5.2099   -0.5620    0.0000 C   0  0  0  0  0  0  0  0  0  0  0  0
   -4.3848    0.8671    0.0000 C   0  0  0  0  0  0  0  0  0  0  0  0
   -3.3683    0.1525    0.0000 C   0  0  0  0  0  0  0  0  0  0  0  0
    2.3480    0.1525    0.0000 C   0  0  0  0  0  0  0  0  0  0  0  0
   -1.9392    0.1525    0.0000 N   0  0  0  0  0  0  0  0  0  0  0  0
    5.9205   -0.2600    0.0000 C   0  0  0  0  0  0  0  0  0  0  0  0
    6.6351    0.1525    0.0000 C   0  0  0  0  0  0  0  0  0  0  0  0
   -1.2247   -1.0851    0.0000 O   0  0  0  0  0  0  0  0  0  0  0  0
    0.2043   -0.2600    0.0000 C   0  0  0  0  0  0  0  0  0  0  0  0
    5.2060    0.1525    0.0000 C   0  0  0  0  0  0  0  0  0  0  0  0
  1  2  1  0
  1  3  1  0
  1 12  1  0
  1 13  1  0
  3 14  1  0
  4 14  1  0
  4 16  1  0
  5  6  1  0
  5 16  1  0
  5 19  2  0
  6 20  1  0
  7  8  1  0
  7 20  1  0
  8 15  1  0
  9 10  1  0
  9 15  1  0
 10 11  1  0
 11 21  1  0
 17 18  1  0
 17 21  1  0
M  CHG  2   1   1   2  -1
M  END
>  <DRUGBANK_ID>  (1) 
DB01736

>  <SECONDARY_ACCESSION_NUMBERS>  (1) 
EXPT02014

>  <COMMON_NAME>  (1) 
[3-(Dodecanoylamino)Propyl](Hydroxy)Dimethylammonium

>  <UNII>  (1) 
I6KX160QTV

$$$$
