HM5
     RDKit          2D

 21 22  0  0  0  0  0  0  0  0999 V2000
    2.9845    3.2622    0.0000 S   0  0  0  0  0  0  0  0  0  0  0  0
    4.0644    2.4775    0.0000 N   0  0  0  0  0  0  0  0  0  0  0  0
    2.7545    1.8101    0.0000 N   0  0  0  0  0  0  0  0  0  0  0  0
    2.9407   -0.3647    0.0000 N   0  0  0  0  0  0  0  0  0  0  0  0
    1.4491    1.2289    0.0000 N   0  0  0  0  0  0  0  0  0  0  0  0
    3.6519    3.7471    0.0000 C   0  0  0  0  0  0  0  0  0  0  0  0
    4.3194    3.2622    0.0000 C   0  0  0  0  0  0  0  0  0  0  0  0
    3.2394    2.4775    0.0000 C   0  0  0  0  0  0  0  0  0  0  0  0
    3.0900    1.0564    0.0000 C   0  0  0  0  0  0  0  0  0  0  0  0
    2.6051    0.3890    0.0000 C   0  0  0  0  0  0  0  0  0  0  0  0
    2.4558   -1.0321    0.0000 C   0  0  0  0  0  0  0  0  0  0  0  0
    1.6353   -0.9459    0.0000 C   0  0  0  0  0  0  0  0  0  0  0  0
    1.2997   -0.1922    0.0000 C   0  0  0  0  0  0  0  0  0  0  0  0
    1.7846    0.4752    0.0000 C   0  0  0  0  0  0  0  0  0  0  0  0
    0.6286    1.3151    0.0000 C   0  0  0  0  0  0  0  0  0  0  0  0
    0.1437    0.6477    0.0000 C   0  0  0  0  0  0  0  0  0  0  0  0
   -0.3412   -0.0197    0.0000 C   0  0  0  0  0  0  0  0  0  0  0  0
   -0.5238    1.1326    0.0000 C   0  0  0  0  0  0  0  0  0  0  0  0
    0.8111    0.1628    0.0000 C   0  0  0  0  0  0  0  0  0  0  0  0
    3.9105    0.9702    0.0000 O   0  0  0  0  0  0  0  0  0  0  0  0
    0.2930    2.0688    0.0000 O   0  0  0  0  0  0  0  0  0  0  0  0
  1  8  1  0
  1  6  1  0
  2  8  2  0
  2  7  1  0
  3  9  1  0
  3  8  1  0
  4 11  2  0
  4 10  1  0
  5 14  1  0
  5 15  1  0
  6  7  2  0
  9 10  1  0
  9 20  2  0
 10 14  2  0
 11 12  1  0
 12 13  2  0
 13 14  1  0
 15 21  2  0
 15 16  1  0
 16 18  1  0
 16 17  1  0
 16 19  1  0
M  END
>  <DRUGBANK_ID>  (1) 
DB07903

>  <COMMON_NAME>  (1) 
3-[(2,2-DIMETHYLPROPANOYL)AMINO]-N-1,3-THIAZOL-2-YLPYRIDINE-2-CARBOXAMIDE

$$$$
