
     RDKit          2D

 33 36  0  0  0  0  0  0  0  0999 V2000
   -1.7663    1.0763    0.0000 F   0  0  0  0  0  0  0  0  0  0  0  0
    1.0916    1.0763    0.0000 F   0  0  0  0  0  0  0  0  0  0  0  0
   -0.7498   -2.6682    0.0000 O   0  0  0  0  0  0  0  0  0  0  0  0
    0.2245   -4.0894    0.0000 O   0  0  0  0  0  0  0  0  0  0  0  0
   -1.7894   -1.6286    0.0000 O   0  0  0  0  0  0  0  0  0  0  0  0
   -1.0518    4.7889    0.0000 O   0  0  0  0  0  0  0  0  0  0  0  0
    1.0916    4.3763    0.0000 O   0  0  0  0  0  0  0  0  0  0  0  0
    1.0916    6.0264    0.0000 O   0  0  0  0  0  0  0  0  0  0  0  0
    1.7894   -5.5414    0.0000 O   0  0  0  0  0  0  0  0  0  0  0  0
   -0.3373    3.5513    0.0000 N   0  0  0  0  0  0  0  0  0  0  0  0
   -0.3373   -1.3987    0.0000 N   0  0  0  0  0  0  0  0  0  0  0  0
    1.5344   -4.7568    0.0000 N   0  0  0  0  0  0  0  0  0  0  0  0
    0.3771    2.3138    0.0000 C   0  0  0  0  0  0  0  0  0  0  0  0
    0.3771    3.1388    0.0000 C   0  0  0  0  0  0  0  0  0  0  0  0
   -0.3373    1.9013    0.0000 C   0  0  0  0  0  0  0  0  0  0  0  0
    0.0752   -2.6682    0.0000 C   0  0  0  0  0  0  0  0  0  0  0  0
    0.3301   -1.8836    0.0000 C   0  0  0  0  0  0  0  0  0  0  0  0
   -1.0518    3.1388    0.0000 C   0  0  0  0  0  0  0  0  0  0  0  0
   -0.3373    1.0763    0.0000 C   0  0  0  0  0  0  0  0  0  0  0  0
   -1.0518    2.3138    0.0000 C   0  0  0  0  0  0  0  0  0  0  0  0
   -0.3373   -0.5737    0.0000 C   0  0  0  0  0  0  0  0  0  0  0  0
    0.5601   -3.3357    0.0000 C   0  0  0  0  0  0  0  0  0  0  0  0
   -1.0047   -1.8836    0.0000 C   0  0  0  0  0  0  0  0  0  0  0  0
   -0.3373    4.3763    0.0000 C   0  0  0  0  0  0  0  0  0  0  0  0
   -1.0518    0.6638    0.0000 C   0  0  0  0  0  0  0  0  0  0  0  0
    0.3771    0.6638    0.0000 C   0  0  0  0  0  0  0  0  0  0  0  0
   -1.0518   -0.1612    0.0000 C   0  0  0  0  0  0  0  0  0  0  0  0
    0.3771   -0.1612    0.0000 C   0  0  0  0  0  0  0  0  0  0  0  0
    0.3771    4.7889    0.0000 C   0  0  0  0  0  0  0  0  0  0  0  0
    0.3771    5.6139    0.0000 C   0  0  0  0  0  0  0  0  0  0  0  0
    0.7094   -4.7568    0.0000 C   0  0  0  0  0  0  0  0  0  0  0  0
    0.4545   -5.5414    0.0000 C   0  0  0  0  0  0  0  0  0  0  0  0
    1.1219   -6.0264    0.0000 C   0  0  0  0  0  0  0  0  0  0  0  0
  1 25  1  0
  2 26  1  0
  3 16  1  0
  3 23  1  0
  4 22  1  0
  4 31  1  0
  5 23  2  0
  6 24  2  0
  8 30  1  0
  9 12  1  0
  9 33  1  0
 10 14  1  0
 10 18  1  0
 10 24  1  0
 11 17  1  0
 11 21  1  0
 11 23  1  0
 12 31  2  0
 13 14  1  0
 13 15  1  0
 15 19  1  0
 15 20  2  0
 16 17  1  0
 16 22  1  6
 18 20  1  0
 19 25  2  0
 19 26  1  0
 21 27  2  0
 21 28  1  0
 24 29  1  0
 25 27  1  0
 26 28  2  0
 29  7  1  6
 29 30  1  0
 31 32  1  0
 32 33  2  0
M  END
>  <DRUGBANK_ID>  (1) 
DB04850

>  <SECONDARY_ACCESSION_NUMBERS>  (1) 
DB09032

>  <COMMON_NAME>  (1) 
Posizolid

>  <CAS_NUMBER>  (1) 
252260-06-3

>  <UNII>  (1) 
82V2M8K24R

>  <SYNONYMS>  (1) 
Posizolid

$$$$
