
     RDKit          2D

 11 12  0  0  0  0  0  0  0  0999 V2000
   -0.3667    0.4169    0.0000 C   0  0  0  0  0  0  0  0  0  0  0  0
   -0.3667   -0.4180    0.0000 C   0  0  0  0  0  0  0  0  0  0  0  0
    0.3453    0.8261    0.0000 N   0  0  0  0  0  0  0  0  0  0  0  0
   -1.0682    0.8261    0.0000 C   0  0  0  0  0  0  0  0  0  0  0  0
    0.3453   -0.8261    0.0000 C   0  0  0  0  0  0  0  0  0  0  0  0
   -1.0682   -0.8261    0.0000 C   0  0  0  0  0  0  0  0  0  0  0  0
    1.0587    0.4169    0.0000 C   0  0  0  0  0  0  0  0  0  0  0  0
   -1.7852    0.4169    0.0000 C   0  0  0  0  0  0  0  0  0  0  0  0
    1.0587   -0.4180    0.0000 C   0  0  0  0  0  0  0  0  0  0  0  0
   -1.7852   -0.4180    0.0000 C   0  0  0  0  0  0  0  0  0  0  0  0
    1.7852    0.8261    0.0000 O   0  0  0  0  0  0  0  0  0  0  0  0
  1  2  2  0
  1  3  1  0
  1  4  1  0
  2  5  1  0
  2  6  1  0
  3  7  1  0
  4  8  2  0
  5  9  2  0
  6 10  2  0
  7 11  2  0
  7  9  1  0
  8 10  1  0
M  END
>  <DRUGBANK_ID>  (1) 
DB04745

>  <COMMON_NAME>  (1) 
2-Hydroxyquinoline

>  <CAS_NUMBER>  (1) 
59-31-4

>  <UNII>  (1) 
803BHY7QWU

>  <SYNONYMS>  (1) 
2-quinolone; 2(1H)-Quinolinone; Carbostyril; o-Aminocinnamic acid lactam; Quinolin-2-ol; Quinolin-2(1H)-one; Î±-Quinolone

$$$$
