
     RDKit          2D

 21 23  0  0  0  0  0  0  0  0999 V2000
   -4.3261   -0.0748    0.0000 C   0  0  0  0  0  0  0  0  0  0  0  0
   -3.6116   -0.4873    0.0000 N   0  0  0  0  0  0  0  0  0  0  0  0
   -3.6116   -1.3123    0.0000 C   0  0  0  0  0  0  0  0  0  0  0  0
   -2.8971   -0.0748    0.0000 C   0  0  0  0  0  0  0  0  0  0  0  0
   -2.1827   -0.4873    0.0000 C   0  0  0  0  0  0  0  0  0  0  0  0
   -1.4682   -0.0748    0.0000 C   0  0  0  0  0  0  0  0  0  0  0  0
   -0.7537   -0.4873    0.0000 N   0  0  0  0  0  0  0  0  0  0  0  0
   -0.6675   -1.3078    0.0000 C   0  0  0  0  0  0  0  0  0  0  0  0
   -1.2195   -1.9209    0.0000 C   0  0  0  0  0  0  0  0  0  0  0  0
   -0.9646   -2.7055    0.0000 C   0  0  0  0  0  0  0  0  0  0  0  0
   -0.1576   -2.8770    0.0000 C   0  0  0  0  0  0  0  0  0  0  0  0
    0.3944   -2.2639    0.0000 C   0  0  0  0  0  0  0  0  0  0  0  0
    0.1395   -1.4793    0.0000 C   0  0  0  0  0  0  0  0  0  0  0  0
    0.5520   -0.7648    0.0000 C   0  0  0  0  0  0  0  0  0  0  0  0
   -0.0001   -0.1517    0.0000 C   0  0  0  0  0  0  0  0  0  0  0  0
    0.0431    0.6721    0.0000 C   0  0  0  0  0  0  0  0  0  0  0  0
    0.6562    1.2242    0.0000 C   0  0  0  0  0  0  0  0  0  0  0  0
    1.4801    1.1810    0.0000 C   0  0  0  0  0  0  0  0  0  0  0  0
    2.0321    0.5679    0.0000 C   0  0  0  0  0  0  0  0  0  0  0  0
    1.9889   -0.2560    0.0000 C   0  0  0  0  0  0  0  0  0  0  0  0
    1.3758   -0.8080    0.0000 C   0  0  0  0  0  0  0  0  0  0  0  0
  1  2  1  0
  2  3  1  0
  2  4  1  0
  4  5  1  0
  5  6  1  0
  6  7  1  0
  7  8  1  0
  7 15  1  0
  8  9  2  0
  8 13  1  0
  9 10  1  0
 10 11  2  0
 11 12  1  0
 12 13  2  0
 13 14  1  0
 14 15  2  0
 14 21  1  0
 15 16  1  0
 16 17  1  0
 17 18  1  0
 18 19  1  0
 19 20  1  0
 20 21  1  0
M  END
>  <DRUGBANK_ID>  (1) 
DB13496

>  <COMMON_NAME>  (1) 
Iprindole

>  <CAS_NUMBER>  (1) 
5560-72-5

>  <UNII>  (1) 
69U0IKR8FP

>  <SYNONYMS>  (1) 
Iprindole

$$$$
