
     RDKit          2D

  9  9  0  0  0  0  0  0  0  0999 V2000
    0.3632   -0.4230    0.0000 C   0  0  0  0  0  0  0  0  0  0  0  0
   -0.3512   -0.8282    0.0000 C   0  0  0  0  0  0  0  0  0  0  0  0
    0.3632    0.4188    0.0000 C   0  0  0  0  0  0  0  0  0  0  0  0
    1.0698   -0.8433    0.0000 C   0  0  0  0  0  0  0  0  0  0  0  0
   -1.0698   -0.4230    0.0000 C   0  0  0  0  0  0  0  0  0  0  0  0
   -0.3512   -1.6465    0.0000 Cl  0  0  0  0  0  0  0  0  0  0  0  0
   -0.3388    0.8167    0.0000 C   0  0  0  0  0  0  0  0  0  0  0  0
   -1.0643    0.4176    0.0000 C   0  0  0  0  0  0  0  0  0  0  0  0
   -0.3388    1.6465    0.0000 O   0  0  0  0  0  0  0  0  0  0  0  0
  1  2  2  0
  1  3  1  0
  1  4  1  0
  2  5  1  0
  2  6  1  0
  3  7  2  0
  5  8  2  0
  7  9  1  0
  7  8  1  0
M  END
>  <DRUGBANK_ID>  (1) 
DB16864

>  <COMMON_NAME>  (1) 
Chlorocresol

>  <CAS_NUMBER>  (1) 
59-50-7

>  <UNII>  (1) 
36W53O7109

>  <SYNONYMS>  (1) 
3-Methyl-4-chlorophenol; 4-Chloro-3-methyl phenol; Chlorocresol; p-Chloro-m-cresol

$$$$
