
     RDKit          2D

 30 32  0  0  0  0  0  0  0  0999 V2000
    0.7145    5.1563    0.0000 F   0  0  0  0  0  0  0  0  0  0  0  0
    2.1434    2.6812    0.0000 F   0  0  0  0  0  0  0  0  0  0  0  0
   -0.7145   -2.2688    0.0000 O   0  0  0  0  0  0  0  0  0  0  0  0
   -0.7145   -3.9187    0.0000 O   0  0  0  0  0  0  0  0  0  0  0  0
   -2.1434   -4.7438    0.0000 N   0  0  0  0  0  0  0  0  0  0  0  0
   -0.7145    1.0312    0.0000 N   0  0  0  0  0  0  0  0  0  0  0  0
    0.7145    3.5063    0.0000 N   0  0  0  0  0  0  0  0  0  0  0  0
    0.7145    1.0312    0.0000 N   0  0  0  0  0  0  0  0  0  0  0  0
    1.4289    2.2688    0.0000 N   0  0  0  0  0  0  0  0  0  0  0  0
   -1.4289   -3.5063    0.0000 C   0  0  0  0  0  0  0  0  0  0  0  0
   -2.1434   -3.9187    0.0000 C   0  0  0  0  0  0  0  0  0  0  0  0
   -1.4289   -2.6812    0.0000 C   0  0  0  0  0  0  0  0  0  0  0  0
   -2.8578   -5.1563    0.0000 C   0  0  0  0  0  0  0  0  0  0  0  0
   -1.4289   -5.1563    0.0000 C   0  0  0  0  0  0  0  0  0  0  0  0
   -0.7145   -1.4437    0.0000 C   0  0  0  0  0  0  0  0  0  0  0  0
   -0.7145    0.2062    0.0000 C   0  0  0  0  0  0  0  0  0  0  0  0
    0.0000   -1.0312    0.0000 C   0  0  0  0  0  0  0  0  0  0  0  0
   -1.4289   -1.0312    0.0000 C   0  0  0  0  0  0  0  0  0  0  0  0
    0.0000   -0.2062    0.0000 C   0  0  0  0  0  0  0  0  0  0  0  0
   -1.4289   -0.2062    0.0000 C   0  0  0  0  0  0  0  0  0  0  0  0
    0.0000    1.4437    0.0000 C   0  0  0  0  0  0  0  0  0  0  0  0
    0.0000    2.2688    0.0000 C   0  0  0  0  0  0  0  0  0  0  0  0
    0.7145    2.6812    0.0000 C   0  0  0  0  0  0  0  0  0  0  0  0
    1.4289    3.9187    0.0000 C   0  0  0  0  0  0  0  0  0  0  0  0
    1.4289    4.7438    0.0000 C   0  0  0  0  0  0  0  0  0  0  0  0
    2.1434    3.5063    0.0000 C   0  0  0  0  0  0  0  0  0  0  0  0
    1.4289    1.4437    0.0000 C   0  0  0  0  0  0  0  0  0  0  0  0
    2.1434    5.1563    0.0000 C   0  0  0  0  0  0  0  0  0  0  0  0
    2.8578    3.9187    0.0000 C   0  0  0  0  0  0  0  0  0  0  0  0
    2.8578    4.7438    0.0000 C   0  0  0  0  0  0  0  0  0  0  0  0
  1 25  1  0
  2 26  1  0
  3 12  1  0
  3 15  1  0
  5 11  1  0
  5 13  1  0
  5 14  1  0
  6 16  1  0
  6 21  1  0
  7 23  1  0
  7 24  1  0
  8 21  2  0
  8 27  1  0
  9 23  1  0
  9 27  2  0
 10  4  1  1
 10 11  1  0
 10 12  1  0
 15 17  2  0
 15 18  1  0
 16 19  2  0
 16 20  1  0
 17 19  1  0
 18 20  2  0
 21 22  1  0
 22 23  2  0
 24 25  2  0
 24 26  1  0
 25 28  1  0
 26 29  2  0
 28 30  2  0
 29 30  1  0
M  END
>  <DRUGBANK_ID>  (1) 
DB07751

>  <COMMON_NAME>  (1) 
(2S)-1-[4-({6-[(2,6-Difluorophenyl)amino]-4-pyrimidinyl}amino)phenoxy]-3-(dimethylamino)-2-propanol

$$$$
