
     RDKit          2D

 11 12  0  0  0  0  0  0  0  0999 V2000
   -0.5952   -0.4125    0.0000 C   0  0  0  0  0  0  0  0  0  0  0  0
   -0.1190   -1.2374    0.0000 C   0  0  0  0  0  0  0  0  0  0  0  0
   -0.1190    0.4125    0.0000 C   0  0  0  0  0  0  0  0  0  0  0  0
   -0.1190    1.2374    0.0000 C   0  0  0  0  0  0  0  0  0  0  0  0
    0.5953    0.0000    0.0000 C   0  0  0  0  0  0  0  0  0  0  0  0
    1.3097    0.4125    0.0000 O   0  0  0  0  0  0  0  0  0  0  0  0
    0.5953   -0.8250    0.0000 C   0  0  0  0  0  0  0  0  0  0  0  0
   -1.3097   -0.8250    0.0000 C   0  0  0  0  0  0  0  0  0  0  0  0
   -1.3097    0.0000    0.0000 C   0  0  0  0  0  0  0  0  0  0  0  0
   -0.8334   -0.8250    0.0000 C   0  0  0  0  0  0  0  0  0  0  0  0
   -0.8335    0.0000    0.0000 C   0  0  0  0  0  0  0  0  0  0  0  0
  2  1  1  0
  2 10  1  0
  2  7  1  0
  3  1  1  0
  3  4  1  0
  3  5  1  0
  5  6  2  0
  5  7  1  0
  8  1  1  0
  9  1  1  0
 10 11  1  0
 11  3  1  0
M  END
>  <DRUGBANK_ID>  (1) 
DB14156

>  <COMMON_NAME>  (1) 
Synthetic camphor

>  <CAS_NUMBER>  (1) 
76-22-2

>  <UNII>  (1) 
5TJD82A1ET

>  <SYNONYMS>  (1) 
(+/-)-camphor; (1RS,4RS)-1,7,7-trimethylbicyclo(2.2.1)heptan-2-one; 1,7,7-trimethylbicyclo(2.2.1)heptan-2-one; 2-bornanone; 2-camphanone; Camphor (synthetic); Camphor, racemic; DL-camphor; Gum camphor

$$$$
