
     RDKit          2D

 10 10  0  0  0  0  0  0  0  0999 V2000
    0.7145    2.0625    0.0000 C   0  0  0  0  0  0  0  0  0  0  0  0
    0.7145    1.2375    0.0000 C   0  0  0  0  0  0  0  0  0  0  0  0
    1.4289    0.8250    0.0000 C   0  0  0  0  0  0  0  0  0  0  0  0
    1.4289   -0.0000    0.0000 C   0  0  0  0  0  0  0  0  0  0  0  0
    0.7145   -0.4125    0.0000 C   0  0  0  0  0  0  0  0  0  0  0  0
    0.0000    0.0000    0.0000 C   0  0  0  0  0  0  0  0  0  0  0  0
    0.0000    0.8250    0.0000 C   0  0  0  0  0  0  0  0  0  0  0  0
   -0.7145    1.2375    0.0000 Cl  0  0  0  0  0  0  0  0  0  0  0  0
   -0.7145   -0.4125    0.0000 C   0  0  0  0  0  0  0  0  0  0  0  0
    2.1434   -0.4125    0.0000 O   0  0  0  0  0  0  0  0  0  0  0  0
  1  2  1  0
  2  3  2  0
  2  7  1  0
  3  4  1  0
  4  5  2  0
  4 10  1  0
  5  6  1  0
  6  7  2  0
  6  9  1  0
  7  8  1  0
M  END
>  <DRUGBANK_ID>  (1) 
DB11121

>  <COMMON_NAME>  (1) 
Chloroxylenol

>  <CAS_NUMBER>  (1) 
88-04-0

>  <UNII>  (1) 
0F32U78V2Q

>  <SYNONYMS>  (1) 
2-chloro-5-hydroxy-1,3-dimethylbenzene; 2-chloro-5-hydroxy-m-xylene; 2-Chloro-m-xylenol; 3,5-dimethyl-4-chlorophenol; 4-chloro-1-hydroxy-3,5-dimethylbenzene; 4-chloro-3,5-dimethylphenol; 4-chloro-m-xylenol; chloro-xylenol; Chloroxylenol; cloroxilenol; p-chloro-3,5-xylenol; p-chloro-m-xylenol; parachlorometaxylenol; PCMX

$$$$
