
     RDKit          2D

 13 13  0  0  0  0  0  0  0  0999 V2000
   -2.5007   -0.4125    0.0000 O   0  0  0  0  0  0  0  0  0  0  0  0
   -1.7862   -0.8250    0.0000 C   0  0  0  0  0  0  0  0  0  0  0  0
   -1.0716    0.4125    0.0000 N   0  0  0  0  0  0  0  0  0  0  0  0
   -1.0716   -0.4125    0.0000 C   0  0  0  0  0  0  0  0  0  0  0  0
   -1.7862    0.8250    0.0000 C   0  0  0  0  0  0  0  0  0  0  0  0
   -2.5007    0.4125    0.0000 C   0  0  0  0  0  0  0  0  0  0  0  0
    1.7862   -0.4125    0.0000 O   0  0  0  0  0  0  0  0  0  0  0  0
    2.5006    0.8250    0.0000 O   0  0  0  0  0  0  0  0  0  0  0  0
    1.0716    0.8250    0.0000 C   0  0  0  0  0  0  0  0  0  0  0  0
    0.3572    0.4125    0.0000 C   0  0  0  0  0  0  0  0  0  0  0  0
   -0.3572    0.8250    0.0000 C   0  0  0  0  0  0  0  0  0  0  0  0
    1.7862    0.4125    0.0000 S   0  0  0  0  0  0  0  0  0  0  0  0
    2.5007    0.0000    0.0000 O   0  0  0  0  0  0  0  0  0  0  0  0
  2  1  1  0
  2  4  1  0
  4  3  1  0
  5  3  1  0
  6  1  1  0
  6  5  1  0
  7 12  2  0
  8 12  2  0
  9 12  1  0
 10  9  1  0
 11  3  1  0
 11 10  1  0
 12 13  1  0
M  END
>  <DRUGBANK_ID>  (1) 
DB03434

>  <SECONDARY_ACCESSION_NUMBERS>  (1) 
EXPT02224

>  <COMMON_NAME>  (1) 
3-(N-morpholino)propanesulfonic acid

>  <CAS_NUMBER>  (1) 
1132-61-2

>  <UNII>  (1) 
273BP63NV3

>  <SYNONYMS>  (1) 
3-morpholinopropanesulfonic acid; MOPS; Morpholinopropane sulfonic acid

$$$$
