
     RDKit          2D

 21 23  0  0  0  0  0  0  0  0999 V2000
    0.7145   -1.6500    0.0000 C   0  0  0  0  0  0  0  0  0  0  0  0
    1.4290   -2.0625    0.0000 C   0  0  0  0  0  0  0  0  0  0  0  0
   -0.7143   -0.8250    0.0000 C   0  0  0  0  0  0  0  0  0  0  0  0
   -0.7143   -1.6500    0.0000 C   0  0  0  0  0  0  0  0  0  0  0  0
    0.0000   -2.0625    0.0000 C   0  0  0  0  0  0  0  0  0  0  0  0
    0.0000   -0.4125    0.0000 C   0  0  0  0  0  0  0  0  0  0  0  0
    0.7145   -0.8250    0.0000 C   0  0  0  0  0  0  0  0  0  0  0  0
    2.1434   -1.6500    0.0000 C   0  0  0  0  0  0  0  0  0  0  0  0
    2.1434   -0.8250    0.0000 C   0  0  0  0  0  0  0  0  0  0  0  0
    1.4290   -0.4125    0.0000 C   0  0  0  0  0  0  0  0  0  0  0  0
    0.0000    0.4126    0.0000 N   0  0  0  0  0  0  0  0  0  0  0  0
   -0.7145    0.8250    0.0000 C   0  0  0  0  0  0  0  0  0  0  0  0
   -1.4291    2.0625    0.0000 C   0  0  0  0  0  0  0  0  0  0  0  0
   -2.1434    1.6500    0.0000 C   0  0  0  0  0  0  0  0  0  0  0  0
   -2.1434    0.8250    0.0000 C   0  0  0  0  0  0  0  0  0  0  0  0
   -1.4290    0.4125    0.0000 C   0  0  0  0  0  0  0  0  0  0  0  0
   -0.7145    1.6500    0.0000 C   0  0  0  0  0  0  0  0  0  0  0  0
    1.4288    1.2375    0.0000 O   0  0  0  0  0  0  0  0  0  0  0  0
    0.7143    0.8251    0.0000 O   0  0  0  0  0  0  0  0  0  0  0  0
    1.4288    0.4126    0.0000 S   0  0  0  0  0  0  0  0  0  0  0  0
    2.1433    0.8251    0.0000 O   0  0  0  0  0  0  0  0  0  0  0  0
  1  2  2  0
  2  8  1  0
  3  4  1  0
  4  5  2  0
  5  1  1  0
  6  3  2  0
  6 11  1  0
  7  1  1  0
  7  6  1  0
  8  9  2  0
  9 10  1  0
 10  7  2  0
 10 20  1  0
 11 12  1  0
 12 17  2  0
 13 14  2  0
 13 17  1  0
 14 15  1  0
 15 16  2  0
 16 12  1  0
 20 18  1  0
 20 19  2  0
 20 21  2  0
M  END
>  <DRUGBANK_ID>  (1) 
DB04474

>  <SECONDARY_ACCESSION_NUMBERS>  (1) 
EXPT00103

>  <COMMON_NAME>  (1) 
8-anilinonaphthalene-1-sulfonic acid

>  <CAS_NUMBER>  (1) 
82-76-8

>  <UNII>  (1) 
630I4V6051

>  <SYNONYMS>  (1) 
1-(phenylamino)-8-naphthalenesulfonic acid; 1-Anilino-8-naphthalenesulfonate; 1-anilino-8-naphthalenesulfonic acid; 8-Anilino-1-naphthalene sulfonic acid; 8-anilinonaphthalene-1-sulphonic acid

$$$$
