
     RDKit          2D

 27 28  0  0  0  0  0  0  0  0999 V2000
    1.4289   -0.8250    0.0000 C   0  0  0  0  0  0  0  0  0  0  0  0
    2.1434   -1.2375    0.0000 O   0  0  0  0  0  0  0  0  0  0  0  0
    2.1434   -2.0625    0.0000 C   0  0  0  0  0  0  0  0  0  0  0  0
    2.8579   -2.4750    0.0000 C   0  0  0  0  0  0  0  0  0  0  0  0
    2.8579   -3.3000    0.0000 C   0  0  0  0  0  0  0  0  0  0  0  0
    2.1434   -3.7125    0.0000 C   0  0  0  0  0  0  0  0  0  0  0  0
    1.4289   -3.3000    0.0000 C   0  0  0  0  0  0  0  0  0  0  0  0
    1.4289   -2.4750    0.0000 C   0  0  0  0  0  0  0  0  0  0  0  0
    0.7145   -2.0625    0.0000 N   0  0  0  0  0  0  0  0  0  0  0  0
    0.0000   -2.4750    0.0000 C   0  0  0  0  0  0  0  0  0  0  0  0
    0.0000   -3.3000    0.0000 O   0  0  0  0  0  0  0  0  0  0  0  0
   -0.7145   -2.0625    0.0000 N   0  0  0  0  0  0  0  0  0  0  0  0
    2.1434   -4.5375    0.0000 N   0  0  0  0  0  0  0  0  0  0  0  0
    1.4289   -4.9500    0.0000 S   0  0  0  0  0  0  0  0  0  0  0  0
    1.0164   -4.2355    0.0000 O   0  0  0  0  0  0  0  0  0  0  0  0
    1.8414   -5.6645    0.0000 O   0  0  0  0  0  0  0  0  0  0  0  0
    0.7145   -5.3625    0.0000 C   0  0  0  0  0  0  0  0  0  0  0  0
    0.7145   -6.1875    0.0000 C   0  0  0  0  0  0  0  0  0  0  0  0
   -0.0000   -6.6000    0.0000 C   0  0  0  0  0  0  0  0  0  0  0  0
   -0.7145   -6.1875    0.0000 C   0  0  0  0  0  0  0  0  0  0  0  0
   -0.7145   -5.3625    0.0000 C   0  0  0  0  0  0  0  0  0  0  0  0
   -0.0000   -4.9500    0.0000 C   0  0  0  0  0  0  0  0  0  0  0  0
    0.0000   -4.1250    0.0000 F   0  0  0  0  0  0  0  0  0  0  0  0
   -1.4289   -4.9500    0.0000 F   0  0  0  0  0  0  0  0  0  0  0  0
   -1.4289   -6.6000    0.0000 F   0  0  0  0  0  0  0  0  0  0  0  0
   -0.0000   -7.4250    0.0000 F   0  0  0  0  0  0  0  0  0  0  0  0
    1.4289   -6.6000    0.0000 F   0  0  0  0  0  0  0  0  0  0  0  0
  1  2  1  0
  2  3  1  0
  3  4  2  0
  3  8  1  0
  4  5  1  0
  5  6  2  0
  6  7  1  0
  6 13  1  0
  7  8  2  0
  8  9  1  0
  9 10  1  0
 10 11  2  0
 10 12  1  0
 13 14  1  0
 14 15  2  0
 14 16  2  0
 14 17  1  0
 17 18  2  0
 17 22  1  0
 18 19  1  0
 18 27  1  0
 19 20  2  0
 19 26  1  0
 20 21  1  0
 20 25  1  0
 21 22  2  0
 21 24  1  0
 22 23  1  0
M  END
>  <DRUGBANK_ID>  (1) 
DB12068

>  <COMMON_NAME>  (1) 
T-900607

>  <CAS_NUMBER>  (1) 
261944-52-9

>  <UNII>  (1) 
IC9O2HT1X1

$$$$
