
     RDKit          2D

 19 20  0  0  0  0  0  0  0  0999 V2000
   -0.3906    0.3906    0.0000 C   0  0  0  0  0  0  0  0  0  0  0  0
    0.4343    0.3906    0.0000 C   0  0  0  0  0  0  0  0  0  0  0  0
   -0.8468   -0.3518    0.0000 C   0  0  0  0  0  0  0  0  0  0  0  0
   -0.8274    1.1040    0.0000 C   0  0  0  0  0  0  0  0  0  0  0  0
   -2.0650    1.7932    0.0000 N   0  0  0  0  0  0  0  0  0  0  0  0
    0.8468    1.0798    0.0000 C   0  0  0  0  0  0  0  0  0  0  0  0
   -1.6718   -0.3518    0.0000 C   0  0  0  0  0  0  0  0  0  0  0  0
   -0.4101   -1.0652    0.0000 C   0  0  0  0  0  0  0  0  0  0  0  0
    1.6718    1.0798    0.0000 N   0  0  0  0  0  0  0  0  0  0  0  0
   -1.6718   -1.7787    0.0000 C   0  0  0  0  0  0  0  0  0  0  0  0
   -0.8468   -1.7787    0.0000 C   0  0  0  0  0  0  0  0  0  0  0  0
   -2.0795   -1.0652    0.0000 C   0  0  0  0  0  0  0  0  0  0  0  0
   -2.0795   -2.5163    0.0000 Br  0  0  0  0  0  0  0  0  0  0  0  0
   -1.6476    1.1040    0.0000 C   0  0  0  0  0  0  0  0  0  0  0  0
   -1.6476    2.5017    0.0000 C   0  0  0  0  0  0  0  0  0  0  0  0
   -0.3906    1.7932    0.0000 C   0  0  0  0  0  0  0  0  0  0  0  0
    2.0795    1.7738    0.0000 C   0  0  0  0  0  0  0  0  0  0  0  0
    2.0795    0.3615    0.0000 C   0  0  0  0  0  0  0  0  0  0  0  0
   -0.8274    2.5163    0.0000 C   0  0  0  0  0  0  0  0  0  0  0  0
  2  1  2  0
  3  1  1  0
  4  1  1  0
  5 14  2  0
  5 15  1  0
  6  2  1  0
  7  3  2  0
  8  3  1  0
  9  6  1  0
 10 11  1  0
 11  8  2  0
 12  7  1  0
 12 10  2  0
 13 10  1  0
 14  4  1  0
 15 19  2  0
 16  4  2  0
 17  9  1  0
 18  9  1  0
 19 16  1  0
M  END
>  <DRUGBANK_ID>  (1) 
DB04832

>  <COMMON_NAME>  (1) 
Zimelidine

>  <CAS_NUMBER>  (1) 
56775-88-3

>  <UNII>  (1) 
3J928617DW

>  <SYNONYMS>  (1) 
(Z)-3-(4'-Bromophenyl)-3-(3''-pyridyl)dimethylallylamine; (Z)-zimelidine; cis-zimelidine; Zimeldina; Zimeldine; Zimeldinum

$$$$
