
     RDKit          2D

 16 16  0  0  0  0  0  0  0  0999 V2000
   -1.0721    0.0000    0.0000 C   0  0  0  0  0  0  0  0  0  0  0  0
   -1.0721   -0.8250    0.0000 C   0  0  0  0  0  0  0  0  0  0  0  0
   -0.3576   -1.2375    0.0000 C   0  0  0  0  0  0  0  0  0  0  0  0
    0.3566   -0.8250    0.0000 C   0  0  0  0  0  0  0  0  0  0  0  0
    0.3566    0.0000    0.0000 C   0  0  0  0  0  0  0  0  0  0  0  0
   -0.3576    0.4125    0.0000 C   0  0  0  0  0  0  0  0  0  0  0  0
   -1.7866   -1.2375    0.0000 C   0  0  0  0  0  0  0  0  0  0  0  0
   -2.5011   -0.8250    0.0000 C   0  0  0  0  0  0  0  0  0  0  0  0
   -3.2156   -1.2375    0.0000 C   0  0  0  0  0  0  0  0  0  0  0  0
   -2.5011    0.0000    0.0000 C   0  0  0  0  0  0  0  0  0  0  0  0
    1.0722    0.4125    0.0000 C   0  0  0  0  0  0  0  0  0  0  0  0
    1.7866    0.0000    0.0000 C   0  0  0  0  0  0  0  0  0  0  0  0
    2.5011    0.4125    0.0000 N   0  0  0  0  0  0  0  0  0  0  0  0
    1.7866   -0.8250    0.0000 O   0  0  0  0  0  0  0  0  0  0  0  0
    1.0725    1.2375    0.0000 C   0  0  0  0  0  0  0  0  0  0  0  0
    3.2156    0.0000    0.0000 O   0  0  0  0  0  0  0  0  0  0  0  0
  1  2  2  0
  1  6  1  0
  2  3  1  0
  2  7  1  0
  3  4  2  0
  4  5  1  0
  5  6  2  0
  5 11  1  0
  7  8  1  0
  8  9  1  0
  8 10  1  0
 11 12  1  0
 11 15  1  0
 12 13  1  0
 12 14  2  0
 13 16  1  0
M  END
>  <DRUGBANK_ID>  (1) 
DB08955

>  <COMMON_NAME>  (1) 
Ibuproxam

>  <CAS_NUMBER>  (1) 
53648-05-8

>  <UNII>  (1) 
O3LD16O96Z

>  <SYNONYMS>  (1) 
Ibuproxam; Ibuproxamum; p-Isobutylhydratropohydroxamic acid

$$$$
