NP4
     RDKit          2D

 22 23  0  0  0  0  0  0  0  0999 V2000
   -0.9247   -0.7622    0.0000 C   0  0  0  0  0  0  0  0  0  0  0  0
   -1.7094   -0.5073    0.0000 C   0  0  0  0  0  0  0  0  0  0  0  0
   -0.4398   -1.5237    0.0000 O   0  0  0  0  0  0  0  0  0  0  0  0
   -2.4238   -0.9198    0.0000 C   0  0  0  0  0  0  0  0  0  0  0  0
   -3.1383   -0.5073    0.0000 C   0  0  0  0  0  0  0  0  0  0  0  0
   -3.1383    0.3177    0.0000 C   0  0  0  0  0  0  0  0  0  0  0  0
   -2.4238    0.7302    0.0000 C   0  0  0  0  0  0  0  0  0  0  0  0
   -1.7094    0.3177    0.0000 C   0  0  0  0  0  0  0  0  0  0  0  0
   -0.9247    0.5727    0.0000 C   0  0  0  0  0  0  0  0  0  0  0  0
   -0.4398    1.3342    0.0000 C   0  0  0  0  0  0  0  0  0  0  0  0
    0.3852    1.3342    0.0000 C   0  0  0  0  0  0  0  0  0  0  0  0
    0.7977    0.6197    0.0000 C   0  0  0  0  0  0  0  0  0  0  0  0
    1.6227    0.6197    0.0000 C   0  0  0  0  0  0  0  0  0  0  0  0
    2.0352   -0.0948    0.0000 C   0  0  0  0  0  0  0  0  0  0  0  0
    1.6227   -0.8092    0.0000 C   0  0  0  0  0  0  0  0  0  0  0  0
    0.7977   -0.8092    0.0000 C   0  0  0  0  0  0  0  0  0  0  0  0
    0.3852   -1.5237    0.0000 C   0  0  0  0  0  0  0  0  0  0  0  0
   -0.4196   -0.1099    0.0000 O   0  0  0  0  0  0  0  0  0  0  0  0
   -2.4238   -1.7448    0.0000 O   0  0  0  0  0  0  0  0  0  0  0  0
   -3.8528    0.7302    0.0000 O   0  0  0  0  0  0  0  0  0  0  0  0
   -2.4238    1.5552    0.0000 Cl  0  0  0  0  0  0  0  0  0  0  0  0
   -0.8367    2.0574    0.0000 O   0  0  0  0  0  0  0  0  0  0  0  0
  1  2  1  0
  1  3  1  0
  1 18  2  0
  2  4  2  0
  2  8  1  0
  3 17  1  0
  4  5  1  0
  4 19  1  0
  5  6  2  0
  6  7  1  0
  6 20  1  0
  7  8  2  0
  7 21  1  0
  8  9  1  0
  9 10  1  0
 10 11  1  0
 10 22  2  0
 11 12  1  0
 12 13  1  0
 13 14  1  0
 14 15  2  0
 15 16  1  0
 16 17  1  0
M  END
>  <DRUGBANK_ID>  (1) 
DB08292

>  <COMMON_NAME>  (1) 
(5Z)-12-CHLORO-13,15-DIHYDROXY-4,7,8,9-TETRAHYDRO-2-BENZOXACYCLOTRIDECINE-1,10(3H,11H)-DIONE

$$$$
