
     RDKit          2D

 39 43  0  0  1  0  0  0  0  0999 V2000
    7.4313   -1.2852    0.0000 C   0  0  0  0  0  0  0  0  0  0  0  0
    6.6453   -1.5358    0.0000 C   0  0  0  0  0  0  0  0  0  0  0  0
    6.4692   -2.3418    0.0000 O   0  0  0  0  0  0  0  0  0  0  0  0
    6.0353   -0.9803    0.0000 O   0  0  0  0  0  0  0  0  0  0  0  0
    5.2493   -1.2308    0.0000 C   0  0  0  0  0  0  0  0  0  0  0  0
    4.7546   -0.6577    0.0000 C   0  0  0  0  0  0  0  0  0  0  0  0
    3.8532   -0.9258    0.0000 O   0  0  0  0  0  0  0  0  0  0  0  0
    4.8154    0.1307    0.0000 C   0  0  0  0  0  0  0  0  0  0  0  0
    4.9914    0.9367    0.0000 C   0  0  0  0  0  0  0  0  0  0  0  0
    4.2793    1.3532    0.0000 C   0  0  0  0  0  0  0  0  0  0  0  0
    3.6631    0.8046    0.0000 C   0  0  0  0  0  0  0  0  0  0  0  0
    3.9944    0.0491    0.0000 C   0  0  0  0  0  0  0  0  0  0  0  0
    3.5057   -0.6156    0.0000 C   0  0  0  0  0  0  0  0  0  0  0  0
    2.6857   -0.5248    0.0000 C   0  0  0  0  0  0  0  0  0  0  0  0
    2.3544    0.2308    0.0000 C   0  0  0  0  0  0  0  0  0  0  0  0
    2.8431    0.8955    0.0000 C   0  0  0  0  0  0  0  0  0  0  0  0
    2.5118    1.6510    0.0000 C   0  0  0  0  0  0  0  0  0  0  0  0
    1.6918    1.7419    0.0000 C   0  0  0  0  0  0  0  0  0  0  0  0
    1.2031    1.0772    0.0000 C   0  0  0  0  0  0  0  0  0  0  0  0
    1.5345    0.3216    0.0000 C   0  0  0  0  0  0  0  0  0  0  0  0
    1.0458   -0.3431    0.0000 C   0  0  0  0  0  0  0  0  0  0  0  0
    0.2258   -0.2522    0.0000 C   0  0  0  0  0  0  0  0  0  0  0  0
   -0.1055    0.5034    0.0000 C   0  0  0  0  0  0  0  0  0  0  0  0
    0.3832    1.1681    0.0000 C   0  0  0  0  0  0  0  0  0  0  0  0
   -0.9255    0.5942    0.0000 O   0  0  0  0  0  0  0  0  0  0  0  0
   -1.4142   -0.0705    0.0000 C   0  0  0  0  0  0  0  0  0  0  0  0
   -2.2342    0.0204    0.0000 C   0  0  0  0  0  0  0  0  0  0  0  0
   -2.5655    0.7759    0.0000 Cl  0  0  0  0  0  0  0  0  0  0  0  0
    2.2118   -0.3811    0.0000 C   0  0  0  0  0  0  0  0  0  0  0  0
    1.3605    2.4974    0.0000 C   0  0  0  0  0  0  0  0  0  0  0  0
    1.8492    3.1621    0.0000 O   0  0  0  0  0  0  0  0  0  0  0  0
    1.8658   -0.4339    0.0000 F   0  0  0  0  0  0  0  0  0  0  0  0
    2.1971   -1.1895    0.0000 O   0  0  0  0  0  0  0  0  0  0  0  0
    4.4029   -0.6677    0.0000 C   0  0  0  0  0  0  0  0  0  0  0  0
    5.8124    1.0183    0.0000 O   0  0  0  0  0  0  0  0  0  0  0  0
    6.1437    0.2627    0.0000 C   0  0  0  0  0  0  0  0  0  0  0  0
    5.5275   -0.2858    0.0000 O   0  0  0  0  0  0  0  0  0  0  0  0
    6.9323    0.5050    0.0000 C   0  0  0  0  0  0  0  0  0  0  0  0
    6.7594   -0.2863    0.0000 C   0  0  0  0  0  0  0  0  0  0  0  0
  1  2  1  0
  2  3  2  0
  2  4  1  0
  4  5  1  0
  5  6  1  0
  6  7  2  0
  8  6  1  6
  8  9  1  0
  8 12  1  0
  8 37  1  0
  9 10  1  1
  9 35  1  0
 11 10  1  6
 11 12  1  0
 11 16  1  0
 12 13  1  0
 12 34  1  6
 13 14  1  0
 14 15  1  0
 14 33  1  6
 15 16  1  0
 15 20  1  0
 15 32  1  1
 16 17  1  1
 17 18  1  0
 18 19  2  0
 18 30  1  0
 19 20  1  0
 19 24  1  0
 20 21  1  0
 20 29  1  6
 21 22  1  0
 22 23  1  0
 23 24  2  0
 23 25  1  0
 25 26  1  0
 26 27  1  0
 27 28  1  0
 30 31  2  0
 35 36  1  0
 36 37  1  0
 36 38  1  0
 36 39  1  0
M  END
>  <DRUGBANK_ID>  (1) 
DB13664

>  <COMMON_NAME>  (1) 
Formocortal

>  <CAS_NUMBER>  (1) 
2825-60-7

>  <UNII>  (1) 
8E21R0Z4M5

>  <SYNONYMS>  (1) 
Formocortal

$$$$
