
     RDKit          2D

 14 15  0  0  0  0  0  0  0  0999 V2000
   -1.3268    0.0223    0.0000 C   0  0  0  0  0  0  0  0  0  0  0  0
   -2.0413   -0.3901    0.0000 C   0  0  0  0  0  0  0  0  0  0  0  0
   -2.0413   -1.2151    0.0000 C   0  0  0  0  0  0  0  0  0  0  0  0
   -1.3268   -1.6278    0.0000 C   0  0  0  0  0  0  0  0  0  0  0  0
   -0.6122   -1.2151    0.0000 C   0  0  0  0  0  0  0  0  0  0  0  0
    0.1723   -1.4701    0.0000 N   0  0  0  0  0  0  0  0  0  0  0  0
    0.6572   -0.8027    0.0000 C   0  0  0  0  0  0  0  0  0  0  0  0
    0.1723   -0.1353    0.0000 C   0  0  0  0  0  0  0  0  0  0  0  0
   -0.6122   -0.3901    0.0000 C   0  0  0  0  0  0  0  0  0  0  0  0
    0.4273    0.6492    0.0000 O   0  0  0  0  0  0  0  0  0  0  0  0
    1.2343    0.8209    0.0000 S   0  0  0  0  0  0  0  0  0  0  0  0
    1.0628    1.6278    0.0000 O   0  0  0  0  0  0  0  0  0  0  0  0
    1.4058    0.0138    0.0000 O   0  0  0  0  0  0  0  0  0  0  0  0
    2.0413    0.9924    0.0000 O   0  0  0  0  0  0  0  0  0  0  0  0
  1  2  2  0
  1  9  1  0
  2  3  1  0
  3  4  2  0
  4  5  1  0
  5  6  1  0
  5  9  2  0
  6  7  1  0
  7  8  2  0
  8  9  1  0
  8 10  1  0
 10 11  1  0
 12 11  2  0
 13 11  2  0
 14 11  1  0
M  END
>  <DRUGBANK_ID>  (1) 
DB07992

>  <COMMON_NAME>  (1) 
Indoxyl sulfate

>  <CAS_NUMBER>  (1) 
487-94-5

>  <UNII>  (1) 
KT0QA88913

>  <SYNONYMS>  (1) 
3-indolyl hydrogen sulfate; 3-indolyl sulfate; 3-Indoxyl sulfate; 3-Indoxylsulfuric acid; Indican; Indol-3-yl hydrogen sulfate; Indol-3-yl sulfate; Indoxyl sulfic acid; Indoxyl sulphate; Indoxyl-3-sulphate; Indoxylsulfuric acid

$$$$
