NNC
     RDKit          2D

 24 26  0  0  0  0  0  0  0  0999 V2000
    3.2894    7.5630    0.0000 C   0  0  0  0  0  0  0  0  0  0  0  0
    2.5750    7.1505    0.0000 C   0  0  0  0  0  0  0  0  0  0  0  0
    1.8605    7.5630    0.0000 C   0  0  0  0  0  0  0  0  0  0  0  0
    1.1460    7.1505    0.0000 Cl  0  0  0  0  0  0  0  0  0  0  0  0
    1.8605    8.3880    0.0000 C   0  0  0  0  0  0  0  0  0  0  0  0
    2.5750    8.8005    0.0000 C   0  0  0  0  0  0  0  0  0  0  0  0
    3.2894    8.3880    0.0000 C   0  0  0  0  0  0  0  0  0  0  0  0
    4.0039    8.8005    0.0000 N   0  0  0  0  0  0  0  0  0  0  0  0
    4.7184    8.3880    0.0000 C   0  0  0  0  0  0  0  0  0  0  0  0
    4.7184    7.5630    0.0000 S   0  0  0  0  0  0  0  0  0  0  0  0
    5.4329    8.8005    0.0000 O   0  0  0  0  0  0  0  0  0  0  0  0
    6.1473    8.3880    0.0000 C   0  0  0  0  0  0  0  0  0  0  0  0
    6.8618    8.8005    0.0000 C   0  0  0  0  0  0  0  0  0  0  0  0
    7.5763    8.3880    0.0000 N   0  0  0  0  0  0  0  0  0  0  0  0
    8.3299    8.7236    0.0000 C   0  0  0  0  0  0  0  0  0  0  0  0
    8.5015    9.5305    0.0000 O   0  0  0  0  0  0  0  0  0  0  0  0
    8.8820    8.1105    0.0000 C   0  0  0  0  0  0  0  0  0  0  0  0
    9.7070    8.1105    0.0000 C   0  0  0  0  0  0  0  0  0  0  0  0
   10.1195    7.3960    0.0000 C   0  0  0  0  0  0  0  0  0  0  0  0
    9.7070    6.6815    0.0000 C   0  0  0  0  0  0  0  0  0  0  0  0
    8.8820    6.6815    0.0000 C   0  0  0  0  0  0  0  0  0  0  0  0
    8.4695    7.3960    0.0000 C   0  0  0  0  0  0  0  0  0  0  0  0
    7.6625    7.5675    0.0000 C   0  0  0  0  0  0  0  0  0  0  0  0
    7.0494    7.0155    0.0000 O   0  0  0  0  0  0  0  0  0  0  0  0
  1  2  2  0
  1  7  1  0
  2  3  1  0
  3  4  1  0
  3  5  2  0
  5  6  1  0
  6  7  2  0
  7  8  1  0
  8  9  1  0
  9 10  2  0
  9 11  1  0
 11 12  1  0
 12 13  1  0
 13 14  1  0
 14 15  1  0
 14 23  1  0
 15 16  2  0
 15 17  1  0
 17 18  1  0
 17 22  2  0
 18 19  2  0
 19 20  1  0
 20 21  2  0
 21 22  1  0
 22 23  1  0
 23 24  2  0
M  END
>  <DRUGBANK_ID>  (1) 
DB08282

>  <COMMON_NAME>  (1) 
O-[2-(1,3-dioxo-1,3-dihydro-2H-isoindol-2-yl)ethyl] (4-chlorophenyl)thiocarbamate

$$$$
