
     RDKit          2D

 16 16  0  0  0  0  0  0  0  0999 V2000
    1.4435   -0.9739    0.0000 C   0  0  0  0  0  0  0  0  0  0  0  0
    0.7154   -0.5860    0.0000 C   0  0  0  0  0  0  0  0  0  0  0  0
    0.0126   -1.0202    0.0000 C   0  0  0  0  0  0  0  0  0  0  0  0
   -0.7154   -0.6323    0.0000 C   0  0  0  0  0  0  0  0  0  0  0  0
   -0.7407    0.1940    0.0000 C   0  0  0  0  0  0  0  0  0  0  0  0
   -0.0399    0.6287    0.0000 C   0  0  0  0  0  0  0  0  0  0  0  0
    0.6880    0.2366    0.0000 C   0  0  0  0  0  0  0  0  0  0  0  0
    1.4689   -1.8003    0.0000 O   0  0  0  0  0  0  0  0  0  0  0  0
    2.1443   -0.5433    0.0000 N   0  0  0  0  0  0  0  0  0  0  0  0
   -0.0653    1.4550    0.0000 N   0  0  0  0  0  0  0  0  0  0  0  0
   -0.7935    1.8430    0.0000 O   0  0  0  0  0  0  0  0  0  0  0  0
    0.6373    1.8893    0.0000 O   0  0  0  0  0  0  0  0  0  0  0  0
   -1.4161   -1.0629    0.0000 N   0  0  0  0  0  0  0  0  0  0  0  0
   -1.3909   -1.8893    0.0000 O   0  0  0  0  0  0  0  0  0  0  0  0
   -2.1443   -0.6749    0.0000 O   0  0  0  0  0  0  0  0  0  0  0  0
    0.0400   -1.8430    0.0000 C   0  0  0  0  0  0  0  0  0  0  0  0
  1  2  1  0
  1  8  2  0
  1  9  1  0
  2  3  2  0
  2  7  1  0
  3  4  1  0
  3 16  1  0
  4  5  2  0
  4 13  1  0
  5  6  1  0
  6  7  2  0
  6 10  1  0
 10 11  2  0
 10 12  1  0
 13 14  2  0
 13 15  1  0
M  CHG  4  10   1  12  -1  13   1  15  -1
M  END
>  <DRUGBANK_ID>  (1) 
DB11480

>  <COMMON_NAME>  (1) 
Zoalene

>  <CAS_NUMBER>  (1) 
148-01-6

>  <UNII>  (1) 
AOX68RY4TV

>  <SYNONYMS>  (1) 
Coccidine A; Dinitolmida; Dinitolmide; Dinitolmidum; Zoalene

$$$$
