
     RDKit          2D

 13 13  0  0  1  0  0  0  0  0999 V2000
    0.8503    2.4752    0.0000 Cl  0  0  0  0  0  0  0  0  0  0  0  0
   -0.5787    1.6501    0.0000 O   0  0  0  0  0  0  0  0  0  0  0  0
    0.8503    0.0000    0.0000 N   0  0  0  0  0  0  0  0  0  0  0  0
    0.1357    0.4125    0.0000 C   0  0  0  0  0  0  0  0  0  0  0  0
   -0.5787    0.0000    0.0000 C   0  0  0  0  0  0  0  0  0  0  0  0
    0.1357    1.2376    0.0000 C   0  0  0  0  0  0  0  0  0  0  0  0
   -0.5787   -0.8251    0.0000 C   0  0  0  0  0  0  0  0  0  0  0  0
    0.8503    1.6501    0.0000 C   0  0  0  0  0  0  0  0  0  0  0  0
    0.1357   -1.2376    0.0000 C   0  0  0  0  0  0  0  0  0  0  0  0
   -1.2932   -1.2376    0.0000 C   0  0  0  0  0  0  0  0  0  0  0  0
    0.1357   -2.0627    0.0000 C   0  0  0  0  0  0  0  0  0  0  0  0
   -1.2932   -2.0627    0.0000 C   0  0  0  0  0  0  0  0  0  0  0  0
   -0.5787   -2.4752    0.0000 C   0  0  0  0  0  0  0  0  0  0  0  0
  1  8  1  0
  4  3  1  1
  4  5  1  0
  4  6  1  0
  5  7  1  0
  6  2  1  1
  6  8  1  0
  7  9  2  0
  7 10  1  0
  9 11  1  0
 10 12  2  0
 11 13  2  0
 12 13  1  0
M  END
>  <DRUGBANK_ID>  (1) 
DB04415

>  <SECONDARY_ACCESSION_NUMBERS>  (1) 
EXPT02589

>  <COMMON_NAME>  (1) 
3-amino-1-chloro-4-phenyl-butanol-2-yl

>  <CAS_NUMBER>  (1) 
160233-25-0

>  <SYNONYMS>  (1) 
(2R,3S)-3-amino-1-chloro-4-phenylbutan-2-ol

$$$$
