STN
     RDKit          2D

 13 12  0  0  0  0  0  0  0  0999 V2000
   -2.0614   -0.4590    0.0000 C   0  0  0  0  0  0  0  0  0  0  0  0
   -1.3470   -0.0465    0.0000 C   0  0  0  0  0  0  0  0  0  0  0  0
    0.7965   -0.4590    0.0000 C   0  0  0  0  0  0  0  0  0  0  0  0
    0.0820   -0.0465    0.0000 C   0  0  0  0  0  0  0  0  0  0  0  0
   -0.6325   -0.4590    0.0000 C   0  0  0  0  0  0  0  0  0  0  0  0
   -1.3470    0.7785    0.0000 C   0  0  0  0  0  0  0  0  0  0  0  0
    0.0820    0.7785    0.0000 C   0  0  0  0  0  0  0  0  0  0  0  0
    2.2254   -0.4590    0.0000 C   0  0  0  0  0  0  0  0  0  0  0  0
    1.5109    0.7785    0.0000 O   0  0  0  0  0  0  0  0  0  0  0  0
    1.5109   -0.0465    0.0000 N   0  0  0  0  0  0  0  0  0  0  0  0
    2.9399   -0.0465    0.0000 O   0  0  0  0  0  0  0  0  0  0  0  0
   -0.6325    1.1910    0.0000 O   0  0  0  0  0  0  0  0  0  0  0  0
    0.7965    1.1910    0.0000 O   0  0  0  0  0  0  0  0  0  0  0  0
  1  2  1  0
  2  5  1  0
  2  6  1  0
  4  3  1  1
  3 10  1  0
  4  5  1  0
  4  7  1  0
  7 12  2  0
  7 13  1  0
  8 10  1  0
  8 11  2  0
  9 10  1  0
M  END
>  <DRUGBANK_ID>  (1) 
DB03683

>  <SECONDARY_ACCESSION_NUMBERS>  (1) 
EXPT02969

>  <COMMON_NAME>  (1) 
2-{[Formyl(Hydroxy)Amino]Methyl}-4-Methylpentanoic Acid

$$$$
