
     RDKit          2D

 12  8  0  0  0  0  0  0  0  0999 V2000
   -0.5045    1.1269    0.0000 C   0  0  0  0  0  0  0  0  0  0  0  0
   -2.1545    1.1269    0.0000 O   0  0  0  0  0  0  0  0  0  0  0  0
   -1.3295    1.9519    0.0000 O   0  0  0  0  0  0  0  0  0  0  0  0
   -1.3295    0.3019    0.0000 O   0  0  0  0  0  0  0  0  0  0  0  0
    0.3204   -0.3019    0.0000 O   0  0  0  0  0  0  0  0  0  0  0  0
    0.6224    0.8250    0.0000 O   0  0  0  0  0  0  0  0  0  0  0  0
   -0.8065    0.0000    0.0000 O   0  0  0  0  0  0  0  0  0  0  0  0
   -1.3295    1.1269    0.0000 P   0  0  0  0  0  0  0  0  0  0  0  0
   -0.0920    0.4125    0.0000 P   0  0  0  0  0  0  0  0  0  0  0  0
    2.9795    0.7697    0.0000 O   0  0  0  0  0  0  0  0  0  0  0  0
   -0.9583   -1.9519    0.0000 O   0  0  0  0  0  0  0  0  0  0  0  0
   -2.9795    1.1269    0.0000 Tc  0  0  0  0  0 15  0  0  0  0  0  0
  8  1  1  0
  8  2  1  0
  8  3  1  0
  8  4  2  0
  9  1  1  0
  9  5  1  0
  9  6  1  0
  9  7  2  0
M  CHG  5   2  -1   3  -1   5  -1   6  -1  12   4
M  ISO  1  12  98
M  END
>  <DRUGBANK_ID>  (1) 
DB09138

>  <COMMON_NAME>  (1) 
Technetium Tc-99m medronate

>  <CAS_NUMBER>  (1) 
121524-79-6

>  <UNII>  (1) 
X89XV46R07

>  <SYNONYMS>  (1) 
99m Tc medronate; 99m Tc-medronate; 99mTc medronate; 99mTc-medronate; AN-MDP; Cis-Mdp; Tc 99m Mdp; Tc-99m Mdp; Technetium (99mTc) medronic acid; Technetium (99mTc) Methylenediphosphonate; Technetium 99mTc medronic acid; Technetium methylene diphosphonate; Technetium Tc 99m medronate; Technetium Tc 99m medronic acid; Technetium Tc 99M Mpi Mdp

$$$$
