
     RDKit          2D

 26 28  0  0  0  0  0  0  0  0999 V2000
   -0.0921    0.0381    0.0000 Zn  0  0  0  0  0 15  0  0  0  0  0  0
   -0.7822   -0.3602    0.0000 N   0  0  0  0  0  0  0  0  0  0  0  0
   -0.0921    0.8348    0.0000 N   0  0  0  0  0  0  0  0  0  0  0  0
   -2.0595   -0.4934    0.0000 N   0  0  0  0  0  0  0  0  0  0  0  0
   -0.6155    2.0076    0.0000 N   0  0  0  0  0  0  0  0  0  0  0  0
   -2.7256   -3.4425    0.0000 N   0  0  0  0  0  0  0  0  0  0  0  0
    1.6054    4.0591    0.0000 N   0  0  0  0  0  0  0  0  0  0  0  0
   -1.4675   -4.0097    0.0000 N   0  0  0  0  0  0  0  0  0  0  0  0
    2.7257    3.2531    0.0000 N   0  0  0  0  0  0  0  0  0  0  0  0
   -1.4722    0.8348    0.0000 C   0  0  0  0  0  0  0  0  0  0  0  0
   -1.4722    0.0381    0.0000 C   0  0  0  0  0  0  0  0  0  0  0  0
   -0.7822    1.2332    0.0000 C   0  0  0  0  0  0  0  0  0  0  0  0
   -0.9489   -1.1346    0.0000 C   0  0  0  0  0  0  0  0  0  0  0  0
    0.4950    1.3664    0.0000 C   0  0  0  0  0  0  0  0  0  0  0  0
   -1.7367   -1.2167    0.0000 C   0  0  0  0  0  0  0  0  0  0  0  0
    0.1722    2.0897    0.0000 C   0  0  0  0  0  0  0  0  0  0  0  0
   -0.4542   -1.7949    0.0000 C   0  0  0  0  0  0  0  0  0  0  0  0
    1.3143    1.2682    0.0000 C   0  0  0  0  0  0  0  0  0  0  0  0
   -2.0845   -1.9648    0.0000 C   0  0  0  0  0  0  0  0  0  0  0  0
    0.6463    2.7650    0.0000 C   0  0  0  0  0  0  0  0  0  0  0  0
   -1.6053   -2.6365    0.0000 C   0  0  0  0  0  0  0  0  0  0  0  0
    1.4675    2.6858    0.0000 C   0  0  0  0  0  0  0  0  0  0  0  0
   -0.7846   -2.5510    0.0000 C   0  0  0  0  0  0  0  0  0  0  0  0
    1.8037    1.9324    0.0000 C   0  0  0  0  0  0  0  0  0  0  0  0
   -1.9328   -3.3628    0.0000 C   0  0  0  0  0  0  0  0  0  0  0  0
    1.9329    3.3327    0.0000 C   0  0  0  0  0  0  0  0  0  0  0  0
  2 11  1  0
  2 13  1  0
  3 12  1  0
  3 14  1  0
  4 11  2  0
  4 15  1  0
  5 12  2  0
  5 16  1  0
  6 25  2  0
  7 26  2  0
  8 25  1  0
  9 26  1  0
 10 11  1  0
 10 12  1  0
 13 15  2  0
 13 17  1  0
 14 16  2  0
 14 18  1  0
 15 19  1  0
 16 20  1  0
 17 23  2  0
 18 24  2  0
 19 21  2  0
 20 22  2  0
 21 23  1  0
 21 25  1  0
 22 24  1  0
 22 26  1  0
M  CHG  5   1   2   2  -1   3  -1   6   1   7   1
M  END
>  <DRUGBANK_ID>  (1) 
DB04008

>  <SECONDARY_ACCESSION_NUMBERS>  (1) 
EXPT00628

>  <COMMON_NAME>  (1) 
Zinc;[amino-[2-[[5-[amino(azaniumylidene)methyl]benzimidazol-1-id-2-yl]methyl]benzimidazol-1-id-5-yl]methylidene]azanium

>  <SYNONYMS>  (1) 
bis(5-amidino-benzimidazolyl)methane zinc

$$$$
