6C3
     RDKit          2D

 24 27  0  0  0  0  0  0  0  0999 V2000
   -1.9886   -4.2400    0.0000 C   0  0  0  0  0  0  0  0  0  0  0  0
   -1.9886   -3.4150    0.0000 C   0  0  0  0  0  0  0  0  0  0  0  0
   -2.7031   -3.0025    0.0000 C   0  0  0  0  0  0  0  0  0  0  0  0
   -1.2742   -3.0025    0.0000 C   0  0  0  0  0  0  0  0  0  0  0  0
   -0.5597   -3.4150    0.0000 C   0  0  0  0  0  0  0  0  0  0  0  0
   -0.5597   -4.2400    0.0000 C   0  0  0  0  0  0  0  0  0  0  0  0
   -1.9886   -1.7650    0.0000 C   0  0  0  0  0  0  0  0  0  0  0  0
   -1.9886   -0.9400    0.0000 C   0  0  0  0  0  0  0  0  0  0  0  0
   -1.2742   -0.5275    0.0000 C   0  0  0  0  0  0  0  0  0  0  0  0
   -0.5597   -0.9400    0.0000 C   0  0  0  0  0  0  0  0  0  0  0  0
   -0.5597   -1.7650    0.0000 C   0  0  0  0  0  0  0  0  0  0  0  0
   -1.2742   -2.1775    0.0000 C   0  0  0  0  0  0  0  0  0  0  0  0
    0.9084   -3.3381    0.0000 C   0  0  0  0  0  0  0  0  0  0  0  0
    2.2810   -2.8112    0.0000 C   0  0  0  0  0  0  0  0  0  0  0  0
   -3.4176   -3.4150    0.0000 C   0  0  0  0  0  0  0  0  0  0  0  0
   -3.4176   -4.2400    0.0000 C   0  0  0  0  0  0  0  0  0  0  0  0
   -2.7031   -4.6525    0.0000 C   0  0  0  0  0  0  0  0  0  0  0  0
   -1.2742   -4.6525    0.0000 N   0  0  0  0  0  0  0  0  0  0  0  0
   -4.1321   -3.0025    0.0000 Cl  0  0  0  0  0  0  0  0  0  0  0  0
    0.1548   -4.6525    0.0000 O   0  0  0  0  0  0  0  0  0  0  0  0
    0.1548   -3.0025    0.0000 C   0  0  0  0  0  0  0  0  0  0  0  0
    0.2410   -2.1821    0.0000 O   0  0  0  0  0  0  0  0  0  0  0  0
    1.0480   -2.0105    0.0000 N   0  0  0  0  0  0  0  0  0  0  0  0
    1.4605   -2.7250    0.0000 C   0  0  0  0  0  0  0  0  0  0  0  0
  1  2  1  0
  1 17  2  0
  1 18  1  0
  2  3  2  0
  2  4  1  0
  3 15  1  0
  4 12  1  0
  4  5  2  0
  5 21  1  0
  5  6  1  0
  6 18  1  0
  6 20  2  0
  7  8  2  0
  7 12  1  0
  8  9  1  0
  9 10  2  0
 10 11  1  0
 11 12  2  0
 13 21  2  0
 13 24  1  0
 14 24  1  0
 15 19  1  0
 15 16  2  0
 16 17  1  0
 21 22  1  0
 22 23  1  0
 23 24  2  0
M  END
>  <DRUGBANK_ID>  (1) 
DB07202

>  <COMMON_NAME>  (1) 
6-CHLORO-3-(3-METHYLISOXAZOL-5-YL)-4-PHENYLQUINOLIN-2(1H)-ONE

$$$$
