68867
     RDKit          2D

 29 31  0  0  1  0  0  0  0  0999 V2000
    5.1266   -0.5865    0.0000 O   0  0  0  0  0  0  0  0  0  0  0  0
    6.3642   -1.3010    0.0000 O   0  0  0  0  0  0  0  0  0  0  0  0
    7.6017    2.2712    0.0000 O   0  0  0  0  0  0  0  0  0  0  0  0
    8.8393    1.5568    0.0000 O   0  0  0  0  0  0  0  0  0  0  0  0
    2.6516    0.8422    0.0000 N   0  0  0  0  0  0  0  0  0  0  0  0
    5.1266    0.8422    0.0000 N   0  0  0  0  0  0  0  0  0  0  0  0
    8.0142    1.5568    0.0000 N   0  0  0  0  0  0  0  0  0  0  0  0
    8.8393    0.1279    0.0000 N   0  0  0  0  0  0  0  0  0  0  0  0
    1.4140    1.5568    0.0000 C   0  0  0  0  0  0  0  0  0  0  0  0
    1.8265    0.8422    0.0000 C   0  0  0  0  0  0  0  0  0  0  0  0
    4.3016    0.8422    0.0000 C   0  0  0  0  0  0  0  0  0  0  0  0
    3.0641    0.1279    0.0000 C   0  0  0  0  0  0  0  0  0  0  0  0
    3.0641    1.5568    0.0000 C   0  0  0  0  0  0  0  0  0  0  0  0
    3.8892    0.1279    0.0000 C   0  0  0  0  0  0  0  0  0  0  0  0
    3.8892    1.5568    0.0000 C   0  0  0  0  0  0  0  0  0  0  0  0
    0.5890    1.5568    0.0000 C   0  0  0  0  0  0  0  0  0  0  0  0
    1.8265    2.2712    0.0000 C   0  0  0  0  0  0  0  0  0  0  0  0
    0.1765    2.2712    0.0000 C   0  0  0  0  0  0  0  0  0  0  0  0
    1.4140    2.9857    0.0000 C   0  0  0  0  0  0  0  0  0  0  0  0
    0.5890    2.9857    0.0000 C   0  0  0  0  0  0  0  0  0  0  0  0
    5.5391    0.1279    0.0000 C   0  0  0  0  0  0  0  0  0  0  0  0
    6.3642    0.1279    0.0000 C   0  0  0  0  0  0  0  0  0  0  0  0
    6.7766   -0.5865    0.0000 C   0  0  0  0  0  0  0  0  0  0  0  0
    6.7766    0.8422    0.0000 C   0  0  0  0  0  0  0  0  0  0  0  0
    7.6017    0.8422    0.0000 C   0  0  0  0  0  0  0  0  0  0  0  0
    7.6017   -0.5865    0.0000 C   0  0  0  0  0  0  0  0  0  0  0  0
    8.0142    0.1279    0.0000 C   0  0  0  0  0  0  0  0  0  0  0  0
    6.7766   -2.0156    0.0000 C   0  0  0  0  0  0  0  0  0  0  0  0
    6.3642   -2.7301    0.0000 C   0  0  0  0  0  0  0  0  0  0  0  0
  1 21  2  0
  2 23  1  0
  2 28  1  0
  3  7  1  0
  4  7  2  0
  5 10  1  0
  5 12  1  0
  5 13  1  0
  6 11  1  0
  6 21  1  0
  7 25  1  0
  8 27  1  0
  9 10  1  0
  9 16  1  0
  9 17  1  0
 11 14  1  0
 11 15  1  0
 12 14  1  0
 13 15  1  0
 16 18  1  0
 17 19  1  0
 18 20  1  0
 19 20  2  0
 21 22  1  0
 22 23  2  0
 22 24  1  0
 23 26  1  0
 24 25  2  0
 25 27  1  0
 26 27  2  0
 28 29  1  0
M  CHG  2   3  -1   7   1
M  END
>  <DRUGBANK_ID>  (1) 
DB08810

>  <COMMON_NAME>  (1) 
Cinitapride

>  <CAS_NUMBER>  (1) 
66564-14-5

>  <UNII>  (1) 
R8I97I2L24

>  <SYNONYMS>  (1) 
4-Amino-N-(1-(3-cyclohexen-1-ylmethyl)-4-piperidyl)-2-ethoxy-5-nitrobenzamide; Cinitaprida; Cinitapride; Cinitapridum

$$$$
