
     RDKit          2D

 24 26  0  0  0  0  0  0  0  0999 V2000
    0.7387    2.4621    0.0000 C   0  0  0  0  0  0  0  0  0  0  0  0
    0.7386    3.2738    0.0000 O   0  0  0  0  0  0  0  0  0  0  0  0
    1.4161    2.0154    0.0000 C   0  0  0  0  0  0  0  0  0  0  0  0
    2.1426    2.4066    0.0000 C   0  0  0  0  0  0  0  0  0  0  0  0
   -0.0123    2.0578    0.0000 N   0  0  0  0  0  0  0  0  0  0  0  0
   -0.0123   -0.4172    0.0000 N   0  0  0  0  0  0  0  0  0  0  0  0
   -0.0123    1.2327    0.0000 C   0  0  0  0  0  0  0  0  0  0  0  0
    0.7022    0.8202    0.0000 C   0  0  0  0  0  0  0  0  0  0  0  0
   -0.7266    0.8202    0.0000 C   0  0  0  0  0  0  0  0  0  0  0  0
   -0.7142    2.4912    0.0000 C   0  0  0  0  0  0  0  0  0  0  0  0
   -0.7266   -0.0047    0.0000 C   0  0  0  0  0  0  0  0  0  0  0  0
    0.7022   -0.0047    0.0000 C   0  0  0  0  0  0  0  0  0  0  0  0
   -0.0123   -1.2424    0.0000 C   0  0  0  0  0  0  0  0  0  0  0  0
    0.7022   -1.6549    0.0000 C   0  0  0  0  0  0  0  0  0  0  0  0
    0.7022   -2.4799    0.0000 C   0  0  0  0  0  0  0  0  0  0  0  0
   -1.4406    2.1001    0.0000 C   0  0  0  0  0  0  0  0  0  0  0  0
   -0.6897    3.3159    0.0000 C   0  0  0  0  0  0  0  0  0  0  0  0
   -2.1426    2.5336    0.0000 C   0  0  0  0  0  0  0  0  0  0  0  0
   -1.3917    3.7495    0.0000 C   0  0  0  0  0  0  0  0  0  0  0  0
   -2.1182    3.3582    0.0000 C   0  0  0  0  0  0  0  0  0  0  0  0
    1.3696   -2.9648    0.0000 S   0  0  0  0  0  0  0  0  0  0  0  0
    1.1147   -3.7495    0.0000 C   0  0  0  0  0  0  0  0  0  0  0  0
    0.0347   -2.9649    0.0000 C   0  0  0  0  0  0  0  0  0  0  0  0
    0.2895   -3.7495    0.0000 C   0  0  0  0  0  0  0  0  0  0  0  0
  1  5  1  0
  2  1  2  0
  3  1  1  0
  3  4  1  0
  5  7  1  0
  8  7  1  0
  9  7  1  0
 10  5  1  0
 11  6  1  0
 11  9  1  0
 12  6  1  0
 12  8  1  0
 13  6  1  0
 14 13  1  0
 15 14  1  0
 16 10  2  0
 17 10  1  0
 18 16  1  0
 19 17  2  0
 20 18  2  0
 20 19  1  0
 21 15  1  0
 22 21  1  0
 23 15  2  0
 24 22  2  0
 24 23  1  0
M  END
>  <DRUGBANK_ID>  (1) 
DB09180

>  <COMMON_NAME>  (1) 
Thienylfentanyl

>  <CAS_NUMBER>  (1) 
1165-22-6

>  <UNII>  (1) 
954535Y32Y

>  <SYNONYMS>  (1) 
Thiofentanyl

$$$$
