TQ6
     RDKit          2D

 25 28  0  0  0  0  0  0  0  0999 V2000
   -2.5498    0.9981    0.0000 C   0  0  0  0  0  0  0  0  0  0  0  0
   -3.2643    1.4106    0.0000 N   0  0  0  0  0  0  0  0  0  0  0  0
   -3.2643    2.2356    0.0000 C   0  0  0  0  0  0  0  0  0  0  0  0
   -2.5498    2.6481    0.0000 N   0  0  0  0  0  0  0  0  0  0  0  0
   -0.4064    1.4106    0.0000 C   0  0  0  0  0  0  0  0  0  0  0  0
   -1.1209    0.9981    0.0000 C   0  0  0  0  0  0  0  0  0  0  0  0
   -1.8354    1.4106    0.0000 C   0  0  0  0  0  0  0  0  0  0  0  0
   -1.8354    2.2356    0.0000 C   0  0  0  0  0  0  0  0  0  0  0  0
   -1.1209    2.6481    0.0000 C   0  0  0  0  0  0  0  0  0  0  0  0
   -0.4064    2.2356    0.0000 C   0  0  0  0  0  0  0  0  0  0  0  0
   -3.9788    2.6481    0.0000 N   0  0  0  0  0  0  0  0  0  0  0  0
   -2.5498    0.1731    0.0000 N   0  0  0  0  0  0  0  0  0  0  0  0
   -1.1209    0.1731    0.0000 S   0  0  0  0  0  0  0  0  0  0  0  0
   -0.4064   -0.2394    0.0000 C   0  0  0  0  0  0  0  0  0  0  0  0
    0.3081    0.1731    0.0000 C   0  0  0  0  0  0  0  0  0  0  0  0
    1.0225   -0.2394    0.0000 C   0  0  0  0  0  0  0  0  0  0  0  0
    1.0225   -1.0644    0.0000 C   0  0  0  0  0  0  0  0  0  0  0  0
    0.3081   -1.4769    0.0000 C   0  0  0  0  0  0  0  0  0  0  0  0
   -0.4064   -1.0644    0.0000 C   0  0  0  0  0  0  0  0  0  0  0  0
    2.4515   -2.7144    0.0000 C   0  0  0  0  0  0  0  0  0  0  0  0
    1.7370   -2.3019    0.0000 C   0  0  0  0  0  0  0  0  0  0  0  0
    1.7370   -1.4769    0.0000 N   0  0  0  0  0  0  0  0  0  0  0  0
    2.4515   -1.0644    0.0000 C   0  0  0  0  0  0  0  0  0  0  0  0
    3.1659   -1.4769    0.0000 C   0  0  0  0  0  0  0  0  0  0  0  0
    3.1659   -2.3019    0.0000 O   0  0  0  0  0  0  0  0  0  0  0  0
  1  2  2  0
  1  7  1  0
  1 12  1  0
  2  3  1  0
  3  4  2  0
  3 11  1  0
  4  8  1  0
  5  6  1  0
  5 10  2  0
  6  7  2  0
  6 13  1  0
  7  8  1  0
  8  9  2  0
  9 10  1  0
 13 14  1  0
 14 15  2  0
 14 19  1  0
 15 16  1  0
 16 17  2  0
 17 18  1  0
 17 22  1  0
 18 19  2  0
 20 21  1  0
 20 25  1  0
 21 22  1  0
 22 23  1  0
 23 24  1  0
 24 25  1  0
M  END
>  <DRUGBANK_ID>  (1) 
DB02001

>  <SECONDARY_ACCESSION_NUMBERS>  (1) 
EXPT03102

>  <COMMON_NAME>  (1) 
5-(4-Morpholin-4-Yl-Phenylsulfanyl)-2,4-Quinazolinediamine

$$$$
