CBP
     RDKit          2D

 28 30  0  0  0  0  0  0  0  0999 V2000
   -3.7455   -0.0884    0.0000 O   0  0  0  0  0  0  0  0  0  0  0  0
   -2.9331    0.0548    0.0000 N   0  0  0  0  0  0  0  0  0  0  0  0
   -2.4028   -0.5772    0.0000 C   0  0  0  0  0  0  0  0  0  0  0  0
   -2.6849   -1.3524    0.0000 O   0  0  0  0  0  0  0  0  0  0  0  0
   -1.5903   -0.4339    0.0000 C   0  0  0  0  0  0  0  0  0  0  0  0
   -1.0600   -1.0659    0.0000 C   0  0  0  0  0  0  0  0  0  0  0  0
   -0.3455   -1.4784    0.0000 C   0  0  0  0  0  0  0  0  0  0  0  0
   -0.3455   -2.3034    0.0000 C   0  0  0  0  0  0  0  0  0  0  0  0
   -1.0600   -2.7159    0.0000 O   0  0  0  0  0  0  0  0  0  0  0  0
   -1.7745   -2.3034    0.0000 C   0  0  0  0  0  0  0  0  0  0  0  0
   -1.7745   -1.4784    0.0000 C   0  0  0  0  0  0  0  0  0  0  0  0
   -0.5297   -0.4339    0.0000 S   0  0  0  0  0  0  0  0  0  0  0  0
    0.1023   -0.9642    0.0000 O   0  0  0  0  0  0  0  0  0  0  0  0
   -1.1617    0.0964    0.0000 O   0  0  0  0  0  0  0  0  0  0  0  0
    0.0006    0.1981    0.0000 C   0  0  0  0  0  0  0  0  0  0  0  0
   -0.2816    0.9733    0.0000 C   0  0  0  0  0  0  0  0  0  0  0  0
    0.2487    1.6053    0.0000 C   0  0  0  0  0  0  0  0  0  0  0  0
    1.0612    1.4621    0.0000 C   0  0  0  0  0  0  0  0  0  0  0  0
    1.3434    0.6868    0.0000 C   0  0  0  0  0  0  0  0  0  0  0  0
    0.8131    0.0548    0.0000 C   0  0  0  0  0  0  0  0  0  0  0  0
    1.5915    2.0941    0.0000 O   0  0  0  0  0  0  0  0  0  0  0  0
    2.4040    1.9508    0.0000 C   0  0  0  0  0  0  0  0  0  0  0  0
    2.9343    2.5828    0.0000 C   0  0  0  0  0  0  0  0  0  0  0  0
    3.7467    2.4395    0.0000 C   0  0  0  0  0  0  0  0  0  0  0  0
    4.0289    1.6643    0.0000 C   0  0  0  0  0  0  0  0  0  0  0  0
    3.4986    1.0323    0.0000 C   0  0  0  0  0  0  0  0  0  0  0  0
    2.6861    1.1755    0.0000 C   0  0  0  0  0  0  0  0  0  0  0  0
    4.8414    1.5210    0.0000 Cl  0  0  0  0  0  0  0  0  0  0  0  0
  1  2  1  0
  2  3  1  0
  3  4  2  0
  3  5  1  0
  5  6  1  0
  6  7  1  0
  6 11  1  0
  6 12  1  0
  7  8  1  0
  8  9  1  0
  9 10  1  0
 10 11  1  0
 12 13  2  0
 12 14  2  0
 12 15  1  0
 15 16  2  0
 15 20  1  0
 16 17  1  0
 17 18  2  0
 18 19  1  0
 18 21  1  0
 19 20  2  0
 21 22  1  0
 22 23  2  0
 22 27  1  0
 23 24  1  0
 24 25  2  0
 25 26  1  0
 25 28  1  0
 26 27  2  0
M  END
>  <DRUGBANK_ID>  (1) 
DB02049

>  <SECONDARY_ACCESSION_NUMBERS>  (1) 
EXPT00849

>  <COMMON_NAME>  (1) 
2-{4-[4-(4-Chloro-Phenoxy)-Benzenesulfonyl]-Tetrahydro-Pyran-4-Yl}-N-Hydroxy-Acetamide

$$$$
