
     RDKit          2D

 17 16  0  0  1  0  0  0  0  0999 V2000
   11.2220   -9.2159    0.0000 P   0  0  0  0  0  0  0  0  0  0  0  0
   10.5075   -9.6285    0.0000 O   0  0  0  0  0  0  0  0  0  0  0  0
   11.6345   -9.9304    0.0000 O   0  0  0  0  0  0  0  0  0  0  0  0
   11.9365   -8.8034    0.0000 O   0  0  0  0  0  0  0  0  0  0  0  0
    8.3640   -8.3909    0.0000 O   0  0  0  0  0  0  0  0  0  0  0  0
    7.6496  -10.4535    0.0000 O   0  0  0  0  0  0  0  0  0  0  0  0
    9.0786  -10.4535    0.0000 O   0  0  0  0  0  0  0  0  0  0  0  0
    6.9351   -8.3909    0.0000 O   0  0  0  0  0  0  0  0  0  0  0  0
    5.5061   -9.2159    0.0000 O   0  0  0  0  0  0  0  0  0  0  0  0
   10.8095   -8.5015    0.0000 O   0  0  0  0  0  0  0  0  0  0  0  0
    6.2206  -10.4535    0.0000 O   0  0  0  0  0  0  0  0  0  0  0  0
    8.3640   -9.2159    0.0000 C   0  0  0  0  0  0  0  0  0  0  0  0
    7.6496   -9.6285    0.0000 C   0  0  0  0  0  0  0  0  0  0  0  0
    9.0786   -9.6285    0.0000 C   0  0  0  0  0  0  0  0  0  0  0  0
    6.9351   -9.2159    0.0000 C   0  0  0  0  0  0  0  0  0  0  0  0
    9.7930   -9.2159    0.0000 C   0  0  0  0  0  0  0  0  0  0  0  0
    6.2206   -9.6285    0.0000 C   0  0  0  0  0  0  0  0  0  0  0  0
  1  2  1  0
  1  3  1  0
  1  4  1  0
  1 10  2  0
  2 16  1  0
  9 17  1  0
 11 17  2  0
 12  5  1  6
 12 13  1  0
 12 14  1  0
 13  6  1  6
 13 15  1  0
 14  7  1  1
 14 16  1  0
 15  8  1  6
 15 17  1  0
M  END
>  <DRUGBANK_ID>  (1) 
DB02076

>  <SECONDARY_ACCESSION_NUMBERS>  (1) 
EXPT00290

>  <COMMON_NAME>  (1) 
6-phospho-D-gluconic acid

>  <CAS_NUMBER>  (1) 
921-62-0

>  <UNII>  (1) 
W31WK7B8U0

$$$$
