
     RDKit          2D

 29 32  0  0  0  0  0  0  0  0999 V2000
   -2.8732   -0.3288    0.0000 C   0  0  0  0  0  0  0  0  0  0  0  0
   -3.5958   -0.7255    0.0000 C   0  0  0  0  0  0  0  0  0  0  0  0
   -3.5958   -1.5646    0.0000 C   0  0  0  0  0  0  0  0  0  0  0  0
   -2.8732   -1.9768    0.0000 C   0  0  0  0  0  0  0  0  0  0  0  0
   -2.1735   -1.5646    0.0000 C   0  0  0  0  0  0  0  0  0  0  0  0
   -1.4586   -1.9768    0.0000 C   0  0  0  0  0  0  0  0  0  0  0  0
   -2.1735   -0.7255    0.0000 C   0  0  0  0  0  0  0  0  0  0  0  0
   -1.4586    0.4792    0.0000 C   0  0  0  0  0  0  0  0  0  0  0  0
   -0.7278    0.8992    0.0000 C   0  0  0  0  0  0  0  0  0  0  0  0
   -0.0280    0.4792    0.0000 C   0  0  0  0  0  0  0  0  0  0  0  0
   -0.0280   -0.3288    0.0000 C   0  0  0  0  0  0  0  0  0  0  0  0
    0.7566   -0.5856    0.0000 C   0  0  0  0  0  0  0  0  0  0  0  0
    1.2229    0.0674    0.0000 C   0  0  0  0  0  0  0  0  0  0  0  0
    0.7566    0.7356    0.0000 C   0  0  0  0  0  0  0  0  0  0  0  0
   -0.0280    1.3266    0.0000 C   0  0  0  0  0  0  0  0  0  0  0  0
   -2.1735    0.0829    0.0000 C   0  0  0  0  0  0  0  0  0  0  0  0
   -4.3291   -1.9955    0.0000 O   0  0  0  0  0  0  0  0  0  0  0  0
   -1.4586   -0.3288    0.0000 C   0  0  0  0  0  0  0  0  0  0  0  0
    0.0421    1.9955    0.0000 C   0  0  0  0  0  0  0  0  0  0  0  0
   -0.7278   -0.7255    0.0000 C   0  0  0  0  0  0  0  0  0  0  0  0
   -0.7278   -1.5646    0.0000 C   0  0  0  0  0  0  0  0  0  0  0  0
    2.1857    1.5830    0.0000 C   0  0  0  0  0  0  0  0  0  0  0  0
    3.6145    0.7581    0.0000 C   0  0  0  0  0  0  0  0  0  0  0  0
    1.4711    1.9955    0.0000 C   0  0  0  0  0  0  0  0  0  0  0  0
    0.7566    1.5830    0.0000 C   0  0  0  0  0  0  0  0  0  0  0  0
    4.3291    1.9955    0.0000 C   0  0  0  0  0  0  0  0  0  0  0  0
    2.9000    1.9955    0.0000 C   0  0  0  0  0  0  0  0  0  0  0  0
    3.6145    1.5830    0.0000 C   0  0  0  0  0  0  0  0  0  0  0  0
    4.3291    1.1706    0.0000 O   0  0  0  0  0  0  0  0  0  0  0  0
  1  7  1  0
  2  1  1  0
  3  4  1  0
  3  2  1  0
  3 17  1  1
  4  5  1  0
  5  7  1  0
  6 21  1  0
  6  5  2  0
  7 18  1  0
  7 16  1  1
 18  8  1  1
  8  9  1  0
  9 10  1  0
 10 15  1  1
 11 10  1  0
 11 12  1  1
 14 13  1  1
 13 12  1  0
 14 10  1  0
 20 11  1  0
 20 18  1  0
 20 21  1  6
 23 28  1  0
 24 22  1  0
 24 25  1  0
 25 14  1  0
 25 19  1  6
 26 28  1  0
 27 22  1  0
 28 27  1  0
 28 29  1  0
M  END
>  <DRUGBANK_ID>  (1) 
DB04705

>  <COMMON_NAME>  (1) 
25-Hydroxycholesterol

>  <CAS_NUMBER>  (1) 
2140-46-7

>  <UNII>  (1) 
767JTD2N31

>  <SYNONYMS>  (1) 
5-Cholestene-3beta,25-diol; Cholest-5-ene-3beta,25-diol

$$$$
