CQW
     RDKit          2D

 19 22  0  0  0  0  0  0  0  0999 V2000
    1.4332   -1.4651    0.0000 C   0  0  0  0  0  0  0  0  0  0  0  0
    2.1477   -0.2276    0.0000 C   0  0  0  0  0  0  0  0  0  0  0  0
    0.7188   -1.0526    0.0000 C   0  0  0  0  0  0  0  0  0  0  0  0
   -1.4246    1.0099    0.0000 C   0  0  0  0  0  0  0  0  0  0  0  0
    1.2617   -2.2721    0.0000 N   0  0  0  0  0  0  0  0  0  0  0  0
   -0.7102    1.4224    0.0000 C   0  0  0  0  0  0  0  0  0  0  0  0
   -0.7013   -1.4331    0.0000 Cl  0  0  0  0  0  0  0  0  0  0  0  0
    0.1057   -1.6046    0.0000 C   0  0  0  0  0  0  0  0  0  0  0  0
    0.4412   -2.3583    0.0000 C   0  0  0  0  0  0  0  0  0  0  0  0
    2.1477   -1.0526    0.0000 N   0  0  0  0  0  0  0  0  0  0  0  0
    0.7188   -0.2276    0.0000 C   0  0  0  0  0  0  0  0  0  0  0  0
    1.4332    0.1849    0.0000 N   0  0  0  0  0  0  0  0  0  0  0  0
    0.0043    0.1849    0.0000 N   0  0  0  0  0  0  0  0  0  0  0  0
   -0.7102   -0.2276    0.0000 C   0  0  0  0  0  0  0  0  0  0  0  0
   -1.4246    0.1849    0.0000 C   0  0  0  0  0  0  0  0  0  0  0  0
   -2.2093   -0.0701    0.0000 N   0  0  0  0  0  0  0  0  0  0  0  0
   -2.6942    0.5974    0.0000 C   0  0  0  0  0  0  0  0  0  0  0  0
   -2.2093    1.2648    0.0000 N   0  0  0  0  0  0  0  0  0  0  0  0
    0.0043    1.0099    0.0000 C   0  0  0  0  0  0  0  0  0  0  0  0
  1  3  2  0
  1  5  1  0
  1 10  1  0
  2 10  2  0
  2 12  1  0
  3  8  1  0
  3 11  1  0
  4  6  1  0
  4 15  2  0
  4 18  1  0
  5  9  1  0
  6 19  1  0
  7  8  1  0
  8  9  2  0
 11 12  2  0
 11 13  1  0
 13 14  1  0
 13 19  1  0
 14 15  1  0
 15 16  1  0
 16 17  2  0
 17 18  1  0
M  END
>  <DRUGBANK_ID>  (1) 
DB07585

>  <COMMON_NAME>  (1) 
5-(5-chloro-7H-pyrrolo[2,3-d]pyrimidin-4-yl)-4,5,6,7-tetrahydro-1H-imidazo[4,5-c]pyridine

$$$$
