
     RDKit          2D

  6  4  0  0  0  0  0  0  0  0999 V2000
    0.0000    0.8250    0.0000 O   0  0  0  0  0  0  0  0  0  0  0  0
   -0.0000   -0.8250    0.0000 O   0  0  0  0  0  0  0  0  0  0  0  0
   -0.8250    0.0000    0.0000 O   0  0  0  0  0  0  0  0  0  0  0  0
    0.8250   -0.0000    0.0000 O   0  0  0  0  0  0  0  0  0  0  0  0
    0.0000   -0.0000    0.0000 S   0  0  0  0  0  0  0  0  0  0  0  0
    3.1821    0.0000    0.0000 Zn  0  0  0  0  0 15  0  0  0  0  0  0
  5  1  1  0
  5  2  1  0
  5  3  2  0
  5  4  2  0
M  CHG  3   1  -1   2  -1   6   2
M  END
>  <DRUGBANK_ID>  (1) 
DB09322

>  <COMMON_NAME>  (1) 
Zinc sulfate

>  <CAS_NUMBER>  (1) 
7733-02-0

>  <UNII>  (1) 
0J6Z13X3WO

>  <SYNONYMS>  (1) 
Zinc sulfate (anhydrous); Zinc sulfate anhydrous; Zinc sulfate, anhydrous; Zinc sulphate; Zinc sulphate anhydrous; Zinc sulphate, anhydrous

$$$$
