
     RDKit          2D

 19 21  0  0  0  0  0  0  0  0999 V2000
    1.2674   -2.6117    0.0000 O   0  0  0  0  0  0  0  0  0  0  0  0
   -1.0502    0.3361    0.0000 C   0  0  0  0  0  0  0  0  0  0  0  0
   -0.6560   -1.2712    0.0000 C   0  0  0  0  0  0  0  0  0  0  0  0
   -0.4425   -0.4744    0.0000 C   0  0  0  0  0  0  0  0  0  0  0  0
   -2.0848   -2.0961    0.0000 C   0  0  0  0  0  0  0  0  0  0  0  0
   -2.4974   -1.3817    0.0000 C   0  0  0  0  0  0  0  0  0  0  0  0
    1.0685   -1.1004    0.0000 C   0  0  0  0  0  0  0  0  0  0  0  0
    0.8550   -1.8973    0.0000 C   0  0  0  0  0  0  0  0  0  0  0  0
   -0.9640    1.1564    0.0000 C   0  0  0  0  0  0  0  0  0  0  0  0
   -1.8039    0.6715    0.0000 C   0  0  0  0  0  0  0  0  0  0  0  0
   -0.8696   -2.0681    0.0000 C   0  0  0  0  0  0  0  0  0  0  0  0
    1.7829   -0.6879    0.0000 C   0  0  0  0  0  0  0  0  0  0  0  0
    1.7829    0.1369    0.0000 C   0  0  0  0  0  0  0  0  0  0  0  0
    2.4974    0.5493    0.0000 C   0  0  0  0  0  0  0  0  0  0  0  0
    1.0685    0.5493    0.0000 C   0  0  0  0  0  0  0  0  0  0  0  0
    2.4974    1.3742    0.0000 C   0  0  0  0  0  0  0  0  0  0  0  0
    1.0685    1.3742    0.0000 C   0  0  0  0  0  0  0  0  0  0  0  0
    1.7829    1.7867    0.0000 C   0  0  0  0  0  0  0  0  0  0  0  0
    1.7829    2.6117    0.0000 C   0  0  0  0  0  0  0  0  0  0  0  0
  1  8  2  0
  2  3  1  0
  2  4  1  0
  2  9  1  0
  2 10  1  0
  3  5  1  0
  3  8  1  0
  3 11  1  0
  4  6  1  0
  4  7  1  0
  5  6  1  0
  7  8  1  0
  7 12  2  0
 12 13  1  0
 13 14  2  0
 13 15  1  0
 14 16  1  0
 15 17  2  0
 16 18  2  0
 17 18  1  0
 18 19  1  0
M  END
>  <DRUGBANK_ID>  (1) 
DB11219

>  <COMMON_NAME>  (1) 
Enzacamene

>  <CAS_NUMBER>  (1) 
36861-47-9

>  <UNII>  (1) 
8I3XWY40L9

>  <SYNONYMS>  (1) 
(+/-)-3-(p-methylbenzylidene)camphor; 3-(4-methylbenzylidene)camphor; 3-(p-Methylbenzylidene)-DL-camphor; 4-MBC; 4-methylbenzylidene camphor; enzacam√®ne; Enzacamene; Enzacamene D-L form; enzacameno; enzacamenum; Methyl benzylidene camphor

$$$$
