
     RDKit          2D

 33 36  0  0  1  0  0  0  0  0999 V2000
   24.7206  -15.3322    0.0000 O   0  0  0  0  0  0  0  0  0  0  0  0
   22.5772  -12.4446    0.0000 O   0  0  0  0  0  0  0  0  0  0  0  0
   21.8627  -17.8072    0.0000 O   0  0  0  0  0  0  0  0  0  0  0  0
   27.5921  -16.1857    0.0000 O   0  0  0  0  0  0  0  0  0  0  0  0
   29.0620  -13.6622    0.0000 O   0  0  0  0  0  0  0  0  0  0  0  0
   24.0062  -11.6196    0.0000 O   0  0  0  0  0  0  0  0  0  0  0  0
   22.5772  -14.0946    0.0000 O   0  0  0  0  0  0  0  0  0  0  0  0
   21.8627  -16.1572    0.0000 O   0  0  0  0  0  0  0  0  0  0  0  0
   23.2917  -18.6322    0.0000 O   0  0  0  0  0  0  0  0  0  0  0  0
   26.1496  -13.6821    0.0000 O   0  0  0  0  0  0  0  0  0  0  0  0
   25.4352  -16.5697    0.0000 O   0  0  0  0  0  0  0  0  0  0  0  0
   25.4352  -14.9196    0.0000 C   0  0  0  0  0  0  0  0  0  0  0  0
   25.4352  -14.0946    0.0000 C   0  0  0  0  0  0  0  0  0  0  0  0
   26.1496  -15.3322    0.0000 C   0  0  0  0  0  0  0  0  0  0  0  0
   24.7206  -16.1572    0.0000 C   0  0  0  0  0  0  0  0  0  0  0  0
   23.2917  -12.8571    0.0000 C   0  0  0  0  0  0  0  0  0  0  0  0
   22.5772  -17.3947    0.0000 C   0  0  0  0  0  0  0  0  0  0  0  0
   27.6017  -15.3608    0.0000 C   0  0  0  0  0  0  0  0  0  0  0  0
   28.3491  -14.0775    0.0000 C   0  0  0  0  0  0  0  0  0  0  0  0
   23.2917  -13.6821    0.0000 C   0  0  0  0  0  0  0  0  0  0  0  0
   24.0062  -12.4446    0.0000 C   0  0  0  0  0  0  0  0  0  0  0  0
   23.2917  -17.8072    0.0000 C   0  0  0  0  0  0  0  0  0  0  0  0
   22.5772  -16.5697    0.0000 C   0  0  0  0  0  0  0  0  0  0  0  0
   26.8641  -14.0946    0.0000 C   0  0  0  0  0  0  0  0  0  0  0  0
   26.8641  -14.9196    0.0000 C   0  0  0  0  0  0  0  0  0  0  0  0
   24.7206  -13.6821    0.0000 C   0  0  0  0  0  0  0  0  0  0  0  0
   24.0062  -16.5697    0.0000 C   0  0  0  0  0  0  0  0  0  0  0  0
   28.3491  -14.9368    0.0000 C   0  0  0  0  0  0  0  0  0  0  0  0
   27.6017  -13.6535    0.0000 C   0  0  0  0  0  0  0  0  0  0  0  0
   24.7206  -12.8571    0.0000 C   0  0  0  0  0  0  0  0  0  0  0  0
   24.0062  -14.0946    0.0000 C   0  0  0  0  0  0  0  0  0  0  0  0
   23.2917  -16.1572    0.0000 C   0  0  0  0  0  0  0  0  0  0  0  0
   24.0062  -17.3947    0.0000 C   0  0  0  0  0  0  0  0  0  0  0  0
  1 15  1  0
  2 16  1  0
  3 17  1  0
  4 18  1  0
  5 19  1  0
  6 21  1  0
  7 20  1  0
  8 23  1  0
  9 22  1  0
 10 13  1  0
 10 24  1  0
 11 15  2  0
 12  1  1  1
 12 13  1  0
 12 14  1  0
 13 26  1  1
 14 25  1  0
 15 27  1  0
 16 20  2  0
 16 21  1  0
 17 22  2  0
 17 23  1  0
 18 25  1  0
 18 28  2  0
 19 28  1  0
 19 29  2  0
 20 31  1  0
 21 30  2  0
 22 33  1  0
 23 32  2  0
 24 25  2  0
 24 29  1  0
 26 30  1  0
 26 31  2  0
 27 32  1  0
 27 33  2  0
M  END
>  <DRUGBANK_ID>  (1) 
DB12116

>  <COMMON_NAME>  (1) 
Epigallocatechin gallate

>  <CAS_NUMBER>  (1) 
989-51-5

>  <UNII>  (1) 
BQM438CTEL

>  <SYNONYMS>  (1) 
EGCG; Epigallocatechin gallate; Epigallocatechin-3-gallate

$$$$
