316
     RDKit          2D

 11 11  0  0  0  0  0  0  0  0999 V2000
    2.3645   -2.1409    0.0000 O   0  0  0  0  0  0  0  0  0  0  0  0
    3.7934    1.1591    0.0000 O   0  0  0  0  0  0  0  0  0  0  0  0
    2.3645    1.1591    0.0000 N   0  0  0  0  0  0  0  0  0  0  0  0
    2.3645    0.3341    0.0000 C   0  0  0  0  0  0  0  0  0  0  0  0
    3.0790   -0.0784    0.0000 C   0  0  0  0  0  0  0  0  0  0  0  0
    1.6500   -0.0784    0.0000 C   0  0  0  0  0  0  0  0  0  0  0  0
    3.0790   -0.9034    0.0000 C   0  0  0  0  0  0  0  0  0  0  0  0
    1.6500   -0.9034    0.0000 C   0  0  0  0  0  0  0  0  0  0  0  0
    2.3645   -1.3159    0.0000 C   0  0  0  0  0  0  0  0  0  0  0  0
    3.0790    1.5716    0.0000 C   0  0  0  0  0  0  0  0  0  0  0  0
    3.0790    2.3966    0.0000 C   0  0  0  0  0  0  0  0  0  0  0  0
  1  9  1  0
  2 10  2  0
  3  4  1  0
  3 10  1  0
  4  5  2  0
  4  6  1  0
  5  7  1  0
  6  8  2  0
  7  9  2  0
  8  9  1  0
 10 11  1  0
M  END
>  <DRUGBANK_ID>  (1) 
DB00316

>  <SECONDARY_ACCESSION_NUMBERS>  (1) 
APRD00252

>  <COMMON_NAME>  (1) 
Acetaminophen

>  <CAS_NUMBER>  (1) 
103-90-2

>  <UNII>  (1) 
362O9ITL9D

>  <SYNONYMS>  (1) 
4-(Acetylamino)phenol; 4-acetamidophenol; 4'-hydroxyacetanilide; Acenol; Acetaminofén; Acetaminophen; Acétaminophène; APAP; N-acetyl-p-aminophenol; p-acetamidophenol; p-acetaminophenol; p-Acetylaminophenol; p-hydroxy-acetanilid; p-hydroxyacetanilide; p-hydroxyphenolacetamide; Paracétamol; Paracetamol; Paracetamolum

$$$$
