
     RDKit          2D

 15 15  0  0  0  0  0  0  0  0999 V2000
   -1.4289    4.1250    0.0000 C   0  0  0  0  0  0  0  0  0  0  0  0
   -2.2539    3.3000    0.0000 C   0  0  0  0  0  0  0  0  0  0  0  0
   -0.6039    3.3000    0.0000 C   0  0  0  0  0  0  0  0  0  0  0  0
    0.7145   -0.4125    0.0000 C   0  0  0  0  0  0  0  0  0  0  0  0
    1.4289    0.0000    0.0000 C   0  0  0  0  0  0  0  0  0  0  0  0
   -0.0000    0.0000    0.0000 C   0  0  0  0  0  0  0  0  0  0  0  0
    1.4289    0.8250    0.0000 C   0  0  0  0  0  0  0  0  0  0  0  0
   -0.7145    2.0625    0.0000 C   0  0  0  0  0  0  0  0  0  0  0  0
    0.0000    0.8250    0.0000 C   0  0  0  0  0  0  0  0  0  0  0  0
    0.7145    1.2375    0.0000 C   0  0  0  0  0  0  0  0  0  0  0  0
   -0.7145    1.2375    0.0000 C   0  0  0  0  0  0  0  0  0  0  0  0
   -1.4289    3.3000    0.0000 C   0  0  0  0  0  0  0  0  0  0  0  0
    0.7145    2.0625    0.0000 Cl  0  0  0  0  0  0  0  0  0  0  0  0
   -1.4289    2.4750    0.0000 N   0  0  0  0  0  0  0  0  0  0  0  0
   -1.4289    0.8250    0.0000 O   0  0  0  0  0  0  0  0  0  0  0  0
  5  4  2  0
  6  4  1  0
  7  5  1  0
  9  6  2  0
 10  7  2  0
 10  9  1  0
 11  8  1  0
 11  9  1  0
 12  1  1  0
 12  2  1  0
 12  3  1  0
 13 10  1  0
 14  8  1  0
 14 12  1  0
 15 11  1  0
M  END
>  <DRUGBANK_ID>  (1) 
DB12248

>  <COMMON_NAME>  (1) 
Tulobuterol

>  <CAS_NUMBER>  (1) 
41570-61-0

>  <UNII>  (1) 
591I9SU0F7

>  <SYNONYMS>  (1) 
Tulobuterol

$$$$
