43P
     RDKit          2D

 20 22  0  0  0  0  0  0  0  0999 V2000
   -0.9804   -0.1512    0.0000 O   0  0  0  0  0  0  0  0  0  0  0  0
   -0.2659    0.2613    0.0000 C   0  0  0  0  0  0  0  0  0  0  0  0
   -0.2659    1.0863    0.0000 C   0  0  0  0  0  0  0  0  0  0  0  0
    0.4485    1.4988    0.0000 C   0  0  0  0  0  0  0  0  0  0  0  0
    0.4485    2.3238    0.0000 O   0  0  0  0  0  0  0  0  0  0  0  0
    1.1630    1.0863    0.0000 C   0  0  0  0  0  0  0  0  0  0  0  0
    1.8775    1.4988    0.0000 C   0  0  0  0  0  0  0  0  0  0  0  0
    2.5920    1.0863    0.0000 C   0  0  0  0  0  0  0  0  0  0  0  0
    1.1630    0.2613    0.0000 C   0  0  0  0  0  0  0  0  0  0  0  0
    0.4485   -0.1512    0.0000 C   0  0  0  0  0  0  0  0  0  0  0  0
    0.4485   -0.9762    0.0000 C   0  0  0  0  0  0  0  0  0  0  0  0
    1.1160   -1.4611    0.0000 N   0  0  0  0  0  0  0  0  0  0  0  0
    0.8610   -2.2457    0.0000 N   0  0  0  0  0  0  0  0  0  0  0  0
    0.0360   -2.2457    0.0000 C   0  0  0  0  0  0  0  0  0  0  0  0
   -0.2189   -1.4611    0.0000 C   0  0  0  0  0  0  0  0  0  0  0  0
   -1.0035   -1.2061    0.0000 C   0  0  0  0  0  0  0  0  0  0  0  0
   -1.6710   -1.6911    0.0000 C   0  0  0  0  0  0  0  0  0  0  0  0
   -2.3384   -1.2061    0.0000 N   0  0  0  0  0  0  0  0  0  0  0  0
   -2.0835   -0.4215    0.0000 C   0  0  0  0  0  0  0  0  0  0  0  0
   -1.2585   -0.4215    0.0000 N   0  0  0  0  0  0  0  0  0  0  0  0
  1  2  1  0
  2  3  2  0
  2 10  1  0
  3  4  1  0
  4  5  1  0
  4  6  2  0
  6  7  1  0
  6  9  1  0
  7  8  1  0
  9 10  2  0
 10 11  1  0
 11 12  2  0
 11 15  1  0
 12 13  1  0
 13 14  1  0
 14 15  2  0
 15 16  1  0
 16 17  2  0
 16 20  1  0
 17 18  1  0
 18 19  1  0
 19 20  2  0
M  END
>  <DRUGBANK_ID>  (1) 
DB03749

>  <SECONDARY_ACCESSION_NUMBERS>  (1) 
EXPT00195

>  <COMMON_NAME>  (1) 
4-(1h-Imidazol-4-Yl)-3-(5-Ethyl-2,4-Dihydroxy-Phenyl)-1h-Pyrazole

$$$$
