
     RDKit          2D

 16 15  0  0  0  0  0  0  0  0999 V2000
    0.7215    1.4482    0.0000 C   0  0  0  0  0  0  0  0  0  0  0  0
   -0.7166    1.4482    0.0000 C   0  0  0  0  0  0  0  0  0  0  0  0
    0.0025    1.0437    0.0000 C   0  0  0  0  0  0  0  0  0  0  0  0
    1.4408   -1.4433    0.0000 C   0  0  0  0  0  0  0  0  0  0  0  0
    0.7215    2.2772    0.0000 O   0  0  0  0  0  0  0  0  0  0  0  0
    1.4408   -2.2772    0.0000 O   0  0  0  0  0  0  0  0  0  0  0  0
    1.4408    1.0437    0.0000 N   0  0  0  0  0  0  0  0  0  0  0  0
   -2.1499    1.4482    0.0000 O   0  0  0  0  0  0  0  0  0  0  0  0
   -1.4308    1.0437    0.0000 C   0  0  0  0  0  0  0  0  0  0  0  0
    0.7215   -1.0388    0.0000 O   0  0  0  0  0  0  0  0  0  0  0  0
    0.0025    0.2046    0.0000 O   0  0  0  0  0  0  0  0  0  0  0  0
   -1.1011    2.1425    0.0000 C   0  0  0  0  0  0  0  0  0  0  0  0
   -0.1572    2.1375    0.0000 C   0  0  0  0  0  0  0  0  0  0  0  0
    2.1499   -1.0388    0.0000 C   0  0  0  0  0  0  0  0  0  0  0  0
    1.4408    0.2046    0.0000 C   0  0  0  0  0  0  0  0  0  0  0  0
    2.1499   -0.2096    0.0000 C   0  0  0  0  0  0  0  0  0  0  0  0
  2  3  1  0
  3  1  1  0
  3 11  1  6
  4 14  1  0
  5  1  2  0
  6  4  2  0
  7  1  1  0
  8  9  1  0
  9  2  1  0
 10  4  1  0
 12  2  1  0
 13  2  1  0
 14 16  1  0
 15  7  1  0
 16 15  1  0
M  END
>  <DRUGBANK_ID>  (1) 
DB14044

>  <COMMON_NAME>  (1) 
Hopantenic acid

>  <CAS_NUMBER>  (1) 
18679-90-8

>  <UNII>  (1) 
H473MVB16U

>  <SYNONYMS>  (1) 
Acide hopantenique; Acido hopantenico; Acidum hopantenicum; D-Homopantothenic acid; Hopantenic acid; Hopanteninsaeure; N-pantoyl-GABA; Pantocalcin

$$$$
