7IG
     RDKit          2D

 26 28  0  0  0  0  0  0  0  0999 V2000
    2.5927   -0.5314    0.0000 C   0  0  0  0  0  0  0  0  0  0  0  0
    3.3071   -0.9439    0.0000 N   0  0  0  0  0  0  0  0  0  0  0  0
    3.3071   -1.7689    0.0000 C   0  0  0  0  0  0  0  0  0  0  0  0
    2.5927   -2.1814    0.0000 N   0  0  0  0  0  0  0  0  0  0  0  0
    1.8782   -1.7689    0.0000 C   0  0  0  0  0  0  0  0  0  0  0  0
    1.8782   -0.9439    0.0000 C   0  0  0  0  0  0  0  0  0  0  0  0
    2.5927    0.2936    0.0000 N   0  0  0  0  0  0  0  0  0  0  0  0
    4.0216   -2.1814    0.0000 N   0  0  0  0  0  0  0  0  0  0  0  0
    1.1637   -2.1814    0.0000 C   0  0  0  0  0  0  0  0  0  0  0  0
    0.4493   -1.7689    0.0000 C   0  0  0  0  0  0  0  0  0  0  0  0
    0.4493    0.7061    0.0000 C   0  0  0  0  0  0  0  0  0  0  0  0
    1.1637    0.2936    0.0000 C   0  0  0  0  0  0  0  0  0  0  0  0
    1.1637   -0.5314    0.0000 C   0  0  0  0  0  0  0  0  0  0  0  0
    0.4493   -0.9439    0.0000 C   0  0  0  0  0  0  0  0  0  0  0  0
   -0.2652   -0.5314    0.0000 C   0  0  0  0  0  0  0  0  0  0  0  0
   -0.2652    0.2936    0.0000 C   0  0  0  0  0  0  0  0  0  0  0  0
   -0.9797    0.7061    0.0000 N   0  0  0  0  0  0  0  0  0  0  0  0
   -2.4086    3.1811    0.0000 C   0  0  0  0  0  0  0  0  0  0  0  0
   -1.6941    2.7686    0.0000 C   0  0  0  0  0  0  0  0  0  0  0  0
   -1.6941    1.9436    0.0000 C   0  0  0  0  0  0  0  0  0  0  0  0
   -2.4086    1.5311    0.0000 C   0  0  0  0  0  0  0  0  0  0  0  0
   -3.1231    1.9436    0.0000 C   0  0  0  0  0  0  0  0  0  0  0  0
   -3.1231    2.7686    0.0000 C   0  0  0  0  0  0  0  0  0  0  0  0
   -2.4086    4.0061    0.0000 F   0  0  0  0  0  0  0  0  0  0  0  0
   -0.9797    1.5311    0.0000 C   0  0  0  0  0  0  0  0  0  0  0  0
   -3.8376    1.5311    0.0000 F   0  0  0  0  0  0  0  0  0  0  0  0
  1  2  2  0
  1  6  1  0
  1  7  1  0
  2  3  1  0
  3  4  2  0
  3  8  1  0
  4  5  1  0
  5  6  2  0
  5  9  1  0
  6 13  1  0
  9 10  1  0
 11 12  2  0
 11 16  1  0
 12 13  1  0
 13 14  2  0
 14 15  1  0
 15 16  2  0
 16 17  1  0
 17 25  1  0
 18 19  2  0
 18 23  1  0
 18 24  1  0
 19 20  1  0
 20 21  2  0
 20 25  1  0
 21 22  1  0
 22 23  2  0
 22 26  1  0
M  END
>  <DRUGBANK_ID>  (1) 
DB07244

>  <COMMON_NAME>  (1) 
5-{4-[(3,5-DIFLUOROBENZYL)AMINO]PHENYL}-6-ETHYLPYRIMIDINE-2,4-DIAMINE

$$$$
