41A
     RDKit          2D

 18 20  0  0  0  0  0  0  0  0999 V2000
    2.3257   -1.2418    0.0000 C   0  0  0  0  0  0  0  0  0  0  0  0
    2.0435   -0.4665    0.0000 C   0  0  0  0  0  0  0  0  0  0  0  0
    2.8560   -0.3232    0.0000 C   0  0  0  0  0  0  0  0  0  0  0  0
    1.3290   -0.8790    0.0000 C   0  0  0  0  0  0  0  0  0  0  0  0
    0.6146   -0.4665    0.0000 C   0  0  0  0  0  0  0  0  0  0  0  0
    0.6146    0.3585    0.0000 C   0  0  0  0  0  0  0  0  0  0  0  0
    1.3290    0.7710    0.0000 C   0  0  0  0  0  0  0  0  0  0  0  0
    2.0435    0.3585    0.0000 C   0  0  0  0  0  0  0  0  0  0  0  0
    1.3290    1.5960    0.0000 O   0  0  0  0  0  0  0  0  0  0  0  0
   -0.1701    0.6134    0.0000 S   0  0  0  0  0  0  0  0  0  0  0  0
   -0.6550   -0.0540    0.0000 C   0  0  0  0  0  0  0  0  0  0  0  0
   -1.4800   -0.0540    0.0000 N   0  0  0  0  0  0  0  0  0  0  0  0
   -1.8925   -0.7685    0.0000 C   0  0  0  0  0  0  0  0  0  0  0  0
   -2.7175   -0.7685    0.0000 C   0  0  0  0  0  0  0  0  0  0  0  0
   -3.1300   -0.0540    0.0000 O   0  0  0  0  0  0  0  0  0  0  0  0
   -2.7175    0.6605    0.0000 C   0  0  0  0  0  0  0  0  0  0  0  0
   -1.8925    0.6605    0.0000 C   0  0  0  0  0  0  0  0  0  0  0  0
   -0.1701   -0.7214    0.0000 N   0  0  0  0  0  0  0  0  0  0  0  0
  1  2  1  0
  2  3  1  0
  2  4  1  0
  2  8  1  0
  4  5  1  0
  5  6  2  0
  5 18  1  0
  6  7  1  0
  6 10  1  0
  7  8  1  0
  7  9  2  0
 10 11  1  0
 11 12  1  0
 11 18  2  0
 12 13  1  0
 12 17  1  0
 13 14  1  0
 14 15  1  0
 15 16  1  0
 16 17  1  0
M  END
>  <DRUGBANK_ID>  (1) 
DB07073

>  <COMMON_NAME>  (1) 
5,5-dimethyl-2-morpholin-4-yl-5,6-dihydro-1,3-benzothiazol-7(4H)-one

>  <UNII>  (1) 
QDN0FW2IO9

$$$$
