B11
     RDKit          2D

 33 36  0  0  0  0  0  0  0  0999 V2000
    4.4324    2.8221    0.0000 C   0  0  0  0  0  0  0  0  0  0  0  0
    5.1469    2.4096    0.0000 C   0  0  0  0  0  0  0  0  0  0  0  0
    5.1469    1.5846    0.0000 C   0  0  0  0  0  0  0  0  0  0  0  0
    4.4324    1.1721    0.0000 C   0  0  0  0  0  0  0  0  0  0  0  0
    3.7180    1.5846    0.0000 C   0  0  0  0  0  0  0  0  0  0  0  0
    3.7180    2.4096    0.0000 C   0  0  0  0  0  0  0  0  0  0  0  0
    3.0035    2.8221    0.0000 O   0  0  0  0  0  0  0  0  0  0  0  0
    3.0035    1.1721    0.0000 C   0  0  0  0  0  0  0  0  0  0  0  0
    3.0035    0.3471    0.0000 N   0  0  0  0  0  0  0  0  0  0  0  0
    2.2890   -0.0654    0.0000 C   0  0  0  0  0  0  0  0  0  0  0  0
    2.2890   -0.8904    0.0000 C   0  0  0  0  0  0  0  0  0  0  0  0
    1.5746   -1.3029    0.0000 C   0  0  0  0  0  0  0  0  0  0  0  0
    0.8601   -0.8904    0.0000 N   0  0  0  0  0  0  0  0  0  0  0  0
    0.8601   -0.0654    0.0000 C   0  0  0  0  0  0  0  0  0  0  0  0
    1.5746    0.3471    0.0000 C   0  0  0  0  0  0  0  0  0  0  0  0
    0.1456   -1.3029    0.0000 S   0  0  0  0  0  0  0  0  0  0  0  0
   -0.5689   -1.7154    0.0000 N   0  0  0  0  0  0  0  0  0  0  0  0
   -0.2669   -0.5885    0.0000 O   0  0  0  0  0  0  0  0  0  0  0  0
    0.5581   -2.0174    0.0000 O   0  0  0  0  0  0  0  0  0  0  0  0
   -1.2833   -1.3029    0.0000 C   0  0  0  0  0  0  0  0  0  0  0  0
   -1.9978   -1.7154    0.0000 C   0  0  0  0  0  0  0  0  0  0  0  0
   -2.7123   -1.3029    0.0000 C   0  0  0  0  0  0  0  0  0  0  0  0
   -2.7123   -0.4779    0.0000 C   0  0  0  0  0  0  0  0  0  0  0  0
   -1.9978   -0.0654    0.0000 C   0  0  0  0  0  0  0  0  0  0  0  0
   -1.2833   -0.4779    0.0000 C   0  0  0  0  0  0  0  0  0  0  0  0
   -3.4267   -1.7154    0.0000 O   0  0  0  0  0  0  0  0  0  0  0  0
   -4.1412   -1.3029    0.0000 C   0  0  0  0  0  0  0  0  0  0  0  0
   -4.8557   -1.7154    0.0000 C   0  0  0  0  0  0  0  0  0  0  0  0
   -5.5702   -1.3029    0.0000 C   0  0  0  0  0  0  0  0  0  0  0  0
   -5.5702   -0.4779    0.0000 C   0  0  0  0  0  0  0  0  0  0  0  0
   -4.8557   -0.0654    0.0000 C   0  0  0  0  0  0  0  0  0  0  0  0
   -4.1412   -0.4779    0.0000 C   0  0  0  0  0  0  0  0  0  0  0  0
   -6.2846   -0.0654    0.0000 F   0  0  0  0  0  0  0  0  0  0  0  0
  1  2  2  0
  1  6  1  0
  2  3  1  0
  3  4  2  0
  4  5  1  0
  5  6  2  0
  5  8  1  0
  6  7  1  0
  8  9  1  0
  9 10  1  0
 10 11  1  0
 10 15  1  0
 11 12  1  0
 12 13  1  0
 13 14  1  0
 13 16  1  0
 14 15  1  0
 16 17  1  0
 16 18  2  0
 16 19  2  0
 17 20  1  0
 20 21  2  0
 20 25  1  0
 21 22  1  0
 22 23  2  0
 22 26  1  0
 23 24  1  0
 24 25  2  0
 26 27  1  0
 27 28  2  0
 27 32  1  0
 28 29  1  0
 29 30  2  0
 30 31  1  0
 30 33  1  0
 31 32  2  0
M  END
>  <DRUGBANK_ID>  (1) 
DB04632

>  <COMMON_NAME>  (1) 
4-(2-HYDROXYBENZYLAMINO)-N-(3-(4-FLUOROPHENOXY)PHENYL)PIPERIDINE-1-SULFONAMIDE

$$$$
