
     RDKit          2D

 27 29  0  0  0  0  0  0  0  0999 V2000
    1.4292    1.6535    0.0000 C   0  0  0  0  0  0  0  0  0  0  0  0
    1.0167    2.3679    0.0000 C   0  0  0  0  0  0  0  0  0  0  0  0
    0.1917    2.3679    0.0000 C   0  0  0  0  0  0  0  0  0  0  0  0
    2.2543    1.6535    0.0000 S   0  0  0  0  0  0  0  0  0  0  0  0
    2.6668    0.9389    0.0000 N   0  0  0  0  0  0  0  0  0  0  0  0
    1.0167   -0.4899    0.0000 C   0  0  0  0  0  0  0  0  0  0  0  0
    1.4292   -1.2045    0.0000 C   0  0  0  0  0  0  0  0  0  0  0  0
    2.2543   -1.2045    0.0000 C   0  0  0  0  0  0  0  0  0  0  0  0
    2.6668   -0.4899    0.0000 C   0  0  0  0  0  0  0  0  0  0  0  0
    2.2543    0.2244    0.0000 C   0  0  0  0  0  0  0  0  0  0  0  0
    1.4292    0.2244    0.0000 C   0  0  0  0  0  0  0  0  0  0  0  0
   -2.0962   -2.1823    0.0000 N   0  0  0  0  0  0  0  0  0  0  0  0
   -2.6553   -1.5757    0.0000 C   0  0  0  0  0  0  0  0  0  0  0  0
   -1.2912   -2.0014    0.0000 C   0  0  0  0  0  0  0  0  0  0  0  0
   -1.0454   -1.2138    0.0000 C   0  0  0  0  0  0  0  0  0  0  0  0
   -2.4095   -0.7881    0.0000 C   0  0  0  0  0  0  0  0  0  0  0  0
   -1.6046   -0.6071    0.0000 C   0  0  0  0  0  0  0  0  0  0  0  0
   -0.6181   -2.4785    0.0000 N   0  0  0  0  0  0  0  0  0  0  0  0
    0.0435   -1.9858    0.0000 C   0  0  0  0  0  0  0  0  0  0  0  0
   -0.2205   -1.2041    0.0000 C   0  0  0  0  0  0  0  0  0  0  0  0
    0.1917   -0.4899    0.0000 C   0  0  0  0  0  0  0  0  0  0  0  0
   -0.2207    0.2244    0.0000 O   0  0  0  0  0  0  0  0  0  0  0  0
   -2.9688   -0.1815    0.0000 Cl  0  0  0  0  0  0  0  0  0  0  0  0
    1.0167    0.9389    0.0000 F   0  0  0  0  0  0  0  0  0  0  0  0
    1.0167   -1.9189    0.0000 F   0  0  0  0  0  0  0  0  0  0  0  0
    2.9688    2.0660    0.0000 O   0  0  0  0  0  0  0  0  0  0  0  0
    2.2543    2.4785    0.0000 O   0  0  0  0  0  0  0  0  0  0  0  0
  2  1  1  0
  3  2  1  0
  4  1  1  0
  5  4  1  0
  7  6  2  0
  8  7  1  0
  9  8  2  0
 10  5  1  0
 10  9  1  0
 11  6  1  0
 11 10  2  0
 13 12  2  0
 14 12  1  0
 15 14  2  0
 16 13  1  0
 17 15  1  0
 17 16  2  0
 18 14  1  0
 19 18  1  0
 20 15  1  0
 20 19  2  0
 21  6  1  0
 21 20  1  0
 22 21  2  0
 23 16  1  0
 24 11  1  0
 25  7  1  0
 26  4  2  0
 27  4  2  0
M  END
>  <DRUGBANK_ID>  (1) 
DB06999

>  <COMMON_NAME>  (1) 
PLX-4720

>  <CAS_NUMBER>  (1) 
918505-84-7

>  <UNII>  (1) 
EQY31RO8HA

>  <SYNONYMS>  (1) 
N-[3-(5-chloro-1H-pyrrolo[2,3-b]pyridine-3-carbonyl)-2,4-difluorophenyl]propane-1-sulfonamide

$$$$
