
     RDKit          2D

 26 27  0  0  0  0  0  0  0  0999 V2000
    2.6265    0.1645    0.0000 S   0  0  0  0  0  0  0  0  0  0  0  0
   -2.7525    0.9346    0.0000 P   0  0  0  0  0  0  0  0  0  0  0  0
    0.1849    2.1147    0.0000 O   0  0  0  0  0  0  0  0  0  0  0  0
   -1.9679    1.1896    0.0000 O   0  0  0  0  0  0  0  0  0  0  0  0
   -0.5159   -1.3253    0.0000 O   0  0  0  0  0  0  0  0  0  0  0  0
    1.6109   -1.0896    0.0000 O   0  0  0  0  0  0  0  0  0  0  0  0
    1.8029    2.3144    0.0000 O   0  0  0  0  0  0  0  0  0  0  0  0
    0.4227    2.6843    0.0000 O   0  0  0  0  0  0  0  0  0  0  0  0
    2.0601   -1.7815    0.0000 O   0  0  0  0  0  0  0  0  0  0  0  0
   -3.5371    0.6797    0.0000 O   0  0  0  0  0  0  0  0  0  0  0  0
   -3.0074    1.7193    0.0000 O   0  0  0  0  0  0  0  0  0  0  0  0
   -2.4975    0.1501    0.0000 O   0  0  0  0  0  0  0  0  0  0  0  0
   -1.9136   -1.6224    0.0000 O   0  0  0  0  0  0  0  0  0  0  0  0
   -2.1554   -0.5953    0.0000 N   0  0  0  0  0  0  0  0  0  0  0  0
    3.2585   -1.0033    0.0000 N   0  0  0  0  0  0  0  0  0  0  0  0
    0.7925    1.3040    0.0000 C   0  0  0  0  0  0  0  0  0  0  0  0
    0.5791    0.5072    0.0000 C   0  0  0  0  0  0  0  0  0  0  0  0
   -1.3548    0.6376    0.0000 C   0  0  0  0  0  0  0  0  0  0  0  0
   -1.4410   -0.1828    0.0000 C   0  0  0  0  0  0  0  0  0  0  0  0
   -0.6873   -0.5183    0.0000 C   0  0  0  0  0  0  0  0  0  0  0  0
    1.9853   -0.3546    0.0000 C   0  0  0  0  0  0  0  0  0  0  0  0
    2.3309    0.9347    0.0000 C   0  0  0  0  0  0  0  0  0  0  0  0
    1.0060    2.1009    0.0000 C   0  0  0  0  0  0  0  0  0  0  0  0
    2.4346   -1.0464    0.0000 C   0  0  0  0  0  0  0  0  0  0  0  0
   -1.1289   -1.8773    0.0000 C   0  0  0  0  0  0  0  0  0  0  0  0
   -0.9574   -2.6843    0.0000 C   0  0  0  0  0  0  0  0  0  0  0  0
  1 21  1  0
  1 22  1  0
  2  4  1  0
  2 10  1  0
  2 11  1  0
  2 12  2  0
  3 16  1  0
 17  3  1  1
  5 25  1  0
  7 23  1  0
  8 23  2  0
  9 24  2  0
 13 25  2  0
 15 24  1  0
 16 18  1  0
 16 22  1  0
 16 23  1  1
 17 20  1  0
 17 21  1  0
 18  4  1  1
 18 19  1  0
 19 14  1  6
 19 20  1  0
 20  5  1  6
 21  6  1  6
 21 24  1  0
 25 26  1  0
M  END
>  <DRUGBANK_ID>  (1) 
DB04788

>  <COMMON_NAME>  (1) 
Tagetitoxin

>  <CAS_NUMBER>  (1) 
87913-21-1

>  <SYNONYMS>  (1) 
(1R,4R,5R,6R,7S,8R)-6-Acetoxy-7-amino-4-carbamoyl-4-hydroxy-8-(phosphonooxy)-9-oxa-3-thiabicyclo[3.3.1]nonane-1-carboxylic acid

$$$$
