GF1
     RDKit          2D

 17 19  0  0  0  0  0  0  0  0999 V2000
   -1.1100   -1.4419    0.0000 O   0  0  0  0  0  0  0  0  0  0  0  0
   -0.5072   -0.8787    0.0000 C   0  0  0  0  0  0  0  0  0  0  0  0
   -0.6085   -0.0599    0.0000 N   0  0  0  0  0  0  0  0  0  0  0  0
   -1.3304    0.3394    0.0000 C   0  0  0  0  0  0  0  0  0  0  0  0
   -1.3456    1.1642    0.0000 C   0  0  0  0  0  0  0  0  0  0  0  0
   -2.0675    1.5635    0.0000 O   0  0  0  0  0  0  0  0  0  0  0  0
   -0.6388    1.5898    0.0000 O   0  0  0  0  0  0  0  0  0  0  0  0
   -2.0372   -0.0862    0.0000 C   0  0  0  0  0  0  0  0  0  0  0  0
    0.3028   -1.0353    0.0000 C   0  0  0  0  0  0  0  0  0  0  0  0
    0.7021   -0.3134    0.0000 C   0  0  0  0  0  0  0  0  0  0  0  0
    0.1389    0.2895    0.0000 C   0  0  0  0  0  0  0  0  0  0  0  0
    0.2955    1.0995    0.0000 O   0  0  0  0  0  0  0  0  0  0  0  0
    1.0783   -0.6450    0.0000 C   0  0  0  0  0  0  0  0  0  0  0  0
    1.8088   -1.0153    0.0000 C   0  0  0  0  0  0  0  0  0  0  0  0
    2.1039   -0.3899    0.0000 C   0  0  0  0  0  0  0  0  0  0  0  0
    1.1484    0.8908    0.0000 C   0  0  0  0  0  0  0  0  0  0  0  0
    1.3084    0.0754    0.0000 C   0  0  0  0  0  0  0  0  0  0  0  0
  1  2  2  0
  9  2  1  6
  3  2  1  0
  3 11  1  0
  4  3  1  0
  4  5  1  0
  4  8  1  1
  5  6  1  0
  7  5  2  0
 10  9  1  0
 10 11  1  6
 12 11  2  0
 13  9  1  0
 13 16  1  0
 13 14  1  6
 15 14  1  0
 17 15  1  1
 17 10  1  0
 17 16  1  0
M  END
>  <DRUGBANK_ID>  (1) 
DB07823

>  <COMMON_NAME>  (1) 
(2S)-2-[(3aR,4R,7S,7aS)-1,3-dioxooctahydro-2H-4,7-methanoisoindol-2-yl]propanoic acid

$$$$
