
     RDKit          2D

 22 22  0  0  0  0  0  0  0  0999 V2000
   -1.0716    0.2062    0.0000 C   0  0  0  0  0  0  0  0  0  0  0  0
   -1.0716   -0.6187    0.0000 C   0  0  0  0  0  0  0  0  0  0  0  0
   -1.7861    0.6187    0.0000 C   0  0  0  0  0  0  0  0  0  0  0  0
   -0.3571    0.6187    0.0000 C   0  0  0  0  0  0  0  0  0  0  0  0
   -1.7861   -1.0312    0.0000 C   0  0  0  0  0  0  0  0  0  0  0  0
   -0.3571   -1.0312    0.0000 O   0  0  0  0  0  0  0  0  0  0  0  0
   -2.5006    0.2062    0.0000 C   0  0  0  0  0  0  0  0  0  0  0  0
    0.3573    0.2062    0.0000 N   0  0  0  0  0  0  0  0  0  0  0  0
   -0.3571    1.4437    0.0000 O   0  0  0  0  0  0  0  0  0  0  0  0
   -2.5006   -0.6187    0.0000 C   0  0  0  0  0  0  0  0  0  0  0  0
   -0.3571   -1.8562    0.0000 C   0  0  0  0  0  0  0  0  0  0  0  0
   -3.2150    0.6187    0.0000 S   0  0  0  0  0  0  0  0  0  0  0  0
    1.0717    0.6187    0.0000 C   0  0  0  0  0  0  0  0  0  0  0  0
   -3.9296    1.0312    0.0000 C   0  0  0  0  0  0  0  0  0  0  0  0
   -3.6276   -0.0957    0.0000 O   0  0  0  0  0  0  0  0  0  0  0  0
   -2.8026    1.3332    0.0000 O   0  0  0  0  0  0  0  0  0  0  0  0
    1.7862    0.2062    0.0000 C   0  0  0  0  0  0  0  0  0  0  0  0
    2.5007    0.6187    0.0000 N   0  0  0  0  0  0  0  0  0  0  0  0
    3.2151    0.2062    0.0000 C   0  0  0  0  0  0  0  0  0  0  0  0
    2.5007    1.4437    0.0000 C   0  0  0  0  0  0  0  0  0  0  0  0
    3.9296    0.6187    0.0000 C   0  0  0  0  0  0  0  0  0  0  0  0
    3.2151    1.8562    0.0000 C   0  0  0  0  0  0  0  0  0  0  0  0
  1  2  2  0
  1  3  1  0
  1  4  1  0
  2  5  1  0
  2  6  1  0
  3  7  2  0
  4  8  1  0
  4  9  2  0
  5 10  2  0
  6 11  1  0
  7 12  1  0
  7 10  1  0
  8 13  1  0
 12 14  1  0
 12 15  2  0
 12 16  2  0
 13 17  1  0
 17 18  1  0
 18 19  1  0
 18 20  1  0
 19 21  1  0
 20 22  1  0
M  END
>  <DRUGBANK_ID>  (1) 
DB13025

>  <COMMON_NAME>  (1) 
Tiapride

>  <CAS_NUMBER>  (1) 
51012-32-9

>  <UNII>  (1) 
LAH70H9JPH

>  <SYNONYMS>  (1) 
Thiapride; Tiaprida; Tiapride; Tiapridum

$$$$
