PU7
     RDKit          2D

 25 27  0  0  0  0  0  0  0  0999 V2000
    0.6276    2.0702    0.0000 C   0  0  0  0  0  0  0  0  0  0  0  0
   -1.0224    2.0702    0.0000 C   0  0  0  0  0  0  0  0  0  0  0  0
    0.2151    1.3557    0.0000 O   0  0  0  0  0  0  0  0  0  0  0  0
   -0.6099    1.3557    0.0000 C   0  0  0  0  0  0  0  0  0  0  0  0
   -1.8474    2.0702    0.0000 C   0  0  0  0  0  0  0  0  0  0  0  0
   -2.2599    1.3557    0.0000 C   0  0  0  0  0  0  0  0  0  0  0  0
   -3.0849    1.3557    0.0000 O   0  0  0  0  0  0  0  0  0  0  0  0
   -3.4974    2.0702    0.0000 C   0  0  0  0  0  0  0  0  0  0  0  0
   -1.8474    0.6413    0.0000 C   0  0  0  0  0  0  0  0  0  0  0  0
   -1.0224    0.6413    0.0000 C   0  0  0  0  0  0  0  0  0  0  0  0
   -0.6099   -0.0732    0.0000 C   0  0  0  0  0  0  0  0  0  0  0  0
    0.2151   -0.0732    0.0000 C   0  0  0  0  0  0  0  0  0  0  0  0
    0.7000    0.5942    0.0000 N   0  0  0  0  0  0  0  0  0  0  0  0
    1.4846    0.3393    0.0000 C   0  0  0  0  0  0  0  0  0  0  0  0
    2.1991    0.7518    0.0000 C   0  0  0  0  0  0  0  0  0  0  0  0
    2.1991    1.5768    0.0000 N   0  0  0  0  0  0  0  0  0  0  0  0
    1.4846   -0.4857    0.0000 C   0  0  0  0  0  0  0  0  0  0  0  0
    2.1991   -0.8982    0.0000 N   0  0  0  0  0  0  0  0  0  0  0  0
    2.9135   -0.4857    0.0000 C   0  0  0  0  0  0  0  0  0  0  0  0
    2.9135    0.3393    0.0000 N   0  0  0  0  0  0  0  0  0  0  0  0
    0.7000   -0.7406    0.0000 N   0  0  0  0  0  0  0  0  0  0  0  0
    0.4450   -1.5253    0.0000 C   0  0  0  0  0  0  0  0  0  0  0  0
    0.9971   -2.1384    0.0000 C   0  0  0  0  0  0  0  0  0  0  0  0
    0.7421   -2.9230    0.0000 C   0  0  0  0  0  0  0  0  0  0  0  0
    1.2942   -3.5361    0.0000 C   0  0  0  0  0  0  0  0  0  0  0  0
  1  3  1  0
  2  4  2  0
  2  5  1  0
  3  4  1  0
  4 10  1  0
  5  6  2  0
  6  7  1  0
  6  9  1  0
  7  8  1  0
  9 10  2  0
 10 11  1  0
 11 12  1  0
 12 13  2  0
 12 21  1  0
 13 14  1  0
 14 15  2  0
 14 17  1  0
 15 16  1  0
 15 20  1  0
 17 18  2  0
 17 21  1  0
 18 19  1  0
 19 20  2  0
 21 22  1  0
 22 23  1  0
 23 24  1  0
 24 25  1  0
M  END
>  <DRUGBANK_ID>  (1) 
DB02359

>  <SECONDARY_ACCESSION_NUMBERS>  (1) 
EXPT02697

>  <COMMON_NAME>  (1) 
9-Butyl-8-(2,5-Dimethoxy-Benzyl)-9h-Purin-6-Ylamine

$$$$
