
     RDKit          2D

 34 37  0  0  0  0  0  0  0  0999 V2000
    1.4289   -2.4750    0.0000 C   0  0  0  0  0  0  0  0  0  0  0  0
    0.7145   -2.8875    0.0000 C   0  0  0  0  0  0  0  0  0  0  0  0
    0.7145   -3.7125    0.0000 C   0  0  0  0  0  0  0  0  0  0  0  0
    0.0000   -4.1250    0.0000 C   0  0  0  0  0  0  0  0  0  0  0  0
   -0.7145   -3.7125    0.0000 C   0  0  0  0  0  0  0  0  0  0  0  0
   -0.7145   -2.8875    0.0000 C   0  0  0  0  0  0  0  0  0  0  0  0
    0.0000   -2.4750    0.0000 C   0  0  0  0  0  0  0  0  0  0  0  0
    0.0000   -1.6500    0.0000 N   0  0  0  0  0  0  0  0  0  0  0  0
   -0.7145   -1.2375    0.0000 C   0  0  0  0  0  0  0  0  0  0  0  0
   -1.4289   -1.6500    0.0000 C   0  0  0  0  0  0  0  0  0  0  0  0
   -1.4289   -2.4750    0.0000 O   0  0  0  0  0  0  0  0  0  0  0  0
   -2.1434   -1.2375    0.0000 N   0  0  0  0  0  0  0  0  0  0  0  0
   -2.8579   -1.6500    0.0000 C   0  0  0  0  0  0  0  0  0  0  0  0
   -2.8579   -2.4750    0.0000 C   0  0  0  0  0  0  0  0  0  0  0  0
   -3.5724   -2.8875    0.0000 C   0  0  0  0  0  0  0  0  0  0  0  0
   -4.2868   -2.4750    0.0000 C   0  0  0  0  0  0  0  0  0  0  0  0
   -4.2868   -1.6500    0.0000 C   0  0  0  0  0  0  0  0  0  0  0  0
   -3.5724   -1.2375    0.0000 C   0  0  0  0  0  0  0  0  0  0  0  0
   -5.0013   -2.8875    0.0000 C   0  0  0  0  0  0  0  0  0  0  0  0
   -5.0875   -3.7080    0.0000 N   0  0  0  0  0  0  0  0  0  0  0  0
   -5.8945   -3.8795    0.0000 C   0  0  0  0  0  0  0  0  0  0  0  0
   -6.3070   -3.1650    0.0000 O   0  0  0  0  0  0  0  0  0  0  0  0
   -5.7550   -2.5519    0.0000 N   0  0  0  0  0  0  0  0  0  0  0  0
    0.7145   -1.2375    0.0000 C   0  0  0  0  0  0  0  0  0  0  0  0
    1.4289   -1.6500    0.0000 O   0  0  0  0  0  0  0  0  0  0  0  0
    0.7145   -0.4125    0.0000 C   0  0  0  0  0  0  0  0  0  0  0  0
    0.0000   -0.0000    0.0000 C   0  0  0  0  0  0  0  0  0  0  0  0
    0.0000    0.8250    0.0000 C   0  0  0  0  0  0  0  0  0  0  0  0
    0.7145    1.2375    0.0000 S   0  0  0  0  0  0  0  0  0  0  0  0
    0.1842    1.8695    0.0000 O   0  0  0  0  0  0  0  0  0  0  0  0
    1.2448    1.8695    0.0000 O   0  0  0  0  0  0  0  0  0  0  0  0
    1.4289    0.8250    0.0000 C   0  0  0  0  0  0  0  0  0  0  0  0
    1.4289    0.0000    0.0000 C   0  0  0  0  0  0  0  0  0  0  0  0
   -1.5350   -2.9737    0.0000 C   0  0  0  0  0  0  0  0  0  0  0  0
  1  2  1  0
  2  3  2  0
  2  7  1  0
  3  4  1  0
  4  5  2  0
  5  6  1  0
  6  7  2  0
  6 34  1  0
  7  8  1  0
  8  9  1  0
  8 24  1  0
  9 10  1  0
 10 11  2  0
 10 12  1  0
 12 13  1  0
 13 14  2  0
 13 18  1  0
 14 15  1  0
 15 16  2  0
 16 17  1  0
 16 19  1  0
 17 18  2  0
 19 20  1  0
 19 23  2  0
 20 21  2  0
 21 22  1  0
 22 23  1  0
 24 25  2  0
 24 26  1  0
 26 27  1  0
 26 33  1  0
 27 28  1  0
 28 29  1  0
 29 30  2  0
 29 31  2  0
 29 32  1  0
 32 33  1  0
M  END
>  <DRUGBANK_ID>  (1) 
DB11701

>  <COMMON_NAME>  (1) 
Amenamevir

>  <CAS_NUMBER>  (1) 
841301-32-4

>  <UNII>  (1) 
94X46KW4AE

>  <SYNONYMS>  (1) 
Amenamevir

$$$$
