H22
     RDKit          2D

 32 35  0  0  0  0  0  0  0  0999 V2000
   -2.2749    6.2177    0.0000 F   0  0  0  0  0  0  0  0  0  0  0  0
   -1.4903    6.4726    0.0000 C   0  0  0  0  0  0  0  0  0  0  0  0
   -1.3187    7.2796    0.0000 C   0  0  0  0  0  0  0  0  0  0  0  0
   -0.5341    7.5345    0.0000 C   0  0  0  0  0  0  0  0  0  0  0  0
   -0.3626    8.3415    0.0000 N   0  0  0  0  0  0  0  0  0  0  0  0
   -0.9757    8.8935    0.0000 C   0  0  0  0  0  0  0  0  0  0  0  0
   -0.8042    9.7005    0.0000 C   0  0  0  0  0  0  0  0  0  0  0  0
   -0.0195    9.9554    0.0000 C   0  0  0  0  0  0  0  0  0  0  0  0
    0.5936    9.4034    0.0000 C   0  0  0  0  0  0  0  0  0  0  0  0
    0.4220    8.5964    0.0000 C   0  0  0  0  0  0  0  0  0  0  0  0
    1.0351    8.0444    0.0000 O   0  0  0  0  0  0  0  0  0  0  0  0
    0.0790    6.9825    0.0000 C   0  0  0  0  0  0  0  0  0  0  0  0
   -0.0925    6.1755    0.0000 C   0  0  0  0  0  0  0  0  0  0  0  0
   -0.8772    5.9206    0.0000 C   0  0  0  0  0  0  0  0  0  0  0  0
   -1.0487    5.1136    0.0000 N   0  0  0  0  0  0  0  0  0  0  0  0
   -1.8333    4.8587    0.0000 C   0  0  0  0  0  0  0  0  0  0  0  0
   -2.4464    5.4107    0.0000 O   0  0  0  0  0  0  0  0  0  0  0  0
   -2.0048    4.0517    0.0000 C   0  0  0  0  0  0  0  0  0  0  0  0
   -2.7895    3.7968    0.0000 N   0  0  0  0  0  0  0  0  0  0  0  0
   -3.0444    3.0121    0.0000 C   0  0  0  0  0  0  0  0  0  0  0  0
   -3.8694    3.0121    0.0000 C   0  0  0  0  0  0  0  0  0  0  0  0
   -4.1243    3.7968    0.0000 C   0  0  0  0  0  0  0  0  0  0  0  0
   -3.4569    4.2817    0.0000 C   0  0  0  0  0  0  0  0  0  0  0  0
   -4.3543    2.3447    0.0000 N   0  0  0  0  0  0  0  0  0  0  0  0
   -5.1748    2.4309    0.0000 C   0  0  0  0  0  0  0  0  0  0  0  0
   -5.5104    3.1846    0.0000 O   0  0  0  0  0  0  0  0  0  0  0  0
   -5.6597    1.7635    0.0000 C   0  0  0  0  0  0  0  0  0  0  0  0
   -5.4048    0.9789    0.0000 C   0  0  0  0  0  0  0  0  0  0  0  0
   -6.0722    0.4939    0.0000 C   0  0  0  0  0  0  0  0  0  0  0  0
   -6.4847    1.7635    0.0000 S   0  0  0  0  0  0  0  0  0  0  0  0
   -6.7397    0.9789    0.0000 C   0  0  0  0  0  0  0  0  0  0  0  0
   -7.5243    0.7239    0.0000 Cl  0  0  0  0  0  0  0  0  0  0  0  0
  1  2  1  0
  2  3  2  0
  2 14  1  0
  3  4  1  0
  4  5  1  0
  4 12  2  0
  5  6  1  0
  5 10  1  0
  6  7  2  0
  7  8  1  0
  8  9  2  0
  9 10  1  0
 10 11  2  0
 12 13  1  0
 13 14  2  0
 14 15  1  0
 15 16  1  0
 16 17  2  0
 16 18  1  0
 18 19  1  0
 19 20  1  0
 19 23  1  0
 20 21  1  0
 21 24  1  6
 22 21  1  0
 22 23  1  0
 24 25  1  0
 25 26  2  0
 25 27  1  0
 27 28  2  0
 27 30  1  0
 28 29  1  0
 29 31  2  0
 30 31  1  0
 31 32  1  0
M  END
>  <DRUGBANK_ID>  (1) 
DB07872

>  <COMMON_NAME>  (1) 
5-chloro-N-[(3R)-1-(2-{[2-fluoro-4-(2-oxopyridin-1(2H)-yl)phenyl]amino}-2-oxoethyl)pyrrolidin-3-yl]thiophene-2-carboxamide

$$$$
