DSC
     RDKit          2D

 16 15  0  0  0  0  0  0  0  0999 V2000
   -3.1696    0.2365    0.0000 S   0  0  0  0  0  0  0  0  0  0  0  0
   -3.8841    0.6490    0.0000 O   0  0  0  0  0  0  0  0  0  0  0  0
   -3.5822   -0.4780    0.0000 O   0  0  0  0  0  0  0  0  0  0  0  0
   -2.7571    0.9511    0.0000 O   0  0  0  0  0  0  0  0  0  0  0  0
   -2.4551   -0.1760    0.0000 C   0  0  0  0  0  0  0  0  0  0  0  0
   -1.7405    0.2365    0.0000 C   0  0  0  0  0  0  0  0  0  0  0  0
   -1.0261   -0.1760    0.0000 C   0  0  0  0  0  0  0  0  0  0  0  0
   -0.3115    0.2365    0.0000 C   0  0  0  0  0  0  0  0  0  0  0  0
    0.4030   -0.1760    0.0000 C   0  0  0  0  0  0  0  0  0  0  0  0
    1.1176    0.2365    0.0000 C   0  0  0  0  0  0  0  0  0  0  0  0
    1.8320   -0.1760    0.0000 C   0  0  0  0  0  0  0  0  0  0  0  0
    2.5466    0.2365    0.0000 C   0  0  0  0  0  0  0  0  0  0  0  0
    3.2611   -0.1760    0.0000 C   0  0  0  0  0  0  0  0  0  0  0  0
    3.9756    0.2365    0.0000 C   0  0  0  0  0  0  0  0  0  0  0  0
    4.6901   -0.1760    0.0000 C   0  0  0  0  0  0  0  0  0  0  0  0
    5.4047    0.2365    0.0000 C   0  0  0  0  0  0  0  0  0  0  0  0
  1  2  2  0
  1  3  2  0
  1  4  1  0
  1  5  1  0
  5  6  1  0
  6  7  1  0
  7  8  1  0
  8  9  1  0
  9 10  1  0
 10 11  1  0
 11 12  1  0
 12 13  1  0
 13 14  1  0
 14 15  1  0
 15 16  1  0
M  CHG  1   4  -1
M  END
>  <DRUGBANK_ID>  (1) 
DB07681

>  <COMMON_NAME>  (1) 
DODECANESULFONATE ION

$$$$
