PU6
     RDKit          2D

 24 27  0  0  0  0  0  0  0  0999 V2000
    0.1768    2.5639    0.0000 C   0  0  0  0  0  0  0  0  0  0  0  0
    0.0053    1.7570    0.0000 C   0  0  0  0  0  0  0  0  0  0  0  0
    0.6184    1.2049    0.0000 C   0  0  0  0  0  0  0  0  0  0  0  0
    0.4469    0.3980    0.0000 C   0  0  0  0  0  0  0  0  0  0  0  0
    1.0600   -0.1541    0.0000 N   0  0  0  0  0  0  0  0  0  0  0  0
    1.8669    0.0175    0.0000 C   0  0  0  0  0  0  0  0  0  0  0  0
    2.2794    0.7319    0.0000 N   0  0  0  0  0  0  0  0  0  0  0  0
    3.1044    0.7319    0.0000 C   0  0  0  0  0  0  0  0  0  0  0  0
    3.5169    0.0175    0.0000 N   0  0  0  0  0  0  0  0  0  0  0  0
    2.2794   -0.6970    0.0000 C   0  0  0  0  0  0  0  0  0  0  0  0
    3.1044   -0.6970    0.0000 C   0  0  0  0  0  0  0  0  0  0  0  0
    3.5169   -1.4115    0.0000 N   0  0  0  0  0  0  0  0  0  0  0  0
    1.7274   -1.3101    0.0000 N   0  0  0  0  0  0  0  0  0  0  0  0
    0.9737   -0.9746    0.0000 C   0  0  0  0  0  0  0  0  0  0  0  0
    0.2593   -1.3871    0.0000 C   0  0  0  0  0  0  0  0  0  0  0  0
   -0.4552   -0.9746    0.0000 C   0  0  0  0  0  0  0  0  0  0  0  0
   -1.1697   -1.3871    0.0000 C   0  0  0  0  0  0  0  0  0  0  0  0
   -1.8841   -0.9746    0.0000 C   0  0  0  0  0  0  0  0  0  0  0  0
   -0.4552   -0.1496    0.0000 C   0  0  0  0  0  0  0  0  0  0  0  0
   -2.6688   -1.2295    0.0000 O   0  0  0  0  0  0  0  0  0  0  0  0
   -1.1697    0.2629    0.0000 C   0  0  0  0  0  0  0  0  0  0  0  0
   -1.8841   -0.1496    0.0000 C   0  0  0  0  0  0  0  0  0  0  0  0
   -2.6688    0.1054    0.0000 O   0  0  0  0  0  0  0  0  0  0  0  0
   -3.1537   -0.5621    0.0000 C   0  0  0  0  0  0  0  0  0  0  0  0
  1  2  1  0
  2  3  1  0
  3  4  1  0
  4  5  1  0
  5  6  1  0
  5 14  1  0
  6  7  2  0
  6 10  1  0
  7  8  1  0
  8  9  2  0
  9 11  1  0
 10 11  2  0
 10 13  1  0
 11 12  1  0
 13 14  2  0
 14 15  1  0
 15 16  1  0
 16 17  2  0
 16 19  1  0
 17 18  1  0
 18 20  1  0
 18 22  2  0
 19 21  2  0
 20 24  1  0
 21 22  1  0
 22 23  1  0
 23 24  1  0
M  END
>  <DRUGBANK_ID>  (1) 
DB08436

>  <COMMON_NAME>  (1) 
8-BENZO[1,3]DIOXOL-,5-YLMETHYL-9-BUTYL-9H-

$$$$
