
     RDKit          2D

 24 26  0  0  1  0  0  0  0  0999 V2000
   -4.8263   -0.9941    0.0000 C   0  0  0  0  0  0  0  0  0  0  0  0
   -4.0162   -0.8382    0.0000 C   0  0  0  0  0  0  0  0  0  0  0  0
   -3.4761   -1.4619    0.0000 N   0  0  0  0  0  0  0  0  0  0  0  0
   -3.7461   -2.2414    0.0000 C   0  0  0  0  0  0  0  0  0  0  0  0
   -4.5563   -2.3973    0.0000 C   0  0  0  0  0  0  0  0  0  0  0  0
   -2.6660   -1.3060    0.0000 C   0  0  0  0  0  0  0  0  0  0  0  0
   -2.1259   -1.9296    0.0000 C   0  0  0  0  0  0  0  0  0  0  0  0
   -1.3157   -1.7737    0.0000 C   0  0  0  0  0  0  0  0  0  0  0  0
   -0.7756   -2.3973    0.0000 O   0  0  0  0  0  0  0  0  0  0  0  0
    0.0345   -2.2414    0.0000 C   0  0  0  0  0  0  0  0  0  0  0  0
    0.3045   -1.4619    0.0000 O   0  0  0  0  0  0  0  0  0  0  0  0
    0.5746   -2.8651    0.0000 C   0  0  0  0  0  0  0  0  0  0  0  0
    0.8688   -3.6358    0.0000 C   0  0  0  0  0  0  0  0  0  0  0  0
    1.6834   -3.7664    0.0000 C   0  0  0  0  0  0  0  0  0  0  0  0
    2.2038   -3.1262    0.0000 C   0  0  0  0  0  0  0  0  0  0  0  0
    1.9096   -2.3555    0.0000 C   0  0  0  0  0  0  0  0  0  0  0  0
    1.0950   -2.2249    0.0000 C   0  0  0  0  0  0  0  0  0  0  0  0
    1.1965   -3.0692    0.0000 C   0  0  0  0  0  0  0  0  0  0  0  0
   -0.1334   -3.2887    0.0000 C   0  0  0  0  0  0  0  0  0  0  0  0
   -0.1205   -4.1136    0.0000 C   0  0  0  0  0  0  0  0  0  0  0  0
   -0.8285   -4.5371    0.0000 C   0  0  0  0  0  0  0  0  0  0  0  0
   -1.5493   -4.1358    0.0000 C   0  0  0  0  0  0  0  0  0  0  0  0
   -1.5621   -3.3109    0.0000 C   0  0  0  0  0  0  0  0  0  0  0  0
   -0.8542   -2.8873    0.0000 C   0  0  0  0  0  0  0  0  0  0  0  0
  1  2  1  0
  2  3  1  0
  3  4  1  0
  3  6  1  0
  4  5  1  0
  6  7  1  0
  7  8  1  0
  8  9  1  0
  9 10  1  0
 10 11  2  0
 10 12  1  0
 12 13  1  0
 12 17  1  0
 12 19  1  0
 14 13  1  1
 14 15  1  0
 14 18  1  0
 15 16  1  0
 17 16  1  1
 17 18  1  0
 19 20  2  0
 19 24  1  0
 20 21  1  0
 21 22  2  0
 22 23  1  0
 23 24  2  0
M  END
>  <DRUGBANK_ID>  (1) 
DB13619

>  <COMMON_NAME>  (1) 
Bornaprine

>  <CAS_NUMBER>  (1) 
20448-86-6

>  <UNII>  (1) 
9M363FGA7J

>  <SYNONYMS>  (1) 
Bornaprine

$$$$
