
     RDKit          2D

 39 44  0  0  0  0  0  0  0  0999 V2000
   -1.7021   -8.5808    0.0000 C   0  0  0  0  0  0  0  0  0  0  0  0
   -2.1146   -7.8664    0.0000 O   0  0  0  0  0  0  0  0  0  0  0  0
   -1.7021   -7.1519    0.0000 C   0  0  0  0  0  0  0  0  0  0  0  0
   -2.1146   -6.4374    0.0000 N   0  0  0  0  0  0  0  0  0  0  0  0
   -1.7021   -5.7229    0.0000 C   0  0  0  0  0  0  0  0  0  0  0  0
   -0.8771   -5.7229    0.0000 C   0  0  0  0  0  0  0  0  0  0  0  0
   -0.4646   -5.0085    0.0000 C   0  0  0  0  0  0  0  0  0  0  0  0
    0.3604   -5.0085    0.0000 N   0  0  0  0  0  0  0  0  0  0  0  0
    0.7729   -4.2940    0.0000 C   0  0  0  0  0  0  0  0  0  0  0  0
    0.9516   -5.0085    0.0000 C   0  0  0  0  0  0  0  0  0  0  0  0
    0.7729   -5.7229    0.0000 C   0  0  0  0  0  0  0  0  0  0  0  0
    1.5979   -5.7229    0.0000 C   0  0  0  0  0  0  0  0  0  0  0  0
    2.0104   -5.0085    0.0000 N   0  0  0  0  0  0  0  0  0  0  0  0
    1.5979   -4.2940    0.0000 C   0  0  0  0  0  0  0  0  0  0  0  0
    2.8354   -5.0085    0.0000 C   0  0  0  0  0  0  0  0  0  0  0  0
    3.2479   -4.2940    0.0000 C   0  0  0  0  0  0  0  0  0  0  0  0
    4.0729   -4.2940    0.0000 C   0  0  0  0  0  0  0  0  0  0  0  0
    4.4854   -5.0085    0.0000 C   0  0  0  0  0  0  0  0  0  0  0  0
    4.0729   -5.7229    0.0000 C   0  0  0  0  0  0  0  0  0  0  0  0
    3.2479   -5.7229    0.0000 N   0  0  0  0  0  0  0  0  0  0  0  0
    5.3104   -5.0085    0.0000 C   0  0  0  0  0  0  0  0  0  0  0  0
    5.7229   -4.2940    0.0000 C   0  0  0  0  0  0  0  0  0  0  0  0
    6.5479   -4.2940    0.0000 C   0  0  0  0  0  0  0  0  0  0  0  0
    6.9604   -3.5795    0.0000 O   0  0  0  0  0  0  0  0  0  0  0  0
    7.7854   -3.5795    0.0000 C   0  0  0  0  0  0  0  0  0  0  0  0
    8.1979   -2.8651    0.0000 C   0  0  0  0  0  0  0  0  0  0  0  0
    8.6104   -2.1506    0.0000 C   0  0  0  0  0  0  0  0  0  0  0  0
    8.9124   -3.2776    0.0000 C   0  0  0  0  0  0  0  0  0  0  0  0
    7.4835   -2.4526    0.0000 O   0  0  0  0  0  0  0  0  0  0  0  0
    6.9604   -5.0085    0.0000 C   0  0  0  0  0  0  0  0  0  0  0  0
    6.5479   -5.7229    0.0000 N   0  0  0  0  0  0  0  0  0  0  0  0
    6.8029   -6.5076    0.0000 N   0  0  0  0  0  0  0  0  0  0  0  0
    6.1354   -6.9925    0.0000 C   0  0  0  0  0  0  0  0  0  0  0  0
    5.4680   -6.5076    0.0000 C   0  0  0  0  0  0  0  0  0  0  0  0
    4.6834   -6.7625    0.0000 C   0  0  0  0  0  0  0  0  0  0  0  0
    3.8988   -7.0174    0.0000 N   0  0  0  0  0  0  0  0  0  0  0  0
    5.7229   -5.7229    0.0000 C   0  0  0  0  0  0  0  0  0  0  0  0
   -0.4646   -6.4374    0.0000 C   0  0  0  0  0  0  0  0  0  0  0  0
   -0.8771   -7.1519    0.0000 C   0  0  0  0  0  0  0  0  0  0  0  0
  1  2  1  0
  2  3  1  0
  3  4  2  0
  3 39  1  0
  4  5  1  0
  5  6  2  0
  6  7  1  0
  6 38  1  0
  7  8  1  0
  8  9  1  0
  8 11  1  0
  9 10  1  0
  9 14  1  0
 10 11  1  0
 11 12  1  0
 12 13  1  0
 13 14  1  0
 13 15  1  0
 15 16  2  0
 15 20  1  0
 16 17  1  0
 17 18  2  0
 18 19  1  0
 18 21  1  0
 19 20  2  0
 21 22  2  0
 21 37  1  0
 22 23  1  0
 23 24  1  0
 23 30  2  0
 24 25  1  0
 25 26  1  0
 26 27  1  0
 26 28  1  0
 26 29  1  0
 30 31  1  0
 31 32  1  0
 31 37  1  0
 32 33  2  0
 33 34  1  0
 34 35  1  0
 34 37  2  0
 35 36  3  0
 38 39  2  0
M  END
>  <DRUGBANK_ID>  (1) 
DB15685

>  <COMMON_NAME>  (1) 
Selpercatinib

>  <CAS_NUMBER>  (1) 
2152628-33-4

>  <UNII>  (1) 
CEGM9YBNGD

>  <SYNONYMS>  (1) 
6-(2-hydroxy-2-methylpropoxy)-4-(6-(6-((6-methoxypyridin-3-yl)methyl)-3,6-diazabicyclo[3.1.1]heptan-3-yl)pyridin-3-yl)pyrazolo[1,5-a]pyridine-3-carbonitrile; Selpercatinib

$$$$
