C48
     RDKit          2D

 30 31  0  0  0  0  0  0  0  0999 V2000
   -1.2804    1.3729    0.0000 O   0  0  0  0  0  0  0  0  0  0  0  0
    0.1228    1.1029    0.0000 O   0  0  0  0  0  0  0  0  0  0  0  0
    0.4346   -1.0575    0.0000 O   0  0  0  0  0  0  0  0  0  0  0  0
    3.3969   -0.7875    0.0000 O   0  0  0  0  0  0  0  0  0  0  0  0
    1.3701    0.0227    0.0000 N   0  0  0  0  0  0  0  0  0  0  0  0
    2.9292    0.5628    0.0000 N   0  0  0  0  0  0  0  0  0  0  0  0
   -2.2159    0.2927    0.0000 N   0  0  0  0  0  0  0  0  0  0  0  0
   -4.0868    1.9130    0.0000 N   0  0  0  0  0  0  0  0  0  0  0  0
   -1.4363    0.5628    0.0000 C   0  0  0  0  0  0  0  0  0  0  0  0
   -0.8127    0.0227    0.0000 C   0  0  0  0  0  0  0  0  0  0  0  0
   -0.0331    0.2927    0.0000 C   0  0  0  0  0  0  0  0  0  0  0  0
    0.5905   -0.2474    0.0000 C   0  0  0  0  0  0  0  0  0  0  0  0
    1.9937   -0.5174    0.0000 C   0  0  0  0  0  0  0  0  0  0  0  0
    1.8378   -1.3275    0.0000 C   0  0  0  0  0  0  0  0  0  0  0  0
    2.4614   -1.8676    0.0000 C   0  0  0  0  0  0  0  0  0  0  0  0
    3.2410   -1.5976    0.0000 C   0  0  0  0  0  0  0  0  0  0  0  0
    3.8646   -2.1377    0.0000 C   0  0  0  0  0  0  0  0  0  0  0  0
    3.7087   -2.9478    0.0000 C   0  0  0  0  0  0  0  0  0  0  0  0
    2.9292   -3.2179    0.0000 C   0  0  0  0  0  0  0  0  0  0  0  0
    2.3055   -2.6778    0.0000 C   0  0  0  0  0  0  0  0  0  0  0  0
    2.7733   -0.2474    0.0000 C   0  0  0  0  0  0  0  0  0  0  0  0
    2.3055    1.1029    0.0000 C   0  0  0  0  0  0  0  0  0  0  0  0
    3.7087    0.8328    0.0000 C   0  0  0  0  0  0  0  0  0  0  0  0
   -2.8395    0.8328    0.0000 C   0  0  0  0  0  0  0  0  0  0  0  0
   -3.6191    0.5628    0.0000 C   0  0  0  0  0  0  0  0  0  0  0  0
   -4.2427    1.1029    0.0000 C   0  0  0  0  0  0  0  0  0  0  0  0
   -5.0222    0.8328    0.0000 C   0  0  0  0  0  0  0  0  0  0  0  0
   -5.6459    1.3729    0.0000 C   0  0  0  0  0  0  0  0  0  0  0  0
   -5.4900    2.1830    0.0000 C   0  0  0  0  0  0  0  0  0  0  0  0
   -4.7104    2.4531    0.0000 C   0  0  0  0  0  0  0  0  0  0  0  0
  1  9  2  0
  2 11  2  0
  3 12  2  0
  4 21  2  0
  5 12  1  0
  6 21  1  0
  6 22  1  0
  6 23  1  0
  7  9  1  0
  7 24  1  0
  8 26  2  0
  8 30  1  0
  9 10  1  0
 10 11  1  0
 11 12  1  0
 13  5  1  0
 13 14  1  6
 13 21  1  0
 14 15  1  0
 15 16  2  0
 15 20  1  0
 16 17  1  0
 17 18  2  0
 18 19  1  0
 19 20  2  0
 24 25  1  0
 25 26  1  0
 26 27  1  0
 27 28  2  0
 28 29  1  0
 29 30  2  0
M  END
>  <DRUGBANK_ID>  (1) 
DB02140

>  <SECONDARY_ACCESSION_NUMBERS>  (1) 
EXPT00812

>  <COMMON_NAME>  (1) 
N1-(1-Dimethylcarbamoyl-2-Phenyl-Ethyl)-2-Oxo-N4-(2-Pyridin-2-Yl-Ethyl)-Succinamide

$$$$
