
     RDKit          2D

 20 16  0  0  0  0  0  0  0  0999 V2000
   -3.2520    1.6904    0.0000 C   0  0  0  0  0  0  0  0  0  0  0  0
   -2.5375    2.1029    0.0000 C   0  0  0  0  0  0  0  0  0  0  0  0
   -1.8231    1.6904    0.0000 C   0  0  0  0  0  0  0  0  0  0  0  0
   -2.5375    2.9279    0.0000 N   0  0  0  0  0  0  0  0  0  0  0  0
   -1.8231    0.8654    0.0000 O   0  0  0  0  0  0  0  0  0  0  0  0
   -1.1086    2.1029    0.0000 O   0  0  0  0  0  0  0  0  0  0  0  0
   -3.9665    2.1029    0.0000 S   0  0  0  0  0  0  0  0  0  0  0  0
    2.3165    2.4554    0.0000 C   0  0  0  0  0  0  0  0  0  0  0  0
    2.7290    1.7410    0.0000 C   0  0  0  0  0  0  0  0  0  0  0  0
    3.5540    1.7410    0.0000 C   0  0  0  0  0  0  0  0  0  0  0  0
    2.3165    1.0265    0.0000 N   0  0  0  0  0  0  0  0  0  0  0  0
    3.9665    1.0265    0.0000 O   0  0  0  0  0  0  0  0  0  0  0  0
    3.9665    2.4554    0.0000 O   0  0  0  0  0  0  0  0  0  0  0  0
    1.4915    2.4554    0.0000 S   0  0  0  0  0  0  0  0  0  0  0  0
   -1.8075   -1.4990    0.0000 C   0  0  0  0  0  0  0  0  0  0  0  0
   -2.2200   -2.2134    0.0000 C   0  0  0  0  0  0  0  0  0  0  0  0
   -2.2200   -0.7845    0.0000 N   0  0  0  0  0  0  0  0  0  0  0  0
   -1.8075   -2.9279    0.0000 O   0  0  0  0  0  0  0  0  0  0  0  0
   -3.0450   -2.2134    0.0000 O   0  0  0  0  0  0  0  0  0  0  0  0
   -0.3941    2.5154    0.0000 Fe  0  0  0  0  0 15  0  0  0  0  0  0
  2  1  1  0
  2  3  1  0
  2  4  1  6
  5  3  2  0
  6  3  1  0
  7  1  1  0
  9  8  1  0
  9 10  1  0
  9 11  1  1
 12 10  2  0
 13 10  1  0
 14  8  1  0
 16 15  1  0
 17 15  1  0
 18 16  2  0
 19 16  1  0
M  CHG  3   6  -1   7  -1  20   2
M  END
>  <DRUGBANK_ID>  (1) 
DB11197

>  <COMMON_NAME>  (1) 
Ferrous cysteine glycinate

>  <UNII>  (1) 
8B4OP7RK5N

>  <SYNONYMS>  (1) 
Ferrous cysteine glycinate chelate (1:2:1)

$$$$
