
     RDKit          2D

 37 42  0  0  0  0  0  0  0  0999 V2000
    0.9791    0.9969    0.0000 C   0  0  0  0  0  0  0  0  0  0  0  0
    1.1868    0.1764    0.0000 C   0  0  0  0  0  0  0  0  0  0  0  0
    1.9714    0.4313    0.0000 C   0  0  0  0  0  0  0  0  0  0  0  0
    2.4564   -0.2361    0.0000 C   0  0  0  0  0  0  0  0  0  0  0  0
    3.2410    0.0188    0.0000 O   0  0  0  0  0  0  0  0  0  0  0  0
    3.2410    0.8438    0.0000 C   0  0  0  0  0  0  0  0  0  0  0  0
    3.9947    0.5082    0.0000 C   0  0  0  0  0  0  0  0  0  0  0  0
    4.6621    0.9932    0.0000 C   0  0  0  0  0  0  0  0  0  0  0  0
    4.5758    1.8136    0.0000 C   0  0  0  0  0  0  0  0  0  0  0  0
    5.2433    2.2986    0.0000 C   0  0  0  0  0  0  0  0  0  0  0  0
    3.8222    2.1492    0.0000 C   0  0  0  0  0  0  0  0  0  0  0  0
    3.1547    1.6643    0.0000 O   0  0  0  0  0  0  0  0  0  0  0  0
    2.4564    1.0988    0.0000 C   0  0  0  0  0  0  0  0  0  0  0  0
    2.2014    1.8833    0.0000 C   0  0  0  0  0  0  0  0  0  0  0  0
    1.9714   -0.9035    0.0000 C   0  0  0  0  0  0  0  0  0  0  0  0
    1.1868   -0.6486    0.0000 C   0  0  0  0  0  0  0  0  0  0  0  0
    0.4723   -1.0610    0.0000 C   0  0  0  0  0  0  0  0  0  0  0  0
   -0.2420   -0.6486    0.0000 C   0  0  0  0  0  0  0  0  0  0  0  0
   -0.2420    0.1764    0.0000 C   0  0  0  0  0  0  0  0  0  0  0  0
    0.4723    0.5889    0.0000 C   0  0  0  0  0  0  0  0  0  0  0  0
   -0.9565   -1.0610    0.0000 C   0  0  0  0  0  0  0  0  0  0  0  0
   -0.9565   -0.2361    0.0000 C   0  0  0  0  0  0  0  0  0  0  0  0
   -1.6709   -0.6486    0.0000 C   0  0  0  0  0  0  0  0  0  0  0  0
   -2.3855   -1.0610    0.0000 C   0  0  0  0  0  0  0  0  0  0  0  0
   -2.3855   -1.8861    0.0000 C   0  0  0  0  0  0  0  0  0  0  0  0
   -1.6709   -2.2986    0.0000 C   0  0  0  0  0  0  0  0  0  0  0  0
   -0.9565   -1.8861    0.0000 C   0  0  0  0  0  0  0  0  0  0  0  0
   -0.2420   -2.2986    0.0000 C   0  0  0  0  0  0  0  0  0  0  0  0
    0.4723   -1.8861    0.0000 C   0  0  0  0  0  0  0  0  0  0  0  0
   -3.0999   -2.2986    0.0000 O   0  0  0  0  0  0  0  0  0  0  0  0
   -3.8144   -1.8861    0.0000 C   0  0  0  0  0  0  0  0  0  0  0  0
   -3.8144   -1.0610    0.0000 C   0  0  0  0  0  0  0  0  0  0  0  0
   -4.5289   -0.6486    0.0000 C   0  0  0  0  0  0  0  0  0  0  0  0
   -4.5289    0.1764    0.0000 C   0  0  0  0  0  0  0  0  0  0  0  0
   -5.2433    0.5889    0.0000 C   0  0  0  0  0  0  0  0  0  0  0  0
   -5.2433    1.4138    0.0000 C   0  0  0  0  0  0  0  0  0  0  0  0
   -4.5289   -2.2986    0.0000 O   0  0  0  0  0  0  0  0  0  0  0  0
  2  1  1  1
  3  2  1  0
  3  4  1  1
  5  4  1  0
  6  5  1  0
  6 12  1  0
  6 13  1  0
  6  7  1  1
  8  7  1  0
  9  8  1  0
  9 10  1  6
  9 11  1  0
 11 12  1  0
 13 14  1  6
 13  3  1  0
  4 15  1  1
 16 15  1  1
 16  2  1  0
 17 16  1  0
 17 18  1  0
 18 19  1  1
 19 20  1  0
 20  2  1  0
 21 18  1  0
 21 22  1  1
 23 21  1  0
 24 23  1  0
 25 24  1  0
 25 26  1  0
 25 30  1  1
 26 27  1  0
 27 21  1  0
 28 27  2  0
 28 29  1  0
 17 29  1  6
 30 31  1  0
 31 32  1  0
 31 37  2  0
 32 33  1  0
 33 34  1  0
 34 35  1  0
 35 36  1  0
M  END
>  <DRUGBANK_ID>  (1) 
DB05263

>  <COMMON_NAME>  (1) 
Caprospinol

>  <CAS_NUMBER>  (1) 
4952-56-1

>  <UNII>  (1) 
9BU4T267E4

>  <SYNONYMS>  (1) 
Diosgenin caproate

$$$$
