
     RDKit          2D

 24 26  0  0  0  0  0  0  0  0999 V2000
    0.6364   -2.7397    0.0000 C   0  0  0  0  0  0  0  0  0  0  0  0
    0.8913   -1.9551    0.0000 C   0  0  0  0  0  0  0  0  0  0  0  0
    1.7163   -1.9551    0.0000 S   0  0  0  0  0  0  0  0  0  0  0  0
    1.9712   -2.7397    0.0000 C   0  0  0  0  0  0  0  0  0  0  0  0
    1.3038   -3.2246    0.0000 C   0  0  0  0  0  0  0  0  0  0  0  0
    1.3038   -4.0496    0.0000 C   0  0  0  0  0  0  0  0  0  0  0  0
    0.5893   -4.4621    0.0000 C   0  0  0  0  0  0  0  0  0  0  0  0
    0.5893   -5.2871    0.0000 C   0  0  0  0  0  0  0  0  0  0  0  0
   -0.1251   -5.6996    0.0000 C   0  0  0  0  0  0  0  0  0  0  0  0
   -0.8396   -5.2871    0.0000 C   0  0  0  0  0  0  0  0  0  0  0  0
   -0.8396   -4.4621    0.0000 C   0  0  0  0  0  0  0  0  0  0  0  0
   -0.1251   -4.0496    0.0000 C   0  0  0  0  0  0  0  0  0  0  0  0
    2.0183   -4.4621    0.0000 C   0  0  0  0  0  0  0  0  0  0  0  0
    2.0183   -5.2871    0.0000 O   0  0  0  0  0  0  0  0  0  0  0  0
    2.7327   -4.0496    0.0000 O   0  0  0  0  0  0  0  0  0  0  0  0
    3.4472   -4.4621    0.0000 C   0  0  0  0  0  0  0  0  0  0  0  0
    4.1617   -4.0496    0.0000 C   0  0  0  0  0  0  0  0  0  0  0  0
    4.8762   -4.4621    0.0000 N   0  0  0  0  0  0  0  0  0  0  0  0
    5.5578   -3.9974    0.0000 C   0  0  0  0  0  0  0  0  0  0  0  0
    6.3462   -4.2405    0.0000 C   0  0  0  0  0  0  0  0  0  0  0  0
    6.6476   -5.0085    0.0000 C   0  0  0  0  0  0  0  0  0  0  0  0
    6.2351   -5.7230    0.0000 C   0  0  0  0  0  0  0  0  0  0  0  0
    5.4193   -5.8459    0.0000 C   0  0  0  0  0  0  0  0  0  0  0  0
    4.8145   -5.2848    0.0000 C   0  0  0  0  0  0  0  0  0  0  0  0
  1  2  2  0
  1  5  1  0
  2  3  1  0
  3  4  1  0
  4  5  2  0
  5  6  1  0
  6  7  1  0
  6 13  1  0
  7  8  1  0
  7 12  1  0
  8  9  1  0
  9 10  1  0
 10 11  1  0
 11 12  1  0
 13 14  2  0
 13 15  1  0
 15 16  1  0
 16 17  1  0
 17 18  1  0
 18 19  1  0
 18 24  1  0
 19 20  1  0
 20 21  1  0
 21 22  1  0
 22 23  1  0
 23 24  1  0
M  END
>  <DRUGBANK_ID>  (1) 
DB13753

>  <COMMON_NAME>  (1) 
Cetiedil

>  <CAS_NUMBER>  (1) 
14176-10-4

>  <UNII>  (1) 
621RT200TO

>  <SYNONYMS>  (1) 
Cetiedil

$$$$
