
     RDKit          2D

 34 37  0  0  1  0  0  0  0  0999 V2000
   -1.2415   -1.2500    0.0000 C   0  0  0  0  0  0  0  0  0  0  0  0
   -1.0700   -2.0569    0.0000 C   0  0  0  0  0  0  0  0  0  0  0  0
   -1.6831   -2.6090    0.0000 C   0  0  0  0  0  0  0  0  0  0  0  0
   -2.4677   -2.3540    0.0000 C   0  0  0  0  0  0  0  0  0  0  0  0
   -2.6392   -1.5471    0.0000 C   0  0  0  0  0  0  0  0  0  0  0  0
   -2.0261   -0.9950    0.0000 C   0  0  0  0  0  0  0  0  0  0  0  0
   -3.0808   -2.9061    0.0000 N   0  0  0  0  0  0  0  0  0  0  0  0
   -3.8654   -2.6511    0.0000 C   0  0  0  0  0  0  0  0  0  0  0  0
   -2.9093   -3.7130    0.0000 C   0  0  0  0  0  0  0  0  0  0  0  0
   -0.6284   -0.6979    0.0000 C   0  0  0  0  0  0  0  0  0  0  0  0
   -1.2415   -0.1459    0.0000 C   0  0  0  0  0  0  0  0  0  0  0  0
   -0.1435   -1.3654    0.0000 O   0  0  0  0  0  0  0  0  0  0  0  0
    0.6411   -1.1104    0.0000 C   0  0  0  0  0  0  0  0  0  0  0  0
    0.6411   -0.2854    0.0000 C   0  0  0  0  0  0  0  0  0  0  0  0
   -0.1435   -0.0305    0.0000 O   0  0  0  0  0  0  0  0  0  0  0  0
    1.3556    0.1271    0.0000 C   0  0  0  0  0  0  0  0  0  0  0  0
    1.3556    0.9521    0.0000 C   0  0  0  0  0  0  0  0  0  0  0  0
    2.0701   -0.2854    0.0000 C   0  0  0  0  0  0  0  0  0  0  0  0
    2.0701   -1.1104    0.0000 C   0  0  0  0  0  0  0  0  0  0  0  0
    1.3556   -1.5229    0.0000 C   0  0  0  0  0  0  0  0  0  0  0  0
    1.3556   -2.3479    0.0000 Cl  0  0  0  0  0  0  0  0  0  0  0  0
    2.7845    0.1271    0.0000 C   0  0  0  0  0  0  0  0  0  0  0  0
    2.7845    0.9521    0.0000 O   0  0  0  0  0  0  0  0  0  0  0  0
    3.4990   -0.2854    0.0000 N   0  0  0  0  0  0  0  0  0  0  0  0
    4.2135    0.1271    0.0000 C   0  0  0  0  0  0  0  0  0  0  0  0
    4.9279   -0.2854    0.0000 C   0  0  0  0  0  0  0  0  0  0  0  0
    5.6424    0.1271    0.0000 C   0  0  0  0  0  0  0  0  0  0  0  0
    5.6424    0.9521    0.0000 C   0  0  0  0  0  0  0  0  0  0  0  0
    6.3569   -0.2854    0.0000 C   0  0  0  0  0  0  0  0  0  0  0  0
    6.3569   -1.1104    0.0000 C   0  0  0  0  0  0  0  0  0  0  0  0
    7.0714   -1.5229    0.0000 C   0  0  0  0  0  0  0  0  0  0  0  0
    5.6424   -1.5229    0.0000 N   0  0  0  0  0  0  0  0  0  0  0  0
    4.9279   -1.1104    0.0000 C   0  0  0  0  0  0  0  0  0  0  0  0
    4.2135   -1.5229    0.0000 O   0  0  0  0  0  0  0  0  0  0  0  0
  1  2  1  1
  1  6  1  0
  1 10  1  0
  2  3  1  0
  4  3  1  0
  4  5  1  0
  4  7  1  6
  5  6  1  0
  7  8  1  0
  7  9  1  0
 10 11  1  1
 10 12  1  0
 10 15  1  0
 12 13  1  0
 13 14  2  0
 13 20  1  0
 14 15  1  0
 14 16  1  0
 16 17  1  0
 16 18  2  0
 18 19  1  0
 18 22  1  0
 19 20  2  0
 20 21  1  0
 22 23  2  0
 22 24  1  0
 24 25  1  0
 25 26  1  0
 26 27  2  0
 26 33  1  0
 27 28  1  0
 27 29  1  0
 29 30  2  0
 30 31  1  0
 30 32  1  0
 32 33  1  0
 33 34  2  0
M  END
>  <DRUGBANK_ID>  (1) 
DB18314

>  <COMMON_NAME>  (1) 
Valemetostat

>  <CAS_NUMBER>  (1) 
1809336-39-7

>  <UNII>  (1) 
60RD0234VE

>  <SYNONYMS>  (1) 
Ezh1/2 inhibitor ds-3201

$$$$
