
     RDKit          2D

  1  0  0  0  0  0  0  0  0  0999 V2000
    0.0000    0.0000    0.0000 Cr  0  0  0  0  0 15  0  0  0  0  0  0
M  CHG  1   1   3
M  END
>  <DRUGBANK_ID>  (1) 
DB14525

>  <COMMON_NAME>  (1) 
Chromic cation

>  <CAS_NUMBER>  (1) 
16065-83-1

>  <UNII>  (1) 
X1N4508KF1

>  <SYNONYMS>  (1) 
Chromic ion; Chromium (3+); Chromium cation (3+); Chromium cation (Cr3+); Chromium ion (3+); Chromium, ion (Cr3+); Chromium(III); Chromium(III) cation; Chromium(III) ion; Cr3+

$$$$
