
     RDKit          2D

 13 13  0  0  1  0  0  0  0  0999 V2000
    1.4289   -0.0000    0.0000 C   0  0  0  0  0  0  0  0  0  0  0  0
    0.0000   -0.0000    0.0000 C   0  0  0  0  0  0  0  0  0  0  0  0
    1.4289    0.8250    0.0000 C   0  0  0  0  0  0  0  0  0  0  0  0
    0.0000    0.8250    0.0000 C   0  0  0  0  0  0  0  0  0  0  0  0
    0.7145   -1.2375    0.0000 C   0  0  0  0  0  0  0  0  0  0  0  0
    0.7145   -0.4125    0.0000 C   0  0  0  0  0  0  0  0  0  0  0  0
    0.7145    1.2375    0.0000 C   0  0  0  0  0  0  0  0  0  0  0  0
    1.4289   -1.6500    0.0000 C   0  0  0  0  0  0  0  0  0  0  0  0
    1.4289   -2.4750    0.0000 C   0  0  0  0  0  0  0  0  0  0  0  0
    0.7145    2.0625    0.0000 I   0  0  0  0  0  0  0  0  0  0  0  0
    2.1434   -1.2375    0.0000 N   0  0  0  0  0  0  0  0  0  0  0  0
    2.1434   -2.8875    0.0000 O   0  0  0  0  0  0  0  0  0  0  0  0
    0.7145   -2.8875    0.0000 O   0  0  0  0  0  0  0  0  0  0  0  0
  3  1  2  0
  4  2  1  0
  6  1  1  0
  6  2  2  0
  6  5  1  0
  7  3  1  0
  7  4  2  0
  8  5  1  0
  8 11  1  1
  9  8  1  0
 10  7  1  0
 12  9  2  0
 13  9  1  0
M  END
>  <DRUGBANK_ID>  (1) 
DB04713

>  <COMMON_NAME>  (1) 
4-Iodo-D-phenylalanine

>  <CAS_NUMBER>  (1) 
62561-75-5

>  <SYNONYMS>  (1) 
D-p-Iodophenylalanine

$$$$
