SK2
     RDKit          2D

 29 31  0  0  0  0  0  0  0  0999 V2000
   -4.6808    0.0323    0.0000 O   0  0  0  0  0  0  0  0  0  0  0  0
   -3.9664    0.4448    0.0000 S   0  0  0  0  0  0  0  0  0  0  0  0
   -3.5539   -0.2697    0.0000 O   0  0  0  0  0  0  0  0  0  0  0  0
   -4.3789    1.1592    0.0000 O   0  0  0  0  0  0  0  0  0  0  0  0
   -3.2519    0.8573    0.0000 N   0  0  0  0  0  0  0  0  0  0  0  0
   -2.5374    0.4448    0.0000 C   0  0  0  0  0  0  0  0  0  0  0  0
   -2.5374   -0.3802    0.0000 C   0  0  0  0  0  0  0  0  0  0  0  0
   -1.8229    0.8573    0.0000 C   0  0  0  0  0  0  0  0  0  0  0  0
   -1.1085    0.4448    0.0000 C   0  0  0  0  0  0  0  0  0  0  0  0
   -0.3940    0.8573    0.0000 C   0  0  0  0  0  0  0  0  0  0  0  0
    0.3205    0.4448    0.0000 N   0  0  0  0  0  0  0  0  0  0  0  0
    0.3205   -0.3802    0.0000 C   0  0  0  0  0  0  0  0  0  0  0  0
    1.0349   -0.7927    0.0000 C   0  0  0  0  0  0  0  0  0  0  0  0
    1.0349   -1.6177    0.0000 O   0  0  0  0  0  0  0  0  0  0  0  0
    1.7494   -0.3802    0.0000 N   0  0  0  0  0  0  0  0  0  0  0  0
    2.4639   -0.7927    0.0000 C   0  0  0  0  0  0  0  0  0  0  0  0
   -0.3940   -0.7927    0.0000 C   0  0  0  0  0  0  0  0  0  0  0  0
   -1.1085   -0.3802    0.0000 C   0  0  0  0  0  0  0  0  0  0  0  0
   -1.8229   -0.7927    0.0000 C   0  0  0  0  0  0  0  0  0  0  0  0
    1.0349    0.8573    0.0000 C   0  0  0  0  0  0  0  0  0  0  0  0
    1.0349    1.6823    0.0000 O   0  0  0  0  0  0  0  0  0  0  0  0
    1.7494    0.4448    0.0000 O   0  0  0  0  0  0  0  0  0  0  0  0
    2.4639    0.8573    0.0000 C   0  0  0  0  0  0  0  0  0  0  0  0
    3.1784    0.4448    0.0000 C   0  0  0  0  0  0  0  0  0  0  0  0
    3.8928    0.8573    0.0000 C   0  0  0  0  0  0  0  0  0  0  0  0
    4.6073    0.4448    0.0000 C   0  0  0  0  0  0  0  0  0  0  0  0
    3.1784   -0.3802    0.0000 C   0  0  0  0  0  0  0  0  0  0  0  0
    3.8928   -0.7927    0.0000 C   0  0  0  0  0  0  0  0  0  0  0  0
    4.6073   -0.3802    0.0000 C   0  0  0  0  0  0  0  0  0  0  0  0
  1  2  1  0
  2  3  2  0
  2  4  2  0
  2  5  1  0
  5  6  1  0
  6  7  2  0
  6  8  1  0
  7 19  1  0
  8  9  2  0
  9 10  1  0
  9 18  1  0
 10 11  1  0
 11 12  1  0
 11 20  1  0
 12 13  1  6
 12 17  1  0
 13 14  2  0
 13 15  1  0
 15 16  1  0
 17 18  1  0
 18 19  2  0
 20 21  2  0
 20 22  1  0
 22 23  1  0
 23 24  1  0
 24 25  2  0
 24 27  1  0
 25 26  1  0
 26 29  2  0
 27 28  2  0
 28 29  1  0
M  END
>  <DRUGBANK_ID>  (1) 
DB08549

>  <COMMON_NAME>  (1) 
(3R)-METHYLCARBAMOYL-7-SULFOAMINO-3,4-DIHYDRO-1H-ISOQUINOLINE-2-CARBOXYLIC ACID BENZYL ESTER

$$$$
