
     RDKit          2D

 34 33  0  0  1  0  0  0  0  0999 V2000
   15.3730   -8.8756    0.0000 C   0  0  0  0  0  0  0  0  0  0  0  0
   16.0875   -9.2881    0.0000 C   0  0  0  0  0  0  0  0  0  0  0  0
   16.8020   -8.8756    0.0000 C   0  0  0  0  0  0  0  0  0  0  0  0
   17.5164   -9.2881    0.0000 C   0  0  0  0  0  0  0  0  0  0  0  0
   18.2309   -8.8756    0.0000 C   0  0  0  0  0  0  0  0  0  0  0  0
   18.9454   -9.2881    0.0000 C   0  0  0  0  0  0  0  0  0  0  0  0
   19.6599   -8.8756    0.0000 C   0  0  0  0  0  0  0  0  0  0  0  0
   20.3743   -9.2881    0.0000 C   0  0  0  0  0  0  0  0  0  0  0  0
   21.0888   -8.8756    0.0000 C   0  0  0  0  0  0  0  0  0  0  0  0
   21.8033   -9.2881    0.0000 C   0  0  0  0  0  0  0  0  0  0  0  0
   22.5177   -8.8756    0.0000 C   0  0  0  0  0  0  0  0  0  0  0  0
   23.2322   -9.2881    0.0000 C   0  0  0  0  0  0  0  0  0  0  0  0
   23.9467   -8.8756    0.0000 C   0  0  0  0  0  0  0  0  0  0  0  0
   24.6612   -9.2881    0.0000 C   0  0  0  0  0  0  0  0  0  0  0  0
   25.3756   -8.8756    0.0000 C   0  0  0  0  0  0  0  0  0  0  0  0
   26.0901   -9.2881    0.0000 C   0  0  0  0  0  0  0  0  0  0  0  0
   26.8046   -8.8756    0.0000 C   0  0  0  0  0  0  0  0  0  0  0  0
   27.5190   -9.2881    0.0000 C   0  0  0  0  0  0  0  0  0  0  0  0
   28.2335   -8.8756    0.0000 O   0  0  0  0  0  0  0  0  0  0  0  0
   28.9480   -9.2881    0.0000 C   0  0  0  0  0  0  0  0  0  0  0  0
   29.6624   -8.8756    0.0000 C   0  0  0  0  0  0  0  0  0  0  0  0
   29.6624   -8.0506    0.0000 O   0  0  0  0  0  0  0  0  0  0  0  0
   30.3769   -9.2881    0.0000 C   0  0  0  0  0  0  0  0  0  0  0  0
   31.0914   -8.8756    0.0000 O   0  0  0  0  0  0  0  0  0  0  0  0
   31.8059   -9.2881    0.0000 P   0  0  0  0  0  0  0  0  0  0  0  0
   31.3934  -10.0026    0.0000 O   0  0  0  0  0  0  0  0  0  0  0  0
   32.2184   -8.5737    0.0000 O   0  0  0  0  0  0  0  0  0  0  0  0
   32.5203   -9.7006    0.0000 O   0  0  0  0  0  0  0  0  0  0  0  0
   33.2348   -9.2881    0.0000 C   0  0  0  0  0  0  0  0  0  0  0  0
   33.9493   -9.7006    0.0000 C   0  0  0  0  0  0  0  0  0  0  0  0
   34.6637   -9.2881    0.0000 N   0  0  0  0  0  0  0  0  0  0  0  0
   35.3782   -8.8756    0.0000 C   0  0  0  0  0  0  0  0  0  0  0  0
   35.0762  -10.0026    0.0000 C   0  0  0  0  0  0  0  0  0  0  0  0
   34.2512   -8.5737    0.0000 C   0  0  0  0  0  0  0  0  0  0  0  0
  1  2  1  0
  2  3  1  0
  3  4  1  0
  4  5  1  0
  5  6  1  0
  6  7  1  0
  7  8  1  0
  8  9  1  0
  9 10  1  0
 10 11  1  0
 11 12  1  0
 12 13  1  0
 13 14  1  0
 14 15  1  0
 15 16  1  0
 16 17  1  0
 17 18  1  0
 18 19  1  0
 19 20  1  0
 20 21  1  0
 21 22  1  1
 21 23  1  0
 23 24  1  0
 25 24  1  0
 25 26  1  0
 25 27  2  0
 25 28  1  0
 28 29  1  0
 29 30  1  0
 30 31  1  0
 31 32  1  0
 31 33  1  0
 31 34  1  0
M  CHG  1  31   1
M  END
>  <DRUGBANK_ID>  (1) 
DB03633

>  <SECONDARY_ACCESSION_NUMBERS>  (1) 
EXPT02056

>  <COMMON_NAME>  (1) 
Lpc-Ether

$$$$
