
     RDKit          2D

 33 36  0  0  0  0  0  0  0  0999 V2000
    0.7144   -0.2062    0.0000 C   0  0  0  0  0  0  0  0  0  0  0  0
    0.7144    0.6187    0.0000 C   0  0  0  0  0  0  0  0  0  0  0  0
    1.4289   -0.6187    0.0000 C   0  0  0  0  0  0  0  0  0  0  0  0
    0.0000   -0.6187    0.0000 C   0  0  0  0  0  0  0  0  0  0  0  0
    0.0000    1.0312    0.0000 C   0  0  0  0  0  0  0  0  0  0  0  0
    1.4289    1.0312    0.0000 C   0  0  0  0  0  0  0  0  0  0  0  0
    0.7144    1.4437    0.0000 O   0  0  0  0  0  0  0  0  0  0  0  0
    2.1434   -0.2062    0.0000 C   0  0  0  0  0  0  0  0  0  0  0  0
    1.4289   -1.4437    0.0000 N   0  0  0  0  0  0  0  0  0  0  0  0
   -0.7145   -0.2062    0.0000 C   0  0  0  0  0  0  0  0  0  0  0  0
    0.0000   -1.4437    0.0000 O   0  0  0  0  0  0  0  0  0  0  0  0
   -0.7145    0.6187    0.0000 C   0  0  0  0  0  0  0  0  0  0  0  0
    0.0000    1.8562    0.0000 O   0  0  0  0  0  0  0  0  0  0  0  0
    2.1434    0.6187    0.0000 C   0  0  0  0  0  0  0  0  0  0  0  0
    1.4289    1.8562    0.0000 O   0  0  0  0  0  0  0  0  0  0  0  0
    2.8579   -0.6187    0.0000 O   0  0  0  0  0  0  0  0  0  0  0  0
    2.1434   -1.8562    0.0000 C   0  0  0  0  0  0  0  0  0  0  0  0
    0.7145   -1.8562    0.0000 C   0  0  0  0  0  0  0  0  0  0  0  0
   -1.4289   -0.6187    0.0000 C   0  0  0  0  0  0  0  0  0  0  0  0
   -1.4289    1.0312    0.0000 C   0  0  0  0  0  0  0  0  0  0  0  0
    2.8578    1.0312    0.0000 C   0  0  0  0  0  0  0  0  0  0  0  0
   -2.1434   -0.2062    0.0000 C   0  0  0  0  0  0  0  0  0  0  0  0
   -1.4289   -1.4437    0.0000 C   0  0  0  0  0  0  0  0  0  0  0  0
   -2.1434    0.6187    0.0000 C   0  0  0  0  0  0  0  0  0  0  0  0
   -1.4289    1.8562    0.0000 O   0  0  0  0  0  0  0  0  0  0  0  0
    3.5723    0.6187    0.0000 N   0  0  0  0  0  0  0  0  0  0  0  0
    2.8579    1.8562    0.0000 O   0  0  0  0  0  0  0  0  0  0  0  0
   -2.8578   -0.6187    0.0000 C   0  0  0  0  0  0  0  0  0  0  0  0
   -2.8579    1.0312    0.0000 C   0  0  0  0  0  0  0  0  0  0  0  0
   -3.5723   -0.2062    0.0000 C   0  0  0  0  0  0  0  0  0  0  0  0
   -2.8578   -1.4437    0.0000 Cl  0  0  0  0  0  0  0  0  0  0  0  0
   -3.5723    0.6187    0.0000 C   0  0  0  0  0  0  0  0  0  0  0  0
   -2.8579    1.8562    0.0000 O   0  0  0  0  0  0  0  0  0  0  0  0
  1  2  1  0
  1  3  1  6
  1  4  1  0
  2  5  1  0
  2  6  1  0
  2  7  1  1
  3  8  1  0
  3  9  1  1
  4 10  1  0
  4 11  1  1
  5 12  2  0
  5 13  1  0
  6 14  1  0
  6 15  2  0
  8 16  1  0
  8 14  2  0
  9 17  1  0
  9 18  1  0
 10 19  1  6
 10 12  1  0
 12 20  1  0
 14 21  1  0
 19 22  1  0
 19 23  2  0
 20 24  1  0
 20 25  2  0
 21 26  1  0
 21 27  2  0
 22 28  2  0
 22 24  1  0
 24 29  2  0
 28 30  1  0
 28 31  1  0
 29 32  1  0
 29 33  1  0
 30 32  2  0
M  END
>  <DRUGBANK_ID>  (1) 
DB13092

>  <SECONDARY_ACCESSION_NUMBERS>  (1) 
DB06798; DB05709

>  <COMMON_NAME>  (1) 
Meclocycline

>  <CAS_NUMBER>  (1) 
2013-58-3

>  <UNII>  (1) 
23Q8M2HE6S

>  <SYNONYMS>  (1) 
Meclociclina; Meclocycline; Meclocyclinum

$$$$
