
     RDKit          2D

 24 24  0  0  1  0  0  0  0  0999 V2000
    6.3118  -19.5337    0.0000 C   0  0  0  0  0  0  0  0  0  0  0  0
    5.0420  -19.9453    0.0000 C   0  0  0  0  0  0  0  0  0  0  0  0
    6.3112  -20.3587    0.0000 C   0  0  0  0  0  0  0  0  0  0  0  0
    5.5265  -20.6131    0.0000 C   0  0  0  0  0  0  0  0  0  0  0  0
    7.0252  -19.1195    0.0000 C   0  0  0  0  0  0  0  0  0  0  0  0
    7.0258  -20.7709    0.0000 C   0  0  0  0  0  0  0  0  0  0  0  0
    7.7401  -20.3581    0.0000 C   0  0  0  0  0  0  0  0  0  0  0  0
    9.1691  -20.3576    0.0000 C   0  0  0  0  0  0  0  0  0  0  0  0
    9.8838  -20.7698    0.0000 C   0  0  0  0  0  0  0  0  0  0  0  0
   10.5980  -20.3570    0.0000 C   0  0  0  0  0  0  0  0  0  0  0  0
   11.3126  -20.7692    0.0000 C   0  0  0  0  0  0  0  0  0  0  0  0
   12.0270  -20.3564    0.0000 C   0  0  0  0  0  0  0  0  0  0  0  0
    8.4548  -20.7703    0.0000 C   0  0  0  0  0  0  0  0  0  0  0  0
    8.4548  -21.5953    0.0000 O   0  0  0  0  0  0  0  0  0  0  0  0
    5.5273  -19.2782    0.0000 C   0  0  0  0  0  0  0  0  0  0  0  0
    5.3138  -18.4814    0.0000 O   0  0  0  0  0  0  0  0  0  0  0  0
    9.9150  -16.6831    0.0000 C   0  0  0  0  0  0  0  0  0  0  0  0
   10.6232  -17.1080    0.0000 O   0  0  0  0  0  0  0  0  0  0  0  0
    7.7335  -19.5445    0.0000 C   0  0  0  0  0  0  0  0  0  0  0  0
    8.4701  -19.1478    0.0000 C   0  0  0  0  0  0  0  0  0  0  0  0
    9.9256  -15.8713    0.0000 O   0  0  0  0  0  0  0  0  0  0  0  0
    9.2067  -17.0797    0.0000 C   0  0  0  0  0  0  0  0  0  0  0  0
    8.4701  -18.3263    0.0000 C   0  0  0  0  0  0  0  0  0  0  0  0
    9.2067  -17.9296    0.0000 C   0  0  0  0  0  0  0  0  0  0  0  0
  1 15  1  0
  1  5  1  0
  3  1  2  0
  3  6  1  0
  4  2  1  0
  4  3  1  0
  5 19  1  0
  7  6  2  0
  8 13  1  0
  9  8  1  0
 10  9  1  0
 11 10  1  0
 12 11  1  0
 13  7  1  0
 13 14  1  6
 15  2  1  0
 15 16  2  0
 18 17  1  0
 20 19  2  0
 21 17  2  0
 22 17  1  0
 23 20  1  0
 24 22  1  0
 24 23  1  0
M  END
>  <DRUGBANK_ID>  (1) 
DB02304

>  <SECONDARY_ACCESSION_NUMBERS>  (1) 
EXPT01314

>  <COMMON_NAME>  (1) 
Prostaglandin B2

>  <CAS_NUMBER>  (1) 
13367-85-6

>  <UNII>  (1) 
BIU61O9T9T

$$$$
