LZ5
     RDKit          2D

 14 15  0  0  0  0  0  0  0  0999 V2000
   16.8598    3.5077    0.0000 O   0  0  0  0  0  0  0  0  0  0  0  0
   16.1453    3.0952    0.0000 C   0  0  0  0  0  0  0  0  0  0  0  0
   15.4308    3.5077    0.0000 N   0  0  0  0  0  0  0  0  0  0  0  0
   15.4308    4.3327    0.0000 C   0  0  0  0  0  0  0  0  0  0  0  0
   14.7164    4.7452    0.0000 C   0  0  0  0  0  0  0  0  0  0  0  0
   14.7164    5.5702    0.0000 C   0  0  0  0  0  0  0  0  0  0  0  0
   15.4308    5.9827    0.0000 C   0  0  0  0  0  0  0  0  0  0  0  0
   16.1453    5.5702    0.0000 C   0  0  0  0  0  0  0  0  0  0  0  0
   16.1453    4.7452    0.0000 C   0  0  0  0  0  0  0  0  0  0  0  0
   16.1453    2.2702    0.0000 C   0  0  0  0  0  0  0  0  0  0  0  0
   16.8128    1.7853    0.0000 C   0  0  0  0  0  0  0  0  0  0  0  0
   16.5578    1.0006    0.0000 C   0  0  0  0  0  0  0  0  0  0  0  0
   15.7328    1.0006    0.0000 N   0  0  0  0  0  0  0  0  0  0  0  0
   15.4779    1.7853    0.0000 N   0  0  0  0  0  0  0  0  0  0  0  0
  1  2  2  0
  2  3  1  0
  2 10  1  0
  3  4  1  0
  4  5  2  0
  4  9  1  0
  5  6  1  0
  6  7  2  0
  7  8  1  0
  8  9  2  0
 10 11  1  0
 10 14  2  0
 11 12  2  0
 12 13  1  0
 13 14  1  0
M  END
>  <DRUGBANK_ID>  (1) 
DB08135

>  <COMMON_NAME>  (1) 
N-phenyl-1H-pyrazole-3-carboxamide

>  <UNII>  (1) 
LB4UGM0L6N

$$$$
