
     RDKit          2D

 20 21  0  0  0  0  0  0  0  0999 V2000
    0.7222    0.4267    0.0000 C   0  0  0  0  0  0  0  0  0  0  0  0
    0.7282   -0.4286    0.0000 N   0  0  0  0  0  0  0  0  0  0  0  0
   -0.0625    0.7595    0.0000 O   0  0  0  0  0  0  0  0  0  0  0  0
    1.3880    0.8685    0.0000 C   0  0  0  0  0  0  0  0  0  0  0  0
    0.0645   -0.9774    0.0000 C   0  0  0  0  0  0  0  0  0  0  0  0
    1.4465   -0.8886    0.0000 C   0  0  0  0  0  0  0  0  0  0  0  0
   -0.7101    0.2673    0.0000 C   0  0  0  0  0  0  0  0  0  0  0  0
    2.1263    0.4871    0.0000 C   0  0  0  0  0  0  0  0  0  0  0  0
    1.3880    1.7077    0.0000 O   0  0  0  0  0  0  0  0  0  0  0  0
    0.3772   -1.7077    0.0000 C   0  0  0  0  0  0  0  0  0  0  0  0
    1.1741   -1.7077    0.0000 N   0  0  0  0  0  0  0  0  0  0  0  0
   -0.7101   -0.5376    0.0000 C   0  0  0  0  0  0  0  0  0  0  0  0
   -1.4364    0.6546    0.0000 C   0  0  0  0  0  0  0  0  0  0  0  0
    2.4773    1.2316    0.0000 C   0  0  0  0  0  0  0  0  0  0  0  0
    2.8707    0.1079    0.0000 C   0  0  0  0  0  0  0  0  0  0  0  0
    1.7511   -0.2430    0.0000 C   0  0  0  0  0  0  0  0  0  0  0  0
   -1.4081   -0.9774    0.0000 C   0  0  0  0  0  0  0  0  0  0  0  0
   -2.1607    0.2370    0.0000 C   0  0  0  0  0  0  0  0  0  0  0  0
   -2.1607   -0.5940    0.0000 C   0  0  0  0  0  0  0  0  0  0  0  0
   -2.8707   -1.0036    0.0000 Cl  0  0  0  0  0  0  0  0  0  0  0  0
  1  2  1  0
  1  3  1  0
  1  4  1  0
  2  5  1  0
  2  6  1  0
  3  7  1  0
  4  8  1  0
  4  9  2  0
  5 10  2  0
  6 11  2  0
  7 12  2  0
  7 13  1  0
  8 14  1  0
  8 15  1  0
  8 16  1  0
 10 11  1  0
 12 17  1  0
 13 18  2  0
 17 19  2  0
 18 19  1  0
 19 20  1  0
M  END
>  <DRUGBANK_ID>  (1) 
DB15580

>  <COMMON_NAME>  (1) 
Climbazole

>  <CAS_NUMBER>  (1) 
38083-17-9

>  <UNII>  (1) 
9N42CW7I54

>  <SYNONYMS>  (1) 
Climbazol; Climbazole; Climbazolum

$$$$
