
     RDKit          2D

 31 35  0  0  1  0  0  0  0  0999 V2000
    3.9484    5.9752    0.0000 C   0  0  0  0  0  0  0  0  0  0  0  0
    3.1414    5.8036    0.0000 C   0  0  0  0  0  0  0  0  0  0  0  0
    4.5004    5.3621    0.0000 C   0  0  0  0  0  0  0  0  0  0  0  0
    2.8865    5.0190    0.0000 C   0  0  0  0  0  0  0  0  0  0  0  0
    4.6580    3.8630    0.0000 C   0  0  0  0  0  0  0  0  0  0  0  0
    4.1060    3.2499    0.0000 C   0  0  0  0  0  0  0  0  0  0  0  0
    1.1387    2.1904    0.0000 C   0  0  0  0  0  0  0  0  0  0  0  0
    0.6538    1.5229    0.0000 C   0  0  0  0  0  0  0  0  0  0  0  0
    0.0992   -0.1841    0.0000 C   0  0  0  0  0  0  0  0  0  0  0  0
    1.3687   -0.5966    0.0000 C   0  0  0  0  0  0  0  0  0  0  0  0
   -0.5683   -1.4940    0.0000 C   0  0  0  0  0  0  0  0  0  0  0  0
    3.3523    1.1104    0.0000 C   0  0  0  0  0  0  0  0  0  0  0  0
    4.2455    4.5775    0.0000 C   0  0  0  0  0  0  0  0  0  0  0  0
    0.0992   -1.0091    0.0000 C   0  0  0  0  0  0  0  0  0  0  0  0
    0.8838    0.0709    0.0000 C   0  0  0  0  0  0  0  0  0  0  0  0
    3.4385    4.4059    0.0000 C   0  0  0  0  0  0  0  0  0  0  0  0
    1.9233    1.9354    0.0000 C   0  0  0  0  0  0  0  0  0  0  0  0
    3.3523    3.5854    0.0000 C   0  0  0  0  0  0  0  0  0  0  0  0
    0.8838   -1.2640    0.0000 C   0  0  0  0  0  0  0  0  0  0  0  0
    2.6378    2.3479    0.0000 C   0  0  0  0  0  0  0  0  0  0  0  0
    1.9233    1.1104    0.0000 C   0  0  0  0  0  0  0  0  0  0  0  0
   -2.6568   -2.1283    0.0000 N   0  0  0  0  0  0  0  0  0  0  0  0
    3.3523    1.9354    0.0000 N   0  0  0  0  0  0  0  0  0  0  0  0
    2.6378    0.6979    0.0000 N   0  0  0  0  0  0  0  0  0  0  0  0
    2.6378    3.1729    0.0000 N   0  0  0  0  0  0  0  0  0  0  0  0
    1.1387    0.8555    0.0000 N   0  0  0  0  0  0  0  0  0  0  0  0
    1.1387   -2.0486    0.0000 O   0  0  0  0  0  0  0  0  0  0  0  0
   -2.4743   -0.9759    0.0000 O   0  0  0  0  0  0  0  0  0  0  0  0
   -1.5045   -2.3108    0.0000 O   0  0  0  0  0  0  0  0  0  0  0  0
   -1.3220   -1.1584    0.0000 O   0  0  0  0  0  0  0  0  0  0  0  0
   -1.9894   -1.6433    0.0000 S   0  0  0  0  0  0  0  0  0  0  0  0
  2  1  2  0
  3  1  1  0
  4  2  1  0
  6  5  1  0
  8  7  2  0
 13  3  2  0
 13  5  1  0
 14  9  1  0
 14 11  1  6
 15  9  1  0
 15 10  1  0
 15 26  1  1
 16  4  2  0
 16 13  1  0
 17  7  1  0
 18  6  1  0
 18 16  1  0
 18 25  1  6
 19 10  1  0
 19 14  1  0
 19 27  1  6
 20 17  2  0
 21 17  1  0
 23 12  2  0
 23 20  1  0
 24 12  1  0
 24 21  2  0
 25 20  1  0
 26  8  1  0
 26 21  1  0
 30 11  1  0
 31 22  1  0
 31 28  2  0
 31 29  2  0
 31 30  1  0
M  END
>  <DRUGBANK_ID>  (1) 
DB11759

>  <COMMON_NAME>  (1) 
Pevonedistat

>  <CAS_NUMBER>  (1) 
905579-51-3

>  <UNII>  (1) 
S3AZD8D215

>  <SYNONYMS>  (1) 
Pevonedistat

$$$$
