
     RDKit          2D

 27 29  0  0  1  0  0  0  0  0999 V2000
   -0.3497    2.6943    0.0000 C   0  0  0  0  0  0  0  0  0  0  0  0
    1.7933   -1.0304    0.0000 C   0  0  0  0  0  0  0  0  0  0  0  0
    1.0796   -1.4790    0.0000 N   0  0  0  0  0  0  0  0  0  0  0  0
   -0.3497    1.0441    0.0000 C   0  0  0  0  0  0  0  0  0  0  0  0
    0.3702    1.4275    0.0000 O   0  0  0  0  0  0  0  0  0  0  0  0
    1.7933   -2.6943    0.0000 C   0  0  0  0  0  0  0  0  0  0  0  0
    2.5054   -2.2542    0.0000 N   0  0  0  0  0  0  0  0  0  0  0  0
   -0.3497    0.2851    0.0000 C   0  0  0  0  0  0  0  0  0  0  0  0
   -1.0682   -0.2467    0.0000 N   0  0  0  0  0  0  0  0  0  0  0  0
   -1.0682    2.2426    0.0000 N   0  0  0  0  0  0  0  0  0  0  0  0
    2.5054   -1.4320    0.0000 C   0  0  0  0  0  0  0  0  0  0  0  0
   -1.0682   -2.6943    0.0000 N   0  0  0  0  0  0  0  0  0  0  0  0
   -0.3497   -2.3040    0.0000 C   0  0  0  0  0  0  0  0  0  0  0  0
    0.3702   -2.6943    0.0000 N   0  0  0  0  0  0  0  0  0  0  0  0
   -1.0682    1.4833    0.0000 C   0  0  0  0  0  0  0  0  0  0  0  0
   -1.7672   -2.3040    0.0000 C   0  0  0  0  0  0  0  0  0  0  0  0
    0.3702    2.2426    0.0000 C   0  0  0  0  0  0  0  0  0  0  0  0
    3.1881   -1.0687    0.0000 C   0  0  0  0  0  0  0  0  0  0  0  0
    1.0796   -2.3040    0.0000 C   0  0  0  0  0  0  0  0  0  0  0  0
   -1.7672   -1.4790    0.0000 C   0  0  0  0  0  0  0  0  0  0  0  0
   -1.0682   -1.0687    0.0000 C   0  0  0  0  0  0  0  0  0  0  0  0
   -0.3497   -1.4790    0.0000 C   0  0  0  0  0  0  0  0  0  0  0  0
   -3.1109   -1.0687    0.0000 C   0  0  0  0  0  0  0  0  0  0  0  0
    4.1846   -0.5159    0.0000 N   0  0  0  0  0  0  0  0  0  0  0  0
   -3.9099   -1.8446    0.0000 F   0  0  0  0  0  0  0  0  0  0  0  0
   -3.3853    0.0150    0.0000 F   0  0  0  0  0  0  0  0  0  0  0  0
   -4.1846   -0.7634    0.0000 F   0  0  0  0  0  0  0  0  0  0  0  0
  1 17  1  0
  1 10  1  0
  2  3  2  0
  2 11  1  0
  3 19  1  0
  4  5  1  0
  4  8  1  1
  4 15  1  0
  5 17  1  0
  6 19  2  0
  6  7  1  0
  7 11  2  0
  8  9  1  0
  9 21  1  0
 10 15  1  0
 11 18  1  0
 12 16  2  0
 12 13  1  0
 13 14  1  0
 13 22  2  0
 14 19  1  0
 16 20  1  0
 18 24  3  0
 20 23  1  0
 20 21  2  0
 21 22  1  0
 23 25  1  0
 23 27  1  0
 23 26  1  0
M  END
>  <DRUGBANK_ID>  (1) 
DB16876

>  <COMMON_NAME>  (1) 
SRA-737

>  <CAS_NUMBER>  (1) 
1489389-18-5

>  <UNII>  (1) 
QB6LNL4NF6

$$$$
