
     RDKit          2D

 21 23  0  0  1  0  0  0  0  0999 V2000
    0.5576   -2.4195    0.0000 C   0  0  0  0  0  0  0  0  0  0  0  0
    0.3027   -1.6349    0.0000 N   0  0  0  0  0  0  0  0  0  0  0  0
    0.7876   -0.9674    0.0000 C   0  0  0  0  0  0  0  0  0  0  0  0
    0.3027   -0.3000    0.0000 N   0  0  0  0  0  0  0  0  0  0  0  0
   -0.4819   -0.5549    0.0000 C   0  0  0  0  0  0  0  0  0  0  0  0
   -0.4819   -1.3799    0.0000 C   0  0  0  0  0  0  0  0  0  0  0  0
   -1.1964   -1.7924    0.0000 C   0  0  0  0  0  0  0  0  0  0  0  0
   -1.1964   -2.6174    0.0000 O   0  0  0  0  0  0  0  0  0  0  0  0
   -1.9109   -1.3799    0.0000 N   0  0  0  0  0  0  0  0  0  0  0  0
   -1.9109   -0.5549    0.0000 C   0  0  0  0  0  0  0  0  0  0  0  0
   -1.1964   -0.1424    0.0000 N   0  0  0  0  0  0  0  0  0  0  0  0
   -2.6253   -0.1424    0.0000 N   0  0  0  0  0  0  0  0  0  0  0  0
    0.5576    0.4846    0.0000 C   0  0  0  0  0  0  0  0  0  0  0  0
    1.3423    0.7396    0.0000 C   0  0  0  0  0  0  0  0  0  0  0  0
    1.3423    1.5646    0.0000 C   0  0  0  0  0  0  0  0  0  0  0  0
    0.5576    1.8195    0.0000 C   0  0  0  0  0  0  0  0  0  0  0  0
    0.0727    1.1521    0.0000 O   0  0  0  0  0  0  0  0  0  0  0  0
    0.3027    2.6041    0.0000 C   0  0  0  0  0  0  0  0  0  0  0  0
    0.8547    3.2172    0.0000 O   0  0  0  0  0  0  0  0  0  0  0  0
    2.0097    2.0495    0.0000 O   0  0  0  0  0  0  0  0  0  0  0  0
    2.0097    0.2547    0.0000 O   0  0  0  0  0  0  0  0  0  0  0  0
  1  2  1  0
  2  3  1  0
  2  6  1  0
  3  4  2  0
  4  5  1  0
 13  4  1  6
  5  6  2  0
  5 11  1  0
  6  7  1  0
  7  8  2  0
  7  9  1  0
  9 10  2  0
 10 11  1  0
 10 12  1  0
 13 14  1  0
 13 17  1  0
 14 15  1  0
 14 21  1  1
 15 16  1  0
 15 20  1  1
 16 17  1  0
 16 18  1  6
 18 19  1  0
M  CHG  1   4   1
M  END
>  <DRUGBANK_ID>  (1) 
DB03493

>  <SECONDARY_ACCESSION_NUMBERS>  (1) 
EXPT02164

>  <COMMON_NAME>  (1) 
7-Methylguanosine

>  <UNII>  (1) 
5290OM2I6G

$$$$
