DEB
     RDKit          2D

 27 27  0  0  0  0  0  0  0  0999 V2000
    1.4084    0.8918    0.0000 C   0  0  0  0  0  0  0  0  0  0  0  0
    2.0029    0.3197    0.0000 C   0  0  0  0  0  0  0  0  0  0  0  0
    1.8047   -0.4811    0.0000 C   0  0  0  0  0  0  0  0  0  0  0  0
    1.0121   -0.7099    0.0000 C   0  0  0  0  0  0  0  0  0  0  0  0
    0.8139   -1.5108    0.0000 C   0  0  0  0  0  0  0  0  0  0  0  0
    0.0213   -1.7396    0.0000 C   0  0  0  0  0  0  0  0  0  0  0  0
   -0.5732   -1.1676    0.0000 C   0  0  0  0  0  0  0  0  0  0  0  0
   -1.3658   -1.3964    0.0000 C   0  0  0  0  0  0  0  0  0  0  0  0
   -1.9603   -0.8243    0.0000 C   0  0  0  0  0  0  0  0  0  0  0  0
   -1.7621   -0.0235    0.0000 C   0  0  0  0  0  0  0  0  0  0  0  0
   -0.9695    0.2053    0.0000 C   0  0  0  0  0  0  0  0  0  0  0  0
   -0.7713    1.0062    0.0000 C   0  0  0  0  0  0  0  0  0  0  0  0
    0.0213    1.2350    0.0000 C   0  0  0  0  0  0  0  0  0  0  0  0
    0.2195    2.0358    0.0000 C   0  0  0  0  0  0  0  0  0  0  0  0
    1.0121    2.2646    0.0000 C   0  0  0  0  0  0  0  0  0  0  0  0
    0.6158    0.6630    0.0000 O   0  0  0  0  0  0  0  0  0  0  0  0
    1.6066    1.6926    0.0000 O   0  0  0  0  0  0  0  0  0  0  0  0
    2.7955    0.5485    0.0000 C   0  0  0  0  0  0  0  0  0  0  0  0
    2.3992   -1.0532    0.0000 O   0  0  0  0  0  0  0  0  0  0  0  0
    0.4176   -0.1379    0.0000 C   0  0  0  0  0  0  0  0  0  0  0  0
    1.4084   -2.0828    0.0000 O   0  0  0  0  0  0  0  0  0  0  0  0
   -0.1769   -2.5404    0.0000 C   0  0  0  0  0  0  0  0  0  0  0  0
   -1.5640   -2.1972    0.0000 C   0  0  0  0  0  0  0  0  0  0  0  0
   -2.7529   -1.0532    0.0000 O   0  0  0  0  0  0  0  0  0  0  0  0
   -2.3566    0.5485    0.0000 C   0  0  0  0  0  0  0  0  0  0  0  0
   -0.3750   -0.3667    0.0000 O   0  0  0  0  0  0  0  0  0  0  0  0
   -1.3658    1.5782    0.0000 C   0  0  0  0  0  0  0  0  0  0  0  0
  1  2  1  0
  1 16  1  0
  1 17  2  0
  2  3  1  0
  2 18  1  6
  3  4  1  0
  3 19  1  1
  4  5  1  0
  4 20  1  1
  5  6  1  0
  5 21  1  1
  6  7  1  0
  6 22  1  1
  7  8  1  0
  8  9  1  0
  8 23  1  1
  9 10  1  0
  9 24  2  0
 10 11  1  0
 10 25  1  6
 11 12  1  0
 11 26  1  6
 12 13  1  0
 12 27  1  1
 13 14  1  1
 13 16  1  0
 14 15  1  0
M  END
>  <DRUGBANK_ID>  (1) 
DB04070

>  <SECONDARY_ACCESSION_NUMBERS>  (1) 
EXPT01153

>  <COMMON_NAME>  (1) 
6-Deoxyerythronolide B

$$$$
