M8E
     RDKit          2D

 28 30  0  0  0  0  0  0  0  0999 V2000
   -6.0440    0.0883    0.0000 N   0  0  0  0  0  0  0  0  0  0  0  0
   -5.3295    0.5008    0.0000 O   0  0  0  0  0  0  0  0  0  0  0  0
   -3.1861    0.0883    0.0000 C   0  0  0  0  0  0  0  0  0  0  0  0
   -2.4716    0.5008    0.0000 C   0  0  0  0  0  0  0  0  0  0  0  0
   -1.7571    0.0883    0.0000 N   0  0  0  0  0  0  0  0  0  0  0  0
   -1.7571   -0.7367    0.0000 C   0  0  0  0  0  0  0  0  0  0  0  0
   -1.0427    0.5008    0.0000 C   0  0  0  0  0  0  0  0  0  0  0  0
   -0.3282    0.0883    0.0000 C   0  0  0  0  0  0  0  0  0  0  0  0
    0.4255    0.4238    0.0000 O   0  0  0  0  0  0  0  0  0  0  0  0
    0.9775   -0.1892    0.0000 C   0  0  0  0  0  0  0  0  0  0  0  0
    1.7980   -0.1030    0.0000 N   0  0  0  0  0  0  0  0  0  0  0  0
    2.2105    0.6115    0.0000 C   0  0  0  0  0  0  0  0  0  0  0  0
    1.9556    1.3961    0.0000 N   0  0  0  0  0  0  0  0  0  0  0  0
    2.5076    2.0092    0.0000 C   0  0  0  0  0  0  0  0  0  0  0  0
    3.3146    1.8376    0.0000 N   0  0  0  0  0  0  0  0  0  0  0  0
    3.5695    1.0530    0.0000 C   0  0  0  0  0  0  0  0  0  0  0  0
    4.3765    0.8815    0.0000 N   0  0  0  0  0  0  0  0  0  0  0  0
    3.0175    0.4399    0.0000 C   0  0  0  0  0  0  0  0  0  0  0  0
    3.1037   -0.3805    0.0000 N   0  0  0  0  0  0  0  0  0  0  0  0
    2.3500   -0.7161    0.0000 C   0  0  0  0  0  0  0  0  0  0  0  0
    0.5650   -0.9037    0.0000 C   0  0  0  0  0  0  0  0  0  0  0  0
    0.9006   -1.6574    0.0000 O   0  0  0  0  0  0  0  0  0  0  0  0
   -0.2420   -0.7322    0.0000 C   0  0  0  0  0  0  0  0  0  0  0  0
   -0.8550   -1.2842    0.0000 O   0  0  0  0  0  0  0  0  0  0  0  0
   -3.9005    0.5008    0.0000 C   0  0  0  0  0  0  0  0  0  0  0  0
   -4.6150    0.0883    0.0000 C   0  0  0  0  0  0  0  0  0  0  0  0
    2.7916   -2.0751    0.0000 C   0  0  0  0  0  0  0  0  0  0  0  0
    2.1785   -1.5231    0.0000 C   0  0  0  0  0  0  0  0  0  0  0  0
  1  2  1  0
  2 26  1  0
  3  4  1  0
  3 25  1  0
  4  5  1  0
  5  6  1  0
  5  7  1  0
  8  7  1  1
  8  9  1  0
  8 23  1  0
  9 10  1  0
 10 11  1  1
 10 21  1  0
 11 12  1  0
 11 20  1  0
 12 13  2  0
 12 18  1  0
 13 14  1  0
 14 15  2  0
 15 16  1  0
 16 17  1  0
 16 18  2  0
 18 19  1  0
 19 20  2  0
 20 28  1  0
 21 22  1  6
 21 23  1  0
 23 24  1  6
 25 26  1  0
 27 28  2  0
M  END
>  <DRUGBANK_ID>  (1) 
DB08163

>  <COMMON_NAME>  (1) 
5'-{[4-(aminooxy)butyl](methyl)amino}-5'-deoxy-8-ethenyladenosine

$$$$
