
     RDKit          2D

 29 24  0  0  0  0  0  0  0  0999 V2000
   -0.7315    0.2044    0.0000 C   0  0  0  0  0  0  0  0  0  0  0  0
   -0.7315    1.0294    0.0000 C   0  0  0  0  0  0  0  0  0  0  0  0
   -0.0170    1.4419    0.0000 O   0  0  0  0  0  0  0  0  0  0  0  0
   -1.4460    1.4419    0.0000 O   0  0  0  0  0  0  0  0  0  0  0  0
   -0.0170   -0.2081    0.0000 C   0  0  0  0  0  0  0  0  0  0  0  0
    0.6974   -0.6206    0.0000 C   0  0  0  0  0  0  0  0  0  0  0  0
    1.4119   -0.2081    0.0000 C   0  0  0  0  0  0  0  0  0  0  0  0
    1.4119    0.6169    0.0000 O   0  0  0  0  0  0  0  0  0  0  0  0
    2.1264   -0.6206    0.0000 O   0  0  0  0  0  0  0  0  0  0  0  0
   -0.4295   -0.9226    0.0000 C   0  0  0  0  0  0  0  0  0  0  0  0
   -0.0170   -1.6370    0.0000 O   0  0  0  0  0  0  0  0  0  0  0  0
   -1.2545   -0.9226    0.0000 O   0  0  0  0  0  0  0  0  0  0  0  0
    0.3955    0.5064    0.0000 O   0  0  0  0  0  0  0  0  0  0  0  0
    6.5091   -0.8250    0.0000 C   0  0  0  0  0  0  0  0  0  0  0  0
    5.7946   -1.2375    0.0000 C   0  0  0  0  0  0  0  0  0  0  0  0
    5.7946   -2.0625    0.0000 O   0  0  0  0  0  0  0  0  0  0  0  0
    5.0801   -0.8250    0.0000 O   0  0  0  0  0  0  0  0  0  0  0  0
    6.5091   -0.0000    0.0000 C   0  0  0  0  0  0  0  0  0  0  0  0
    6.5091    0.8250    0.0000 C   0  0  0  0  0  0  0  0  0  0  0  0
    5.7946    1.2375    0.0000 C   0  0  0  0  0  0  0  0  0  0  0  0
    5.7946    2.0625    0.0000 O   0  0  0  0  0  0  0  0  0  0  0  0
    5.0801    0.8250    0.0000 O   0  0  0  0  0  0  0  0  0  0  0  0
    7.3341   -0.0000    0.0000 C   0  0  0  0  0  0  0  0  0  0  0  0
    7.7466    0.7145    0.0000 O   0  0  0  0  0  0  0  0  0  0  0  0
    7.7466   -0.7145    0.0000 O   0  0  0  0  0  0  0  0  0  0  0  0
    5.6841   -0.0000    0.0000 O   0  0  0  0  0  0  0  0  0  0  0  0
   -2.1604    1.8544    0.0000 Zn  0  0  0  0  0 15  0  0  0  0  0  0
    2.8409   -1.0331    0.0000 Zn  0  0  0  0  0 15  0  0  0  0  0  0
   -2.0795   -0.9226    0.0000 Zn  0  0  0  0  0 15  0  0  0  0  0  0
  1  2  1  0
  1  5  1  0
  2  3  2  0
  2  4  1  0
  5  6  1  0
  5 10  1  0
  5 13  1  0
  6  7  1  0
  7  8  2  0
  7  9  1  0
 10 11  2  0
 10 12  1  0
 14 15  1  0
 14 18  1  0
 15 16  2  0
 15 17  1  0
 18 19  1  0
 18 23  1  0
 18 26  1  0
 19 20  1  0
 20 21  2  0
 20 22  1  0
 23 24  2  0
 23 25  1  0
M  CHG  8   4  -1   9  -1  12  -1  17  -1  22  -1  25  -1  27   2  28   2
M  CHG  1  29   2
M  END
>  <DRUGBANK_ID>  (1) 
DB11154

>  <COMMON_NAME>  (1) 
Zinc citrate

>  <CAS_NUMBER>  (1) 
546-46-3

>  <UNII>  (1) 
K72I3DEX9B

>  <SYNONYMS>  (1) 
Citric acid, zinc salt; Trizinc dicitrate

$$$$
