
     RDKit          2D

  1  0  0  0  0  0  0  0  0  0999 V2000
    0.0000    0.0000    0.0000 Au  0  0  0  0  0 15  0  0  0  0  0  0
M  END
>  <DRUGBANK_ID>  (1) 
DB14154

>  <COMMON_NAME>  (1) 
Gold

>  <CAS_NUMBER>  (1) 
7440-57-5

>  <UNII>  (1) 
79Y1949PYO

>  <SYNONYMS>  (1) 
Aurum metallicum; Colloidal gold; Gold flake; Gold leaf; Gold powder; Gold, colloidal; Gold, elemental

$$$$
