
     RDKit          2D

 23 25  0  0  0  0  0  0  0  0999 V2000
   -1.3596    1.4570    0.0000 C   0  0  0  0  0  0  0  0  0  0  0  0
   -1.3596    0.6320    0.0000 N   0  0  0  0  0  0  0  0  0  0  0  0
   -0.6450    0.2195    0.0000 C   0  0  0  0  0  0  0  0  0  0  0  0
    0.0693    0.6320    0.0000 C   0  0  0  0  0  0  0  0  0  0  0  0
    0.0693    1.4570    0.0000 C   0  0  0  0  0  0  0  0  0  0  0  0
   -0.6450    1.8695    0.0000 C   0  0  0  0  0  0  0  0  0  0  0  0
   -2.0740    0.2195    0.0000 C   0  0  0  0  0  0  0  0  0  0  0  0
   -2.7786    0.6264    0.0000 C   0  0  0  0  0  0  0  0  0  0  0  0
   -2.7783    1.4344    0.0000 C   0  0  0  0  0  0  0  0  0  0  0  0
   -2.0740   -0.6053    0.0000 O   0  0  0  0  0  0  0  0  0  0  0  0
   -2.7780    2.2594    0.0000 N   0  0  0  0  0  0  0  0  0  0  0  0
    0.7948    1.8760    0.0000 C   0  0  0  0  0  0  0  0  0  0  0  0
    0.7948    0.2131    0.0000 N   0  0  0  0  0  0  0  0  0  0  0  0
    1.5051    0.6230    0.0000 C   0  0  0  0  0  0  0  0  0  0  0  0
    0.7946   -0.6053    0.0000 C   0  0  0  0  0  0  0  0  0  0  0  0
    0.0732   -1.0218    0.0000 N   0  0  0  0  0  0  0  0  0  0  0  0
    0.0730   -1.8468    0.0000 C   0  0  0  0  0  0  0  0  0  0  0  0
    0.7875   -2.2594    0.0000 N   0  0  0  0  0  0  0  0  0  0  0  0
    1.5090   -1.8430    0.0000 C   0  0  0  0  0  0  0  0  0  0  0  0
    1.5091   -1.0180    0.0000 C   0  0  0  0  0  0  0  0  0  0  0  0
    2.2936   -2.0980    0.0000 N   0  0  0  0  0  0  0  0  0  0  0  0
    2.7786   -1.4307    0.0000 C   0  0  0  0  0  0  0  0  0  0  0  0
    2.2938   -0.7631    0.0000 C   0  0  0  0  0  0  0  0  0  0  0  0
  1  2  1  0
  1  6  1  0
  2  3  1  0
  2  7  1  0
  3  4  1  0
  4  5  1  0
  4 13  1  1
  5  6  1  0
  5 12  1  1
  7  8  1  0
  7 10  2  0
  8  9  1  0
  9 11  3  0
 13 14  1  0
 13 15  1  0
 15 16  2  0
 15 20  1  0
 16 17  1  0
 17 18  2  0
 18 19  1  0
 19 20  2  0
 19 21  1  0
 20 23  1  0
 21 22  1  0
 22 23  2  0
M  END
>  <DRUGBANK_ID>  (1) 
DB08895

>  <SECONDARY_ACCESSION_NUMBERS>  (1) 
DB08183

>  <COMMON_NAME>  (1) 
Tofacitinib

>  <CAS_NUMBER>  (1) 
477600-75-2

>  <UNII>  (1) 
87LA6FU830

>  <SYNONYMS>  (1) 
Tasocitinib; Tofacitinib; Tofacitinibum

$$$$
