
     RDKit          2D

 29 30  0  0  0  0  0  0  0  0999 V2000
    5.3330    2.1409    0.0000 O   0  0  0  0  0  0  0  0  0  0  0  0
    6.7620    5.4410    0.0000 O   0  0  0  0  0  0  0  0  0  0  0  0
    6.7620    2.1409    0.0000 N   0  0  0  0  0  0  0  0  0  0  0  0
    2.4751   -4.4592    0.0000 C   0  0  0  0  0  0  0  0  0  0  0  0
    2.4751   -5.2842    0.0000 C   0  0  0  0  0  0  0  0  0  0  0  0
    3.1895   -5.6968    0.0000 C   0  0  0  0  0  0  0  0  0  0  0  0
    3.1895   -4.0467    0.0000 C   0  0  0  0  0  0  0  0  0  0  0  0
    3.9041   -5.2842    0.0000 C   0  0  0  0  0  0  0  0  0  0  0  0
    3.9041   -4.4592    0.0000 C   0  0  0  0  0  0  0  0  0  0  0  0
    1.6500   -4.4592    0.0000 C   0  0  0  0  0  0  0  0  0  0  0  0
    2.0625   -3.7448    0.0000 C   0  0  0  0  0  0  0  0  0  0  0  0
    3.1895   -3.2217    0.0000 C   0  0  0  0  0  0  0  0  0  0  0  0
    4.6185   -4.0467    0.0000 C   0  0  0  0  0  0  0  0  0  0  0  0
    3.9041   -2.8092    0.0000 C   0  0  0  0  0  0  0  0  0  0  0  0
    3.9041   -1.9842    0.0000 C   0  0  0  0  0  0  0  0  0  0  0  0
    3.1895   -1.5717    0.0000 C   0  0  0  0  0  0  0  0  0  0  0  0
    4.6185   -1.5717    0.0000 C   0  0  0  0  0  0  0  0  0  0  0  0
    4.6185   -0.7466    0.0000 C   0  0  0  0  0  0  0  0  0  0  0  0
    5.3330   -0.3341    0.0000 C   0  0  0  0  0  0  0  0  0  0  0  0
    5.3330    0.4909    0.0000 C   0  0  0  0  0  0  0  0  0  0  0  0
    6.0475    0.9034    0.0000 C   0  0  0  0  0  0  0  0  0  0  0  0
    4.6185    0.9034    0.0000 C   0  0  0  0  0  0  0  0  0  0  0  0
    6.0475    1.7284    0.0000 C   0  0  0  0  0  0  0  0  0  0  0  0
    6.7620    2.9659    0.0000 C   0  0  0  0  0  0  0  0  0  0  0  0
    6.0475    3.3784    0.0000 C   0  0  0  0  0  0  0  0  0  0  0  0
    7.4765    3.3784    0.0000 C   0  0  0  0  0  0  0  0  0  0  0  0
    6.0475    4.2035    0.0000 C   0  0  0  0  0  0  0  0  0  0  0  0
    7.4765    4.2035    0.0000 C   0  0  0  0  0  0  0  0  0  0  0  0
    6.7620    4.6160    0.0000 C   0  0  0  0  0  0  0  0  0  0  0  0
  1 23  2  0
  2 29  1  0
  3 23  1  0
  3 24  1  0
  4  5  1  0
  4  7  1  0
  4 10  1  0
  4 11  1  0
  5  6  1  0
  6  8  1  0
  7  9  2  0
  7 12  1  0
  8  9  1  0
  9 13  1  0
 12 14  2  0
 14 15  1  0
 15 16  1  0
 15 17  2  0
 17 18  1  0
 18 19  2  0
 19 20  1  0
 20 21  2  0
 20 22  1  0
 21 23  1  0
 24 25  2  0
 24 26  1  0
 25 27  1  0
 26 28  2  0
 27 29  2  0
 28 29  1  0
M  END
>  <DRUGBANK_ID>  (1) 
DB05076

>  <SECONDARY_ACCESSION_NUMBERS>  (1) 
DB03922

>  <COMMON_NAME>  (1) 
Fenretinide

>  <CAS_NUMBER>  (1) 
65646-68-6

>  <UNII>  (1) 
187EJ7QEXL

>  <SYNONYMS>  (1) 
4-HPR; 4-hydroxy(phenyl)retinamide; 4-hydroxyphenyl retinamide; Fenretinida; Fenretinide; Fenretinidum; N-(4-hydroxyphenyl)all-trans retinamide

$$$$
