
     RDKit          2D

  5  4  0  0  0  0  0  0  0  0999 V2000
   -0.8250    0.0000    0.0000 O   0  0  0  0  0  0  0  0  0  0  0  0
    0.0000    0.0000    0.0000 Mo  0  0  0  0  0  6  0  0  0  0  0  0
   -0.0029    0.8250    0.0000 O   0  0  0  0  0  0  0  0  0  0  0  0
   -0.0029   -0.8250    0.0000 O   0  0  0  0  0  0  0  0  0  0  0  0
    0.8250    0.0000    0.0000 O   0  0  0  0  0  0  0  0  0  0  0  0
  1  2  1  0
  2  4  2  0
  2  5  1  0
  2  3  2  0
M  CHG  2   1  -1   5  -1
M  ISO  1   2  99
M  END
>  <DRUGBANK_ID>  (1) 
DB16587

>  <COMMON_NAME>  (1) 
Molybdate Mo-99

>  <CAS_NUMBER>  (1) 
72826-31-4

>  <UNII>  (1) 
7608GL58YX

>  <SYNONYMS>  (1) 
Molybdate ion Mo 99; Molybdate ion Mo-99; Molybdate Mo 99; Molybdate Mo-99

$$$$
