CT6
     RDKit          2D

 24 27  0  0  0  0  0  0  0  0999 V2000
    2.4192    1.5342    0.0000 Br  0  0  0  0  0  0  0  0  0  0  0  0
    1.7047    1.9467    0.0000 C   0  0  0  0  0  0  0  0  0  0  0  0
    0.9903    1.5342    0.0000 C   0  0  0  0  0  0  0  0  0  0  0  0
    0.2758    1.9467    0.0000 C   0  0  0  0  0  0  0  0  0  0  0  0
    0.2758    2.7717    0.0000 C   0  0  0  0  0  0  0  0  0  0  0  0
    0.9903    3.1842    0.0000 C   0  0  0  0  0  0  0  0  0  0  0  0
    1.7047    2.7717    0.0000 C   0  0  0  0  0  0  0  0  0  0  0  0
   -0.4387    1.5342    0.0000 C   0  0  0  0  0  0  0  0  0  0  0  0
   -0.4387    0.7092    0.0000 C   0  0  0  0  0  0  0  0  0  0  0  0
   -1.1532    0.2967    0.0000 C   0  0  0  0  0  0  0  0  0  0  0  0
   -1.8676    0.7092    0.0000 N   0  0  0  0  0  0  0  0  0  0  0  0
   -2.6522    0.4543    0.0000 N   0  0  0  0  0  0  0  0  0  0  0  0
   -3.1372    1.1217    0.0000 C   0  0  0  0  0  0  0  0  0  0  0  0
   -1.8676    1.5342    0.0000 C   0  0  0  0  0  0  0  0  0  0  0  0
   -2.6522    1.7891    0.0000 C   0  0  0  0  0  0  0  0  0  0  0  0
   -1.1532    1.9467    0.0000 N   0  0  0  0  0  0  0  0  0  0  0  0
   -1.1532   -0.5283    0.0000 N   0  0  0  0  0  0  0  0  0  0  0  0
   -0.4387   -0.9408    0.0000 C   0  0  0  0  0  0  0  0  0  0  0  0
   -0.4387   -1.7658    0.0000 C   0  0  0  0  0  0  0  0  0  0  0  0
    0.2758   -2.1783    0.0000 C   0  0  0  0  0  0  0  0  0  0  0  0
    0.2758   -3.0033    0.0000 C   0  0  0  0  0  0  0  0  0  0  0  0
   -0.4387   -3.4158    0.0000 N   0  0  0  0  0  0  0  0  0  0  0  0
   -1.1532   -3.0033    0.0000 C   0  0  0  0  0  0  0  0  0  0  0  0
   -1.1532   -2.1783    0.0000 C   0  0  0  0  0  0  0  0  0  0  0  0
  1  2  1  0
  2  3  2  0
  2  7  1  0
  3  4  1  0
  4  5  2  0
  4  8  1  0
  5  6  1  0
  6  7  2  0
  8  9  2  0
  8 16  1  0
  9 10  1  0
 10 11  2  0
 10 17  1  0
 11 12  1  0
 11 14  1  0
 12 13  1  0
 13 15  2  0
 14 15  1  0
 14 16  2  0
 17 18  1  0
 18 19  1  0
 19 20  2  0
 19 24  1  0
 20 21  1  0
 21 22  2  0
 22 23  1  0
 23 24  2  0
M  CHG  1  11   1
M  END
>  <DRUGBANK_ID>  (1) 
DB07595

>  <COMMON_NAME>  (1) 
(5Z)-5-(3-BROMOCYCLOHEXA-2,5-DIEN-1-YLIDENE)-N-(PYRIDIN-4-YLMETHYL)-1,5-DIHYDROPYRAZOLO[1,5-A]PYRIMIDIN-7-AMINE

$$$$
