
     RDKit          2D

 26 29  0  0  0  0  0  0  0  0999 V2000
    3.2789    3.7125    0.0000 F   0  0  0  0  0  0  0  0  0  0  0  0
    2.5645    3.3000    0.0000 C   0  0  0  0  0  0  0  0  0  0  0  0
    1.8500    3.7125    0.0000 C   0  0  0  0  0  0  0  0  0  0  0  0
    1.1355    3.3000    0.0000 C   0  0  0  0  0  0  0  0  0  0  0  0
    1.1355    2.4750    0.0000 C   0  0  0  0  0  0  0  0  0  0  0  0
    1.8500    2.0625    0.0000 C   0  0  0  0  0  0  0  0  0  0  0  0
    2.5645    2.4750    0.0000 C   0  0  0  0  0  0  0  0  0  0  0  0
    3.2789    2.0625    0.0000 C   0  0  0  0  0  0  0  0  0  0  0  0
    3.2789    1.2375    0.0000 C   0  0  0  0  0  0  0  0  0  0  0  0
    3.9934    0.8250    0.0000 N   0  0  0  0  0  0  0  0  0  0  0  0
    3.9934    0.0000    0.0000 C   0  0  0  0  0  0  0  0  0  0  0  0
    3.2789   -0.4125    0.0000 C   0  0  0  0  0  0  0  0  0  0  0  0
    2.5645    0.0000    0.0000 N   0  0  0  0  0  0  0  0  0  0  0  0
    1.7798   -0.2549    0.0000 C   0  0  0  0  0  0  0  0  0  0  0  0
    1.2949    0.4125    0.0000 C   0  0  0  0  0  0  0  0  0  0  0  0
    1.7798    1.0799    0.0000 N   0  0  0  0  0  0  0  0  0  0  0  0
    2.5645    0.8250    0.0000 C   0  0  0  0  0  0  0  0  0  0  0  0
    4.7079   -0.4125    0.0000 C   0  0  0  0  0  0  0  0  0  0  0  0
    5.4615   -0.0769    0.0000 N   0  0  0  0  0  0  0  0  0  0  0  0
    6.0136   -0.6900    0.0000 C   0  0  0  0  0  0  0  0  0  0  0  0
    5.6011   -1.4045    0.0000 N   0  0  0  0  0  0  0  0  0  0  0  0
    4.7941   -1.2330    0.0000 N   0  0  0  0  0  0  0  0  0  0  0  0
    6.8341   -0.6038    0.0000 C   0  0  0  0  0  0  0  0  0  0  0  0
    7.6545   -0.5176    0.0000 F   0  0  0  0  0  0  0  0  0  0  0  0
    6.9203   -1.4243    0.0000 F   0  0  0  0  0  0  0  0  0  0  0  0
    6.7478    0.2167    0.0000 F   0  0  0  0  0  0  0  0  0  0  0  0
  1  2  1  0
  2  3  2  0
  2  7  1  0
  3  4  1  0
  4  5  2  0
  5  6  1  0
  6  7  2  0
  7  8  1  0
  8  9  1  0
  9 10  2  0
  9 17  1  0
 10 11  1  0
 11 12  2  0
 11 18  1  0
 12 13  1  0
 13 14  1  0
 13 17  1  0
 14 15  2  0
 15 16  1  0
 16 17  2  0
 18 19  2  0
 18 22  1  0
 19 20  1  0
 20 21  2  0
 20 23  1  0
 21 22  1  0
 23 24  1  0
 23 25  1  0
 23 26  1  0
M  END
>  <DRUGBANK_ID>  (1) 
DB18315

>  <COMMON_NAME>  (1) 
Zagociguat

>  <CAS_NUMBER>  (1) 
2201048-82-8

>  <UNII>  (1) 
H7KEN3O8AI

>  <SYNONYMS>  (1) 
CY6463; Zagociguat

$$$$
