
     RDKit          2D

 18 20  0  0  0  0  0  0  0  0999 V2000
    5.1662   -0.9682    0.0000 O   0  0  0  0  0  0  0  0  0  0  0  0
    5.5354    0.0969    0.0000 N   0  0  0  0  0  0  0  0  0  0  0  0
    3.8597   -1.6321    0.0000 N   0  0  0  0  0  0  0  0  0  0  0  0
    3.8597   -0.3043    0.0000 C   0  0  0  0  0  0  0  0  0  0  0  0
    4.9232    0.6500    0.0000 C   0  0  0  0  0  0  0  0  0  0  0  0
    3.0791   -0.5557    0.0000 C   0  0  0  0  0  0  0  0  0  0  0  0
    5.2602    1.4031    0.0000 C   0  0  0  0  0  0  0  0  0  0  0  0
    4.1159    0.4799    0.0000 C   0  0  0  0  0  0  0  0  0  0  0  0
    3.0791   -1.3808    0.0000 C   0  0  0  0  0  0  0  0  0  0  0  0
    6.2506    0.5082    0.0000 C   0  0  0  0  0  0  0  0  0  0  0  0
    4.3412   -0.9682    0.0000 C   0  0  0  0  0  0  0  0  0  0  0  0
    6.0805    1.3155    0.0000 C   0  0  0  0  0  0  0  0  0  0  0  0
    2.3645   -0.1432    0.0000 C   0  0  0  0  0  0  0  0  0  0  0  0
    2.3645   -1.7933    0.0000 C   0  0  0  0  0  0  0  0  0  0  0  0
    4.8489    2.1183    0.0000 C   0  0  0  0  0  0  0  0  0  0  0  0
    7.0037    0.1714    0.0000 C   0  0  0  0  0  0  0  0  0  0  0  0
    1.6500   -0.5557    0.0000 C   0  0  0  0  0  0  0  0  0  0  0  0
    1.6500   -1.3808    0.0000 C   0  0  0  0  0  0  0  0  0  0  0  0
  1 11  2  0
  2  5  1  0
  2 10  1  0
  3  9  1  0
  3 11  1  0
  4  6  1  0
  4  8  2  0
  4 11  1  0
  5  7  2  0
  5  8  1  0
  6  9  2  0
  6 13  1  0
  7 12  1  0
  7 15  1  0
  9 14  1  0
 10 12  2  0
 10 16  1  0
 13 17  2  0
 14 18  2  0
 17 18  1  0
M  END
>  <DRUGBANK_ID>  (1) 
DB06436

>  <COMMON_NAME>  (1) 
Semaxanib

>  <CAS_NUMBER>  (1) 
194413-58-6

>  <UNII>  (1) 
71IA9S35AJ

>  <SYNONYMS>  (1) 
Semaxanib

$$$$
