GIN
     RDKit          2D

 31 33  0  0  0  0  0  0  0  0999 V2000
    3.1353   -0.9313    0.0000 C   0  0  0  0  0  0  0  0  0  0  0  0
    3.8497   -2.1688    0.0000 C   0  0  0  0  0  0  0  0  0  0  0  0
    3.8497   -3.8188    0.0000 C   0  0  0  0  0  0  0  0  0  0  0  0
    3.1353   -3.4063    0.0000 C   0  0  0  0  0  0  0  0  0  0  0  0
    3.1353   -2.5813    0.0000 C   0  0  0  0  0  0  0  0  0  0  0  0
    3.8497   -4.6438    0.0000 C   0  0  0  0  0  0  0  0  0  0  0  0
    4.5642   -5.0563    0.0000 C   0  0  0  0  0  0  0  0  0  0  0  0
    4.5642   -5.8813    0.0000 C   0  0  0  0  0  0  0  0  0  0  0  0
    0.9918    0.3062    0.0000 C   0  0  0  0  0  0  0  0  0  0  0  0
    0.9918    1.1312    0.0000 C   0  0  0  0  0  0  0  0  0  0  0  0
    1.7063    1.5437    0.0000 C   0  0  0  0  0  0  0  0  0  0  0  0
    1.7063    2.3687    0.0000 C   0  0  0  0  0  0  0  0  0  0  0  0
    3.1353   -0.1063    0.0000 C   0  0  0  0  0  0  0  0  0  0  0  0
    3.8497    0.3062    0.0000 C   0  0  0  0  0  0  0  0  0  0  0  0
    3.8497    1.1312    0.0000 C   0  0  0  0  0  0  0  0  0  0  0  0
    3.1353    1.5437    0.0000 C   0  0  0  0  0  0  0  0  0  0  0  0
    2.4208    1.1312    0.0000 C   0  0  0  0  0  0  0  0  0  0  0  0
    2.4208    0.3062    0.0000 C   0  0  0  0  0  0  0  0  0  0  0  0
    1.7063   -0.1063    0.0000 N   0  0  0  0  0  0  0  0  0  0  0  0
    3.8497   -1.3438    0.0000 N   0  0  0  0  0  0  0  0  0  0  0  0
    2.4208   -1.3438    0.0000 O   0  0  0  0  0  0  0  0  0  0  0  0
    4.5642   -2.5813    0.0000 C   0  0  0  0  0  0  0  0  0  0  0  0
    4.5642   -3.4063    0.0000 C   0  0  0  0  0  0  0  0  0  0  0  0
    5.2787   -3.8188    0.0000 C   0  0  0  0  0  0  0  0  0  0  0  0
    5.9931   -4.2313    0.0000 F   0  0  0  0  0  0  0  0  0  0  0  0
    4.8662   -4.5333    0.0000 F   0  0  0  0  0  0  0  0  0  0  0  0
    5.6912   -3.1043    0.0000 F   0  0  0  0  0  0  0  0  0  0  0  0
    0.9918    2.7812    0.0000 C   0  0  0  0  0  0  0  0  0  0  0  0
    0.2774    2.3687    0.0000 N   0  0  0  0  0  0  0  0  0  0  0  0
    0.2774    1.5437    0.0000 C   0  0  0  0  0  0  0  0  0  0  0  0
    0.9918    3.6062    0.0000 O   0  0  0  0  0  0  0  0  0  0  0  0
  1 21  2  0
  1 13  1  0
  1 20  1  0
  2 22  2  0
  2 20  1  0
  2  5  1  0
  3 23  2  0
  3  6  1  0
  3  4  1  0
  4  5  2  0
  6  7  1  0
  7  8  1  0
  9 10  1  0
  9 19  1  0
 10 30  2  0
 10 11  1  0
 11 12  2  0
 12 28  1  0
 13 18  1  0
 13 14  2  0
 14 15  1  0
 15 16  2  0
 16 17  1  0
 17 18  2  0
 18 19  1  0
 22 23  1  0
 23 24  1  0
 24 25  1  0
 24 27  1  0
 24 26  1  0
 28 31  2  0
 28 29  1  0
 29 30  1  0
M  END
>  <DRUGBANK_ID>  (1) 
DB07831

>  <COMMON_NAME>  (1) 
2-{[(6-OXO-1,6-DIHYDROPYRIDIN-3-YL)METHYL]AMINO}-N-[4-PROPYL-3-(TRIFLUOROMETHYL)PHENYL]BENZAMIDE

$$$$
