
     RDKit          2D

 21 22  0  0  0  0  0  0  0  0999 V2000
    1.4262   -0.0012    0.0000 C   0  0  0  0  0  0  0  0  0  0  0  0
    0.6878    0.3956    0.0000 C   0  0  0  0  0  0  0  0  0  0  0  0
    1.4262   -0.8262    0.0000 C   0  0  0  0  0  0  0  0  0  0  0  0
    2.1575    0.4124    0.0000 C   0  0  0  0  0  0  0  0  0  0  0  0
   -0.0048   -0.0012    0.0000 C   0  0  0  0  0  0  0  0  0  0  0  0
    0.6878   -1.2255    0.0000 C   0  0  0  0  0  0  0  0  0  0  0  0
    2.8574   -0.0012    0.0000 O   0  0  0  0  0  0  0  0  0  0  0  0
    2.1575    1.2399    0.0000 O   0  0  0  0  0  0  0  0  0  0  0  0
   -0.0048   -0.8262    0.0000 C   0  0  0  0  0  0  0  0  0  0  0  0
    3.5645    0.3956    0.0000 C   0  0  0  0  0  0  0  0  0  0  0  0
   -0.7216   -1.2399    0.0000 N   0  0  0  0  0  0  0  0  0  0  0  0
    4.2813   -0.0229    0.0000 C   0  0  0  0  0  0  0  0  0  0  0  0
   -1.4287   -0.8094    0.0000 C   0  0  0  0  0  0  0  0  0  0  0  0
   -2.1478   -1.2014    0.0000 C   0  0  0  0  0  0  0  0  0  0  0  0
   -1.4143    0.0083    0.0000 O   0  0  0  0  0  0  0  0  0  0  0  0
   -2.8406   -0.7805    0.0000 N   0  0  0  0  0  0  0  0  0  0  0  0
   -3.5743   -1.1797    0.0000 C   0  0  0  0  0  0  0  0  0  0  0  0
   -2.8406    0.0204    0.0000 C   0  0  0  0  0  0  0  0  0  0  0  0
   -4.2813   -0.7805    0.0000 C   0  0  0  0  0  0  0  0  0  0  0  0
   -3.5405    0.4341    0.0000 C   0  0  0  0  0  0  0  0  0  0  0  0
   -4.2813    0.0516    0.0000 C   0  0  0  0  0  0  0  0  0  0  0  0
  1  2  2  0
  1  3  1  0
  1  4  1  0
  2  5  1  0
  3  6  2  0
  4  7  1  0
  4  8  2  0
  5  9  2  0
  6  9  1  0
  7 10  1  0
  9 11  1  0
 10 12  1  0
 11 13  1  0
 13 14  1  0
 13 15  2  0
 14 16  1  0
 16 17  1  0
 16 18  1  0
 17 19  1  0
 18 20  1  0
 19 21  1  0
 20 21  1  0
M  END
>  <DRUGBANK_ID>  (1) 
DB16527

>  <COMMON_NAME>  (1) 
Ethyl piperidinoacetylaminobenzoate

>  <CAS_NUMBER>  (1) 
41653-21-8

>  <UNII>  (1) 
6M452G7O1F

>  <SYNONYMS>  (1) 
EPAB; Ethyl p-(piperidinoacetylamino)benzoate; Ethyl piperidinoacetylaminobenzoate; Sulcain; Sulcaine

$$$$
