ZHZ
     RDKit          2D

 12 12  0  0  0  0  0  0  0  0999 V2000
    3.0490    1.1135    0.0000 O   0  0  0  0  0  0  0  0  0  0  0  0
    2.3345    0.7010    0.0000 C   0  0  0  0  0  0  0  0  0  0  0  0
    1.6200    1.1135    0.0000 N   0  0  0  0  0  0  0  0  0  0  0  0
    2.3345   -0.1240    0.0000 C   0  0  0  0  0  0  0  0  0  0  0  0
    1.6200   -0.5365    0.0000 C   0  0  0  0  0  0  0  0  0  0  0  0
    1.6200   -1.3615    0.0000 C   0  0  0  0  0  0  0  0  0  0  0  0
    0.9056   -1.7740    0.0000 C   0  0  0  0  0  0  0  0  0  0  0  0
    0.1911   -1.3615    0.0000 C   0  0  0  0  0  0  0  0  0  0  0  0
   -0.5234   -1.7740    0.0000 O   0  0  0  0  0  0  0  0  0  0  0  0
   -0.5234   -2.5990    0.0000 C   0  0  0  0  0  0  0  0  0  0  0  0
    0.1911   -0.5365    0.0000 C   0  0  0  0  0  0  0  0  0  0  0  0
    0.9056   -0.1240    0.0000 C   0  0  0  0  0  0  0  0  0  0  0  0
  1  2  2  0
  2  3  1  0
  2  4  1  0
  4  5  1  0
  5  6  2  0
  5 12  1  0
  6  7  1  0
  7  8  2  0
  8  9  1  0
  8 11  1  0
  9 10  1  0
 11 12  2  0
M  END
>  <DRUGBANK_ID>  (1) 
DB08767

>  <COMMON_NAME>  (1) 
2-(4-METHOXYPHENYL)ACETAMIDE

>  <UNII>  (1) 
RDT39HU3CZ

$$$$
