
     RDKit          2D

 40 44  0  0  1  0  0  0  0  0999 V2000
    3.5905    1.4773    0.0000 C   0  0  0  0  0  0  0  0  0  0  0  0
    2.7394    1.4464    0.0000 O   0  0  0  0  0  0  0  0  0  0  0  0
    2.1692    0.7648    0.0000 C   0  0  0  0  0  0  0  0  0  0  0  0
    1.3488    0.8511    0.0000 C   0  0  0  0  0  0  0  0  0  0  0  0
    0.8638    0.1836    0.0000 C   0  0  0  0  0  0  0  0  0  0  0  0
    0.1188    0.4923    0.0000 O   0  0  0  0  0  0  0  0  0  0  0  0
   -0.2265    1.4302    0.0000 C   0  0  0  0  0  0  0  0  0  0  0  0
   -1.0527    1.6473    0.0000 C   0  0  0  0  0  0  0  0  0  0  0  0
   -0.1151    2.3215    0.0000 C   0  0  0  0  0  0  0  0  0  0  0  0
    1.1994   -0.5701    0.0000 C   0  0  0  0  0  0  0  0  0  0  0  0
    2.0199   -0.6563    0.0000 C   0  0  0  0  0  0  0  0  0  0  0  0
    2.5048    0.0111    0.0000 C   0  0  0  0  0  0  0  0  0  0  0  0
    0.7145   -1.2375    0.0000 C   0  0  0  0  0  0  0  0  0  0  0  0
    1.3819   -1.7224    0.0000 N   0  0  0  0  0  0  0  0  0  0  0  0
    1.1270   -2.5070    0.0000 C   0  0  0  0  0  0  0  0  0  0  0  0
    0.3020   -2.5070    0.0000 C   0  0  0  0  0  0  0  0  0  0  0  0
    0.0470   -1.7224    0.0000 N   0  0  0  0  0  0  0  0  0  0  0  0
   -0.8278   -1.5148    0.0000 C   0  0  0  0  0  0  0  0  0  0  0  0
   -1.7052   -1.6401    0.0000 O   0  0  0  0  0  0  0  0  0  0  0  0
   -0.9091   -0.6605    0.0000 N   0  0  0  0  0  0  0  0  0  0  0  0
   -1.6937   -0.4056    0.0000 C   0  0  0  0  0  0  0  0  0  0  0  0
   -1.8653    0.4014    0.0000 C   0  0  0  0  0  0  0  0  0  0  0  0
   -1.2522    0.9534    0.0000 N   0  0  0  0  0  0  0  0  0  0  0  0
   -0.4675    0.6985    0.0000 C   0  0  0  0  0  0  0  0  0  0  0  0
    0.3339    1.1737    0.0000 O   0  0  0  0  0  0  0  0  0  0  0  0
   -0.2960   -0.1085    0.0000 C   0  0  0  0  0  0  0  0  0  0  0  0
   -0.1830   -3.1745    0.0000 C   0  0  0  0  0  0  0  0  0  0  0  0
    0.1526   -3.9282    0.0000 C   0  0  0  0  0  0  0  0  0  0  0  0
   -0.3323   -4.5956    0.0000 C   0  0  0  0  0  0  0  0  0  0  0  0
   -1.1528   -4.5094    0.0000 C   0  0  0  0  0  0  0  0  0  0  0  0
   -1.6697   -5.1938    0.0000 Cl  0  0  0  0  0  0  0  0  0  0  0  0
   -1.4884   -3.7557    0.0000 C   0  0  0  0  0  0  0  0  0  0  0  0
   -1.0034   -3.0882    0.0000 C   0  0  0  0  0  0  0  0  0  0  0  0
    1.6119   -3.1745    0.0000 C   0  0  0  0  0  0  0  0  0  0  0  0
    2.4324   -3.0882    0.0000 C   0  0  0  0  0  0  0  0  0  0  0  0
    2.9173   -3.7557    0.0000 C   0  0  0  0  0  0  0  0  0  0  0  0
    2.5817   -4.5094    0.0000 C   0  0  0  0  0  0  0  0  0  0  0  0
    3.1026   -5.1901    0.0000 Cl  0  0  0  0  0  0  0  0  0  0  0  0
    1.7613   -4.5956    0.0000 C   0  0  0  0  0  0  0  0  0  0  0  0
    1.2763   -3.9282    0.0000 C   0  0  0  0  0  0  0  0  0  0  0  0
  1  2  1  0
  2  3  1  0
  3  4  2  0
  3 12  1  0
  4  5  1  0
  5  6  1  0
  5 10  2  0
  6  7  1  0
  7  8  1  0
  7  9  1  0
 10 11  1  0
 10 13  1  0
 11 12  2  0
 13 14  2  0
 13 17  1  0
 15 14  1  0
 15 16  1  0
 15 34  1  1
 16 17  1  0
 16 27  1  1
 17 18  1  0
 18 19  2  0
 18 20  1  0
 20 21  1  0
 20 26  1  0
 21 22  1  0
 22 23  1  0
 23 24  1  0
 24 25  2  0
 24 26  1  0
 27 28  2  0
 27 33  1  0
 28 29  1  0
 29 30  2  0
 30 31  1  0
 30 32  1  0
 32 33  2  0
 34 35  2  0
 34 40  1  0
 35 36  1  0
 36 37  2  0
 37 38  1  0
 37 39  1  0
 39 40  2  0
M  END
>  <DRUGBANK_ID>  (1) 
DB17039

>  <COMMON_NAME>  (1) 
Nutlin-3

>  <CAS_NUMBER>  (1) 
548472-68-0

>  <UNII>  (1) 
53IA0V845C

>  <SYNONYMS>  (1) 
2-piperazinone, 4-(((4r,5s)-4,5-bis(4-chlorophenyl)-4,5-dihydro-2-(4-methoxy-2-(1-methylethoxy)phenyl)-1h-imidazol-1-yl)carbonyl)-, rel-

$$$$
