
     RDKit          2D

 12 12  0  0  0  0  0  0  0  0999 V2000
    1.0706   -1.8553    0.0000 O   0  0  0  0  0  0  0  0  0  0  0  0
    1.0706   -1.0307    0.0000 C   0  0  0  0  0  0  0  0  0  0  0  0
    1.7853   -0.6184    0.0000 C   0  0  0  0  0  0  0  0  0  0  0  0
   -1.7853    0.6170    0.0000 O   0  0  0  0  0  0  0  0  0  0  0  0
   -1.0720    0.2048    0.0000 C   0  0  0  0  0  0  0  0  0  0  0  0
   -1.0720   -0.6198    0.0000 C   0  0  0  0  0  0  0  0  0  0  0  0
   -0.3573   -1.0322    0.0000 C   0  0  0  0  0  0  0  0  0  0  0  0
    0.3572   -0.6198    0.0000 C   0  0  0  0  0  0  0  0  0  0  0  0
    0.3572    0.2062    0.0000 C   0  0  0  0  0  0  0  0  0  0  0  0
   -0.3573    0.6184    0.0000 C   0  0  0  0  0  0  0  0  0  0  0  0
   -0.3573    1.4416    0.0000 O   0  0  0  0  0  0  0  0  0  0  0  0
    0.3572    1.8553    0.0000 C   0  0  0  0  0  0  0  0  0  0  0  0
  1  2  2  0
  2  3  1  0
  2  8  1  0
  4  5  1  0
  5  6  2  0
  5 10  1  0
  6  7  1  0
  7  8  2  0
  8  9  1  0
  9 10  2  0
 10 11  1  0
 11 12  1  0
M  END
>  <DRUGBANK_ID>  (1) 
DB12618

>  <COMMON_NAME>  (1) 
Apocynin

>  <CAS_NUMBER>  (1) 
498-02-2

>  <UNII>  (1) 
B6J7B9UDTR

>  <SYNONYMS>  (1) 
Acetovanillone

$$$$
