
     RDKit          2D

 31 35  0  0  0  0  0  0  0  0999 V2000
   -2.3090    1.1936    0.0000 C   0  0  0  0  0  0  0  0  0  0  0  0
   -3.0008    0.7443    0.0000 C   0  0  0  0  0  0  0  0  0  0  0  0
   -2.7873   -0.0525    0.0000 C   0  0  0  0  0  0  0  0  0  0  0  0
   -1.9634   -0.0956    0.0000 N   0  0  0  0  0  0  0  0  0  0  0  0
   -1.6678    0.6744    0.0000 C   0  0  0  0  0  0  0  0  0  0  0  0
   -3.7359    1.1188    0.0000 O   0  0  0  0  0  0  0  0  0  0  0  0
   -1.5141   -0.7875    0.0000 C   0  0  0  0  0  0  0  0  0  0  0  0
   -1.9266   -1.5020    0.0000 O   0  0  0  0  0  0  0  0  0  0  0  0
   -0.6902   -0.7443    0.0000 N   0  0  0  0  0  0  0  0  0  0  0  0
   -0.2409   -1.4362    0.0000 C   0  0  0  0  0  0  0  0  0  0  0  0
    0.5829   -1.4794    0.0000 C   0  0  0  0  0  0  0  0  0  0  0  0
   -0.5365   -2.2064    0.0000 C   0  0  0  0  0  0  0  0  0  0  0  0
    0.1045   -2.7256    0.0000 N   0  0  0  0  0  0  0  0  0  0  0  0
    0.7964   -2.2763    0.0000 N   0  0  0  0  0  0  0  0  0  0  0  0
    1.9631   -1.1096    0.0000 C   0  0  0  0  0  0  0  0  0  0  0  0
    1.1662   -0.8961    0.0000 N   0  0  0  0  0  0  0  0  0  0  0  0
    1.5933   -2.4898    0.0000 C   0  0  0  0  0  0  0  0  0  0  0  0
    2.1766   -1.9065    0.0000 C   0  0  0  0  0  0  0  0  0  0  0  0
    2.5465   -0.5262    0.0000 N   0  0  0  0  0  0  0  0  0  0  0  0
    3.3613   -0.6553    0.0000 C   0  0  0  0  0  0  0  0  0  0  0  0
    3.7359    0.0796    0.0000 C   0  0  0  0  0  0  0  0  0  0  0  0
    3.1525    0.6630    0.0000 C   0  0  0  0  0  0  0  0  0  0  0  0
    2.4175    0.2885    0.0000 C   0  0  0  0  0  0  0  0  0  0  0  0
    1.6824    0.6631    0.0000 C   0  0  0  0  0  0  0  0  0  0  0  0
    0.9680    1.9006    0.0000 C   0  0  0  0  0  0  0  0  0  0  0  0
    0.2535    1.4881    0.0000 C   0  0  0  0  0  0  0  0  0  0  0  0
    0.2535    0.6631    0.0000 C   0  0  0  0  0  0  0  0  0  0  0  0
    0.9679    0.2506    0.0000 C   0  0  0  0  0  0  0  0  0  0  0  0
    1.6824    1.4881    0.0000 C   0  0  0  0  0  0  0  0  0  0  0  0
    1.0111   -0.5732    0.0000 F   0  0  0  0  0  0  0  0  0  0  0  0
    0.9680    2.7256    0.0000 F   0  0  0  0  0  0  0  0  0  0  0  0
  1  2  1  0
  1  5  1  0
  2  3  1  0
  2  6  1  1
  3  4  1  0
  4  5  1  0
  4  7  1  0
  7  8  2  0
  7  9  1  0
  9 10  1  0
 10 12  1  0
 11 14  1  0
 11 10  2  0
 12 13  2  0
 13 14  1  0
 14 17  1  0
 15 16  2  0
 15 18  1  0
 15 19  1  0
 16 11  1  0
 17 18  2  0
 19 20  1  0
 19 23  1  0
 20 21  1  0
 21 22  1  0
 22 23  1  0
 23 24  1  1
 24 29  2  0
 25 26  2  0
 25 29  1  0
 25 31  1  0
 26 27  1  0
 27 28  2  0
 28 24  1  0
 28 30  1  0
M  END
>  <DRUGBANK_ID>  (1) 
DB14723

>  <COMMON_NAME>  (1) 
Larotrectinib

>  <CAS_NUMBER>  (1) 
1223403-58-4

>  <UNII>  (1) 
PF9462I9HX

>  <SYNONYMS>  (1) 
Larotrectinib

$$$$
