
     RDKit          2D

 33 36  0  0  0  0  0  0  0  0999 V2000
   -2.8011   -2.7297    0.0000 O   0  0  0  0  0  0  0  0  0  0  0  0
   -0.0041   -0.3824    0.0000 O   0  0  0  0  0  0  0  0  0  0  0  0
   -1.7510   -3.2135    0.0000 O   0  0  0  0  0  0  0  0  0  0  0  0
   -0.3221   -2.3885    0.0000 O   0  0  0  0  0  0  0  0  0  0  0  0
    0.0327    3.2134    0.0000 O   0  0  0  0  0  0  0  0  0  0  0  0
    0.3923   -1.1510    0.0000 O   0  0  0  0  0  0  0  0  0  0  0  0
    3.2502   -1.9760    0.0000 O   0  0  0  0  0  0  0  0  0  0  0  0
    2.5357   -3.2135    0.0000 O   0  0  0  0  0  0  0  0  0  0  0  0
   -1.9806   -1.3085    0.0000 C   0  0  0  0  0  0  0  0  0  0  0  0
   -2.4655   -1.9760    0.0000 C   0  0  0  0  0  0  0  0  0  0  0  0
   -2.4655   -0.6411    0.0000 C   0  0  0  0  0  0  0  0  0  0  0  0
   -1.3095    0.1987    0.0000 C   0  0  0  0  0  0  0  0  0  0  0  0
   -2.1299    0.1125    0.0000 C   0  0  0  0  0  0  0  0  0  0  0  0
   -0.9739    0.9524    0.0000 C   0  0  0  0  0  0  0  0  0  0  0  0
   -1.1601   -1.2223    0.0000 C   0  0  0  0  0  0  0  0  0  0  0  0
   -0.8245   -0.4686    0.0000 C   0  0  0  0  0  0  0  0  0  0  0  0
   -3.2501   -1.7210    0.0000 C   0  0  0  0  0  0  0  0  0  0  0  0
   -3.2501   -0.8960    0.0000 C   0  0  0  0  0  0  0  0  0  0  0  0
   -1.7510   -2.3885    0.0000 C   0  0  0  0  0  0  0  0  0  0  0  0
   -1.4588    1.6198    0.0000 C   0  0  0  0  0  0  0  0  0  0  0  0
   -2.6149    0.7799    0.0000 C   0  0  0  0  0  0  0  0  0  0  0  0
   -1.5681   -2.0230    0.0000 C   0  0  0  0  0  0  0  0  0  0  0  0
   -2.2793    1.5336    0.0000 C   0  0  0  0  0  0  0  0  0  0  0  0
   -0.1534    1.0387    0.0000 C   0  0  0  0  0  0  0  0  0  0  0  0
   -0.4890    0.2849    0.0000 C   0  0  0  0  0  0  0  0  0  0  0  0
   -1.1233    2.3735    0.0000 C   0  0  0  0  0  0  0  0  0  0  0  0
   -1.0366   -1.9760    0.0000 C   0  0  0  0  0  0  0  0  0  0  0  0
    0.1820    1.7923    0.0000 C   0  0  0  0  0  0  0  0  0  0  0  0
   -0.3028    2.4598    0.0000 C   0  0  0  0  0  0  0  0  0  0  0  0
    0.3923   -1.9760    0.0000 C   0  0  0  0  0  0  0  0  0  0  0  0
    1.1068   -2.3885    0.0000 C   0  0  0  0  0  0  0  0  0  0  0  0
    1.8212   -1.9760    0.0000 C   0  0  0  0  0  0  0  0  0  0  0  0
    2.5357   -2.3885    0.0000 C   0  0  0  0  0  0  0  0  0  0  0  0
  3 19  2  0
  4 27  1  0
  4 30  1  0
  5 29  2  0
  6 30  2  0
  7 33  1  0
  8 33  2  0
  9 10  1  0
  9 11  1  0
  9 15  1  0
  9 22  1  1
 10  1  1  6
 10 17  1  0
 10 19  1  0
 11 13  1  0
 11 18  1  1
 12 13  1  0
 12 14  1  0
 12 16  1  1
 13 21  1  6
 14 20  1  0
 14 24  1  0
 14 25  1  1
 15 16  1  0
 16  2  1  1
 17 18  1  0
 19 27  1  0
 20 23  1  0
 20 26  2  0
 21 23  1  0
 24 28  2  0
 26 29  1  0
 28 29  1  0
 30 31  1  0
 31 32  1  0
 32 33  1  0
M  END
>  <DRUGBANK_ID>  (1) 
DB14633

>  <COMMON_NAME>  (1) 
Prednisolone hemisuccinate

>  <CAS_NUMBER>  (1) 
2920-86-7

>  <UNII>  (1) 
G7080T74ON

>  <SYNONYMS>  (1) 
(+)-prednisolone hemisuccinate; Prednisolonbisuccinat; Prednisolone 21-hemisuccinate; Prednisolone 21-succinate; Prednisolone bisuccinate; Prednisolone hemisuccinate; Prednisolone hydrogen succinate; Prednisolone succinate

$$$$
