
     RDKit          2D

 41 44  0  0  0  0  0  0  0  0999 V2000
    0.0552   -0.5384    0.0000 O   0  0  0  0  0  0  0  0  0  0  0  0
    0.0303    2.3570    0.0000 O   0  0  0  0  0  0  0  0  0  0  0  0
   -0.2128    3.1453    0.0000 O   0  0  0  0  0  0  0  0  0  0  0  0
   -5.6747    1.4605    0.0000 O   0  0  0  0  0  0  0  0  0  0  0  0
   -3.4301    3.8796    0.0000 O   0  0  0  0  0  0  0  0  0  0  0  0
   -5.3567    2.8536    0.0000 O   0  0  0  0  0  0  0  0  0  0  0  0
    1.4435   -0.3820    0.0000 N   0  0  0  0  0  0  0  0  0  0  0  0
   -0.2876    0.9638    0.0000 N   0  0  0  0  0  0  0  0  0  0  0  0
   -1.5782    2.7241    0.0000 N   0  0  0  0  0  0  0  0  0  0  0  0
    0.5166    0.7802    0.0000 C   0  0  0  0  0  0  0  0  0  0  0  0
    1.0310    1.4252    0.0000 C   0  0  0  0  0  0  0  0  0  0  0  0
    1.8560    1.4252    0.0000 C   0  0  0  0  0  0  0  0  0  0  0  0
    2.3704    0.7802    0.0000 C   0  0  0  0  0  0  0  0  0  0  0  0
    2.1869   -0.0240    0.0000 C   0  0  0  0  0  0  0  0  0  0  0  0
    0.7002   -0.0240    0.0000 C   0  0  0  0  0  0  0  0  0  0  0  0
    1.4435   -1.2070    0.0000 C   0  0  0  0  0  0  0  0  0  0  0  0
   -1.3351    1.9357    0.0000 C   0  0  0  0  0  0  0  0  0  0  0  0
   -0.5308    1.7522    0.0000 C   0  0  0  0  0  0  0  0  0  0  0  0
    2.1580   -1.6195    0.0000 C   0  0  0  0  0  0  0  0  0  0  0  0
   -1.8963    1.3310    0.0000 C   0  0  0  0  0  0  0  0  0  0  0  0
    2.1580   -2.4445    0.0000 C   0  0  0  0  0  0  0  0  0  0  0  0
    2.8725   -1.2070    0.0000 C   0  0  0  0  0  0  0  0  0  0  0  0
   -2.7006    1.5146    0.0000 C   0  0  0  0  0  0  0  0  0  0  0  0
    2.8725   -2.8570    0.0000 C   0  0  0  0  0  0  0  0  0  0  0  0
    3.5870   -1.6195    0.0000 C   0  0  0  0  0  0  0  0  0  0  0  0
    3.5870   -2.4445    0.0000 C   0  0  0  0  0  0  0  0  0  0  0  0
   -2.9437    2.3029    0.0000 C   0  0  0  0  0  0  0  0  0  0  0  0
   -3.2618    0.9097    0.0000 C   0  0  0  0  0  0  0  0  0  0  0  0
   -1.0172    3.3288    0.0000 C   0  0  0  0  0  0  0  0  0  0  0  0
   -3.7481    2.4865    0.0000 C   0  0  0  0  0  0  0  0  0  0  0  0
    4.3015   -2.8570    0.0000 C   0  0  0  0  0  0  0  0  0  0  0  0
   -4.0661    1.0934    0.0000 C   0  0  0  0  0  0  0  0  0  0  0  0
   -4.3092    1.8817    0.0000 C   0  0  0  0  0  0  0  0  0  0  0  0
   -1.2603    4.1172    0.0000 C   0  0  0  0  0  0  0  0  0  0  0  0
    4.3015   -3.6820    0.0000 C   0  0  0  0  0  0  0  0  0  0  0  0
    5.0159   -2.4445    0.0000 C   0  0  0  0  0  0  0  0  0  0  0  0
   -3.9912    3.2749    0.0000 C   0  0  0  0  0  0  0  0  0  0  0  0
   -5.1136    2.0653    0.0000 C   0  0  0  0  0  0  0  0  0  0  0  0
    5.0159   -4.0945    0.0000 C   0  0  0  0  0  0  0  0  0  0  0  0
    5.7305   -2.8570    0.0000 C   0  0  0  0  0  0  0  0  0  0  0  0
    5.7305   -3.6820    0.0000 C   0  0  0  0  0  0  0  0  0  0  0  0
  1 15  2  0
  2 18  2  0
  3 29  2  0
  4 38  1  0
  5 37  2  0
  6 38  2  0
  7 14  1  0
  7 15  1  0
  7 16  1  0
  8 18  1  0
  9 29  1  0
 10  8  1  1
 10 11  1  0
 10 15  1  0
 11 12  1  0
 12 13  1  0
 13 14  1  0
 16 19  1  0
 17  9  1  0
 17 18  1  0
 17 20  1  6
 19 21  2  0
 19 22  1  0
 20 23  1  0
 21 24  1  0
 22 25  2  0
 23 27  2  0
 23 28  1  0
 24 26  2  0
 25 26  1  0
 26 31  1  0
 27 30  1  0
 28 32  2  0
 29 34  1  0
 30 33  2  0
 30 37  1  0
 31 35  2  0
 31 36  1  0
 32 33  1  0
 33 38  1  0
 35 39  1  0
 36 40  2  0
 39 41  2  0
 40 41  1  0
M  END
>  <DRUGBANK_ID>  (1) 
DB03268

>  <SECONDARY_ACCESSION_NUMBERS>  (1) 
EXPT00063

>  <COMMON_NAME>  (1) 
RU82197

>  <SYNONYMS>  (1) 
4-[2-Acetylamino-2-(1-biphenyl-4-ylmethyl-2-oxo-azepan-3-ylcarbamoyl)-ethyl]-2-formyl-benzoic acid

$$$$
