
     RDKit          2D

 38 41  0  0  1  0  0  0  0  0999 V2000
    4.7207    3.4686    0.0000 C   0  0  0  0  0  0  0  0  0  0  0  0
    4.5492    2.6616    0.0000 C   0  0  0  0  0  0  0  0  0  0  0  0
    3.7645    2.4067    0.0000 C   0  0  0  0  0  0  0  0  0  0  0  0
    5.1623    2.1096    0.0000 C   0  0  0  0  0  0  0  0  0  0  0  0
    4.9907    1.3026    0.0000 O   0  0  0  0  0  0  0  0  0  0  0  0
    5.6038    0.7506    0.0000 C   0  0  0  0  0  0  0  0  0  0  0  0
    6.3884    1.0055    0.0000 C   0  0  0  0  0  0  0  0  0  0  0  0
    7.0015    0.4535    0.0000 C   0  0  0  0  0  0  0  0  0  0  0  0
    7.7862    0.7084    0.0000 F   0  0  0  0  0  0  0  0  0  0  0  0
    6.8300   -0.3535    0.0000 C   0  0  0  0  0  0  0  0  0  0  0  0
    6.0454   -0.6084    0.0000 C   0  0  0  0  0  0  0  0  0  0  0  0
    5.4323   -0.0564    0.0000 C   0  0  0  0  0  0  0  0  0  0  0  0
    5.8739   -1.4154    0.0000 C   0  0  0  0  0  0  0  0  0  0  0  0
    6.4870   -1.9674    0.0000 C   0  0  0  0  0  0  0  0  0  0  0  0
    6.3154   -2.7744    0.0000 C   0  0  0  0  0  0  0  0  0  0  0  0
    5.5308   -3.0293    0.0000 C   0  0  0  0  0  0  0  0  0  0  0  0
    5.3593   -3.8363    0.0000 C   0  0  0  0  0  0  0  0  0  0  0  0
    4.5747   -4.0912    0.0000 O   0  0  0  0  0  0  0  0  0  0  0  0
    5.9724   -4.3883    0.0000 N   0  0  0  0  0  0  0  0  0  0  0  0
    5.8008   -5.1953    0.0000 S   0  0  0  0  0  0  0  0  0  0  0  0
    4.9939   -5.0238    0.0000 O   0  0  0  0  0  0  0  0  0  0  0  0
    6.6078   -5.3668    0.0000 O   0  0  0  0  0  0  0  0  0  0  0  0
    5.6293   -6.0023    0.0000 C   0  0  0  0  0  0  0  0  0  0  0  0
    6.2424   -6.5543    0.0000 C   0  0  0  0  0  0  0  0  0  0  0  0
    6.0709   -7.3613    0.0000 C   0  0  0  0  0  0  0  0  0  0  0  0
    5.2863   -7.6162    0.0000 C   0  0  0  0  0  0  0  0  0  0  0  0
    4.6732   -7.0642    0.0000 C   0  0  0  0  0  0  0  0  0  0  0  0
    4.8447   -6.2572    0.0000 C   0  0  0  0  0  0  0  0  0  0  0  0
    4.9177   -2.4773    0.0000 C   0  0  0  0  0  0  0  0  0  0  0  0
    5.0892   -1.6703    0.0000 N   0  0  0  0  0  0  0  0  0  0  0  0
    4.1331   -2.7322    0.0000 N   0  0  0  0  0  0  0  0  0  0  0  0
    3.8781   -3.5169    0.0000 C   0  0  0  0  0  0  0  0  0  0  0  0
    3.0531   -3.5169    0.0000 C   0  0  0  0  0  0  0  0  0  0  0  0
    2.5682   -4.1843    0.0000 C   0  0  0  0  0  0  0  0  0  0  0  0
    2.7982   -2.7322    0.0000 C   0  0  0  0  0  0  0  0  0  0  0  0
    3.4656   -2.2473    0.0000 C   0  0  0  0  0  0  0  0  0  0  0  0
    3.0607   -1.5286    0.0000 C   0  0  0  0  0  0  0  0  0  0  0  0
    3.8706   -1.5286    0.0000 C   0  0  0  0  0  0  0  0  0  0  0  0
  1  2  1  0
  2  3  1  0
  2  4  1  0
  4  5  1  0
  5  6  1  0
  6  7  2  0
  6 12  1  0
  7  8  1  0
  8  9  1  0
  8 10  2  0
 10 11  1  0
 11 12  2  0
 11 13  1  0
 13 14  2  0
 13 30  1  0
 14 15  1  0
 15 16  2  0
 16 17  1  0
 16 29  1  0
 17 18  2  0
 17 19  1  0
 19 20  1  0
 20 21  2  0
 20 22  2  0
 20 23  1  0
 23 24  2  0
 23 28  1  0
 24 25  1  0
 25 26  2  0
 26 27  1  0
 27 28  2  0
 29 30  2  0
 29 31  1  0
 31 32  1  0
 31 36  1  0
 33 32  1  0
 33 34  1  1
 33 35  1  0
 35 36  1  0
 36 37  1  0
 36 38  1  0
M  END
>  <DRUGBANK_ID>  (1) 
DB16262

>  <COMMON_NAME>  (1) 
Olacaftor

>  <CAS_NUMBER>  (1) 
1897384-89-2

>  <UNII>  (1) 
RZ7027HK8F

>  <SYNONYMS>  (1) 
Olacaftor

$$$$
