
     RDKit          2D

 22 23  0  0  0  0  0  0  0  0999 V2000
    1.7861   -0.6187    0.0000 C   0  0  0  0  0  0  0  0  0  0  0  0
    1.7861   -1.4437    0.0000 C   0  0  0  0  0  0  0  0  0  0  0  0
    1.0716   -1.8562    0.0000 C   0  0  0  0  0  0  0  0  0  0  0  0
    0.3572   -1.4437    0.0000 C   0  0  0  0  0  0  0  0  0  0  0  0
    0.3572   -0.6187    0.0000 C   0  0  0  0  0  0  0  0  0  0  0  0
    1.0716   -0.2062    0.0000 C   0  0  0  0  0  0  0  0  0  0  0  0
    0.3572    1.0313    0.0000 O   0  0  0  0  0  0  0  0  0  0  0  0
   -0.3573    0.6188    0.0000 C   0  0  0  0  0  0  0  0  0  0  0  0
   -1.0717    1.0313    0.0000 C   0  0  0  0  0  0  0  0  0  0  0  0
   -0.3573   -0.2062    0.0000 C   0  0  0  0  0  0  0  0  0  0  0  0
   -1.0717   -0.6187    0.0000 C   0  0  0  0  0  0  0  0  0  0  0  0
   -1.7862    0.6188    0.0000 C   0  0  0  0  0  0  0  0  0  0  0  0
    1.0716    0.6188    0.0000 C   0  0  0  0  0  0  0  0  0  0  0  0
    1.7861    1.0313    0.0000 C   0  0  0  0  0  0  0  0  0  0  0  0
    2.5006    0.6188    0.0000 C   0  0  0  0  0  0  0  0  0  0  0  0
    3.2152    1.8562    0.0000 C   0  0  0  0  0  0  0  0  0  0  0  0
    3.2152    1.0313    0.0000 N   0  0  0  0  0  0  0  0  0  0  0  0
   -1.7862   -0.2062    0.0000 C   0  0  0  0  0  0  0  0  0  0  0  0
   -3.2152   -0.2062    0.0000 F   0  0  0  0  0  0  0  0  0  0  0  0
   -2.5007   -1.4437    0.0000 F   0  0  0  0  0  0  0  0  0  0  0  0
   -2.5007   -0.6187    0.0000 C   0  0  0  0  0  0  0  0  0  0  0  0
   -3.2152   -1.0312    0.0000 F   0  0  0  0  0  0  0  0  0  0  0  0
  1  2  2  0
  2  3  1  0
  3  4  2  0
  4  5  1  0
  6  1  1  0
  6  5  2  0
  6 13  1  0
  7  8  1  0
  8 10  1  0
  9  8  2  0
  9 12  1  0
 10 11  2  0
 11 18  1  0
 13  7  1  0
 13 14  1  1
 14 15  1  0
 15 17  1  0
 17 16  1  0
 18 12  2  0
 18 21  1  0
 21 19  1  0
 21 20  1  0
 21 22  1  0
M  END
>  <DRUGBANK_ID>  (1) 
DB08544

>  <COMMON_NAME>  (1) 
(S)-Fluoxetine

>  <CAS_NUMBER>  (1) 
100568-02-3

>  <UNII>  (1) 
6MYD4C025Q

>  <SYNONYMS>  (1) 
(−)-fluoxetine; (S)-(−)-fluoxetine; (S)-N-methyl-3-(4-trifluoromethylphenoxy)-3-phenylpropylamine; (S)-N-methyl-3-(4-trifluoromethylphenyloxy)-3-(phenyl)propylamine; (S)-N-methyl-3-phenyl-3-[(α,α,α-trifluoro-p-tolyl)oxy]propylamine; (S)-N-methyl-γ-(4-trifluoromethylphenoxy)-3-phenylpropylamine; (S)-Prozac

$$$$
