
     RDKit          2D

 27 30  0  0  0  0  0  0  0  0999 V2000
   -2.6976    0.2309    0.0000 C   0  0  0  0  0  0  0  0  0  0  0  0
   -3.4070   -0.1814    0.0000 C   0  0  0  0  0  0  0  0  0  0  0  0
   -3.4070   -1.0064    0.0000 C   0  0  0  0  0  0  0  0  0  0  0  0
   -2.6976   -1.4189    0.0000 C   0  0  0  0  0  0  0  0  0  0  0  0
   -2.0129   -1.0064    0.0000 C   0  0  0  0  0  0  0  0  0  0  0  0
   -2.0129   -0.1814    0.0000 C   0  0  0  0  0  0  0  0  0  0  0  0
   -1.2951    0.2309    0.0000 C   0  0  0  0  0  0  0  0  0  0  0  0
   -1.2951   -1.4189    0.0000 C   0  0  0  0  0  0  0  0  0  0  0  0
   -0.5774   -1.0064    0.0000 N   0  0  0  0  0  0  0  0  0  0  0  0
   -0.5774   -0.1814    0.0000 C   0  0  0  0  0  0  0  0  0  0  0  0
    0.1320    0.2309    0.0000 O   0  0  0  0  0  0  0  0  0  0  0  0
   -1.2951   -2.2438    0.0000 O   0  0  0  0  0  0  0  0  0  0  0  0
   -4.1248    0.2309    0.0000 Br  0  0  0  0  0  0  0  0  0  0  0  0
   -1.2951    1.0559    0.0000 C   0  0  0  0  0  0  0  0  0  0  0  0
   -0.5774    1.4684    0.0000 N   0  0  0  0  0  0  0  0  0  0  0  0
    0.2475    1.4684    0.0000 C   0  0  0  0  0  0  0  0  0  0  0  0
    0.6270    2.2027    0.0000 C   0  0  0  0  0  0  0  0  0  0  0  0
    0.6929    0.7754    0.0000 C   0  0  0  0  0  0  0  0  0  0  0  0
    1.5179    0.8166    0.0000 C   0  0  0  0  0  0  0  0  0  0  0  0
    1.8974    1.5508    0.0000 C   0  0  0  0  0  0  0  0  0  0  0  0
    1.4520    2.2438    0.0000 C   0  0  0  0  0  0  0  0  0  0  0  0
    2.7224    1.5508    0.0000 C   0  0  0  0  0  0  0  0  0  0  0  0
    3.1349    0.8332    0.0000 N   0  0  0  0  0  0  0  0  0  0  0  0
    3.9515    0.7506    0.0000 C   0  0  0  0  0  0  0  0  0  0  0  0
    2.7966    0.0825    0.0000 C   0  0  0  0  0  0  0  0  0  0  0  0
    3.4070   -0.4702    0.0000 C   0  0  0  0  0  0  0  0  0  0  0  0
    4.1248   -0.0577    0.0000 C   0  0  0  0  0  0  0  0  0  0  0  0
  1  2  2  0
  1  6  1  0
  2  3  1  0
  2 13  1  0
  3  4  2  0
  4  5  1  0
  5  6  2  0
  5  8  1  0
  6  7  1  0
  7 10  1  0
  7 14  2  0
  8  9  1  0
  8 12  2  0
  9 10  1  0
 10 11  2  0
 14 15  1  0
 15 16  1  0
 16 17  2  0
 16 18  1  0
 17 21  1  0
 18 19  2  0
 19 20  1  0
 20 21  2  0
 20 22  1  0
 22 23  1  0
 23 24  1  0
 23 25  1  0
 24 27  1  0
 25 26  1  0
 26 27  1  0
M  END
>  <DRUGBANK_ID>  (1) 
DB07156

>  <COMMON_NAME>  (1) 
(4Z)-6-bromo-4-({[4-(pyrrolidin-1-ylmethyl)phenyl]amino}methylidene)isoquinoline-1,3(2H,4H)-dione

$$$$
