
     RDKit          2D

  9  9  0  0  0  0  0  0  0  0999 V2000
    1.4290    1.0808    0.0000 I   0  0  0  0  0  0  0  0  0  0  0  0
    1.4290   -0.5692    0.0000 O   0  0  0  0  0  0  0  0  0  0  0  0
   -1.4290   -0.5692    0.0000 O   0  0  0  0  0  0  0  0  0  0  0  0
   -0.7146    0.6682    0.0000 N   0  0  0  0  0  0  0  0  0  0  0  0
    0.0000   -0.5692    0.0000 N   0  0  0  0  0  0  0  0  0  0  0  0
    0.7146    0.6682    0.0000 C   0  0  0  0  0  0  0  0  0  0  0  0
    0.0000    1.0808    0.0000 C   0  0  0  0  0  0  0  0  0  0  0  0
    0.7146   -0.1567    0.0000 C   0  0  0  0  0  0  0  0  0  0  0  0
   -0.7146   -0.1567    0.0000 C   0  0  0  0  0  0  0  0  0  0  0  0
  2  8  2  0
  3  9  2  0
  4  7  1  0
  4  9  1  0
  5  8  1  0
  5  9  1  0
  6  1  1  6
  6  7  1  0
  6  8  1  0
M  END
>  <DRUGBANK_ID>  (1) 
DB02303

>  <SECONDARY_ACCESSION_NUMBERS>  (1) 
EXPT01839

>  <COMMON_NAME>  (1) 
(5S)-5-Iododihydro-2,4(1H,3H)-pyrimidinedione

$$$$
