
     RDKit          2D

 15 16  0  0  0  0  0  0  0  0999 V2000
    0.6529   -0.4068    0.0000 C   0  0  0  0  0  0  0  0  0  0  0  0
   -0.0469   -0.8308    0.0000 O   0  0  0  0  0  0  0  0  0  0  0  0
    1.3956   -0.8223    0.0000 C   0  0  0  0  0  0  0  0  0  0  0  0
    0.6529    0.4182    0.0000 C   0  0  0  0  0  0  0  0  0  0  0  0
   -0.7782   -0.4097    0.0000 C   0  0  0  0  0  0  0  0  0  0  0  0
    2.0871   -0.3955    0.0000 C   0  0  0  0  0  0  0  0  0  0  0  0
    1.3671    0.8308    0.0000 C   0  0  0  0  0  0  0  0  0  0  0  0
   -1.4781   -0.8308    0.0000 C   0  0  0  0  0  0  0  0  0  0  0  0
   -0.7782    0.4153    0.0000 C   0  0  0  0  0  0  0  0  0  0  0  0
    2.0871    0.4182    0.0000 C   0  0  0  0  0  0  0  0  0  0  0  0
    2.8296   -0.8194    0.0000 C   0  0  0  0  0  0  0  0  0  0  0  0
   -2.1952   -0.4296    0.0000 N   0  0  0  0  0  0  0  0  0  0  0  0
   -1.5038    0.8023    0.0000 N   0  0  0  0  0  0  0  0  0  0  0  0
   -2.2036    0.3556    0.0000 C   0  0  0  0  0  0  0  0  0  0  0  0
   -2.8296    0.7596    0.0000 O   0  0  0  0  0  0  0  0  0  0  0  0
  1  2  1  0
  1  3  2  0
  1  4  1  0
  2  5  1  0
  3  6  1  0
  4  7  2  0
  5  8  1  0
  5  9  2  0
  6 10  2  0
  6 11  1  0
  7 10  1  0
  8 12  2  0
  9 13  1  0
 12 14  1  0
 13 14  1  0
 14 15  2  0
M  END
>  <DRUGBANK_ID>  (1) 
DB16841

>  <COMMON_NAME>  (1) 
Tolimidone

>  <CAS_NUMBER>  (1) 
41964-07-2

>  <UNII>  (1) 
MU3JD8E9IS

>  <SYNONYMS>  (1) 
Tolimidone

$$$$
