
     RDKit          2D

 14 13  0  0  1  0  0  0  0  0999 V2000
    9.6691   -8.1682    0.0000 N   0  0  0  0  0  0  0  0  0  0  0  0
    7.5010   -8.5711    0.0000 N   0  0  0  0  0  0  0  0  0  0  0  0
   11.1080   -9.8373    0.0000 O   0  0  0  0  0  0  0  0  0  0  0  0
    7.5010   -6.9211    0.0000 O   0  0  0  0  0  0  0  0  0  0  0  0
    6.8103   -8.1682    0.0000 C   0  0  0  0  0  0  0  0  0  0  0  0
   10.3789   -8.5902    0.0000 C   0  0  0  0  0  0  0  0  0  0  0  0
    8.2493   -8.1682    0.0000 C   0  0  0  0  0  0  0  0  0  0  0  0
    8.9400   -8.5902    0.0000 C   0  0  0  0  0  0  0  0  0  0  0  0
    6.8103   -7.3432    0.0000 C   0  0  0  0  0  0  0  0  0  0  0  0
   10.3789   -9.4152    0.0000 C   0  0  0  0  0  0  0  0  0  0  0  0
    6.0621   -8.5711    0.0000 C   0  0  0  0  0  0  0  0  0  0  0  0
   11.1080   -8.1682    0.0000 C   0  0  0  0  0  0  0  0  0  0  0  0
    5.3522   -8.1682    0.0000 C   0  0  0  0  0  0  0  0  0  0  0  0
   11.8227   -8.5802    0.0000 C   0  0  0  0  0  0  0  0  0  0  0  0
  5  2  1  0
  5  9  1  1
  6  1  1  0
  6 10  1  1
  7  2  1  0
  8  1  1  0
  8  7  1  0
  9  4  1  0
 10  3  1  0
 11  5  1  0
 12  6  1  0
 12 14  1  0
 13 11  1  0
M  END
>  <DRUGBANK_ID>  (1) 
DB00330

>  <SECONDARY_ACCESSION_NUMBERS>  (1) 
APRD00957

>  <COMMON_NAME>  (1) 
Ethambutol

>  <CAS_NUMBER>  (1) 
74-55-5

>  <UNII>  (1) 
8G167061QZ

>  <SYNONYMS>  (1) 
(+)-2,2'-(ethylenediimino)di-1-butanol; (+)-ethambutol; (+)-N,N'-bis(1-(hydroxymethyl)propyl)ethylenediamine; (+)-S,S-ethambutol; (2S,7S)-2,7-diethyl-3,6-diazaoctane-1,8-diol; (S,S)-ethambutol; EMB; Etambutol; Etambutolo; Ethambutol; Ethambutolum; S,S-Ethambutol

$$$$
