HXS
     RDKit          2D

 20 21  0  0  0  0  0  0  0  0999 V2000
   -1.0595    2.2472    0.0000 C   0  0  0  0  0  0  0  0  0  0  0  0
   -0.3450    2.6597    0.0000 C   0  0  0  0  0  0  0  0  0  0  0  0
    0.3695    2.2472    0.0000 C   0  0  0  0  0  0  0  0  0  0  0  0
    0.3695    1.4222    0.0000 C   0  0  0  0  0  0  0  0  0  0  0  0
   -0.3450    1.0097    0.0000 C   0  0  0  0  0  0  0  0  0  0  0  0
   -0.3450    3.4847    0.0000 O   0  0  0  0  0  0  0  0  0  0  0  0
   -1.0595    1.4222    0.0000 C   0  0  0  0  0  0  0  0  0  0  0  0
   -0.3450    0.1847    0.0000 C   0  0  0  0  0  0  0  0  0  0  0  0
   -1.0595   -0.2278    0.0000 C   0  0  0  0  0  0  0  0  0  0  0  0
   -1.7739    0.1847    0.0000 C   0  0  0  0  0  0  0  0  0  0  0  0
    0.3695   -0.2278    0.0000 C   0  0  0  0  0  0  0  0  0  0  0  0
    1.0840    0.1847    0.0000 C   0  0  0  0  0  0  0  0  0  0  0  0
    1.7984   -0.2278    0.0000 C   0  0  0  0  0  0  0  0  0  0  0  0
    0.3695   -1.0528    0.0000 C   0  0  0  0  0  0  0  0  0  0  0  0
    1.0840   -1.4653    0.0000 C   0  0  0  0  0  0  0  0  0  0  0  0
    1.0840   -2.2903    0.0000 C   0  0  0  0  0  0  0  0  0  0  0  0
    0.3695   -2.7028    0.0000 C   0  0  0  0  0  0  0  0  0  0  0  0
    0.3695   -3.5278    0.0000 O   0  0  0  0  0  0  0  0  0  0  0  0
   -0.3450   -2.2903    0.0000 C   0  0  0  0  0  0  0  0  0  0  0  0
   -0.3450   -1.4653    0.0000 C   0  0  0  0  0  0  0  0  0  0  0  0
  1  2  2  0
  1  7  1  0
  2  3  1  0
  2  6  1  0
  3  4  2  0
  4  5  1  0
  5  7  2  0
  5  8  1  0
  8  9  1  1
  8 11  1  0
  9 10  1  0
 11 12  1  6
 11 14  1  0
 12 13  1  0
 14 15  2  0
 14 20  1  0
 15 16  1  0
 16 17  2  0
 17 18  1  0
 17 19  1  0
 19 20  2  0
M  END
>  <DRUGBANK_ID>  (1) 
DB07931

>  <SECONDARY_ACCESSION_NUMBERS>  (1) 
DB08959

>  <COMMON_NAME>  (1) 
Hexestrol

>  <CAS_NUMBER>  (1) 
84-16-2

>  <UNII>  (1) 
10BI795R7D

>  <SYNONYMS>  (1) 
4,4'-(1,2-diethylethylene)diphenol; Erythrohexestrol; Hexanoestrol; Hexestrol; Hexoestrolum; Meso-3,4-di(p-hydroxyphenyl)-n-hexane; Meso-hexestrol; Mesohexestrol; Synoestrolum

$$$$
