OAL
     RDKit          2D

 22 24  0  0  0  0  0  0  0  0999 V2000
    2.6931   -0.8799    0.0000 C   0  0  0  0  0  0  0  0  0  0  0  0
    1.9786   -1.2924    0.0000 C   0  0  0  0  0  0  0  0  0  0  0  0
    1.2641   -0.8799    0.0000 C   0  0  0  0  0  0  0  0  0  0  0  0
    1.2641   -0.0549    0.0000 C   0  0  0  0  0  0  0  0  0  0  0  0
    1.9786    0.3576    0.0000 C   0  0  0  0  0  0  0  0  0  0  0  0
    2.6931   -0.0549    0.0000 C   0  0  0  0  0  0  0  0  0  0  0  0
    0.5496    0.3576    0.0000 C   0  0  0  0  0  0  0  0  0  0  0  0
   -0.1648   -0.0549    0.0000 C   0  0  0  0  0  0  0  0  0  0  0  0
   -0.1648   -0.8799    0.0000 C   0  0  0  0  0  0  0  0  0  0  0  0
    0.5496   -1.2924    0.0000 C   0  0  0  0  0  0  0  0  0  0  0  0
   -0.8793    0.3576    0.0000 C   0  0  0  0  0  0  0  0  0  0  0  0
   -1.5938   -0.0549    0.0000 C   0  0  0  0  0  0  0  0  0  0  0  0
   -1.5938   -0.8799    0.0000 C   0  0  0  0  0  0  0  0  0  0  0  0
   -0.8793   -1.2924    0.0000 C   0  0  0  0  0  0  0  0  0  0  0  0
   -2.3082    0.3576    0.0000 C   0  0  0  0  0  0  0  0  0  0  0  0
   -2.3082    1.1826    0.0000 C   0  0  0  0  0  0  0  0  0  0  0  0
    1.9786    1.1826    0.0000 O   0  0  0  0  0  0  0  0  0  0  0  0
    0.5496    1.1826    0.0000 O   0  0  0  0  0  0  0  0  0  0  0  0
   -0.8793    1.1826    0.0000 O   0  0  0  0  0  0  0  0  0  0  0  0
   -3.0227    1.5951    0.0000 O   0  0  0  0  0  0  0  0  0  0  0  0
   -1.5938    1.5951    0.0000 O   0  0  0  0  0  0  0  0  0  0  0  0
    0.5496   -2.1174    0.0000 O   0  0  0  0  0  0  0  0  0  0  0  0
  1  2  2  0
  1  6  1  0
  2  3  1  0
  3  4  2  0
  3 10  1  0
  4  5  1  0
  4  7  1  0
  5  6  2  0
  5 17  1  0
  7  8  1  0
  7 18  2  0
  8  9  2  0
  8 11  1  0
  9 10  1  0
  9 14  1  0
 10 22  2  0
 11 12  2  0
 11 19  1  0
 12 13  1  0
 12 15  1  0
 13 14  2  0
 15 16  1  0
 16 20  2  0
 16 21  1  0
M  END
>  <DRUGBANK_ID>  (1) 
DB03037

>  <SECONDARY_ACCESSION_NUMBERS>  (1) 
EXPT02410

>  <COMMON_NAME>  (1) 
Oxidized Acetyl Dithranol

$$$$
