
     RDKit          2D

  3  0  0  0  0  0  0  0  0  0999 V2000
    0.4125    0.0000    0.0000 Cl  0  0  0  0  0  0  0  0  0  0  0  0
    2.7696    0.0000    0.0000 Cl  0  0  0  0  0  0  0  0  0  0  0  0
   -0.4125    0.0000    0.0000 Fe  0  0  0  0  0 15  0  0  0  0  0  0
M  CHG  3   1  -1   2  -1   3   2
M  END
>  <DRUGBANK_ID>  (1) 
DB13569

>  <COMMON_NAME>  (1) 
Ferrous chloride

>  <CAS_NUMBER>  (1) 
7758-94-3

>  <UNII>  (1) 
S3Y25PHP1W

$$$$
