MF2
     RDKit          2D

 19 19  0  0  0  0  0  0  0  0999 V2000
   -1.9448   -0.7420    0.0000 C   0  0  0  0  0  0  0  0  0  0  0  0
   -2.6594   -1.1545    0.0000 C   0  0  0  0  0  0  0  0  0  0  0  0
   -3.3739   -0.7420    0.0000 O   0  0  0  0  0  0  0  0  0  0  0  0
   -4.0884    0.4956    0.0000 C   0  0  0  0  0  0  0  0  0  0  0  0
   -2.6594   -1.9795    0.0000 C   0  0  0  0  0  0  0  0  0  0  0  0
   -1.2303    0.4956    0.0000 C   0  0  0  0  0  0  0  0  0  0  0  0
   -0.5158    0.0831    0.0000 C   0  0  0  0  0  0  0  0  0  0  0  0
    0.1987    0.4956    0.0000 C   0  0  0  0  0  0  0  0  0  0  0  0
    0.9133    0.0831    0.0000 C   0  0  0  0  0  0  0  0  0  0  0  0
    1.6278    0.4956    0.0000 C   0  0  0  0  0  0  0  0  0  0  0  0
    2.3423    0.0831    0.0000 C   0  0  0  0  0  0  0  0  0  0  0  0
    3.0568    0.4956    0.0000 C   0  0  0  0  0  0  0  0  0  0  0  0
    3.7714    0.0831    0.0000 C   0  0  0  0  0  0  0  0  0  0  0  0
   -1.9448    0.0831    0.0000 N   0  0  0  0  0  0  0  0  0  0  0  0
   -3.3739    0.0831    0.0000 C   0  0  0  0  0  0  0  0  0  0  0  0
   -2.6594    0.4956    0.0000 C   0  0  0  0  0  0  0  0  0  0  0  0
    4.4858    0.4956    0.0000 N   0  0  0  0  0  0  0  0  0  0  0  0
    5.2004    0.0831    0.0000 C   0  0  0  0  0  0  0  0  0  0  0  0
    5.9149    0.4956    0.0000 O   0  0  0  0  0  0  0  0  0  0  0  0
  1  2  1  0
  1 14  1  0
  2  3  1  0
  2  5  1  6
  3 15  1  0
  6  7  1  0
  6 14  1  0
  7  8  1  0
  8  9  1  0
  9 10  1  0
 10 11  1  0
 11 12  1  0
 12 13  1  0
 13 17  1  0
 14 16  1  0
 15  4  1  6
 15 16  1  0
 17 18  1  0
 18 19  2  0
M  END
>  <DRUGBANK_ID>  (1) 
DB04021

>  <SECONDARY_ACCESSION_NUMBERS>  (1) 
EXPT02157

>  <COMMON_NAME>  (1) 
MF268

$$$$
