SY1
     RDKit          2D

 27 30  0  0  0  0  0  0  0  0999 V2000
   -2.5299    0.3573    0.0000 N   0  0  0  0  0  0  0  0  0  0  0  0
   -1.1010   -1.2927    0.0000 C   0  0  0  0  0  0  0  0  0  0  0  0
   -0.3865   -0.8802    0.0000 C   0  0  0  0  0  0  0  0  0  0  0  0
   -1.1010    0.3573    0.0000 C   0  0  0  0  0  0  0  0  0  0  0  0
    0.3280    0.3573    0.0000 C   0  0  0  0  0  0  0  0  0  0  0  0
    1.7569    0.3573    0.0000 C   0  0  0  0  0  0  0  0  0  0  0  0
    3.1858    1.1823    0.0000 C   0  0  0  0  0  0  0  0  0  0  0  0
    1.7569    1.1823    0.0000 C   0  0  0  0  0  0  0  0  0  0  0  0
   -0.3865    2.4198    0.0000 C   0  0  0  0  0  0  0  0  0  0  0  0
    0.3280    2.8323    0.0000 C   0  0  0  0  0  0  0  0  0  0  0  0
    0.3280    3.6573    0.0000 C   0  0  0  0  0  0  0  0  0  0  0  0
   -1.1010    3.6573    0.0000 C   0  0  0  0  0  0  0  0  0  0  0  0
   -1.8155    2.4198    0.0000 C   0  0  0  0  0  0  0  0  0  0  0  0
   -2.5299    2.0073    0.0000 N   0  0  0  0  0  0  0  0  0  0  0  0
   -1.1010    2.8323    0.0000 C   0  0  0  0  0  0  0  0  0  0  0  0
   -0.3865    4.0698    0.0000 C   0  0  0  0  0  0  0  0  0  0  0  0
   -0.3865    1.5948    0.0000 C   0  0  0  0  0  0  0  0  0  0  0  0
    0.3280    1.1823    0.0000 N   0  0  0  0  0  0  0  0  0  0  0  0
   -0.3865   -0.0552    0.0000 N   0  0  0  0  0  0  0  0  0  0  0  0
   -1.8155   -0.8802    0.0000 C   0  0  0  0  0  0  0  0  0  0  0  0
   -1.8155   -0.0552    0.0000 C   0  0  0  0  0  0  0  0  0  0  0  0
    1.0424    1.5948    0.0000 C   0  0  0  0  0  0  0  0  0  0  0  0
    1.0424    2.4198    0.0000 O   0  0  0  0  0  0  0  0  0  0  0  0
    1.0424   -0.0552    0.0000 N   0  0  0  0  0  0  0  0  0  0  0  0
    2.4714    1.5948    0.0000 C   0  0  0  0  0  0  0  0  0  0  0  0
    3.1858    0.3573    0.0000 C   0  0  0  0  0  0  0  0  0  0  0  0
    2.4714   -0.0552    0.0000 C   0  0  0  0  0  0  0  0  0  0  0  0
  2  3  1  0
  2 20  1  0
  3 19  1  0
  4 19  1  0
  4 21  1  0
  5 18  1  0
  5 24  2  0
  5 19  1  0
  6  8  2  0
  6 27  1  0
  6 24  1  0
  7 25  2  0
  7 26  1  0
  8 25  1  0
  8 22  1  0
  9 10  2  0
  9 17  1  0
  9 15  1  0
 10 11  1  0
 11 16  2  0
 12 16  1  0
 12 15  2  0
 13 15  1  0
 13 14  3  0
 17 18  1  0
 18 22  1  0
 20 21  1  0
 21  1  1  1
 22 23  2  0
 26 27  2  0
M  END
>  <DRUGBANK_ID>  (1) 
DB08588

>  <COMMON_NAME>  (1) 
2-({2-[(3R)-3-AMINOPIPERIDIN-1-YL]-4-OXOQUINAZOLIN-3(4H)-YL}METHYL)BENZONITRILE

$$$$
