
     RDKit          2D

 26 30  0  0  0  0  0  0  0  0999 V2000
    2.2823   -1.0309    0.0000 C   0  0  0  0  0  0  0  0  0  0  0  0
    1.1406   -1.4085    0.0000 C   0  0  0  0  0  0  0  0  0  0  0  0
    0.5886   -0.7954    0.0000 C   0  0  0  0  0  0  0  0  0  0  0  0
   -1.8322   -1.3100    0.0000 C   0  0  0  0  0  0  0  0  0  0  0  0
   -1.2802   -1.9231    0.0000 C   0  0  0  0  0  0  0  0  0  0  0  0
    0.3391    1.9522    0.0000 C   0  0  0  0  0  0  0  0  0  0  0  0
   -0.3753    2.3647    0.0000 C   0  0  0  0  0  0  0  0  0  0  0  0
    0.8857   -2.1931    0.0000 C   0  0  0  0  0  0  0  0  0  0  0  0
   -0.7703   -0.3539    0.0000 C   0  0  0  0  0  0  0  0  0  0  0  0
    1.8072    1.0502    0.0000 C   0  0  0  0  0  0  0  0  0  0  0  0
    1.1398   -0.1057    0.0000 C   0  0  0  0  0  0  0  0  0  0  0  0
   -0.2183   -0.9670    0.0000 C   0  0  0  0  0  0  0  0  0  0  0  0
    1.0536    0.7147    0.0000 C   0  0  0  0  0  0  0  0  0  0  0  0
   -1.5773   -0.5254    0.0000 C   0  0  0  0  0  0  0  0  0  0  0  0
   -0.4732   -1.7516    0.0000 C   0  0  0  0  0  0  0  0  0  0  0  0
    0.3391    1.1272    0.0000 C   0  0  0  0  0  0  0  0  0  0  0  0
   -1.0897    1.9522    0.0000 C   0  0  0  0  0  0  0  0  0  0  0  0
   -1.8744    0.8722    0.0000 C   0  0  0  0  0  0  0  0  0  0  0  0
    0.0787   -2.3647    0.0000 N   0  0  0  0  0  0  0  0  0  0  0  0
    2.3593    0.4371    0.0000 N   0  0  0  0  0  0  0  0  0  0  0  0
   -1.8744    2.2071    0.0000 N   0  0  0  0  0  0  0  0  0  0  0  0
   -2.3593    1.5397    0.0000 N   0  0  0  0  0  0  0  0  0  0  0  0
   -0.3753    0.7147    0.0000 N   0  0  0  0  0  0  0  0  0  0  0  0
    1.9468   -0.2772    0.0000 N   0  0  0  0  0  0  0  0  0  0  0  0
   -1.0897    1.1272    0.0000 N   0  0  0  0  0  0  0  0  0  0  0  0
   -2.1293    0.0876    0.0000 S   0  0  0  0  0  0  0  0  0  0  0  0
  3  2  2  0
  5  4  1  0
  7  6  2  0
  8  2  1  0
 12  3  1  0
 12  9  2  0
 13 10  1  0
 13 11  2  0
 14  4  2  0
 14  9  1  0
 15  5  2  0
 15 12  1  0
 16  6  1  0
 16 13  1  0
 17  7  1  0
 19  8  2  0
 19 15  1  0
 20 10  2  0
 21 17  2  0
 22 18  2  0
 22 21  1  0
 23 16  2  0
 24  1  1  0
 24 11  1  0
 24 20  1  0
 25 17  1  0
 25 18  1  0
 25 23  1  0
 26 14  1  0
 26 18  1  0
M  END
>  <DRUGBANK_ID>  (1) 
DB06314

>  <SECONDARY_ACCESSION_NUMBERS>  (1) 
DB08584

>  <COMMON_NAME>  (1) 
SGX-523

>  <CAS_NUMBER>  (1) 
1022150-57-7

>  <UNII>  (1) 
WH8SQN09KJ

>  <SYNONYMS>  (1) 
6-{[6-(1-methyl-1H-pyrazol-4-yl)[1,2,4]triazolo[4,3-b]pyridazin-3-yl]sulfanyl}quinoline

$$$$
