488
     RDKit          2D

 15 15  0  0  0  0  0  0  0  0999 V2000
    3.7934    1.4437    0.0000 N   0  0  0  0  0  0  0  0  0  0  0  0
    5.2223   -1.0312    0.0000 N   0  0  0  0  0  0  0  0  0  0  0  0
    2.3644   -1.0312    0.0000 N   0  0  0  0  0  0  0  0  0  0  0  0
    4.5079    0.2063    0.0000 N   0  0  0  0  0  0  0  0  0  0  0  0
    3.0790    0.2063    0.0000 N   0  0  0  0  0  0  0  0  0  0  0  0
    3.7934   -1.0312    0.0000 N   0  0  0  0  0  0  0  0  0  0  0  0
    3.7934    0.6188    0.0000 C   0  0  0  0  0  0  0  0  0  0  0  0
    4.5079   -0.6188    0.0000 C   0  0  0  0  0  0  0  0  0  0  0  0
    3.0790   -0.6188    0.0000 C   0  0  0  0  0  0  0  0  0  0  0  0
    3.0790    1.8563    0.0000 C   0  0  0  0  0  0  0  0  0  0  0  0
    4.5079    1.8563    0.0000 C   0  0  0  0  0  0  0  0  0  0  0  0
    5.2223   -1.8563    0.0000 C   0  0  0  0  0  0  0  0  0  0  0  0
    5.9368   -0.6188    0.0000 C   0  0  0  0  0  0  0  0  0  0  0  0
    2.3644   -1.8563    0.0000 C   0  0  0  0  0  0  0  0  0  0  0  0
    1.6500   -0.6188    0.0000 C   0  0  0  0  0  0  0  0  0  0  0  0
  1  7  1  0
  1 10  1  0
  1 11  1  0
  2  8  1  0
  2 12  1  0
  2 13  1  0
  3  9  1  0
  3 14  1  0
  3 15  1  0
  4  7  2  0
  4  8  1  0
  5  7  1  0
  5  9  2  0
  6  8  2  0
  6  9  1  0
M  END
>  <DRUGBANK_ID>  (1) 
DB00488

>  <SECONDARY_ACCESSION_NUMBERS>  (1) 
APRD00652

>  <COMMON_NAME>  (1) 
Altretamine

>  <CAS_NUMBER>  (1) 
645-05-6

>  <UNII>  (1) 
Q8BIH59O7H

>  <SYNONYMS>  (1) 
2,4,6-tris(dimethylamino)-1,3,5-triazine; 2,4,6-tris(dimethylamino)-s-triazine; Altretamin; Altretamina; Altretamine; Altr√©tamine; Altretaminum; Hexamethylmelamine; HMM

$$$$
