
     RDKit          2D

 15 14  0  0  1  0  0  0  0  0999 V2000
    1.9520   -1.7309    0.0000 C   0  0  0  0  0  0  0  0  0  0  0  0
   -0.6039    0.0000    0.0000 C   0  0  0  0  0  0  0  0  0  0  0  0
    1.5395   -1.0164    0.0000 C   0  0  0  0  0  0  0  0  0  0  0  0
    0.1105    0.4125    0.0000 C   0  0  0  0  0  0  0  0  0  0  0  0
    1.5395    1.8414    0.0000 C   0  0  0  0  0  0  0  0  0  0  0  0
    1.1270    2.5559    0.0000 C   0  0  0  0  0  0  0  0  0  0  0  0
    1.5395    3.2704    0.0000 C   0  0  0  0  0  0  0  0  0  0  0  0
    0.3020    2.5559    0.0000 N   0  0  0  0  0  0  0  0  0  0  0  0
    1.1270    3.9849    0.0000 O   0  0  0  0  0  0  0  0  0  0  0  0
    2.3645    3.2704    0.0000 O   0  0  0  0  0  0  0  0  0  0  0  0
    2.2539    0.8250    0.0000 O   0  0  0  0  0  0  0  0  0  0  0  0
    1.9520   -0.3020    0.0000 O   0  0  0  0  0  0  0  0  0  0  0  0
    0.8250    0.0000    0.0000 O   0  0  0  0  0  0  0  0  0  0  0  0
    1.1270    1.1270    0.0000 O   0  0  0  0  0  0  0  0  0  0  0  0
    1.5395    0.4125    0.0000 P   0  0  0  0  0  0  0  0  0  0  0  0
  3  1  1  0
  4  2  1  0
  6  5  1  0
  6  8  1  6
  7  6  1  0
  9  7  2  0
 10  7  1  0
 12  3  1  0
 13  4  1  0
 14  5  1  0
 15 11  2  0
 15 12  1  0
 15 13  1  0
 15 14  1  0
M  END
>  <DRUGBANK_ID>  (1) 
DB02364

>  <SECONDARY_ACCESSION_NUMBERS>  (1) 
EXPT02876

>  <COMMON_NAME>  (1) 
2-Amino-3-(Diethoxy-Phosphoryloxy)-Propionic Acid

$$$$
