
     RDKit          2D

  8  8  0  0  1  0  0  0  0  0999 V2000
    1.4289    0.8250    0.0000 C   0  0  0  0  0  0  0  0  0  0  0  0
    0.0000    0.0000    0.0000 C   0  0  0  0  0  0  0  0  0  0  0  0
    0.7145    1.2375    0.0000 C   0  0  0  0  0  0  0  0  0  0  0  0
    0.0000    0.8250    0.0000 C   0  0  0  0  0  0  0  0  0  0  0  0
    0.7145    2.0625    0.0000 O   0  0  0  0  0  0  0  0  0  0  0  0
   -0.7145    1.2375    0.0000 O   0  0  0  0  0  0  0  0  0  0  0  0
    1.4289   -0.0000    0.0000 S   0  0  0  0  0  0  0  0  0  0  0  0
    0.7145   -0.4125    0.0000 S   0  0  0  0  0  0  0  0  0  0  0  0
  3  1  1  0
  3  5  1  6
  4  2  1  0
  4  3  1  0
  4  6  1  1
  7  1  1  0
  8  2  1  0
  8  7  1  0
M  END
>  <DRUGBANK_ID>  (1) 
DB02693

>  <SECONDARY_ACCESSION_NUMBERS>  (1) 
EXPT01093

>  <COMMON_NAME>  (1) 
(4S,5S)-1,2-dithiane-4,5-diol

>  <UNII>  (1) 
8T052MD8AP

>  <SYNONYMS>  (1) 
oxidized dithiothreitol

$$$$
