
     RDKit          2D

 26 29  0  0  0  0  0  0  0  0999 V2000
    0.3221   -1.5712    0.0000 C   0  0  0  0  0  0  0  0  0  0  0  0
   -0.3924   -1.9836    0.0000 C   0  0  0  0  0  0  0  0  0  0  0  0
   -1.1068   -1.5712    0.0000 C   0  0  0  0  0  0  0  0  0  0  0  0
   -1.8213   -1.9836    0.0000 C   0  0  0  0  0  0  0  0  0  0  0  0
   -2.5358   -0.7462    0.0000 C   0  0  0  0  0  0  0  0  0  0  0  0
   -1.8213   -0.3337    0.0000 C   0  0  0  0  0  0  0  0  0  0  0  0
   -1.1068   -0.7462    0.0000 C   0  0  0  0  0  0  0  0  0  0  0  0
    0.3221    0.9037    0.0000 C   0  0  0  0  0  0  0  0  0  0  0  0
    2.3062    0.0787    0.0000 C   0  0  0  0  0  0  0  0  0  0  0  0
    1.8212   -0.5886    0.0000 C   0  0  0  0  0  0  0  0  0  0  0  0
   -0.3924   -0.3337    0.0000 C   0  0  0  0  0  0  0  0  0  0  0  0
    1.0366   -0.3337    0.0000 C   0  0  0  0  0  0  0  0  0  0  0  0
    0.3221   -0.7462    0.0000 C   0  0  0  0  0  0  0  0  0  0  0  0
    1.0366    0.4912    0.0000 C   0  0  0  0  0  0  0  0  0  0  0  0
    1.8212    0.7462    0.0000 C   0  0  0  0  0  0  0  0  0  0  0  0
   -2.5358   -1.5712    0.0000 C   0  0  0  0  0  0  0  0  0  0  0  0
   -3.2502   -1.9837    0.0000 O   0  0  0  0  0  0  0  0  0  0  0  0
   -0.3924    0.4912    0.0000 C   0  0  0  0  0  0  0  0  0  0  0  0
   -1.1069    0.9037    0.0000 O   0  0  0  0  0  0  0  0  0  0  0  0
    1.8212    1.5712    0.0000 C   0  0  0  0  0  0  0  0  0  0  0  0
    1.1068    1.9837    0.0000 O   0  0  0  0  0  0  0  0  0  0  0  0
    2.5358    1.9837    0.0000 C   0  0  0  0  0  0  0  0  0  0  0  0
    3.2503    1.5712    0.0000 O   0  0  0  0  0  0  0  0  0  0  0  0
    1.0366    1.3162    0.0000 C   0  0  0  0  0  0  0  0  0  0  0  0
    0.3220    1.7287    0.0000 O   0  0  0  0  0  0  0  0  0  0  0  0
   -1.1068    0.0787    0.0000 C   0  0  0  0  0  0  0  0  0  0  0  0
  1  2  1  0
  2  3  1  0
  3  4  2  0
  3  7  1  0
  4 16  1  0
  5  6  1  0
  6  7  1  0
  7 11  1  0
  7 26  1  1
  8 14  1  0
  9 10  1  0
 12 10  1  1
 11 18  1  1
 13  1  1  6
 13 11  1  0
 13 12  1  0
 14 15  1  0
 14 12  1  0
 14 24  1  1
 15  9  1  0
 15 20  1  1
 16  5  1  0
 16 17  2  0
 18  8  1  0
 18 19  1  1
 20 22  1  0
 20 21  2  0
 22 23  1  0
 24 25  2  0
M  END
>  <DRUGBANK_ID>  (1) 
DB04630

>  <COMMON_NAME>  (1) 
Aldosterone

>  <CAS_NUMBER>  (1) 
52-39-1

>  <UNII>  (1) 
4964P6T9RB

>  <SYNONYMS>  (1) 
(+)-aldosterone; (11Î²)-11,21-dihydroxy-3,20-dioxopregn-4-en-18-al; 11beta,21-Dihydroxy-3,20-dioxo-4-pregnen-18-al; 11beta,21-dihydroxy-3,20-dioxopregn-4-en-18-al; Aldosterona; Aldosterone; Aldosteronum

$$$$
