
     RDKit          2D

 37 41  0  0  0  0  0  0  0  0999 V2000
   -1.3320    1.2853    0.0000 C   0  0  0  0  0  0  0  0  0  0  0  0
   -2.0585    0.8867    0.0000 C   0  0  0  0  0  0  0  0  0  0  0  0
   -2.0757    0.0602    0.0000 C   0  0  0  0  0  0  0  0  0  0  0  0
   -1.3670   -0.3687    0.0000 C   0  0  0  0  0  0  0  0  0  0  0  0
   -0.6261    0.8599    0.0000 C   0  0  0  0  0  0  0  0  0  0  0  0
   -0.6359    0.0350    0.0000 C   0  0  0  0  0  0  0  0  0  0  0  0
    0.1456   -0.2294    0.0000 O   0  0  0  0  0  0  0  0  0  0  0  0
    0.1616    1.1055    0.0000 C   0  0  0  0  0  0  0  0  0  0  0  0
    0.6396    0.4352    0.0000 C   0  0  0  0  0  0  0  0  0  0  0  0
    1.4249    0.6828    0.0000 C   0  0  0  0  0  0  0  0  0  0  0  0
    1.4321    1.5060    0.0000 C   0  0  0  0  0  0  0  0  0  0  0  0
    0.6514    1.7673    0.0000 C   0  0  0  0  0  0  0  0  0  0  0  0
    0.4029    2.5552    0.0000 O   0  0  0  0  0  0  0  0  0  0  0  0
    2.1048    1.9859    0.0000 C   0  0  0  0  0  0  0  0  0  0  0  0
    2.8567    1.6433    0.0000 O   0  0  0  0  0  0  0  0  0  0  0  0
    2.0255    2.8083    0.0000 N   0  0  0  0  0  0  0  0  0  0  0  0
    2.6984    3.2882    0.0000 C   0  0  0  0  0  0  0  0  0  0  0  0
    1.2737    3.1510    0.0000 C   0  0  0  0  0  0  0  0  0  0  0  0
    2.0890    0.1912    0.0000 C   0  0  0  0  0  0  0  0  0  0  0  0
    0.9079   -0.3378    0.0000 C   0  0  0  0  0  0  0  0  0  0  0  0
   -0.2559    1.8242    0.0000 O   0  0  0  0  0  0  0  0  0  0  0  0
   -1.3152    2.1113    0.0000 O   0  0  0  0  0  0  0  0  0  0  0  0
   -2.7996   -0.3379    0.0000 O   0  0  0  0  0  0  0  0  0  0  0  0
   -3.5065    0.0899    0.0000 C   0  0  0  0  0  0  0  0  0  0  0  0
    1.9930   -0.6292    0.0000 C   0  0  0  0  0  0  0  0  0  0  0  0
    2.6562   -1.1204    0.0000 C   0  0  0  0  0  0  0  0  0  0  0  0
    3.4150   -0.7911    0.0000 C   0  0  0  0  0  0  0  0  0  0  0  0
    3.5065    0.0344    0.0000 C   0  0  0  0  0  0  0  0  0  0  0  0
    2.8421    0.5220    0.0000 C   0  0  0  0  0  0  0  0  0  0  0  0
    0.3704   -0.9560    0.0000 C   0  0  0  0  0  0  0  0  0  0  0  0
    0.6388   -1.7281    0.0000 C   0  0  0  0  0  0  0  0  0  0  0  0
    1.4432   -1.8821    0.0000 C   0  0  0  0  0  0  0  0  0  0  0  0
    1.9787   -1.2579    0.0000 C   0  0  0  0  0  0  0  0  0  0  0  0
    1.7075   -0.4883    0.0000 C   0  0  0  0  0  0  0  0  0  0  0  0
    1.7159   -2.6622    0.0000 O   0  0  0  0  0  0  0  0  0  0  0  0
    1.1768   -3.2882    0.0000 C   0  0  0  0  0  0  0  0  0  0  0  0
   -2.0222    2.5389    0.0000 C   0  0  0  0  0  0  0  0  0  0  0  0
  1  2  2  0
  1 22  1  0
  2  3  1  0
  3  4  2  0
  3 23  1  0
  4  6  1  0
  5  1  1  0
  5  6  2  0
  6  7  1  0
  7  9  1  0
  8  5  1  0
  8  9  1  0
  8 21  1  1
  9 10  1  0
  9 20  1  1
 10 11  1  0
 10 19  1  1
 11 12  1  0
 11 14  1  6
 12  8  1  0
 12 13  1  6
 14 15  2  0
 14 16  1  0
 16 17  1  0
 16 18  1  0
 19 25  2  0
 20 30  2  0
 22 37  1  0
 23 24  1  0
 25 26  1  0
 26 27  2  0
 27 28  1  0
 28 29  2  0
 29 19  1  0
 30 31  1  0
 31 32  2  0
 32 33  1  0
 32 35  1  0
 33 34  2  0
 34 20  1  0
 35 36  1  0
M  END
>  <DRUGBANK_ID>  (1) 
DB15495

>  <COMMON_NAME>  (1) 
Rocaglamide

>  <CAS_NUMBER>  (1) 
84573-16-0

>  <UNII>  (1) 
FRG4N852F7

$$$$
