
     RDKit          2D

 32 36  0  0  1  0  0  0  0  0999 V2000
    6.7764    8.3237    0.0000 O   0  0  0  0  0  0  0  0  0  0  0  0
    6.3639    7.6092    0.0000 C   0  0  0  0  0  0  0  0  0  0  0  0
    5.5389    7.6092    0.0000 C   0  0  0  0  0  0  0  0  0  0  0  0
    5.1264    6.8947    0.0000 O   0  0  0  0  0  0  0  0  0  0  0  0
    4.3014    6.8947    0.0000 C   0  0  0  0  0  0  0  0  0  0  0  0
    3.8889    7.6092    0.0000 C   0  0  0  0  0  0  0  0  0  0  0  0
    3.0639    7.6092    0.0000 O   0  0  0  0  0  0  0  0  0  0  0  0
    4.3014    8.3237    0.0000 C   0  0  0  0  0  0  0  0  0  0  0  0
    3.8889    9.0382    0.0000 O   0  0  0  0  0  0  0  0  0  0  0  0
    5.1264    8.3237    0.0000 C   0  0  0  0  0  0  0  0  0  0  0  0
    5.5389    9.0382    0.0000 O   0  0  0  0  0  0  0  0  0  0  0  0
    3.8889    6.1803    0.0000 C   0  0  0  0  0  0  0  0  0  0  0  0
    4.3014    5.4658    0.0000 C   0  0  0  0  0  0  0  0  0  0  0  0
    3.8889    4.7513    0.0000 C   0  0  0  0  0  0  0  0  0  0  0  0
    4.3014    4.0369    0.0000 C   0  0  0  0  0  0  0  0  0  0  0  0
    3.8889    3.3224    0.0000 C   0  0  0  0  0  0  0  0  0  0  0  0
    4.3014    2.6079    0.0000 C   0  0  0  0  0  0  0  0  0  0  0  0
    3.8889    1.8934    0.0000 C   0  0  0  0  0  0  0  0  0  0  0  0
    3.0639    1.8934    0.0000 C   0  0  0  0  0  0  0  0  0  0  0  0
    2.6514    1.1790    0.0000 O   0  0  0  0  0  0  0  0  0  0  0  0
    1.8264    1.1790    0.0000 C   0  0  0  0  0  0  0  0  0  0  0  0
    1.3415    0.5115    0.0000 C   0  0  0  0  0  0  0  0  0  0  0  0
    0.5569    0.7665    0.0000 C   0  0  0  0  0  0  0  0  0  0  0  0
   -0.1576    1.1790    0.0000 C   0  0  0  0  0  0  0  0  0  0  0  0
    0.5569    1.5915    0.0000 C   0  0  0  0  0  0  0  0  0  0  0  0
    1.3415    1.8464    0.0000 C   0  0  0  0  0  0  0  0  0  0  0  0
    2.6514    2.6079    0.0000 C   0  0  0  0  0  0  0  0  0  0  0  0
    3.0639    3.3224    0.0000 C   0  0  0  0  0  0  0  0  0  0  0  0
    3.0639    4.7513    0.0000 C   0  0  0  0  0  0  0  0  0  0  0  0
    2.6514    4.0369    0.0000 Cl  0  0  0  0  0  0  0  0  0  0  0  0
    2.6514    5.4658    0.0000 C   0  0  0  0  0  0  0  0  0  0  0  0
    3.0639    6.1803    0.0000 C   0  0  0  0  0  0  0  0  0  0  0  0
  1  2  1  0
  3  2  1  1
  3  4  1  0
  5  4  1  0
  5 12  1  1
  6  5  1  0
  6  7  1  6
  6  8  1  0
  8  9  1  1
  8 10  1  0
 10  3  1  0
 10 11  1  6
 12 13  2  0
 12 32  1  0
 13 14  1  0
 14 15  1  0
 14 29  2  0
 15 16  1  0
 16 17  2  0
 16 28  1  0
 17 18  1  0
 18 19  2  0
 19 20  1  0
 19 27  1  0
 21 20  1  1
 21 22  1  0
 21 26  1  0
 23 22  1  6
 23 24  1  0
 23 25  1  0
 25 24  1  6
 25 26  1  0
 27 28  2  0
 29 30  1  0
 29 31  1  0
 31 32  2  0
M  END
>  <DRUGBANK_ID>  (1) 
DB16209

>  <COMMON_NAME>  (1) 
Janagliflozin

>  <CAS_NUMBER>  (1) 
1800115-22-3

>  <UNII>  (1) 
WK4RT85HCA

$$$$
