
     RDKit          2D

 30 31  0  0  0  0  0  0  0  0999 V2000
    4.4641    0.6466    0.0000 P   0  0  0  0  0  0  0  0  0  0  0  0
    1.6143    0.1195    0.0000 O   0  0  0  0  0  0  0  0  0  0  0  0
    0.7169    2.0565    0.0000 O   0  0  0  0  0  0  0  0  0  0  0  0
    2.5118    2.0565    0.0000 O   0  0  0  0  0  0  0  0  0  0  0  0
    3.6795    0.9016    0.0000 O   0  0  0  0  0  0  0  0  0  0  0  0
    1.1769   -0.8475    0.0000 O   0  0  0  0  0  0  0  0  0  0  0  0
   -1.1725    0.8594    0.0000 O   0  0  0  0  0  0  0  0  0  0  0  0
    5.2488    0.3917    0.0000 O   0  0  0  0  0  0  0  0  0  0  0  0
    4.7191    1.4312    0.0000 O   0  0  0  0  0  0  0  0  0  0  0  0
    4.2092   -0.1379    0.0000 O   0  0  0  0  0  0  0  0  0  0  0  0
   -2.8931   -2.7636    0.0000 O   0  0  0  0  0  0  0  0  0  0  0  0
   -3.8998   -0.5026    0.0000 O   0  0  0  0  0  0  0  0  0  0  0  0
   -2.5944    0.0785    0.0000 O   0  0  0  0  0  0  0  0  0  0  0  0
   -4.5341   -2.5911    0.0000 O   0  0  0  0  0  0  0  0  0  0  0  0
    0.2795    1.0894    0.0000 N   0  0  0  0  0  0  0  0  0  0  0  0
   -0.1330   -0.1801    0.0000 N   0  0  0  0  0  0  0  0  0  0  0  0
   -3.2287   -2.0100    0.0000 N   0  0  0  0  0  0  0  0  0  0  0  0
    0.9469    0.6044    0.0000 C   0  0  0  0  0  0  0  0  0  0  0  0
    1.2018    1.3890    0.0000 C   0  0  0  0  0  0  0  0  0  0  0  0
    2.0268    1.3891    0.0000 C   0  0  0  0  0  0  0  0  0  0  0  0
    2.2818    0.6044    0.0000 C   0  0  0  0  0  0  0  0  0  0  0  0
    0.6920   -0.1801    0.0000 C   0  0  0  0  0  0  0  0  0  0  0  0
    3.0664    0.3495    0.0000 C   0  0  0  0  0  0  0  0  0  0  0  0
   -0.3879    0.6044    0.0000 C   0  0  0  0  0  0  0  0  0  0  0  0
   -0.6179   -0.8475    0.0000 C   0  0  0  0  0  0  0  0  0  0  0  0
   -1.4384   -0.7613    0.0000 C   0  0  0  0  0  0  0  0  0  0  0  0
   -1.9233   -1.4287    0.0000 C   0  0  0  0  0  0  0  0  0  0  0  0
   -2.7438   -1.3425    0.0000 C   0  0  0  0  0  0  0  0  0  0  0  0
   -3.0793   -0.5888    0.0000 C   0  0  0  0  0  0  0  0  0  0  0  0
   -4.0492   -1.9237    0.0000 C   0  0  0  0  0  0  0  0  0  0  0  0
  1  5  1  0
  1  8  1  0
  1  9  1  0
  1 10  2  0
  2 21  1  0
  5 23  1  0
  6 22  2  0
  7 24  2  0
 11 17  1  0
 12 29  1  0
 13 29  2  0
 14 30  1  0
 15 24  1  0
 16 22  1  0
 16 24  1  0
 16 25  1  0
 17 30  1  0
 18  2  1  0
 18 15  1  1
 18 19  1  0
 18 22  1  0
 19  3  1  6
 19 20  1  0
 20  4  1  6
 20 21  1  0
 21 23  1  1
 25 26  1  0
 26 27  1  0
 28 27  1  6
 28 17  1  0
 28 29  1  0
M  END
>  <DRUGBANK_ID>  (1) 
DB04460

>  <SECONDARY_ACCESSION_NUMBERS>  (1) 
EXPT02811

>  <COMMON_NAME>  (1) 
(C8-S)-Hydantocidin 5'-phosphate

$$$$
