
     RDKit          2D

 23 24  0  0  0  0  0  0  0  0999 V2000
   -3.3819    4.0565    0.0000 C   0  0  0  0  0  0  0  0  0  0  0  0
   -1.2159    3.1003    0.0000 C   0  0  0  0  0  0  0  0  0  0  0  0
   -2.4174    2.1738    0.0000 C   0  0  0  0  0  0  0  0  0  0  0  0
    0.4402    4.9396    0.0000 C   0  0  0  0  0  0  0  0  0  0  0  0
    0.9922    5.5527    0.0000 C   0  0  0  0  0  0  0  0  0  0  0  0
   -2.1624    2.9585    0.0000 C   0  0  0  0  0  0  0  0  0  0  0  0
   -3.2424    2.1738    0.0000 C   0  0  0  0  0  0  0  0  0  0  0  0
   -0.6217    5.8958    0.0000 C   0  0  0  0  0  0  0  0  0  0  0  0
   -2.2778    4.0565    0.0000 C   0  0  0  0  0  0  0  0  0  0  0  0
   -0.3668    5.1111    0.0000 C   0  0  0  0  0  0  0  0  0  0  0  0
    0.7373    6.3373    0.0000 C   0  0  0  0  0  0  0  0  0  0  0  0
   -0.0697    6.5088    0.0000 C   0  0  0  0  0  0  0  0  0  0  0  0
   -2.8299    3.4434    0.0000 C   0  0  0  0  0  0  0  0  0  0  0  0
    1.2893    6.9504    0.0000 Cl  0  0  0  0  0  0  0  0  0  0  0  0
   -0.5796    8.0781    0.0000 N   0  0  0  0  0  0  0  0  0  0  0  0
   -1.4709    3.8849    0.0000 N   0  0  0  0  0  0  0  0  0  0  0  0
    0.4600    7.5484    0.0000 O   0  0  0  0  0  0  0  0  0  0  0  0
   -1.1093    7.0385    0.0000 O   0  0  0  0  0  0  0  0  0  0  0  0
   -0.3057    3.9460    0.0000 O   0  0  0  0  0  0  0  0  0  0  0  0
   -1.5319    5.0501    0.0000 O   0  0  0  0  0  0  0  0  0  0  0  0
   -3.4973    2.9585    0.0000 O   0  0  0  0  0  0  0  0  0  0  0  0
   -0.3246    7.2935    0.0000 S   0  0  0  0  0  0  0  0  0  0  0  0
   -0.9188    4.4980    0.0000 S   0  0  0  0  0  0  0  0  0  0  0  0
  5  4  2  0
  6  3  1  0
  7  3  1  0
 10  4  1  0
 10  8  2  0
 11  5  1  0
 12  8  1  0
 12 11  2  0
 13  1  1  0
 13  6  1  0
 13  9  1  0
 14 11  1  0
 16  2  1  0
 16  9  1  0
 21  7  1  0
 21 13  1  0
 22 12  1  0
 22 15  1  0
 22 17  2  0
 22 18  2  0
 23 10  1  0
 23 16  1  0
 23 19  2  0
 23 20  2  0
M  END
>  <DRUGBANK_ID>  (1) 
DB13405

>  <COMMON_NAME>  (1) 
Mefruside

>  <CAS_NUMBER>  (1) 
7195-27-9

>  <UNII>  (1) 
X1NS9SNS92

>  <SYNONYMS>  (1) 
Mefruside

$$$$
