
     RDKit          2D

 27 31  0  0  0  0  0  0  0  0999 V2000
    0.0852   -0.4124    0.0000 C   0  0  0  0  0  0  0  0  0  0  0  0
    0.0852    0.4125    0.0000 C   0  0  0  0  0  0  0  0  0  0  0  0
   -0.6453    0.8367    0.0000 C   0  0  0  0  0  0  0  0  0  0  0  0
   -0.5981   -0.8367    0.0000 C   0  0  0  0  0  0  0  0  0  0  0  0
    0.7923   -0.8131    0.0000 C   0  0  0  0  0  0  0  0  0  0  0  0
   -1.1168    0.0354    0.0000 O   0  0  0  0  0  0  0  0  0  0  0  0
    1.5230   -0.4124    0.0000 C   0  0  0  0  0  0  0  0  0  0  0  0
    0.7923    0.8367    0.0000 C   0  0  0  0  0  0  0  0  0  0  0  0
    0.7923   -1.6381    0.0000 C   0  0  0  0  0  0  0  0  0  0  0  0
    1.5230    0.4361    0.0000 C   0  0  0  0  0  0  0  0  0  0  0  0
    2.4099   -0.7340    0.0000 N   0  0  0  0  0  0  0  0  0  0  0  0
   -0.5981   -1.6617    0.0000 C   0  0  0  0  0  0  0  0  0  0  0  0
   -0.6453    1.6618    0.0000 C   0  0  0  0  0  0  0  0  0  0  0  0
    0.1088   -2.0624    0.0000 C   0  0  0  0  0  0  0  0  0  0  0  0
    0.6111    0.2369    0.0000 C   0  0  0  0  0  0  0  0  0  0  0  0
   -1.3524    2.0860    0.0000 O   0  0  0  0  0  0  0  0  0  0  0  0
   -1.3053   -2.0860    0.0000 O   0  0  0  0  0  0  0  0  0  0  0  0
    2.4134    0.2290    0.0000 C   0  0  0  0  0  0  0  0  0  0  0  0
    0.7923    1.6618    0.0000 C   0  0  0  0  0  0  0  0  0  0  0  0
    0.1088    2.0625    0.0000 C   0  0  0  0  0  0  0  0  0  0  0  0
    2.7813   -1.4914    0.0000 C   0  0  0  0  0  0  0  0  0  0  0  0
   -2.0669    1.6734    0.0000 C   0  0  0  0  0  0  0  0  0  0  0  0
   -2.7813    2.0860    0.0000 C   0  0  0  0  0  0  0  0  0  0  0  0
   -2.0669    0.8485    0.0000 O   0  0  0  0  0  0  0  0  0  0  0  0
   -2.0198   -1.6735    0.0000 C   0  0  0  0  0  0  0  0  0  0  0  0
   -2.7342   -2.0860    0.0000 C   0  0  0  0  0  0  0  0  0  0  0  0
   -2.0198   -0.8485    0.0000 O   0  0  0  0  0  0  0  0  0  0  0  0
  1  2  1  0
  1 15  1  1
  3  2  2  0
  4  1  1  0
  4  6  1  6
  5  1  1  0
  6  3  1  0
  7  5  1  0
  7 11  1  0
  8  2  1  0
  5  9  1  6
  7 10  1  1
 10  8  1  0
 12  4  1  0
 12 17  1  6
 13  3  1  0
 14  9  2  0
 14 12  1  0
 16 13  1  0
 16 22  1  0
 17 25  1  0
 18 11  1  0
 18 15  1  0
 19  8  2  0
 20 13  2  0
 20 19  1  0
 21 11  1  0
 22 23  1  0
 22 24  2  0
 25 26  1  0
 25 27  2  0
M  END
>  <DRUGBANK_ID>  (1) 
DB01452

>  <COMMON_NAME>  (1) 
Diamorphine

>  <CAS_NUMBER>  (1) 
561-27-3

>  <UNII>  (1) 
70D95007SX

>  <SYNONYMS>  (1) 
(5α,6α)-7,8-Didehydro-4,5-epoxy-17-methylmorphinan-3,6-diol diacetate (ester); 3,6-Diacetylmorphine; 7,8-Dihydro-4,5-alpha-epoxy-17-methylmorphinan-3,6-alpha-diol diacetate; Diacetylmorphine; Diamorphine; Heroin; O,O'-Diacetylmorphine

$$$$
