
     RDKit          2D

 27 28  0  0  1  0  0  0  0  0999 V2000
    0.3425    0.4743    0.0000 C   0  0  0  0  0  0  0  0  0  0  0  0
   -0.6926    1.0803    0.0000 O   0  0  0  0  0  0  0  0  0  0  0  0
    1.0577    0.8845    0.0000 O   0  0  0  0  0  0  0  0  0  0  0  0
    0.3425   -0.3538    0.0000 C   0  0  0  0  0  0  0  0  0  0  0  0
   -1.7992    0.4743    0.0000 C   0  0  0  0  0  0  0  0  0  0  0  0
    1.7691    0.4743    0.0000 C   0  0  0  0  0  0  0  0  0  0  0  0
    1.0577   -0.7716    0.0000 C   0  0  0  0  0  0  0  0  0  0  0  0
   -0.3688   -0.5570    0.0000 O   0  0  0  0  0  0  0  0  0  0  0  0
   -2.5181    0.8845    0.0000 O   0  0  0  0  0  0  0  0  0  0  0  0
   -1.7992   -0.3538    0.0000 C   0  0  0  0  0  0  0  0  0  0  0  0
    1.7691   -0.3538    0.0000 C   0  0  0  0  0  0  0  0  0  0  0  0
    2.4767    0.8845    0.0000 C   0  0  0  0  0  0  0  0  0  0  0  0
    1.0614   -1.5921    0.0000 O   0  0  0  0  0  0  0  0  0  0  0  0
   -3.2257    0.4743    0.0000 C   0  0  0  0  0  0  0  0  0  0  0  0
   -2.5181   -0.7716    0.0000 C   0  0  0  0  0  0  0  0  0  0  0  0
   -1.1856   -1.1480    0.0000 O   0  0  0  0  0  0  0  0  0  0  0  0
    2.4804   -0.7604    0.0000 O   0  0  0  0  0  0  0  0  0  0  0  0
    3.1881    0.4743    0.0000 O   0  0  0  0  0  0  0  0  0  0  0  0
   -3.2257   -0.3538    0.0000 C   0  0  0  0  0  0  0  0  0  0  0  0
   -3.9333    0.8845    0.0000 C   0  0  0  0  0  0  0  0  0  0  0  0
   -2.5181   -1.5921    0.0000 O   0  0  0  0  0  0  0  0  0  0  0  0
    4.0011    0.4743    0.0000 P   0  0  0  0  0  0  0  0  0  0  0  0
   -3.9371   -0.7604    0.0000 O   0  0  0  0  0  0  0  0  0  0  0  0
   -4.6447    0.4743    0.0000 O   0  0  0  0  0  0  0  0  0  0  0  0
    4.8216    0.4743    0.0000 O   0  0  0  0  0  0  0  0  0  0  0  0
    4.0011    1.2948    0.0000 O   0  0  0  0  0  0  0  0  0  0  0  0
    3.9973   -0.3425    0.0000 O   0  0  0  0  0  0  0  0  0  0  0  0
  1  2  1  1
  1  3  1  0
  1  4  1  0
  3  6  1  0
  4  7  1  0
  4  8  1  1
  5  2  1  6
  5  9  1  0
  5 10  1  0
  6 11  1  0
  6 12  1  6
  7 13  1  6
  7 11  1  0
  9 14  1  0
 10 15  1  0
 10 16  1  6
 11 17  1  1
 12 18  1  0
 14 19  1  0
 14 20  1  1
 15 21  1  1
 15 19  1  0
 18 22  1  0
 19 23  1  6
 20 24  1  0
 22 25  1  0
 22 26  1  0
 22 27  2  0
M  END
>  <DRUGBANK_ID>  (1) 
DB02430

>  <SECONDARY_ACCESSION_NUMBERS>  (1) 
EXPT02998

>  <COMMON_NAME>  (1) 
Trehalose-6-Phosphate

>  <CAS_NUMBER>  (1) 
4484-88-2

$$$$
