11X
     RDKit          2D

 14 15  0  0  0  0  0  0  0  0999 V2000
   -1.5900    2.1614    0.0000 N   0  0  0  0  0  0  0  0  0  0  0  0
    1.2678   -0.3136    0.0000 C   0  0  0  0  0  0  0  0  0  0  0  0
    1.9823   -0.7261    0.0000 C   0  0  0  0  0  0  0  0  0  0  0  0
    0.5534   -0.7261    0.0000 C   0  0  0  0  0  0  0  0  0  0  0  0
    0.5534   -1.5511    0.0000 C   0  0  0  0  0  0  0  0  0  0  0  0
    1.9823   -1.5511    0.0000 C   0  0  0  0  0  0  0  0  0  0  0  0
    1.2678   -1.9636    0.0000 C   0  0  0  0  0  0  0  0  0  0  0  0
   -0.8756    1.7489    0.0000 C   0  0  0  0  0  0  0  0  0  0  0  0
   -1.5900    0.5114    0.0000 C   0  0  0  0  0  0  0  0  0  0  0  0
   -2.3045    0.9239    0.0000 C   0  0  0  0  0  0  0  0  0  0  0  0
   -2.3045    1.7489    0.0000 C   0  0  0  0  0  0  0  0  0  0  0  0
   -0.1611    0.5114    0.0000 C   0  0  0  0  0  0  0  0  0  0  0  0
   -0.8756    0.9239    0.0000 C   0  0  0  0  0  0  0  0  0  0  0  0
   -0.1611   -0.3136    0.0000 N   0  0  0  0  0  0  0  0  0  0  0  0
  1  8  2  0
  1 11  1  0
  2  3  2  0
  2  4  1  0
  3  6  1  0
  4  5  2  0
  4 14  1  0
  5  7  1  0
  6  7  2  0
  8 13  1  0
  9 10  1  0
  9 13  2  0
 10 11  2  0
 12 13  1  0
 12 14  1  0
M  END
>  <DRUGBANK_ID>  (1) 
DB06851

>  <COMMON_NAME>  (1) 
N-(pyridin-3-ylmethyl)aniline

>  <UNII>  (1) 
24B88BKX5U

$$$$
