A96
     RDKit          2D

 30 33  0  0  0  0  0  0  0  0999 V2000
    1.2412   -3.8995    0.0000 N   0  0  0  0  0  0  0  0  0  0  0  0
    1.2412   -3.0745    0.0000 C   0  0  0  0  0  0  0  0  0  0  0  0
    1.9556   -2.6620    0.0000 C   0  0  0  0  0  0  0  0  0  0  0  0
    2.6701   -3.0745    0.0000 C   0  0  0  0  0  0  0  0  0  0  0  0
    2.6701   -3.8995    0.0000 N   0  0  0  0  0  0  0  0  0  0  0  0
    1.9556   -4.3120    0.0000 C   0  0  0  0  0  0  0  0  0  0  0  0
    1.9556   -1.8370    0.0000 N   0  0  0  0  0  0  0  0  0  0  0  0
    1.2412   -1.4245    0.0000 C   0  0  0  0  0  0  0  0  0  0  0  0
    1.2412   -0.5995    0.0000 C   0  0  0  0  0  0  0  0  0  0  0  0
    0.5267   -1.8370    0.0000 O   0  0  0  0  0  0  0  0  0  0  0  0
    0.5267   -0.1870    0.0000 C   0  0  0  0  0  0  0  0  0  0  0  0
    0.5267    0.6380    0.0000 C   0  0  0  0  0  0  0  0  0  0  0  0
    1.2412    1.0505    0.0000 C   0  0  0  0  0  0  0  0  0  0  0  0
    1.9556    0.6380    0.0000 C   0  0  0  0  0  0  0  0  0  0  0  0
    1.9556   -0.1870    0.0000 C   0  0  0  0  0  0  0  0  0  0  0  0
   -0.2579   -0.4420    0.0000 O   0  0  0  0  0  0  0  0  0  0  0  0
   -0.7429    0.2255    0.0000 N   0  0  0  0  0  0  0  0  0  0  0  0
   -0.2579    0.8929    0.0000 C   0  0  0  0  0  0  0  0  0  0  0  0
    2.6701   -0.5995    0.0000 Cl  0  0  0  0  0  0  0  0  0  0  0  0
   -0.5129    1.6775    0.0000 N   0  0  0  0  0  0  0  0  0  0  0  0
   -1.3199    1.8491    0.0000 C   0  0  0  0  0  0  0  0  0  0  0  0
   -1.8719    1.2360    0.0000 C   0  0  0  0  0  0  0  0  0  0  0  0
   -2.6789    1.4075    0.0000 C   0  0  0  0  0  0  0  0  0  0  0  0
   -2.9338    2.1921    0.0000 C   0  0  0  0  0  0  0  0  0  0  0  0
   -2.3818    2.8052    0.0000 C   0  0  0  0  0  0  0  0  0  0  0  0
   -1.5748    2.6337    0.0000 C   0  0  0  0  0  0  0  0  0  0  0  0
   -2.6367    3.5898    0.0000 C   0  0  0  0  0  0  0  0  0  0  0  0
   -2.8916    4.3744    0.0000 F   0  0  0  0  0  0  0  0  0  0  0  0
   -1.8521    3.8448    0.0000 F   0  0  0  0  0  0  0  0  0  0  0  0
   -3.4213    3.3349    0.0000 F   0  0  0  0  0  0  0  0  0  0  0  0
  1  2  2  0
  1  6  1  0
  2  3  1  0
  3  4  2  0
  3  7  1  0
  4  5  1  0
  5  6  2  0
  7  8  1  0
  8  9  1  0
  8 10  2  0
  9 11  2  0
  9 15  1  0
 11 12  1  0
 11 16  1  0
 12 13  2  0
 12 18  1  0
 13 14  1  0
 14 15  2  0
 15 19  1  0
 16 17  1  0
 17 18  2  0
 18 20  1  0
 20 21  1  0
 21 22  2  0
 21 26  1  0
 22 23  1  0
 23 24  2  0
 24 25  1  0
 25 26  2  0
 25 27  1  0
 27 28  1  0
 27 29  1  0
 27 30  1  0
M  END
>  <DRUGBANK_ID>  (1) 
DB07326

>  <COMMON_NAME>  (1) 
6-chloro-N-pyrimidin-5-yl-3-{[3-(trifluoromethyl)phenyl]amino}-1,2-benzisoxazole-7-carboxamide

$$$$
