
     RDKit          2D

 23 25  0  0  0  0  0  0  0  0999 V2000
   -0.3880    0.0552    0.0000 C   0  0  0  0  0  0  0  0  0  0  0  0
    0.3264    0.4677    0.0000 C   0  0  0  0  0  0  0  0  0  0  0  0
    1.0409    0.0552    0.0000 C   0  0  0  0  0  0  0  0  0  0  0  0
    1.0409   -0.7698    0.0000 C   0  0  0  0  0  0  0  0  0  0  0  0
    0.3264   -1.1823    0.0000 C   0  0  0  0  0  0  0  0  0  0  0  0
   -0.3880   -0.7698    0.0000 C   0  0  0  0  0  0  0  0  0  0  0  0
   -1.1026   -1.1823    0.0000 O   0  0  0  0  0  0  0  0  0  0  0  0
   -1.8171   -0.7698    0.0000 C   0  0  0  0  0  0  0  0  0  0  0  0
   -1.8171    0.0552    0.0000 C   0  0  0  0  0  0  0  0  0  0  0  0
   -1.1026    0.4677    0.0000 C   0  0  0  0  0  0  0  0  0  0  0  0
    1.8255   -1.0248    0.0000 O   0  0  0  0  0  0  0  0  0  0  0  0
    2.3106   -0.3572    0.0000 C   0  0  0  0  0  0  0  0  0  0  0  0
    1.8255    0.3101    0.0000 C   0  0  0  0  0  0  0  0  0  0  0  0
   -2.5316   -1.1823    0.0000 O   0  0  0  0  0  0  0  0  0  0  0  0
   -2.5316    0.4677    0.0000 C   0  0  0  0  0  0  0  0  0  0  0  0
   -2.9441   -0.2467    0.0000 C   0  0  0  0  0  0  0  0  0  0  0  0
   -2.1191    1.1823    0.0000 C   0  0  0  0  0  0  0  0  0  0  0  0
   -3.2461    0.8803    0.0000 C   0  0  0  0  0  0  0  0  0  0  0  0
   -3.9607    0.4677    0.0000 C   0  0  0  0  0  0  0  0  0  0  0  0
    3.1356   -0.3572    0.0000 C   0  0  0  0  0  0  0  0  0  0  0  0
    3.9607   -0.3572    0.0000 O   0  0  0  0  0  0  0  0  0  0  0  0
    3.1356   -1.1823    0.0000 C   0  0  0  0  0  0  0  0  0  0  0  0
    3.1356    0.4677    0.0000 C   0  0  0  0  0  0  0  0  0  0  0  0
  1  2  2  0
  1  6  1  0
  1 10  1  0
  2  3  1  0
  3  4  2  0
  4  5  1  0
  4 11  1  0
  5  6  2  0
  6  7  1  0
  8  7  1  0
  8  9  1  0
  8 14  2  0
 10  9  2  0
 12 11  1  0
 12 13  1  0
 12 20  1  1
 13  3  1  0
 15  9  1  0
 15 16  1  0
 15 17  1  0
 15 18  1  0
 18 19  2  0
 20 21  1  0
 20 22  1  0
 20 23  1  0
M  END
>  <DRUGBANK_ID>  (1) 
DB02205

>  <SECONDARY_ACCESSION_NUMBERS>  (1) 
EXPT00760

>  <COMMON_NAME>  (1) 
(+)-Rutamarin alcohol

>  <CAS_NUMBER>  (1) 
14755-47-6

>  <UNII>  (1) 
V0632559OD

>  <SYNONYMS>  (1) 
(+)-Chalepin

$$$$
