915
     RDKit          2D

 23 24  0  0  0  0  0  0  0  0999 V2000
   -0.3646    1.5733    0.0000 C   0  0  0  0  0  0  0  0  0  0  0  0
   -1.0790    1.9858    0.0000 C   0  0  0  0  0  0  0  0  0  0  0  0
   -1.0790    2.8108    0.0000 C   0  0  0  0  0  0  0  0  0  0  0  0
   -0.3646    3.2233    0.0000 C   0  0  0  0  0  0  0  0  0  0  0  0
    0.3499    2.8108    0.0000 C   0  0  0  0  0  0  0  0  0  0  0  0
    0.3499    1.9858    0.0000 C   0  0  0  0  0  0  0  0  0  0  0  0
   -0.3646    4.0483    0.0000 F   0  0  0  0  0  0  0  0  0  0  0  0
   -1.7935    3.2233    0.0000 C   0  0  0  0  0  0  0  0  0  0  0  0
   -0.3646    0.7483    0.0000 S   0  0  0  0  0  0  0  0  0  0  0  0
   -0.3646   -0.0767    0.0000 N   0  0  0  0  0  0  0  0  0  0  0  0
    0.3499   -0.4892    0.0000 C   0  0  0  0  0  0  0  0  0  0  0  0
    1.0644   -0.0767    0.0000 C   0  0  0  0  0  0  0  0  0  0  0  0
    1.0644    0.7483    0.0000 N   0  0  0  0  0  0  0  0  0  0  0  0
    1.7788    1.1608    0.0000 O   0  0  0  0  0  0  0  0  0  0  0  0
    1.7788   -0.4892    0.0000 O   0  0  0  0  0  0  0  0  0  0  0  0
   -1.1896    0.7483    0.0000 O   0  0  0  0  0  0  0  0  0  0  0  0
    0.4604    0.7483    0.0000 O   0  0  0  0  0  0  0  0  0  0  0  0
    0.3499   -1.3142    0.0000 C   0  0  0  0  0  0  0  0  0  0  0  0
    1.0644   -1.7267    0.0000 C   0  0  0  0  0  0  0  0  0  0  0  0
    1.0644   -2.5517    0.0000 C   0  0  0  0  0  0  0  0  0  0  0  0
    0.3499   -2.9642    0.0000 O   0  0  0  0  0  0  0  0  0  0  0  0
   -0.3646   -2.5517    0.0000 C   0  0  0  0  0  0  0  0  0  0  0  0
   -0.3646   -1.7267    0.0000 C   0  0  0  0  0  0  0  0  0  0  0  0
  1  2  2  0
  1  6  1  0
  1  9  1  0
  2  3  1  0
  3  4  2  0
  3  8  1  0
  4  5  1  0
  4  7  1  0
  5  6  2  0
  9 10  1  0
  9 16  2  0
  9 17  2  0
 11 10  1  1
 11 12  1  0
 11 18  1  0
 12 13  1  0
 12 15  2  0
 13 14  1  0
 18 19  1  0
 18 23  1  0
 19 20  1  0
 20 21  1  0
 21 22  1  0
 22 23  1  0
M  END
>  <DRUGBANK_ID>  (1) 
DB07290

>  <COMMON_NAME>  (1) 
(2R)-2-{[(4-FLUORO-3-METHYLPHENYL)SULFONYL]AMINO}-N-HYDROXY-2-TETRAHYDRO-2H-PYRAN-4-YLACETAMIDE

$$$$
