
     RDKit          2D

 21 21  0  0  0  0  0  0  0  0999 V2000
    0.3569    1.0312    0.0000 C   0  0  0  0  0  0  0  0  0  0  0  0
    1.0709    0.6179    0.0000 N   0  0  0  0  0  0  0  0  0  0  0  0
   -0.3569    0.6179    0.0000 C   0  0  0  0  0  0  0  0  0  0  0  0
    2.4989    0.6179    0.0000 C   0  0  0  0  0  0  0  0  0  0  0  0
   -1.7849    0.6179    0.0000 C   0  0  0  0  0  0  0  0  0  0  0  0
    1.7849    1.0312    0.0000 C   0  0  0  0  0  0  0  0  0  0  0  0
   -1.0709    1.0312    0.0000 C   0  0  0  0  0  0  0  0  0  0  0  0
    0.3569    1.8579    0.0000 O   0  0  0  0  0  0  0  0  0  0  0  0
   -0.3569   -0.2087    0.0000 C   0  0  0  0  0  0  0  0  0  0  0  0
    2.4989   -0.2087    0.0000 O   0  0  0  0  0  0  0  0  0  0  0  0
   -1.7849   -0.2087    0.0000 O   0  0  0  0  0  0  0  0  0  0  0  0
   -2.4989    1.0312    0.0000 N   0  0  0  0  0  0  0  0  0  0  0  0
    3.2128    1.0312    0.0000 O   0  0  0  0  0  0  0  0  0  0  0  0
    0.3569   -0.6221    0.0000 C   0  0  0  0  0  0  0  0  0  0  0  0
   -3.2128    0.6179    0.0000 O   0  0  0  0  0  0  0  0  0  0  0  0
    1.7849    1.8579    0.0000 C   0  0  0  0  0  0  0  0  0  0  0  0
    1.0709   -0.2087    0.0000 C   0  0  0  0  0  0  0  0  0  0  0  0
    0.3569   -1.4446    0.0000 C   0  0  0  0  0  0  0  0  0  0  0  0
    1.0667   -1.8579    0.0000 C   0  0  0  0  0  0  0  0  0  0  0  0
    1.7807   -0.6179    0.0000 C   0  0  0  0  0  0  0  0  0  0  0  0
    1.7849   -1.4488    0.0000 C   0  0  0  0  0  0  0  0  0  0  0  0
  2  1  1  0
  3  1  1  0
  3  9  1  6
  4  6  1  0
  5  7  1  0
  6  2  1  0
  6 16  1  1
  7  3  1  0
  8  1  2  0
 10  4  2  0
 11  5  2  0
 12  5  1  0
 13  4  1  0
 14  9  1  0
 15 12  1  0
 17 14  2  0
 18 14  1  0
 19 18  2  0
 20 17  1  0
 21 20  2  0
 21 19  1  0
M  END
>  <DRUGBANK_ID>  (1) 
DB08040

>  <COMMON_NAME>  (1) 
Kelatorphan

>  <CAS_NUMBER>  (1) 
92175-57-0

>  <UNII>  (1) 
46BBW2U5D6

>  <SYNONYMS>  (1) 
(3-(N-Hydroxy)carboxamido-2-benzylpropanoyl)alanine

$$$$
