4BG
     RDKit          2D

 19 20  0  0  0  0  0  0  0  0999 V2000
    2.9577   -0.2145    0.0000 C   0  0  0  0  0  0  0  0  0  0  0  0
    3.6722   -0.6270    0.0000 C   0  0  0  0  0  0  0  0  0  0  0  0
    3.6722   -1.4520    0.0000 C   0  0  0  0  0  0  0  0  0  0  0  0
    2.9577   -1.8645    0.0000 C   0  0  0  0  0  0  0  0  0  0  0  0
    2.2432   -1.4520    0.0000 C   0  0  0  0  0  0  0  0  0  0  0  0
    2.2432   -0.6270    0.0000 C   0  0  0  0  0  0  0  0  0  0  0  0
    1.5288   -0.2145    0.0000 C   0  0  0  0  0  0  0  0  0  0  0  0
    0.8143   -0.6270    0.0000 O   0  0  0  0  0  0  0  0  0  0  0  0
    0.0998   -0.2145    0.0000 C   0  0  0  0  0  0  0  0  0  0  0  0
   -0.6146   -0.6270    0.0000 C   0  0  0  0  0  0  0  0  0  0  0  0
   -1.3291   -0.2145    0.0000 C   0  0  0  0  0  0  0  0  0  0  0  0
    0.0998    0.6105    0.0000 C   0  0  0  0  0  0  0  0  0  0  0  0
   -0.6146    1.0230    0.0000 C   0  0  0  0  0  0  0  0  0  0  0  0
   -1.3291    0.6105    0.0000 C   0  0  0  0  0  0  0  0  0  0  0  0
   -2.0436    1.0230    0.0000 N   0  0  0  0  0  0  0  0  0  0  0  0
   -2.7581    0.6105    0.0000 C   0  0  0  0  0  0  0  0  0  0  0  0
   -2.7581   -0.2145    0.0000 O   0  0  0  0  0  0  0  0  0  0  0  0
   -3.4725    1.0230    0.0000 C   0  0  0  0  0  0  0  0  0  0  0  0
   -4.1870    0.6105    0.0000 N   0  0  0  0  0  0  0  0  0  0  0  0
  1  2  2  0
  1  6  1  0
  2  3  1  0
  3  4  2  0
  4  5  1  0
  5  6  2  0
  6  7  1  0
  7  8  1  0
  8  9  1  0
  9 10  2  0
  9 12  1  0
 10 11  1  0
 11 14  2  0
 12 13  2  0
 13 14  1  0
 14 15  1  0
 15 16  1  0
 16 17  2  0
 16 18  1  0
 18 19  1  0
M  END
>  <DRUGBANK_ID>  (1) 
DB07099

>  <COMMON_NAME>  (1) 
N-[4-(benzyloxy)phenyl]glycinamide

$$$$
