
     RDKit          2D

  9  9  0  0  0  0  0  0  0  0999 V2000
   -0.0078   -0.1083    0.0000 C   0  0  0  0  0  0  0  0  0  0  0  0
    0.4043    0.6079    0.0000 C   0  0  0  0  0  0  0  0  0  0  0  0
   -0.0078    1.3215    0.0000 O   0  0  0  0  0  0  0  0  0  0  0  0
    1.2317    0.6079    0.0000 O   0  0  0  0  0  0  0  0  0  0  0  0
   -0.8273   -0.0132    0.0000 C   0  0  0  0  0  0  0  0  0  0  0  0
    0.1559   -0.9171    0.0000 N   0  0  0  0  0  0  0  0  0  0  0  0
   -1.1708   -0.7637    0.0000 N   0  0  0  0  0  0  0  0  0  0  0  0
   -0.5629   -1.3215    0.0000 S   0  0  0  0  0  0  0  0  0  0  0  0
   -1.2317    0.7056    0.0000 O   0  0  0  0  0  0  0  0  0  0  0  0
  1  2  1  0
  1  5  1  0
  1  6  2  0
  2  3  2  0
  2  4  1  0
  5  7  2  0
  5  9  1  0
  6  8  1  0
  7  8  1  0
M  END
>  <DRUGBANK_ID>  (1) 
DB03162

>  <SECONDARY_ACCESSION_NUMBERS>  (1) 
EXPT01550

>  <COMMON_NAME>  (1) 
4-oxo-4,5-dihydro-1,2,5-thiadiazole-3-carboxylic acid

>  <CAS_NUMBER>  (1) 
45654-48-6

$$$$
