
     RDKit          2D

 25 28  0  0  1  0  0  0  0  0999 V2000
   -0.5017   -0.7026    0.0000 C   0  0  0  0  0  0  0  0  0  0  0  0
    0.1064   -0.1450    0.0000 C   0  0  0  0  0  0  0  0  0  0  0  0
   -0.0724    0.6604    0.0000 C   0  0  0  0  0  0  0  0  0  0  0  0
    0.5357    1.2179    0.0000 C   0  0  0  0  0  0  0  0  0  0  0  0
    0.3569    2.0233    0.0000 O   0  0  0  0  0  0  0  0  0  0  0  0
    1.3226    0.9700    0.0000 C   0  0  0  0  0  0  0  0  0  0  0  0
    1.5014    0.1646    0.0000 C   0  0  0  0  0  0  0  0  0  0  0  0
    0.8933   -0.3929    0.0000 C   0  0  0  0  0  0  0  0  0  0  0  0
    1.0720   -1.1983    0.0000 O   0  0  0  0  0  0  0  0  0  0  0  0
    2.3226    0.0858    0.0000 N   0  0  0  0  0  0  0  0  0  0  0  0
    2.9406   -0.4607    0.0000 C   0  0  0  0  0  0  0  0  0  0  0  0
    3.6513   -0.0418    0.0000 C   0  0  0  0  0  0  0  0  0  0  0  0
    3.4726    0.7636    0.0000 C   0  0  0  0  0  0  0  0  0  0  0  0
    2.6513    0.8424    0.0000 C   0  0  0  0  0  0  0  0  0  0  0  0
    2.0333    1.3889    0.0000 C   0  0  0  0  0  0  0  0  0  0  0  0
    2.1122    2.2102    0.0000 C   0  0  0  0  0  0  0  0  0  0  0  0
    1.4404    2.6891    0.0000 O   0  0  0  0  0  0  0  0  0  0  0  0
    1.5192    3.5103    0.0000 C   0  0  0  0  0  0  0  0  0  0  0  0
    0.8475    3.9892    0.0000 O   0  0  0  0  0  0  0  0  0  0  0  0
    2.2699    3.8526    0.0000 N   0  0  0  0  0  0  0  0  0  0  0  0
    2.9801    1.5991    0.0000 O   0  0  0  0  0  0  0  0  0  0  0  0
    3.7998    1.6927    0.0000 C   0  0  0  0  0  0  0  0  0  0  0  0
    4.2594    0.5157    0.0000 N   0  0  0  0  0  0  0  0  0  0  0  0
    5.0648    0.6945    0.0000 C   0  0  0  0  0  0  0  0  0  0  0  0
   -0.8593    0.9082    0.0000 N   0  0  0  0  0  0  0  0  0  0  0  0
  1  2  1  0
  2  3  2  0
  2  8  1  0
  3  4  1  0
  3 25  1  0
  4  5  2  0
  4  6  1  0
  6  7  2  0
  6 15  1  0
  7  8  1  0
  7 10  1  0
  8  9  2  0
 10 11  1  0
 10 14  1  0
 12 11  1  1
 12 13  1  0
 12 23  1  0
 13 14  1  0
 13 23  1  1
 14 15  1  0
 14 21  1  6
 15 16  1  1
 16 17  1  0
 17 18  1  0
 18 19  2  0
 18 20  1  0
 21 22  1  0
 23 24  1  0
M  END
>  <DRUGBANK_ID>  (1) 
DB06478

>  <COMMON_NAME>  (1) 
Porfiromycin

>  <CAS_NUMBER>  (1) 
801-52-5

>  <UNII>  (1) 
H1WK901OA6

>  <SYNONYMS>  (1) 
Porfiromycin

$$$$
