
     RDKit          2D

 11 12  0  0  0  0  0  0  0  0999 V2000
   -1.7030   -1.2377    0.0000 Br  0  0  0  0  0  0  0  0  0  0  0  0
   -0.2737    1.2377    0.0000 Cl  0  0  0  0  0  0  0  0  0  0  0  0
    1.2215    0.2513    0.0000 N   0  0  0  0  0  0  0  0  0  0  0  0
    1.2215   -1.0766    0.0000 N   0  0  0  0  0  0  0  0  0  0  0  0
   -0.2737   -1.2377    0.0000 N   0  0  0  0  0  0  0  0  0  0  0  0
   -0.9885    0.0000    0.0000 N   0  0  0  0  0  0  0  0  0  0  0  0
    0.4407    0.0000    0.0000 C   0  0  0  0  0  0  0  0  0  0  0  0
    0.4407   -0.8251    0.0000 C   0  0  0  0  0  0  0  0  0  0  0  0
   -0.2737    0.4126    0.0000 C   0  0  0  0  0  0  0  0  0  0  0  0
    1.7030   -0.4126    0.0000 C   0  0  0  0  0  0  0  0  0  0  0  0
   -0.9885   -0.8251    0.0000 C   0  0  0  0  0  0  0  0  0  0  0  0
  1 11  1  0
  2  9  1  0
  3  7  1  0
  3 10  1  0
  4  8  1  0
  4 10  2  0
  5  8  1  0
  5 11  2  0
  6  9  2  0
  6 11  1  0
  7  8  2  0
  7  9  1  0
M  END
>  <DRUGBANK_ID>  (1) 
DB01706

>  <SECONDARY_ACCESSION_NUMBERS>  (1) 
EXPT00642

>  <COMMON_NAME>  (1) 
2-Bromo-6-chloro-purine

>  <CAS_NUMBER>  (1) 
500797-85-3

>  <SYNONYMS>  (1) 
2-Bromo-6-chloro-7H-purine

$$$$
