
     RDKit          2D

 29 32  0  0  0  0  0  0  0  0999 V2000
   -0.1230    0.8342    0.0000 N   0  0  0  0  0  0  0  0  0  0  0  0
   -0.1230    0.0092    0.0000 C   0  0  0  0  0  0  0  0  0  0  0  0
   -0.8374   -0.4033    0.0000 N   0  0  0  0  0  0  0  0  0  0  0  0
   -0.8374   -1.2283    0.0000 C   0  0  0  0  0  0  0  0  0  0  0  0
   -0.1230   -1.6408    0.0000 N   0  0  0  0  0  0  0  0  0  0  0  0
    0.5915   -1.2283    0.0000 C   0  0  0  0  0  0  0  0  0  0  0  0
    0.5915   -0.4033    0.0000 C   0  0  0  0  0  0  0  0  0  0  0  0
    1.2365    0.1111    0.0000 C   0  0  0  0  0  0  0  0  0  0  0  0
    1.0529    0.9154    0.0000 O   0  0  0  0  0  0  0  0  0  0  0  0
    2.0408   -0.0725    0.0000 N   0  0  0  0  0  0  0  0  0  0  0  0
    2.3988   -0.8158    0.0000 C   0  0  0  0  0  0  0  0  0  0  0  0
    2.0408   -1.5591    0.0000 C   0  0  0  0  0  0  0  0  0  0  0  0
    1.2365   -1.7427    0.0000 O   0  0  0  0  0  0  0  0  0  0  0  0
    2.5552    0.5725    0.0000 C   0  0  0  0  0  0  0  0  0  0  0  0
    2.2538    1.3405    0.0000 C   0  0  0  0  0  0  0  0  0  0  0  0
    2.7682    1.9855    0.0000 C   0  0  0  0  0  0  0  0  0  0  0  0
    3.5840    1.8625    0.0000 C   0  0  0  0  0  0  0  0  0  0  0  0
    3.8854    1.0946    0.0000 C   0  0  0  0  0  0  0  0  0  0  0  0
    3.3710    0.4496    0.0000 C   0  0  0  0  0  0  0  0  0  0  0  0
    4.0984    2.5076    0.0000 C   0  0  0  0  0  0  0  0  0  0  0  0
    3.7969    3.2755    0.0000 C   0  0  0  0  0  0  0  0  0  0  0  0
    4.3113    3.9205    0.0000 C   0  0  0  0  0  0  0  0  0  0  0  0
    5.1271    3.7976    0.0000 C   0  0  0  0  0  0  0  0  0  0  0  0
    5.6415    4.4426    0.0000 C   0  0  0  0  0  0  0  0  0  0  0  0
    6.4573    4.3196    0.0000 C   0  0  0  0  0  0  0  0  0  0  0  0
    6.9717    4.9646    0.0000 O   0  0  0  0  0  0  0  0  0  0  0  0
    6.7587    3.5517    0.0000 O   0  0  0  0  0  0  0  0  0  0  0  0
    5.4285    3.0296    0.0000 C   0  0  0  0  0  0  0  0  0  0  0  0
    4.9141    2.3846    0.0000 C   0  0  0  0  0  0  0  0  0  0  0  0
  1  2  1  0
  2  3  2  0
  2  7  1  0
  3  4  1  0
  4  5  2  0
  5  6  1  0
  6  7  2  0
  6 13  1  0
  7  8  1  0
  8  9  2  0
  8 10  1  0
 10 11  1  0
 10 14  1  0
 11 12  1  0
 12 13  1  0
 14 15  2  0
 14 19  1  0
 15 16  1  0
 16 17  2  0
 17 18  1  0
 18 19  2  0
 20 17  1  1
 20 21  1  0
 20 29  1  0
 21 22  1  0
 23 22  1  0
 23 24  1  6
 23 28  1  0
 24 25  1  0
 25 26  1  0
 25 27  2  0
 28 29  1  0
M  END
>  <DRUGBANK_ID>  (1) 
DB14887

>  <COMMON_NAME>  (1) 
PF-04620110

>  <CAS_NUMBER>  (1) 
1109276-89-2

>  <UNII>  (1) 
CQ4M18RLJW

$$$$
