
     RDKit          2D

 35 38  0  0  1  0  0  0  0  0999 V2000
   -3.1919    5.0201    0.0000 C   0  0  0  0  0  0  0  0  0  0  0  0
   -2.7170    4.3455    0.0000 N   0  0  0  0  0  0  0  0  0  0  0  0
   -1.8953    4.4195    0.0000 C   0  0  0  0  0  0  0  0  0  0  0  0
   -3.0638    3.5969    0.0000 C   0  0  0  0  0  0  0  0  0  0  0  0
   -2.5889    2.9223    0.0000 C   0  0  0  0  0  0  0  0  0  0  0  0
   -2.9357    2.1737    0.0000 C   0  0  0  0  0  0  0  0  0  0  0  0
   -2.4608    1.4991    0.0000 C   0  0  0  0  0  0  0  0  0  0  0  0
   -2.8076    0.7506    0.0000 O   0  0  0  0  0  0  0  0  0  0  0  0
   -1.6391    1.5731    0.0000 N   0  0  0  0  0  0  0  0  0  0  0  0
   -1.3492    2.3455    0.0000 C   0  0  0  0  0  0  0  0  0  0  0  0
   -0.5646    2.6004    0.0000 C   0  0  0  0  0  0  0  0  0  0  0  0
    0.1239    2.1459    0.0000 C   0  0  0  0  0  0  0  0  0  0  0  0
    0.1979    1.3242    0.0000 C   0  0  0  0  0  0  0  0  0  0  0  0
   -0.3984    0.7541    0.0000 C   0  0  0  0  0  0  0  0  0  0  0  0
   -1.2160    0.8649    0.0000 C   0  0  0  0  0  0  0  0  0  0  0  0
   -0.1435   -0.0305    0.0000 N   0  0  0  0  0  0  0  0  0  0  0  0
   -0.6284   -0.6979    0.0000 C   0  0  0  0  0  0  0  0  0  0  0  0
   -1.4534   -0.6979    0.0000 N   0  0  0  0  0  0  0  0  0  0  0  0
   -1.8659   -1.4124    0.0000 C   0  0  0  0  0  0  0  0  0  0  0  0
   -2.6909   -1.4124    0.0000 O   0  0  0  0  0  0  0  0  0  0  0  0
   -1.4534   -2.1269    0.0000 C   0  0  0  0  0  0  0  0  0  0  0  0
   -0.6284   -2.1269    0.0000 C   0  0  0  0  0  0  0  0  0  0  0  0
   -0.2159   -2.8414    0.0000 C   0  0  0  0  0  0  0  0  0  0  0  0
   -0.6284   -3.5558    0.0000 N   0  0  0  0  0  0  0  0  0  0  0  0
   -1.4534   -3.5558    0.0000 C   0  0  0  0  0  0  0  0  0  0  0  0
   -1.8659   -4.2703    0.0000 C   0  0  0  0  0  0  0  0  0  0  0  0
   -1.8659   -2.8414    0.0000 C   0  0  0  0  0  0  0  0  0  0  0  0
   -0.1435   -1.3654    0.0000 N   0  0  0  0  0  0  0  0  0  0  0  0
    0.6411   -1.1104    0.0000 C   0  0  0  0  0  0  0  0  0  0  0  0
    0.6411   -0.2854    0.0000 C   0  0  0  0  0  0  0  0  0  0  0  0
    1.3556    0.1271    0.0000 C   0  0  0  0  0  0  0  0  0  0  0  0
    1.3556    0.9521    0.0000 Cl  0  0  0  0  0  0  0  0  0  0  0  0
    2.0701   -0.2854    0.0000 C   0  0  0  0  0  0  0  0  0  0  0  0
    2.0701   -1.1104    0.0000 C   0  0  0  0  0  0  0  0  0  0  0  0
    1.3556   -1.5229    0.0000 C   0  0  0  0  0  0  0  0  0  0  0  0
  1  2  1  0
  2  3  1  0
  2  4  1  0
  4  5  1  0
  5  6  2  0
  6  7  1  0
  7  8  2  0
  7  9  1  0
  9 10  1  0
  9 15  1  0
 10 11  1  0
 11 12  1  0
 12 13  1  0
 14 13  1  0
 14 15  1  0
 14 16  1  1
 16 17  1  0
 16 30  1  0
 17 18  1  0
 17 28  2  0
 18 19  1  0
 19 20  2  0
 19 21  1  0
 21 22  2  0
 21 27  1  0
 22 23  1  0
 23 24  2  0
 24 25  1  0
 25 26  1  0
 25 27  2  0
 28 29  1  0
 29 30  2  0
 29 35  1  0
 30 31  1  0
 31 32  1  0
 31 33  2  0
 33 34  1  0
 34 35  2  0
M  END
>  <DRUGBANK_ID>  (1) 
DB16250

>  <COMMON_NAME>  (1) 
Nazartinib

>  <CAS_NUMBER>  (1) 
1508250-71-2

>  <UNII>  (1) 
KE7K32EME8

>  <SYNONYMS>  (1) 
Nazartinib

$$$$
