
     RDKit          2D

 13 12  0  0  0  0  0  0  0  0999 V2000
    1.2375   -0.7145    0.0000 C   0  0  0  0  0  0  0  0  0  0  0  0
    2.0625   -0.7145    0.0000 C   0  0  0  0  0  0  0  0  0  0  0  0
    2.4750   -1.4289    0.0000 C   0  0  0  0  0  0  0  0  0  0  0  0
    3.3000   -1.4289    0.0000 C   0  0  0  0  0  0  0  0  0  0  0  0
    2.4750   -0.0000    0.0000 O   0  0  0  0  0  0  0  0  0  0  0  0
    2.0625   -2.1434    0.0000 O   0  0  0  0  0  0  0  0  0  0  0  0
    3.7125   -2.1434    0.0000 O   0  0  0  0  0  0  0  0  0  0  0  0
    3.7125   -0.7145    0.0000 O   0  0  0  0  0  0  0  0  0  0  0  0
   -0.8250    0.0000    0.0000 O   0  0  0  0  0  0  0  0  0  0  0  0
    0.0000    0.8250    0.0000 O   0  0  0  0  0  0  0  0  0  0  0  0
    0.0000   -0.8250    0.0000 O   0  0  0  0  0  0  0  0  0  0  0  0
    0.8250    0.0000    0.0000 O   0  0  0  0  0  0  0  0  0  0  0  0
    0.0000    0.0000    0.0000 P   0  0  0  0  0  0  0  0  0  0  0  0
  2  1  1  0
  2  5  1  1
  3  2  1  0
  3  6  1  6
  4  3  1  0
  7  4  2  0
  8  4  1  0
 12  1  1  0
 13  9  1  0
 13 10  1  0
 13 11  2  0
 13 12  1  0
M  END
>  <DRUGBANK_ID>  (1) 
DB03108

>  <SECONDARY_ACCESSION_NUMBERS>  (1) 
EXPT01166

>  <COMMON_NAME>  (1) 
4-phospho-D-erythronic acid

>  <SYNONYMS>  (1) 
4-Phospho-D-Erythronate; 4-Phosphoerythronate

$$$$
