P83
     RDKit          2D

 18 20  0  0  0  0  0  0  0  0999 V2000
   65.9807   55.5840    0.0000 C   0  0  0  0  0  0  0  0  0  0  0  0
   65.4287   56.1971    0.0000 C   0  0  0  0  0  0  0  0  0  0  0  0
   65.6836   56.9817    0.0000 C   0  0  0  0  0  0  0  0  0  0  0  0
   66.4906   57.1532    0.0000 C   0  0  0  0  0  0  0  0  0  0  0  0
   67.0426   56.5401    0.0000 C   0  0  0  0  0  0  0  0  0  0  0  0
   67.8676   56.5401    0.0000 C   0  0  0  0  0  0  0  0  0  0  0  0
   68.4196   57.1532    0.0000 C   0  0  0  0  0  0  0  0  0  0  0  0
   69.2266   56.9817    0.0000 C   0  0  0  0  0  0  0  0  0  0  0  0
   69.4816   56.1971    0.0000 C   0  0  0  0  0  0  0  0  0  0  0  0
   68.9295   55.5840    0.0000 C   0  0  0  0  0  0  0  0  0  0  0  0
   68.1226   55.7555    0.0000 C   0  0  0  0  0  0  0  0  0  0  0  0
   67.4551   55.2706    0.0000 N   0  0  0  0  0  0  0  0  0  0  0  0
   66.7877   55.7555    0.0000 C   0  0  0  0  0  0  0  0  0  0  0  0
   67.4551   54.4456    0.0000 C   0  0  0  0  0  0  0  0  0  0  0  0
   66.7406   54.0331    0.0000 C   0  0  0  0  0  0  0  0  0  0  0  0
   65.1316   57.5948    0.0000 C   0  0  0  0  0  0  0  0  0  0  0  0
   65.3865   58.3794    0.0000 N   0  0  0  0  0  0  0  0  0  0  0  0
   64.8345   58.9925    0.0000 C   0  0  0  0  0  0  0  0  0  0  0  0
  1  2  2  0
  1 13  1  0
  2  3  1  0
  3  4  2  0
  3 16  1  0
  4  5  1  0
  5  6  1  0
  5 13  2  0
  6  7  2  0
  6 11  1  0
  7  8  1  0
  8  9  2  0
  9 10  1  0
 10 11  2  0
 11 12  1  0
 12 13  1  0
 12 14  1  0
 14 15  1  0
 16 17  1  0
 17 18  1  0
M  END
>  <DRUGBANK_ID>  (1) 
DB08363

>  <COMMON_NAME>  (1) 
1-(9-ethyl-9H-carbazol-3-yl)-N-methylmethanamine

$$$$
