
     RDKit          2D

 21 20  0  0  1  0  0  0  0  0999 V2000
    3.5508    0.4062    0.0000 O   0  0  0  0  0  0  0  0  0  0  0  0
    2.8434    0.8306    0.0000 C   0  0  0  0  0  0  0  0  0  0  0  0
    2.1359    0.4062    0.0000 C   0  0  0  0  0  0  0  0  0  0  0  0
    1.4286    0.8306    0.0000 C   0  0  0  0  0  0  0  0  0  0  0  0
    0.7211    0.4062    0.0000 C   0  0  0  0  0  0  0  0  0  0  0  0
    0.0140    0.8306    0.0000 C   0  0  0  0  0  0  0  0  0  0  0  0
   -0.6932    0.4062    0.0000 C   0  0  0  0  0  0  0  0  0  0  0  0
   -1.4008    0.8306    0.0000 C   0  0  0  0  0  0  0  0  0  0  0  0
    2.8434    1.6322    0.0000 O   0  0  0  0  0  0  0  0  0  0  0  0
   -2.1222    0.4304    0.0000 C   0  0  0  0  0  0  0  0  0  0  0  0
   -2.1361   -0.3945    0.0000 C   0  0  0  0  0  0  0  0  0  0  0  0
    1.4150   -0.8451    0.0000 C   0  0  0  0  0  0  0  0  0  0  0  0
    0.7077   -0.4204    0.0000 C   0  0  0  0  0  0  0  0  0  0  0  0
    0.0000   -0.8448    0.0000 C   0  0  0  0  0  0  0  0  0  0  0  0
   -0.7072   -0.4204    0.0000 C   0  0  0  0  0  0  0  0  0  0  0  0
   -1.4364   -0.8316    0.0000 C   0  0  0  0  0  0  0  0  0  0  0  0
   -3.5508    0.4304    0.0000 C   0  0  0  0  0  0  0  0  0  0  0  0
   -3.5508   -0.3945    0.0000 C   0  0  0  0  0  0  0  0  0  0  0  0
   -2.8365    0.8427    0.0000 C   0  0  0  0  0  0  0  0  0  0  0  0
   -2.8365   -0.8072    0.0000 C   0  0  0  0  0  0  0  0  0  0  0  0
   -2.8328   -1.6322    0.0000 O   0  0  0  0  0  0  0  0  0  0  0  0
  1  2  1  0
  3  2  1  0
  4  3  1  0
  4  5  1  0
  6  5  1  0
  6  7  1  0
  8  7  1  0
  8 10  1  0
  9  2  2  0
 10 19  1  0
 11 20  1  0
 12 13  1  0
 13 14  1  0
 14 15  1  0
 15 16  1  0
 16 11  1  0
 18 17  1  0
 19 17  2  0
 20 18  1  0
 20 21  1  1
M  END
>  <DRUGBANK_ID>  (1) 
DB02955

>  <SECONDARY_ACCESSION_NUMBERS>  (1) 
EXPT02762

>  <COMMON_NAME>  (1) 
Ricinoleic acid

>  <CAS_NUMBER>  (1) 
141-22-0

>  <UNII>  (1) 
I2D0F69854

>  <SYNONYMS>  (1) 
(cis,R)-12-hydroxyoctadec-9-enoic acid; (Z,R)-12-hydroxyoctadec-9-enoic acid; 12-Hydroxy-9-octadecenoic acid; 12-Hydroxy-cis-9-octadecenoic acid; 12-hydroxyoleic acid; Ricinoleic acid; Ricinolic acid; Ricinols√§ure

$$$$
