
     RDKit          2D

 31 35  0  0  1  0  0  0  0  0999 V2000
    0.0565   -2.7346    0.0000 C   0  0  0  0  0  0  0  0  0  0  0  0
    0.4690   -2.0202    0.0000 O   0  0  0  0  0  0  0  0  0  0  0  0
    1.2940   -2.0202    0.0000 C   0  0  0  0  0  0  0  0  0  0  0  0
    1.7065   -1.3057    0.0000 C   0  0  0  0  0  0  0  0  0  0  0  0
    2.5315   -1.3057    0.0000 C   0  0  0  0  0  0  0  0  0  0  0  0
    2.9440   -2.0202    0.0000 C   0  0  0  0  0  0  0  0  0  0  0  0
    3.4289   -1.3527    0.0000 C   0  0  0  0  0  0  0  0  0  0  0  0
    4.2135   -1.6077    0.0000 C   0  0  0  0  0  0  0  0  0  0  0  0
    4.9280   -1.1952    0.0000 C   0  0  0  0  0  0  0  0  0  0  0  0
    5.6425   -1.6077    0.0000 C   0  0  0  0  0  0  0  0  0  0  0  0
    5.6425   -2.4327    0.0000 C   0  0  0  0  0  0  0  0  0  0  0  0
    4.9280   -2.8452    0.0000 C   0  0  0  0  0  0  0  0  0  0  0  0
    4.2135   -2.4327    0.0000 C   0  0  0  0  0  0  0  0  0  0  0  0
    3.4289   -2.6876    0.0000 C   0  0  0  0  0  0  0  0  0  0  0  0
    3.9138   -3.3551    0.0000 N   0  0  0  0  0  0  0  0  0  0  0  0
    3.4289   -4.0225    0.0000 C   0  0  0  0  0  0  0  0  0  0  0  0
    3.6838   -4.8071    0.0000 C   0  0  0  0  0  0  0  0  0  0  0  0
    2.6443   -3.7676    0.0000 C   0  0  0  0  0  0  0  0  0  0  0  0
    1.9768   -4.2525    0.0000 N   0  0  0  0  0  0  0  0  0  0  0  0
    2.6745   -3.0553    0.0000 N   0  0  0  0  0  0  0  0  0  0  0  0
    6.3569   -2.8452    0.0000 C   0  0  0  0  0  0  0  0  0  0  0  0
    7.0714   -2.4327    0.0000 C   0  0  0  0  0  0  0  0  0  0  0  0
    7.7859   -2.8452    0.0000 C   0  0  0  0  0  0  0  0  0  0  0  0
    7.7859   -3.6702    0.0000 C   0  0  0  0  0  0  0  0  0  0  0  0
    7.0714   -4.0827    0.0000 N   0  0  0  0  0  0  0  0  0  0  0  0
    6.3569   -3.6702    0.0000 C   0  0  0  0  0  0  0  0  0  0  0  0
    8.5003   -2.4327    0.0000 C   0  0  0  0  0  0  0  0  0  0  0  0
    9.2148   -2.0202    0.0000 C   0  0  0  0  0  0  0  0  0  0  0  0
    9.9293   -1.6077    0.0000 C   0  0  0  0  0  0  0  0  0  0  0  0
    2.5315   -2.7346    0.0000 C   0  0  0  0  0  0  0  0  0  0  0  0
    1.7065   -2.7346    0.0000 C   0  0  0  0  0  0  0  0  0  0  0  0
  1  2  1  0
  3  2  1  1
  3  4  1  0
  3 31  1  0
  4  5  1  0
  6  5  1  6
  6  7  1  0
  6 14  1  0
  6 30  1  0
  7  8  1  0
  8  9  1  0
  8 13  2  0
  9 10  2  0
 10 11  1  0
 11 12  2  0
 11 21  1  0
 12 13  1  0
 14 13  1  0
 14 15  1  1
 14 20  1  0
 15 16  2  0
 16 17  1  0
 16 18  1  0
 18 19  1  0
 18 20  2  0
 21 22  2  0
 21 26  1  0
 22 23  1  0
 23 24  2  0
 23 27  1  0
 24 25  1  0
 25 26  2  0
 27 28  3  0
 28 29  1  0
 30 31  1  0
M  END
>  <DRUGBANK_ID>  (1) 
DB14814

>  <COMMON_NAME>  (1) 
Lanabecestat

>  <CAS_NUMBER>  (1) 
1383982-64-6

>  <UNII>  (1) 
X8SPJ492VF

>  <SYNONYMS>  (1) 
Lanabecestat

$$$$
