
     RDKit          2D

 21 22  0  0  0  0  0  0  0  0999 V2000
    2.6817   -0.4581    0.0000 S   0  0  0  0  0  0  0  0  0  0  0  0
    4.6188   -2.1806    0.0000 S   0  0  0  0  0  0  0  0  0  0  0  0
    0.1745   -1.5851    0.0000 O   0  0  0  0  0  0  0  0  0  0  0  0
    0.1745   -0.1561    0.0000 N   0  0  0  0  0  0  0  0  0  0  0  0
   -3.1255    1.2728    0.0000 N   0  0  0  0  0  0  0  0  0  0  0  0
    1.8970   -1.5381    0.0000 N   0  0  0  0  0  0  0  0  0  0  0  0
    3.3492   -2.5931    0.0000 N   0  0  0  0  0  0  0  0  0  0  0  0
   -4.3631    1.9873    0.0000 N   0  0  0  0  0  0  0  0  0  0  0  0
   -3.1256    2.7018    0.0000 N   0  0  0  0  0  0  0  0  0  0  0  0
   -1.0629    0.5583    0.0000 C   0  0  0  0  0  0  0  0  0  0  0  0
   -1.8879    0.5583    0.0000 C   0  0  0  0  0  0  0  0  0  0  0  0
   -0.6504   -0.1561    0.0000 C   0  0  0  0  0  0  0  0  0  0  0  0
   -2.3005    1.2728    0.0000 C   0  0  0  0  0  0  0  0  0  0  0  0
    0.5871   -0.8706    0.0000 C   0  0  0  0  0  0  0  0  0  0  0  0
    1.4121   -0.8706    0.0000 C   0  0  0  0  0  0  0  0  0  0  0  0
    2.6817   -1.2831    0.0000 C   0  0  0  0  0  0  0  0  0  0  0  0
    1.8970   -0.2031    0.0000 C   0  0  0  0  0  0  0  0  0  0  0  0
   -3.5381    1.9873    0.0000 C   0  0  0  0  0  0  0  0  0  0  0  0
    3.3492   -1.7681    0.0000 C   0  0  0  0  0  0  0  0  0  0  0  0
    4.1339   -1.5131    0.0000 C   0  0  0  0  0  0  0  0  0  0  0  0
    4.1339   -2.8481    0.0000 C   0  0  0  0  0  0  0  0  0  0  0  0
  1 16  1  0
  1 17  1  0
  2 20  1  0
  2 21  1  0
  3 14  2  0
  4 12  1  0
  4 14  1  0
  5 13  1  0
  5 18  2  3
  6 15  1  0
  6 16  2  0
  7 19  1  0
  7 21  2  0
  8 18  1  0
  9 18  1  0
 10 11  1  0
 10 12  1  0
 11 13  1  0
 14 15  1  0
 15 17  2  0
 16 19  1  0
 19 20  2  0
M  END
>  <DRUGBANK_ID>  (1) 
DB07499

>  <COMMON_NAME>  (1) 
N-(4-{[amino(imino)methyl]amino}butyl)-2,4'-bi-1,3-thiazole-4-carboxamide

$$$$
