
     RDKit          2D

 27 29  0  0  0  0  0  0  0  0999 V2000
    4.8946    2.0009    0.0000 C   0  0  0  0  0  0  0  0  0  0  0  0
    5.6091    0.7634    0.0000 C   0  0  0  0  0  0  0  0  0  0  0  0
    3.4656    4.4759    0.0000 C   0  0  0  0  0  0  0  0  0  0  0  0
    2.3129   -3.3335    0.0000 C   0  0  0  0  0  0  0  0  0  0  0  0
    3.1333   -3.4197    0.0000 C   0  0  0  0  0  0  0  0  0  0  0  0
    1.9773   -2.5798    0.0000 C   0  0  0  0  0  0  0  0  0  0  0  0
    3.6183   -2.7523    0.0000 C   0  0  0  0  0  0  0  0  0  0  0  0
    2.4622   -1.9124    0.0000 C   0  0  0  0  0  0  0  0  0  0  0  0
    2.7512    3.2384    0.0000 C   0  0  0  0  0  0  0  0  0  0  0  0
    4.1801    3.2384    0.0000 C   0  0  0  0  0  0  0  0  0  0  0  0
    2.7512    2.4134    0.0000 C   0  0  0  0  0  0  0  0  0  0  0  0
    4.1801    2.4134    0.0000 C   0  0  0  0  0  0  0  0  0  0  0  0
    3.5127   -0.5465    0.0000 C   0  0  0  0  0  0  0  0  0  0  0  0
    4.8946    1.1759    0.0000 C   0  0  0  0  0  0  0  0  0  0  0  0
    3.4656    3.6509    0.0000 C   0  0  0  0  0  0  0  0  0  0  0  0
    3.2827   -1.9986    0.0000 C   0  0  0  0  0  0  0  0  0  0  0  0
    3.4656    2.0009    0.0000 C   0  0  0  0  0  0  0  0  0  0  0  0
    4.1801   -0.0616    0.0000 C   0  0  0  0  0  0  0  0  0  0  0  0
    3.7676   -1.3312    0.0000 C   0  0  0  0  0  0  0  0  0  0  0  0
    4.8476   -0.5465    0.0000 C   0  0  0  0  0  0  0  0  0  0  0  0
    3.4656    1.1759    0.0000 C   0  0  0  0  0  0  0  0  0  0  0  0
    5.6322   -0.2916    0.0000 C   0  0  0  0  0  0  0  0  0  0  0  0
    4.1801    0.7634    0.0000 N   0  0  0  0  0  0  0  0  0  0  0  0
    2.7512    0.7634    0.0000 O   0  0  0  0  0  0  0  0  0  0  0  0
    6.2453   -0.8436    0.0000 O   0  0  0  0  0  0  0  0  0  0  0  0
    5.8037    0.5154    0.0000 O   0  0  0  0  0  0  0  0  0  0  0  0
    4.5926   -1.3312    0.0000 S   0  0  0  0  0  0  0  0  0  0  0  0
  5  4  2  0
  6  4  1  0
  7  5  1  0
  8  6  2  0
 11  9  1  0
 12 10  1  0
 14  1  1  0
 14  2  1  0
 15  3  1  6
 15  9  1  0
 15 10  1  0
 16  7  2  0
 16  8  1  0
 17 11  1  0
 17 12  1  0
 17 21  1  1
 18 13  1  0
 19 13  2  0
 19 16  1  0
 20 18  2  0
 22 20  1  0
 23 14  1  0
 23 18  1  0
 23 21  1  0
 24 21  2  0
 25 22  1  0
 26 22  2  0
 27 19  1  0
 27 20  1  0
M  END
>  <DRUGBANK_ID>  (1) 
DB08279

>  <COMMON_NAME>  (1) 
3-{ISOPROPYL[(TRANS-4-METHYLCYCLOHEXYL)CARBONYL]AMINO}-5-PHENYLTHIOPHENE-2-CARBOXYLIC ACID

$$$$
