D5G
     RDKit          2D

 24 25  0  0  0  0  0  0  0  0999 V2000
   -3.0264   -0.7449    0.0000 C   0  0  0  0  0  0  0  0  0  0  0  0
   -3.7409   -1.1574    0.0000 C   0  0  0  0  0  0  0  0  0  0  0  0
   -4.4554   -0.7449    0.0000 C   0  0  0  0  0  0  0  0  0  0  0  0
   -4.4554    0.0801    0.0000 C   0  0  0  0  0  0  0  0  0  0  0  0
   -3.7409    0.4926    0.0000 C   0  0  0  0  0  0  0  0  0  0  0  0
   -3.0264    0.0801    0.0000 C   0  0  0  0  0  0  0  0  0  0  0  0
   -2.3120    0.4926    0.0000 N   0  0  0  0  0  0  0  0  0  0  0  0
   -1.5975    0.0801    0.0000 C   0  0  0  0  0  0  0  0  0  0  0  0
   -1.5975   -0.7449    0.0000 S   0  0  0  0  0  0  0  0  0  0  0  0
   -0.8830    0.4926    0.0000 N   0  0  0  0  0  0  0  0  0  0  0  0
   -0.1685    0.0801    0.0000 C   0  0  0  0  0  0  0  0  0  0  0  0
   -0.1685   -0.7449    0.0000 C   0  0  0  0  0  0  0  0  0  0  0  0
    0.5459   -1.1574    0.0000 C   0  0  0  0  0  0  0  0  0  0  0  0
    1.2604   -0.7449    0.0000 C   0  0  0  0  0  0  0  0  0  0  0  0
    0.5459   -1.9824    0.0000 C   0  0  0  0  0  0  0  0  0  0  0  0
    0.5459    0.4926    0.0000 C   0  0  0  0  0  0  0  0  0  0  0  0
    0.5459    1.3176    0.0000 O   0  0  0  0  0  0  0  0  0  0  0  0
    1.2604    0.0801    0.0000 N   0  0  0  0  0  0  0  0  0  0  0  0
    1.9749    0.4926    0.0000 C   0  0  0  0  0  0  0  0  0  0  0  0
    2.0611    1.3131    0.0000 C   0  0  0  0  0  0  0  0  0  0  0  0
    2.8681    1.4846    0.0000 O   0  0  0  0  0  0  0  0  0  0  0  0
    2.7285    0.1570    0.0000 C   0  0  0  0  0  0  0  0  0  0  0  0
    3.2806    0.7701    0.0000 C   0  0  0  0  0  0  0  0  0  0  0  0
    4.1011    0.6839    0.0000 O   0  0  0  0  0  0  0  0  0  0  0  0
  1  2  2  0
  1  6  1  0
  2  3  1  0
  3  4  2  0
  4  5  1  0
  5  6  2  0
  6  7  1  0
  7  8  1  0
  8  9  2  0
  8 10  1  0
 11 10  1  0
 11 12  1  6
 11 16  1  0
 12 13  1  0
 13 14  1  0
 13 15  1  0
 16 17  2  0
 16 18  1  0
 19 18  1  6
 19 20  1  0
 19 22  1  0
 20 21  1  0
 21 23  1  0
 22 23  1  0
 23 24  1  6
M  END
>  <DRUGBANK_ID>  (1) 
DB07627

>  <COMMON_NAME>  (1) 
(2S)-4-METHYL-2-(3-PHENYLTHIOUREIDO)-N-((3S)-TETRAHYDRO-2-HYDROXY-3-FURANYL)PENTANAMIDE

$$$$
