
     RDKit          2D

 31 34  0  0  1  0  0  0  0  0999 V2000
    3.4051   -3.0417    0.0000 O   0  0  0  0  0  0  0  0  0  0  0  0
    2.9679   -3.7413    0.0000 C   0  0  0  0  0  0  0  0  0  0  0  0
    3.3552   -4.4697    0.0000 C   0  0  0  0  0  0  0  0  0  0  0  0
    2.9180   -5.1694    0.0000 N   0  0  0  0  0  0  0  0  0  0  0  0
    2.0935   -5.1406    0.0000 C   0  0  0  0  0  0  0  0  0  0  0  0
    1.7062   -4.4121    0.0000 C   0  0  0  0  0  0  0  0  0  0  0  0
    2.1434   -3.7125    0.0000 C   0  0  0  0  0  0  0  0  0  0  0  0
    1.4595   -3.2512    0.0000 O   0  0  0  0  0  0  0  0  0  0  0  0
    2.1434   -2.8875    0.0000 C   0  0  0  0  0  0  0  0  0  0  0  0
    1.4289   -2.4750    0.0000 O   0  0  0  0  0  0  0  0  0  0  0  0
    1.4289   -1.6500    0.0000 C   0  0  0  0  0  0  0  0  0  0  0  0
    0.7145   -1.2375    0.0000 C   0  0  0  0  0  0  0  0  0  0  0  0
    0.7145   -0.4125    0.0000 C   0  0  0  0  0  0  0  0  0  0  0  0
    1.4289    0.0000    0.0000 C   0  0  0  0  0  0  0  0  0  0  0  0
    1.4289    0.8250    0.0000 F   0  0  0  0  0  0  0  0  0  0  0  0
    2.1434   -0.4125    0.0000 C   0  0  0  0  0  0  0  0  0  0  0  0
    2.8579    0.0000    0.0000 N   0  0  0  0  0  0  0  0  0  0  0  0
    3.5724   -0.4125    0.0000 C   0  0  0  0  0  0  0  0  0  0  0  0
    4.2868   -0.0000    0.0000 O   0  0  0  0  0  0  0  0  0  0  0  0
    3.5724   -1.2375    0.0000 C   0  0  0  0  0  0  0  0  0  0  0  0
    2.8579   -1.6500    0.0000 C   0  0  0  0  0  0  0  0  0  0  0  0
    2.1434   -1.2375    0.0000 C   0  0  0  0  0  0  0  0  0  0  0  0
    3.3054   -5.8978    0.0000 C   0  0  0  0  0  0  0  0  0  0  0  0
    4.1299   -5.9266    0.0000 C   0  0  0  0  0  0  0  0  0  0  0  0
    4.5670   -5.2269    0.0000 F   0  0  0  0  0  0  0  0  0  0  0  0
    4.5172   -6.6550    0.0000 C   0  0  0  0  0  0  0  0  0  0  0  0
    4.0800   -7.3547    0.0000 C   0  0  0  0  0  0  0  0  0  0  0  0
    4.4673   -8.0831    0.0000 Cl  0  0  0  0  0  0  0  0  0  0  0  0
    3.2555   -7.3259    0.0000 C   0  0  0  0  0  0  0  0  0  0  0  0
    2.8682   -6.5974    0.0000 C   0  0  0  0  0  0  0  0  0  0  0  0
    2.0437   -6.5686    0.0000 F   0  0  0  0  0  0  0  0  0  0  0  0
  2  1  1  6
  2  3  1  0
  2  7  1  0
  3  4  1  0
  4  5  1  0
  4 23  1  0
  5  6  1  0
  7  6  1  0
  7  8  1  6
  7  9  1  0
  9 10  1  0
 10 11  1  0
 11 12  2  0
 11 22  1  0
 12 13  1  0
 13 14  2  0
 14 15  1  0
 14 16  1  0
 16 17  1  0
 16 22  2  0
 17 18  1  0
 18 19  2  0
 18 20  1  0
 20 21  1  0
 21 22  1  0
 23 24  2  0
 23 30  1  0
 24 25  1  0
 24 26  1  0
 26 27  2  0
 27 28  1  0
 27 29  1  0
 29 30  2  0
 30 31  1  0
M  END
>  <DRUGBANK_ID>  (1) 
DB17770

>  <COMMON_NAME>  (1) 
Quabodepistat

>  <CAS_NUMBER>  (1) 
1883747-71-4

>  <UNII>  (1) 
1PQN78P4S3

>  <SYNONYMS>  (1) 
2(1H)-QUINOLINONE, 5-(((3R,4R)-1-(4-CHLORO-2,6-DIFLUOROPHENYL)-3,4-DIHYDROXY-4-PIPERIDINYL)METHOXY)-8-FLUORO-3,4-DIHYDRO-; 5-(((3r,4r)-1-(4-chloro-2,6-difluorophenyl)-3,4-dihydroxypiperidin-4-yl)methoxy)-8-fluoro-3,4-dihydroquinolin-2(1h)-one; 5-{[(3R,4R)-1-(4-chloro-2,6-difluorophenyl)-3,4-dihydroxypiperidin-4-yl]methoxy}-8-fluoro-3,4-dihydroquinolin-2(1H)-one

$$$$
