
     RDKit          2D

 20 20  0  0  0  0  0  0  0  0999 V2000
   -1.0720   -0.2168    0.0000 N   0  0  0  0  0  0  0  0  0  0  0  0
   -0.3587    0.1960    0.0000 C   0  0  0  0  0  0  0  0  0  0  0  0
   -1.7896    0.1960    0.0000 C   0  0  0  0  0  0  0  0  0  0  0  0
    0.3546   -0.2168    0.0000 C   0  0  0  0  0  0  0  0  0  0  0  0
   -0.3587    1.0220    0.0000 O   0  0  0  0  0  0  0  0  0  0  0  0
    1.0637    0.2043    0.0000 N   0  0  0  0  0  0  0  0  0  0  0  0
   -2.4986   -0.2085    0.0000 C   0  0  0  0  0  0  0  0  0  0  0  0
   -1.7853    1.0303    0.0000 C   0  0  0  0  0  0  0  0  0  0  0  0
   -3.2161    1.0303    0.0000 C   0  0  0  0  0  0  0  0  0  0  0  0
    0.3546   -1.0428    0.0000 C   0  0  0  0  0  0  0  0  0  0  0  0
    1.0553    1.0303    0.0000 C   0  0  0  0  0  0  0  0  0  0  0  0
    1.7812   -0.1960    0.0000 C   0  0  0  0  0  0  0  0  0  0  0  0
   -3.2119    0.1960    0.0000 C   0  0  0  0  0  0  0  0  0  0  0  0
   -2.4986    1.4433    0.0000 C   0  0  0  0  0  0  0  0  0  0  0  0
   -1.0720    1.4350    0.0000 C   0  0  0  0  0  0  0  0  0  0  0  0
   -2.4986   -1.0344    0.0000 C   0  0  0  0  0  0  0  0  0  0  0  0
    2.4945    0.2168    0.0000 C   0  0  0  0  0  0  0  0  0  0  0  0
    1.7687    1.4558    0.0000 C   0  0  0  0  0  0  0  0  0  0  0  0
   -0.3587   -1.4558    0.0000 C   0  0  0  0  0  0  0  0  0  0  0  0
    3.2161   -0.1835    0.0000 C   0  0  0  0  0  0  0  0  0  0  0  0
  2  1  1  0
  3  1  1  0
  4  2  1  0
  5  2  2  0
  6  4  1  0
  7  3  2  0
  8  3  1  0
  9 14  1  0
 10  4  1  0
 11  6  1  0
 12  6  1  0
 13  7  1  0
 13  9  2  0
 14  8  2  0
 15  8  1  0
 16  7  1  0
 17 12  1  0
 18 11  1  0
 19 10  1  0
 20 17  1  0
M  END
>  <DRUGBANK_ID>  (1) 
DB08987

>  <COMMON_NAME>  (1) 
Etidocaine

>  <CAS_NUMBER>  (1) 
36637-18-0

>  <UNII>  (1) 
I6CQM0F31V

>  <SYNONYMS>  (1) 
Etidocaina; Etidocaine; Etidocainum

$$$$
