C4P
     RDKit          2D

 32 34  0  0  0  0  0  0  0  0999 V2000
   -1.9028   -0.3589    0.0000 N   0  0  0  0  0  0  0  0  0  0  0  0
   -2.6173    0.0536    0.0000 C   0  0  0  0  0  0  0  0  0  0  0  0
   -2.6173    0.8786    0.0000 O   0  0  0  0  0  0  0  0  0  0  0  0
   -3.3318   -0.3589    0.0000 N   0  0  0  0  0  0  0  0  0  0  0  0
   -3.3318   -1.1839    0.0000 C   0  0  0  0  0  0  0  0  0  0  0  0
   -4.0463   -1.5964    0.0000 C   0  0  0  0  0  0  0  0  0  0  0  0
   -4.7607   -1.1839    0.0000 O   0  0  0  0  0  0  0  0  0  0  0  0
   -4.7607   -0.3589    0.0000 C   0  0  0  0  0  0  0  0  0  0  0  0
   -4.0463    0.0536    0.0000 C   0  0  0  0  0  0  0  0  0  0  0  0
   -1.1884    0.0536    0.0000 C   0  0  0  0  0  0  0  0  0  0  0  0
   -0.4739   -0.3589    0.0000 C   0  0  0  0  0  0  0  0  0  0  0  0
   -0.4739   -1.1839    0.0000 O   0  0  0  0  0  0  0  0  0  0  0  0
    0.2406    0.0536    0.0000 N   0  0  0  0  0  0  0  0  0  0  0  0
    0.9550   -0.3589    0.0000 C   0  0  0  0  0  0  0  0  0  0  0  0
    0.9550   -1.1839    0.0000 C   0  0  0  0  0  0  0  0  0  0  0  0
    1.6695   -1.5964    0.0000 O   0  0  0  0  0  0  0  0  0  0  0  0
    1.6695    0.0536    0.0000 C   0  0  0  0  0  0  0  0  0  0  0  0
    2.3840   -0.3589    0.0000 S   0  0  0  0  0  0  0  0  0  0  0  0
    3.0985    0.0536    0.0000 C   0  0  0  0  0  0  0  0  0  0  0  0
    3.8129   -0.3589    0.0000 C   0  0  0  0  0  0  0  0  0  0  0  0
    4.5274    0.0536    0.0000 C   0  0  0  0  0  0  0  0  0  0  0  0
    5.2419   -0.3589    0.0000 C   0  0  0  0  0  0  0  0  0  0  0  0
    5.2419   -1.1839    0.0000 C   0  0  0  0  0  0  0  0  0  0  0  0
    4.5274   -1.5964    0.0000 C   0  0  0  0  0  0  0  0  0  0  0  0
    3.8129   -1.1839    0.0000 C   0  0  0  0  0  0  0  0  0  0  0  0
   -1.1884    0.8786    0.0000 C   0  0  0  0  0  0  0  0  0  0  0  0
   -0.4739    1.2911    0.0000 C   0  0  0  0  0  0  0  0  0  0  0  0
   -0.4739    2.1161    0.0000 C   0  0  0  0  0  0  0  0  0  0  0  0
    0.2406    2.5286    0.0000 C   0  0  0  0  0  0  0  0  0  0  0  0
    0.9550    2.1161    0.0000 C   0  0  0  0  0  0  0  0  0  0  0  0
    0.9550    1.2911    0.0000 C   0  0  0  0  0  0  0  0  0  0  0  0
    0.2406    0.8786    0.0000 C   0  0  0  0  0  0  0  0  0  0  0  0
  1  2  1  0
  2  3  2  0
  2  4  1  0
  4  5  1  0
  4  9  1  0
  5  6  1  0
  6  7  1  0
  7  8  1  0
  8  9  1  0
 10  1  1  0
 10 11  1  0
 10 26  1  1
 11 12  2  0
 11 13  1  0
 14 13  1  0
 14 15  1  1
 14 17  1  0
 15 16  2  0
 17 18  1  0
 18 19  1  0
 19 20  1  0
 20 21  2  0
 20 25  1  0
 21 22  1  0
 22 23  2  0
 23 24  1  0
 24 25  2  0
 26 27  1  0
 27 28  2  0
 27 32  1  0
 28 29  1  0
 29 30  2  0
 30 31  1  0
 31 32  2  0
M  END
>  <DRUGBANK_ID>  (1) 
DB03984

>  <SECONDARY_ACCESSION_NUMBERS>  (1) 
EXPT00813

>  <COMMON_NAME>  (1) 
Morpholine-4-Carboxylic Acid [1-(2-Benzylsulfanyl-1-Formyl-Ethylcarbamoyl)-2-Phenyl-Ethyl]-Amide

$$$$
