VZZ
     RDKit          2D

 17 16  0  0  0  0  0  0  0  0999 V2000
   -4.3064    0.3438    0.0000 O   0  0  0  0  0  0  0  0  0  0  0  0
   -3.5919   -0.0687    0.0000 C   0  0  0  0  0  0  0  0  0  0  0  0
   -3.5919   -0.8938    0.0000 O   0  0  0  0  0  0  0  0  0  0  0  0
   -2.8773    0.3438    0.0000 C   0  0  0  0  0  0  0  0  0  0  0  0
   -2.1628   -0.0687    0.0000 C   0  0  0  0  0  0  0  0  0  0  0  0
   -1.4483    0.3438    0.0000 C   0  0  0  0  0  0  0  0  0  0  0  0
   -0.7338   -0.0687    0.0000 C   0  0  0  0  0  0  0  0  0  0  0  0
   -0.0192    0.3438    0.0000 C   0  0  0  0  0  0  0  0  0  0  0  0
    0.6953   -0.0687    0.0000 C   0  0  0  0  0  0  0  0  0  0  0  0
    1.4098    0.3438    0.0000 C   0  0  0  0  0  0  0  0  0  0  0  0
    2.1244   -0.0687    0.0000 C   0  0  0  0  0  0  0  0  0  0  0  0
    2.8389    0.3438    0.0000 C   0  0  0  0  0  0  0  0  0  0  0  0
    3.5534   -0.0687    0.0000 C   0  0  0  0  0  0  0  0  0  0  0  0
    4.2679    0.3438    0.0000 O   0  0  0  0  0  0  0  0  0  0  0  0
    4.9825   -0.0687    0.0000 C   0  0  0  0  0  0  0  0  0  0  0  0
    5.6969    0.3438    0.0000 O   0  0  0  0  0  0  0  0  0  0  0  0
    4.9825   -0.8938    0.0000 S   0  0  0  0  0  0  0  0  0  0  0  0
  1  2  2  0
  2  3  1  0
  2  4  1  0
  4  5  1  0
  5  6  1  0
  6  7  1  0
  7  8  1  0
  8  9  1  0
  9 10  1  0
 10 11  1  0
 11 12  1  0
 12 13  1  0
 13 14  1  0
 14 15  1  0
 15 16  2  0
 15 17  1  0
M  END
>  <DRUGBANK_ID>  (1) 
DB08712

>  <COMMON_NAME>  (1) 
11-[(MERCAPTOCARBONYL)OXY]UNDECANOIC ACID

$$$$
