MA9
     RDKit          2D

 32 35  0  0  0  0  0  0  0  0999 V2000
   -0.9649    2.2553    0.0000 C   0  0  0  0  0  0  0  0  0  0  0  0
   -1.6793    1.8428    0.0000 C   0  0  0  0  0  0  0  0  0  0  0  0
   -1.6793    1.0178    0.0000 C   0  0  0  0  0  0  0  0  0  0  0  0
   -0.9649    0.6053    0.0000 C   0  0  0  0  0  0  0  0  0  0  0  0
    0.4641    0.6053    0.0000 C   0  0  0  0  0  0  0  0  0  0  0  0
    0.4641   -2.6947    0.0000 C   0  0  0  0  0  0  0  0  0  0  0  0
    1.1786   -3.9322    0.0000 C   0  0  0  0  0  0  0  0  0  0  0  0
    1.1786   -5.5822    0.0000 C   0  0  0  0  0  0  0  0  0  0  0  0
    0.4641   -4.3447    0.0000 C   0  0  0  0  0  0  0  0  0  0  0  0
    1.8930   -2.6947    0.0000 C   0  0  0  0  0  0  0  0  0  0  0  0
    1.8930   -1.8697    0.0000 C   0  0  0  0  0  0  0  0  0  0  0  0
   -0.2504   -3.9322    0.0000 F   0  0  0  0  0  0  0  0  0  0  0  0
    0.4641   -5.1697    0.0000 C   0  0  0  0  0  0  0  0  0  0  0  0
    1.1786   -6.4072    0.0000 F   0  0  0  0  0  0  0  0  0  0  0  0
    1.8930   -5.1697    0.0000 C   0  0  0  0  0  0  0  0  0  0  0  0
    2.6075   -5.5822    0.0000 F   0  0  0  0  0  0  0  0  0  0  0  0
    1.8930   -4.3447    0.0000 C   0  0  0  0  0  0  0  0  0  0  0  0
    1.1786   -3.1072    0.0000 C   0  0  0  0  0  0  0  0  0  0  0  0
    0.4641   -1.8697    0.0000 C   0  0  0  0  0  0  0  0  0  0  0  0
    2.6075   -3.1072    0.0000 N   0  0  0  0  0  0  0  0  0  0  0  0
    1.1786   -1.4572    0.0000 N   0  0  0  0  0  0  0  0  0  0  0  0
    1.1786   -0.6322    0.0000 C   0  0  0  0  0  0  0  0  0  0  0  0
    0.4641   -0.2197    0.0000 C   0  0  0  0  0  0  0  0  0  0  0  0
    1.8930   -0.2197    0.0000 N   0  0  0  0  0  0  0  0  0  0  0  0
    1.8930    0.6053    0.0000 C   0  0  0  0  0  0  0  0  0  0  0  0
    1.1786    1.0178    0.0000 N   0  0  0  0  0  0  0  0  0  0  0  0
   -0.2504    1.0178    0.0000 C   0  0  0  0  0  0  0  0  0  0  0  0
   -0.2504    1.8428    0.0000 C   0  0  0  0  0  0  0  0  0  0  0  0
   -0.9649    3.0803    0.0000 S   0  0  0  0  0  0  0  0  0  0  0  0
   -0.9649    3.9053    0.0000 O   0  0  0  0  0  0  0  0  0  0  0  0
   -1.7899    3.0803    0.0000 O   0  0  0  0  0  0  0  0  0  0  0  0
   -0.1399    3.0803    0.0000 C   0  0  0  0  0  0  0  0  0  0  0  0
  1 29  1  0
  1 28  2  0
  1  2  1  0
  2  3  2  0
  3  4  1  0
  4 27  2  0
  5 26  1  0
  5 27  1  0
  5 23  2  0
  6 19  1  0
  6 18  1  0
  7 17  2  0
  7  9  1  0
  8 15  2  0
  8 13  1  0
  8 14  1  0
  9 12  1  0
  9 13  2  0
 10 11  1  0
 10 18  1  0
 10 20  1  6
 11 21  1  0
 15 17  1  0
 15 16  1  0
 18  7  1  1
 19 21  1  0
 21 22  1  0
 22 24  2  0
 22 23  1  0
 24 25  1  0
 25 26  2  0
 27 28  1  0
 29 32  1  0
 29 31  2  0
 29 30  2  0
M  END
>  <DRUGBANK_ID>  (1) 
DB08164

>  <COMMON_NAME>  (1) 
(3R,4R)-1-{6-[3-(METHYLSULFONYL)PHENYL]PYRIMIDIN-4-YL}-4-(2,4,5-TRIFLUOROPHENYL)PIPERIDIN-3-AMINE

$$$$
