ILC
     RDKit          2D

 26 28  0  0  0  0  0  0  0  0999 V2000
    0.7968    3.2287    0.0000 C   0  0  0  0  0  0  0  0  0  0  0  0
    1.5113    2.8162    0.0000 C   0  0  0  0  0  0  0  0  0  0  0  0
    1.5113    1.9912    0.0000 C   0  0  0  0  0  0  0  0  0  0  0  0
    0.7968    1.5787    0.0000 C   0  0  0  0  0  0  0  0  0  0  0  0
    0.7968    0.7537    0.0000 C   0  0  0  0  0  0  0  0  0  0  0  0
    0.0823    1.9912    0.0000 C   0  0  0  0  0  0  0  0  0  0  0  0
    0.0823    2.8162    0.0000 C   0  0  0  0  0  0  0  0  0  0  0  0
    1.5113    0.3412    0.0000 C   0  0  0  0  0  0  0  0  0  0  0  0
    1.5113   -0.4838    0.0000 C   0  0  0  0  0  0  0  0  0  0  0  0
    0.7968   -0.8963    0.0000 C   0  0  0  0  0  0  0  0  0  0  0  0
    0.0823    0.3412    0.0000 C   0  0  0  0  0  0  0  0  0  0  0  0
    0.0823   -2.1338    0.0000 C   0  0  0  0  0  0  0  0  0  0  0  0
    0.0823   -2.9588    0.0000 C   0  0  0  0  0  0  0  0  0  0  0  0
    0.7498   -3.4437    0.0000 C   0  0  0  0  0  0  0  0  0  0  0  0
   -0.5851   -3.4437    0.0000 C   0  0  0  0  0  0  0  0  0  0  0  0
    2.2257    3.2287    0.0000 O   0  0  0  0  0  0  0  0  0  0  0  0
    2.2257    4.0537    0.0000 C   0  0  0  0  0  0  0  0  0  0  0  0
    0.7968   -1.7213    0.0000 N   0  0  0  0  0  0  0  0  0  0  0  0
    0.0823   -0.4838    0.0000 C   0  0  0  0  0  0  0  0  0  0  0  0
   -0.6321   -0.8963    0.0000 F   0  0  0  0  0  0  0  0  0  0  0  0
   -0.6321   -1.7213    0.0000 O   0  0  0  0  0  0  0  0  0  0  0  0
    0.4948   -4.2283    0.0000 C   0  0  0  0  0  0  0  0  0  0  0  0
   -0.3302   -4.2283    0.0000 S   0  0  0  0  0  0  0  0  0  0  0  0
   -1.3697   -3.1888    0.0000 C   0  0  0  0  0  0  0  0  0  0  0  0
   -1.9828   -3.7408    0.0000 O   0  0  0  0  0  0  0  0  0  0  0  0
   -1.5413   -2.3818    0.0000 O   0  0  0  0  0  0  0  0  0  0  0  0
  1  2  2  0
  1  7  1  0
  2  3  1  0
  2 16  1  0
  3  4  2  0
  4  5  1  0
  4  6  1  0
  5  8  2  0
  5 11  1  0
  6  7  2  0
  8  9  1  0
  9 10  2  0
 10 18  1  0
 10 19  1  0
 11 19  2  0
 12 13  1  0
 12 18  1  0
 12 21  2  0
 13 14  1  0
 13 15  2  0
 14 22  2  0
 15 23  1  0
 15 24  1  0
 16 17  1  0
 19 20  1  0
 22 23  1  0
 24 25  2  0
 24 26  1  0
M  END
>  <DRUGBANK_ID>  (1) 
DB07976

>  <COMMON_NAME>  (1) 
3-{[(3-FLUORO-3'-METHOXYBIPHENYL-4-YL)AMINO]CARBONYL}THIOPHENE-2-CARBOXYLIC ACID

$$$$
