
     RDKit          2D

 29 32  0  0  0  0  0  0  0  0999 V2000
   -0.2790   -1.3446    0.0000 C   0  0  0  0  0  0  0  0  0  0  0  0
   -0.2790   -0.5195    0.0000 C   0  0  0  0  0  0  0  0  0  0  0  0
    0.4359   -0.1091    0.0000 C   0  0  0  0  0  0  0  0  0  0  0  0
    0.4359   -1.7592    0.0000 C   0  0  0  0  0  0  0  0  0  0  0  0
    1.1510   -1.3446    0.0000 C   0  0  0  0  0  0  0  0  0  0  0  0
    1.8661   -1.7592    0.0000 C   0  0  0  0  0  0  0  0  0  0  0  0
    2.5812   -1.3446    0.0000 C   0  0  0  0  0  0  0  0  0  0  0  0
    2.5812   -0.5195    0.0000 C   0  0  0  0  0  0  0  0  0  0  0  0
    3.2962   -0.1091    0.0000 C   0  0  0  0  0  0  0  0  0  0  0  0
    4.0792   -0.3610    0.0000 C   0  0  0  0  0  0  0  0  0  0  0  0
    4.5652    0.3054    0.0000 C   0  0  0  0  0  0  0  0  0  0  0  0
    4.0792    0.9721    0.0000 C   0  0  0  0  0  0  0  0  0  0  0  0
    3.2962    0.7159    0.0000 C   0  0  0  0  0  0  0  0  0  0  0  0
    3.2962    1.5410    0.0000 C   0  0  0  0  0  0  0  0  0  0  0  0
    2.5812    1.1305    0.0000 C   0  0  0  0  0  0  0  0  0  0  0  0
    1.8661    0.7159    0.0000 C   0  0  0  0  0  0  0  0  0  0  0  0
    1.8661   -0.1091    0.0000 C   0  0  0  0  0  0  0  0  0  0  0  0
    1.1510   -0.5195    0.0000 C   0  0  0  0  0  0  0  0  0  0  0  0
    1.1510    0.3054    0.0000 C   0  0  0  0  0  0  0  0  0  0  0  0
    4.3353    1.7592    0.0000 O   0  0  0  0  0  0  0  0  0  0  0  0
   -0.9897   -1.7592    0.0000 O   0  0  0  0  0  0  0  0  0  0  0  0
   -1.7048   -1.3446    0.0000 C   0  0  0  0  0  0  0  0  0  0  0  0
   -2.4199   -1.7592    0.0000 C   0  0  0  0  0  0  0  0  0  0  0  0
   -3.1350   -1.3446    0.0000 C   0  0  0  0  0  0  0  0  0  0  0  0
   -3.1350   -0.5195    0.0000 C   0  0  0  0  0  0  0  0  0  0  0  0
   -3.8501   -0.1091    0.0000 C   0  0  0  0  0  0  0  0  0  0  0  0
   -3.8501    0.7159    0.0000 C   0  0  0  0  0  0  0  0  0  0  0  0
   -4.5652    1.1305    0.0000 C   0  0  0  0  0  0  0  0  0  0  0  0
   -1.7048   -0.5195    0.0000 O   0  0  0  0  0  0  0  0  0  0  0  0
  1  2  1  0
  1  4  1  0
  1 21  1  1
  2  3  1  0
  3 18  1  0
  4  5  1  0
  5  6  2  0
  5 18  1  0
  6  7  1  0
  8  7  1  6
  8  9  1  0
  8 17  1  0
  9 10  1  1
  9 13  1  0
 10 11  1  0
 11 12  1  0
 12 13  1  0
 12 20  2  0
 13 14  1  1
 13 15  1  0
 15 16  1  0
 17 16  1  1
 17 18  1  0
 18 19  1  1
 21 22  1  0
 22 23  1  0
 22 29  2  0
 23 24  1  0
 24 25  1  0
 25 26  1  0
 26 27  1  0
 27 28  1  0
M  END
>  <DRUGBANK_ID>  (1) 
DB16625

>  <COMMON_NAME>  (1) 
Prasterone enantate

>  <CAS_NUMBER>  (1) 
23983-43-9

>  <UNII>  (1) 
2W8I1S6T5L

>  <SYNONYMS>  (1) 
Dehydroepiandrosterone enanthate; DHEA enantate; DHEA enanthate; Prasterone enanthate

$$$$
