
     RDKit          2D

 23 25  0  0  0  0  0  0  0  0999 V2000
    1.5886    2.3183    0.0000 S   0  0  0  0  0  0  0  0  0  0  0  0
    0.8063   -2.4366    0.0000 O   0  0  0  0  0  0  0  0  0  0  0  0
    2.3728    2.0621    0.0000 O   0  0  0  0  0  0  0  0  0  0  0  0
    0.8044    2.5747    0.0000 O   0  0  0  0  0  0  0  0  0  0  0  0
   -0.5001   -3.1006    0.0000 N   0  0  0  0  0  0  0  0  0  0  0  0
    0.5634   -0.8184    0.0000 N   0  0  0  0  0  0  0  0  0  0  0  0
    1.8450    3.1025    0.0000 N   0  0  0  0  0  0  0  0  0  0  0  0
   -1.2808   -2.0241    0.0000 C   0  0  0  0  0  0  0  0  0  0  0  0
   -0.5001   -1.7727    0.0000 C   0  0  0  0  0  0  0  0  0  0  0  0
   -1.2808   -2.8492    0.0000 C   0  0  0  0  0  0  0  0  0  0  0  0
   -0.0186   -2.4366    0.0000 C   0  0  0  0  0  0  0  0  0  0  0  0
    1.3323    1.5341    0.0000 C   0  0  0  0  0  0  0  0  0  0  0  0
   -0.2438   -0.9885    0.0000 C   0  0  0  0  0  0  0  0  0  0  0  0
    0.8197   -0.0342    0.0000 C   0  0  0  0  0  0  0  0  0  0  0  0
   -1.9953   -1.6116    0.0000 C   0  0  0  0  0  0  0  0  0  0  0  0
   -1.9953   -3.2617    0.0000 C   0  0  0  0  0  0  0  0  0  0  0  0
    0.5250    1.3640    0.0000 C   0  0  0  0  0  0  0  0  0  0  0  0
    1.8833    0.9201    0.0000 C   0  0  0  0  0  0  0  0  0  0  0  0
    0.2687    0.5798    0.0000 C   0  0  0  0  0  0  0  0  0  0  0  0
    1.6270    0.1359    0.0000 C   0  0  0  0  0  0  0  0  0  0  0  0
   -2.7098   -2.0241    0.0000 C   0  0  0  0  0  0  0  0  0  0  0  0
   -2.7098   -2.8492    0.0000 C   0  0  0  0  0  0  0  0  0  0  0  0
    2.6523    3.2727    0.0000 C   0  0  0  0  0  0  0  0  0  0  0  0
  1  3  2  0
  1  4  2  0
  1  7  1  0
  1 12  1  0
  2 11  2  0
  5 10  1  0
  5 11  1  0
  6 14  1  0
  6 13  1  0
  7 23  1  0
  8  9  1  0
  8 10  2  0
  8 15  1  0
  9 11  1  0
  9 13  2  0
 10 16  1  0
 12 17  2  0
 12 18  1  0
 14 19  2  0
 14 20  1  0
 15 21  2  0
 16 22  2  0
 17 19  1  0
 18 20  2  0
 21 22  1  0
M  END
>  <DRUGBANK_ID>  (1) 
DB08122

>  <COMMON_NAME>  (1) 
N-Methyl-4-{[(2-oxo-1,2-dihydro-3H-indol-3-ylidene)methyl]amino}benzenesulfonamide

$$$$
