DP4
     RDKit          2D

 17 18  0  0  0  0  0  0  0  0999 V2000
    0.1152    2.9870    0.0000 C   0  0  0  0  0  0  0  0  0  0  0  0
    0.8297    2.5745    0.0000 C   0  0  0  0  0  0  0  0  0  0  0  0
    0.8297    1.7495    0.0000 C   0  0  0  0  0  0  0  0  0  0  0  0
    0.1152    1.3370    0.0000 C   0  0  0  0  0  0  0  0  0  0  0  0
   -0.5993    1.7495    0.0000 C   0  0  0  0  0  0  0  0  0  0  0  0
   -0.5993    2.5745    0.0000 C   0  0  0  0  0  0  0  0  0  0  0  0
   -0.7098    0.5120    0.0000 C   0  0  0  0  0  0  0  0  0  0  0  0
    0.9402    0.5120    0.0000 C   0  0  0  0  0  0  0  0  0  0  0  0
    0.1152    0.5120    0.0000 Si  0  0  0  0  0  4  0  0  0  0  0  0
    0.1152   -0.3130    0.0000 C   0  0  0  0  0  0  0  0  0  0  0  0
    0.8297   -0.7255    0.0000 C   0  0  0  0  0  0  0  0  0  0  0  0
    0.8297   -1.5505    0.0000 C   0  0  0  0  0  0  0  0  0  0  0  0
   -0.5993   -1.5505    0.0000 C   0  0  0  0  0  0  0  0  0  0  0  0
   -0.5993   -0.7255    0.0000 C   0  0  0  0  0  0  0  0  0  0  0  0
    0.1152   -1.9630    0.0000 N   0  0  0  0  0  0  0  0  0  0  0  0
    0.5025   -2.6914    0.0000 O   0  0  0  0  0  0  0  0  0  0  0  0
   -0.2721   -2.6914    0.0000 C   0  0  0  0  0  0  0  0  0  0  0  0
  1  2  2  0
  1  6  1  0
  2  3  1  0
  3  4  2  0
  4  5  1  0
  4  9  1  0
  5  6  2  0
  7  9  1  0
  8  9  1  0
 10  9  1  6
 10 11  1  0
 10 14  1  0
 11 12  1  0
 12 15  1  0
 13 14  1  0
 13 15  1  0
 15 16  1  0
 15 17  1  1
M  CHG  2  15   1  16  -1
M  END
>  <DRUGBANK_ID>  (1) 
DB07672

>  <COMMON_NAME>  (1) 
TRANS-2-(DIMETHYLPHENYLSILYL)-PIPERIDINE-N-OXIDE

$$$$
