
     RDKit          2D

 34 38  0  0  1  0  0  0  0  0999 V2000
   -3.8012   -0.2817    0.0000 C   0  0  0  0  0  0  0  0  0  0  0  0
   -3.2491    0.3314    0.0000 O   0  0  0  0  0  0  0  0  0  0  0  0
   -2.4422    0.1599    0.0000 C   0  0  0  0  0  0  0  0  0  0  0  0
   -1.8901    0.7730    0.0000 C   0  0  0  0  0  0  0  0  0  0  0  0
   -1.0832    0.6015    0.0000 O   0  0  0  0  0  0  0  0  0  0  0  0
   -0.5311    1.2146    0.0000 C   0  0  0  0  0  0  0  0  0  0  0  0
    0.2758    1.0430    0.0000 C   0  0  0  0  0  0  0  0  0  0  0  0
    0.8279    1.6561    0.0000 C   0  0  0  0  0  0  0  0  0  0  0  0
    0.5729    2.4407    0.0000 C   0  0  0  0  0  0  0  0  0  0  0  0
    1.1250    3.0538    0.0000 C   0  0  0  0  0  0  0  0  0  0  0  0
    1.9319    2.8823    0.0000 C   0  0  0  0  0  0  0  0  0  0  0  0
    2.1869    2.0977    0.0000 N   0  0  0  0  0  0  0  0  0  0  0  0
    2.9938    1.9262    0.0000 C   0  0  0  0  0  0  0  0  0  0  0  0
    3.5459    2.5393    0.0000 C   0  0  0  0  0  0  0  0  0  0  0  0
    3.2488    1.1415    0.0000 C   0  0  0  0  0  0  0  0  0  0  0  0
    2.7639    0.4741    0.0000 N   0  0  0  0  0  0  0  0  0  0  0  0
    3.2488   -0.1933    0.0000 N   0  0  0  0  0  0  0  0  0  0  0  0
    4.0334    0.0616    0.0000 C   0  0  0  0  0  0  0  0  0  0  0  0
    4.0334    0.8866    0.0000 N   0  0  0  0  0  0  0  0  0  0  0  0
    4.7479    1.2991    0.0000 C   0  0  0  0  0  0  0  0  0  0  0  0
    5.4623    0.8866    0.0000 C   0  0  0  0  0  0  0  0  0  0  0  0
    5.4623    0.0616    0.0000 C   0  0  0  0  0  0  0  0  0  0  0  0
    4.7479   -0.3509    0.0000 C   0  0  0  0  0  0  0  0  0  0  0  0
    4.7479   -1.1759    0.0000 F   0  0  0  0  0  0  0  0  0  0  0  0
    6.1768    1.2991    0.0000 C   0  0  0  0  0  0  0  0  0  0  0  0
    6.2631    2.1196    0.0000 C   0  0  0  0  0  0  0  0  0  0  0  0
    7.0700    2.2911    0.0000 N   0  0  0  0  0  0  0  0  0  0  0  0
    7.4056    3.0448    0.0000 C   0  0  0  0  0  0  0  0  0  0  0  0
    7.4825    1.5766    0.0000 N   0  0  0  0  0  0  0  0  0  0  0  0
    6.9305    0.9635    0.0000 C   0  0  0  0  0  0  0  0  0  0  0  0
    1.6348    1.4846    0.0000 C   0  0  0  0  0  0  0  0  0  0  0  0
    1.8898    0.7000    0.0000 O   0  0  0  0  0  0  0  0  0  0  0  0
   -0.2340    2.6123    0.0000 N   0  0  0  0  0  0  0  0  0  0  0  0
   -0.7861    1.9992    0.0000 C   0  0  0  0  0  0  0  0  0  0  0  0
  1  2  1  0
  2  3  1  0
  3  4  1  0
  4  5  1  0
  5  6  1  0
  6  7  2  0
  6 34  1  0
  7  8  1  0
  8  9  2  0
  8 31  1  0
  9 10  1  0
  9 33  1  0
 10 11  2  0
 11 12  1  0
 12 31  1  0
 13 12  1  0
 13 14  1  6
 13 15  1  0
 15 16  2  0
 15 19  1  0
 16 17  1  0
 17 18  2  0
 18 19  1  0
 18 23  1  0
 19 20  1  0
 20 21  2  0
 21 22  1  0
 21 25  1  0
 22 23  2  0
 23 24  1  0
 25 26  2  0
 25 30  1  0
 26 27  1  0
 27 28  1  0
 27 29  1  0
 29 30  2  0
 31 32  2  0
 33 34  2  0
M  END
>  <DRUGBANK_ID>  (1) 
DB15639

>  <COMMON_NAME>  (1) 
AMG-337

>  <CAS_NUMBER>  (1) 
1173699-31-4

>  <UNII>  (1) 
08WG8S0L8D

$$$$
