
     RDKit          2D

 38 40  0  0  1  0  0  0  0  0999 V2000
   -2.1434    3.7125    0.0000 C   0  0  0  0  0  0  0  0  0  0  0  0
   -6.4302    1.2375    0.0000 C   0  0  0  0  0  0  0  0  0  0  0  0
   -6.4302    6.1875    0.0000 C   0  0  0  0  0  0  0  0  0  0  0  0
   -2.8579    3.3000    0.0000 C   0  0  0  0  0  0  0  0  0  0  0  0
   -6.4302    2.0625    0.0000 C   0  0  0  0  0  0  0  0  0  0  0  0
   -7.1447    5.7750    0.0000 C   0  0  0  0  0  0  0  0  0  0  0  0
   -7.8592    6.1875    0.0000 C   0  0  0  0  0  0  0  0  0  0  0  0
   -3.5724    3.7125    0.0000 C   0  0  0  0  0  0  0  0  0  0  0  0
   -7.1447    2.4750    0.0000 C   0  0  0  0  0  0  0  0  0  0  0  0
   -8.5737    5.7750    0.0000 C   0  0  0  0  0  0  0  0  0  0  0  0
   -8.5737    4.9500    0.0000 C   0  0  0  0  0  0  0  0  0  0  0  0
   -4.2868    2.4750    0.0000 C   0  0  0  0  0  0  0  0  0  0  0  0
   -6.4302    3.7125    0.0000 C   0  0  0  0  0  0  0  0  0  0  0  0
   -4.2868    3.3000    0.0000 C   0  0  0  0  0  0  0  0  0  0  0  0
   -7.1447    3.3000    0.0000 C   0  0  0  0  0  0  0  0  0  0  0  0
   -3.5724    2.0625    0.0000 C   0  0  0  0  0  0  0  0  0  0  0  0
   -7.8592    4.5375    0.0000 C   0  0  0  0  0  0  0  0  0  0  0  0
   -5.7158    3.3000    0.0000 C   0  0  0  0  0  0  0  0  0  0  0  0
   -1.4289    3.3000    0.0000 O   0  0  0  0  0  0  0  0  0  0  0  0
   -5.7158    0.8250    0.0000 O   0  0  0  0  0  0  0  0  0  0  0  0
   -7.8592    7.0125    0.0000 O   0  0  0  0  0  0  0  0  0  0  0  0
   -3.5724    4.5375    0.0000 O   0  0  0  0  0  0  0  0  0  0  0  0
   -7.8592    2.0625    0.0000 O   0  0  0  0  0  0  0  0  0  0  0  0
   -9.2881    6.1875    0.0000 O   0  0  0  0  0  0  0  0  0  0  0  0
   -9.2881    4.5375    0.0000 O   0  0  0  0  0  0  0  0  0  0  0  0
   -5.0013    2.0625    0.0000 O   0  0  0  0  0  0  0  0  0  0  0  0
   -6.4302    4.5375    0.0000 O   0  0  0  0  0  0  0  0  0  0  0  0
   -3.5724    1.2375    0.0000 O   0  0  0  0  0  0  0  0  0  0  0  0
   -6.1283    8.1395    0.0000 O   0  0  0  0  0  0  0  0  0  0  0  0
   -5.0013    7.8375    0.0000 O   0  0  0  0  0  0  0  0  0  0  0  0
   -5.3033    6.7105    0.0000 O   0  0  0  0  0  0  0  0  0  0  0  0
   -6.4302    7.0125    0.0000 O   0  0  0  0  0  0  0  0  0  0  0  0
   -2.8579    2.4750    0.0000 O   0  0  0  0  0  0  0  0  0  0  0  0
   -5.7158    2.4750    0.0000 O   0  0  0  0  0  0  0  0  0  0  0  0
   -7.1447    4.9500    0.0000 O   0  0  0  0  0  0  0  0  0  0  0  0
   -5.0013    3.7125    0.0000 O   0  0  0  0  0  0  0  0  0  0  0  0
   -7.8592    3.7125    0.0000 O   0  0  0  0  0  0  0  0  0  0  0  0
   -5.7158    7.4250    0.0000 P   0  0  0  0  0  0  0  0  0  0  0  0
  4  1  1  1
  5  2  1  6
  6  3  1  1
  7  6  1  0
  7 21  1  6
  8  4  1  0
  8 22  1  6
  9  5  1  0
  9 23  1  1
 10  7  1  0
 10 24  1  1
 11 10  1  0
 11 25  1  1
 12 26  1  1
 13 27  1  6
 14  8  1  0
 14 12  1  0
 14 36  1  1
 15  9  1  0
 15 13  1  0
 15 37  1  6
 16 12  1  0
 16 28  1  6
 17 11  1  0
 17 37  1  6
 18 13  1  0
 18 36  1  1
 19  1  1  0
 20  2  1  0
 32  3  1  0
 33  4  1  0
 33 16  1  0
 34  5  1  0
 34 18  1  0
 35  6  1  0
 35 17  1  0
 38 29  1  0
 38 30  1  0
 38 31  2  0
 38 32  1  0
M  END
>  <DRUGBANK_ID>  (1) 
DB02755

>  <SECONDARY_ACCESSION_NUMBERS>  (1) 
EXPT02479

>  <COMMON_NAME>  (1) 
1-3 Sugar Ring of Pentamannosyl 6-Phosphate

$$$$
