ZZA
     RDKit          2D

 14 15  0  0  0  0  0  0  0  0999 V2000
    3.7313   10.8614    0.0000 O   0  0  0  0  0  0  0  0  0  0  0  0
    3.0169   10.4489    0.0000 C   0  0  0  0  0  0  0  0  0  0  0  0
    2.3024   10.8614    0.0000 O   0  0  0  0  0  0  0  0  0  0  0  0
    3.0169    9.6239    0.0000 C   0  0  0  0  0  0  0  0  0  0  0  0
    3.6843    9.1390    0.0000 C   0  0  0  0  0  0  0  0  0  0  0  0
    3.4294    8.3544    0.0000 N   0  0  0  0  0  0  0  0  0  0  0  0
    2.6044    8.3544    0.0000 N   0  0  0  0  0  0  0  0  0  0  0  0
    2.3494    9.1390    0.0000 C   0  0  0  0  0  0  0  0  0  0  0  0
    2.1195    7.6870    0.0000 C   0  0  0  0  0  0  0  0  0  0  0  0
    2.4550    6.9333    0.0000 C   0  0  0  0  0  0  0  0  0  0  0  0
    1.9701    6.2658    0.0000 C   0  0  0  0  0  0  0  0  0  0  0  0
    1.1496    6.3521    0.0000 C   0  0  0  0  0  0  0  0  0  0  0  0
    0.8140    7.1057    0.0000 C   0  0  0  0  0  0  0  0  0  0  0  0
    1.2990    7.7732    0.0000 C   0  0  0  0  0  0  0  0  0  0  0  0
  1  2  1  0
  2  3  2  0
  2  4  1  0
  4  5  1  0
  4  8  2  0
  5  6  2  0
  6  7  1  0
  7  8  1  0
  7  9  1  0
  9 10  2  0
  9 14  1  0
 10 11  1  0
 11 12  2  0
 12 13  1  0
 13 14  2  0
M  END
>  <DRUGBANK_ID>  (1) 
DB08790

>  <COMMON_NAME>  (1) 
1-PHENYL-1H-PYRAZOLE-4-CARBOXYLIC ACID

$$$$
