FFB
     RDKit          2D

 25 26  0  0  0  0  0  0  0  0999 V2000
    0.6521   -0.6103    0.0000 C   0  0  0  0  0  0  0  0  0  0  0  0
    1.3665   -1.0228    0.0000 C   0  0  0  0  0  0  0  0  0  0  0  0
    1.3665   -1.8478    0.0000 C   0  0  0  0  0  0  0  0  0  0  0  0
    0.6521   -2.2603    0.0000 C   0  0  0  0  0  0  0  0  0  0  0  0
   -0.0624   -1.8478    0.0000 C   0  0  0  0  0  0  0  0  0  0  0  0
   -0.0624   -1.0228    0.0000 C   0  0  0  0  0  0  0  0  0  0  0  0
   -0.7769   -0.6103    0.0000 C   0  0  0  0  0  0  0  0  0  0  0  0
   -1.4913   -1.0228    0.0000 O   0  0  0  0  0  0  0  0  0  0  0  0
   -0.7769    0.2147    0.0000 N   0  0  0  0  0  0  0  0  0  0  0  0
   -1.4913    0.6272    0.0000 C   0  0  0  0  0  0  0  0  0  0  0  0
    2.0810   -2.2603    0.0000 S   0  0  0  0  0  0  0  0  0  0  0  0
    2.7955   -2.6728    0.0000 N   0  0  0  0  0  0  0  0  0  0  0  0
    2.4935   -1.5459    0.0000 O   0  0  0  0  0  0  0  0  0  0  0  0
    1.6685   -2.9748    0.0000 O   0  0  0  0  0  0  0  0  0  0  0  0
   -1.4913    1.4522    0.0000 C   0  0  0  0  0  0  0  0  0  0  0  0
   -2.2058    1.8647    0.0000 C   0  0  0  0  0  0  0  0  0  0  0  0
   -2.2058    2.6897    0.0000 C   0  0  0  0  0  0  0  0  0  0  0  0
   -1.4913    3.1022    0.0000 C   0  0  0  0  0  0  0  0  0  0  0  0
   -0.7769    2.6897    0.0000 C   0  0  0  0  0  0  0  0  0  0  0  0
   -0.7769    1.8647    0.0000 C   0  0  0  0  0  0  0  0  0  0  0  0
   -2.9203    1.4522    0.0000 F   0  0  0  0  0  0  0  0  0  0  0  0
   -2.9203    3.1022    0.0000 F   0  0  0  0  0  0  0  0  0  0  0  0
   -1.4913    3.9272    0.0000 F   0  0  0  0  0  0  0  0  0  0  0  0
   -0.0624    3.1022    0.0000 F   0  0  0  0  0  0  0  0  0  0  0  0
   -0.0624    1.4522    0.0000 F   0  0  0  0  0  0  0  0  0  0  0  0
  1  2  2  0
  1  6  1  0
  2  3  1  0
  3  4  2  0
  3 11  1  0
  4  5  1  0
  5  6  2  0
  6  7  1  0
  7  8  2  0
  7  9  1  0
  9 10  1  0
 10 15  1  0
 11 12  1  0
 11 13  2  0
 11 14  2  0
 15 16  2  0
 15 20  1  0
 16 17  1  0
 16 21  1  0
 17 18  2  0
 17 22  1  0
 18 19  1  0
 18 23  1  0
 19 20  2  0
 19 24  1  0
 20 25  1  0
M  END
>  <DRUGBANK_ID>  (1) 
DB02610

>  <SECONDARY_ACCESSION_NUMBERS>  (1) 
EXPT01425

>  <COMMON_NAME>  (1) 
N-(2,3,4,5,6-Pentaflouro-Benzyl)-4-Sulfamoyl-Benzamide

$$$$
