
     RDKit          2D

 28 29  0  0  0  0  0  0  0  0999 V2000
   -2.5087   -0.3939    0.0000 O   0  0  0  0  0  0  0  0  0  0  0  0
   -3.4487   -0.3278    0.0000 P   0  0  0  0  0  0  0  0  0  0  0  0
   -3.3963    0.5196    0.0000 O   0  0  0  0  0  0  0  0  0  0  0  0
   -3.5219   -1.1608    0.0000 O   0  0  0  0  0  0  0  0  0  0  0  0
   -4.2878   -0.2676    0.0000 O   0  0  0  0  0  0  0  0  0  0  0  0
   -1.3189   -0.8012    0.0000 O   0  0  0  0  0  0  0  0  0  0  0  0
   -2.0374   -1.2081    0.0000 P   0  0  0  0  0  0  0  0  0  0  0  0
   -1.6372   -1.9422    0.0000 O   0  0  0  0  0  0  0  0  0  0  0  0
   -2.7695   -1.6222    0.0000 O   0  0  0  0  0  0  0  0  0  0  0  0
    0.1333   -1.6170    0.0000 O   0  0  0  0  0  0  0  0  0  0  0  0
   -0.5853   -1.2105    0.0000 P   0  0  0  0  0  0  0  0  0  0  0  0
   -0.1746   -0.4677    0.0000 O   0  0  0  0  0  0  0  0  0  0  0  0
   -1.0085   -1.9318    0.0000 O   0  0  0  0  0  0  0  0  0  0  0  0
    2.1889   -0.9682    0.0000 O   0  0  0  0  0  0  0  0  0  0  0  0
    1.5570   -1.4746    0.0000 C   0  0  0  0  0  0  0  0  0  0  0  0
    2.8939   -1.4342    0.0000 C   0  0  0  0  0  0  0  0  0  0  0  0
    2.6654   -2.2351    0.0000 C   0  0  0  0  0  0  0  0  0  0  0  0
    1.8414   -2.2646    0.0000 C   0  0  0  0  0  0  0  0  0  0  0  0
    0.7811   -1.1942    0.0000 C   0  0  0  0  0  0  0  0  0  0  0  0
    2.9061   -0.1278    0.0000 N   0  0  0  0  0  0  0  0  0  0  0  0
    3.5786    1.0630    0.0000 C   0  0  0  0  0  0  0  0  0  0  0  0
    2.2052    0.2556    0.0000 C   0  0  0  0  0  0  0  0  0  0  0  0
    2.2053    1.0527    0.0000 N   0  0  0  0  0  0  0  0  0  0  0  0
    2.8921    1.4548    0.0000 C   0  0  0  0  0  0  0  0  0  0  0  0
    1.5034   -0.1566    0.0000 O   0  0  0  0  0  0  0  0  0  0  0  0
    2.8645    2.2646    0.0000 O   0  0  0  0  0  0  0  0  0  0  0  0
    3.5960    0.2814    0.0000 C   0  0  0  0  0  0  0  0  0  0  0  0
    4.2878    1.4752    0.0000 C   0  0  0  0  0  0  0  0  0  0  0  0
  1  2  1  0
  2  4  1  0
  2  5  1  0
  2  3  2  0
  6  7  1  0
  7  8  1  0
  7  9  2  0
  7  1  1  0
 10 11  1  0
 11 12  2  0
 11 13  1  0
 11  6  1  0
 14 16  1  0
 15 19  1  1
 15 14  1  0
 16 17  1  0
 16 20  1  1
 17 18  2  0
 18 15  1  0
 19 10  1  0
 20 22  1  0
 20 27  1  0
 21 27  2  0
 21 24  1  0
 21 28  1  0
 22 23  1  0
 22 25  2  0
 23 24  1  0
 24 26  2  0
M  END
>  <DRUGBANK_ID>  (1) 
DB02887

>  <SECONDARY_ACCESSION_NUMBERS>  (1) 
EXPT01098

>  <COMMON_NAME>  (1) 
Stavudine triphosphate

>  <CAS_NUMBER>  (1) 
26194-89-8

>  <UNII>  (1) 
1ZP0VJ751G

>  <SYNONYMS>  (1) 
2',3'-Dideoxy-2',3'-dehydrothymidine 5'-triphosphate; D4TTP

$$$$
