
     RDKit          2D

 17 19  0  0  0  0  0  0  0  0999 V2000
    4.7593   -0.4259    0.0000 S   0  0  0  0  0  0  0  0  0  0  0  0
    2.8876    0.4678    0.0000 N   0  0  0  0  0  0  0  0  0  0  0  0
    3.3001   -0.2467    0.0000 C   0  0  0  0  0  0  0  0  0  0  0  0
    4.0145   -0.6592    0.0000 C   0  0  0  0  0  0  0  0  0  0  0  0
    2.5856   -0.6592    0.0000 C   0  0  0  0  0  0  0  0  0  0  0  0
    4.0145   -1.4842    0.0000 C   0  0  0  0  0  0  0  0  0  0  0  0
    2.5856   -1.4842    0.0000 C   0  0  0  0  0  0  0  0  0  0  0  0
    2.0625    0.4678    0.0000 C   0  0  0  0  0  0  0  0  0  0  0  0
    3.3001    1.1823    0.0000 C   0  0  0  0  0  0  0  0  0  0  0  0
    3.3001   -1.8967    0.0000 C   0  0  0  0  0  0  0  0  0  0  0  0
    4.0753    0.0355    0.0000 C   0  0  0  0  0  0  0  0  0  0  0  0
    1.6500    1.1823    0.0000 C   0  0  0  0  0  0  0  0  0  0  0  0
    2.8876    1.8967    0.0000 C   0  0  0  0  0  0  0  0  0  0  0  0
    2.0625    1.8967    0.0000 C   0  0  0  0  0  0  0  0  0  0  0  0
    4.3027    0.8285    0.0000 C   0  0  0  0  0  0  0  0  0  0  0  0
    5.1272    0.8573    0.0000 C   0  0  0  0  0  0  0  0  0  0  0  0
    5.4094    0.0821    0.0000 C   0  0  0  0  0  0  0  0  0  0  0  0
  1 11  1  0
  1 17  1  0
  2  3  1  0
  2  8  1  0
  2  9  1  0
  3  4  1  0
  3  5  1  0
  3 11  1  0
  4  6  1  0
  5  7  1  0
  6 10  1  0
  7 10  1  0
  8 12  1  0
  9 13  1  0
 11 15  2  0
 12 14  1  0
 13 14  1  0
 15 16  1  0
 16 17  2  0
M  END
>  <DRUGBANK_ID>  (1) 
DB01520

>  <COMMON_NAME>  (1) 
Tenocyclidine

>  <CAS_NUMBER>  (1) 
21500-98-1

>  <UNII>  (1) 
8BQ45Q6VCL

>  <SYNONYMS>  (1) 
1-[1-(thiophen-2-yl)cyclohexyl]piperidine; TCP; Tenociclidina; Tenocyclidine; Tenocyclidinum; Thienyl cyclohexylpiperidine

$$$$
