612
     RDKit          2D

 22 23  0  0  0  0  0  0  0  0999 V2000
    0.6428   -0.5834    0.0000 C   0  0  0  0  0  0  0  0  0  0  0  0
   -0.0717   -0.9959    0.0000 C   0  0  0  0  0  0  0  0  0  0  0  0
   -0.0717   -1.8209    0.0000 C   0  0  0  0  0  0  0  0  0  0  0  0
    0.6428   -2.2334    0.0000 C   0  0  0  0  0  0  0  0  0  0  0  0
    1.3573   -1.8209    0.0000 C   0  0  0  0  0  0  0  0  0  0  0  0
    1.3573   -0.9959    0.0000 C   0  0  0  0  0  0  0  0  0  0  0  0
    0.6428    0.2416    0.0000 S   0  0  0  0  0  0  0  0  0  0  0  0
   -0.0717    0.6541    0.0000 C   0  0  0  0  0  0  0  0  0  0  0  0
   -0.0717    1.4791    0.0000 C   0  0  0  0  0  0  0  0  0  0  0  0
    0.6428    1.8916    0.0000 C   0  0  0  0  0  0  0  0  0  0  0  0
    1.3573    1.4791    0.0000 C   0  0  0  0  0  0  0  0  0  0  0  0
    0.6428    2.7166    0.0000 C   0  0  0  0  0  0  0  0  0  0  0  0
   -0.7861    1.8916    0.0000 C   0  0  0  0  0  0  0  0  0  0  0  0
   -0.7861    2.7166    0.0000 O   0  0  0  0  0  0  0  0  0  0  0  0
   -0.7861    0.2416    0.0000 N   0  0  0  0  0  0  0  0  0  0  0  0
   -1.5006    0.6541    0.0000 C   0  0  0  0  0  0  0  0  0  0  0  0
   -2.2151    0.2416    0.0000 O   0  0  0  0  0  0  0  0  0  0  0  0
   -1.5006    1.4791    0.0000 N   0  0  0  0  0  0  0  0  0  0  0  0
   -0.7861   -0.5834    0.0000 C   0  0  0  0  0  0  0  0  0  0  0  0
   -1.5006   -0.9959    0.0000 O   0  0  0  0  0  0  0  0  0  0  0  0
   -2.2151   -0.5834    0.0000 C   0  0  0  0  0  0  0  0  0  0  0  0
   -2.9295   -0.9959    0.0000 C   0  0  0  0  0  0  0  0  0  0  0  0
  1  6  1  0
  1  2  1  0
  2  3  1  0
  3  4  1  0
  5  4  1  0
  6  5  1  0
  7  1  1  0
  8  7  1  0
  9  8  2  0
  9 10  1  0
 10 12  1  0
 10 11  1  0
 13  9  1  0
 14 13  2  0
 15  8  1  0
 15 19  1  0
 16 15  1  0
 17 16  2  0
 18 13  1  0
 18 16  1  0
 19 20  1  0
 21 20  1  0
 21 22  1  0
M  END
>  <DRUGBANK_ID>  (1) 
DB07184

>  <COMMON_NAME>  (1) 
6-(cyclohexylsulfanyl)-1-(ethoxymethyl)-5-(1-methylethyl)pyrimidine-2,4(1H,3H)-dione

$$$$
