CP8
     RDKit          2D

 26 29  0  0  0  0  0  0  0  0999 V2000
   -1.8244   -1.8572    0.0000 C   0  0  0  0  0  0  0  0  0  0  0  0
   -1.8244   -1.0322    0.0000 C   0  0  0  0  0  0  0  0  0  0  0  0
   -2.6090   -2.1122    0.0000 N   0  0  0  0  0  0  0  0  0  0  0  0
   -1.1099   -2.2697    0.0000 C   0  0  0  0  0  0  0  0  0  0  0  0
   -1.1099   -0.6197    0.0000 C   0  0  0  0  0  0  0  0  0  0  0  0
   -2.6090   -0.7773    0.0000 C   0  0  0  0  0  0  0  0  0  0  0  0
   -3.0940   -1.4447    0.0000 S   0  0  0  0  0  0  0  0  0  0  0  0
   -2.8640   -2.8968    0.0000 C   0  0  0  0  0  0  0  0  0  0  0  0
   -0.3955   -1.8572    0.0000 C   0  0  0  0  0  0  0  0  0  0  0  0
   -0.3955   -1.0322    0.0000 C   0  0  0  0  0  0  0  0  0  0  0  0
   -3.8127   -1.8497    0.0000 O   0  0  0  0  0  0  0  0  0  0  0  0
   -3.8127   -1.0398    0.0000 O   0  0  0  0  0  0  0  0  0  0  0  0
    0.3190   -0.6197    0.0000 C   0  0  0  0  0  0  0  0  0  0  0  0
    0.3190    0.2053    0.0000 C   0  0  0  0  0  0  0  0  0  0  0  0
    1.0335   -1.0322    0.0000 O   0  0  0  0  0  0  0  0  0  0  0  0
    1.0335    0.6178    0.0000 N   0  0  0  0  0  0  0  0  0  0  0  0
    1.7479   -0.6197    0.0000 C   0  0  0  0  0  0  0  0  0  0  0  0
    1.0335    1.4428    0.0000 C   0  0  0  0  0  0  0  0  0  0  0  0
    1.7479    0.2053    0.0000 C   0  0  0  0  0  0  0  0  0  0  0  0
    1.7479    1.8553    0.0000 C   0  0  0  0  0  0  0  0  0  0  0  0
    2.4624    0.6178    0.0000 O   0  0  0  0  0  0  0  0  0  0  0  0
    1.7479    2.6803    0.0000 C   0  0  0  0  0  0  0  0  0  0  0  0
    2.4624    1.4428    0.0000 C   0  0  0  0  0  0  0  0  0  0  0  0
    2.4624    3.0928    0.0000 C   0  0  0  0  0  0  0  0  0  0  0  0
    3.1769    1.8553    0.0000 C   0  0  0  0  0  0  0  0  0  0  0  0
    3.1769    2.6803    0.0000 C   0  0  0  0  0  0  0  0  0  0  0  0
  1  2  2  0
  1  3  1  0
  1  4  1  0
  2  5  1  0
  2  6  1  0
  3  7  1  0
  3  8  1  0
  4  9  2  0
  5 10  2  0
  6  7  1  0
  7 11  2  0
  7 12  2  0
  9 10  1  0
 13 10  1  1
 13 14  1  0
 13 15  1  0
 14 16  1  0
 15 17  1  0
 16 18  1  0
 16 19  1  0
 17 19  1  0
 18 20  1  0
 19 21  2  0
 20 22  2  0
 20 23  1  0
 22 24  1  0
 23 25  2  0
 24 26  2  0
 25 26  1  0
M  END
>  <DRUGBANK_ID>  (1) 
DB02118

>  <SECONDARY_ACCESSION_NUMBERS>  (1) 
EXPT00996

>  <COMMON_NAME>  (1) 
CP-271485

>  <CAS_NUMBER>  (1) 
35580-46-2

>  <SYNONYMS>  (1) 
(6S)-4-Benzyl-6-(1-methyl-2,2-dioxido-1,3-dihydro-2,1-benzothiazol-5-yl)-3-morpholinone

$$$$
