
     RDKit          2D

 41 44  0  0  0  0  0  0  0  0999 V2000
   -1.4150    2.0625    0.0000 O   0  0  0  0  0  0  0  0  0  0  0  0
   -0.7464    4.8800    0.0000 O   0  0  0  0  0  0  0  0  0  0  0  0
   -2.5322    1.1715    0.0000 O   0  0  0  0  0  0  0  0  0  0  0  0
    2.9663    4.1654    0.0000 O   0  0  0  0  0  0  0  0  0  0  0  0
    1.1570   -1.1627    0.0000 O   0  0  0  0  0  0  0  0  0  0  0  0
   -1.2904   -1.5317    0.0000 O   0  0  0  0  0  0  0  0  0  0  0  0
    0.7672   -4.1119    0.0000 O   0  0  0  0  0  0  0  0  0  0  0  0
   -2.7338    4.3778    0.0000 N   0  0  0  0  0  0  0  0  0  0  0  0
   -0.7464    3.4509    0.0000 N   0  0  0  0  0  0  0  0  0  0  0  0
   -1.5715    3.4509    0.0000 C   0  0  0  0  0  0  0  0  0  0  0  0
   -1.9294    2.7075    0.0000 C   0  0  0  0  0  0  0  0  0  0  0  0
   -2.7338    2.5239    0.0000 C   0  0  0  0  0  0  0  0  0  0  0  0
   -1.9294    4.1943    0.0000 C   0  0  0  0  0  0  0  0  0  0  0  0
   -3.3788    3.0383    0.0000 C   0  0  0  0  0  0  0  0  0  0  0  0
   -3.3788    3.8634    0.0000 C   0  0  0  0  0  0  0  0  0  0  0  0
   -0.3339    4.1654    0.0000 C   0  0  0  0  0  0  0  0  0  0  0  0
    0.4911    4.1654    0.0000 C   0  0  0  0  0  0  0  0  0  0  0  0
   -1.7164    1.2944    0.0000 C   0  0  0  0  0  0  0  0  0  0  0  0
    2.1412    2.7364    0.0000 C   0  0  0  0  0  0  0  0  0  0  0  0
    1.7287    3.4509    0.0000 C   0  0  0  0  0  0  0  0  0  0  0  0
    0.9036    3.4509    0.0000 C   0  0  0  0  0  0  0  0  0  0  0  0
    2.9663    2.7364    0.0000 C   0  0  0  0  0  0  0  0  0  0  0  0
    0.9036    4.8800    0.0000 C   0  0  0  0  0  0  0  0  0  0  0  0
   -1.2020    0.6494    0.0000 C   0  0  0  0  0  0  0  0  0  0  0  0
    2.1412    4.1654    0.0000 C   0  0  0  0  0  0  0  0  0  0  0  0
    1.7287    2.0219    0.0000 C   0  0  0  0  0  0  0  0  0  0  0  0
    1.7287    4.8800    0.0000 C   0  0  0  0  0  0  0  0  0  0  0  0
    3.3788    2.0219    0.0000 C   0  0  0  0  0  0  0  0  0  0  0  0
   -0.3862    0.7724    0.0000 C   0  0  0  0  0  0  0  0  0  0  0  0
   -1.5034   -0.1186    0.0000 C   0  0  0  0  0  0  0  0  0  0  0  0
    0.1282    0.1273    0.0000 C   0  0  0  0  0  0  0  0  0  0  0  0
   -0.9890   -0.7636    0.0000 C   0  0  0  0  0  0  0  0  0  0  0  0
   -0.1731   -0.6407    0.0000 C   0  0  0  0  0  0  0  0  0  0  0  0
    0.3412   -1.2857    0.0000 C   0  0  0  0  0  0  0  0  0  0  0  0
    0.0397   -2.0538    0.0000 C   0  0  0  0  0  0  0  0  0  0  0  0
   -0.7760   -2.1767    0.0000 C   0  0  0  0  0  0  0  0  0  0  0  0
    0.5541   -2.6988    0.0000 C   0  0  0  0  0  0  0  0  0  0  0  0
    0.2528   -3.4669    0.0000 C   0  0  0  0  0  0  0  0  0  0  0  0
   -1.0774   -2.9448    0.0000 C   0  0  0  0  0  0  0  0  0  0  0  0
   -0.5631   -3.5898    0.0000 C   0  0  0  0  0  0  0  0  0  0  0  0
    0.4657   -4.8800    0.0000 C   0  0  0  0  0  0  0  0  0  0  0  0
  1 18  1  0
  2 16  2  0
  3 18  2  0
  4 25  1  0
  5 34  2  0
  6 36  1  0
  7 38  1  0
  7 41  1  0
  8 13  1  0
  8 15  1  0
  9 16  1  0
 10  9  1  1
 10 11  1  0
 10 13  1  0
 11  1  1  6
 11 12  1  0
 12 14  1  0
 14 15  1  0
 16 17  1  0
 17 21  1  0
 17 23  2  0
 18 24  1  0
 19 20  1  0
 19 22  1  0
 19 26  1  6
 20 21  2  0
 20 25  1  0
 22 28  1  0
 23 27  1  0
 24 29  2  0
 24 30  1  0
 25 27  2  0
 29 31  1  0
 30 32  2  0
 31 33  2  0
 32 33  1  0
 33 34  1  0
 34 35  1  0
 35 36  2  0
 35 37  1  0
 36 39  1  0
 37 38  2  0
 38 40  1  0
 39 40  2  0
M  END
>  <DRUGBANK_ID>  (1) 
DB02155

>  <SECONDARY_ACCESSION_NUMBERS>  (1) 
EXPT00615

>  <COMMON_NAME>  (1) 
3-[(3-sec-butyl-4-hydroxybenzoyl)amino]azepan-4-yl 4-(2-hydroxy-5-methoxybenzoyl)benzoate

>  <SYNONYMS>  (1) 
Balanol analog 8

$$$$
