NB1
     RDKit          2D

 16 17  0  0  0  0  0  0  0  0999 V2000
    0.3846   -1.1322    0.0000 C   0  0  0  0  0  0  0  0  0  0  0  0
    0.3846   -0.3072    0.0000 C   0  0  0  0  0  0  0  0  0  0  0  0
    1.0991    0.1053    0.0000 C   0  0  0  0  0  0  0  0  0  0  0  0
    1.8135   -0.3072    0.0000 C   0  0  0  0  0  0  0  0  0  0  0  0
    1.8135   -1.1322    0.0000 C   0  0  0  0  0  0  0  0  0  0  0  0
    2.5280   -1.5447    0.0000 C   0  0  0  0  0  0  0  0  0  0  0  0
   -0.8850   -0.7197    0.0000 C   0  0  0  0  0  0  0  0  0  0  0  0
   -1.7100   -0.7197    0.0000 C   0  0  0  0  0  0  0  0  0  0  0  0
   -2.9475   -0.0052    0.0000 C   0  0  0  0  0  0  0  0  0  0  0  0
   -0.4000   -0.0522    0.0000 N   0  0  0  0  0  0  0  0  0  0  0  0
    1.0991    0.9303    0.0000 O   0  0  0  0  0  0  0  0  0  0  0  0
    2.5280    0.1053    0.0000 O   0  0  0  0  0  0  0  0  0  0  0  0
    1.0991   -1.5447    0.0000 O   0  0  0  0  0  0  0  0  0  0  0  0
    3.2425   -1.1322    0.0000 O   0  0  0  0  0  0  0  0  0  0  0  0
   -0.4000   -1.3871    0.0000 S   0  0  0  0  0  0  0  0  0  0  0  0
   -2.1225   -0.0052    0.0000 C   0  0  0  0  0  0  0  0  0  0  0  0
  1  2  1  0
  1 13  1  6
  1 15  1  0
  2  3  1  0
  2 10  1  6
  3  4  1  0
  3 11  1  1
  4  5  1  0
  4 12  1  6
  5  6  1  1
  5 13  1  0
  6 14  1  0
  7  8  1  0
  7 10  2  0
  7 15  1  0
  8 16  1  0
  9 16  1  0
M  END
>  <DRUGBANK_ID>  (1) 
DB08255

>  <COMMON_NAME>  (1) 
(3AR,5R,6S,7R,7AR)-5-(HYDROXYMETHYL)-2-PROPYL-5,6,7,7A-TETRAHYDRO-3AH-PYRANO[3,2-D][1,3]THIAZOLE-6,7-DIOL

$$$$
