
     RDKit          2D

 41 43  0  0  0  0  0  0  0  0999 V2000
   -1.6500    1.6500    0.0000 C   0  0  0  0  0  0  0  0  0  0  0  0
   -1.6500    0.8250    0.0000 C   0  0  0  0  0  0  0  0  0  0  0  0
   -0.9355    0.4125    0.0000 O   0  0  0  0  0  0  0  0  0  0  0  0
   -0.9355   -0.4125    0.0000 C   0  0  0  0  0  0  0  0  0  0  0  0
   -0.2211   -0.8250    0.0000 C   0  0  0  0  0  0  0  0  0  0  0  0
   -0.2211   -1.6500    0.0000 C   0  0  0  0  0  0  0  0  0  0  0  0
   -0.9355   -2.0625    0.0000 C   0  0  0  0  0  0  0  0  0  0  0  0
   -1.6500   -1.6500    0.0000 C   0  0  0  0  0  0  0  0  0  0  0  0
   -2.3645   -2.0625    0.0000 O   0  0  0  0  0  0  0  0  0  0  0  0
   -2.3645   -2.8875    0.0000 C   0  0  0  0  0  0  0  0  0  0  0  0
   -3.0789   -3.3000    0.0000 C   0  0  0  0  0  0  0  0  0  0  0  0
   -1.6500   -0.8250    0.0000 C   0  0  0  0  0  0  0  0  0  0  0  0
   -2.3645   -0.4125    0.0000 O   0  0  0  0  0  0  0  0  0  0  0  0
    0.4934   -2.0625    0.0000 C   0  0  0  0  0  0  0  0  0  0  0  0
    0.0809   -2.7770    0.0000 C   0  0  0  0  0  0  0  0  0  0  0  0
    1.2079   -2.4750    0.0000 C   0  0  0  0  0  0  0  0  0  0  0  0
    1.9224   -2.0625    0.0000 C   0  0  0  0  0  0  0  0  0  0  0  0
    2.6368   -2.4750    0.0000 C   0  0  0  0  0  0  0  0  0  0  0  0
    3.3513   -2.0625    0.0000 O   0  0  0  0  0  0  0  0  0  0  0  0
    4.0658   -2.4750    0.0000 C   0  0  0  0  0  0  0  0  0  0  0  0
    4.7802   -2.0625    0.0000 C   0  0  0  0  0  0  0  0  0  0  0  0
    2.6368   -3.3000    0.0000 C   0  0  0  0  0  0  0  0  0  0  0  0
    3.3513   -3.7125    0.0000 O   0  0  0  0  0  0  0  0  0  0  0  0
    1.9224   -3.7125    0.0000 C   0  0  0  0  0  0  0  0  0  0  0  0
    1.9224   -4.5375    0.0000 O   0  0  0  0  0  0  0  0  0  0  0  0
    2.6368   -4.9500    0.0000 C   0  0  0  0  0  0  0  0  0  0  0  0
    2.6368   -5.7750    0.0000 C   0  0  0  0  0  0  0  0  0  0  0  0
    1.2079   -3.3000    0.0000 C   0  0  0  0  0  0  0  0  0  0  0  0
    0.9059   -1.3480    0.0000 C   0  0  0  0  0  0  0  0  0  0  0  0
    0.4934   -0.6336    0.0000 C   0  0  0  0  0  0  0  0  0  0  0  0
    0.9059    0.0809    0.0000 C   0  0  0  0  0  0  0  0  0  0  0  0
    0.4934    0.7954    0.0000 O   0  0  0  0  0  0  0  0  0  0  0  0
   -0.3316    0.7954    0.0000 C   0  0  0  0  0  0  0  0  0  0  0  0
   -0.7441    1.5099    0.0000 C   0  0  0  0  0  0  0  0  0  0  0  0
    1.7309    0.0809    0.0000 C   0  0  0  0  0  0  0  0  0  0  0  0
    2.1434    0.7954    0.0000 O   0  0  0  0  0  0  0  0  0  0  0  0
    2.1434   -0.6336    0.0000 C   0  0  0  0  0  0  0  0  0  0  0  0
    2.9684   -0.6336    0.0000 O   0  0  0  0  0  0  0  0  0  0  0  0
    3.3809    0.0809    0.0000 C   0  0  0  0  0  0  0  0  0  0  0  0
    4.2059    0.0809    0.0000 C   0  0  0  0  0  0  0  0  0  0  0  0
    1.7309   -1.3480    0.0000 C   0  0  0  0  0  0  0  0  0  0  0  0
  1  2  1  0
  2  3  1  0
  3  4  1  0
  4  5  2  0
  4 12  1  0
  5  6  1  0
  6  7  2  0
  6 14  1  0
  7  8  1  0
  8  9  1  0
  8 12  2  0
  9 10  1  0
 10 11  1  0
 12 13  1  0
 14 15  1  0
 14 16  1  0
 14 29  1  0
 16 17  2  0
 16 28  1  0
 17 18  1  0
 18 19  1  0
 18 22  2  0
 19 20  1  0
 20 21  1  0
 22 23  1  0
 22 24  1  0
 24 25  1  0
 24 28  2  0
 25 26  1  0
 26 27  1  0
 29 30  2  0
 29 41  1  0
 30 31  1  0
 31 32  1  0
 31 35  2  0
 32 33  1  0
 33 34  1  0
 35 36  1  0
 35 37  1  0
 37 38  1  0
 37 41  2  0
 38 39  1  0
 39 40  1  0
M  END
>  <DRUGBANK_ID>  (1) 
DB18058

>  <COMMON_NAME>  (1) 
AGS-499

>  <CAS_NUMBER>  (1) 
1092372-02-5

>  <UNII>  (1) 
UDG33RMP94

>  <SYNONYMS>  (1) 
4,4',4''-(Ethane-1,1,1- triyl)tris(2,6-diethoxyphenol); Phenol, 4,4′,4′′-ethylidynetris[2,6-diethoxy-

$$$$
