
     RDKit          2D

 24 27  0  0  0  0  0  0  0  0999 V2000
    4.5465    1.3336    0.0000 C   0  0  0  0  0  0  0  0  0  0  0  0
    2.0306    1.7357    0.0000 C   0  0  0  0  0  0  0  0  0  0  0  0
    4.5753   -0.8489    0.0000 C   0  0  0  0  0  0  0  0  0  0  0  0
    3.7632   -0.7037    0.0000 C   0  0  0  0  0  0  0  0  0  0  0  0
    2.0195   -0.2889    0.0000 C   0  0  0  0  0  0  0  0  0  0  0  0
    1.3366    0.1740    0.0000 C   0  0  0  0  0  0  0  0  0  0  0  0
    6.1708    1.0432    0.0000 C   0  0  0  0  0  0  0  0  0  0  0  0
    3.7344    1.4788    0.0000 C   0  0  0  0  0  0  0  0  0  0  0  0
    5.3587    1.1884    0.0000 C   0  0  0  0  0  0  0  0  0  0  0  0
    2.9223    1.6240    0.0000 C   0  0  0  0  0  0  0  0  0  0  0  0
    5.9193   -0.3634    0.0000 C   0  0  0  0  0  0  0  0  0  0  0  0
    0.2423    1.5050    0.0000 C   0  0  0  0  0  0  0  0  0  0  0  0
    5.1071   -0.2182    0.0000 C   0  0  0  0  0  0  0  0  0  0  0  0
    6.4511    0.2672    0.0000 C   0  0  0  0  0  0  0  0  0  0  0  0
    3.4829    0.0722    0.0000 C   0  0  0  0  0  0  0  0  0  0  0  0
    2.6708    0.2174    0.0000 C   0  0  0  0  0  0  0  0  0  0  0  0
    4.0147    0.7029    0.0000 C   0  0  0  0  0  0  0  0  0  0  0  0
    1.5659    0.9665    0.0000 C   0  0  0  0  0  0  0  0  0  0  0  0
    1.0596    1.6178    0.0000 C   0  0  0  0  0  0  0  0  0  0  0  0
    4.8268    0.5577    0.0000 C   0  0  0  0  0  0  0  0  0  0  0  0
    2.3905    0.9933    0.0000 C   0  0  0  0  0  0  0  0  0  0  0  0
   -0.2639    2.1563    0.0000 O   0  0  0  0  0  0  0  0  0  0  0  0
    7.2632    0.1220    0.0000 O   0  0  0  0  0  0  0  0  0  0  0  0
    1.3705    2.3820    0.0000 O   0  0  0  0  0  0  0  0  0  0  0  0
  4  3  1  0
  6  5  1  0
  9  7  1  0
 10  8  1  0
 13  3  1  1
 13 11  1  0
 14  7  1  0
 14 11  1  0
 15  4  1  1
 16  5  1  6
 16 15  1  0
 17  8  1  6
 17 15  1  0
 18  6  1  0
 18 19  1  6
 19 12  1  0
 20  1  1  6
 20  9  1  0
 20 13  1  0
 20 17  1  0
 21  2  1  6
 21 10  1  0
 21 16  1  0
 21 18  1  0
 22 12  1  0
 23 14  2  0
 24 19  2  0
M  END
>  <DRUGBANK_ID>  (1) 
DB08956

>  <COMMON_NAME>  (1) 
Hydroxydione

>  <CAS_NUMBER>  (1) 
303-01-5

>  <UNII>  (1) 
B7VFN88375

>  <SYNONYMS>  (1) 
21-hydroxy-5β-pregnane-3,20-dione; 5beta-dihydrodeoxycorticosterone; 5β-dihydrodeoxycorticosterone

$$$$
