
     RDKit          2D

 35 39  0  0  0  0  0  0  0  0999 V2000
    3.9247   -0.5673    0.0000 C   0  0  0  0  0  0  0  0  0  0  0  0
    3.9235   -1.3951    0.0000 C   0  0  0  0  0  0  0  0  0  0  0  0
    4.6388   -1.8083    0.0000 N   0  0  0  0  0  0  0  0  0  0  0  0
    5.3557   -1.3947    0.0000 C   0  0  0  0  0  0  0  0  0  0  0  0
    5.3528   -0.5636    0.0000 N   0  0  0  0  0  0  0  0  0  0  0  0
    4.6370   -0.1542    0.0000 C   0  0  0  0  0  0  0  0  0  0  0  0
    6.0712   -1.8063    0.0000 N   0  0  0  0  0  0  0  0  0  0  0  0
    3.2096   -0.1546    0.0000 C   0  0  0  0  0  0  0  0  0  0  0  0
    3.2094    0.6707    0.0000 O   0  0  0  0  0  0  0  0  0  0  0  0
    2.4949   -0.5676    0.0000 N   0  0  0  0  0  0  0  0  0  0  0  0
    1.7799   -0.1550    0.0000 C   0  0  0  0  0  0  0  0  0  0  0  0
    1.0681   -0.5695    0.0000 N   0  0  0  0  0  0  0  0  0  0  0  0
    1.2511    1.8880    0.0000 N   0  0  0  0  0  0  0  0  0  0  0  0
    1.0717    1.0833    0.0000 C   0  0  0  0  0  0  0  0  0  0  0  0
    1.7827    0.6647    0.0000 N   0  0  0  0  0  0  0  0  0  0  0  0
    2.3996    1.2128    0.0000 C   0  0  0  0  0  0  0  0  0  0  0  0
    2.0678    1.9682    0.0000 C   0  0  0  0  0  0  0  0  0  0  0  0
    0.3527   -0.1524    0.0000 C   0  0  0  0  0  0  0  0  0  0  0  0
    0.3584    0.6709    0.0000 C   0  0  0  0  0  0  0  0  0  0  0  0
   -0.3507    1.0858    0.0000 C   0  0  0  0  0  0  0  0  0  0  0  0
   -1.0661    0.6783    0.0000 C   0  0  0  0  0  0  0  0  0  0  0  0
   -1.0678   -0.1481    0.0000 C   0  0  0  0  0  0  0  0  0  0  0  0
   -0.3581   -0.5594    0.0000 C   0  0  0  0  0  0  0  0  0  0  0  0
   -0.3602   -1.3849    0.0000 O   0  0  0  0  0  0  0  0  0  0  0  0
   -0.9519   -1.9682    0.0000 C   0  0  0  0  0  0  0  0  0  0  0  0
   -1.7835   -0.5597    0.0000 O   0  0  0  0  0  0  0  0  0  0  0  0
   -2.4977   -0.1456    0.0000 C   0  0  0  0  0  0  0  0  0  0  0  0
   -3.2133   -0.5571    0.0000 C   0  0  0  0  0  0  0  0  0  0  0  0
   -3.9275   -0.1431    0.0000 C   0  0  0  0  0  0  0  0  0  0  0  0
   -4.6431   -0.5546    0.0000 N   0  0  0  0  0  0  0  0  0  0  0  0
   -5.3520   -0.1380    0.0000 C   0  0  0  0  0  0  0  0  0  0  0  0
   -6.0655   -0.5460    0.0000 C   0  0  0  0  0  0  0  0  0  0  0  0
   -6.0712   -1.3719    0.0000 O   0  0  0  0  0  0  0  0  0  0  0  0
   -5.3572   -1.7881    0.0000 C   0  0  0  0  0  0  0  0  0  0  0  0
   -4.6374   -1.3785    0.0000 C   0  0  0  0  0  0  0  0  0  0  0  0
  1  2  2  0
  1  8  1  0
  2  3  1  0
  3  4  2  0
  4  5  1  0
  4  7  1  0
  5  6  2  0
  6  1  1  0
  8  9  2  0
  8 10  1  0
 10 11  1  0
 11 15  1  0
 11 12  2  0
 13 14  2  0
 14 19  1  0
 14 15  1  0
 15 16  1  0
 16 17  1  0
 17 13  1  0
 18 19  2  0
 18 12  1  0
 19 20  1  0
 20 21  2  0
 21 22  1  0
 22 23  2  0
 22 26  1  0
 23 18  1  0
 23 24  1  0
 24 25  1  0
 26 27  1  0
 27 28  1  0
 28 29  1  0
 29 30  1  0
 30 31  1  0
 30 35  1  0
 31 32  1  0
 32 33  1  0
 33 34  1  0
 34 35  1  0
M  END
>  <DRUGBANK_ID>  (1) 
DB12483

>  <COMMON_NAME>  (1) 
Copanlisib

>  <CAS_NUMBER>  (1) 
1032568-63-0

>  <UNII>  (1) 
WI6V529FZ9

>  <SYNONYMS>  (1) 
2-AMINO-N-(7-METHOXY-8-(3-(MORPHOLIN-4-YL)PROPOXY)-2,3-DIHYDROIMIDAZO(1,2-C)QUINAZOLIN-5-YL(PYRIMIDINE-5-CARBOXAMIDE; 2-AMINO-N-(7-METHOXY-8-(3-MORPHOLIN-4-YLPROPOXY)-2,3-DIHYDROIMIDAZO(1,2-C)QUINAZOLIN-5-YL)PYRIMIDINE-5-CARBOXAMIDE; 5-PYRIMIDINECARBOXAMIDE, 2-AMINO-N-(2,3-DIHYDRO-7-METHOXY-8-(3-(4-MORPHOLINYL)PROPOXY)IMIDAZO(1,2-C)QUINAZOLIN-5-YL)-; Copanlisib

$$$$
