
     RDKit          2D

 30 32  0  0  0  0  0  0  0  0999 V2000
    0.7145   -1.2374    0.0000 C   0  0  0  0  0  0  0  0  0  0  0  0
    0.7145   -2.0624    0.0000 C   0  0  0  0  0  0  0  0  0  0  0  0
    0.0000   -0.8249    0.0000 C   0  0  0  0  0  0  0  0  0  0  0  0
    0.0000   -2.4749    0.0000 C   0  0  0  0  0  0  0  0  0  0  0  0
   -0.7143   -1.2374    0.0000 C   0  0  0  0  0  0  0  0  0  0  0  0
   -0.7143   -2.0624    0.0000 C   0  0  0  0  0  0  0  0  0  0  0  0
   -2.1433   -2.0624    0.0000 C   0  0  0  0  0  0  0  0  0  0  0  0
   -1.4288   -2.4749    0.0000 N   0  0  0  0  0  0  0  0  0  0  0  0
   -2.1433   -1.2374    0.0000 C   0  0  0  0  0  0  0  0  0  0  0  0
   -1.4288   -0.8249    0.0000 C   0  0  0  0  0  0  0  0  0  0  0  0
   -3.5722   -2.0624    0.0000 C   0  0  0  0  0  0  0  0  0  0  0  0
   -2.8577   -2.4749    0.0000 C   0  0  0  0  0  0  0  0  0  0  0  0
   -3.5722   -1.2374    0.0000 C   0  0  0  0  0  0  0  0  0  0  0  0
   -2.8577   -0.8249    0.0000 C   0  0  0  0  0  0  0  0  0  0  0  0
   -1.4289    0.0000    0.0000 N   0  0  0  0  0  0  0  0  0  0  0  0
   -0.7145    0.4125    0.0000 C   0  0  0  0  0  0  0  0  0  0  0  0
   -0.7145    1.2375    0.0000 C   0  0  0  0  0  0  0  0  0  0  0  0
    0.0000    0.0000    0.0000 C   0  0  0  0  0  0  0  0  0  0  0  0
    0.7143    0.4125    0.0000 C   0  0  0  0  0  0  0  0  0  0  0  0
    1.4287    0.0001    0.0000 C   0  0  0  0  0  0  0  0  0  0  0  0
    2.1432    0.4126    0.0000 N   0  0  0  0  0  0  0  0  0  0  0  0
    2.8577    0.0002    0.0000 C   0  0  0  0  0  0  0  0  0  0  0  0
    2.1431    1.2376    0.0000 C   0  0  0  0  0  0  0  0  0  0  0  0
    1.4289   -0.8249    0.0000 O   0  0  0  0  0  0  0  0  0  0  0  0
    2.1434   -1.2374    0.0000 C   0  0  0  0  0  0  0  0  0  0  0  0
   -4.2866   -2.4751    0.0000 Cl  0  0  0  0  0  0  0  0  0  0  0  0
    3.5721    0.4127    0.0000 C   0  0  0  0  0  0  0  0  0  0  0  0
    4.2866    0.0002    0.0000 Cl  0  0  0  0  0  0  0  0  0  0  0  0
    2.8576    1.6501    0.0000 C   0  0  0  0  0  0  0  0  0  0  0  0
    2.8576    2.4751    0.0000 Cl  0  0  0  0  0  0  0  0  0  0  0  0
  1 24  1  0
  1  2  2  0
  3  1  1  0
  4  2  1  0
  5  3  2  0
  5  6  1  0
  6  4  2  0
  7  8  2  0
  8  6  1  0
  9  7  1  0
  9 10  2  0
 10  5  1  0
 11 12  2  0
 12  7  1  0
 13 11  1  0
 13 14  2  0
 14  9  1  0
 15 10  1  0
 16 15  1  0
 17 16  1  0
 18 16  1  0
 19 18  1  0
 20 19  1  0
 21 20  1  0
 22 21  1  0
 23 21  1  0
 25 24  1  0
 26 11  1  0
 27 22  1  0
 27 28  1  0
 29 23  1  0
 29 30  1  0
M  END
>  <DRUGBANK_ID>  (1) 
DB02240

>  <SECONDARY_ACCESSION_NUMBERS>  (1) 
EXPT02733

>  <COMMON_NAME>  (1) 
Quinacrine mustard

>  <CAS_NUMBER>  (1) 
64046-79-3

>  <UNII>  (1) 
8Y3YQP8GW6

$$$$
