ZZ5
     RDKit          2D

 25 27  0  0  0  0  0  0  0  0999 V2000
    2.0152   -0.5382    0.0000 N   0  0  0  0  0  0  0  0  0  0  0  0
    1.3007   -0.9507    0.0000 C   0  0  0  0  0  0  0  0  0  0  0  0
    0.5863   -1.3632    0.0000 C   0  0  0  0  0  0  0  0  0  0  0  0
    0.5863   -2.1882    0.0000 C   0  0  0  0  0  0  0  0  0  0  0  0
    1.3007   -2.6007    0.0000 N   0  0  0  0  0  0  0  0  0  0  0  0
   -0.1282   -2.6007    0.0000 N   0  0  0  0  0  0  0  0  0  0  0  0
   -0.8427   -2.1882    0.0000 C   0  0  0  0  0  0  0  0  0  0  0  0
   -1.6273   -2.4431    0.0000 S   0  0  0  0  0  0  0  0  0  0  0  0
   -2.1122   -1.7757    0.0000 C   0  0  0  0  0  0  0  0  0  0  0  0
   -2.9372   -1.7757    0.0000 C   0  0  0  0  0  0  0  0  0  0  0  0
   -3.3497   -2.4901    0.0000 N   0  0  0  0  0  0  0  0  0  0  0  0
   -3.3497   -1.0612    0.0000 O   0  0  0  0  0  0  0  0  0  0  0  0
   -1.6273   -1.1082    0.0000 C   0  0  0  0  0  0  0  0  0  0  0  0
   -1.8822   -0.3236    0.0000 N   0  0  0  0  0  0  0  0  0  0  0  0
   -0.8427   -1.3632    0.0000 C   0  0  0  0  0  0  0  0  0  0  0  0
   -0.1282   -0.9507    0.0000 C   0  0  0  0  0  0  0  0  0  0  0  0
   -0.1282   -0.1257    0.0000 C   0  0  0  0  0  0  0  0  0  0  0  0
   -0.8427    0.2868    0.0000 C   0  0  0  0  0  0  0  0  0  0  0  0
   -0.8427    1.1118    0.0000 C   0  0  0  0  0  0  0  0  0  0  0  0
    0.5863    0.2868    0.0000 C   0  0  0  0  0  0  0  0  0  0  0  0
    0.5863    1.1118    0.0000 C   0  0  0  0  0  0  0  0  0  0  0  0
   -0.1282    1.5243    0.0000 C   0  0  0  0  0  0  0  0  0  0  0  0
   -0.1282    2.3493    0.0000 O   0  0  0  0  0  0  0  0  0  0  0  0
    0.5863    2.7618    0.0000 C   0  0  0  0  0  0  0  0  0  0  0  0
    0.5863    3.5868    0.0000 C   0  0  0  0  0  0  0  0  0  0  0  0
  1  2  3  0
  2  3  1  0
  3  4  2  0
  3 16  1  0
  4  5  1  0
  4  6  1  0
  6  7  2  0
  7  8  1  0
  7 15  1  0
  8  9  1  0
  9 10  1  0
  9 13  2  0
 10 11  1  0
 10 12  2  0
 13 14  1  0
 13 15  1  0
 15 16  2  0
 16 17  1  0
 17 18  2  0
 17 20  1  0
 18 19  1  0
 19 22  2  0
 20 21  2  0
 21 22  1  0
 22 23  1  0
 23 24  1  0
 24 25  1  0
M  END
>  <DRUGBANK_ID>  (1) 
DB08788

>  <COMMON_NAME>  (1) 
3,6-DIAMINO-5-CYANO-4-(4-ETHOXYPHENYL)THIENO[2,3-B]PYRIDINE-2-CARBOXAMIDE

$$$$
