
     RDKit          2D

 20 22  0  0  0  0  0  0  0  0999 V2000
   -1.4331   -0.4998    0.0000 C   0  0  0  0  0  0  0  0  0  0  0  0
   -1.4331   -1.3295    0.0000 C   0  0  0  0  0  0  0  0  0  0  0  0
   -0.6449   -0.2433    0.0000 C   0  0  0  0  0  0  0  0  0  0  0  0
   -2.1535   -0.0886    0.0000 C   0  0  0  0  0  0  0  0  0  0  0  0
   -0.6487   -1.5784    0.0000 N   0  0  0  0  0  0  0  0  0  0  0  0
   -2.1535   -1.7481    0.0000 N   0  0  0  0  0  0  0  0  0  0  0  0
   -0.1658   -0.9183    0.0000 C   0  0  0  0  0  0  0  0  0  0  0  0
   -0.3883    0.5336    0.0000 C   0  0  0  0  0  0  0  0  0  0  0  0
   -2.8664   -0.4998    0.0000 N   0  0  0  0  0  0  0  0  0  0  0  0
   -2.1573    0.7298    0.0000 O   0  0  0  0  0  0  0  0  0  0  0  0
   -2.8664   -1.3295    0.0000 C   0  0  0  0  0  0  0  0  0  0  0  0
    0.5506    0.8429    0.0000 N   0  0  0  0  0  0  0  0  0  0  0  0
   -3.6169   -1.7481    0.0000 N   0  0  0  0  0  0  0  0  0  0  0  0
    1.5124    0.4507    0.0000 C   0  0  0  0  0  0  0  0  0  0  0  0
    2.1724    0.9259    0.0000 C   0  0  0  0  0  0  0  0  0  0  0  0
    1.7613   -0.3337    0.0000 C   0  0  0  0  0  0  0  0  0  0  0  0
    2.8400    0.4507    0.0000 C   0  0  0  0  0  0  0  0  0  0  0  0
    2.1687    1.7481    0.0000 O   0  0  0  0  0  0  0  0  0  0  0  0
    2.5873   -0.3337    0.0000 C   0  0  0  0  0  0  0  0  0  0  0  0
    3.6169    0.7071    0.0000 O   0  0  0  0  0  0  0  0  0  0  0  0
  1  2  2  0
  1  3  1  0
  1  4  1  0
  2  5  1  0
  2  6  1  0
  3  7  2  0
  3  8  1  0
  4  9  1  0
  4 10  2  0
  5  7  1  0
  6 11  2  0
  8 12  1  0
  9 11  1  0
 11 13  1  0
 14 12  1  6
 14 15  1  0
 14 16  1  0
 15 17  1  0
 15 18  1  1
 16 19  2  0
 17 20  1  1
 17 19  1  0
M  END
>  <DRUGBANK_ID>  (1) 
DB14732

>  <COMMON_NAME>  (1) 
Queuine

>  <CAS_NUMBER>  (1) 
72496-59-4

>  <UNII>  (1) 
DAK6EYX2BZ

>  <SYNONYMS>  (1) 
7-(3,4-trans-4,5-cis-dihydroxy-1-cyclopenten-3-ylaminomethyl)-7-deazaguanine; Base Q; Q Base

$$$$
