PB5
     RDKit          2D

 26 28  0  0  0  0  0  0  0  0999 V2000
   -0.2582    0.7521    0.0000 C   0  0  0  0  0  0  0  0  0  0  0  0
    0.4562    0.3396    0.0000 C   0  0  0  0  0  0  0  0  0  0  0  0
    0.4562   -0.4854    0.0000 C   0  0  0  0  0  0  0  0  0  0  0  0
   -0.9727    0.3396    0.0000 N   0  0  0  0  0  0  0  0  0  0  0  0
    1.1707   -0.8979    0.0000 C   0  0  0  0  0  0  0  0  0  0  0  0
    1.8852   -2.1354    0.0000 C   0  0  0  0  0  0  0  0  0  0  0  0
    1.8852   -2.9604    0.0000 C   0  0  0  0  0  0  0  0  0  0  0  0
   -0.2582    1.5771    0.0000 C   0  0  0  0  0  0  0  0  0  0  0  0
   -1.6872    4.0521    0.0000 C   0  0  0  0  0  0  0  0  0  0  0  0
   -3.1161    3.2271    0.0000 C   0  0  0  0  0  0  0  0  0  0  0  0
    2.5996   -3.3729    0.0000 C   0  0  0  0  0  0  0  0  0  0  0  0
    2.5996   -4.1979    0.0000 C   0  0  0  0  0  0  0  0  0  0  0  0
    1.8852   -4.6104    0.0000 C   0  0  0  0  0  0  0  0  0  0  0  0
    1.1707   -3.3729    0.0000 C   0  0  0  0  0  0  0  0  0  0  0  0
   -0.2582   -0.8979    0.0000 N   0  0  0  0  0  0  0  0  0  0  0  0
   -0.9727   -0.4854    0.0000 C   0  0  0  0  0  0  0  0  0  0  0  0
    1.1707   -1.7229    0.0000 N   0  0  0  0  0  0  0  0  0  0  0  0
   -0.9727    1.9896    0.0000 N   0  0  0  0  0  0  0  0  0  0  0  0
   -0.9727    2.8146    0.0000 C   0  0  0  0  0  0  0  0  0  0  0  0
   -1.6872    3.2271    0.0000 C   0  0  0  0  0  0  0  0  0  0  0  0
   -2.4017    4.4646    0.0000 N   0  0  0  0  0  0  0  0  0  0  0  0
   -3.1161    4.0521    0.0000 C   0  0  0  0  0  0  0  0  0  0  0  0
   -2.4017    2.8146    0.0000 C   0  0  0  0  0  0  0  0  0  0  0  0
    1.1707   -4.1979    0.0000 N   0  0  0  0  0  0  0  0  0  0  0  0
    0.4562    1.9896    0.0000 O   0  0  0  0  0  0  0  0  0  0  0  0
    1.8852   -0.4854    0.0000 O   0  0  0  0  0  0  0  0  0  0  0  0
  1  2  2  0
  1  4  1  0
  1  8  1  0
  2  3  1  0
  3  5  1  0
  3 15  2  0
  4 16  2  0
  5 17  1  0
  5 26  2  0
  6  7  1  0
  6 17  1  0
  7 11  2  0
  7 14  1  0
  8 18  1  0
  8 25  2  0
  9 20  2  0
  9 21  1  0
 10 22  1  0
 10 23  2  0
 11 12  1  0
 12 13  2  0
 13 24  1  0
 14 24  2  0
 15 16  1  0
 18 19  1  0
 19 20  1  0
 20 23  1  0
 21 22  2  0
M  END
>  <DRUGBANK_ID>  (1) 
DB04761

>  <COMMON_NAME>  (1) 
PYRIMIDINE-4,6-DICARBOXYLIC ACID BIS-[(PYRIDIN-3-YLMETHYL)-AMIDE]

$$$$
