
     RDKit          2D

 29 33  0  0  1  0  0  0  0  0999 V2000
    0.4776   -1.0747    0.0000 C   0  0  0  0  0  0  0  0  0  0  0  0
   -0.2368   -1.4872    0.0000 N   0  0  0  0  0  0  0  0  0  0  0  0
   -0.9513   -1.0747    0.0000 C   0  0  0  0  0  0  0  0  0  0  0  0
   -1.6658   -1.4872    0.0000 C   0  0  0  0  0  0  0  0  0  0  0  0
   -2.3803   -1.0747    0.0000 C   0  0  0  0  0  0  0  0  0  0  0  0
   -2.3803   -0.2497    0.0000 C   0  0  0  0  0  0  0  0  0  0  0  0
   -3.1339   -0.5853    0.0000 C   0  0  0  0  0  0  0  0  0  0  0  0
   -3.6860    0.0278    0.0000 C   0  0  0  0  0  0  0  0  0  0  0  0
   -3.2735    0.7423    0.0000 C   0  0  0  0  0  0  0  0  0  0  0  0
   -2.4665    0.5707    0.0000 O   0  0  0  0  0  0  0  0  0  0  0  0
   -1.6658    0.1628    0.0000 C   0  0  0  0  0  0  0  0  0  0  0  0
   -0.9513   -0.2497    0.0000 C   0  0  0  0  0  0  0  0  0  0  0  0
   -0.2368    0.1628    0.0000 N   0  0  0  0  0  0  0  0  0  0  0  0
   -0.1506    0.9832    0.0000 C   0  0  0  0  0  0  0  0  0  0  0  0
    0.6564    1.1548    0.0000 C   0  0  0  0  0  0  0  0  0  0  0  0
    1.0689    0.4403    0.0000 C   0  0  0  0  0  0  0  0  0  0  0  0
    0.5168   -0.1728    0.0000 C   0  0  0  0  0  0  0  0  0  0  0  0
   -0.2368   -2.3122    0.0000 C   0  0  0  0  0  0  0  0  0  0  0  0
   -0.9513   -2.7247    0.0000 O   0  0  0  0  0  0  0  0  0  0  0  0
    0.4776   -2.7247    0.0000 C   0  0  0  0  0  0  0  0  0  0  0  0
    0.4776   -3.5497    0.0000 C   0  0  0  0  0  0  0  0  0  0  0  0
    1.1921   -3.9622    0.0000 C   0  0  0  0  0  0  0  0  0  0  0  0
    1.1921   -4.7872    0.0000 C   0  0  0  0  0  0  0  0  0  0  0  0
    0.4776   -5.1997    0.0000 C   0  0  0  0  0  0  0  0  0  0  0  0
   -0.2368   -4.7872    0.0000 C   0  0  0  0  0  0  0  0  0  0  0  0
   -0.2368   -3.9622    0.0000 C   0  0  0  0  0  0  0  0  0  0  0  0
   -1.0215   -3.7073    0.0000 C   0  0  0  0  0  0  0  0  0  0  0  0
   -1.5064   -4.3747    0.0000 C   0  0  0  0  0  0  0  0  0  0  0  0
   -1.0215   -5.0422    0.0000 O   0  0  0  0  0  0  0  0  0  0  0  0
  1  2  1  0
  2 18  1  0
  3  2  1  1
  3  4  1  0
  3 12  1  0
  4  5  1  0
  6  5  1  6
  6  7  1  0
  6 10  1  0
  6 11  1  0
  7  8  1  0
  8  9  1  0
  9 10  1  0
 12 11  1  0
 12 13  1  6
 13 14  1  0
 13 17  1  0
 14 15  1  0
 15 16  1  0
 16 17  1  0
 18 19  2  0
 18 20  1  0
 20 21  1  0
 21 22  2  0
 21 26  1  0
 22 23  1  0
 23 24  2  0
 24 25  1  0
 25 26  2  0
 25 29  1  0
 26 27  1  0
 27 28  2  0
 28 29  1  0
M  END
>  <DRUGBANK_ID>  (1) 
DB16967

>  <COMMON_NAME>  (1) 
Enadoline

>  <CAS_NUMBER>  (1) 
124378-77-4

>  <UNII>  (1) 
KJL283326C

$$$$
