P19
     RDKit          2D

 23 26  0  0  0  0  0  0  0  0999 V2000
   -1.3527   -0.5443    0.0000 N   0  0  0  0  0  0  0  0  0  0  0  0
   -1.8376    0.1231    0.0000 C   0  0  0  0  0  0  0  0  0  0  0  0
   -1.3527    0.7905    0.0000 C   0  0  0  0  0  0  0  0  0  0  0  0
   -0.5681    0.5356    0.0000 C   0  0  0  0  0  0  0  0  0  0  0  0
   -0.5681   -0.2894    0.0000 N   0  0  0  0  0  0  0  0  0  0  0  0
    0.1464    0.9481    0.0000 N   0  0  0  0  0  0  0  0  0  0  0  0
    0.8609    0.5356    0.0000 C   0  0  0  0  0  0  0  0  0  0  0  0
    0.8609   -0.2894    0.0000 N   0  0  0  0  0  0  0  0  0  0  0  0
    0.1464   -0.7019    0.0000 C   0  0  0  0  0  0  0  0  0  0  0  0
    0.1464   -1.5269    0.0000 N   0  0  0  0  0  0  0  0  0  0  0  0
   -0.5681   -1.9394    0.0000 C   0  0  0  0  0  0  0  0  0  0  0  0
   -0.5681   -2.7644    0.0000 C   0  0  0  0  0  0  0  0  0  0  0  0
   -1.2825   -3.1769    0.0000 C   0  0  0  0  0  0  0  0  0  0  0  0
   -1.9970   -2.7644    0.0000 C   0  0  0  0  0  0  0  0  0  0  0  0
   -1.9970   -1.9394    0.0000 C   0  0  0  0  0  0  0  0  0  0  0  0
   -1.2825   -1.5269    0.0000 C   0  0  0  0  0  0  0  0  0  0  0  0
    1.5754    0.9481    0.0000 N   0  0  0  0  0  0  0  0  0  0  0  0
    1.5754    1.7731    0.0000 C   0  0  0  0  0  0  0  0  0  0  0  0
    2.2898    2.1856    0.0000 C   0  0  0  0  0  0  0  0  0  0  0  0
    2.2898    3.0106    0.0000 C   0  0  0  0  0  0  0  0  0  0  0  0
    1.5754    3.4231    0.0000 C   0  0  0  0  0  0  0  0  0  0  0  0
    0.8609    3.0106    0.0000 C   0  0  0  0  0  0  0  0  0  0  0  0
    0.8609    2.1856    0.0000 C   0  0  0  0  0  0  0  0  0  0  0  0
  1  2  2  0
  1  5  1  0
  2  3  1  0
  3  4  2  0
  4  6  1  0
  4  5  1  0
  5  9  1  0
  6  7  2  0
  7 17  1  0
  7  8  1  0
  8  9  2  0
  9 10  1  0
 10 11  1  0
 11 12  2  0
 11 16  1  0
 12 13  1  0
 13 14  2  0
 14 15  1  0
 15 16  2  0
 17 18  1  0
 18 23  1  0
 18 19  2  0
 19 20  1  0
 20 21  2  0
 21 22  1  0
 22 23  2  0
M  END
>  <DRUGBANK_ID>  (1) 
DB08340

>  <COMMON_NAME>  (1) 
N,N'-DIPHENYLPYRAZOLO[1,5-A][1,3,5]TRIAZINE-2,4-DIAMINE

$$$$
