
     RDKit          2D

 29 32  0  0  0  0  0  0  0  0999 V2000
    1.6405   -1.1331    0.0000 N   0  0  0  0  0  0  0  0  0  0  0  0
    1.6405   -0.2902    0.0000 C   0  0  0  0  0  0  0  0  0  0  0  0
    0.8156   -1.1175    0.0000 C   0  0  0  0  0  0  0  0  0  0  0  0
    0.8156   -0.2824    0.0000 C   0  0  0  0  0  0  0  0  0  0  0  0
    2.4316   -1.3674    0.0000 C   0  0  0  0  0  0  0  0  0  0  0  0
    2.4239   -0.0482    0.0000 S   0  0  0  0  0  0  0  0  0  0  0  0
   -0.6595   -0.3058    0.0000 C   0  0  0  0  0  0  0  0  0  0  0  0
    2.8975   -0.7195    0.0000 C   0  0  0  0  0  0  0  0  0  0  0  0
    0.1054    0.1313    0.0000 N   0  0  0  0  0  0  0  0  0  0  0  0
   -1.3934    0.1859    0.0000 C   0  0  0  0  0  0  0  0  0  0  0  0
    2.6893   -2.1638    0.0000 C   0  0  0  0  0  0  0  0  0  0  0  0
   -1.3856    1.0004    0.0000 C   0  0  0  0  0  0  0  0  0  0  0  0
    0.1680   -1.5392    0.0000 O   0  0  0  0  0  0  0  0  0  0  0  0
   -2.1193   -0.2121    0.0000 C   0  0  0  0  0  0  0  0  0  0  0  0
   -0.6673   -1.0134    0.0000 O   0  0  0  0  0  0  0  0  0  0  0  0
    3.4233   -2.1638    0.0000 O   0  0  0  0  0  0  0  0  0  0  0  0
    2.1976   -2.6528    0.0000 O   0  0  0  0  0  0  0  0  0  0  0  0
   -2.1273    1.4272    0.0000 C   0  0  0  0  0  0  0  0  0  0  0  0
   -2.8221    0.1884    0.0000 C   0  0  0  0  0  0  0  0  0  0  0  0
   -2.8170    1.0836    0.0000 C   0  0  0  0  0  0  0  0  0  0  0  0
    3.5325   -0.1576    0.0000 C   0  0  0  0  0  0  0  0  0  0  0  0
    3.5325   -1.2738    0.0000 C   0  0  0  0  0  0  0  0  0  0  0  0
   -2.1116   -1.0629    0.0000 O   0  0  0  0  0  0  0  0  0  0  0  0
   -0.7376    1.4428    0.0000 C   0  0  0  0  0  0  0  0  0  0  0  0
   -2.1350    2.3121    0.0000 C   0  0  0  0  0  0  0  0  0  0  0  0
   -2.8456   -1.4298    0.0000 C   0  0  0  0  0  0  0  0  0  0  0  0
   -0.7376    2.2444    0.0000 C   0  0  0  0  0  0  0  0  0  0  0  0
   -3.5325   -1.1331    0.0000 C   0  0  0  0  0  0  0  0  0  0  0  0
   -1.4558    2.6528    0.0000 C   0  0  0  0  0  0  0  0  0  0  0  0
  2  1  1  0
  2  4  1  0
  3  1  1  0
  4  3  1  0
  4  9  1  1
  5  1  1  0
  5 11  1  6
  2  6  1  1
  6  8  1  0
  7  9  1  0
  8  5  1  0
 10  7  1  0
 12 10  1  0
 13  3  2  0
 14 10  2  0
 15  7  2  0
 16 11  1  0
 17 11  2  0
 18 12  2  0
 18 20  1  0
 19 14  1  0
 20 19  2  0
 21  8  1  0
 22  8  1  0
 23 14  1  0
 24 12  1  0
 25 18  1  0
 25 29  2  0
 26 23  1  0
 27 24  2  0
 28 26  1  0
 29 27  1  0
M  END
>  <DRUGBANK_ID>  (1) 
DB00607

>  <SECONDARY_ACCESSION_NUMBERS>  (1) 
APRD01130; DB08269

>  <COMMON_NAME>  (1) 
Nafcillin

>  <CAS_NUMBER>  (1) 
147-52-4

>  <UNII>  (1) 
4CNZ27M7RV

>  <SYNONYMS>  (1) 
(2-ethoxy-1-naphthalenyl)penicillin; (2-ethoxy-1-naphthyl)penicillin; (2S,5R,6R)-6-[(2-ethoxy-1-naphthoyl)amino]-3,3-dimethyl-7-oxo-4-thia-1-azabicyclo[3.2.0]heptane-2-carboxylic acid; 6-(2-ethoxy-1-naphthamido)penicillanic acid; Nafcilina; Nafcillin; Nafcilline; Nafcillinum; Naphcillin

$$$$
