
     RDKit          2D

 13 14  0  0  0  0  0  0  0  0999 V2000
   -1.1992    0.0333    0.0000 C   0  0  0  0  0  0  0  0  0  0  0  0
   -1.9137   -0.3791    0.0000 C   0  0  0  0  0  0  0  0  0  0  0  0
   -1.9137   -1.2041    0.0000 C   0  0  0  0  0  0  0  0  0  0  0  0
   -1.1992   -1.6165    0.0000 C   0  0  0  0  0  0  0  0  0  0  0  0
   -0.4848   -1.2041    0.0000 C   0  0  0  0  0  0  0  0  0  0  0  0
    0.2997   -1.4589    0.0000 N   0  0  0  0  0  0  0  0  0  0  0  0
    0.7847   -0.7916    0.0000 C   0  0  0  0  0  0  0  0  0  0  0  0
    0.2997   -0.1241    0.0000 C   0  0  0  0  0  0  0  0  0  0  0  0
   -0.4848   -0.3791    0.0000 C   0  0  0  0  0  0  0  0  0  0  0  0
    0.5547    0.6604    0.0000 C   0  0  0  0  0  0  0  0  0  0  0  0
    1.3617    0.8319    0.0000 C   0  0  0  0  0  0  0  0  0  0  0  0
    1.9137    0.2188    0.0000 O   0  0  0  0  0  0  0  0  0  0  0  0
    1.6166    1.6165    0.0000 O   0  0  0  0  0  0  0  0  0  0  0  0
  1  2  2  0
  1  9  1  0
  2  3  1  0
  3  4  2  0
  4  5  1  0
  5  6  1  0
  5  9  2  0
  6  7  1  0
  7  8  2  0
  8  9  1  0
 10  8  1  0
 10 11  1  0
 12 11  2  0
 13 11  1  0
M  END
>  <DRUGBANK_ID>  (1) 
DB07950

>  <COMMON_NAME>  (1) 
Indoleacetic acid

>  <CAS_NUMBER>  (1) 
87-51-4

>  <UNII>  (1) 
6U1S09C61L

>  <SYNONYMS>  (1) 
(Indol-3-yl)acetate; (indol-3-yl)acetic acid; 2-(indol-3-yl)ethanoic acid; 3-Indolylessigs√§ure; heteroauxin; IAA; IES; Indole-3-acetic acid

$$$$
