
     RDKit          2D

 17 17  0  0  0  0  0  0  0  0999 V2000
    0.7146    0.4167    0.0000 C   0  0  0  0  0  0  0  0  0  0  0  0
   -0.7188    0.4167    0.0000 C   0  0  0  0  0  0  0  0  0  0  0  0
   -0.0062    0.8292    0.0000 C   0  0  0  0  0  0  0  0  0  0  0  0
   -0.7188   -0.4167    0.0000 C   0  0  0  0  0  0  0  0  0  0  0  0
    0.7146   -0.4083    0.0000 C   0  0  0  0  0  0  0  0  0  0  0  0
   -0.0062   -0.8209    0.0000 C   0  0  0  0  0  0  0  0  0  0  0  0
    1.4272    0.8334    0.0000 C   0  0  0  0  0  0  0  0  0  0  0  0
   -1.4314   -0.8334    0.0000 S   0  0  0  0  0  0  0  0  0  0  0  0
   -0.0062    1.6460    0.0000 O   0  0  0  0  0  0  0  0  0  0  0  0
    0.0020   -1.6460    0.0000 O   0  0  0  0  0  0  0  0  0  0  0  0
    2.8566    0.8417    0.0000 N   0  0  0  0  0  0  0  0  0  0  0  0
    2.1439    0.4292    0.0000 C   0  0  0  0  0  0  0  0  0  0  0  0
   -2.1439   -0.4209    0.0000 C   0  0  0  0  0  0  0  0  0  0  0  0
    0.7188   -2.0586    0.0000 C   0  0  0  0  0  0  0  0  0  0  0  0
   -0.7188    2.0586    0.0000 C   0  0  0  0  0  0  0  0  0  0  0  0
    2.1439   -0.3958    0.0000 C   0  0  0  0  0  0  0  0  0  0  0  0
   -2.8566   -0.8334    0.0000 C   0  0  0  0  0  0  0  0  0  0  0  0
  2  3  1  0
  2  4  2  0
  3  1  2  0
  4  6  1  0
  5  1  1  0
  6  5  2  0
  7  1  1  0
  8  4  1  0
  9  3  1  0
 10  6  1  0
 11 12  1  0
 12  7  1  0
 13  8  1  0
 14 10  1  0
 15  9  1  0
 16 12  1  0
 17 13  1  0
M  END
>  <DRUGBANK_ID>  (1) 
DB13940

>  <COMMON_NAME>  (1) 
2,5-Dimethoxy-4-ethylthioamphetamine

>  <CAS_NUMBER>  (1) 
185562-00-9

>  <UNII>  (1) 
Z1I419DRZZ

>  <SYNONYMS>  (1) 
2,5-Dimethoxy-4-ethylthioamphetamine; 4-(Ethylthio)-2,5-dimethoxy-alpha-methylbenzeneethanamine; ALEPH-2

$$$$
