
     RDKit          2D

  7  7  0  0  1  0  0  0  0  0999 V2000
    1.4289   -0.0000    0.0000 C   0  0  0  0  0  0  0  0  0  0  0  0
    1.4289    0.8250    0.0000 C   0  0  0  0  0  0  0  0  0  0  0  0
    0.7145   -0.4125    0.0000 C   0  0  0  0  0  0  0  0  0  0  0  0
    0.0000    0.8250    0.0000 C   0  0  0  0  0  0  0  0  0  0  0  0
    0.7145    1.2375    0.0000 C   0  0  0  0  0  0  0  0  0  0  0  0
    0.7145    2.0625    0.0000 N   0  0  0  0  0  0  0  0  0  0  0  0
    0.0000   -0.0000    0.0000 N   0  0  0  0  0  0  0  0  0  0  0  0
  2  1  1  0
  3  1  1  0
  5  2  1  0
  5  4  1  0
  5  6  1  6
  7  3  2  0
  7  4  1  0
M  END
>  <DRUGBANK_ID>  (1) 
DB04504

>  <SECONDARY_ACCESSION_NUMBERS>  (1) 
EXPT03253

>  <COMMON_NAME>  (1) 
(3s)-2,3,4,5-Tetrahydropyridin-3-Amine

$$$$
