
     RDKit          2D

 16 16  0  0  0  0  0  0  0  0999 V2000
    2.4903    0.4125    0.0000 C   0  0  0  0  0  0  0  0  0  0  0  0
    1.7758    0.0000    0.0000 N   0  0  0  0  0  0  0  0  0  0  0  0
   -1.0819    0.0000    0.0000 C   0  0  0  0  0  0  0  0  0  0  0  0
    0.3469    0.0000    0.0000 C   0  0  0  0  0  0  0  0  0  0  0  0
    1.0614    0.4125    0.0000 C   0  0  0  0  0  0  0  0  0  0  0  0
   -0.3675    0.4125    0.0000 C   0  0  0  0  0  0  0  0  0  0  0  0
   -1.7964    0.4125    0.0000 N   0  0  0  0  0  0  0  0  0  0  0  0
   -1.0819   -0.8249    0.0000 C   0  0  0  0  0  0  0  0  0  0  0  0
   -1.7964   -1.2374    0.0000 O   0  0  0  0  0  0  0  0  0  0  0  0
    3.2048    0.0000    0.0000 N   0  0  0  0  0  0  0  0  0  0  0  0
   -0.3675   -1.2374    0.0000 O   0  0  0  0  0  0  0  0  0  0  0  0
    2.4903    1.2375    0.0000 N   0  0  0  0  0  0  0  0  0  0  0  0
   -3.2048   -0.1708    0.0000 O   0  0  0  0  0  0  0  0  0  0  0  0
   -1.7964    1.2375    0.0000 C   0  0  0  0  0  0  0  0  0  0  0  0
   -2.6214    0.4125    0.0000 C   0  0  0  0  0  0  0  0  0  0  0  0
   -2.6214    1.2375    0.0000 C   0  0  0  0  0  0  0  0  0  0  0  0
  1  2  1  0
  2  5  1  0
  3  8  1  0
  3  6  1  1
  3  7  1  0
  4  5  1  0
  6  4  1  0
  7 14  1  0
  9  8  1  0
 10  1  1  0
 11  8  2  0
 12  1  2  0
 13 15  2  0
 15  7  1  0
 16 14  1  0
 16 15  1  0
M  END
>  <DRUGBANK_ID>  (1) 
DB02475

>  <SECONDARY_ACCESSION_NUMBERS>  (1) 
EXPT02527

>  <COMMON_NAME>  (1) 
Deoxyamidinoproclavaminic acid

>  <SYNONYMS>  (1) 
Deoxyamidinoproclavaminate; Deoxyguanidinoproclavaminate; Deoxyguanidinoproclavaminic acid

$$$$
