
     RDKit          2D

 35 38  0  0  0  0  0  0  0  0999 V2000
   -5.7158   11.5500    0.0000 C   0  0  0  0  0  0  0  0  0  0  0  0
   -5.0013   11.1375    0.0000 C   0  0  0  0  0  0  0  0  0  0  0  0
   -4.2868   11.5500    0.0000 C   0  0  0  0  0  0  0  0  0  0  0  0
   -3.5724   11.1375    0.0000 C   0  0  0  0  0  0  0  0  0  0  0  0
   -3.5724   10.3125    0.0000 C   0  0  0  0  0  0  0  0  0  0  0  0
   -4.2868    9.9000    0.0000 C   0  0  0  0  0  0  0  0  0  0  0  0
   -5.0013   10.3125    0.0000 N   0  0  0  0  0  0  0  0  0  0  0  0
   -2.8579    9.9000    0.0000 O   0  0  0  0  0  0  0  0  0  0  0  0
   -2.8579    9.0750    0.0000 C   0  0  0  0  0  0  0  0  0  0  0  0
   -2.1434    8.6625    0.0000 C   0  0  0  0  0  0  0  0  0  0  0  0
   -2.1434    7.8375    0.0000 C   0  0  0  0  0  0  0  0  0  0  0  0
   -2.8579    7.4250    0.0000 C   0  0  0  0  0  0  0  0  0  0  0  0
   -3.5724    7.8375    0.0000 C   0  0  0  0  0  0  0  0  0  0  0  0
   -3.5724    8.6625    0.0000 C   0  0  0  0  0  0  0  0  0  0  0  0
   -4.2868    9.0750    0.0000 C   0  0  0  0  0  0  0  0  0  0  0  0
   -2.8579    6.6000    0.0000 N   0  0  0  0  0  0  0  0  0  0  0  0
   -3.5724    6.1875    0.0000 C   0  0  0  0  0  0  0  0  0  0  0  0
   -3.5724    5.3625    0.0000 C   0  0  0  0  0  0  0  0  0  0  0  0
   -2.8579    4.9500    0.0000 C   0  0  0  0  0  0  0  0  0  0  0  0
   -2.8579    4.1250    0.0000 C   0  0  0  0  0  0  0  0  0  0  0  0
   -3.5724    3.7125    0.0000 C   0  0  0  0  0  0  0  0  0  0  0  0
   -4.2868    4.1250    0.0000 C   0  0  0  0  0  0  0  0  0  0  0  0
   -4.2868    4.9500    0.0000 C   0  0  0  0  0  0  0  0  0  0  0  0
   -5.0013    5.3625    0.0000 N   0  0  0  0  0  0  0  0  0  0  0  0
   -5.0013    6.1875    0.0000 C   0  0  0  0  0  0  0  0  0  0  0  0
   -4.2868    6.6000    0.0000 N   0  0  0  0  0  0  0  0  0  0  0  0
   -2.1434    3.7125    0.0000 C   0  0  0  0  0  0  0  0  0  0  0  0
   -2.1434    2.8875    0.0000 C   0  0  0  0  0  0  0  0  0  0  0  0
   -1.4289    2.4750    0.0000 C   0  0  0  0  0  0  0  0  0  0  0  0
   -0.7145    2.8875    0.0000 N   0  0  0  0  0  0  0  0  0  0  0  0
    0.0000    2.4750    0.0000 C   0  0  0  0  0  0  0  0  0  0  0  0
    0.0000    1.6500    0.0000 O   0  0  0  0  0  0  0  0  0  0  0  0
    0.7145    2.8875    0.0000 C   0  0  0  0  0  0  0  0  0  0  0  0
    1.4289    2.4750    0.0000 O   0  0  0  0  0  0  0  0  0  0  0  0
    2.1434    2.8875    0.0000 C   0  0  0  0  0  0  0  0  0  0  0  0
  1  2  1  0
  2  3  2  0
  2  7  1  0
  3  4  1  0
  4  5  2  0
  5  6  1  0
  5  8  1  0
  6  7  2  0
  8  9  1  0
  9 10  2  0
  9 14  1  0
 10 11  1  0
 11 12  2  0
 12 13  1  0
 12 16  1  0
 13 14  2  0
 14 15  1  0
 16 17  1  0
 17 18  1  0
 17 26  2  0
 18 19  2  0
 18 23  1  0
 19 20  1  0
 20 21  2  0
 20 27  1  0
 21 22  1  0
 22 23  2  0
 23 24  1  0
 24 25  2  0
 25 26  1  0
 27 28  2  0
 28 29  1  0
 29 30  1  0
 30 31  1  0
 31 32  2  0
 31 33  1  0
 33 34  1  0
 34 35  1  0
M  END
>  <DRUGBANK_ID>  (1) 
DB12302

>  <COMMON_NAME>  (1) 
CP-724714

>  <CAS_NUMBER>  (1) 
537705-08-1

>  <UNII>  (1) 
I05QZ0S4V3

$$$$
