794
     RDKit          2D

 25 27  0  0  0  0  0  0  0  0999 V2000
    1.3257    2.1718    0.0000 O   0  0  0  0  0  0  0  0  0  0  0  0
    0.6112    1.7593    0.0000 C   0  0  0  0  0  0  0  0  0  0  0  0
   -0.1033    2.1718    0.0000 O   0  0  0  0  0  0  0  0  0  0  0  0
    0.6112    0.9343    0.0000 C   0  0  0  0  0  0  0  0  0  0  0  0
    1.3257    0.5218    0.0000 O   0  0  0  0  0  0  0  0  0  0  0  0
   -0.1033    0.5218    0.0000 N   0  0  0  0  0  0  0  0  0  0  0  0
   -0.8178    0.9343    0.0000 C   0  0  0  0  0  0  0  0  0  0  0  0
   -0.8178    1.7593    0.0000 C   0  0  0  0  0  0  0  0  0  0  0  0
   -1.5322    2.1718    0.0000 C   0  0  0  0  0  0  0  0  0  0  0  0
   -2.2467    1.7593    0.0000 C   0  0  0  0  0  0  0  0  0  0  0  0
   -2.2467    0.9343    0.0000 C   0  0  0  0  0  0  0  0  0  0  0  0
   -1.5322    0.5218    0.0000 C   0  0  0  0  0  0  0  0  0  0  0  0
   -1.5322   -0.3032    0.0000 C   0  0  0  0  0  0  0  0  0  0  0  0
   -2.2467   -0.7157    0.0000 O   0  0  0  0  0  0  0  0  0  0  0  0
   -1.1967   -1.0569    0.0000 O   0  0  0  0  0  0  0  0  0  0  0  0
   -0.1033   -0.3032    0.0000 C   0  0  0  0  0  0  0  0  0  0  0  0
   -0.8178   -0.7157    0.0000 C   0  0  0  0  0  0  0  0  0  0  0  0
   -0.8178   -1.5407    0.0000 C   0  0  0  0  0  0  0  0  0  0  0  0
   -0.1033   -1.9532    0.0000 C   0  0  0  0  0  0  0  0  0  0  0  0
    0.6112   -1.5407    0.0000 C   0  0  0  0  0  0  0  0  0  0  0  0
    0.6112   -0.7157    0.0000 C   0  0  0  0  0  0  0  0  0  0  0  0
    1.3257   -0.3032    0.0000 C   0  0  0  0  0  0  0  0  0  0  0  0
    2.0401   -0.7157    0.0000 C   0  0  0  0  0  0  0  0  0  0  0  0
    2.0401   -1.5407    0.0000 C   0  0  0  0  0  0  0  0  0  0  0  0
    1.3257   -1.9532    0.0000 C   0  0  0  0  0  0  0  0  0  0  0  0
  1  2  1  0
  2  3  2  0
  2  4  1  0
  4  5  2  0
  4  6  1  0
  6  7  1  0
  6 16  1  0
  7  8  2  0
  7 12  1  0
  8  9  1  0
  9 10  2  0
 10 11  1  0
 11 12  2  0
 12 13  1  0
 13 14  2  0
 13 15  1  0
 16 17  2  0
 16 21  1  0
 17 18  1  0
 18 19  2  0
 19 20  1  0
 20 21  2  0
 20 25  1  0
 21 22  1  0
 22 23  2  0
 23 24  1  0
 24 25  2  0
M  END
>  <DRUGBANK_ID>  (1) 
DB03982

>  <SECONDARY_ACCESSION_NUMBERS>  (1) 
EXPT00306

>  <COMMON_NAME>  (1) 
Compound 5, 2-(Naphthalen-1-Yl-Oxalyl-Amino)-Benzoicacid

$$$$
