
     RDKit          2D

  9  9  0  0  0  0  0  0  0  0999 V2000
   -1.4290    1.0808    0.0000 F   0  0  0  0  0  0  0  0  0  0  0  0
   -1.4290   -0.5692    0.0000 O   0  0  0  0  0  0  0  0  0  0  0  0
    1.4290   -0.5692    0.0000 O   0  0  0  0  0  0  0  0  0  0  0  0
    0.0000   -0.5692    0.0000 N   0  0  0  0  0  0  0  0  0  0  0  0
    0.7146    0.6682    0.0000 N   0  0  0  0  0  0  0  0  0  0  0  0
   -0.7146   -0.1567    0.0000 C   0  0  0  0  0  0  0  0  0  0  0  0
   -0.7146    0.6682    0.0000 C   0  0  0  0  0  0  0  0  0  0  0  0
    0.7146   -0.1567    0.0000 C   0  0  0  0  0  0  0  0  0  0  0  0
    0.0000    1.0808    0.0000 C   0  0  0  0  0  0  0  0  0  0  0  0
  1  7  1  0
  3  8  2  0
  4  6  1  0
  4  8  1  0
  5  8  1  0
  5  9  1  0
  6  2  1  1
  6  7  1  0
  7  9  2  0
M  END
>  <DRUGBANK_ID>  (1) 
DB04135

>  <SECONDARY_ACCESSION_NUMBERS>  (1) 
EXPT01480

>  <COMMON_NAME>  (1) 
(4S)-5-Fluoro-4-hydroxy-3,4-dihydro-2(1H)-pyrimidinone

>  <SYNONYMS>  (1) 
(4S)-5-Fluoro-4-hydroxy-3,4-dihydropyrimidin-2(1H)-one

$$$$
