
     RDKit          2D

 30 33  0  0  0  0  0  0  0  0999 V2000
    3.4851    1.8899    0.0000 N   0  0  0  0  0  0  0  0  0  0  0  0
   -2.1123   -0.4737    0.0000 N   0  0  0  0  0  0  0  0  0  0  0  0
   -2.9050   -0.3866    0.0000 C   0  0  0  0  0  0  0  0  0  0  0  0
    2.6730    1.9044    0.0000 C   0  0  0  0  0  0  0  0  0  0  0  0
    3.7364    1.1503    0.0000 C   0  0  0  0  0  0  0  0  0  0  0  0
   -3.2434   -1.1262    0.0000 O   0  0  0  0  0  0  0  0  0  0  0  0
   -1.9334   -1.2567    0.0000 C   0  0  0  0  0  0  0  0  0  0  0  0
    2.4313    1.1213    0.0000 S   0  0  0  0  0  0  0  0  0  0  0  0
   -2.6294   -1.6772    0.0000 C   0  0  0  0  0  0  0  0  0  0  0  0
    3.0983    0.6718    0.0000 C   0  0  0  0  0  0  0  0  0  0  0  0
    0.1933   -1.7449    0.0000 C   0  0  0  0  0  0  0  0  0  0  0  0
    2.1848    2.5570    0.0000 O   0  0  0  0  0  0  0  0  0  0  0  0
   -3.3110    0.3238    0.0000 C   0  0  0  0  0  0  0  0  0  0  0  0
    4.5291    0.9087    0.0000 O   0  0  0  0  0  0  0  0  0  0  0  0
   -1.2664   -1.7014    0.0000 C   0  0  0  0  0  0  0  0  0  0  0  0
    0.9377   -1.4017    0.0000 C   0  0  0  0  0  0  0  0  0  0  0  0
    3.1128   -0.1546    0.0000 C   0  0  0  0  0  0  0  0  0  0  0  0
   -0.5027   -1.2567    0.0000 C   0  0  0  0  0  0  0  0  0  0  0  0
    0.1933   -2.5570    0.0000 O   0  0  0  0  0  0  0  0  0  0  0  0
    0.9377   -0.5752    0.0000 C   0  0  0  0  0  0  0  0  0  0  0  0
    1.7063   -1.8657    0.0000 C   0  0  0  0  0  0  0  0  0  0  0  0
    2.4119   -0.5752    0.0000 C   0  0  0  0  0  0  0  0  0  0  0  0
    2.4119   -1.4452    0.0000 C   0  0  0  0  0  0  0  0  0  0  0  0
    1.6869   -0.1257    0.0000 C   0  0  0  0  0  0  0  0  0  0  0  0
   -2.7165   -2.4748    0.0000 C   0  0  0  0  0  0  0  0  0  0  0  0
   -2.8663    1.0247    0.0000 C   0  0  0  0  0  0  0  0  0  0  0  0
   -4.1231    0.3238    0.0000 C   0  0  0  0  0  0  0  0  0  0  0  0
   -3.2724    1.7498    0.0000 C   0  0  0  0  0  0  0  0  0  0  0  0
   -4.5291    1.0634    0.0000 C   0  0  0  0  0  0  0  0  0  0  0  0
   -4.0844    1.7594    0.0000 C   0  0  0  0  0  0  0  0  0  0  0  0
  2  7  1  0
  3  2  2  0
  3  6  1  0
  4  1  1  0
  5  1  1  0
  6  9  1  0
  7 15  1  0
  8  4  1  0
  9  7  2  0
 10  5  1  0
 10  8  1  0
 11 16  1  0
 12  4  2  0
 13  3  1  0
 14  5  2  0
 15 18  1  0
 16 20  2  0
 16 21  1  0
 17 10  1  0
 18 11  1  0
 19 11  2  0
 20 24  1  0
 21 23  2  0
 22 17  1  0
 23 22  1  0
 24 22  2  0
 25  9  1  0
 26 13  2  0
 27 13  1  0
 28 26  1  0
 29 27  2  0
 29 30  1  0
 30 28  2  0
M  END
>  <DRUGBANK_ID>  (1) 
DB14034

>  <COMMON_NAME>  (1) 
Darglitazone

>  <CAS_NUMBER>  (1) 
141200-24-0

>  <UNII>  (1) 
AVP9C03Z3K

>  <SYNONYMS>  (1) 
Darglitazone

$$$$
