
     RDKit          2D

 40 41  0  0  0  0  0  0  0  0999 V2000
   -2.1264    1.0459    0.0000 C   0  0  0  0  0  0  0  0  0  0  0  0
   -0.7121    1.0459    0.0000 C   0  0  0  0  0  0  0  0  0  0  0  0
   -2.1264    1.8612    0.0000 C   0  0  0  0  0  0  0  0  0  0  0  0
   -1.4193    0.6433    0.0000 C   0  0  0  0  0  0  0  0  0  0  0  0
   -0.0049    0.6433    0.0000 N   0  0  0  0  0  0  0  0  0  0  0  0
   -0.7121    1.8612    0.0000 C   0  0  0  0  0  0  0  0  0  0  0  0
   -1.4193    2.2737    0.0000 C   0  0  0  0  0  0  0  0  0  0  0  0
    0.7022    1.0459    0.0000 C   0  0  0  0  0  0  0  0  0  0  0  0
    0.0343   -2.6665    0.0000 C   0  0  0  0  0  0  0  0  0  0  0  0
   -0.6824   -3.0693    0.0000 C   0  0  0  0  0  0  0  0  0  0  0  0
    1.4291   -2.6665    0.0000 C   0  0  0  0  0  0  0  0  0  0  0  0
    2.8727   -2.6763    0.0000 C   0  0  0  0  0  0  0  0  0  0  0  0
    1.4291    0.6433    0.0000 C   0  0  0  0  0  0  0  0  0  0  0  0
   -1.4193   -2.6567    0.0000 C   0  0  0  0  0  0  0  0  0  0  0  0
    2.1459   -3.0791    0.0000 O   0  0  0  0  0  0  0  0  0  0  0  0
   -2.8434    0.6433    0.0000 C   0  0  0  0  0  0  0  0  0  0  0  0
   -1.4291   -1.8415    0.0000 C   0  0  0  0  0  0  0  0  0  0  0  0
   -2.1264   -1.4290    0.0000 C   0  0  0  0  0  0  0  0  0  0  0  0
    2.1362   -0.6040    0.0000 C   0  0  0  0  0  0  0  0  0  0  0  0
   -1.4193   -0.1622    0.0000 O   0  0  0  0  0  0  0  0  0  0  0  0
    1.4291   -0.1915    0.0000 C   0  0  0  0  0  0  0  0  0  0  0  0
    0.7022    1.8612    0.0000 O   0  0  0  0  0  0  0  0  0  0  0  0
   -1.4193    3.0987    0.0000 O   0  0  0  0  0  0  0  0  0  0  0  0
    1.4291   -1.8415    0.0000 C   0  0  0  0  0  0  0  0  0  0  0  0
   -2.1264   -0.6040    0.0000 C   0  0  0  0  0  0  0  0  0  0  0  0
   -2.8434    2.2835    0.0000 O   0  0  0  0  0  0  0  0  0  0  0  0
    2.8727   -1.8415    0.0000 O   0  0  0  0  0  0  0  0  0  0  0  0
    2.1362   -1.4290    0.0000 C   0  0  0  0  0  0  0  0  0  0  0  0
   -2.8434   -0.1915    0.0000 C   0  0  0  0  0  0  0  0  0  0  0  0
    3.5898   -3.0987    0.0000 N   0  0  0  0  0  0  0  0  0  0  0  0
   -0.6824   -1.4290    0.0000 O   0  0  0  0  0  0  0  0  0  0  0  0
   -2.8434   -1.8513    0.0000 O   0  0  0  0  0  0  0  0  0  0  0  0
    0.0441   -1.8415    0.0000 C   0  0  0  0  0  0  0  0  0  0  0  0
    0.7022   -1.4192    0.0000 O   0  0  0  0  0  0  0  0  0  0  0  0
    2.1362    1.0459    0.0000 C   0  0  0  0  0  0  0  0  0  0  0  0
   -2.1459   -3.0595    0.0000 C   0  0  0  0  0  0  0  0  0  0  0  0
   -3.5602   -0.6137    0.0000 C   0  0  0  0  0  0  0  0  0  0  0  0
   -3.5898   -1.4290    0.0000 C   0  0  0  0  0  0  0  0  0  0  0  0
    0.7022   -0.6040    0.0000 C   0  0  0  0  0  0  0  0  0  0  0  0
   -3.5636    1.8708    0.0000 C   0  0  0  0  0  0  0  0  0  0  0  0
  2  4  1  0
  3  1  2  0
  4  1  1  0
  5  2  1  0
  6  2  2  0
  7  3  1  0
  7  6  1  0
  8  5  1  0
  9 10  2  0
 10 14  1  0
 11  9  1  0
 11 15  1  1
 11 24  1  0
 12 15  1  0
 13  8  1  0
 14 17  1  0
 14 36  1  6
 16  1  1  0
 17 18  1  0
 17 31  1  6
 18 25  1  0
 18 32  1  1
 19 21  1  0
 20  4  2  0
 21 13  2  0
 22  8  2  0
 23  7  2  0
 24 28  1  0
 24 34  1  1
 25 29  1  0
 26  3  1  0
 26 40  1  0
 27 12  2  0
 28 19  2  0
 29 16  1  0
 29 37  1  6
 30 12  1  0
 33  9  1  0
 35 13  1  0
 38 32  1  0
 39 34  1  0
M  END
>  <DRUGBANK_ID>  (1) 
DB02424

>  <SECONDARY_ACCESSION_NUMBERS>  (1) 
EXPT01571

>  <COMMON_NAME>  (1) 
Geldanamycin

>  <CAS_NUMBER>  (1) 
30562-34-6

>  <UNII>  (1) 
Z3K3VJ16KU

$$$$
