NDH
     RDKit          2D

 12 13  0  0  0  0  0  0  0  0999 V2000
   -0.4602    1.4532    0.0000 O   0  0  0  0  0  0  0  0  0  0  0  0
   -0.4602    0.6282    0.0000 C   0  0  0  0  0  0  0  0  0  0  0  0
   -1.1747    0.2157    0.0000 C   0  0  0  0  0  0  0  0  0  0  0  0
   -1.8891    0.6282    0.0000 O   0  0  0  0  0  0  0  0  0  0  0  0
   -1.1747   -0.6093    0.0000 C   0  0  0  0  0  0  0  0  0  0  0  0
   -0.4602   -1.0218    0.0000 C   0  0  0  0  0  0  0  0  0  0  0  0
    0.2543   -0.6093    0.0000 C   0  0  0  0  0  0  0  0  0  0  0  0
    0.2543    0.2157    0.0000 C   0  0  0  0  0  0  0  0  0  0  0  0
    0.9687    0.6282    0.0000 C   0  0  0  0  0  0  0  0  0  0  0  0
    0.9687   -1.0218    0.0000 C   0  0  0  0  0  0  0  0  0  0  0  0
    1.6832   -0.6093    0.0000 C   0  0  0  0  0  0  0  0  0  0  0  0
    1.6832    0.2157    0.0000 C   0  0  0  0  0  0  0  0  0  0  0  0
  2  1  1  6
  2  3  1  0
  2  8  1  0
  3  4  1  6
  3  5  1  0
  5  6  2  0
  6  7  1  0
  7  8  2  0
  7 10  1  0
  8  9  1  0
  9 12  2  0
 10 11  2  0
 11 12  1  0
M  END
>  <DRUGBANK_ID>  (1) 
DB08264

>  <COMMON_NAME>  (1) 
(1R, 2S)-cis 1,2 dihydroxy-1,2-dihydronaphthalene

>  <UNII>  (1) 
E8MH7SV5YM

$$$$
