
     RDKit          2D

 27 26  0  0  0  0  0  0  0  0999 V2000
   -5.0066    0.2032    0.0000 N   0  0  0  0  0  0  0  0  0  0  0  0
   -7.8670    0.1913    0.0000 N   0  0  0  0  0  0  0  0  0  0  0  0
   -6.4368    0.1972    0.0000 C   0  0  0  0  0  0  0  0  0  0  0  0
   -5.7187   -0.2132    0.0000 C   0  0  0  0  0  0  0  0  0  0  0  0
   -7.1489   -0.2191    0.0000 C   0  0  0  0  0  0  0  0  0  0  0  0
   -4.2884   -0.2074    0.0000 C   0  0  0  0  0  0  0  0  0  0  0  0
   -2.8582   -0.2014    0.0000 C   0  0  0  0  0  0  0  0  0  0  0  0
   -3.5763    0.2091    0.0000 C   0  0  0  0  0  0  0  0  0  0  0  0
    7.1558   -0.1761    0.0000 C   0  0  0  0  0  0  0  0  0  0  0  0
    7.1602   -1.0011    0.0000 N   0  0  0  0  0  0  0  0  0  0  0  0
    6.4367    0.2327    0.0000 N   0  0  0  0  0  0  0  0  0  0  0  0
    7.8670    0.2419    0.0000 N   0  0  0  0  0  0  0  0  0  0  0  0
    5.7256   -0.1853    0.0000 C   0  0  0  0  0  0  0  0  0  0  0  0
    5.0065    0.2234    0.0000 C   0  0  0  0  0  0  0  0  0  0  0  0
    3.5763    0.2141    0.0000 C   0  0  0  0  0  0  0  0  0  0  0  0
    4.2954   -0.1946    0.0000 C   0  0  0  0  0  0  0  0  0  0  0  0
    0.7186    0.2075    0.0000 N   0  0  0  0  0  0  0  0  0  0  0  0
    0.0051   -0.2065    0.0000 C   0  0  0  0  0  0  0  0  0  0  0  0
   -0.7115    0.2065    0.0000 C   0  0  0  0  0  0  0  0  0  0  0  0
    1.4354   -0.2055    0.0000 C   0  0  0  0  0  0  0  0  0  0  0  0
   -0.7111    1.0314    0.0000 O   0  0  0  0  0  0  0  0  0  0  0  0
    1.4349   -1.0304    0.0000 O   0  0  0  0  0  0  0  0  0  0  0  0
   -1.4250   -0.2075    0.0000 N   0  0  0  0  0  0  0  0  0  0  0  0
    0.0047   -1.0314    0.0000 O   0  0  0  0  0  0  0  0  0  0  0  0
    2.1489    0.2085    0.0000 C   0  0  0  0  0  0  0  0  0  0  0  0
   -2.1417    0.2055    0.0000 C   0  0  0  0  0  0  0  0  0  0  0  0
    2.8656   -0.2045    0.0000 C   0  0  0  0  0  0  0  0  0  0  0  0
  1  6  1  0
  2  5  1  0
  3  4  1  0
  4  1  1  0
  5  3  1  0
  6  8  1  0
  8  7  1  0
  9 11  1  0
 10  9  2  0
 11 13  1  0
 12  9  1  0
 13 14  1  0
 14 16  1  0
 16 15  1  0
 18 17  1  0
 18 24  1  1
 19 18  1  0
 20 17  1  0
 21 19  2  0
 22 20  2  0
 23 19  1  0
 25 20  1  0
 26 23  1  0
 26  7  1  0
 27 25  1  0
 27 15  1  0
M  END
>  <DRUGBANK_ID>  (1) 
DB12991

>  <COMMON_NAME>  (1) 
Deoxyspergualin

>  <CAS_NUMBER>  (1) 
89149-10-0

>  <UNII>  (1) 
57F9XM233R

>  <SYNONYMS>  (1) 
(-)-Gusperimus; 15-Desoxyspergualin; Deoxyspergualin

$$$$
