
     RDKit          2D

 22 24  0  0  0  0  0  0  0  0999 V2000
   -1.0540    0.1444    0.0000 C   0  0  0  0  0  0  0  0  0  0  0  0
   -0.4155   -0.2270    0.0000 C   0  0  0  0  0  0  0  0  0  0  0  0
   -1.3814    1.5424    0.0000 C   0  0  0  0  0  0  0  0  0  0  0  0
   -0.4155    0.5104    0.0000 C   0  0  0  0  0  0  0  0  0  0  0  0
   -1.0540    0.8792    0.0000 C   0  0  0  0  0  0  0  0  0  0  0  0
   -1.6951   -0.2270    0.0000 C   0  0  0  0  0  0  0  0  0  0  0  0
   -0.0027   -0.9424    0.0000 C   0  0  0  0  0  0  0  0  0  0  0  0
   -1.6951    0.5104    0.0000 C   0  0  0  0  0  0  0  0  0  0  0  0
    0.3825   -0.0123    0.0000 O   0  0  0  0  0  0  0  0  0  0  0  0
   -1.0540   -0.6865    0.0000 C   0  0  0  0  0  0  0  0  0  0  0  0
    1.3099    1.8450    0.0000 N   0  0  0  0  0  0  0  0  0  0  0  0
   -1.1172    2.3239    0.0000 C   0  0  0  0  0  0  0  0  0  0  0  0
   -2.0170    2.0762    0.0000 C   0  0  0  0  0  0  0  0  0  0  0  0
    0.4430    0.8077    0.0000 C   0  0  0  0  0  0  0  0  0  0  0  0
    1.2438    1.0223    0.0000 C   0  0  0  0  0  0  0  0  0  0  0  0
    0.8228   -0.9424    0.0000 C   0  0  0  0  0  0  0  0  0  0  0  0
   -0.4155   -1.6552    0.0000 C   0  0  0  0  0  0  0  0  0  0  0  0
    0.6742    2.3735    0.0000 C   0  0  0  0  0  0  0  0  0  0  0  0
    2.0170    2.2688    0.0000 C   0  0  0  0  0  0  0  0  0  0  0  0
   -0.0027   -2.3735    0.0000 C   0  0  0  0  0  0  0  0  0  0  0  0
    1.2356   -1.6552    0.0000 C   0  0  0  0  0  0  0  0  0  0  0  0
    0.8228   -2.3735    0.0000 C   0  0  0  0  0  0  0  0  0  0  0  0
  1 10  1  1
  2  1  1  0
  2  7  1  0
  2  9  1  1
  3  1  1  0
  4  2  1  0
  5  4  1  1
  5  3  1  0
  5  8  1  0
  6  1  1  0
  8  6  1  0
 11 15  1  0
 12  3  1  0
 13  3  1  0
 14  9  1  0
 15 14  1  0
 16  7  2  0
 17  7  1  0
 18 11  1  0
 19 11  1  0
 20 17  2  0
 21 16  1  0
 21 22  2  0
 22 20  1  0
M  END
>  <DRUGBANK_ID>  (1) 
DB06512

>  <COMMON_NAME>  (1) 
Deramciclane

>  <CAS_NUMBER>  (1) 
120444-71-5

>  <UNII>  (1) 
O5KFK61E74

>  <SYNONYMS>  (1) 
Deramciclane

$$$$
