
     RDKit          2D

 26 29  0  0  0  0  0  0  0  0999 V2000
   -0.7078   -1.0151    0.0000 N   0  0  0  0  0  0  0  0  0  0  0  0
   -0.0132   -1.4425    0.0000 C   0  0  0  0  0  0  0  0  0  0  0  0
   -0.7078   -2.6712    0.0000 S   0  0  0  0  0  0  0  0  0  0  0  0
    0.6811   -1.0151    0.0000 C   0  0  0  0  0  0  0  0  0  0  0  0
   -1.4290   -1.4425    0.0000 C   0  0  0  0  0  0  0  0  0  0  0  0
   -0.0132   -2.2440    0.0000 C   0  0  0  0  0  0  0  0  0  0  0  0
   -1.4290   -2.2440    0.0000 C   0  0  0  0  0  0  0  0  0  0  0  0
   -0.7078   -0.2136    0.0000 C   0  0  0  0  0  0  0  0  0  0  0  0
    1.4024   -1.4425    0.0000 C   0  0  0  0  0  0  0  0  0  0  0  0
    2.1238   -1.0151    0.0000 S   0  0  0  0  0  0  0  0  0  0  0  0
   -2.1504    1.4424    0.0000 N   0  0  0  0  0  0  0  0  0  0  0  0
   -1.4290    0.2135    0.0000 C   0  0  0  0  0  0  0  0  0  0  0  0
   -1.4290    1.0151    0.0000 C   0  0  0  0  0  0  0  0  0  0  0  0
    0.6811   -2.6712    0.0000 C   0  0  0  0  0  0  0  0  0  0  0  0
    2.1238   -0.2136    0.0000 O   0  0  0  0  0  0  0  0  0  0  0  0
    1.4024   -2.2440    0.0000 C   0  0  0  0  0  0  0  0  0  0  0  0
   -2.8449    1.0151    0.0000 C   0  0  0  0  0  0  0  0  0  0  0  0
   -2.1504    2.2706    0.0000 C   0  0  0  0  0  0  0  0  0  0  0  0
   -2.1504   -1.0151    0.0000 C   0  0  0  0  0  0  0  0  0  0  0  0
    2.8449   -1.4425    0.0000 C   0  0  0  0  0  0  0  0  0  0  0  0
   -2.1504   -2.6712    0.0000 C   0  0  0  0  0  0  0  0  0  0  0  0
   -0.7078    1.4424    0.0000 C   0  0  0  0  0  0  0  0  0  0  0  0
   -1.4290    2.6712    0.0000 C   0  0  0  0  0  0  0  0  0  0  0  0
   -2.8449   -1.4425    0.0000 C   0  0  0  0  0  0  0  0  0  0  0  0
   -2.8449   -2.2440    0.0000 C   0  0  0  0  0  0  0  0  0  0  0  0
   -0.7078    2.2706    0.0000 C   0  0  0  0  0  0  0  0  0  0  0  0
  2  1  1  0
  4  2  2  0
  5  1  1  0
  6  2  1  0
  6  3  1  0
  7  3  1  0
  7  5  2  0
  8  1  1  0
  9  4  1  0
 10  9  1  0
 12  8  1  0
 13 11  1  0
 13 12  1  0
 14  6  2  0
 15 10  2  0
 16  9  2  0
 16 14  1  0
 17 11  1  0
 18 11  1  0
 19  5  1  0
 20 10  1  0
 21  7  1  0
 22 13  1  0
 23 18  1  0
 24 19  2  0
 25 21  2  0
 25 24  1  0
 26 22  1  0
 26 23  1  0
M  END
>  <DRUGBANK_ID>  (1) 
DB00933

>  <SECONDARY_ACCESSION_NUMBERS>  (1) 
APRD00610

>  <COMMON_NAME>  (1) 
Mesoridazine

>  <CAS_NUMBER>  (1) 
5588-33-0

>  <UNII>  (1) 
5XE4NWM740

>  <SYNONYMS>  (1) 
10-(2-(1-Methyl-2-piperidyl)ethyl)-2-methylsulfinyl phenothiazine; 10-(2(1-Methyl-2-piperidyl)ethyl)-2-(methylsulfinyl)phenothiazine; 2-Methanesulfinyl-10-[2-(1-methyl-piperidin-2-yl)-ethyl]-10H-phenothiazine; Mesoridazina; Mesoridazine; Mesoridazinum; Thioridazine 2-sulfoxide; Thioridazine thiomethyl sulfoxide; Thioridazine-2-sulfoxide

$$$$
