
     RDKit          2D

 33 36  0  0  0  0  0  0  0  0999 V2000
   -0.3769   -0.3946    0.0000 C   0  0  0  0  0  0  0  0  0  0  0  0
    0.1074    0.2744    0.0000 C   0  0  0  0  0  0  0  0  0  0  0  0
   -0.3809    0.9407    0.0000 C   0  0  0  0  0  0  0  0  0  0  0  0
   -1.1617   -0.1394    0.0000 N   0  0  0  0  0  0  0  0  0  0  0  0
   -1.1616    0.6808    0.0000 C   0  0  0  0  0  0  0  0  0  0  0  0
   -1.9818    0.6809    0.0000 C   0  0  0  0  0  0  0  0  0  0  0  0
   -1.9818   -0.1393    0.0000 C   0  0  0  0  0  0  0  0  0  0  0  0
   -2.5671   -0.7241    0.0000 O   0  0  0  0  0  0  0  0  0  0  0  0
    0.9330    0.2769    0.0000 S   0  0  0  0  0  0  0  0  0  0  0  0
   -0.1206   -1.1792    0.0000 C   0  0  0  0  0  0  0  0  0  0  0  0
   -0.6682   -1.7914    0.0000 O   0  0  0  0  0  0  0  0  0  0  0  0
    0.6876   -1.3475    0.0000 O   0  0  0  0  0  0  0  0  0  0  0  0
    0.9479   -2.1323    0.0000 C   0  0  0  0  0  0  0  0  0  0  0  0
    1.7562   -2.3007    0.0000 O   0  0  0  0  0  0  0  0  0  0  0  0
   -2.5670    1.2619    0.0000 C   0  0  0  0  0  0  0  0  0  0  0  0
   -2.3543    2.0595    0.0000 C   0  0  0  0  0  0  0  0  0  0  0  0
   -3.3646    1.0494    0.0000 O   0  0  0  0  0  0  0  0  0  0  0  0
   -0.1316    1.7277    0.0000 C   0  0  0  0  0  0  0  0  0  0  0  0
    1.3416    0.9939    0.0000 C   0  0  0  0  0  0  0  0  0  0  0  0
    2.1372    1.2123    0.0000 C   0  0  0  0  0  0  0  0  0  0  0  0
    1.9220    2.0050    0.0000 N   0  0  0  0  0  0  0  0  0  0  0  0
    1.1250    1.7900    0.0000 C   0  0  0  0  0  0  0  0  0  0  0  0
    2.3293    2.7194    0.0000 C   0  0  0  0  0  0  0  0  0  0  0  0
    3.1503    2.8119    0.0000 N   0  0  0  0  0  0  0  0  0  0  0  0
    3.3187    3.6201    0.0000 C   0  0  0  0  0  0  0  0  0  0  0  0
    2.6017    4.0287    0.0000 C   0  0  0  0  0  0  0  0  0  0  0  0
    1.9929    3.4729    0.0000 S   0  0  0  0  0  0  0  0  0  0  0  0
    2.0132   -3.0808    0.0000 C   0  0  0  0  0  0  0  0  0  0  0  0
    2.8174   -3.2484    0.0000 C   0  0  0  0  0  0  0  0  0  0  0  0
    1.4660   -3.6936    0.0000 O   0  0  0  0  0  0  0  0  0  0  0  0
    3.0744   -4.0287    0.0000 C   0  0  0  0  0  0  0  0  0  0  0  0
    3.3646   -2.6358    0.0000 C   0  0  0  0  0  0  0  0  0  0  0  0
    2.4474   -3.9819    0.0000 C   0  0  0  0  0  0  0  0  0  0  0  0
  1 10  1  0
  1  2  2  0
  2  9  1  0
  2  3  1  0
  3 18  1  1
  3  5  1  0
  5  4  1  1
  4  1  1  0
  5  6  1  0
  6  7  1  6
  6 15  1  0
  7  8  2  0
  7  4  1  0
  9 19  1  0
 10 11  2  0
 10 12  1  0
 12 13  1  0
 13 14  1  0
 14 28  1  0
 15 17  1  0
 15 16  1  6
 19 20  1  0
 20 21  1  0
 21 22  1  0
 21 23  1  0
 22 19  1  0
 23 24  2  0
 24 25  1  0
 25 26  1  0
 26 27  1  0
 27 23  1  0
 28 29  1  0
 28 30  2  0
 29 31  1  0
 29 32  1  0
 29 33  1  0
M  END
>  <DRUGBANK_ID>  (1) 
DB16840

>  <COMMON_NAME>  (1) 
Tebipenem pivoxil

>  <CAS_NUMBER>  (1) 
161715-24-8

>  <UNII>  (1) 
95AK1A52I8

>  <SYNONYMS>  (1) 
Tebipenem pivoxil

$$$$
