LT3
     RDKit          2D

 16 18  0  0  0  0  0  0  0  0999 V2000
    0.0954    0.8122    0.0000 C   0  0  0  0  0  0  0  0  0  0  0  0
   -0.1256    2.4503    0.0000 N   0  0  0  0  0  0  0  0  0  0  0  0
   -0.9102   -0.2985    0.0000 C   0  0  0  0  0  0  0  0  0  0  0  0
    1.0090   -1.0772    0.0000 C   0  0  0  0  0  0  0  0  0  0  0  0
    1.8312   -1.0090    0.0000 C   0  0  0  0  0  0  0  0  0  0  0  0
    0.8909    0.3469    0.0000 C   0  0  0  0  0  0  0  0  0  0  0  0
   -0.5449    0.3620    0.0000 C   0  0  0  0  0  0  0  0  0  0  0  0
   -0.1347    0.0918    0.0000 C   0  0  0  0  0  0  0  0  0  0  0  0
   -0.0646    1.6276    0.0000 C   0  0  0  0  0  0  0  0  0  0  0  0
    0.5389   -0.3992    0.0000 C   0  0  0  0  0  0  0  0  0  0  0  0
    2.1832   -0.2629    0.0000 C   0  0  0  0  0  0  0  0  0  0  0  0
    1.7131    0.4150    0.0000 C   0  0  0  0  0  0  0  0  0  0  0  0
    0.6569   -1.8233    0.0000 C   0  0  0  0  0  0  0  0  0  0  0  0
    0.3049   -2.5694    0.0000 F   0  0  0  0  0  0  0  0  0  0  0  0
   -0.0892   -1.4712    0.0000 F   0  0  0  0  0  0  0  0  0  0  0  0
    1.4030   -2.1753    0.0000 F   0  0  0  0  0  0  0  0  0  0  0  0
  1  6  1  0
  4  5  1  0
  5 11  2  0
  6 12  2  0
  1  7  1  6
  7  3  1  0
  8  3  1  1
  8 10  1  0
  9  2  1  0
  9  1  1  0
  9  8  1  0
 10  4  2  0
 10  6  1  0
 12 11  1  0
 13  4  1  0
 13 15  1  0
 14 13  1  0
 16 13  1  0
M  END
>  <DRUGBANK_ID>  (1) 
DB08128

>  <COMMON_NAME>  (1) 
(1S,4R,9S)-5-(trifluoromethyl)-1,2,3,4-tetrahydro-1,4-methanonaphthalen-9-amine

$$$$
