541
     RDKit          2D

 32 35  0  0  0  0  0  0  0  0999 V2000
   -2.2627    4.1978    0.0000 C   0  0  0  0  0  0  0  0  0  0  0  0
   -2.9772    3.7853    0.0000 C   0  0  0  0  0  0  0  0  0  0  0  0
   -2.9772    2.9603    0.0000 C   0  0  0  0  0  0  0  0  0  0  0  0
   -2.2627    2.5478    0.0000 C   0  0  0  0  0  0  0  0  0  0  0  0
   -1.5483    2.9603    0.0000 C   0  0  0  0  0  0  0  0  0  0  0  0
   -1.5483    3.7853    0.0000 C   0  0  0  0  0  0  0  0  0  0  0  0
   -0.8338    4.1978    0.0000 N   0  0  0  0  0  0  0  0  0  0  0  0
    0.5951    4.1978    0.0000 C   0  0  0  0  0  0  0  0  0  0  0  0
   -0.1193    3.7853    0.0000 C   0  0  0  0  0  0  0  0  0  0  0  0
   -0.1193    2.9603    0.0000 C   0  0  0  0  0  0  0  0  0  0  0  0
   -0.8338    2.5478    0.0000 C   0  0  0  0  0  0  0  0  0  0  0  0
   -0.8338    1.7228    0.0000 C   0  0  0  0  0  0  0  0  0  0  0  0
   -0.1193    0.4853    0.0000 C   0  0  0  0  0  0  0  0  0  0  0  0
   -0.1193    1.3103    0.0000 O   0  0  0  0  0  0  0  0  0  0  0  0
    0.5951    0.0728    0.0000 C   0  0  0  0  0  0  0  0  0  0  0  0
    0.5951   -0.7522    0.0000 C   0  0  0  0  0  0  0  0  0  0  0  0
   -0.1193   -1.1647    0.0000 C   0  0  0  0  0  0  0  0  0  0  0  0
   -0.8338   -0.7522    0.0000 C   0  0  0  0  0  0  0  0  0  0  0  0
   -0.8338    0.0728    0.0000 C   0  0  0  0  0  0  0  0  0  0  0  0
   -0.2909   -2.7967    0.0000 C   0  0  0  0  0  0  0  0  0  0  0  0
   -0.1193   -1.9897    0.0000 C   0  0  0  0  0  0  0  0  0  0  0  0
   -0.9398   -1.9035    0.0000 C   0  0  0  0  0  0  0  0  0  0  0  0
    0.7011   -1.9035    0.0000 C   0  0  0  0  0  0  0  0  0  0  0  0
    1.1136   -1.1890    0.0000 O   0  0  0  0  0  0  0  0  0  0  0  0
    0.4236   -3.2092    0.0000 C   0  0  0  0  0  0  0  0  0  0  0  0
    1.8437   -2.8287    0.0000 C   0  0  0  0  0  0  0  0  0  0  0  0
    2.3957   -2.2156    0.0000 C   0  0  0  0  0  0  0  0  0  0  0  0
    3.2027   -2.3871    0.0000 N   0  0  0  0  0  0  0  0  0  0  0  0
    3.4576   -3.1717    0.0000 O   0  0  0  0  0  0  0  0  0  0  0  0
    2.1408   -1.4310    0.0000 O   0  0  0  0  0  0  0  0  0  0  0  0
    2.0986   -3.6133    0.0000 C   0  0  0  0  0  0  0  0  0  0  0  0
    1.0367   -2.6571    0.0000 N   0  0  0  0  0  0  0  0  0  0  0  0
  1  2  2  0
  1  6  1  0
  2  3  1  0
  3  4  2  0
  4  5  1  0
  5  6  2  0
  5 11  1  0
  6  7  1  0
  7  9  2  0
  8  9  1  0
  9 10  1  0
 10 11  2  0
 11 12  1  0
 12 14  1  0
 13 14  1  0
 13 15  2  0
 13 19  1  0
 15 16  1  0
 16 17  2  0
 17 18  1  0
 18 19  2  0
 20 21  1  0
 20 25  1  0
 21 17  1  0
 21 22  1  6
 21 23  1  0
 23 24  2  0
 23 32  1  0
 25 32  1  0
 26 27  1  0
 26 31  1  1
 26 32  1  0
 27 28  1  0
 27 30  2  0
 28 29  1  0
M  END
>  <DRUGBANK_ID>  (1) 
DB07145

>  <COMMON_NAME>  (1) 
(2R)-N-HYDROXY-2-[(3S)-3-METHYL-3-{4-[(2-METHYLQUINOLIN-4-YL)METHOXY]PHENYL}-2-OXOPYRROLIDIN-1-YL]PROPANAMIDE

$$$$
