DC8
     RDKit          2D

 23 26  0  0  0  0  0  0  0  0999 V2000
   -1.2219    0.1607    0.0000 C   0  0  0  0  0  0  0  0  0  0  0  0
    0.0373   -0.5148    0.0000 C   0  0  0  0  0  0  0  0  0  0  0  0
    0.4273    0.2122    0.0000 C   0  0  0  0  0  0  0  0  0  0  0  0
    1.2285    0.4089    0.0000 C   0  0  0  0  0  0  0  0  0  0  0  0
   -0.0073    0.9135    0.0000 C   0  0  0  0  0  0  0  0  0  0  0  0
   -0.8319    0.8877    0.0000 C   0  0  0  0  0  0  0  0  0  0  0  0
    0.0819   -1.9430    0.0000 C   0  0  0  0  0  0  0  0  0  0  0  0
    0.5165   -2.6443    0.0000 C   0  0  0  0  0  0  0  0  0  0  0  0
    1.3411   -2.6185    0.0000 C   0  0  0  0  0  0  0  0  0  0  0  0
    1.7311   -1.8915    0.0000 C   0  0  0  0  0  0  0  0  0  0  0  0
   -2.0911    1.5632    0.0000 C   0  0  0  0  0  0  0  0  0  0  0  0
   -2.4811    0.8362    0.0000 C   0  0  0  0  0  0  0  0  0  0  0  0
   -2.0465    0.1349    0.0000 C   0  0  0  0  0  0  0  0  0  0  0  0
   -0.7873   -0.5405    0.0000 O   0  0  0  0  0  0  0  0  0  0  0  0
    1.2891    1.2317    0.0000 C   0  0  0  0  0  0  0  0  0  0  0  0
    1.6866    1.9545    0.0000 F   0  0  0  0  0  0  0  0  0  0  0  0
    2.1133    1.2660    0.0000 F   0  0  0  0  0  0  0  0  0  0  0  0
    0.5253    1.5435    0.0000 C   0  0  0  0  0  0  0  0  0  0  0  0
   -1.2665    1.5890    0.0000 C   0  0  0  0  0  0  0  0  0  0  0  0
    0.4719   -1.2160    0.0000 C   0  0  0  0  0  0  0  0  0  0  0  0
    1.7757   -3.3197    0.0000 O   0  0  0  0  0  0  0  0  0  0  0  0
    1.2965   -1.1902    0.0000 C   0  0  0  0  0  0  0  0  0  0  0  0
   -2.5258    2.2644    0.0000 O   0  0  0  0  0  0  0  0  0  0  0  0
  1 13  1  0
  1 14  1  0
  1  6  2  0
  2 14  1  0
  2 20  1  6
  2  3  1  0
  3  5  1  0
  3  4  1  6
  4 15  1  0
  5  6  1  0
  5 18  1  6
  6 19  1  0
  7 20  2  0
  7  8  1  0
  8  9  2  0
  9 10  1  0
  9 21  1  0
 10 22  2  0
 11 12  1  0
 11 23  1  0
 11 19  2  0
 12 13  2  0
 15 18  1  0
 15 17  1  0
 15 16  1  0
 20 22  1  0
M  END
>  <DRUGBANK_ID>  (1) 
DB07638

>  <COMMON_NAME>  (1) 
(3AS,4R,9BR)-2,2-DIFLUORO-4-(4-HYDROXYPHENYL)-1,2,3,3A,4,9B-HEXAHYDROCYCLOPENTA[C]CHROMEN-8-OL

$$$$
