
     RDKit          2D

 13 13  0  0  1  0  0  0  0  0999 V2000
    2.1434    1.2375    0.0000 O   0  0  0  0  0  0  0  0  0  0  0  0
    1.4289    0.8250    0.0000 C   0  0  0  0  0  0  0  0  0  0  0  0
    1.4289    0.0000    0.0000 O   0  0  0  0  0  0  0  0  0  0  0  0
    0.7145   -0.4125    0.0000 C   0  0  0  0  0  0  0  0  0  0  0  0
    0.0000    0.0000    0.0000 C   0  0  0  0  0  0  0  0  0  0  0  0
   -0.7145   -0.4125    0.0000 O   0  0  0  0  0  0  0  0  0  0  0  0
    0.0000    0.8250    0.0000 C   0  0  0  0  0  0  0  0  0  0  0  0
   -0.7145    1.2375    0.0000 O   0  0  0  0  0  0  0  0  0  0  0  0
    0.7145    1.2375    0.0000 C   0  0  0  0  0  0  0  0  0  0  0  0
    0.7145    2.0625    0.0000 O   0  0  0  0  0  0  0  0  0  0  0  0
    0.7145   -1.2375    0.0000 C   0  0  0  0  0  0  0  0  0  0  0  0
    1.4289   -1.6500    0.0000 O   0  0  0  0  0  0  0  0  0  0  0  0
    0.0000   -1.6500    0.0000 O   0  0  0  0  0  0  0  0  0  0  0  0
  2  1  1  6
  2  3  1  0
  2  9  1  0
  3  4  1  0
  4  5  1  0
  4 11  1  6
  5  6  1  1
  5  7  1  0
  7  8  1  6
  7  9  1  0
  9 10  1  1
 11 12  1  0
 11 13  2  0
M  END
>  <DRUGBANK_ID>  (1) 
DB03156

>  <SECONDARY_ACCESSION_NUMBERS>  (1) 
EXPT01175

>  <COMMON_NAME>  (1) 
beta-D-glucuronic acid

>  <CAS_NUMBER>  (1) 
23018-83-9

>  <UNII>  (1) 
00A9JB14O6

>  <SYNONYMS>  (1) 
beta-D-Glucopyranuronic acid; GlcAb; GlcAβ; β-D-glucopyranuronic acid

$$$$
