SKA
     RDKit          2D

 12 13  0  0  0  0  0  0  0  0999 V2000
   -0.1839    1.8361    0.0000 Cl  0  0  0  0  0  0  0  0  0  0  0  0
   -0.1839    1.0111    0.0000 C   0  0  0  0  0  0  0  0  0  0  0  0
    0.5306    0.5986    0.0000 C   0  0  0  0  0  0  0  0  0  0  0  0
    1.2450    1.0111    0.0000 C   0  0  0  0  0  0  0  0  0  0  0  0
    1.9595    0.5986    0.0000 N   0  0  0  0  0  0  0  0  0  0  0  0
    1.9595   -0.2264    0.0000 C   0  0  0  0  0  0  0  0  0  0  0  0
    1.2450   -0.6389    0.0000 C   0  0  0  0  0  0  0  0  0  0  0  0
    0.5306   -0.2264    0.0000 C   0  0  0  0  0  0  0  0  0  0  0  0
   -0.1839   -0.6389    0.0000 C   0  0  0  0  0  0  0  0  0  0  0  0
   -0.8984   -0.2264    0.0000 C   0  0  0  0  0  0  0  0  0  0  0  0
   -0.8984    0.5986    0.0000 C   0  0  0  0  0  0  0  0  0  0  0  0
   -1.6128    1.0111    0.0000 Cl  0  0  0  0  0  0  0  0  0  0  0  0
  1  2  1  0
  2  3  2  0
  2 11  1  0
  3  4  1  0
  3  8  1  0
  4  5  1  0
  5  6  1  0
  6  7  1  0
  7  8  1  0
  8  9  2  0
  9 10  1  0
 10 11  2  0
 11 12  1  0
M  END
>  <DRUGBANK_ID>  (1) 
DB08550

>  <COMMON_NAME>  (1) 
7,8-Dichloro-1,2,3,4-tetrahydroisoquinoline

>  <CAS_NUMBER>  (1) 
61563-24-4

>  <UNII>  (1) 
A0EP5O913J

$$$$
