
     RDKit          2D

 30 31  0  0  0  0  0  0  0  0999 V2000
    1.5647   -0.7466    0.0000 Cl  0  0  0  0  0  0  0  0  0  0  0  0
   -2.4201   -2.9197    0.0000 F   0  0  0  0  0  0  0  0  0  0  0  0
   -1.5951   -4.3486    0.0000 F   0  0  0  0  0  0  0  0  0  0  0  0
   -1.2932   -0.7466    0.0000 F   0  0  0  0  0  0  0  0  0  0  0  0
    1.5647    0.0783    0.0000 O   0  0  0  0  0  0  0  0  0  0  0  0
    2.2791    2.9659    0.0000 O   0  0  0  0  0  0  0  0  0  0  0  0
   -1.2932   -2.3966    0.0000 N   0  0  0  0  0  0  0  0  0  0  0  0
    0.8502    1.3159    0.0000 N   0  0  0  0  0  0  0  0  0  0  0  0
    2.2791    3.7909    0.0000 N   0  0  0  0  0  0  0  0  0  0  0  0
    3.7082    3.7909    0.0000 N   0  0  0  0  0  0  0  0  0  0  0  0
    2.9937    5.0284    0.0000 N   0  0  0  0  0  0  0  0  0  0  0  0
   -1.2932   -3.2216    0.0000 C   0  0  0  0  0  0  0  0  0  0  0  0
   -2.0076   -3.6342    0.0000 C   0  0  0  0  0  0  0  0  0  0  0  0
   -0.5787   -1.9841    0.0000 C   0  0  0  0  0  0  0  0  0  0  0  0
    0.1357   -0.7466    0.0000 C   0  0  0  0  0  0  0  0  0  0  0  0
   -0.5787   -1.1591    0.0000 C   0  0  0  0  0  0  0  0  0  0  0  0
   -2.7221   -4.0467    0.0000 C   0  0  0  0  0  0  0  0  0  0  0  0
    0.1357    0.0783    0.0000 C   0  0  0  0  0  0  0  0  0  0  0  0
    0.1357   -2.3966    0.0000 C   0  0  0  0  0  0  0  0  0  0  0  0
    0.8502   -1.1591    0.0000 C   0  0  0  0  0  0  0  0  0  0  0  0
    0.8502   -1.9841    0.0000 C   0  0  0  0  0  0  0  0  0  0  0  0
    0.8502    0.4908    0.0000 C   0  0  0  0  0  0  0  0  0  0  0  0
   -2.7221   -4.8717    0.0000 C   0  0  0  0  0  0  0  0  0  0  0  0
   -3.4366   -3.6342    0.0000 C   0  0  0  0  0  0  0  0  0  0  0  0
    1.5647    1.7284    0.0000 C   0  0  0  0  0  0  0  0  0  0  0  0
   -3.4366   -5.2842    0.0000 C   0  0  0  0  0  0  0  0  0  0  0  0
   -4.1511   -4.0467    0.0000 C   0  0  0  0  0  0  0  0  0  0  0  0
   -4.1511   -4.8717    0.0000 C   0  0  0  0  0  0  0  0  0  0  0  0
    1.5647    2.5534    0.0000 C   0  0  0  0  0  0  0  0  0  0  0  0
    2.9937    4.2034    0.0000 C   0  0  0  0  0  0  0  0  0  0  0  0
  1 20  1  0
  2 13  1  0
  3 13  1  0
  4 16  1  0
  5 22  2  0
  6  9  1  0
  6 29  1  0
  7 12  1  0
  7 14  1  0
  8 22  1  0
  8 25  1  0
  9 30  2  3
 10 30  1  0
 11 30  1  0
 12 13  1  0
 13 17  1  0
 14 16  1  0
 14 19  2  0
 15 16  2  0
 15 18  1  0
 15 20  1  0
 17 23  2  0
 17 24  1  0
 18 22  1  0
 19 21  1  0
 20 21  2  0
 23 26  1  0
 24 27  2  0
 25 29  1  0
 26 28  2  0
 27 28  1  0
M  END
>  <DRUGBANK_ID>  (1) 
DB07946

>  <COMMON_NAME>  (1) 
N-[2-({[amino(imino)methyl]amino}oxy)ethyl]-2-{6-chloro-3-[(2,2-difluoro-2-phenylethyl)amino]-2-fluorophenyl}acetamide

$$$$
