53S
     RDKit          2D

 28 30  0  0  0  0  0  0  0  0999 V2000
    1.0333   -2.6004    0.0000 C   0  0  0  0  0  0  0  0  0  0  0  0
    1.7478   -3.0129    0.0000 C   0  0  0  0  0  0  0  0  0  0  0  0
   -1.8246   -0.9504    0.0000 C   0  0  0  0  0  0  0  0  0  0  0  0
   -1.1101    2.7621    0.0000 C   0  0  0  0  0  0  0  0  0  0  0  0
   -1.1101    3.5871    0.0000 C   0  0  0  0  0  0  0  0  0  0  0  0
   -0.3956    3.9996    0.0000 C   0  0  0  0  0  0  0  0  0  0  0  0
   -0.3956    4.8246    0.0000 C   0  0  0  0  0  0  0  0  0  0  0  0
    0.3188    3.5871    0.0000 C   0  0  0  0  0  0  0  0  0  0  0  0
    0.3188    2.7621    0.0000 C   0  0  0  0  0  0  0  0  0  0  0  0
   -0.3956    2.3496    0.0000 C   0  0  0  0  0  0  0  0  0  0  0  0
   -0.3956    1.5246    0.0000 C   0  0  0  0  0  0  0  0  0  0  0  0
    0.3188    1.1121    0.0000 C   0  0  0  0  0  0  0  0  0  0  0  0
   -1.1101    1.1121    0.0000 C   0  0  0  0  0  0  0  0  0  0  0  0
   -1.1101    0.2871    0.0000 C   0  0  0  0  0  0  0  0  0  0  0  0
   -1.8246   -0.1254    0.0000 O   0  0  0  0  0  0  0  0  0  0  0  0
   -0.3956   -0.1254    0.0000 C   0  0  0  0  0  0  0  0  0  0  0  0
    0.3188    0.2871    0.0000 C   0  0  0  0  0  0  0  0  0  0  0  0
    1.0333   -0.1254    0.0000 C   0  0  0  0  0  0  0  0  0  0  0  0
    1.7478    0.2871    0.0000 C   0  0  0  0  0  0  0  0  0  0  0  0
    1.0333   -0.9504    0.0000 C   0  0  0  0  0  0  0  0  0  0  0  0
    1.0333   -1.7754    0.0000 C   0  0  0  0  0  0  0  0  0  0  0  0
    2.4623   -2.6004    0.0000 C   0  0  0  0  0  0  0  0  0  0  0  0
    1.7478   -3.8379    0.0000 N   0  0  0  0  0  0  0  0  0  0  0  0
    1.0333   -4.2504    0.0000 C   0  0  0  0  0  0  0  0  0  0  0  0
    1.0333   -5.0754    0.0000 N   0  0  0  0  0  0  0  0  0  0  0  0
    0.3188   -3.8379    0.0000 N   0  0  0  0  0  0  0  0  0  0  0  0
    0.3188   -3.0129    0.0000 C   0  0  0  0  0  0  0  0  0  0  0  0
   -0.3956   -2.6004    0.0000 N   0  0  0  0  0  0  0  0  0  0  0  0
  1  2  2  0
  1 21  1  0
  1 27  1  0
  2 22  1  0
  2 23  1  0
  3 15  1  0
  4  5  2  0
  4 10  1  0
  5  6  1  0
  6  7  1  0
  6  8  2  0
  8  9  1  0
  9 10  2  0
 10 11  1  0
 11 12  2  0
 11 13  1  0
 12 17  1  0
 13 14  2  0
 14 15  1  0
 14 16  1  0
 16 17  2  0
 17 18  1  0
 18 19  1  1
 18 20  1  0
 20 21  3  0
 23 24  2  0
 24 25  1  0
 24 26  1  0
 26 27  2  0
 27 28  1  0
M  END
>  <DRUGBANK_ID>  (1) 
DB07141

>  <COMMON_NAME>  (1) 
5-[(3R)-3-(5-methoxy-4'-methylbiphenyl-3-yl)but-1-yn-1-yl]-6-methylpyrimidine-2,4-diamine

$$$$
