
     RDKit          2D

 33 36  0  0  1  0  0  0  0  0999 V2000
   -9.6931    4.1880    0.0000 N   0  0  0  0  0  0  0  0  0  0  0  0
   -8.8681    4.1880    0.0000 C   0  0  0  0  0  0  0  0  0  0  0  0
   -8.4556    3.4736    0.0000 N   0  0  0  0  0  0  0  0  0  0  0  0
   -7.6306    3.4736    0.0000 C   0  0  0  0  0  0  0  0  0  0  0  0
   -7.2181    4.1880    0.0000 C   0  0  0  0  0  0  0  0  0  0  0  0
   -6.3931    4.1880    0.0000 N   0  0  0  0  0  0  0  0  0  0  0  0
   -5.8411    4.8011    0.0000 C   0  0  0  0  0  0  0  0  0  0  0  0
   -5.0874    4.4656    0.0000 N   0  0  0  0  0  0  0  0  0  0  0  0
   -5.1736    3.6451    0.0000 C   0  0  0  0  0  0  0  0  0  0  0  0
   -5.9806    3.4736    0.0000 C   0  0  0  0  0  0  0  0  0  0  0  0
   -6.3931    2.7591    0.0000 C   0  0  0  0  0  0  0  0  0  0  0  0
   -7.2181    2.7591    0.0000 N   0  0  0  0  0  0  0  0  0  0  0  0
   -4.3729    4.8781    0.0000 C   0  0  0  0  0  0  0  0  0  0  0  0
   -4.3729    5.7031    0.0000 C   0  0  0  0  0  0  0  0  0  0  0  0
   -3.6584    6.1156    0.0000 C   0  0  0  0  0  0  0  0  0  0  0  0
   -2.9440    5.7031    0.0000 C   0  0  0  0  0  0  0  0  0  0  0  0
   -2.9440    4.8781    0.0000 C   0  0  0  0  0  0  0  0  0  0  0  0
   -3.6584    4.4656    0.0000 C   0  0  0  0  0  0  0  0  0  0  0  0
   -2.2295    6.1156    0.0000 C   0  0  0  0  0  0  0  0  0  0  0  0
   -2.2295    6.9406    0.0000 O   0  0  0  0  0  0  0  0  0  0  0  0
   -1.5150    5.7031    0.0000 N   0  0  0  0  0  0  0  0  0  0  0  0
   -0.8006    6.1156    0.0000 C   0  0  0  0  0  0  0  0  0  0  0  0
   -0.0861    5.7031    0.0000 C   0  0  0  0  0  0  0  0  0  0  0  0
    0.6284    6.1156    0.0000 C   0  0  0  0  0  0  0  0  0  0  0  0
    1.3428    5.7031    0.0000 C   0  0  0  0  0  0  0  0  0  0  0  0
    2.0573    6.1156    0.0000 O   0  0  0  0  0  0  0  0  0  0  0  0
    1.3428    4.8781    0.0000 O   0  0  0  0  0  0  0  0  0  0  0  0
   -0.8006    6.9406    0.0000 C   0  0  0  0  0  0  0  0  0  0  0  0
   -0.0861    7.3531    0.0000 O   0  0  0  0  0  0  0  0  0  0  0  0
   -1.5150    7.3531    0.0000 O   0  0  0  0  0  0  0  0  0  0  0  0
   -7.6306    4.9025    0.0000 C   0  0  0  0  0  0  0  0  0  0  0  0
   -7.2181    5.6170    0.0000 O   0  0  0  0  0  0  0  0  0  0  0  0
   -8.4556    4.9025    0.0000 N   0  0  0  0  0  0  0  0  0  0  0  0
  1  2  1  0
  2  3  2  0
  2 33  1  0
  3  4  1  0
  4  5  2  0
  4 12  1  0
  5  6  1  0
  5 31  1  0
  6  7  1  0
  6 10  1  0
  7  8  1  0
  8  9  1  0
  8 13  1  0
  9 10  1  0
 10 11  1  0
 11 12  1  0
 13 14  2  0
 13 18  1  0
 14 15  1  0
 15 16  2  0
 16 17  1  0
 16 19  1  0
 17 18  2  0
 19 20  2  0
 19 21  1  0
 22 21  1  0
 22 23  1  6
 22 28  1  0
 23 24  1  0
 24 25  1  0
 25 26  1  0
 25 27  2  0
 28 29  1  0
 28 30  2  0
 31 32  2  0
 31 33  1  0
M  END
>  <DRUGBANK_ID>  (1) 
DB17113

>  <COMMON_NAME>  (1) 
Folitixorin

>  <CAS_NUMBER>  (1) 
3432-99-3

>  <UNII>  (1) 
0SXY5ET48B

>  <SYNONYMS>  (1) 
5,10-methylene-(6rs)-tetrahydrofolic acid; 5,10-methylene-5,6,7,8-tetrahydrofolic acid; 5,10-methylenetetrafolate; 5,10-methylenetetrahydrofolic acid; Folic acid, tetrahydro-n5,n10-methylene-; L-glutamic acid, n-(4-(3-amino-1,2,5,6,6a,7-hexahydro-1-oxoimidazo(1,5-f)pteridin-8(9h)-yl)benzoyl)-; N5,n10-methylene-5,6,7,8-tetrahydrofolic acid; N5,n10-methylenetetrahydrofolic acid; N5,n10-methylenetetrahydropteroylglutamic acid

$$$$
