
     RDKit          2D

 29 31  0  0  0  0  0  0  0  0999 V2000
   -0.7948    0.8299    0.0000 C   0  0  0  0  0  0  0  0  0  0  0  0
    0.0281    0.8297    0.0000 C   0  0  0  0  0  0  0  0  0  0  0  0
   -1.1324   -0.6128    0.0000 C   0  0  0  0  0  0  0  0  0  0  0  0
   -1.3112    0.1874    0.0000 C   0  0  0  0  0  0  0  0  0  0  0  0
   -1.7380   -1.1785    0.0000 C   0  0  0  0  0  0  0  0  0  0  0  0
   -2.5214   -0.9362    0.0000 C   0  0  0  0  0  0  0  0  0  0  0  0
   -2.7038   -0.1314    0.0000 C   0  0  0  0  0  0  0  0  0  0  0  0
   -2.1024    0.4308    0.0000 C   0  0  0  0  0  0  0  0  0  0  0  0
   -0.3863   -0.9762    0.0000 N   0  0  0  0  0  0  0  0  0  0  0  0
   -0.3906   -1.8027    0.0000 C   0  0  0  0  0  0  0  0  0  0  0  0
    1.0395   -1.8056    0.0000 O   0  0  0  0  0  0  0  0  0  0  0  0
    0.3263   -2.2178    0.0000 C   0  0  0  0  0  0  0  0  0  0  0  0
    0.3219   -3.0441    0.0000 O   0  0  0  0  0  0  0  0  0  0  0  0
    0.3560   -0.6181    0.0000 C   0  0  0  0  0  0  0  0  0  0  0  0
    0.9985   -1.1346    0.0000 O   0  0  0  0  0  0  0  0  0  0  0  0
    0.5383    0.1877    0.0000 C   0  0  0  0  0  0  0  0  0  0  0  0
    1.2627    0.5765    0.0000 N   0  0  0  0  0  0  0  0  0  0  0  0
    1.9855    2.6497    0.0000 O   0  0  0  0  0  0  0  0  0  0  0  0
    1.9861    1.8212    0.0000 C   0  0  0  0  0  0  0  0  0  0  0  0
    2.7038    1.4149    0.0000 O   0  0  0  0  0  0  0  0  0  0  0  0
    1.2738    1.4044    0.0000 C   0  0  0  0  0  0  0  0  0  0  0  0
    0.5596    1.8124    0.0000 C   0  0  0  0  0  0  0  0  0  0  0  0
   -0.1519    1.3956    0.0000 C   0  0  0  0  0  0  0  0  0  0  0  0
   -0.8712    1.8060    0.0000 C   0  0  0  0  0  0  0  0  0  0  0  0
   -1.5860    3.0441    0.0000 C   0  0  0  0  0  0  0  0  0  0  0  0
   -0.8741    2.6310    0.0000 C   0  0  0  0  0  0  0  0  0  0  0  0
   -1.5828    1.3891    0.0000 C   0  0  0  0  0  0  0  0  0  0  0  0
   -2.3021    1.7995    0.0000 C   0  0  0  0  0  0  0  0  0  0  0  0
   -2.3026    2.6296    0.0000 C   0  0  0  0  0  0  0  0  0  0  0  0
  1  2  1  0
  2 16  1  0
  4  1  1  0
  4  3  2  0
  5  3  1  0
  5  6  2  0
  6  7  1  0
  7  8  2  0
  8  4  1  0
  9  3  1  0
  9 10  1  0
 10 12  1  0
 12 11  1  0
 12 13  2  0
 14  9  1  0
 14 15  2  0
 16 14  1  0
 16 17  1  6
 17 21  1  0
 19 18  2  0
 19 20  1  0
 21 19  1  0
 21 22  1  1
 22 23  1  0
 23 24  1  0
 24 27  2  0
 25 26  2  0
 25 29  1  0
 26 24  1  0
 27 28  1  0
 28 29  2  0
M  END
>  <DRUGBANK_ID>  (1) 
DB14125

>  <COMMON_NAME>  (1) 
Benazeprilat

>  <CAS_NUMBER>  (1) 
86541-78-8

>  <UNII>  (1) 
JRM708L703

>  <SYNONYMS>  (1) 
(3S)-3-(((1S)-1-Carboxy-3-phenylpropyl)amino)-2,3,4,5-tetrahydro-2-oxo-1H-1-benzazepine-1-acetic acid; Benazepril diacid; Benazeprilat; Bénazéprilate; Benazeprilatum

$$$$
