
     RDKit          2D

 10 11  0  0  0  0  0  0  0  0999 V2000
   -0.6654    1.4935    0.0000 O   0  0  0  0  0  0  0  0  0  0  0  0
    0.8298    0.5072    0.0000 N   0  0  0  0  0  0  0  0  0  0  0  0
   -0.6654   -0.9819    0.0000 N   0  0  0  0  0  0  0  0  0  0  0  0
    0.8298   -0.8207    0.0000 N   0  0  0  0  0  0  0  0  0  0  0  0
   -1.3800    0.2557    0.0000 N   0  0  0  0  0  0  0  0  0  0  0  0
    0.0490    0.2557    0.0000 C   0  0  0  0  0  0  0  0  0  0  0  0
    0.0490   -0.5693    0.0000 C   0  0  0  0  0  0  0  0  0  0  0  0
   -0.6654    0.6683    0.0000 C   0  0  0  0  0  0  0  0  0  0  0  0
    1.3114   -0.1567    0.0000 C   0  0  0  0  0  0  0  0  0  0  0  0
   -1.3800   -0.5693    0.0000 C   0  0  0  0  0  0  0  0  0  0  0  0
  1  8  2  0
  2  6  1  0
  2  9  1  0
  3  7  1  0
  3 10  1  0
  4  7  1  0
  4  9  2  0
  5  8  1  0
  5 10  2  0
  6  7  2  0
  6  8  1  0
M  END
>  <DRUGBANK_ID>  (1) 
DB04076

>  <SECONDARY_ACCESSION_NUMBERS>  (1) 
EXPT01767

>  <COMMON_NAME>  (1) 
Hypoxanthine

>  <CAS_NUMBER>  (1) 
68-94-0

>  <UNII>  (1) 
2TN51YD919

$$$$
