
     RDKit          2D

  8  8  0  0  0  0  0  0  0  0999 V2000
   -0.0835   -0.4836    0.0000 C   0  0  0  0  0  0  0  0  0  0  0  0
    0.1713    0.3010    0.0000 C   0  0  0  0  0  0  0  0  0  0  0  0
    0.5839   -0.9684    0.0000 O   0  0  0  0  0  0  0  0  0  0  0  0
   -0.8682   -0.7385    0.0000 C   0  0  0  0  0  0  0  0  0  0  0  0
    0.9963    0.3010    0.0000 C   0  0  0  0  0  0  0  0  0  0  0  0
    1.2513   -0.4836    0.0000 N   0  0  0  0  0  0  0  0  0  0  0  0
   -1.4813   -0.1864    0.0000 N   0  0  0  0  0  0  0  0  0  0  0  0
    1.4813    0.9684    0.0000 O   0  0  0  0  0  0  0  0  0  0  0  0
  1  2  2  0
  1  3  1  0
  1  4  1  0
  2  5  1  0
  3  6  1  0
  4  7  1  0
  5  8  2  0
  5  6  1  0
M  END
>  <DRUGBANK_ID>  (1) 
DB12458

>  <COMMON_NAME>  (1) 
Muscimol

>  <CAS_NUMBER>  (1) 
2763-96-4

>  <UNII>  (1) 
D5M179TY2E

>  <SYNONYMS>  (1) 
5-(aminomethyl)-3(2H)-isoxazolone

$$$$
