ENE
     RDKit          2D

 30 34  0  0  0  0  0  0  0  0999 V2000
   -4.5197    0.2090    0.0000 O   0  0  0  0  0  0  0  0  0  0  0  0
   -3.6968    0.2684    0.0000 C   0  0  0  0  0  0  0  0  0  0  0  0
   -3.4368    1.0513    0.0000 C   0  0  0  0  0  0  0  0  0  0  0  0
   -2.6993    1.4210    0.0000 C   0  0  0  0  0  0  0  0  0  0  0  0
   -1.9163    1.1610    0.0000 C   0  0  0  0  0  0  0  0  0  0  0  0
   -1.5466    0.4235    0.0000 C   0  0  0  0  0  0  0  0  0  0  0  0
   -0.7723    0.7083    0.0000 O   0  0  0  0  0  0  0  0  0  0  0  0
   -0.0669    0.2805    0.0000 C   0  0  0  0  0  0  0  0  0  0  0  0
    0.5890    0.7809    0.0000 C   0  0  0  0  0  0  0  0  0  0  0  0
    1.3504    0.4631    0.0000 C   0  0  0  0  0  0  0  0  0  0  0  0
    2.0063    0.9635    0.0000 O   0  0  0  0  0  0  0  0  0  0  0  0
    2.7676    0.6456    0.0000 C   0  0  0  0  0  0  0  0  0  0  0  0
    3.3416    1.2382    0.0000 C   0  0  0  0  0  0  0  0  0  0  0  0
    4.1628    1.1588    0.0000 C   0  0  0  0  0  0  0  0  0  0  0  0
    4.6128    0.4674    0.0000 C   0  0  0  0  0  0  0  0  0  0  0  0
    4.3527   -0.3156    0.0000 C   0  0  0  0  0  0  0  0  0  0  0  0
    3.5784   -0.6004    0.0000 O   0  0  0  0  0  0  0  0  0  0  0  0
    2.8730   -0.1726    0.0000 C   0  0  0  0  0  0  0  0  0  0  0  0
    2.2171   -0.6730    0.0000 C   0  0  0  0  0  0  0  0  0  0  0  0
    2.3225   -1.4913    0.0000 O   0  0  0  0  0  0  0  0  0  0  0  0
    1.4557   -0.3552    0.0000 C   0  0  0  0  0  0  0  0  0  0  0  0
    0.7998   -0.8556    0.0000 O   0  0  0  0  0  0  0  0  0  0  0  0
    0.0385   -0.5377    0.0000 C   0  0  0  0  0  0  0  0  0  0  0  0
   -0.5355   -1.1303    0.0000 C   0  0  0  0  0  0  0  0  0  0  0  0
   -1.3567   -1.0510    0.0000 C   0  0  0  0  0  0  0  0  0  0  0  0
   -1.8067   -0.3595    0.0000 C   0  0  0  0  0  0  0  0  0  0  0  0
   -2.5442   -0.7292    0.0000 O   0  0  0  0  0  0  0  0  0  0  0  0
   -3.3271   -0.4691    0.0000 C   0  0  0  0  0  0  0  0  0  0  0  0
   -3.8670   -1.0930    0.0000 C   0  0  0  0  0  0  0  0  0  0  0  0
   -3.5967   -1.8724    0.0000 O   0  0  0  0  0  0  0  0  0  0  0  0
  2  1  1  1
  2  3  1  0
  2 28  1  0
  3  4  2  0
  4  5  1  0
  6  5  1  1
  6  7  1  0
  6 26  1  0
  7  8  1  0
  8  9  1  1
  8 23  1  0
 10  9  1  1
 10 11  1  0
 10 21  1  0
 11 12  1  0
 12 13  1  1
 12 18  1  0
 13 14  1  0
 14 15  2  0
 15 16  1  0
 16 17  1  0
 18 17  1  6
 18 19  1  0
 19 21  1  0
 19 20  1  1
 21 22  1  6
 22 23  1  0
 23 24  1  6
 24 25  2  0
 26 25  1  6
 26 27  1  0
 27 28  1  0
 28 29  1  6
 29 30  1  0
M  END
>  <DRUGBANK_ID>  (1) 
DB07716

>  <COMMON_NAME>  (1) 
(4Z)-2,8:7,12:11,15:14,18:17,22-PENTAANHYDRO-4,5,6,9,10,13,19,20,21-NONADEOXY-D-ARABINO-D-ALLO-D-ALLO-DOCOSA-4,9,20-TRIENITOL

$$$$
