
     RDKit          2D

 24 23  0  0  0  0  0  0  0  0999 V2000
   -4.1250   -2.1434    0.0000 C   0  0  0  0  0  0  0  0  0  0  0  0
   -1.6500   -0.7145    0.0000 C   0  0  0  0  0  0  0  0  0  0  0  0
   -0.8250   -0.7145    0.0000 C   0  0  0  0  0  0  0  0  0  0  0  0
    1.6500    0.7145    0.0000 C   0  0  0  0  0  0  0  0  0  0  0  0
    2.0625    0.0000    0.0000 C   0  0  0  0  0  0  0  0  0  0  0  0
    3.3000    2.1434    0.0000 C   0  0  0  0  0  0  0  0  0  0  0  0
    4.1250    2.1434    0.0000 C   0  0  0  0  0  0  0  0  0  0  0  0
    4.5375    1.4289    0.0000 C   0  0  0  0  0  0  0  0  0  0  0  0
    2.0625    1.4289    0.0000 C   0  0  0  0  0  0  0  0  0  0  0  0
    2.8875    1.4289    0.0000 C   0  0  0  0  0  0  0  0  0  0  0  0
    0.4125    0.0000    0.0000 C   0  0  0  0  0  0  0  0  0  0  0  0
    0.8250    0.7145    0.0000 C   0  0  0  0  0  0  0  0  0  0  0  0
   -0.4125    0.0000    0.0000 C   0  0  0  0  0  0  0  0  0  0  0  0
   -2.0625    0.0000    0.0000 C   0  0  0  0  0  0  0  0  0  0  0  0
   -2.0625   -1.4289    0.0000 C   0  0  0  0  0  0  0  0  0  0  0  0
   -2.8875   -1.4289    0.0000 C   0  0  0  0  0  0  0  0  0  0  0  0
   -3.3000   -2.1434    0.0000 C   0  0  0  0  0  0  0  0  0  0  0  0
   -4.5375   -1.4289    0.0000 C   0  0  0  0  0  0  0  0  0  0  0  0
   -4.5375   -2.8579    0.0000 C   0  0  0  0  0  0  0  0  0  0  0  0
   -5.3625   -2.8579    0.0000 O   0  0  0  0  0  0  0  0  0  0  0  0
    4.5375    2.8579    0.0000 C   0  0  0  0  0  0  0  0  0  0  0  0
    4.1250    3.5724    0.0000 O   0  0  0  0  0  0  0  0  0  0  0  0
   -4.1250   -3.5724    0.0000 O   0  0  0  0  0  0  0  0  0  0  0  0
    5.3625    2.8579    0.0000 O   0  0  0  0  0  0  0  0  0  0  0  0
  1 17  2  0
  1 19  1  0
  2  3  2  0
  3 13  1  0
  4  5  1  0
  4  9  1  0
  6  7  2  0
  7  8  1  0
  7 21  1  0
  9 10  2  0
 10  6  1  0
 11 12  1  0
 12  4  2  0
 13 11  2  0
 14  2  1  0
 15  2  1  0
 16 15  2  0
 17 16  1  0
 18  1  1  0
 19 20  2  0
 19 23  1  0
 21 22  2  0
 21 24  1  0
M  END
>  <DRUGBANK_ID>  (1) 
DB05974

>  <COMMON_NAME>  (1) 
Transcrocetinate

>  <CAS_NUMBER>  (1) 
27876-94-4

>  <UNII>  (1) 
20TC155L9C

>  <SYNONYMS>  (1) 
8,8'-diapo-8,8'-carotenedioic acid; 8,8'-diapo-ψ,ψ-carotenedioic acid; 8,8'-diapocarotenedioic acid; Crocetin; trans-crocetin

$$$$
