IOC
     RDKit          2D

 23 24  0  0  0  0  0  0  0  0999 V2000
    0.5928   -0.6806    0.0000 C   0  0  0  0  0  0  0  0  0  0  0  0
    1.3072   -1.0931    0.0000 C   0  0  0  0  0  0  0  0  0  0  0  0
    1.3072   -1.9181    0.0000 C   0  0  0  0  0  0  0  0  0  0  0  0
    0.5928   -2.3306    0.0000 C   0  0  0  0  0  0  0  0  0  0  0  0
   -0.1217   -1.9181    0.0000 C   0  0  0  0  0  0  0  0  0  0  0  0
   -0.1217   -1.0931    0.0000 C   0  0  0  0  0  0  0  0  0  0  0  0
   -0.8362   -0.6806    0.0000 C   0  0  0  0  0  0  0  0  0  0  0  0
   -1.5506   -1.0931    0.0000 O   0  0  0  0  0  0  0  0  0  0  0  0
   -0.8362    0.1444    0.0000 N   0  0  0  0  0  0  0  0  0  0  0  0
   -1.5506    0.5569    0.0000 C   0  0  0  0  0  0  0  0  0  0  0  0
    2.0217   -2.3306    0.0000 S   0  0  0  0  0  0  0  0  0  0  0  0
    2.7362   -2.7431    0.0000 N   0  0  0  0  0  0  0  0  0  0  0  0
    2.4342   -1.6161    0.0000 O   0  0  0  0  0  0  0  0  0  0  0  0
    1.6092   -3.0450    0.0000 O   0  0  0  0  0  0  0  0  0  0  0  0
   -1.5506    1.3819    0.0000 C   0  0  0  0  0  0  0  0  0  0  0  0
   -2.2651    1.7944    0.0000 C   0  0  0  0  0  0  0  0  0  0  0  0
   -2.2651    2.6194    0.0000 C   0  0  0  0  0  0  0  0  0  0  0  0
   -1.5506    3.0319    0.0000 C   0  0  0  0  0  0  0  0  0  0  0  0
   -0.8362    2.6194    0.0000 C   0  0  0  0  0  0  0  0  0  0  0  0
   -0.8362    1.7944    0.0000 C   0  0  0  0  0  0  0  0  0  0  0  0
   -1.5506    3.8569    0.0000 F   0  0  0  0  0  0  0  0  0  0  0  0
   -2.9796    1.3819    0.0000 F   0  0  0  0  0  0  0  0  0  0  0  0
   -2.9796    3.0319    0.0000 F   0  0  0  0  0  0  0  0  0  0  0  0
  1  2  2  0
  1  6  1  0
  2  3  1  0
  3  4  2  0
  3 11  1  0
  4  5  1  0
  5  6  2  0
  6  7  1  0
  7  8  2  0
  7  9  1  0
  9 10  1  0
 10 15  1  0
 11 12  1  0
 11 13  2  0
 11 14  2  0
 15 16  2  0
 15 20  1  0
 16 17  1  0
 16 22  1  0
 17 18  2  0
 17 23  1  0
 18 19  1  0
 18 21  1  0
 19 20  2  0
M  END
>  <DRUGBANK_ID>  (1) 
DB04549

>  <SECONDARY_ACCESSION_NUMBERS>  (1) 
EXPT01902

>  <COMMON_NAME>  (1) 
4-(Aminosulfonyl)-N-[(2,3,4-Trifluorophenyl)Methyl]-Benzamide

$$$$
