BP3
     RDKit          2D

 15 16  0  0  0  0  0  0  0  0999 V2000
   -0.3924   -0.2285    0.0000 C   0  0  0  0  0  0  0  0  0  0  0  0
    0.3221   -0.6410    0.0000 C   0  0  0  0  0  0  0  0  0  0  0  0
    1.0366   -0.2285    0.0000 O   0  0  0  0  0  0  0  0  0  0  0  0
    0.3221   -1.4660    0.0000 C   0  0  0  0  0  0  0  0  0  0  0  0
    1.0366   -1.8785    0.0000 O   0  0  0  0  0  0  0  0  0  0  0  0
   -0.3924   -1.8785    0.0000 C   0  0  0  0  0  0  0  0  0  0  0  0
   -1.1069   -1.4660    0.0000 C   0  0  0  0  0  0  0  0  0  0  0  0
   -1.1069   -0.6410    0.0000 C   0  0  0  0  0  0  0  0  0  0  0  0
   -0.3924    0.5965    0.0000 C   0  0  0  0  0  0  0  0  0  0  0  0
   -1.1069    1.0090    0.0000 C   0  0  0  0  0  0  0  0  0  0  0  0
   -1.1069    1.8340    0.0000 C   0  0  0  0  0  0  0  0  0  0  0  0
   -0.3924    2.2465    0.0000 C   0  0  0  0  0  0  0  0  0  0  0  0
    0.3221    1.8340    0.0000 C   0  0  0  0  0  0  0  0  0  0  0  0
    0.3221    1.0090    0.0000 C   0  0  0  0  0  0  0  0  0  0  0  0
   -1.8213    0.5965    0.0000 Cl  0  0  0  0  0  0  0  0  0  0  0  0
  1  2  2  0
  1  8  1  0
  1  9  1  0
  2  3  1  0
  2  4  1  0
  4  5  1  0
  4  6  2  0
  6  7  1  0
  7  8  2  0
  9 10  2  0
  9 14  1  0
 10 11  1  0
 10 15  1  0
 11 12  2  0
 12 13  1  0
 13 14  2  0
M  END
>  <DRUGBANK_ID>  (1) 
DB01925

>  <SECONDARY_ACCESSION_NUMBERS>  (1) 
EXPT00742

>  <COMMON_NAME>  (1) 
2'-Chloro-Biphenyl-2,3-Diol

>  <UNII>  (1) 
1L6MBD62DN

$$$$
