
     RDKit          2D

 37 40  0  0  1  0  0  0  0  0999 V2000
    8.0157   -1.4252    0.0000 C   0  0  0  0  0  0  0  0  0  0  0  0
    8.0157   -0.6002    0.0000 C   0  0  0  0  0  0  0  0  0  0  0  0
    7.1907   -0.6002    0.0000 C   0  0  0  0  0  0  0  0  0  0  0  0
    8.8407   -0.6002    0.0000 N   0  0  0  0  0  0  0  0  0  0  0  0
    8.0157    0.2248    0.0000 C   0  0  0  0  0  0  0  0  0  0  0  0
    7.3012    0.6373    0.0000 O   0  0  0  0  0  0  0  0  0  0  0  0
    8.7302    0.6373    0.0000 N   0  0  0  0  0  0  0  0  0  0  0  0
    8.7302    1.4623    0.0000 C   0  0  0  0  0  0  0  0  0  0  0  0
    8.0157    1.8748    0.0000 C   0  0  0  0  0  0  0  0  0  0  0  0
    7.3012    1.4623    0.0000 O   0  0  0  0  0  0  0  0  0  0  0  0
    6.5868    1.8748    0.0000 C   0  0  0  0  0  0  0  0  0  0  0  0
    6.5868    2.6998    0.0000 C   0  0  0  0  0  0  0  0  0  0  0  0
    5.8723    3.1123    0.0000 C   0  0  0  0  0  0  0  0  0  0  0  0
    5.8723    3.9373    0.0000 C   0  0  0  0  0  0  0  0  0  0  0  0
    6.5868    4.3498    0.0000 C   0  0  0  0  0  0  0  0  0  0  0  0
    7.3012    3.9373    0.0000 C   0  0  0  0  0  0  0  0  0  0  0  0
    7.3012    3.1123    0.0000 C   0  0  0  0  0  0  0  0  0  0  0  0
    9.4447    1.8748    0.0000 C   0  0  0  0  0  0  0  0  0  0  0  0
    9.4447    2.6998    0.0000 O   0  0  0  0  0  0  0  0  0  0  0  0
   10.1591    1.4623    0.0000 N   0  0  0  0  0  0  0  0  0  0  0  0
   10.8736    1.8748    0.0000 C   0  0  0  0  0  0  0  0  0  0  0  0
   11.5881    1.4623    0.0000 C   0  0  0  0  0  0  0  0  0  0  0  0
   11.5881    0.6373    0.0000 C   0  0  0  0  0  0  0  0  0  0  0  0
   12.3417    0.9729    0.0000 C   0  0  0  0  0  0  0  0  0  0  0  0
   12.8938    0.3598    0.0000 N   0  0  0  0  0  0  0  0  0  0  0  0
   12.4813   -0.3547    0.0000 C   0  0  0  0  0  0  0  0  0  0  0  0
   12.7362   -1.1393    0.0000 C   0  0  0  0  0  0  0  0  0  0  0  0
   12.1842   -1.7524    0.0000 C   0  0  0  0  0  0  0  0  0  0  0  0
   11.3772   -1.5809    0.0000 C   0  0  0  0  0  0  0  0  0  0  0  0
   11.1223   -0.7962    0.0000 C   0  0  0  0  0  0  0  0  0  0  0  0
   11.6743   -0.1831    0.0000 C   0  0  0  0  0  0  0  0  0  0  0  0
   13.7143    0.4460    0.0000 S   0  0  0  0  0  0  0  0  0  0  0  0
   14.5347    0.5323    0.0000 C   0  0  0  0  0  0  0  0  0  0  0  0
   13.8005   -0.3744    0.0000 O   0  0  0  0  0  0  0  0  0  0  0  0
   13.6280    1.2665    0.0000 O   0  0  0  0  0  0  0  0  0  0  0  0
   10.8736    0.2248    0.0000 C   0  0  0  0  0  0  0  0  0  0  0  0
   10.1591    0.6373    0.0000 C   0  0  0  0  0  0  0  0  0  0  0  0
  1  2  1  0
  2  3  1  0
  2  4  1  0
  2  5  1  0
  5  6  2  0
  5  7  1  0
  8  7  1  0
  8  9  1  6
  8 18  1  0
  9 10  1  0
 10 11  1  0
 11 12  1  0
 12 13  2  0
 12 17  1  0
 13 14  1  0
 14 15  2  0
 15 16  1  0
 16 17  2  0
 18 19  2  0
 18 20  1  0
 20 21  1  0
 20 37  1  0
 21 22  1  0
 22 23  1  0
 23 24  1  0
 23 31  1  0
 23 36  1  0
 24 25  1  0
 25 26  1  0
 25 32  1  0
 26 27  1  0
 26 31  2  0
 27 28  2  0
 28 29  1  0
 29 30  2  0
 30 31  1  0
 32 33  1  0
 32 34  2  0
 32 35  2  0
 36 37  1  0
M  END
>  <DRUGBANK_ID>  (1) 
DB18214

>  <COMMON_NAME>  (1) 
Ibutamoren

>  <CAS_NUMBER>  (1) 
159634-47-6

>  <UNII>  (1) 
GJ0EGN38UL

>  <SYNONYMS>  (1) 
2-amino-n-((r)-2-(benzyloxy)-1-((1-(methylsulfonyl)spiro(indoline-3,4'-piperidin)-1'-yl)carbonyl)ethyl)-2-methylpropionamide; 2-amino-n-(3-(benzyloxy)-1-(1-methanesulfonyl-1,2-dihydrospiro(indole-3,4'-piperidin)-1'-yl)-1-oxopropan-2-yl)-2-methylpropanamide

$$$$
