SCQ
     RDKit          2D

 24 27  0  0  0  0  0  0  0  0999 V2000
   -2.1507    0.8778    0.0000 C   0  0  0  0  0  0  0  0  0  0  0  0
   -1.3660    0.6229    0.0000 C   0  0  0  0  0  0  0  0  0  0  0  0
   -1.3660   -0.2021    0.0000 N   0  0  0  0  0  0  0  0  0  0  0  0
   -2.1507   -0.4571    0.0000 N   0  0  0  0  0  0  0  0  0  0  0  0
   -2.6356    0.2104    0.0000 C   0  0  0  0  0  0  0  0  0  0  0  0
   -0.6516    1.0354    0.0000 C   0  0  0  0  0  0  0  0  0  0  0  0
    0.0629    0.6229    0.0000 C   0  0  0  0  0  0  0  0  0  0  0  0
    0.0629   -0.2021    0.0000 C   0  0  0  0  0  0  0  0  0  0  0  0
   -0.6516   -0.6146    0.0000 C   0  0  0  0  0  0  0  0  0  0  0  0
   -0.6516   -1.4396    0.0000 N   0  0  0  0  0  0  0  0  0  0  0  0
    0.7774    1.0354    0.0000 C   0  0  0  0  0  0  0  0  0  0  0  0
   -1.3660   -1.8521    0.0000 C   0  0  0  0  0  0  0  0  0  0  0  0
   -1.3660   -2.6771    0.0000 C   0  0  0  0  0  0  0  0  0  0  0  0
   -2.0805   -3.0896    0.0000 C   0  0  0  0  0  0  0  0  0  0  0  0
   -2.0805   -3.9146    0.0000 N   0  0  0  0  0  0  0  0  0  0  0  0
   -1.3660   -4.3271    0.0000 C   0  0  0  0  0  0  0  0  0  0  0  0
   -0.6516   -3.9146    0.0000 N   0  0  0  0  0  0  0  0  0  0  0  0
   -0.6516   -3.0896    0.0000 C   0  0  0  0  0  0  0  0  0  0  0  0
    0.7774    1.8604    0.0000 C   0  0  0  0  0  0  0  0  0  0  0  0
    1.4918    2.2729    0.0000 C   0  0  0  0  0  0  0  0  0  0  0  0
    2.2063    1.8604    0.0000 C   0  0  0  0  0  0  0  0  0  0  0  0
    2.2063    1.0354    0.0000 C   0  0  0  0  0  0  0  0  0  0  0  0
    1.4918    0.6229    0.0000 C   0  0  0  0  0  0  0  0  0  0  0  0
   -2.4056    1.6624    0.0000 Br  0  0  0  0  0  0  0  0  0  0  0  0
  1  2  2  0
  1 24  1  0
  2  6  1  0
  3  9  1  0
  3  2  1  0
  4  5  2  0
  4  3  1  0
  5  1  1  0
  6  7  2  0
  7 11  1  0
  8  7  1  0
  9  8  2  0
 10 12  1  0
 10  9  1  0
 11 19  2  0
 13 18  1  0
 13 12  1  0
 14 13  2  0
 15 16  2  0
 15 14  1  0
 16 17  1  0
 17 18  2  0
 19 20  1  0
 21 20  2  0
 22 21  1  0
 23 11  1  0
 23 22  2  0
M  END
>  <DRUGBANK_ID>  (1) 
DB08536

>  <COMMON_NAME>  (1) 
3-bromo-5-phenyl-N-(pyrimidin-5-ylmethyl)pyrazolo[1,5-a]pyridin-7-amine

$$$$
