
     RDKit          2D

 19 21  0  0  0  0  0  0  0  0999 V2000
    0.0062   -0.3539    0.0000 C   0  0  0  0  0  0  0  0  0  0  0  0
    0.0062    0.4685    0.0000 C   0  0  0  0  0  0  0  0  0  0  0  0
   -0.7267   -0.7371    0.0000 C   0  0  0  0  0  0  0  0  0  0  0  0
    0.7954   -0.6267    0.0000 N   0  0  0  0  0  0  0  0  0  0  0  0
    0.7954    0.7184    0.0000 N   0  0  0  0  0  0  0  0  0  0  0  0
   -0.6642    0.9370    0.0000 C   0  0  0  0  0  0  0  0  0  0  0  0
   -1.4284   -0.2811    0.0000 C   0  0  0  0  0  0  0  0  0  0  0  0
    1.2785    0.0437    0.0000 C   0  0  0  0  0  0  0  0  0  0  0  0
   -1.4284    0.5080    0.0000 C   0  0  0  0  0  0  0  0  0  0  0  0
   -2.1593   -0.6663    0.0000 C   0  0  0  0  0  0  0  0  0  0  0  0
    2.0947    0.0437    0.0000 N   0  0  0  0  0  0  0  0  0  0  0  0
   -2.8715   -0.2499    0.0000 C   0  0  0  0  0  0  0  0  0  0  0  0
   -2.1531   -1.4764    0.0000 O   0  0  0  0  0  0  0  0  0  0  0  0
    2.5071    0.7579    0.0000 C   0  0  0  0  0  0  0  0  0  0  0  0
   -3.3004    0.4519    0.0000 C   0  0  0  0  0  0  0  0  0  0  0  0
   -3.7065   -0.2499    0.0000 C   0  0  0  0  0  0  0  0  0  0  0  0
    3.3109    0.7641    0.0000 O   0  0  0  0  0  0  0  0  0  0  0  0
    1.9990    1.4764    0.0000 O   0  0  0  0  0  0  0  0  0  0  0  0
    3.7065    1.4764    0.0000 C   0  0  0  0  0  0  0  0  0  0  0  0
  1  2  1  0
  1  3  2  0
  1  4  1  0
  2  5  1  0
  2  6  2  0
  3  7  1  0
  4  8  2  0
  5  8  1  0
  6  9  1  0
  7 10  1  0
  7  9  2  0
  8 11  1  0
 10 12  1  0
 10 13  2  0
 11 14  1  0
 12 15  1  0
 12 16  1  0
 14 17  1  0
 14 18  2  0
 15 16  1  0
 17 19  1  0
M  END
>  <DRUGBANK_ID>  (1) 
DB13465

>  <COMMON_NAME>  (1) 
Ciclobendazole

>  <CAS_NUMBER>  (1) 
31431-43-3

>  <UNII>  (1) 
JF3KQ40J31

>  <SYNONYMS>  (1) 
Ciclobendazol; Ciclobendazole; Ciclobendazolum; Cyclobendazole

$$$$
