
     RDKit          2D

 19 19  0  0  1  0  0  0  0  0999 V2000
    6.3523   -7.4984    0.0000 O   0  0  0  0  0  0  0  0  0  0  0  0
    7.6707   -6.2609    0.0000 O   0  0  0  0  0  0  0  0  0  0  0  0
    6.9562   -6.6734    0.0000 C   0  0  0  0  0  0  0  0  0  0  0  0
    7.6707   -5.4359    0.0000 C   0  0  0  0  0  0  0  0  0  0  0  0
    6.2417   -6.2609    0.0000 C   0  0  0  0  0  0  0  0  0  0  0  0
    6.9562   -5.0234    0.0000 C   0  0  0  0  0  0  0  0  0  0  0  0
    6.2417   -5.4359    0.0000 C   0  0  0  0  0  0  0  0  0  0  0  0
    6.9562   -7.4984    0.0000 C   0  0  0  0  0  0  0  0  0  0  0  0
    7.6707   -7.9109    0.0000 O   0  0  0  0  0  0  0  0  0  0  0  0
    8.3852   -5.0234    0.0000 O   0  0  0  0  0  0  0  0  0  0  0  0
    5.5273   -5.0234    0.0000 O   0  0  0  0  0  0  0  0  0  0  0  0
    5.5273   -6.6734    0.0000 O   0  0  0  0  0  0  0  0  0  0  0  0
    5.5273   -7.4984    0.0000 S   0  0  0  0  0  0  0  0  0  0  0  0
    4.7022   -7.4984    0.0000 O   0  0  0  0  0  0  0  0  0  0  0  0
    5.5273   -8.3234    0.0000 O   0  0  0  0  0  0  0  0  0  0  0  0
    6.9562   -4.1984    0.0000 N   0  0  0  0  0  0  0  0  0  0  0  0
    6.2417   -3.7858    0.0000 C   0  0  0  0  0  0  0  0  0  0  0  0
    6.2417   -2.9608    0.0000 C   0  0  0  0  0  0  0  0  0  0  0  0
    5.5273   -4.1984    0.0000 O   0  0  0  0  0  0  0  0  0  0  0  0
  1 13  2  0
  3  2  1  0
  3  8  1  6
  4  2  1  0
  4 10  1  6
  5  3  1  0
  5 12  1  6
  6  4  1  0
  6 16  1  1
  7  5  1  0
  7  6  1  0
  7 11  1  6
  9  8  1  0
 13 12  1  0
 14 13  2  0
 15 13  1  0
 17 16  1  0
 18 17  1  0
 19 17  2  0
M  END
>  <DRUGBANK_ID>  (1) 
DB01872

>  <SECONDARY_ACCESSION_NUMBERS>  (1) 
EXPT02337

>  <COMMON_NAME>  (1) 
2-deoxy-2-acetamido-beta-D-galactose-4-sulfate

$$$$
