
     RDKit          2D

 24 25  0  0  0  0  0  0  0  0999 V2000
   -2.2715    2.5424    0.0000 C   0  0  0  0  0  0  0  0  0  0  0  0
   -2.8649    3.1155    0.0000 C   0  0  0  0  0  0  0  0  0  0  0  0
   -2.6653    3.9160    0.0000 C   0  0  0  0  0  0  0  0  0  0  0  0
   -1.8723    4.1434    0.0000 C   0  0  0  0  0  0  0  0  0  0  0  0
   -1.2049    4.6283    0.0000 C   0  0  0  0  0  0  0  0  0  0  0  0
   -0.4512    4.2927    0.0000 C   0  0  0  0  0  0  0  0  0  0  0  0
   -0.3649    3.4722    0.0000 C   0  0  0  0  0  0  0  0  0  0  0  0
   -1.0324    2.9873    0.0000 C   0  0  0  0  0  0  0  0  0  0  0  0
   -1.7861    3.3229    0.0000 C   0  0  0  0  0  0  0  0  0  0  0  0
    0.3495    3.8847    0.0000 C   0  0  0  0  0  0  0  0  0  0  0  0
    0.9626    3.3327    0.0000 C   0  0  0  0  0  0  0  0  0  0  0  0
    0.6271    2.5790    0.0000 N   0  0  0  0  0  0  0  0  0  0  0  0
   -0.1934    2.6653    0.0000 C   0  0  0  0  0  0  0  0  0  0  0  0
    1.0396    1.8646    0.0000 C   0  0  0  0  0  0  0  0  0  0  0  0
    1.8646    1.8646    0.0000 C   0  0  0  0  0  0  0  0  0  0  0  0
    2.2771    1.1501    0.0000 C   0  0  0  0  0  0  0  0  0  0  0  0
    3.1021    1.1501    0.0000 N   0  0  0  0  0  0  0  0  0  0  0  0
    3.5146    0.4356    0.0000 C   0  0  0  0  0  0  0  0  0  0  0  0
    4.3396    0.4356    0.0000 C   0  0  0  0  0  0  0  0  0  0  0  0
    3.5146    1.8646    0.0000 C   0  0  0  0  0  0  0  0  0  0  0  0
    4.3396    1.8646    0.0000 C   0  0  0  0  0  0  0  0  0  0  0  0
   -2.2340    4.8849    0.0000 C   0  0  0  0  0  0  0  0  0  0  0  0
   -3.0569    4.9424    0.0000 C   0  0  0  0  0  0  0  0  0  0  0  0
   -3.5183    4.2585    0.0000 C   0  0  0  0  0  0  0  0  0  0  0  0
  1  2  1  0
  2  3  1  0
  3  4  1  0
  4  5  1  0
  4  9  1  0
  4 22  1  0
  5  6  1  0
  6  7  1  0
  7  8  1  0
  7 10  1  0
  7 13  1  0
  8  9  1  0
 10 11  1  0
 11 12  1  0
 12 13  1  0
 12 14  1  0
 14 15  1  0
 15 16  1  0
 16 17  1  0
 17 18  1  0
 17 20  1  0
 18 19  1  0
 20 21  1  0
 22 23  1  0
 23 24  1  0
M  END
>  <DRUGBANK_ID>  (1) 
DB05513

>  <COMMON_NAME>  (1) 
Atiprimod

>  <CAS_NUMBER>  (1) 
123018-47-3

>  <UNII>  (1) 
MG7D3QD743

>  <SYNONYMS>  (1) 
Atiprimod; Azaspirane; N,N-Diethyl-8,8-dipropyl-2-azaspiro(4.5)decane-2-propanamine

$$$$
