PRC
     RDKit          2D

 29 32  0  0  0  0  0  0  0  0999 V2000
    2.4196    4.0592    0.0000 C   0  0  0  0  0  0  0  0  0  0  0  0
    3.1341    3.6467    0.0000 C   0  0  0  0  0  0  0  0  0  0  0  0
    3.1341    2.8217    0.0000 N   0  0  0  0  0  0  0  0  0  0  0  0
    2.4196    2.4092    0.0000 C   0  0  0  0  0  0  0  0  0  0  0  0
    1.7052    2.8217    0.0000 C   0  0  0  0  0  0  0  0  0  0  0  0
    1.7052    3.6467    0.0000 C   0  0  0  0  0  0  0  0  0  0  0  0
    0.9907    2.4092    0.0000 C   0  0  0  0  0  0  0  0  0  0  0  0
    0.9907    1.5842    0.0000 N   0  0  0  0  0  0  0  0  0  0  0  0
    0.2762    1.1717    0.0000 C   0  0  0  0  0  0  0  0  0  0  0  0
   -0.4382    1.5842    0.0000 N   0  0  0  0  0  0  0  0  0  0  0  0
   -0.4382    2.4092    0.0000 C   0  0  0  0  0  0  0  0  0  0  0  0
    0.2762    2.8217    0.0000 C   0  0  0  0  0  0  0  0  0  0  0  0
    0.2762    0.3467    0.0000 N   0  0  0  0  0  0  0  0  0  0  0  0
   -0.4382   -0.0658    0.0000 C   0  0  0  0  0  0  0  0  0  0  0  0
   -0.4382   -0.8908    0.0000 C   0  0  0  0  0  0  0  0  0  0  0  0
   -1.1527   -1.3033    0.0000 C   0  0  0  0  0  0  0  0  0  0  0  0
   -1.8672   -0.8908    0.0000 C   0  0  0  0  0  0  0  0  0  0  0  0
   -1.8672   -0.0658    0.0000 C   0  0  0  0  0  0  0  0  0  0  0  0
   -1.1527    0.3467    0.0000 C   0  0  0  0  0  0  0  0  0  0  0  0
   -1.1527    1.1717    0.0000 C   0  0  0  0  0  0  0  0  0  0  0  0
   -1.1527   -2.1283    0.0000 N   0  0  0  0  0  0  0  0  0  0  0  0
   -0.4382   -2.5408    0.0000 C   0  0  0  0  0  0  0  0  0  0  0  0
   -0.4382   -3.3658    0.0000 C   0  0  0  0  0  0  0  0  0  0  0  0
    0.2762   -3.7783    0.0000 C   0  0  0  0  0  0  0  0  0  0  0  0
    0.2762   -4.6033    0.0000 C   0  0  0  0  0  0  0  0  0  0  0  0
   -0.4382   -5.0158    0.0000 C   0  0  0  0  0  0  0  0  0  0  0  0
   -1.1527   -4.6033    0.0000 N   0  0  0  0  0  0  0  0  0  0  0  0
   -1.1527   -3.7783    0.0000 C   0  0  0  0  0  0  0  0  0  0  0  0
    0.2762   -2.1283    0.0000 O   0  0  0  0  0  0  0  0  0  0  0  0
  1  2  2  0
  1  6  1  0
  2  3  1  0
  3  4  2  0
  4  5  1  0
  5  6  2  0
  5  7  1  0
  7  8  2  0
  7 12  1  0
  8  9  1  0
  9 10  2  0
  9 13  1  0
 10 11  1  0
 11 12  2  0
 13 14  1  0
 14 15  2  0
 14 19  1  0
 15 16  1  0
 16 17  2  0
 16 21  1  0
 17 18  1  0
 18 19  2  0
 19 20  1  0
 21 22  1  0
 22 23  1  0
 22 29  2  0
 23 24  2  0
 23 28  1  0
 24 25  1  0
 25 26  2  0
 26 27  1  0
 27 28  2  0
M  END
>  <DRUGBANK_ID>  (1) 
DB03878

>  <SECONDARY_ACCESSION_NUMBERS>  (1) 
EXPT02657

>  <COMMON_NAME>  (1) 
N-[4-Methyl-3-[[4-(3-Pyridinyl)-2-Pyrimidinyl]Amino]Phenyl]-3-Pyridinecarboxamide

>  <UNII>  (1) 
Q8SP783P3P

$$$$
