
     RDKit          2D

 23 24  0  0  1  0  0  0  0  0999 V2000
    2.5006    1.6500    0.0000 O   0  0  0  0  0  0  0  0  0  0  0  0
    2.5006    0.8250    0.0000 C   0  0  0  0  0  0  0  0  0  0  0  0
    3.2151    0.4125    0.0000 C   0  0  0  0  0  0  0  0  0  0  0  0
    3.9295    0.8250    0.0000 O   0  0  0  0  0  0  0  0  0  0  0  0
    3.2151   -0.4125    0.0000 C   0  0  0  0  0  0  0  0  0  0  0  0
    2.5006   -0.8250    0.0000 C   0  0  0  0  0  0  0  0  0  0  0  0
    1.7861   -0.4125    0.0000 C   0  0  0  0  0  0  0  0  0  0  0  0
    1.0717   -0.8250    0.0000 C   0  0  0  0  0  0  0  0  0  0  0  0
    0.3572   -0.4125    0.0000 C   0  0  0  0  0  0  0  0  0  0  0  0
   -0.3572   -0.8250    0.0000 C   0  0  0  0  0  0  0  0  0  0  0  0
   -1.0717   -0.4125    0.0000 N   0  0  0  0  0  0  0  0  0  0  0  0
   -1.7861   -0.8250    0.0000 C   0  0  0  0  0  0  0  0  0  0  0  0
   -1.7861   -1.6500    0.0000 C   0  0  0  0  0  0  0  0  0  0  0  0
   -2.5006   -0.4125    0.0000 C   0  0  0  0  0  0  0  0  0  0  0  0
   -3.2151   -0.8250    0.0000 C   0  0  0  0  0  0  0  0  0  0  0  0
   -3.9295   -0.4125    0.0000 C   0  0  0  0  0  0  0  0  0  0  0  0
   -3.9295    0.4125    0.0000 C   0  0  0  0  0  0  0  0  0  0  0  0
   -3.2151    0.8250    0.0000 C   0  0  0  0  0  0  0  0  0  0  0  0
   -2.5006    0.4125    0.0000 C   0  0  0  0  0  0  0  0  0  0  0  0
   -0.3572   -1.6500    0.0000 O   0  0  0  0  0  0  0  0  0  0  0  0
    0.3572    0.4125    0.0000 C   0  0  0  0  0  0  0  0  0  0  0  0
    0.3572    1.2375    0.0000 N   0  0  0  0  0  0  0  0  0  0  0  0
    1.7861    0.4125    0.0000 C   0  0  0  0  0  0  0  0  0  0  0  0
  1  2  1  0
  2  3  2  0
  2 23  1  0
  3  4  1  0
  3  5  1  0
  5  6  2  0
  6  7  1  0
  7  8  1  0
  7 23  2  0
  8  9  2  0
  9 10  1  0
  9 21  1  0
 10 11  1  0
 10 20  2  0
 12 11  1  0
 12 13  1  6
 12 14  1  0
 14 15  2  0
 14 19  1  0
 15 16  1  0
 16 17  2  0
 17 18  1  0
 18 19  2  0
 21 22  3  0
M  END
>  <DRUGBANK_ID>  (1) 
DB16762

>  <COMMON_NAME>  (1) 
Tyrphostin B44

>  <CAS_NUMBER>  (1) 
133550-32-0

>  <SYNONYMS>  (1) 
AG 527; AG527; Tyrphostin AG 527; Tyrphostin B-44; Tyrphostin B44, (-) enantiomer; Tyrphostin B44(-)

$$$$
