
     RDKit          2D

 19 22  0  0  0  0  0  0  0  0999 V2000
    0.8838   -2.1500    0.0000 C   0  0  0  0  0  0  0  0  0  0  0  0
    0.0768   -2.3215    0.0000 C   0  0  0  0  0  0  0  0  0  0  0  0
   -0.2587   -3.0752    0.0000 C   0  0  0  0  0  0  0  0  0  0  0  0
   -1.0792   -2.9890    0.0000 N   0  0  0  0  0  0  0  0  0  0  0  0
   -1.2508   -2.1820    0.0000 C   0  0  0  0  0  0  0  0  0  0  0  0
   -1.9652   -1.7695    0.0000 C   0  0  0  0  0  0  0  0  0  0  0  0
   -1.9652   -0.9445    0.0000 C   0  0  0  0  0  0  0  0  0  0  0  0
   -1.2508   -0.5320    0.0000 C   0  0  0  0  0  0  0  0  0  0  0  0
   -0.5363   -0.9445    0.0000 C   0  0  0  0  0  0  0  0  0  0  0  0
   -0.5363   -1.7695    0.0000 C   0  0  0  0  0  0  0  0  0  0  0  0
    1.1387   -1.3654    0.0000 C   0  0  0  0  0  0  0  0  0  0  0  0
    0.6538   -0.6979    0.0000 C   0  0  0  0  0  0  0  0  0  0  0  0
    1.1387   -0.0305    0.0000 N   0  0  0  0  0  0  0  0  0  0  0  0
    1.9233   -0.2854    0.0000 C   0  0  0  0  0  0  0  0  0  0  0  0
    2.6378    0.1271    0.0000 C   0  0  0  0  0  0  0  0  0  0  0  0
    3.3523   -0.2854    0.0000 C   0  0  0  0  0  0  0  0  0  0  0  0
    3.3523   -1.1104    0.0000 C   0  0  0  0  0  0  0  0  0  0  0  0
    2.6378   -1.5229    0.0000 C   0  0  0  0  0  0  0  0  0  0  0  0
    1.9233   -1.1104    0.0000 C   0  0  0  0  0  0  0  0  0  0  0  0
  1  2  1  0
  1 11  1  0
  2  3  2  0
  2 10  1  0
  3  4  1  0
  4  5  1  0
  5  6  1  0
  5 10  2  0
  6  7  2  0
  7  8  1  0
  8  9  2  0
  9 10  1  0
 11 12  2  0
 11 19  1  0
 12 13  1  0
 13 14  1  0
 14 15  1  0
 14 19  2  0
 15 16  2  0
 16 17  1  0
 17 18  2  0
 18 19  1  0
M  END
>  <DRUGBANK_ID>  (1) 
DB11875

>  <COMMON_NAME>  (1) 
3,3'-diindolylmethane

>  <CAS_NUMBER>  (1) 
1968-05-4

>  <UNII>  (1) 
SSZ9HQT61Z

>  <SYNONYMS>  (1) 
Diindolylmethane

$$$$
