
     RDKit          2D

 25 24  0  0  0  0  0  0  0  0999 V2000
    2.9439    0.7615    0.0000 C   0  0  0  0  0  0  0  0  0  0  0  0
    2.4589    1.4289    0.0000 C   0  0  0  0  0  0  0  0  0  0  0  0
    2.9439    2.0963    0.0000 N   0  0  0  0  0  0  0  0  0  0  0  0
    3.7285    1.8414    0.0000 C   0  0  0  0  0  0  0  0  0  0  0  0
    3.7285    1.0164    0.0000 N   0  0  0  0  0  0  0  0  0  0  0  0
    1.6339    1.4289    0.0000 C   0  0  0  0  0  0  0  0  0  0  0  0
    1.2214    0.7144    0.0000 C   0  0  0  0  0  0  0  0  0  0  0  0
    0.3964    0.7144    0.0000 C   0  0  0  0  0  0  0  0  0  0  0  0
   -0.0160    1.4289    0.0000 O   0  0  0  0  0  0  0  0  0  0  0  0
   -0.0160    0.0000    0.0000 N   0  0  0  0  0  0  0  0  0  0  0  0
   -0.8410    0.0000    0.0000 C   0  0  0  0  0  0  0  0  0  0  0  0
   -1.2535   -0.7144    0.0000 C   0  0  0  0  0  0  0  0  0  0  0  0
   -2.0785   -0.7144    0.0000 C   0  0  0  0  0  0  0  0  0  0  0  0
   -2.4910   -1.4289    0.0000 C   0  0  0  0  0  0  0  0  0  0  0  0
   -3.3160   -1.4289    0.0000 C   0  0  0  0  0  0  0  0  0  0  0  0
   -3.7285   -2.1434    0.0000 N   0  0  0  0  0  0  0  0  0  0  0  0
   -1.2535    0.7144    0.0000 C   0  0  0  0  0  0  0  0  0  0  0  0
   -2.0785    0.7144    0.0000 O   0  0  0  0  0  0  0  0  0  0  0  0
   -0.8410    1.4289    0.0000 O   0  0  0  0  0  0  0  0  0  0  0  0
    1.6339    0.0000    0.0000 N   0  0  0  0  0  0  0  0  0  0  0  0
    1.2214   -0.7144    0.0000 C   0  0  0  0  0  0  0  0  0  0  0  0
    0.3964   -0.7144    0.0000 O   0  0  0  0  0  0  0  0  0  0  0  0
    1.6339   -1.4289    0.0000 C   0  0  0  0  0  0  0  0  0  0  0  0
    1.2214   -2.1434    0.0000 N   0  0  0  0  0  0  0  0  0  0  0  0
   -0.4285    2.1434    0.0000 Cu  0  0  0  0  0 15  0  0  0  0  0  0
  1  2  2  0
  1  5  1  0
  2  3  1  0
  2  6  1  0
  3  4  1  0
  4  5  2  0
  7  6  1  6
  7  8  1  0
  7 20  1  0
  8  9  2  0
  8 10  1  0
 11 10  1  0
 11 12  1  1
 11 17  1  0
 12 13  1  0
 13 14  1  0
 14 15  1  0
 15 16  1  0
 17 18  2  0
 17 19  1  0
 20 21  1  0
 21 22  2  0
 21 23  1  0
 23 24  1  0
M  CHG  2  19  -1  25   2
M  END
>  <DRUGBANK_ID>  (1) 
DB14683

>  <SECONDARY_ACCESSION_NUMBERS>  (1) 
DBSALT002419

>  <COMMON_NAME>  (1) 
Prezatide copper

>  <CAS_NUMBER>  (1) 
89030-95-5

>  <UNII>  (1) 
6BJQ43T1I9

>  <SYNONYMS>  (1) 
CG-copper peptide; Copper tripeptide-1; GHK complex with copper; GHK copper

$$$$
