
     RDKit          2D

 26 28  0  0  0  0  0  0  0  0999 V2000
    6.3345    1.0747    0.0000 S   0  0  0  0  0  0  0  0  0  0  0  0
    4.2381   -1.8853    0.0000 O   0  0  0  0  0  0  0  0  0  0  0  0
    5.6670   -2.7103    0.0000 O   0  0  0  0  0  0  0  0  0  0  0  0
    2.1587    3.6892    0.0000 O   0  0  0  0  0  0  0  0  0  0  0  0
    2.3082    2.2681    0.0000 O   0  0  0  0  0  0  0  0  0  0  0  0
    4.9996    1.0747    0.0000 N   0  0  0  0  0  0  0  0  0  0  0  0
    3.9491    2.4405    0.0000 N   0  0  0  0  0  0  0  0  0  0  0  0
    5.6670   -0.2353    0.0000 C   0  0  0  0  0  0  0  0  0  0  0  0
    4.9526   -1.4728    0.0000 C   0  0  0  0  0  0  0  0  0  0  0  0
    4.9526   -0.6478    0.0000 C   0  0  0  0  0  0  0  0  0  0  0  0
    5.6670   -1.8853    0.0000 C   0  0  0  0  0  0  0  0  0  0  0  0
    5.6670    0.5897    0.0000 C   0  0  0  0  0  0  0  0  0  0  0  0
    6.3815   -0.6478    0.0000 C   0  0  0  0  0  0  0  0  0  0  0  0
    6.3815   -1.4728    0.0000 C   0  0  0  0  0  0  0  0  0  0  0  0
    5.2545    1.8593    0.0000 C   0  0  0  0  0  0  0  0  0  0  0  0
    4.7696    2.5267    0.0000 C   0  0  0  0  0  0  0  0  0  0  0  0
    6.0796    1.8593    0.0000 C   0  0  0  0  0  0  0  0  0  0  0  0
    3.5236   -1.4728    0.0000 C   0  0  0  0  0  0  0  0  0  0  0  0
    6.3815   -3.1229    0.0000 C   0  0  0  0  0  0  0  0  0  0  0  0
    5.1052    3.2804    0.0000 C   0  0  0  0  0  0  0  0  0  0  0  0
    3.4642    3.1079    0.0000 C   0  0  0  0  0  0  0  0  0  0  0  0
    2.8091   -1.8853    0.0000 C   0  0  0  0  0  0  0  0  0  0  0  0
    4.6203    3.9479    0.0000 C   0  0  0  0  0  0  0  0  0  0  0  0
    6.3815   -3.9479    0.0000 C   0  0  0  0  0  0  0  0  0  0  0  0
    3.7997    3.8617    0.0000 C   0  0  0  0  0  0  0  0  0  0  0  0
    2.6437    3.0217    0.0000 C   0  0  0  0  0  0  0  0  0  0  0  0
  1 12  1  0
  1 17  1  0
  2  9  1  0
  2 18  1  0
  3 11  1  0
  3 19  1  0
  4 26  1  0
  5 26  2  0
  6 12  2  0
  6 15  1  0
  7 16  2  0
  7 21  1  0
  8 10  1  0
  8 12  1  0
  8 13  2  0
  9 10  2  0
  9 11  1  0
 11 14  2  0
 13 14  1  0
 15 16  1  0
 15 17  2  0
 16 20  1  0
 18 22  1  0
 19 24  1  0
 20 23  2  0
 21 25  2  0
 21 26  1  0
 23 25  1  0
M  END
>  <DRUGBANK_ID>  (1) 
DB05298

>  <SECONDARY_ACCESSION_NUMBERS>  (1) 
DB12166

>  <COMMON_NAME>  (1) 
Tetomilast

>  <CAS_NUMBER>  (1) 
145739-56-6

>  <UNII>  (1) 
S6RXB5KF56

>  <SYNONYMS>  (1) 
Tetomilast

$$$$
