
     RDKit          2D

 23 27  0  0  0  0  0  0  0  0999 V2000
    6.1696    1.7541    0.0000 C   0  0  0  0  0  0  0  0  0  0  0  0
    3.8496    5.7724    0.0000 C   0  0  0  0  0  0  0  0  0  0  0  0
    5.3812    1.5109    0.0000 C   0  0  0  0  0  0  0  0  0  0  0  0
    3.2448    5.2113    0.0000 C   0  0  0  0  0  0  0  0  0  0  0  0
    6.3531    2.5584    0.0000 C   0  0  0  0  0  0  0  0  0  0  0  0
    4.6379    5.5292    0.0000 C   0  0  0  0  0  0  0  0  0  0  0  0
    4.7764    2.0720    0.0000 C   0  0  0  0  0  0  0  0  0  0  0  0
    3.4284    4.4070    0.0000 C   0  0  0  0  0  0  0  0  0  0  0  0
    6.0498    3.8875    0.0000 C   0  0  0  0  0  0  0  0  0  0  0  0
    5.6373    4.6020    0.0000 C   0  0  0  0  0  0  0  0  0  0  0  0
    2.1350    2.9286    0.0000 C   0  0  0  0  0  0  0  0  0  0  0  0
    2.9869    2.7911    0.0000 C   0  0  0  0  0  0  0  0  0  0  0  0
    2.1350    2.1036    0.0000 C   0  0  0  0  0  0  0  0  0  0  0  0
    2.9869    2.2411    0.0000 C   0  0  0  0  0  0  0  0  0  0  0  0
    3.5639    2.1036    0.0000 C   0  0  0  0  0  0  0  0  0  0  0  0
    5.7484    3.1195    0.0000 C   0  0  0  0  0  0  0  0  0  0  0  0
    4.8215    4.7249    0.0000 C   0  0  0  0  0  0  0  0  0  0  0  0
    2.8494    3.3411    0.0000 C   0  0  0  0  0  0  0  0  0  0  0  0
    4.9600    2.8763    0.0000 C   0  0  0  0  0  0  0  0  0  0  0  0
    4.2167    4.1638    0.0000 C   0  0  0  0  0  0  0  0  0  0  0  0
    3.5639    2.9286    0.0000 C   0  0  0  0  0  0  0  0  0  0  0  0
    2.8494    1.6911    0.0000 N   0  0  0  0  0  0  0  0  0  0  0  0
    4.2784    3.3411    0.0000 N   0  0  0  0  0  0  0  0  0  0  0  0
  3  1  2  0
  4  2  2  0
  5  1  1  0
  6  2  1  0
  7  3  1  0
  8  4  1  0
 10  9  1  0
 13 11  1  0
 14 12  1  0
 16  5  2  0
 16  9  1  0
 17  6  2  0
 17 10  1  0
 18 11  1  0
 18 12  1  0
 19  7  2  0
 19 16  1  0
 20  8  2  0
 20 17  1  0
 21 15  1  0
 21 18  1  0
 22 13  1  0
 22 14  1  0
 22 15  1  0
 23 19  1  0
 23 20  1  0
 23 21  1  0
M  END
>  <DRUGBANK_ID>  (1) 
DB13246

>  <COMMON_NAME>  (1) 
Quinupramine

>  <CAS_NUMBER>  (1) 
31721-17-2

>  <UNII>  (1) 
29O61HFF4L

>  <SYNONYMS>  (1) 
Quinupramine

$$$$
