641
     RDKit          2D

 23 25  0  0  0  0  0  0  0  0999 V2000
    3.8924    0.6430    0.0000 C   0  0  0  0  0  0  0  0  0  0  0  0
    3.4075    1.3105    0.0000 C   0  0  0  0  0  0  0  0  0  0  0  0
    2.5870    1.2242    0.0000 C   0  0  0  0  0  0  0  0  0  0  0  0
    2.2515    0.4705    0.0000 C   0  0  0  0  0  0  0  0  0  0  0  0
    2.7364   -0.1969    0.0000 C   0  0  0  0  0  0  0  0  0  0  0  0
    3.5569   -0.1107    0.0000 C   0  0  0  0  0  0  0  0  0  0  0  0
    2.3570    2.6763    0.0000 C   0  0  0  0  0  0  0  0  0  0  0  0
    1.6896    3.1612    0.0000 C   0  0  0  0  0  0  0  0  0  0  0  0
    1.0222    2.6763    0.0000 C   0  0  0  0  0  0  0  0  0  0  0  0
    1.2771    1.8917    0.0000 C   0  0  0  0  0  0  0  0  0  0  0  0
    2.1021    1.8917    0.0000 N   0  0  0  0  0  0  0  0  0  0  0  0
    0.2375    2.9312    0.0000 C   0  0  0  0  0  0  0  0  0  0  0  0
    0.0660    3.7382    0.0000 N   0  0  0  0  0  0  0  0  0  0  0  0
   -0.3756    2.3792    0.0000 O   0  0  0  0  0  0  0  0  0  0  0  0
    3.1417    2.9312    0.0000 O   0  0  0  0  0  0  0  0  0  0  0  0
   -0.7186    3.9931    0.0000 C   0  0  0  0  0  0  0  0  0  0  0  0
   -0.8901    4.8001    0.0000 C   0  0  0  0  0  0  0  0  0  0  0  0
   -1.6748    5.0550    0.0000 C   0  0  0  0  0  0  0  0  0  0  0  0
   -1.8463    5.8620    0.0000 Cl  0  0  0  0  0  0  0  0  0  0  0  0
   -2.2879    4.5030    0.0000 C   0  0  0  0  0  0  0  0  0  0  0  0
   -2.1163    3.6960    0.0000 C   0  0  0  0  0  0  0  0  0  0  0  0
   -1.3317    3.4411    0.0000 C   0  0  0  0  0  0  0  0  0  0  0  0
   -2.7294    3.1440    0.0000 Cl  0  0  0  0  0  0  0  0  0  0  0  0
  1  6  1  0
  1  2  1  0
  2  3  1  0
  3 11  1  0
  3  4  1  0
  4  5  1  0
  5  6  1  0
  7 11  1  0
  7 15  2  0
  7  8  1  0
  8  9  1  0
  9 12  1  1
  9 10  1  0
 10 11  1  0
 12 13  1  0
 12 14  2  0
 13 16  1  0
 16 22  1  0
 16 17  2  0
 17 18  1  0
 18 20  2  0
 18 19  1  0
 20 21  1  0
 21 22  2  0
 21 23  1  0
M  END
>  <DRUGBANK_ID>  (1) 
DB07188

>  <COMMON_NAME>  (1) 
(3S)-1-CYCLOHEXYL-N-(3,5-DICHLOROPHENYL)-5-OXOPYRROLIDINE-3-CARBOXAMIDE

$$$$
