
     RDKit          2D

 29 31  0  0  0  0  0  0  0  0999 V2000
   -3.0214    0.3046    0.0000 N   0  0  0  0  0  0  0  0  0  0  0  0
   -3.8352    0.4799    0.0000 C   0  0  0  0  0  0  0  0  0  0  0  0
   -2.9338   -0.5174    0.0000 C   0  0  0  0  0  0  0  0  0  0  0  0
   -3.6892   -0.8472    0.0000 S   0  0  0  0  0  0  0  0  0  0  0  0
   -4.2484   -0.2337    0.0000 C   0  0  0  0  0  0  0  0  0  0  0  0
    3.5014   -0.9098    0.0000 C   0  0  0  0  0  0  0  0  0  0  0  0
    4.2150   -0.4966    0.0000 C   0  0  0  0  0  0  0  0  0  0  0  0
    2.0741   -0.9180    0.0000 C   0  0  0  0  0  0  0  0  0  0  0  0
   -2.2201   -0.9306    0.0000 C   0  0  0  0  0  0  0  0  0  0  0  0
    1.3563   -0.5091    0.0000 N   0  0  0  0  0  0  0  0  0  0  0  0
    2.7878   -0.5049    0.0000 C   0  0  0  0  0  0  0  0  0  0  0  0
   -1.5065   -0.5174    0.0000 C   0  0  0  0  0  0  0  0  0  0  0  0
    4.2150    0.3297    0.0000 O   0  0  0  0  0  0  0  0  0  0  0  0
    2.0741   -1.7444    0.0000 O   0  0  0  0  0  0  0  0  0  0  0  0
    0.6427   -0.9223    0.0000 C   0  0  0  0  0  0  0  0  0  0  0  0
   -4.1650    1.2310    0.0000 C   0  0  0  0  0  0  0  0  0  0  0  0
   -0.7929   -0.9306    0.0000 C   0  0  0  0  0  0  0  0  0  0  0  0
   -0.0792   -0.5091    0.0000 C   0  0  0  0  0  0  0  0  0  0  0  0
    4.9370   -0.9098    0.0000 O   0  0  0  0  0  0  0  0  0  0  0  0
    4.0899   -1.4982    0.0000 C   0  0  0  0  0  0  0  0  0  0  0  0
    2.9129   -1.4982    0.0000 C   0  0  0  0  0  0  0  0  0  0  0  0
   -0.0792   -2.1701    0.0000 C   0  0  0  0  0  0  0  0  0  0  0  0
   -4.6407    2.2953    0.0000 C   0  0  0  0  0  0  0  0  0  0  0  0
    0.6427   -1.7570    0.0000 C   0  0  0  0  0  0  0  0  0  0  0  0
   -3.8729    1.9990    0.0000 C   0  0  0  0  0  0  0  0  0  0  0  0
   -4.9370    1.5233    0.0000 C   0  0  0  0  0  0  0  0  0  0  0  0
   -0.7929   -1.7570    0.0000 C   0  0  0  0  0  0  0  0  0  0  0  0
    3.8770   -2.2953    0.0000 C   0  0  0  0  0  0  0  0  0  0  0  0
    3.1259   -2.2953    0.0000 C   0  0  0  0  0  0  0  0  0  0  0  0
  2  1  1  0
  3  1  2  0
  4  3  1  0
  5  2  2  0
  5  4  1  0
  6 11  1  0
  7  6  1  0
  8 10  1  0
  9  3  1  0
 10 15  1  0
 11  8  1  0
 12  9  2  0
 13  7  2  0
 14  8  2  0
 15 18  2  0
 16  2  1  0
 17 12  1  0
 18 17  1  0
 19  7  1  0
 20  6  1  0
 21  6  1  0
 22 27  1  0
 23 26  1  0
 24 22  2  0
 24 15  1  0
 25 16  1  0
 25 23  1  0
 26 16  1  0
 27 17  2  0
 28 20  1  0
 29 21  1  0
M  END
>  <DRUGBANK_ID>  (1) 
DB00587

>  <SECONDARY_ACCESSION_NUMBERS>  (1) 
APRD00637

>  <COMMON_NAME>  (1) 
Cinalukast

>  <CAS_NUMBER>  (1) 
128312-51-6

>  <UNII>  (1) 
5E1O433QAI

>  <SYNONYMS>  (1) 
3'-((E)-2-(4-cyclobutyl-2-thiazolyl)vinyl)-2,2-diethylsuccinanilic acid; Cinalukast

$$$$
