
     RDKit          2D

 19 21  0  0  0  0  0  0  0  0999 V2000
   -1.5279    2.1271    0.0000 C   0  0  0  0  0  0  0  0  0  0  0  0
    4.0414    1.7573    0.0000 C   0  0  0  0  0  0  0  0  0  0  0  0
    3.2568    2.0122    0.0000 C   0  0  0  0  0  0  0  0  0  0  0  0
    4.0414    0.9323    0.0000 C   0  0  0  0  0  0  0  0  0  0  0  0
   -0.7310    2.3406    0.0000 C   0  0  0  0  0  0  0  0  0  0  0  0
    2.7719    1.3448    0.0000 C   0  0  0  0  0  0  0  0  0  0  0  0
   -0.1477    1.7573    0.0000 C   0  0  0  0  0  0  0  0  0  0  0  0
    1.4620    0.6773    0.0000 C   0  0  0  0  0  0  0  0  0  0  0  0
    1.9469    1.3448    0.0000 C   0  0  0  0  0  0  0  0  0  0  0  0
   -0.1477    0.9323    0.0000 C   0  0  0  0  0  0  0  0  0  0  0  0
    0.6773    1.7573    0.0000 C   0  0  0  0  0  0  0  0  0  0  0  0
    1.7169   -0.1073    0.0000 C   0  0  0  0  0  0  0  0  0  0  0  0
    0.6773    0.9323    0.0000 N   0  0  0  0  0  0  0  0  0  0  0  0
   -0.5175    3.1375    0.0000 O   0  0  0  0  0  0  0  0  0  0  0  0
   -0.7310    0.3489    0.0000 O   0  0  0  0  0  0  0  0  0  0  0  0
    1.1649   -0.7204    0.0000 O   0  0  0  0  0  0  0  0  0  0  0  0
    2.5239   -0.2788    0.0000 O   0  0  0  0  0  0  0  0  0  0  0  0
    3.2568    0.6773    0.0000 O   0  0  0  0  0  0  0  0  0  0  0  0
    1.4620    2.0122    0.0000 S   0  0  0  0  0  0  0  0  0  0  0  0
  3  2  1  0
  4  2  1  0
  5  1  1  1
  5 14  1  0
  6  3  1  0
  6  9  1  1
  7  5  1  0
  9  8  2  0
  7 10  1  6
 11  7  1  0
 12  8  1  0
 13  8  1  0
 13 10  1  0
 13 11  1  0
 15 10  2  0
 16 12  2  0
 17 12  1  0
 18  4  1  0
 18  6  1  0
 19  9  1  0
 11 19  1  1
M  END
>  <DRUGBANK_ID>  (1) 
DB12190

>  <COMMON_NAME>  (1) 
Faropenem

>  <CAS_NUMBER>  (1) 
106560-14-9

>  <UNII>  (1) 
F52Y83BGH3

>  <SYNONYMS>  (1) 
Faropenem

$$$$
