
     RDKit          2D

 13 13  0  0  0  0  0  0  0  0999 V2000
   -1.4324    0.2089    0.0000 C   0  0  0  0  0  0  0  0  0  0  0  0
   -1.4324   -0.6203    0.0000 C   0  0  0  0  0  0  0  0  0  0  0  0
   -0.7167   -1.0306    0.0000 C   0  0  0  0  0  0  0  0  0  0  0  0
   -0.0011   -0.6203    0.0000 C   0  0  0  0  0  0  0  0  0  0  0  0
   -0.0011    0.2089    0.0000 C   0  0  0  0  0  0  0  0  0  0  0  0
   -0.7167    0.6277    0.0000 C   0  0  0  0  0  0  0  0  0  0  0  0
    0.7125   -1.0338    0.0000 C   0  0  0  0  0  0  0  0  0  0  0  0
    1.4324    1.8545    0.0000 O   0  0  0  0  0  0  0  0  0  0  0  0
    0.7113   -1.8588    0.0000 O   0  0  0  0  0  0  0  0  0  0  0  0
    0.0036    1.8588    0.0000 O   0  0  0  0  0  0  0  0  0  0  0  0
    1.4276   -0.6224    0.0000 O   0  0  0  0  0  0  0  0  0  0  0  0
    0.7143    0.6192    0.0000 O   0  0  0  0  0  0  0  0  0  0  0  0
    0.7167    1.4441    0.0000 P   0  0  0  0  0  0  0  0  0  0  0  0
  1  2  2  0
  1  6  1  0
  2  3  1  0
  3  4  2  0
  4  5  1  0
  4  7  1  0
  5  6  2  0
  5 12  1  0
  7  9  2  0
  7 11  1  0
  8 13  1  0
 10 13  2  0
 12 13  1  0
M  CHG  2   8  -1  11  -1
M  END
>  <DRUGBANK_ID>  (1) 
DB04340

>  <SECONDARY_ACCESSION_NUMBERS>  (1) 
EXPT00140

>  <COMMON_NAME>  (1) 
2-[(Dioxidophosphoranyl)oxy]benzoate

$$$$
