QUE
     RDKit          2D

 22 24  0  0  0  0  0  0  0  0999 V2000
   -2.6029   -0.7737    0.0000 C   0  0  0  0  0  0  0  0  0  0  0  0
   -1.8884   -1.1862    0.0000 C   0  0  0  0  0  0  0  0  0  0  0  0
   -1.1740   -0.7737    0.0000 C   0  0  0  0  0  0  0  0  0  0  0  0
   -1.1740    0.0513    0.0000 C   0  0  0  0  0  0  0  0  0  0  0  0
   -1.8884    0.4638    0.0000 C   0  0  0  0  0  0  0  0  0  0  0  0
   -2.6029    0.0513    0.0000 C   0  0  0  0  0  0  0  0  0  0  0  0
   -0.4595   -1.1862    0.0000 C   0  0  0  0  0  0  0  0  0  0  0  0
    0.2550   -0.7737    0.0000 C   0  0  0  0  0  0  0  0  0  0  0  0
    0.2550    0.0513    0.0000 C   0  0  0  0  0  0  0  0  0  0  0  0
    0.9695    0.4638    0.0000 C   0  0  0  0  0  0  0  0  0  0  0  0
    0.9695    1.2888    0.0000 C   0  0  0  0  0  0  0  0  0  0  0  0
    1.6839    1.7013    0.0000 C   0  0  0  0  0  0  0  0  0  0  0  0
    2.3984    1.2888    0.0000 C   0  0  0  0  0  0  0  0  0  0  0  0
    2.3984    0.4638    0.0000 C   0  0  0  0  0  0  0  0  0  0  0  0
    1.6839    0.0513    0.0000 C   0  0  0  0  0  0  0  0  0  0  0  0
   -0.4595    0.4638    0.0000 O   0  0  0  0  0  0  0  0  0  0  0  0
   -0.4595   -2.0112    0.0000 O   0  0  0  0  0  0  0  0  0  0  0  0
    3.1129    0.0513    0.0000 O   0  0  0  0  0  0  0  0  0  0  0  0
    3.1129    1.7013    0.0000 O   0  0  0  0  0  0  0  0  0  0  0  0
    0.9695   -1.1862    0.0000 O   0  0  0  0  0  0  0  0  0  0  0  0
   -3.3174    0.4638    0.0000 O   0  0  0  0  0  0  0  0  0  0  0  0
   -1.8884   -2.0112    0.0000 O   0  0  0  0  0  0  0  0  0  0  0  0
  1  2  2  0
  1  6  1  0
  2  3  1  0
  2 22  1  0
  3  4  2  0
  3  7  1  0
  4  5  1  0
  4 16  1  0
  5  6  2  0
  6 21  1  0
  7  8  1  0
  7 17  2  0
  8  9  2  0
  8 20  1  0
  9 10  1  0
  9 16  1  0
 10 11  2  0
 10 15  1  0
 11 12  1  0
 12 13  2  0
 13 14  1  0
 13 19  1  0
 14 15  2  0
 14 18  1  0
M  END
>  <DRUGBANK_ID>  (1) 
DB04216

>  <SECONDARY_ACCESSION_NUMBERS>  (1) 
EXPT02732

>  <COMMON_NAME>  (1) 
Quercetin

>  <CAS_NUMBER>  (1) 
117-39-5

>  <UNII>  (1) 
9IKM0I5T1E

>  <SYNONYMS>  (1) 
2-(3,4-dihydroxyphenyl)-3,5,7-trihydroxy-4H-1-benzopyran-4-one; 3,3',4',5,7-pentahydroxyflavone; 3,5,7,3',4'-Pentahydroxyflavone; 3'-HYDROXYKAEMPFEROL; FLAVONE, 3,3',4',5,7-PENTAHYDROXY-; poly (lactide-co-glycolide)-polyethylene glycol nanoparticles encapsulating quercetin; Sophoretin; Xanthaurine

$$$$
