N3P
     RDKit          2D

 25 27  0  0  0  0  0  0  0  0999 V2000
   -1.0792   -3.3605    0.0000 C   0  0  0  0  0  0  0  0  0  0  0  0
   -1.0792   -2.5355    0.0000 C   0  0  0  0  0  0  0  0  0  0  0  0
    5.3510   -2.1230    0.0000 C   0  0  0  0  0  0  0  0  0  0  0  0
    4.6365   -0.8855    0.0000 C   0  0  0  0  0  0  0  0  0  0  0  0
    4.6365   -2.5355    0.0000 C   0  0  0  0  0  0  0  0  0  0  0  0
    3.9221   -1.2980    0.0000 C   0  0  0  0  0  0  0  0  0  0  0  0
   -0.3647   -3.7730    0.0000 C   0  0  0  0  0  0  0  0  0  0  0  0
   -0.3647   -2.1230    0.0000 C   0  0  0  0  0  0  0  0  0  0  0  0
    1.0642   -3.7730    0.0000 C   0  0  0  0  0  0  0  0  0  0  0  0
    1.0642   -2.1230    0.0000 C   0  0  0  0  0  0  0  0  0  0  0  0
    2.4931   -2.1230    0.0000 C   0  0  0  0  0  0  0  0  0  0  0  0
    5.3510   -1.2980    0.0000 C   0  0  0  0  0  0  0  0  0  0  0  0
    3.9221   -2.1230    0.0000 C   0  0  0  0  0  0  0  0  0  0  0  0
    1.7787   -3.3605    0.0000 C   0  0  0  0  0  0  0  0  0  0  0  0
    1.7787   -2.5355    0.0000 C   0  0  0  0  0  0  0  0  0  0  0  0
    0.3497   -3.3605    0.0000 C   0  0  0  0  0  0  0  0  0  0  0  0
    0.3497   -2.5355    0.0000 C   0  0  0  0  0  0  0  0  0  0  0  0
    3.2076   -2.5355    0.0000 N   0  0  0  0  0  0  0  0  0  0  0  0
    2.4931   -1.2980    0.0000 O   0  0  0  0  0  0  0  0  0  0  0  0
    1.6681   -4.5980    0.0000 O   0  0  0  0  0  0  0  0  0  0  0  0
    3.3181   -4.5980    0.0000 O   0  0  0  0  0  0  0  0  0  0  0  0
    2.4931   -5.4230    0.0000 O   0  0  0  0  0  0  0  0  0  0  0  0
    2.4931   -3.7730    0.0000 O   0  0  0  0  0  0  0  0  0  0  0  0
    6.0655   -0.8855    0.0000 Cl  0  0  0  0  0  0  0  0  0  0  0  0
    2.4931   -4.5980    0.0000 P   0  0  0  0  0  0  0  0  0  0  0  0
  1  2  2  0
  1  7  1  0
  2  8  1  0
  3  5  2  0
  3 12  1  0
  4  6  1  0
  4 12  2  0
  5 13  1  0
  6 13  2  0
  7 16  2  0
  8 17  2  0
  9 16  1  0
  9 14  2  0
 10 17  1  0
 10 15  2  0
 11 19  2  0
 11 15  1  0
 11 18  1  0
 12 24  1  0
 13 18  1  0
 14 15  1  0
 14 23  1  0
 16 17  1  0
 20 25  2  0
 21 25  1  0
 22 25  1  0
 23 25  1  0
M  END
>  <DRUGBANK_ID>  (1) 
DB08240

>  <COMMON_NAME>  (1) 
N-(4-CHLOROPHENYL)-3-(PHOSPHONOOXY)NAPHTHALENE-2-CARBOXAMIDE

>  <UNII>  (1) 
H6R6B93QFC

$$$$
