
     RDKit          2D

 23 26  0  0  1  0  0  0  0  0999 V2000
   -0.7145   -0.4125    0.0000 C   0  0  0  0  0  0  0  0  0  0  0  0
   -0.7145   -1.2375    0.0000 C   0  0  0  0  0  0  0  0  0  0  0  0
    0.0000   -1.6500    0.0000 C   0  0  0  0  0  0  0  0  0  0  0  0
    0.7145   -1.2375    0.0000 C   0  0  0  0  0  0  0  0  0  0  0  0
    0.7145   -0.4125    0.0000 C   0  0  0  0  0  0  0  0  0  0  0  0
    0.0000   -0.0000    0.0000 C   0  0  0  0  0  0  0  0  0  0  0  0
    0.0000    0.8250    0.0000 C   0  0  0  0  0  0  0  0  0  0  0  0
   -0.7145    1.2375    0.0000 O   0  0  0  0  0  0  0  0  0  0  0  0
    0.7145    1.2375    0.0000 N   0  0  0  0  0  0  0  0  0  0  0  0
    1.4289   -0.0000    0.0000 C   0  0  0  0  0  0  0  0  0  0  0  0
    2.1434   -0.4125    0.0000 C   0  0  0  0  0  0  0  0  0  0  0  0
    2.1434   -1.2375    0.0000 C   0  0  0  0  0  0  0  0  0  0  0  0
    1.4289   -1.6500    0.0000 O   0  0  0  0  0  0  0  0  0  0  0  0
    2.8579   -0.0000    0.0000 N   0  0  0  0  0  0  0  0  0  0  0  0
    3.5724   -0.4125    0.0000 C   0  0  0  0  0  0  0  0  0  0  0  0
    4.3692   -0.1990    0.0000 C   0  0  0  0  0  0  0  0  0  0  0  0
    4.5828   -0.9959    0.0000 C   0  0  0  0  0  0  0  0  0  0  0  0
    3.7859   -1.2094    0.0000 C   0  0  0  0  0  0  0  0  0  0  0  0
    2.8579    0.8250    0.0000 C   0  0  0  0  0  0  0  0  0  0  0  0
    2.2745    1.4084    0.0000 C   0  0  0  0  0  0  0  0  0  0  0  0
    2.8579    1.9917    0.0000 C   0  0  0  0  0  0  0  0  0  0  0  0
    3.4412    1.4084    0.0000 C   0  0  0  0  0  0  0  0  0  0  0  0
    0.0000   -2.4750    0.0000 F   0  0  0  0  0  0  0  0  0  0  0  0
  1  2  2  0
  1  6  1  0
  2  3  1  0
  3  4  2  0
  3 23  1  0
  4  5  1  0
  4 13  1  0
  5  6  2  0
  5 10  1  0
  6  7  1  0
  7  8  2  0
  7  9  1  0
 10 11  1  0
 11 12  1  0
 11 14  1  1
 12 13  1  0
 14 15  1  0
 14 19  1  0
 15 16  1  0
 15 18  1  0
 16 17  1  0
 17 18  1  0
 19 20  1  0
 19 22  1  0
 20 21  1  0
 21 22  1  0
M  END
>  <DRUGBANK_ID>  (1) 
DB06538

>  <COMMON_NAME>  (1) 
Robalzotan

>  <CAS_NUMBER>  (1) 
169758-66-1

>  <UNII>  (1) 
I18M56OGME

>  <SYNONYMS>  (1) 
(R)-3-(Dicyclobutylamino)-8-fluoro-5-chromancarboxamide; Robalzotan

$$$$
