
     RDKit          2D

 28 30  0  0  0  0  0  0  0  0999 V2000
    2.0990   -2.3952    0.0000 C   0  0  0  0  0  0  0  0  0  0  0  0
    1.5048    0.4002    0.0000 C   0  0  0  0  0  0  0  0  0  0  0  0
   -1.9947   -1.6761    0.0000 C   0  0  0  0  0  0  0  0  0  0  0  0
   -2.7091   -1.2636    0.0000 C   0  0  0  0  0  0  0  0  0  0  0  0
   -1.2802   -1.2636    0.0000 C   0  0  0  0  0  0  0  0  0  0  0  0
   -6.2815   -1.6761    0.0000 C   0  0  0  0  0  0  0  0  0  0  0  0
   -5.5670   -0.4386    0.0000 C   0  0  0  0  0  0  0  0  0  0  0  0
   -6.9960   -0.4386    0.0000 C   0  0  0  0  0  0  0  0  0  0  0  0
   -4.1381   -1.2636    0.0000 C   0  0  0  0  0  0  0  0  0  0  0  0
   -0.4795   -2.4966    0.0000 C   0  0  0  0  0  0  0  0  0  0  0  0
   -5.5670   -1.2636    0.0000 C   0  0  0  0  0  0  0  0  0  0  0  0
   -6.9960   -1.2636    0.0000 C   0  0  0  0  0  0  0  0  0  0  0  0
   -6.2815   -0.0261    0.0000 C   0  0  0  0  0  0  0  0  0  0  0  0
   -4.8525   -1.6761    0.0000 C   0  0  0  0  0  0  0  0  0  0  0  0
    0.1880   -1.3406    0.0000 C   0  0  0  0  0  0  0  0  0  0  0  0
    0.7400   -1.9537    0.0000 C   0  0  0  0  0  0  0  0  0  0  0  0
    0.4429   -0.5560    0.0000 C   0  0  0  0  0  0  0  0  0  0  0  0
    1.8019   -0.9975    0.0000 C   0  0  0  0  0  0  0  0  0  0  0  0
   -3.4236   -1.6761    0.0000 N   0  0  0  0  0  0  0  0  0  0  0  0
    0.3275   -2.6681    0.0000 N   0  0  0  0  0  0  0  0  0  0  0  0
    1.5470   -1.7821    0.0000 N   0  0  0  0  0  0  0  0  0  0  0  0
    1.2499   -0.3844    0.0000 N   0  0  0  0  0  0  0  0  0  0  0  0
   -0.5657   -1.6761    0.0000 N   0  0  0  0  0  0  0  0  0  0  0  0
   -7.7104   -1.6761    0.0000 O   0  0  0  0  0  0  0  0  0  0  0  0
   -6.2815    0.7989    0.0000 O   0  0  0  0  0  0  0  0  0  0  0  0
   -4.8525   -2.5011    0.0000 O   0  0  0  0  0  0  0  0  0  0  0  0
   -0.1091    0.0571    0.0000 O   0  0  0  0  0  0  0  0  0  0  0  0
    2.6089   -0.8260    0.0000 O   0  0  0  0  0  0  0  0  0  0  0  0
  4  3  1  0
  5  3  1  0
 11  6  2  0
 11  7  1  0
 12  6  1  0
 12  8  2  0
 13  7  2  0
 13  8  1  0
 14  9  1  0
 14 11  1  0
 16 15  2  0
 17 15  1  0
 19  4  1  0
 19  9  1  0
 20 10  2  0
 20 16  1  0
 21  1  1  0
 21 16  1  0
 21 18  1  0
 22  2  1  0
 22 17  1  0
 22 18  1  0
 23  5  1  0
 23 10  1  0
 23 15  1  0
 24 12  1  0
 25 13  1  0
 26 14  1  0
 27 17  2  0
 28 18  2  0
M  END
>  <DRUGBANK_ID>  (1) 
DB12846

>  <COMMON_NAME>  (1) 
Reproterol

>  <CAS_NUMBER>  (1) 
54063-54-6

>  <UNII>  (1) 
11941YC6RN

>  <SYNONYMS>  (1) 
7-(3-((2-(3,5-Dihydroxyphenyl)-2-hydroxyethyl)amino)propyl)theophylline; Reproterol; Reproterolum

$$$$
