
     RDKit          2D

 15 15  0  0  0  0  0  0  0  0999 V2000
    0.7145   -0.8250    0.0000 O   0  0  0  0  0  0  0  0  0  0  0  0
   -1.4289    0.4125    0.0000 O   0  0  0  0  0  0  0  0  0  0  0  0
   -1.4289   -1.2375    0.0000 O   0  0  0  0  0  0  0  0  0  0  0  0
    1.4289    0.4125    0.0000 O   0  0  0  0  0  0  0  0  0  0  0  0
    0.7145   -2.4750    0.0000 O   0  0  0  0  0  0  0  0  0  0  0  0
    1.4289    1.2375    0.0000 O   0  0  0  0  0  0  0  0  0  0  0  0
    0.0000    1.2375    0.0000 N   0  0  0  0  0  0  0  0  0  0  0  0
   -0.7144    0.0000    0.0000 C   0  0  0  0  0  0  0  0  0  0  0  0
    0.0000    0.4125    0.0000 C   0  0  0  0  0  0  0  0  0  0  0  0
   -0.7144   -0.8250    0.0000 C   0  0  0  0  0  0  0  0  0  0  0  0
    0.0000   -1.2375    0.0000 C   0  0  0  0  0  0  0  0  0  0  0  0
    0.7145    0.0000    0.0000 C   0  0  0  0  0  0  0  0  0  0  0  0
    0.0000   -2.0625    0.0000 C   0  0  0  0  0  0  0  0  0  0  0  0
    0.7145    1.6500    0.0000 C   0  0  0  0  0  0  0  0  0  0  0  0
    0.7145    2.4750    0.0000 C   0  0  0  0  0  0  0  0  0  0  0  0
  1 11  1  0
  1 12  1  0
  5 13  1  0
  6 14  2  0
  7 14  1  0
  8  2  1  1
  8  9  1  0
  8 10  1  0
  9  7  1  1
  9 12  1  0
 10  3  1  1
 10 11  1  0
 11 13  1  6
 12  4  1  6
 14 15  1  0
M  END
>  <DRUGBANK_ID>  (1) 
DB03109

>  <SECONDARY_ACCESSION_NUMBERS>  (1) 
EXPT02281

>  <COMMON_NAME>  (1) 
2-acetylamino-2-deoxy-b-D-allopyranose

>  <SYNONYMS>  (1) 
N-acetyl-D-allosamine

$$$$
