
     RDKit          2D

 35 38  0  0  0  0  0  0  0  0999 V2000
   -0.5837   -1.4124    0.0000 C   0  0  0  0  0  0  0  0  0  0  0  0
   -0.1712   -0.6979    0.0000 C   0  0  0  0  0  0  0  0  0  0  0  0
    0.6538   -0.6979    0.0000 C   0  0  0  0  0  0  0  0  0  0  0  0
    1.1387   -0.0305    0.0000 N   0  0  0  0  0  0  0  0  0  0  0  0
    1.9233   -0.2854    0.0000 C   0  0  0  0  0  0  0  0  0  0  0  0
    2.6378    0.1271    0.0000 C   0  0  0  0  0  0  0  0  0  0  0  0
    3.3523   -0.2854    0.0000 N   0  0  0  0  0  0  0  0  0  0  0  0
    3.3523   -1.1104    0.0000 C   0  0  0  0  0  0  0  0  0  0  0  0
    2.6378   -1.5229    0.0000 C   0  0  0  0  0  0  0  0  0  0  0  0
    1.9233   -1.1104    0.0000 C   0  0  0  0  0  0  0  0  0  0  0  0
    1.1387   -1.3654    0.0000 N   0  0  0  0  0  0  0  0  0  0  0  0
    0.8838   -2.1500    0.0000 C   0  0  0  0  0  0  0  0  0  0  0  0
    1.4358   -2.7631    0.0000 C   0  0  0  0  0  0  0  0  0  0  0  0
    1.1809   -3.5477    0.0000 C   0  0  0  0  0  0  0  0  0  0  0  0
    0.3739   -3.7192    0.0000 C   0  0  0  0  0  0  0  0  0  0  0  0
   -0.1781   -3.1062    0.0000 C   0  0  0  0  0  0  0  0  0  0  0  0
    0.0768   -2.3215    0.0000 C   0  0  0  0  0  0  0  0  0  0  0  0
    0.1190   -4.5039    0.0000 C   0  0  0  0  0  0  0  0  0  0  0  0
   -0.6880   -4.6754    0.0000 C   0  0  0  0  0  0  0  0  0  0  0  0
   -0.9429   -5.4600    0.0000 N   0  0  0  0  0  0  0  0  0  0  0  0
   -1.7499   -5.6315    0.0000 C   0  0  0  0  0  0  0  0  0  0  0  0
   -2.3020   -5.0184    0.0000 O   0  0  0  0  0  0  0  0  0  0  0  0
   -2.0049   -6.4162    0.0000 N   0  0  0  0  0  0  0  0  0  0  0  0
   -2.8118   -6.5877    0.0000 S   0  0  0  0  0  0  0  0  0  0  0  0
   -2.9834   -5.7807    0.0000 O   0  0  0  0  0  0  0  0  0  0  0  0
   -2.6403   -7.3947    0.0000 O   0  0  0  0  0  0  0  0  0  0  0  0
   -3.6188   -6.7592    0.0000 C   0  0  0  0  0  0  0  0  0  0  0  0
   -3.8737   -7.5438    0.0000 C   0  0  0  0  0  0  0  0  0  0  0  0
   -4.6807   -7.7154    0.0000 C   0  0  0  0  0  0  0  0  0  0  0  0
   -5.2327   -7.1023    0.0000 C   0  0  0  0  0  0  0  0  0  0  0  0
   -4.9778   -6.3177    0.0000 C   0  0  0  0  0  0  0  0  0  0  0  0
   -4.1708   -6.1461    0.0000 C   0  0  0  0  0  0  0  0  0  0  0  0
   -6.0397   -7.2738    0.0000 C   0  0  0  0  0  0  0  0  0  0  0  0
    4.0668   -1.5229    0.0000 C   0  0  0  0  0  0  0  0  0  0  0  0
    2.6378    0.9521    0.0000 C   0  0  0  0  0  0  0  0  0  0  0  0
  1  2  1  0
  2  3  1  0
  3  4  2  0
  3 11  1  0
  4  5  1  0
  5  6  2  0
  5 10  1  0
  6  7  1  0
  6 35  1  0
  7  8  2  0
  8  9  1  0
  8 34  1  0
  9 10  2  0
 10 11  1  0
 11 12  1  0
 12 13  2  0
 12 17  1  0
 13 14  1  0
 14 15  2  0
 15 16  1  0
 15 18  1  0
 16 17  2  0
 18 19  1  0
 19 20  1  0
 20 21  1  0
 21 22  2  0
 21 23  1  0
 23 24  1  0
 24 25  2  0
 24 26  2  0
 24 27  1  0
 27 28  2  0
 27 32  1  0
 28 29  1  0
 29 30  2  0
 30 31  1  0
 30 33  1  0
 31 32  2  0
M  END
>  <DRUGBANK_ID>  (1) 
DB12836

>  <COMMON_NAME>  (1) 
Grapiprant

>  <CAS_NUMBER>  (1) 
415903-37-6

>  <UNII>  (1) 
J9F5ZPH7NB

>  <SYNONYMS>  (1) 
Grapiprant

$$$$
