
     RDKit          2D

 12 12  0  0  0  0  0  0  0  0999 V2000
   -0.1168    0.4157    0.0000 C   0  0  0  0  0  0  0  0  0  0  0  0
    0.5978    0.0034    0.0000 C   0  0  0  0  0  0  0  0  0  0  0  0
   -0.8383    0.0034    0.0000 C   0  0  0  0  0  0  0  0  0  0  0  0
   -0.1134    1.2369    0.0000 C   0  0  0  0  0  0  0  0  0  0  0  0
    0.5978   -0.8280    0.0000 C   0  0  0  0  0  0  0  0  0  0  0  0
    1.3055    0.4157    0.0000 C   0  0  0  0  0  0  0  0  0  0  0  0
   -0.8383   -0.8280    0.0000 C   0  0  0  0  0  0  0  0  0  0  0  0
   -1.5461    0.4157    0.0000 O   0  0  0  0  0  0  0  0  0  0  0  0
    0.5978    1.6457    0.0000 N   0  0  0  0  0  0  0  0  0  0  0  0
   -0.1168   -1.2471    0.0000 N   0  0  0  0  0  0  0  0  0  0  0  0
    2.0202    0.0034    0.0000 O   0  0  0  0  0  0  0  0  0  0  0  0
   -1.5495   -1.2369    0.0000 C   0  0  0  0  0  0  0  0  0  0  0  0
  1  2  2  0
  1  3  1  0
  1  4  1  0
  2  5  1  0
  2  6  1  0
  3  7  2  0
  3  8  1  0
  4  9  1  0
  5 10  2  0
  6 11  1  0
  7 12  1  0
  7 10  1  0
M  END
>  <DRUGBANK_ID>  (1) 
DB11673

>  <COMMON_NAME>  (1) 
Pyridoxamine

>  <CAS_NUMBER>  (1) 
85-87-0

>  <UNII>  (1) 
6466NM3W93

$$$$
