
     RDKit          2D

 29 32  0  0  0  0  0  0  0  0999 V2000
   -3.1250   -0.5885    0.0000 C   0  0  0  0  0  0  0  0  0  0  0  0
   -3.1250   -1.4135    0.0000 C   0  0  0  0  0  0  0  0  0  0  0  0
   -2.4106   -1.8259    0.0000 C   0  0  0  0  0  0  0  0  0  0  0  0
   -1.6963   -1.4135    0.0000 C   0  0  0  0  0  0  0  0  0  0  0  0
   -1.6963   -0.5885    0.0000 C   0  0  0  0  0  0  0  0  0  0  0  0
   -2.4106   -0.1761    0.0000 C   0  0  0  0  0  0  0  0  0  0  0  0
   -0.9818   -1.8259    0.0000 C   0  0  0  0  0  0  0  0  0  0  0  0
   -0.2675   -1.4135    0.0000 C   0  0  0  0  0  0  0  0  0  0  0  0
   -0.2675   -0.5885    0.0000 C   0  0  0  0  0  0  0  0  0  0  0  0
   -0.9818   -0.1761    0.0000 C   0  0  0  0  0  0  0  0  0  0  0  0
    0.4469   -0.1761    0.0000 C   0  0  0  0  0  0  0  0  0  0  0  0
    0.4469    0.6487    0.0000 C   0  0  0  0  0  0  0  0  0  0  0  0
   -0.2675    1.0610    0.0000 C   0  0  0  0  0  0  0  0  0  0  0  0
   -0.9818    0.6487    0.0000 C   0  0  0  0  0  0  0  0  0  0  0  0
    1.8755   -0.1761    0.0000 C   0  0  0  0  0  0  0  0  0  0  0  0
    1.8755    0.6487    0.0000 C   0  0  0  0  0  0  0  0  0  0  0  0
    1.1611    1.0610    0.0000 C   0  0  0  0  0  0  0  0  0  0  0  0
    0.4632    1.4735    0.0000 C   0  0  0  0  0  0  0  0  0  0  0  0
   -1.6981    0.2600    0.0000 C   0  0  0  0  0  0  0  0  0  0  0  0
   -0.9818   -2.6688    0.0000 C   0  0  0  0  0  0  0  0  0  0  0  0
   -3.8647   -1.8408    0.0000 O   0  0  0  0  0  0  0  0  0  0  0  0
    1.1612    1.8977    0.0000 C   0  0  0  0  0  0  0  0  0  0  0  0
    1.8998    2.3242    0.0000 O   0  0  0  0  0  0  0  0  0  0  0  0
    0.4447    2.3116    0.0000 C   0  0  0  0  0  0  0  0  0  0  0  0
    2.6089    1.0723    0.0000 C   0  0  0  0  0  0  0  0  0  0  0  0
    2.6028    1.9432    0.0000 O   0  0  0  0  0  0  0  0  0  0  0  0
    3.4429    1.9432    0.0000 C   0  0  0  0  0  0  0  0  0  0  0  0
    3.8647    1.2125    0.0000 O   0  0  0  0  0  0  0  0  0  0  0  0
    3.8619    2.6688    0.0000 C   0  0  0  0  0  0  0  0  0  0  0  0
  1  2  1  0
  1  6  1  0
  2  3  1  0
  2 21  2  0
  3  4  2  0
  4  5  1  0
  4  7  1  0
  5  6  1  0
  5 10  1  0
  5 19  1  1
  7  8  2  0
  7 20  1  0
  9  8  1  6
  9 10  1  0
  9 11  1  0
 10 14  1  1
 11 12  1  0
 11 15  1  1
 12 13  1  0
 12 17  1  0
 12 18  1  1
 13 14  1  0
 15 16  1  0
 16 17  1  0
 16 25  2  0
 17 22  1  0
 17 26  1  6
 22 23  2  0
 22 24  1  0
 26 27  1  0
 27 28  2  0
 27 29  1  0
M  END
>  <DRUGBANK_ID>  (1) 
DB14659

>  <SECONDARY_ACCESSION_NUMBERS>  (1) 
DBSALT001692

>  <COMMON_NAME>  (1) 
Melengestrol acetate

>  <CAS_NUMBER>  (1) 
2919-66-6

>  <UNII>  (1) 
4W5HDS3936

>  <SYNONYMS>  (1) 
Melengestrol acetate

$$$$
