132
     RDKit          2D

 26 29  0  0  0  0  0  0  0  0999 V2000
    3.0137   -0.2135    0.0000 C   0  0  0  0  0  0  0  0  0  0  0  0
    3.0137   -1.0385    0.0000 C   0  0  0  0  0  0  0  0  0  0  0  0
    2.2992   -1.4510    0.0000 C   0  0  0  0  0  0  0  0  0  0  0  0
    1.5848   -1.0385    0.0000 C   0  0  0  0  0  0  0  0  0  0  0  0
    1.5848   -0.2135    0.0000 C   0  0  0  0  0  0  0  0  0  0  0  0
    2.2992    0.1990    0.0000 C   0  0  0  0  0  0  0  0  0  0  0  0
    3.7282    0.1990    0.0000 C   0  0  0  0  0  0  0  0  0  0  0  0
    4.4426   -0.2135    0.0000 N   0  0  0  0  0  0  0  0  0  0  0  0
    3.7282    1.0240    0.0000 N   0  0  0  0  0  0  0  0  0  0  0  0
    0.8001   -1.2934    0.0000 N   0  0  0  0  0  0  0  0  0  0  0  0
    0.8001    0.0415    0.0000 C   0  0  0  0  0  0  0  0  0  0  0  0
    0.3152   -0.6260    0.0000 C   0  0  0  0  0  0  0  0  0  0  0  0
   -0.5098   -0.6260    0.0000 C   0  0  0  0  0  0  0  0  0  0  0  0
   -0.9223   -1.3404    0.0000 C   0  0  0  0  0  0  0  0  0  0  0  0
   -1.7473   -1.3404    0.0000 C   0  0  0  0  0  0  0  0  0  0  0  0
   -2.1598   -0.6260    0.0000 C   0  0  0  0  0  0  0  0  0  0  0  0
   -1.7473    0.0885    0.0000 C   0  0  0  0  0  0  0  0  0  0  0  0
   -0.9223    0.0885    0.0000 C   0  0  0  0  0  0  0  0  0  0  0  0
   -0.5098    0.8030    0.0000 O   0  0  0  0  0  0  0  0  0  0  0  0
   -2.1598    0.8030    0.0000 C   0  0  0  0  0  0  0  0  0  0  0  0
   -2.9848    0.8030    0.0000 C   0  0  0  0  0  0  0  0  0  0  0  0
   -3.3973    1.5175    0.0000 C   0  0  0  0  0  0  0  0  0  0  0  0
   -2.9848    2.2319    0.0000 C   0  0  0  0  0  0  0  0  0  0  0  0
   -2.1598    2.2319    0.0000 C   0  0  0  0  0  0  0  0  0  0  0  0
   -1.7473    1.5175    0.0000 C   0  0  0  0  0  0  0  0  0  0  0  0
    3.7282   -1.4510    0.0000 Cl  0  0  0  0  0  0  0  0  0  0  0  0
  1  2  2  0
  1  6  1  0
  1  7  1  0
  2  3  1  0
  2 26  1  0
  3  4  2  0
  4  5  1  0
  4 10  1  0
  5  6  2  0
  5 11  1  0
  7  8  1  0
  7  9  2  0
 10 12  1  0
 11 12  2  0
 12 13  1  0
 13 14  2  0
 13 18  1  0
 14 15  1  0
 15 16  2  0
 16 17  1  0
 17 18  2  0
 17 20  1  0
 18 19  1  0
 20 21  2  0
 20 25  1  0
 21 22  1  0
 22 23  2  0
 23 24  1  0
 24 25  2  0
M  CHG  1   9   1
M  END
>  <DRUGBANK_ID>  (1) 
DB03865

>  <SECONDARY_ACCESSION_NUMBERS>  (1) 
EXPT00023

>  <COMMON_NAME>  (1) 
6-Chloro-2-(2-Hydroxy-Biphenyl-3-Yl)-1h-Indole-5-Carboxamidine

$$$$
