
     RDKit          2D

 30 29  0  0  0  0  0  0  0  0999 V2000
   -8.1076    0.2162    0.0000 C   0  0  0  0  0  0  0  0  0  0  0  0
   -7.4048   -0.2161    0.0000 C   0  0  0  0  0  0  0  0  0  0  0  0
   -6.7023    0.2162    0.0000 C   0  0  0  0  0  0  0  0  0  0  0  0
   -5.9995   -0.2161    0.0000 C   0  0  0  0  0  0  0  0  0  0  0  0
   -5.2969    0.2162    0.0000 C   0  0  0  0  0  0  0  0  0  0  0  0
   -4.5942   -0.2161    0.0000 C   0  0  0  0  0  0  0  0  0  0  0  0
   -3.8916    0.2162    0.0000 C   0  0  0  0  0  0  0  0  0  0  0  0
   -3.1889   -0.2161    0.0000 C   0  0  0  0  0  0  0  0  0  0  0  0
   -2.4863    0.2162    0.0000 C   0  0  0  0  0  0  0  0  0  0  0  0
   -1.7836   -0.2161    0.0000 C   0  0  0  0  0  0  0  0  0  0  0  0
   -1.0810    0.2162    0.0000 C   0  0  0  0  0  0  0  0  0  0  0  0
   -0.3242   -0.2161    0.0000 C   0  0  0  0  0  0  0  0  0  0  0  0
    0.3783    0.2162    0.0000 C   0  0  0  0  0  0  0  0  0  0  0  0
    1.0810   -0.2161    0.0000 C   0  0  0  0  0  0  0  0  0  0  0  0
    1.7836    0.2162    0.0000 C   0  0  0  0  0  0  0  0  0  0  0  0
    2.4863   -0.2161    0.0000 C   0  0  0  0  0  0  0  0  0  0  0  0
    3.1889    0.2162    0.0000 C   0  0  0  0  0  0  0  0  0  0  0  0
    3.8916   -0.2161    0.0000 C   0  0  0  0  0  0  0  0  0  0  0  0
    4.5942    0.2162    0.0000 C   0  0  0  0  0  0  0  0  0  0  0  0
    5.2969   -0.2161    0.0000 C   0  0  0  0  0  0  0  0  0  0  0  0
    5.9994    0.2162    0.0000 C   0  0  0  0  0  0  0  0  0  0  0  0
    6.7022   -0.2161    0.0000 C   0  0  0  0  0  0  0  0  0  0  0  0
    7.4047    0.2162    0.0000 C   0  0  0  0  0  0  0  0  0  0  0  0
    8.1076   -0.2161    0.0000 C   0  0  0  0  0  0  0  0  0  0  0  0
   -7.4048   -1.0269    0.0000 C   0  0  0  0  0  0  0  0  0  0  0  0
   -4.5942   -1.0269    0.0000 C   0  0  0  0  0  0  0  0  0  0  0  0
   -1.7836   -1.0269    0.0000 C   0  0  0  0  0  0  0  0  0  0  0  0
    1.7836    1.0269    0.0000 C   0  0  0  0  0  0  0  0  0  0  0  0
    4.5942    1.0269    0.0000 C   0  0  0  0  0  0  0  0  0  0  0  0
    7.4047    1.0269    0.0000 C   0  0  0  0  0  0  0  0  0  0  0  0
  2  1  1  0
  3  2  2  3
  4  3  1  0
  5  4  1  0
  6  5  1  0
  7  6  2  0
  8  7  1  0
  9  8  1  0
 10  9  1  0
 11 10  2  0
 12 11  1  0
 13 12  1  0
 14 13  1  0
 15 14  2  0
 16 15  1  0
 17 16  1  0
 18 17  1  0
 19 18  2  0
 20 19  1  0
 21 20  1  0
 22 21  1  0
 23 22  2  3
 24 23  1  0
 25  2  1  0
 26  6  1  0
 27 10  1  0
 28 15  1  0
 29 19  1  0
 30 23  1  0
M  END
>  <DRUGBANK_ID>  (1) 
DB11460

>  <COMMON_NAME>  (1) 
Squalene

>  <CAS_NUMBER>  (1) 
111-02-4

>  <UNII>  (1) 
7QWM220FJH

>  <SYNONYMS>  (1) 
(all-E)-2,6,10,15,19,23-hexamethyl-2,6,10,14,18,22-tetracosahexaene; (E,E,E,E)-Squalene; Spinacene; Squalene; Supraene

$$$$
