
     RDKit          2D

 27 24  0  0  1  0  0  0  0  0999 V2000
   -2.0640    0.2292    0.0000 C   0  0  0  0  0  0  0  0  0  0  0  0
   -1.3496   -0.1833    0.0000 C   0  0  0  0  0  0  0  0  0  0  0  0
   -0.6351    0.2292    0.0000 C   0  0  0  0  0  0  0  0  0  0  0  0
    0.0794   -0.1833    0.0000 C   0  0  0  0  0  0  0  0  0  0  0  0
    0.7939    0.2292    0.0000 C   0  0  0  0  0  0  0  0  0  0  0  0
    1.5083   -0.1833    0.0000 C   0  0  0  0  0  0  0  0  0  0  0  0
   -2.7785   -0.1833    0.0000 O   0  0  0  0  0  0  0  0  0  0  0  0
   -1.3496   -1.0083    0.0000 O   0  0  0  0  0  0  0  0  0  0  0  0
   -0.6351    1.0542    0.0000 O   0  0  0  0  0  0  0  0  0  0  0  0
    0.0794   -1.0083    0.0000 O   0  0  0  0  0  0  0  0  0  0  0  0
    0.7939    1.0542    0.0000 O   0  0  0  0  0  0  0  0  0  0  0  0
    1.5083   -1.0083    0.0000 O   0  0  0  0  0  0  0  0  0  0  0  0
    2.2228    0.2292    0.0000 O   0  0  0  0  0  0  0  0  0  0  0  0
    5.5375    0.2669    0.0000 C   0  0  0  0  0  0  0  0  0  0  0  0
    6.2519   -0.1456    0.0000 C   0  0  0  0  0  0  0  0  0  0  0  0
    6.9664    0.2669    0.0000 C   0  0  0  0  0  0  0  0  0  0  0  0
    7.6809   -0.1456    0.0000 C   0  0  0  0  0  0  0  0  0  0  0  0
    8.3953    0.2669    0.0000 C   0  0  0  0  0  0  0  0  0  0  0  0
    9.1098   -0.1456    0.0000 C   0  0  0  0  0  0  0  0  0  0  0  0
    4.8230   -0.1456    0.0000 O   0  0  0  0  0  0  0  0  0  0  0  0
    6.2519   -0.9706    0.0000 O   0  0  0  0  0  0  0  0  0  0  0  0
    6.9664    1.0919    0.0000 O   0  0  0  0  0  0  0  0  0  0  0  0
    7.6809   -0.9706    0.0000 O   0  0  0  0  0  0  0  0  0  0  0  0
    8.3953    1.0919    0.0000 O   0  0  0  0  0  0  0  0  0  0  0  0
    9.8243    0.2669    0.0000 O   0  0  0  0  0  0  0  0  0  0  0  0
    9.1098   -0.9706    0.0000 O   0  0  0  0  0  0  0  0  0  0  0  0
    2.9373    0.6417    0.0000 Zn  0  0  0  0  0 15  0  0  0  0  0  0
  2  1  1  0
  2  8  1  6
  3  2  1  0
  3  9  1  1
  4  3  1  0
  4 10  1  1
  5  4  1  0
  5 11  1  1
  6  5  1  0
  7  1  1  0
 12  6  2  0
 13  6  1  0
 15 14  1  0
 15 21  1  6
 16 15  1  0
 16 22  1  1
 17 16  1  0
 17 23  1  1
 18 17  1  0
 18 24  1  1
 19 18  1  0
 20 14  1  0
 25 19  2  0
 26 19  1  0
M  CHG  3  13  -1  26  -1  27   2
M  END
>  <DRUGBANK_ID>  (1) 
DB11248

>  <COMMON_NAME>  (1) 
Zinc gluconate

>  <CAS_NUMBER>  (1) 
4468-02-4

>  <UNII>  (1) 
U6WSN5SQ1Z

>  <SYNONYMS>  (1) 
Zinc gluconate

$$$$
