
     RDKit          2D

 15 17  0  0  0  0  0  0  0  0999 V2000
    0.0000   -1.2517    0.0000 N   0  0  0  0  0  0  0  0  0  0  0  0
    0.7254   -0.8250    0.0000 C   0  0  0  0  0  0  0  0  0  0  0  0
   -0.7254   -0.8250    0.0000 C   0  0  0  0  0  0  0  0  0  0  0  0
    0.0000    0.4267    0.0000 C   0  0  0  0  0  0  0  0  0  0  0  0
   -0.7254    0.0000    0.0000 C   0  0  0  0  0  0  0  0  0  0  0  0
    0.7254    0.0000    0.0000 C   0  0  0  0  0  0  0  0  0  0  0  0
    1.4651   -1.2517    0.0000 C   0  0  0  0  0  0  0  0  0  0  0  0
   -1.4509   -1.2517    0.0000 C   0  0  0  0  0  0  0  0  0  0  0  0
   -1.4509    0.4267    0.0000 C   0  0  0  0  0  0  0  0  0  0  0  0
    1.4651    0.4267    0.0000 C   0  0  0  0  0  0  0  0  0  0  0  0
    2.1337   -0.8250    0.0000 C   0  0  0  0  0  0  0  0  0  0  0  0
   -2.1337    0.0000    0.0000 C   0  0  0  0  0  0  0  0  0  0  0  0
   -2.1337   -0.8250    0.0000 C   0  0  0  0  0  0  0  0  0  0  0  0
    2.1337    0.0000    0.0000 C   0  0  0  0  0  0  0  0  0  0  0  0
    0.0000    1.2517    0.0000 N   0  0  0  0  0  0  0  0  0  0  0  0
  2  1  2  0
  3  1  1  0
  5  3  2  0
  5  4  1  0
  6  2  1  0
  6  4  2  0
  7  2  1  0
  8  3  1  0
  9  5  1  0
 10  6  1  0
 11  7  2  0
 12  9  2  0
 13  8  2  0
 13 12  1  0
 14 10  2  0
 14 11  1  0
 15  4  1  0
M  END
>  <DRUGBANK_ID>  (1) 
DB11561

>  <COMMON_NAME>  (1) 
Aminacrine

>  <CAS_NUMBER>  (1) 
90-45-9

>  <UNII>  (1) 
78OY3Z0P7Z

>  <SYNONYMS>  (1) 
10-amino-5-azaanthracene; 5-aminoacridine; 9-acridinamine; 9AA; Aminacrin; Aminacrine; Aminoacridina; Aminoacridine; Aminoacridinum

$$$$
