
     RDKit          2D

 33 37  0  0  0  0  0  0  0  0999 V2000
   -0.0118   -1.6427    0.0000 C   0  0  0  0  0  0  0  0  0  0  0  0
   -0.0167   -0.8177    0.0000 C   0  0  0  0  0  0  0  0  0  0  0  0
   -0.7303   -0.4120    0.0000 C   0  0  0  0  0  0  0  0  0  0  0  0
   -1.4442   -0.8261    0.0000 C   0  0  0  0  0  0  0  0  0  0  0  0
   -1.4394   -1.6511    0.0000 C   0  0  0  0  0  0  0  0  0  0  0  0
   -0.7205   -2.0622    0.0000 C   0  0  0  0  0  0  0  0  0  0  0  0
    2.1404   -0.4201    0.0000 C   0  0  0  0  0  0  0  0  0  0  0  0
    1.4281   -0.8255    0.0000 N   0  0  0  0  0  0  0  0  0  0  0  0
    1.4224   -1.6509    0.0000 C   0  0  0  0  0  0  0  0  0  0  0  0
    2.1330   -2.0623    0.0000 C   0  0  0  0  0  0  0  0  0  0  0  0
    2.8510   -1.6510    0.0000 C   0  0  0  0  0  0  0  0  0  0  0  0
    2.8478   -0.8319    0.0000 N   0  0  0  0  0  0  0  0  0  0  0  0
   -0.7010    2.0651    0.0000 N   0  0  0  0  0  0  0  0  0  0  0  0
   -0.7058    2.8901    0.0000 C   0  0  0  0  0  0  0  0  0  0  0  0
   -1.4194    3.2958    0.0000 C   0  0  0  0  0  0  0  0  0  0  0  0
   -2.1286    2.8817    0.0000 N   0  0  0  0  0  0  0  0  0  0  0  0
   -2.1286    2.0567    0.0000 C   0  0  0  0  0  0  0  0  0  0  0  0
   -1.4097    1.6457    0.0000 C   0  0  0  0  0  0  0  0  0  0  0  0
    0.0203    1.6477    0.0000 C   0  0  0  0  0  0  0  0  0  0  0  0
    0.0141    0.8248    0.0000 C   0  0  0  0  0  0  0  0  0  0  0  0
    0.7236    0.4100    0.0000 C   0  0  0  0  0  0  0  0  0  0  0  0
    1.4351    0.8170    0.0000 C   0  0  0  0  0  0  0  0  0  0  0  0
    1.4366    1.6436    0.0000 C   0  0  0  0  0  0  0  0  0  0  0  0
    0.7264    2.0540    0.0000 C   0  0  0  0  0  0  0  0  0  0  0  0
    0.7257    2.8804    0.0000 C   0  0  0  0  0  0  0  0  0  0  0  0
   -2.8510    3.2978    0.0000 C   0  0  0  0  0  0  0  0  0  0  0  0
    2.1479    0.4052    0.0000 N   0  0  0  0  0  0  0  0  0  0  0  0
    2.1235   -2.8852    0.0000 F   0  0  0  0  0  0  0  0  0  0  0  0
    0.7015   -2.0552    0.0000 N   0  0  0  0  0  0  0  0  0  0  0  0
   -0.7302   -2.8852    0.0000 C   0  0  0  0  0  0  0  0  0  0  0  0
   -1.4483   -3.2928    0.0000 N   0  0  0  0  0  0  0  0  0  0  0  0
   -0.0167   -3.2978    0.0000 O   0  0  0  0  0  0  0  0  0  0  0  0
   -0.6039   -1.4001    0.0000 C   0  0  0  0  0  0  0  0  0  0  0  0
  1  2  1  0
  1 29  1  1
  1  6  1  0
  2  3  1  6
  2 33  1  0
  3  4  2  0
  5  4  1  6
  5  6  1  0
  5 33  1  0
  6 30  1  1
  7  8  2  0
  8  9  1  0
  9 10  2  0
  9 29  1  0
 10 11  1  0
 10 28  1  0
 11 12  2  0
 12  7  1  0
 13 14  1  0
 13 18  1  0
 14 15  1  0
 15 16  1  0
 16 17  1  0
 16 26  1  0
 17 18  1  0
 19 20  2  0
 19 13  1  0
 20 21  1  0
 21 22  2  0
 22 23  1  0
 22 27  1  0
 23 24  2  0
 24 19  1  0
 24 25  1  0
 27  7  1  0
 30 31  1  0
 30 32  2  0
M  END
>  <DRUGBANK_ID>  (1) 
DB06347

>  <COMMON_NAME>  (1) 
Cenisertib

>  <CAS_NUMBER>  (1) 
871357-89-0

>  <UNII>  (1) 
5277GPA358

>  <SYNONYMS>  (1) 
Cenisertib

$$$$
