OWL
     RDKit          2D

 25 28  0  0  0  0  0  0  0  0999 V2000
   -1.2541    2.0136    0.0000 C   0  0  0  0  0  0  0  0  0  0  0  0
   -1.2541    0.3636    0.0000 C   0  0  0  0  0  0  0  0  0  0  0  0
   -0.5396    1.6011    0.0000 C   0  0  0  0  0  0  0  0  0  0  0  0
   -1.9686    1.6011    0.0000 C   0  0  0  0  0  0  0  0  0  0  0  0
   -1.9686    0.7761    0.0000 C   0  0  0  0  0  0  0  0  0  0  0  0
   -0.5396    0.7761    0.0000 C   0  0  0  0  0  0  0  0  0  0  0  0
    0.1748   -0.4614    0.0000 C   0  0  0  0  0  0  0  0  0  0  0  0
    0.1748   -2.1114    0.0000 C   0  0  0  0  0  0  0  0  0  0  0  0
   -0.5396   -0.8739    0.0000 C   0  0  0  0  0  0  0  0  0  0  0  0
    0.8893   -0.8739    0.0000 C   0  0  0  0  0  0  0  0  0  0  0  0
    0.8893   -1.6989    0.0000 C   0  0  0  0  0  0  0  0  0  0  0  0
   -0.5396   -1.6989    0.0000 C   0  0  0  0  0  0  0  0  0  0  0  0
   -1.2541   -0.4614    0.0000 N   0  0  0  0  0  0  0  0  0  0  0  0
    1.6038   -2.9364    0.0000 C   0  0  0  0  0  0  0  0  0  0  0  0
    0.9363   -3.4214    0.0000 N   0  0  0  0  0  0  0  0  0  0  0  0
    2.2712   -3.4214    0.0000 N   0  0  0  0  0  0  0  0  0  0  0  0
   -0.5396    3.2511    0.0000 C   0  0  0  0  0  0  0  0  0  0  0  0
   -0.4534    4.0715    0.0000 N   0  0  0  0  0  0  0  0  0  0  0  0
    0.2140    2.9155    0.0000 N   0  0  0  0  0  0  0  0  0  0  0  0
   -1.2541    2.8386    0.0000 N   0  0  0  0  0  0  0  0  0  0  0  0
    1.6038   -2.1114    0.0000 N   0  0  0  0  0  0  0  0  0  0  0  0
    1.1913   -4.2060    0.0000 C   0  0  0  0  0  0  0  0  0  0  0  0
    2.0163   -4.2060    0.0000 C   0  0  0  0  0  0  0  0  0  0  0  0
    0.3536    4.2431    0.0000 C   0  0  0  0  0  0  0  0  0  0  0  0
    0.7661    3.5286    0.0000 C   0  0  0  0  0  0  0  0  0  0  0  0
  1  3  2  0
  2 13  1  0
  3  6  1  0
  4  1  1  0
  4  5  2  0
  5  2  1  0
  6  2  2  0
  7 10  2  0
  8 11  2  0
  9  7  1  0
  9 12  2  0
 10 11  1  0
 11 21  1  0
 12  8  1  0
 13  9  1  0
 14 16  2  0
 15 14  1  0
 15 22  1  0
 16 23  1  0
 17 18  1  0
 19 17  2  0
 19 25  1  0
 20  1  1  0
 20 17  1  0
 21 14  1  0
 22 23  2  0
 24 18  1  0
 25 24  2  0
M  END
>  <DRUGBANK_ID>  (1) 
DB08331

>  <COMMON_NAME>  (1) 
N-1H-imidazol-2-yl-N'-[4-(1H-imidazol-2-ylamino)phenyl]benzene-1,4-diamine

$$$$
