
     RDKit          2D

 31 33  0  0  0  0  0  0  0  0999 V2000
    3.2172    2.0624    0.0000 C   0  0  0  0  0  0  0  0  0  0  0  0
    3.2172    2.8873    0.0000 C   0  0  0  0  0  0  0  0  0  0  0  0
    2.5023    3.2998    0.0000 C   0  0  0  0  0  0  0  0  0  0  0  0
    1.8148    2.8873    0.0000 C   0  0  0  0  0  0  0  0  0  0  0  0
    1.8148    2.0624    0.0000 C   0  0  0  0  0  0  0  0  0  0  0  0
    2.5023    1.6499    0.0000 O   0  0  0  0  0  0  0  0  0  0  0  0
    1.0998    1.6499    0.0000 O   0  0  0  0  0  0  0  0  0  0  0  0
    1.0998    0.8250    0.0000 C   0  0  0  0  0  0  0  0  0  0  0  0
    0.3849    0.4124    0.0000 C   0  0  0  0  0  0  0  0  0  0  0  0
    0.3849   -0.4124    0.0000 C   0  0  0  0  0  0  0  0  0  0  0  0
    1.0723   -0.8249    0.0000 C   0  0  0  0  0  0  0  0  0  0  0  0
    1.7873   -0.4124    0.0000 C   0  0  0  0  0  0  0  0  0  0  0  0
    1.7873    0.4124    0.0000 C   0  0  0  0  0  0  0  0  0  0  0  0
   -0.3300   -0.8249    0.0000 O   0  0  0  0  0  0  0  0  0  0  0  0
    3.9322    1.6499    0.0000 C   0  0  0  0  0  0  0  0  0  0  0  0
    1.0998    3.2998    0.0000 N   0  0  0  0  0  0  0  0  0  0  0  0
    2.5023    0.8250    0.0000 N   0  0  0  0  0  0  0  0  0  0  0  0
    1.0723   -1.6499    0.0000 N   0  0  0  0  0  0  0  0  0  0  0  0
   -0.3300    0.8250    0.0000 O   0  0  0  0  0  0  0  0  0  0  0  0
    3.9322    0.8250    0.0000 N   0  0  0  0  0  0  0  0  0  0  0  0
   -1.0724   -1.2374    0.0000 C   0  0  0  0  0  0  0  0  0  0  0  0
   -1.7600   -0.8249    0.0000 O   0  0  0  0  0  0  0  0  0  0  0  0
   -2.5023   -1.2374    0.0000 C   0  0  0  0  0  0  0  0  0  0  0  0
   -2.5023   -2.0624    0.0000 C   0  0  0  0  0  0  0  0  0  0  0  0
   -1.7874   -2.4748    0.0000 C   0  0  0  0  0  0  0  0  0  0  0  0
   -1.0724   -2.0624    0.0000 C   0  0  0  0  0  0  0  0  0  0  0  0
   -3.1899   -0.7974    0.0000 C   0  0  0  0  0  0  0  0  0  0  0  0
   -3.9323   -1.2099    0.0000 O   0  0  0  0  0  0  0  0  0  0  0  0
   -3.2174   -2.4473    0.0000 O   0  0  0  0  0  0  0  0  0  0  0  0
   -1.7874   -3.2998    0.0000 N   0  0  0  0  0  0  0  0  0  0  0  0
   -0.3575   -2.4748    0.0000 O   0  0  0  0  0  0  0  0  0  0  0  0
  1 15  1  1
  1  2  1  0
  2  3  1  0
  3  4  1  0
  4 16  1  6
  4  5  1  0
  5  7  1  6
  5  6  1  0
  6  1  1  0
  8  7  1  6
  8  9  1  0
  9 19  1  1
  9 10  1  0
 10 14  1  6
 10 11  1  0
 11 12  1  0
 11 18  1  1
 12 13  1  0
 13  8  1  0
 13 17  1  1
 15 20  1  0
 21 14  1  6
 21 22  1  0
 22 23  1  0
 23 27  1  1
 23 24  1  0
 24 29  1  6
 24 25  1  0
 25 30  1  1
 25 26  1  0
 26 21  1  0
 26 31  1  6
 27 28  1  0
M  END
>  <DRUGBANK_ID>  (1) 
DB13270

>  <COMMON_NAME>  (1) 
Dibekacin

>  <CAS_NUMBER>  (1) 
34493-98-6

>  <UNII>  (1) 
45ZFO9E525

>  <SYNONYMS>  (1) 
Dibekacin; Dibekacina; Dibekacine; Dibekacinum

$$$$
