
     RDKit          2D

 30 32  0  0  1  0  0  0  0  0999 V2000
   -0.6435    3.1778    0.0000 C   0  0  0  0  0  0  0  0  0  0  0  0
   -0.0198    3.7179    0.0000 S   0  0  0  0  0  0  0  0  0  0  0  0
    0.6866    3.2917    0.0000 C   0  0  0  0  0  0  0  0  0  0  0  0
    1.4466    3.6127    0.0000 S   0  0  0  0  0  0  0  0  0  0  0  0
    1.5486    4.4313    0.0000 C   0  0  0  0  0  0  0  0  0  0  0  0
    0.9463    4.9951    0.0000 C   0  0  0  0  0  0  0  0  0  0  0  0
    1.2964    5.7421    0.0000 C   0  0  0  0  0  0  0  0  0  0  0  0
    2.1150    5.6401    0.0000 S   0  0  0  0  0  0  0  0  0  0  0  0
    2.6788    6.2424    0.0000 O   0  0  0  0  0  0  0  0  0  0  0  0
    2.2709    4.8299    0.0000 C   0  0  0  0  0  0  0  0  0  0  0  0
    0.4995    2.4882    0.0000 C   0  0  0  0  0  0  0  0  0  0  0  0
   -0.3225    2.4178    0.0000 N   0  0  0  0  0  0  0  0  0  0  0  0
   -1.0825    2.0969    0.0000 C   0  0  0  0  0  0  0  0  0  0  0  0
   -1.3930    1.3325    0.0000 O   0  0  0  0  0  0  0  0  0  0  0  0
   -1.4035    2.8569    0.0000 C   0  0  0  0  0  0  0  0  0  0  0  0
   -2.1678    3.1674    0.0000 C   0  0  0  0  0  0  0  0  0  0  0  0
   -2.2811    3.9846    0.0000 C   0  0  0  0  0  0  0  0  0  0  0  0
   -2.8189    2.6607    0.0000 O   0  0  0  0  0  0  0  0  0  0  0  0
    1.0396    1.8646    0.0000 C   0  0  0  0  0  0  0  0  0  0  0  0
    0.7695    1.0850    0.0000 O   0  0  0  0  0  0  0  0  0  0  0  0
    1.8497    2.0205    0.0000 O   0  0  0  0  0  0  0  0  0  0  0  0
    2.3898    1.3968    0.0000 C   0  0  0  0  0  0  0  0  0  0  0  0
    3.1999    1.5527    0.0000 O   0  0  0  0  0  0  0  0  0  0  0  0
    3.7400    0.9291    0.0000 C   0  0  0  0  0  0  0  0  0  0  0  0
    3.4700    0.1495    0.0000 O   0  0  0  0  0  0  0  0  0  0  0  0
    4.5501    1.0850    0.0000 C   0  0  0  0  0  0  0  0  0  0  0  0
    5.0902    0.4614    0.0000 C   0  0  0  0  0  0  0  0  0  0  0  0
    5.9004    0.6173    0.0000 C   0  0  0  0  0  0  0  0  0  0  0  0
    4.8202    1.8646    0.0000 C   0  0  0  0  0  0  0  0  0  0  0  0
    5.6303    2.0205    0.0000 C   0  0  0  0  0  0  0  0  0  0  0  0
  1  2  1  1
  1 12  1  0
  2  3  1  0
  3  4  1  0
  3 11  2  0
  5  4  1  1
  5  6  1  0
  5 10  1  0
  6  7  1  0
  8  7  1  0
  8  9  1  1
  8 10  1  0
 11 12  1  0
 11 19  1  0
 12 13  1  0
 13 14  2  0
 15 13  1  6
 15  1  1  0
 15 16  1  0
 16 17  1  6
 16 18  1  0
 19 20  2  0
 19 21  1  0
 21 22  1  0
 22 23  1  0
 23 24  1  0
 24 25  2  0
 24 26  1  0
 26 27  1  0
 26 29  1  0
 27 28  1  0
 29 30  1  0
M  CHG  2   8   1   9  -1
M  END
>  <DRUGBANK_ID>  (1) 
DB16335

>  <COMMON_NAME>  (1) 
Sulopenem etzadroxil

>  <CAS_NUMBER>  (1) 
1000296-70-7

>  <UNII>  (1) 
492M3I304T

>  <SYNONYMS>  (1) 
Sulopenem etzadroxil

$$$$
