NE8
     RDKit          2D

 23 26  0  0  0  0  0  0  0  0999 V2000
   -0.7130    0.7184    0.0000 C   0  0  0  0  0  0  0  0  0  0  0  0
    0.0014    0.3059    0.0000 C   0  0  0  0  0  0  0  0  0  0  0  0
    0.0014   -0.5191    0.0000 C   0  0  0  0  0  0  0  0  0  0  0  0
    0.7159   -0.9316    0.0000 C   0  0  0  0  0  0  0  0  0  0  0  0
    1.4304   -0.5191    0.0000 N   0  0  0  0  0  0  0  0  0  0  0  0
    2.1449   -0.9316    0.0000 C   0  0  0  0  0  0  0  0  0  0  0  0
    2.8593   -0.5191    0.0000 N   0  0  0  0  0  0  0  0  0  0  0  0
    2.1449   -1.7566    0.0000 N   0  0  0  0  0  0  0  0  0  0  0  0
    1.4304   -2.1691    0.0000 C   0  0  0  0  0  0  0  0  0  0  0  0
    1.4304   -2.9941    0.0000 O   0  0  0  0  0  0  0  0  0  0  0  0
    0.7159   -1.7566    0.0000 C   0  0  0  0  0  0  0  0  0  0  0  0
    0.0014   -2.1691    0.0000 C   0  0  0  0  0  0  0  0  0  0  0  0
   -0.7130   -1.7566    0.0000 C   0  0  0  0  0  0  0  0  0  0  0  0
   -1.4976   -2.0115    0.0000 N   0  0  0  0  0  0  0  0  0  0  0  0
   -1.9826   -1.3441    0.0000 C   0  0  0  0  0  0  0  0  0  0  0  0
   -1.4976   -0.6766    0.0000 N   0  0  0  0  0  0  0  0  0  0  0  0
   -0.7130   -0.9316    0.0000 C   0  0  0  0  0  0  0  0  0  0  0  0
   -0.7130    1.5434    0.0000 C   0  0  0  0  0  0  0  0  0  0  0  0
   -1.4275    1.9559    0.0000 C   0  0  0  0  0  0  0  0  0  0  0  0
   -1.4275    2.7809    0.0000 C   0  0  0  0  0  0  0  0  0  0  0  0
   -0.7130    3.1934    0.0000 C   0  0  0  0  0  0  0  0  0  0  0  0
    0.0014    2.7809    0.0000 C   0  0  0  0  0  0  0  0  0  0  0  0
    0.0014    1.9559    0.0000 C   0  0  0  0  0  0  0  0  0  0  0  0
  1  2  1  0
  1 18  1  0
  2  3  1  0
  3  4  2  0
  3 17  1  0
  4  5  1  0
  4 11  1  0
  5  6  2  0
  6  7  1  0
  6  8  1  0
  8  9  1  0
  9 10  2  0
  9 11  1  0
 11 12  2  0
 12 13  1  0
 13 14  1  0
 13 17  2  0
 14 15  1  0
 15 16  2  0
 16 17  1  0
 18 19  2  0
 18 23  1  0
 19 20  1  0
 20 21  2  0
 21 22  1  0
 22 23  2  0
M  END
>  <DRUGBANK_ID>  (1) 
DB08267

>  <COMMON_NAME>  (1) 
6-amino-4-(2-phenylethyl)-1,7-dihydro-8H-imidazo[4,5-g]quinazolin-8-one

$$$$
