4812
     RDKit          2D

 21 23  0  0  1  0  0  0  0  0999 V2000
   10.2277   -0.4125    0.0000 Cl  0  0  0  0  0  0  0  0  0  0  0  0
    6.4461   -1.0764    0.0000 O   0  0  0  0  0  0  0  0  0  0  0  0
    2.0930    0.4125    0.0000 O   0  0  0  0  0  0  0  0  0  0  0  0
    2.8075   -0.8250    0.0000 O   0  0  0  0  0  0  0  0  0  0  0  0
    6.4461    0.2514    0.0000 N   0  0  0  0  0  0  0  0  0  0  0  0
    3.5220    0.4125    0.0000 C   0  0  0  0  0  0  0  0  0  0  0  0
    4.2365    0.0000    0.0000 C   0  0  0  0  0  0  0  0  0  0  0  0
    5.6655    0.0000    0.0000 C   0  0  0  0  0  0  0  0  0  0  0  0
    4.9509    0.4125    0.0000 C   0  0  0  0  0  0  0  0  0  0  0  0
    5.6655   -0.8250    0.0000 C   0  0  0  0  0  0  0  0  0  0  0  0
    4.2365   -0.8250    0.0000 C   0  0  0  0  0  0  0  0  0  0  0  0
    4.9509   -1.2375    0.0000 C   0  0  0  0  0  0  0  0  0  0  0  0
    3.5220    1.2375    0.0000 C   0  0  0  0  0  0  0  0  0  0  0  0
    6.9276   -0.4125    0.0000 C   0  0  0  0  0  0  0  0  0  0  0  0
    7.7526   -0.4125    0.0000 C   0  0  0  0  0  0  0  0  0  0  0  0
    2.8075    0.0000    0.0000 C   0  0  0  0  0  0  0  0  0  0  0  0
    8.1651    0.3020    0.0000 C   0  0  0  0  0  0  0  0  0  0  0  0
    8.1651   -1.1270    0.0000 C   0  0  0  0  0  0  0  0  0  0  0  0
    8.9901    0.3020    0.0000 C   0  0  0  0  0  0  0  0  0  0  0  0
    8.9901   -1.1270    0.0000 C   0  0  0  0  0  0  0  0  0  0  0  0
    9.4026   -0.4125    0.0000 C   0  0  0  0  0  0  0  0  0  0  0  0
  1 21  1  0
  2 10  1  0
  2 14  1  0
  3 16  1  0
  4 16  2  0
  5  8  1  0
  5 14  2  0
  6  7  1  0
  6 13  1  0
  6 16  1  0
  7  9  2  0
  7 11  1  0
  8  9  1  0
  8 10  2  0
 10 12  1  0
 11 12  2  0
 14 15  1  0
 15 17  2  0
 15 18  1  0
 17 19  1  0
 18 20  2  0
 19 21  2  0
 20 21  1  0
M  END
>  <DRUGBANK_ID>  (1) 
DB04812

>  <COMMON_NAME>  (1) 
Benoxaprofen

>  <CAS_NUMBER>  (1) 
51234-28-7

>  <UNII>  (1) 
17SZX404IM

>  <SYNONYMS>  (1) 
(±)-benoxaprofen; (1)-2-(4-Chlorophenyl)benzoxazole-5-propionic acid; 2-(4-Chlorophenyl)-alpha-methyl-5-benzoxazoleacetic acid; 2-(4-chlorophenyl)-α-methyl-5-benzoxazoleacetic acid; 2-(p-chlorophenyl)-α-methyl-5-benzoxazoleacetic acid; Benoxaprofen; Benoxaprofene; Benoxaprofeno; Benoxaprofenum; DL-benoxaprofen

$$$$
