
     RDKit          2D

 15 15  0  0  1  0  0  0  0  0999 V2000
   -0.7145    3.7125    0.0000 C   0  0  0  0  0  0  0  0  0  0  0  0
    0.0000    3.3000    0.0000 C   0  0  0  0  0  0  0  0  0  0  0  0
    0.0000    2.4750    0.0000 C   0  0  0  0  0  0  0  0  0  0  0  0
    0.7145    2.0625    0.0000 C   0  0  0  0  0  0  0  0  0  0  0  0
    0.7145    1.2375    0.0000 N   0  0  0  0  0  0  0  0  0  0  0  0
    1.4289    0.8250    0.0000 C   0  0  0  0  0  0  0  0  0  0  0  0
    1.4289   -0.0000    0.0000 C   0  0  0  0  0  0  0  0  0  0  0  0
    2.1434   -0.4125    0.0000 O   0  0  0  0  0  0  0  0  0  0  0  0
    0.7145   -0.4125    0.0000 C   0  0  0  0  0  0  0  0  0  0  0  0
    0.7145   -1.2375    0.0000 O   0  0  0  0  0  0  0  0  0  0  0  0
    0.0000    0.0000    0.0000 C   0  0  0  0  0  0  0  0  0  0  0  0
   -0.7145   -0.4125    0.0000 O   0  0  0  0  0  0  0  0  0  0  0  0
    0.0000    0.8250    0.0000 C   0  0  0  0  0  0  0  0  0  0  0  0
   -0.7145    1.2375    0.0000 C   0  0  0  0  0  0  0  0  0  0  0  0
   -0.7145    2.0625    0.0000 O   0  0  0  0  0  0  0  0  0  0  0  0
  1  2  1  0
  2  3  1  0
  3  4  1  0
  4  5  1  0
  5  6  1  0
  7  6  1  0
  7  8  1  6
  9  7  1  0
  9 10  1  1
  9 11  1  0
 11 12  1  1
 11 13  1  0
 13  5  1  0
 13 14  1  1
 14 15  1  0
M  END
>  <DRUGBANK_ID>  (1) 
DB14872

>  <COMMON_NAME>  (1) 
Lucerastat

>  <CAS_NUMBER>  (1) 
141206-42-0

>  <UNII>  (1) 
GVS3YDM418

>  <SYNONYMS>  (1) 
Lucerastat

$$$$
