WST
     RDKit          2D

 21 24  0  0  0  0  0  0  0  0999 V2000
    0.9841   -1.0938    0.0000 C   0  0  0  0  0  0  0  0  0  0  0  0
    1.4187   -1.7950    0.0000 C   0  0  0  0  0  0  0  0  0  0  0  0
    1.0287   -2.5220    0.0000 O   0  0  0  0  0  0  0  0  0  0  0  0
    2.2433   -1.7693    0.0000 C   0  0  0  0  0  0  0  0  0  0  0  0
    2.6333   -1.0423    0.0000 C   0  0  0  0  0  0  0  0  0  0  0  0
    2.1987   -0.3410    0.0000 C   0  0  0  0  0  0  0  0  0  0  0  0
    1.3741   -0.3668    0.0000 C   0  0  0  0  0  0  0  0  0  0  0  0
    0.9395    0.3345    0.0000 O   0  0  0  0  0  0  0  0  0  0  0  0
    0.1149    0.3087    0.0000 C   0  0  0  0  0  0  0  0  0  0  0  0
   -0.2751   -0.4183    0.0000 C   0  0  0  0  0  0  0  0  0  0  0  0
    0.1595   -1.1196    0.0000 C   0  0  0  0  0  0  0  0  0  0  0  0
   -0.3731   -1.7496    0.0000 C   0  0  0  0  0  0  0  0  0  0  0  0
   -1.1369   -1.4377    0.0000 C   0  0  0  0  0  0  0  0  0  0  0  0
   -1.0763   -0.6150    0.0000 C   0  0  0  0  0  0  0  0  0  0  0  0
   -0.3197    1.0099    0.0000 C   0  0  0  0  0  0  0  0  0  0  0  0
    0.0703    1.7369    0.0000 C   0  0  0  0  0  0  0  0  0  0  0  0
   -0.3643    2.4382    0.0000 C   0  0  0  0  0  0  0  0  0  0  0  0
   -1.1889    2.4124    0.0000 C   0  0  0  0  0  0  0  0  0  0  0  0
   -1.6235    3.1137    0.0000 O   0  0  0  0  0  0  0  0  0  0  0  0
   -1.5789    1.6854    0.0000 C   0  0  0  0  0  0  0  0  0  0  0  0
   -1.1443    0.9842    0.0000 C   0  0  0  0  0  0  0  0  0  0  0  0
  1 11  1  0
  1  2  2  0
  1  7  1  0
  2  3  1  0
  2  4  1  0
  4  5  2  0
  5  6  1  0
  6  7  2  0
  7  8  1  0
  8  9  1  0
  9 10  1  0
  9 15  1  6
 10 14  1  6
 10 11  1  0
 11 12  1  6
 12 13  1  0
 13 14  1  0
 15 21  1  0
 15 16  2  0
 16 17  1  0
 17 18  2  0
 18 19  1  0
 18 20  1  0
 20 21  2  0
M  END
>  <DRUGBANK_ID>  (1) 
DB08737

>  <COMMON_NAME>  (1) 
(3AS,4R,9BR)-4-(4-HYDROXYPHENYL)-1,2,3,3A,4,9B-HEXAHYDROCYCLOPENTA[C]CHROMEN-9-OL

$$$$
