497
     RDKit          2D

 28 31  0  0  0  0  0  0  0  0999 V2000
   -3.3411    0.5936    0.0000 C   0  0  0  0  0  0  0  0  0  0  0  0
   -2.6266    0.1811    0.0000 C   0  0  0  0  0  0  0  0  0  0  0  0
   -2.6266   -0.6439    0.0000 C   0  0  0  0  0  0  0  0  0  0  0  0
   -3.3411   -1.0564    0.0000 C   0  0  0  0  0  0  0  0  0  0  0  0
   -3.3411   -1.8814    0.0000 N   0  0  0  0  0  0  0  0  0  0  0  0
   -2.6266   -2.2939    0.0000 C   0  0  0  0  0  0  0  0  0  0  0  0
   -1.9122   -1.8814    0.0000 C   0  0  0  0  0  0  0  0  0  0  0  0
   -1.9122   -1.0564    0.0000 C   0  0  0  0  0  0  0  0  0  0  0  0
   -1.1977   -0.6439    0.0000 C   0  0  0  0  0  0  0  0  0  0  0  0
   -0.4832   -1.0564    0.0000 C   0  0  0  0  0  0  0  0  0  0  0  0
    0.2313   -0.6439    0.0000 N   0  0  0  0  0  0  0  0  0  0  0  0
    0.2313    0.1811    0.0000 C   0  0  0  0  0  0  0  0  0  0  0  0
   -0.4832    0.5936    0.0000 O   0  0  0  0  0  0  0  0  0  0  0  0
    0.9457    0.5936    0.0000 C   0  0  0  0  0  0  0  0  0  0  0  0
    0.9457    1.4186    0.0000 C   0  0  0  0  0  0  0  0  0  0  0  0
    1.6602    1.8311    0.0000 C   0  0  0  0  0  0  0  0  0  0  0  0
    2.3747    1.4186    0.0000 C   0  0  0  0  0  0  0  0  0  0  0  0
    3.0891    1.8311    0.0000 C   0  0  0  0  0  0  0  0  0  0  0  0
    3.8036    1.4186    0.0000 C   0  0  0  0  0  0  0  0  0  0  0  0
    3.8036    0.5936    0.0000 C   0  0  0  0  0  0  0  0  0  0  0  0
    3.0891    0.1811    0.0000 C   0  0  0  0  0  0  0  0  0  0  0  0
    2.3747    0.5936    0.0000 C   0  0  0  0  0  0  0  0  0  0  0  0
    1.6602    0.1811    0.0000 C   0  0  0  0  0  0  0  0  0  0  0  0
    4.5181    1.8311    0.0000 C   0  0  0  0  0  0  0  0  0  0  0  0
    4.5181    2.6561    0.0000 N   0  0  0  0  0  0  0  0  0  0  0  0
    5.2326    1.4186    0.0000 N   0  0  0  0  0  0  0  0  0  0  0  0
   -0.4832   -1.8814    0.0000 C   0  0  0  0  0  0  0  0  0  0  0  0
   -1.1977   -2.2939    0.0000 C   0  0  0  0  0  0  0  0  0  0  0  0
  1  2  1  0
  3  2  1  6
  3  4  1  0
  3  8  1  0
  4  5  1  0
  5  6  1  0
  6  7  1  0
  7  8  2  0
  7 28  1  0
  8  9  1  0
  9 10  2  0
 10 11  1  0
 10 27  1  0
 11 12  1  0
 12 13  2  0
 12 14  1  0
 14 15  2  0
 14 23  1  0
 15 16  1  0
 16 17  2  0
 17 18  1  0
 17 22  1  0
 18 19  2  0
 19 20  1  0
 19 24  1  0
 20 21  2  0
 21 22  1  0
 22 23  2  0
 24 25  1  0
 24 26  2  0
 27 28  2  0
M  END
>  <DRUGBANK_ID>  (1) 
DB02551

>  <SECONDARY_ACCESSION_NUMBERS>  (1) 
EXPT00201

>  <COMMON_NAME>  (1) 
6-[N-(4-Ethyl-1,2,3,4-Tetrahydro-6-Isoquinolinyl)Carbamyl]-2-Naphthalenecarboxamidine

$$$$
