AI7
     RDKit          2D

 17 17  0  0  0  0  0  0  0  0999 V2000
   -4.1279   -1.5752    0.0000 C   0  0  0  0  0  0  0  0  0  0  0  0
   -4.1279   -3.2252    0.0000 C   0  0  0  0  0  0  0  0  0  0  0  0
   -4.8423   -2.8127    0.0000 C   0  0  0  0  0  0  0  0  0  0  0  0
    0.8734   -1.9877    0.0000 C   0  0  0  0  0  0  0  0  0  0  0  0
   -5.5568   -1.5752    0.0000 C   0  0  0  0  0  0  0  0  0  0  0  0
   -1.2700   -1.5752    0.0000 C   0  0  0  0  0  0  0  0  0  0  0  0
   -3.4134   -2.8127    0.0000 C   0  0  0  0  0  0  0  0  0  0  0  0
   -1.9845   -1.9877    0.0000 C   0  0  0  0  0  0  0  0  0  0  0  0
    2.3024   -1.9877    0.0000 C   0  0  0  0  0  0  0  0  0  0  0  0
    1.5879   -1.5752    0.0000 C   0  0  0  0  0  0  0  0  0  0  0  0
   -3.4134   -1.9877    0.0000 C   0  0  0  0  0  0  0  0  0  0  0  0
    0.1590   -1.5752    0.0000 C   0  0  0  0  0  0  0  0  0  0  0  0
   -0.5555   -1.9877    0.0000 C   0  0  0  0  0  0  0  0  0  0  0  0
   -4.8423   -1.9877    0.0000 C   0  0  0  0  0  0  0  0  0  0  0  0
   -6.2713   -1.9877    0.0000 O   0  0  0  0  0  0  0  0  0  0  0  0
   -2.6989   -1.5752    0.0000 O   0  0  0  0  0  0  0  0  0  0  0  0
   -5.5568   -0.7502    0.0000 O   0  0  0  0  0  0  0  0  0  0  0  0
  1 11  2  0
  2  7  2  0
  3  2  1  0
  3 14  2  0
  4 12  1  0
  4 10  1  0
  5 14  1  0
  5 17  1  0
  6 13  1  0
  7 11  1  0
  8  6  1  0
  9 10  1  0
 11 16  1  0
 13 12  1  0
 14  1  1  0
 15  5  2  0
 16  8  1  0
M  END
>  <DRUGBANK_ID>  (1) 
DB07355

>  <COMMON_NAME>  (1) 
3-(heptyloxy)benzoic acid

$$$$
