
     RDKit          2D

 23 24  0  0  0  0  0  0  0  0999 V2000
   -0.6252    0.3939    0.0000 C   0  0  0  0  0  0  0  0  0  0  0  0
    0.0907    0.8165    0.0000 C   0  0  0  0  0  0  0  0  0  0  0  0
    0.0907    1.6483    0.0000 O   0  0  0  0  0  0  0  0  0  0  0  0
    0.8137    0.3939    0.0000 N   0  0  0  0  0  0  0  0  0  0  0  0
    1.5233    0.8165    0.0000 C   0  0  0  0  0  0  0  0  0  0  0  0
    2.2165    0.4286    0.0000 C   0  0  0  0  0  0  0  0  0  0  0  0
    2.9498    0.7501    0.0000 C   0  0  0  0  0  0  0  0  0  0  0  0
    3.5351    0.1769    0.0000 C   0  0  0  0  0  0  0  0  0  0  0  0
    3.1525   -0.5668    0.0000 C   0  0  0  0  0  0  0  0  0  0  0  0
    2.3335   -0.4169    0.0000 N   0  0  0  0  0  0  0  0  0  0  0  0
    1.8296   -0.9121    0.0000 C   0  0  0  0  0  0  0  0  0  0  0  0
    2.1166   -1.4427    0.0000 C   0  0  0  0  0  0  0  0  0  0  0  0
   -1.3415    0.8033    0.0000 C   0  0  0  0  0  0  0  0  0  0  0  0
   -2.0615    0.3771    0.0000 C   0  0  0  0  0  0  0  0  0  0  0  0
   -2.0615   -0.4322    0.0000 C   0  0  0  0  0  0  0  0  0  0  0  0
   -1.3415   -0.8394    0.0000 C   0  0  0  0  0  0  0  0  0  0  0  0
   -0.6252   -0.4322    0.0000 C   0  0  0  0  0  0  0  0  0  0  0  0
    0.0907   -0.8556    0.0000 O   0  0  0  0  0  0  0  0  0  0  0  0
    0.0827   -1.6483    0.0000 C   0  0  0  0  0  0  0  0  0  0  0  0
   -2.7644    0.7615    0.0000 S   0  0  0  0  0  0  0  0  0  0  0  0
   -3.0685    0.2195    0.0000 O   0  0  0  0  0  0  0  0  0  0  0  0
   -2.4709    1.2843    0.0000 O   0  0  0  0  0  0  0  0  0  0  0  0
   -3.5351    1.1357    0.0000 N   0  0  0  0  0  0  0  0  0  0  0  0
  1  2  1  0
  1 13  2  0
  1 17  1  0
  2  3  2  0
  2  4  1  0
  4  5  1  0
  6  5  1  6
  6  7  1  0
  6 10  1  0
  7  8  1  0
  9  8  1  0
 10  9  1  0
 10 11  1  0
 11 12  1  0
 13 14  1  0
 14 15  2  0
 14 20  1  0
 16 15  1  0
 17 16  2  0
 17 18  1  0
 18 19  1  0
 20 21  2  0
 20 22  2  0
 20 23  1  0
M  END
>  <DRUGBANK_ID>  (1) 
DB16021

>  <COMMON_NAME>  (1) 
Levosulpiride

>  <CAS_NUMBER>  (1) 
23672-07-3

>  <UNII>  (1) 
JTG7R315LK

>  <SYNONYMS>  (1) 
Levosulpirida; Levosulpiride; Levosulpiridum; S-(-)-Sulpiride

$$$$
