E89
     RDKit          2D

 25 28  0  0  0  0  0  0  0  0999 V2000
   -0.5986    2.6020    0.0000 C   0  0  0  0  0  0  0  0  0  0  0  0
    0.1159    2.1895    0.0000 C   0  0  0  0  0  0  0  0  0  0  0  0
    0.8304    2.6020    0.0000 C   0  0  0  0  0  0  0  0  0  0  0  0
    0.8304    3.4270    0.0000 O   0  0  0  0  0  0  0  0  0  0  0  0
    1.5449    2.1895    0.0000 N   0  0  0  0  0  0  0  0  0  0  0  0
    1.5449    1.3645    0.0000 C   0  0  0  0  0  0  0  0  0  0  0  0
    2.2593    0.9520    0.0000 N   0  0  0  0  0  0  0  0  0  0  0  0
    0.8304    0.9520    0.0000 N   0  0  0  0  0  0  0  0  0  0  0  0
    0.1159    1.3645    0.0000 C   0  0  0  0  0  0  0  0  0  0  0  0
   -0.5986    0.9520    0.0000 C   0  0  0  0  0  0  0  0  0  0  0  0
   -0.5986    0.1270    0.0000 C   0  0  0  0  0  0  0  0  0  0  0  0
    0.1159   -0.2855    0.0000 C   0  0  0  0  0  0  0  0  0  0  0  0
    0.1159   -1.1105    0.0000 C   0  0  0  0  0  0  0  0  0  0  0  0
    0.8304   -1.5230    0.0000 C   0  0  0  0  0  0  0  0  0  0  0  0
    0.8304   -2.3480    0.0000 C   0  0  0  0  0  0  0  0  0  0  0  0
    0.1159   -2.7605    0.0000 C   0  0  0  0  0  0  0  0  0  0  0  0
    0.1159   -3.5855    0.0000 O   0  0  0  0  0  0  0  0  0  0  0  0
    0.8304   -3.9980    0.0000 C   0  0  0  0  0  0  0  0  0  0  0  0
   -0.5986   -2.3480    0.0000 C   0  0  0  0  0  0  0  0  0  0  0  0
   -0.5986   -1.5230    0.0000 C   0  0  0  0  0  0  0  0  0  0  0  0
   -1.3130    1.3645    0.0000 C   0  0  0  0  0  0  0  0  0  0  0  0
   -2.0976    1.1096    0.0000 N   0  0  0  0  0  0  0  0  0  0  0  0
   -2.5826    1.7770    0.0000 C   0  0  0  0  0  0  0  0  0  0  0  0
   -2.0976    2.4445    0.0000 N   0  0  0  0  0  0  0  0  0  0  0  0
   -1.3130    2.1895    0.0000 C   0  0  0  0  0  0  0  0  0  0  0  0
  1  2  2  0
  1 25  1  0
  2  3  1  0
  2  9  1  0
  3  4  2  0
  3  5  1  0
  5  6  1  0
  6  7  1  0
  6  8  2  0
  8  9  1  0
  9 10  2  0
 10 11  1  0
 10 21  1  0
 11 12  1  0
 12 13  1  0
 13 14  2  0
 13 20  1  0
 14 15  1  0
 15 16  2  0
 16 17  1  0
 16 19  1  0
 17 18  1  0
 19 20  2  0
 21 22  1  0
 21 25  2  0
 22 23  2  0
 23 24  1  0
 24 25  1  0
M  END
>  <DRUGBANK_ID>  (1) 
DB07704

>  <COMMON_NAME>  (1) 
6-AMINO-4-[2-(4-METHOXYPHENYL)ETHYL]-1,7-DIHYDRO-8H-IMIDAZO[4,5-G]QUINAZOLIN-8-ONE

$$$$
