IOE
     RDKit          2D

 23 24  0  0  0  0  0  0  0  0999 V2000
    0.7066   -0.5960    0.0000 C   0  0  0  0  0  0  0  0  0  0  0  0
    1.4211   -1.0085    0.0000 C   0  0  0  0  0  0  0  0  0  0  0  0
    1.4211   -1.8335    0.0000 C   0  0  0  0  0  0  0  0  0  0  0  0
    0.7066   -2.2460    0.0000 C   0  0  0  0  0  0  0  0  0  0  0  0
   -0.0078   -1.8335    0.0000 C   0  0  0  0  0  0  0  0  0  0  0  0
   -0.0078   -1.0085    0.0000 C   0  0  0  0  0  0  0  0  0  0  0  0
   -0.7223   -0.5960    0.0000 C   0  0  0  0  0  0  0  0  0  0  0  0
   -1.4368   -1.0085    0.0000 O   0  0  0  0  0  0  0  0  0  0  0  0
   -0.7223    0.2290    0.0000 N   0  0  0  0  0  0  0  0  0  0  0  0
   -1.4368    0.6415    0.0000 C   0  0  0  0  0  0  0  0  0  0  0  0
    2.1356   -2.2460    0.0000 S   0  0  0  0  0  0  0  0  0  0  0  0
    2.8500   -2.6585    0.0000 N   0  0  0  0  0  0  0  0  0  0  0  0
    2.5481   -1.5316    0.0000 O   0  0  0  0  0  0  0  0  0  0  0  0
    1.7231   -2.9605    0.0000 O   0  0  0  0  0  0  0  0  0  0  0  0
   -1.4368    1.4665    0.0000 C   0  0  0  0  0  0  0  0  0  0  0  0
   -2.1513    1.8790    0.0000 C   0  0  0  0  0  0  0  0  0  0  0  0
   -2.1513    2.7040    0.0000 C   0  0  0  0  0  0  0  0  0  0  0  0
   -1.4368    3.1165    0.0000 C   0  0  0  0  0  0  0  0  0  0  0  0
   -0.7223    2.7040    0.0000 C   0  0  0  0  0  0  0  0  0  0  0  0
   -0.7223    1.8790    0.0000 C   0  0  0  0  0  0  0  0  0  0  0  0
   -0.0078    1.4665    0.0000 F   0  0  0  0  0  0  0  0  0  0  0  0
   -1.4368    3.9415    0.0000 F   0  0  0  0  0  0  0  0  0  0  0  0
   -2.8657    1.4665    0.0000 F   0  0  0  0  0  0  0  0  0  0  0  0
  1  2  2  0
  1  6  1  0
  2  3  1  0
  3  4  2  0
  3 11  1  0
  4  5  1  0
  5  6  2  0
  6  7  1  0
  7  8  2  0
  7  9  1  0
  9 10  1  0
 10 15  1  0
 11 12  1  0
 11 13  2  0
 11 14  2  0
 15 16  2  0
 15 20  1  0
 16 17  1  0
 16 23  1  0
 17 18  2  0
 18 19  1  0
 18 22  1  0
 19 20  2  0
 20 21  1  0
M  END
>  <DRUGBANK_ID>  (1) 
DB02221

>  <SECONDARY_ACCESSION_NUMBERS>  (1) 
EXPT01903

>  <COMMON_NAME>  (1) 
4-(Aminosulfonyl)-N-[(2,4,6-Trifluorophenyl)Methyl]-Benzamide

$$$$
