
     RDKit          2D

 28 29  0  0  1  0  0  0  0  0999 V2000
   -2.9808   -3.1267    0.0000 C   0  0  0  0  0  0  0  0  0  0  0  0
   -2.2523   -2.7394    0.0000 C   0  0  0  0  0  0  0  0  0  0  0  0
   -2.2236   -1.9149    0.0000 C   0  0  0  0  0  0  0  0  0  0  0  0
   -2.9232   -1.4777    0.0000 C   0  0  0  0  0  0  0  0  0  0  0  0
   -1.4951   -1.5275    0.0000 C   0  0  0  0  0  0  0  0  0  0  0  0
   -1.4663   -0.7030    0.0000 C   0  0  0  0  0  0  0  0  0  0  0  0
   -1.4375    0.1215    0.0000 C   0  0  0  0  0  0  0  0  0  0  0  0
   -1.6925    0.9061    0.0000 C   0  0  0  0  0  0  0  0  0  0  0  0
   -1.1404    1.5192    0.0000 C   0  0  0  0  0  0  0  0  0  0  0  0
   -0.3335    1.3476    0.0000 C   0  0  0  0  0  0  0  0  0  0  0  0
   -0.0785    0.5630    0.0000 C   0  0  0  0  0  0  0  0  0  0  0  0
   -0.6306   -0.0501    0.0000 O   0  0  0  0  0  0  0  0  0  0  0  0
    0.7465    0.5630    0.0000 C   0  0  0  0  0  0  0  0  0  0  0  0
    1.0014    1.3476    0.0000 C   0  0  0  0  0  0  0  0  0  0  0  0
    1.7860    1.6026    0.0000 O   0  0  0  0  0  0  0  0  0  0  0  0
    0.3340    1.8326    0.0000 C   0  0  0  0  0  0  0  0  0  0  0  0
    0.3340    2.6576    0.0000 C   0  0  0  0  0  0  0  0  0  0  0  0
    1.0484    3.0701    0.0000 C   0  0  0  0  0  0  0  0  0  0  0  0
    1.7629    2.6576    0.0000 C   0  0  0  0  0  0  0  0  0  0  0  0
    2.4774    3.0701    0.0000 C   0  0  0  0  0  0  0  0  0  0  0  0
    3.1918    2.6576    0.0000 C   0  0  0  0  0  0  0  0  0  0  0  0
    3.9063    3.0701    0.0000 C   0  0  0  0  0  0  0  0  0  0  0  0
    4.6208    2.6576    0.0000 C   0  0  0  0  0  0  0  0  0  0  0  0
    5.3353    3.0701    0.0000 O   0  0  0  0  0  0  0  0  0  0  0  0
    4.6208    1.8326    0.0000 O   0  0  0  0  0  0  0  0  0  0  0  0
   -2.2545    0.0066    0.0000 O   0  0  0  0  0  0  0  0  0  0  0  0
   -0.6418   -0.7318    0.0000 F   0  0  0  0  0  0  0  0  0  0  0  0
   -2.2908   -0.6743    0.0000 F   0  0  0  0  0  0  0  0  0  0  0  0
  1  2  1  0
  2  3  1  0
  3  4  1  6
  3  5  1  0
  5  6  1  0
  6 27  1  0
  6 28  1  0
  7  6  1  0
  7  8  1  0
  7 12  1  0
  7 26  1  6
  8  9  1  0
 10  9  1  6
 10 11  1  0
 10 16  1  0
 11 12  1  0
 11 13  1  1
 13 14  1  0
 14 15  2  0
 14 16  1  0
 16 17  1  1
 17 18  1  0
 18 19  1  0
 19 20  1  0
 20 21  1  0
 21 22  1  0
 22 23  1  0
 23 24  2  0
 23 25  1  0
M  END
>  <DRUGBANK_ID>  (1) 
DB05514

>  <COMMON_NAME>  (1) 
Cobiprostone

>  <CAS_NUMBER>  (1) 
333963-42-1

>  <UNII>  (1) 
IL870Q3Z8I

>  <SYNONYMS>  (1) 
Cobiprostone

$$$$
