MOB
     RDKit          2D

 22 23  0  0  0  0  0  0  0  0999 V2000
    0.3451   -1.6081    0.0000 C   0  0  0  0  0  0  0  0  0  0  0  0
    1.0596   -2.0206    0.0000 C   0  0  0  0  0  0  0  0  0  0  0  0
    1.0596   -2.8456    0.0000 C   0  0  0  0  0  0  0  0  0  0  0  0
    0.3451   -3.2581    0.0000 C   0  0  0  0  0  0  0  0  0  0  0  0
   -0.3693   -2.8456    0.0000 C   0  0  0  0  0  0  0  0  0  0  0  0
   -0.3693   -2.0206    0.0000 C   0  0  0  0  0  0  0  0  0  0  0  0
   -0.3693    0.4544    0.0000 C   0  0  0  0  0  0  0  0  0  0  0  0
   -1.0838    0.8669    0.0000 C   0  0  0  0  0  0  0  0  0  0  0  0
   -1.0838    1.6919    0.0000 C   0  0  0  0  0  0  0  0  0  0  0  0
   -0.3693    2.1044    0.0000 C   0  0  0  0  0  0  0  0  0  0  0  0
    0.3451    1.6919    0.0000 C   0  0  0  0  0  0  0  0  0  0  0  0
    0.3451    0.8669    0.0000 C   0  0  0  0  0  0  0  0  0  0  0  0
    1.7741   -1.6081    0.0000 C   0  0  0  0  0  0  0  0  0  0  0  0
   -2.5127    1.6919    0.0000 C   0  0  0  0  0  0  0  0  0  0  0  0
    1.7741    1.6919    0.0000 C   0  0  0  0  0  0  0  0  0  0  0  0
    0.3451   -0.7831    0.0000 N   0  0  0  0  0  0  0  0  0  0  0  0
   -0.3693   -0.3706    0.0000 N   0  0  0  0  0  0  0  0  0  0  0  0
    2.4886   -2.0206    0.0000 O   0  0  0  0  0  0  0  0  0  0  0  0
    1.7741   -0.7831    0.0000 O   0  0  0  0  0  0  0  0  0  0  0  0
   -1.7983    2.1044    0.0000 O   0  0  0  0  0  0  0  0  0  0  0  0
   -0.3693    2.9294    0.0000 O   0  0  0  0  0  0  0  0  0  0  0  0
    1.0596    2.1044    0.0000 O   0  0  0  0  0  0  0  0  0  0  0  0
  1  2  2  0
  1  6  1  0
  1 16  1  0
  2  3  1  0
  2 13  1  0
  3  4  2  0
  4  5  1  0
  5  6  2  0
  7  8  2  0
  7 12  1  0
  7 17  1  0
  8  9  1  0
  9 10  2  0
  9 20  1  0
 10 11  1  0
 10 21  1  0
 11 12  2  0
 11 22  1  0
 13 18  2  0
 13 19  1  0
 14 20  1  0
 15 22  1  0
 16 17  2  0
M  END
>  <DRUGBANK_ID>  (1) 
DB08196

>  <COMMON_NAME>  (1) 
2-((3',5'-DIMETHOXY-4'-HYDROXYPHENYL)AZO)BENZOIC ACID

$$$$
