
     RDKit          2D

 31 33  0  0  0  0  0  0  0  0999 V2000
   -0.1306   -1.6173    0.0000 P   0  0  0  0  0  0  0  0  0  0  0  0
    1.1747   -2.1985    0.0000 P   0  0  0  0  0  0  0  0  0  0  0  0
   -1.6660    0.4159    0.0000 O   0  0  0  0  0  0  0  0  0  0  0  0
   -3.2309   -1.0361    0.0000 O   0  0  0  0  0  0  0  0  0  0  0  0
   -3.7855    0.6708    0.0000 O   0  0  0  0  0  0  0  0  0  0  0  0
   -0.6155   -0.9499    0.0000 O   0  0  0  0  0  0  0  0  0  0  0  0
   -3.7623    1.7258    0.0000 O   0  0  0  0  0  0  0  0  0  0  0  0
    0.3542   -2.2847    0.0000 O   0  0  0  0  0  0  0  0  0  0  0  0
    0.5367   -1.1324    0.0000 O   0  0  0  0  0  0  0  0  0  0  0  0
   -0.7980   -2.1022    0.0000 O   0  0  0  0  0  0  0  0  0  0  0  0
   -2.3334    4.2008    0.0000 O   0  0  0  0  0  0  0  0  0  0  0  0
    1.9952   -2.1123    0.0000 O   0  0  0  0  0  0  0  0  0  0  0  0
    1.2610   -3.0190    0.0000 O   0  0  0  0  0  0  0  0  0  0  0  0
    1.0885   -1.3780    0.0000 O   0  0  0  0  0  0  0  0  0  0  0  0
   -2.3334    1.7258    0.0000 N   0  0  0  0  0  0  0  0  0  0  0  0
   -3.0479    2.9633    0.0000 N   0  0  0  0  0  0  0  0  0  0  0  0
   -2.7459   -0.3686    0.0000 C   0  0  0  0  0  0  0  0  0  0  0  0
   -3.0009    0.4159    0.0000 C   0  0  0  0  0  0  0  0  0  0  0  0
   -1.9209   -0.3686    0.0000 C   0  0  0  0  0  0  0  0  0  0  0  0
   -2.3334    0.9008    0.0000 C   0  0  0  0  0  0  0  0  0  0  0  0
   -1.4360   -1.0361    0.0000 C   0  0  0  0  0  0  0  0  0  0  0  0
   -3.0479    2.1383    0.0000 C   0  0  0  0  0  0  0  0  0  0  0  0
   -1.6190    2.1383    0.0000 C   0  0  0  0  0  0  0  0  0  0  0  0
   -1.6190    2.9633    0.0000 C   0  0  0  0  0  0  0  0  0  0  0  0
   -2.3334    3.3758    0.0000 C   0  0  0  0  0  0  0  0  0  0  0  0
    2.4801   -2.7797    0.0000 C   0  0  0  0  0  0  0  0  0  0  0  0
    3.3007   -2.6935    0.0000 C   0  0  0  0  0  0  0  0  0  0  0  0
    2.1446   -3.5334    0.0000 C   0  0  0  0  0  0  0  0  0  0  0  0
    3.7855   -3.3609    0.0000 C   0  0  0  0  0  0  0  0  0  0  0  0
    2.6295   -4.2008    0.0000 C   0  0  0  0  0  0  0  0  0  0  0  0
    3.4500   -4.1146    0.0000 C   0  0  0  0  0  0  0  0  0  0  0  0
  1  6  1  0
  1  8  1  0
  1  9  1  0
  1 10  2  0
  2  8  1  0
  2 12  1  0
  2 13  1  0
  2 14  2  0
  3 19  1  0
  3 20  1  0
  6 21  1  0
  7 22  2  0
 11 25  2  0
 12 26  1  0
 15 22  1  0
 15 23  1  0
 16 22  1  0
 16 25  1  0
 17  4  1  1
 17 18  1  0
 17 19  1  0
 18  5  1  1
 18 20  1  0
 19 21  1  6
 20 15  1  6
 23 24  2  0
 24 25  1  0
 26 27  2  0
 26 28  1  0
 27 29  1  0
 28 30  2  0
 29 31  2  0
 30 31  1  0
M  END
>  <DRUGBANK_ID>  (1) 
DB02790

>  <SECONDARY_ACCESSION_NUMBERS>  (1) 
EXPT03199

>  <COMMON_NAME>  (1) 
Phenyl-uridine-5'-diphosphate

$$$$
