
     RDKit          2D

 35 40  0  0  0  0  0  0  0  0999 V2000
    7.6876   -2.5959    0.0000 C   0  0  0  0  0  0  0  0  0  0  0  0
    6.9947   -3.0437    0.0000 C   0  0  0  0  0  0  0  0  0  0  0  0
    7.0360   -3.8676    0.0000 C   0  0  0  0  0  0  0  0  0  0  0  0
    6.2604   -2.6675    0.0000 N   0  0  0  0  0  0  0  0  0  0  0  0
    5.5675   -3.1153    0.0000 C   0  0  0  0  0  0  0  0  0  0  0  0
    4.8333   -2.7391    0.0000 C   0  0  0  0  0  0  0  0  0  0  0  0
    4.7919   -1.9151    0.0000 N   0  0  0  0  0  0  0  0  0  0  0  0
    5.4848   -1.4673    0.0000 C   0  0  0  0  0  0  0  0  0  0  0  0
    6.2191   -1.8435    0.0000 C   0  0  0  0  0  0  0  0  0  0  0  0
    4.0577   -1.5390    0.0000 C   0  0  0  0  0  0  0  0  0  0  0  0
    3.3648   -1.9867    0.0000 C   0  0  0  0  0  0  0  0  0  0  0  0
    2.6305   -1.6106    0.0000 C   0  0  0  0  0  0  0  0  0  0  0  0
    2.5892   -0.7866    0.0000 C   0  0  0  0  0  0  0  0  0  0  0  0
    1.8549   -0.4104    0.0000 N   0  0  0  0  0  0  0  0  0  0  0  0
    1.8136    0.4135    0.0000 C   0  0  0  0  0  0  0  0  0  0  0  0
    2.5065    0.8613    0.0000 N   0  0  0  0  0  0  0  0  0  0  0  0
    2.4652    1.6853    0.0000 C   0  0  0  0  0  0  0  0  0  0  0  0
    1.7309    2.0615    0.0000 C   0  0  0  0  0  0  0  0  0  0  0  0
    1.5192    2.8588    0.0000 C   0  0  0  0  0  0  0  0  0  0  0  0
    0.6954    2.9038    0.0000 C   0  0  0  0  0  0  0  0  0  0  0  0
    0.3980    2.1343    0.0000 N   0  0  0  0  0  0  0  0  0  0  0  0
    1.0380    1.6137    0.0000 C   0  0  0  0  0  0  0  0  0  0  0  0
    1.0794    0.7897    0.0000 N   0  0  0  0  0  0  0  0  0  0  0  0
   -0.4171    2.0070    0.0000 C   0  0  0  0  0  0  0  0  0  0  0  0
    0.1007    1.3647    0.0000 C   0  0  0  0  0  0  0  0  0  0  0  0
   -0.1967    0.5952    0.0000 C   0  0  0  0  0  0  0  0  0  0  0  0
   -1.0118    0.4680    0.0000 C   0  0  0  0  0  0  0  0  0  0  0  0
   -1.5296    1.1103    0.0000 C   0  0  0  0  0  0  0  0  0  0  0  0
   -1.2322    1.8798    0.0000 C   0  0  0  0  0  0  0  0  0  0  0  0
   -0.9349    2.6493    0.0000 C   0  0  0  0  0  0  0  0  0  0  0  0
   -0.6375    3.4189    0.0000 N   0  0  0  0  0  0  0  0  0  0  0  0
    0.1776    3.5461    0.0000 C   0  0  0  0  0  0  0  0  0  0  0  0
    0.4750    4.3157    0.0000 O   0  0  0  0  0  0  0  0  0  0  0  0
    3.2821   -0.3388    0.0000 N   0  0  0  0  0  0  0  0  0  0  0  0
    4.0163   -0.7150    0.0000 C   0  0  0  0  0  0  0  0  0  0  0  0
  1  2  1  0
  2  3  1  0
  2  4  1  0
  4  5  1  0
  4  9  1  0
  5  6  1  0
  6  7  1  0
  7  8  1  0
  7 10  1  0
  8  9  1  0
 10 11  2  0
 10 35  1  0
 11 12  1  0
 12 13  2  0
 13 14  1  0
 13 34  1  0
 14 15  1  0
 15 16  2  0
 15 23  1  0
 16 17  1  0
 17 18  2  0
 18 19  1  0
 18 22  1  0
 19 20  2  0
 20 21  1  0
 20 32  1  0
 21 22  1  0
 21 24  1  0
 22 23  2  0
 24 25  1  0
 24 29  1  0
 24 30  1  0
 25 26  1  0
 26 27  1  0
 27 28  1  0
 28 29  1  0
 30 31  1  0
 31 32  1  0
 32 33  2  0
 34 35  2  0
M  END
>  <DRUGBANK_ID>  (1) 
DB16218

>  <COMMON_NAME>  (1) 
Lerociclib

>  <CAS_NUMBER>  (1) 
1628256-23-4

>  <UNII>  (1) 
WBH8AY6ENB

>  <SYNONYMS>  (1) 
G1t38 free base; Lerociclib

$$$$
