
     RDKit          2D

 27 26  0  0  1  0  0  0  0  0999 V2000
   -1.8118    5.1711    0.0000 C   0  0  0  0  0  0  0  0  0  0  0  0
   -1.0974    4.7586    0.0000 C   0  0  0  0  0  0  0  0  0  0  0  0
   -0.3829    5.1711    0.0000 C   0  0  0  0  0  0  0  0  0  0  0  0
   -1.0974    3.9336    0.0000 C   0  0  0  0  0  0  0  0  0  0  0  0
   -0.3829    3.5211    0.0000 C   0  0  0  0  0  0  0  0  0  0  0  0
   -0.3829    2.6961    0.0000 C   0  0  0  0  0  0  0  0  0  0  0  0
    0.3316    2.2836    0.0000 C   0  0  0  0  0  0  0  0  0  0  0  0
    1.0461    2.6961    0.0000 C   0  0  0  0  0  0  0  0  0  0  0  0
    0.3316    1.4586    0.0000 C   0  0  0  0  0  0  0  0  0  0  0  0
    1.0461    1.0461    0.0000 C   0  0  0  0  0  0  0  0  0  0  0  0
    1.0461    0.2211    0.0000 C   0  0  0  0  0  0  0  0  0  0  0  0
    1.7605   -0.1914    0.0000 C   0  0  0  0  0  0  0  0  0  0  0  0
    1.7605   -1.0164    0.0000 C   0  0  0  0  0  0  0  0  0  0  0  0
    2.4750   -1.4289    0.0000 C   0  0  0  0  0  0  0  0  0  0  0  0
    3.1895   -1.0164    0.0000 O   0  0  0  0  0  0  0  0  0  0  0  0
    3.9039   -1.4289    0.0000 P   0  0  0  0  0  0  0  0  0  0  0  0
    3.4914   -2.1434    0.0000 O   0  0  0  0  0  0  0  0  0  0  0  0
    4.3164   -0.7145    0.0000 O   0  0  0  0  0  0  0  0  0  0  0  0
    4.6184   -1.8414    0.0000 O   0  0  0  0  0  0  0  0  0  0  0  0
    5.3329   -1.4289    0.0000 P   0  0  0  0  0  0  0  0  0  0  0  0
    6.0474   -1.0164    0.0000 O   0  0  0  0  0  0  0  0  0  0  0  0
    5.7454   -2.1434    0.0000 O   0  0  0  0  0  0  0  0  0  0  0  0
    4.9204   -0.7145    0.0000 O   0  0  0  0  0  0  0  0  0  0  0  0
    2.4750    0.2211    0.0000 C   0  0  0  0  0  0  0  0  0  0  0  0
    3.1895    0.6336    0.0000 F   0  0  0  0  0  0  0  0  0  0  0  0
    2.8875   -0.4934    0.0000 F   0  0  0  0  0  0  0  0  0  0  0  0
    2.0625    0.9355    0.0000 F   0  0  0  0  0  0  0  0  0  0  0  0
  1  2  1  0
  2  3  1  0
  2  4  2  3
  4  5  1  0
  5  6  1  0
  6  7  1  0
  7  8  1  0
  7  9  2  0
  9 10  1  0
 10 11  1  0
 11 12  1  0
 12 13  2  0
 12 24  1  0
 13 14  1  0
 14 15  1  0
 16 15  1  0
 16 17  1  0
 16 18  2  0
 16 19  1  0
 19 20  1  0
 20 21  1  0
 20 22  1  0
 20 23  2  0
 24 25  1  0
 24 26  1  0
 24 27  1  0
M  END
>  <DRUGBANK_ID>  (1) 
DB02808

>  <SECONDARY_ACCESSION_NUMBERS>  (1) 
EXPT01427

>  <COMMON_NAME>  (1) 
Trifluorofurnesyl Diphosphate

$$$$
