
     RDKit          2D

 19 19  0  0  0  0  0  0  0  0999 V2000
   14.5209   -6.9363    0.0000 C   0  0  0  0  0  0  0  0  0  0  0  0
   14.5209   -6.1054    0.0000 N   0  0  0  0  0  0  0  0  0  0  0  0
   15.2457   -7.3547    0.0000 O   0  0  0  0  0  0  0  0  0  0  0  0
    8.8044   -4.4435    0.0000 N   0  0  0  0  0  0  0  0  0  0  0  0
   13.8137   -5.6928    0.0000 C   0  0  0  0  0  0  0  0  0  0  0  0
   11.6568   -4.4435    0.0000 O   0  0  0  0  0  0  0  0  0  0  0  0
   10.2365   -4.4435    0.0000 C   0  0  0  0  0  0  0  0  0  0  0  0
   12.3816   -4.8678    0.0000 C   0  0  0  0  0  0  0  0  0  0  0  0
    9.5176   -4.8501    0.0000 C   0  0  0  0  0  0  0  0  0  0  0  0
   10.9496   -4.8501    0.0000 C   0  0  0  0  0  0  0  0  0  0  0  0
   13.8137   -4.8678    0.0000 C   0  0  0  0  0  0  0  0  0  0  0  0
   13.1006   -6.0995    0.0000 C   0  0  0  0  0  0  0  0  0  0  0  0
   13.1006   -4.4435    0.0000 C   0  0  0  0  0  0  0  0  0  0  0  0
   12.3816   -5.6928    0.0000 C   0  0  0  0  0  0  0  0  0  0  0  0
   10.2365   -3.6126    0.0000 O   0  0  0  0  0  0  0  0  0  0  0  0
    8.0855   -4.8501    0.0000 C   0  0  0  0  0  0  0  0  0  0  0  0
   13.8137   -7.3547    0.0000 C   0  0  0  0  0  0  0  0  0  0  0  0
    7.3724   -4.4435    0.0000 C   0  0  0  0  0  0  0  0  0  0  0  0
    8.0855   -5.6811    0.0000 C   0  0  0  0  0  0  0  0  0  0  0  0
  2  1  1  0
  3  1  2  0
  4  9  1  0
  5  2  1  0
  6  8  1  0
  7 10  1  0
  8 14  1  0
  9  7  1  0
 10  6  1  0
 11  5  2  0
 12  5  1  0
 13 11  1  0
 13  8  2  0
 14 12  2  0
 15  7  1  0
 16  4  1  0
 17  1  1  0
 18 16  1  0
 19 16  1  0
M  END
>  <DRUGBANK_ID>  (1) 
DB01297

>  <COMMON_NAME>  (1) 
Practolol

>  <CAS_NUMBER>  (1) 
6673-35-4

>  <UNII>  (1) 
SUG9176GRW

>  <SYNONYMS>  (1) 
(Â±)-practolol; 1-(4-acetamidophenoxy)-3-isopropylamino-2-propanol; 4'-(2-hydroxy-3-(isopropylamino)propoxy)acetanilide; N-(4-(2-hydroxy-3-((1-methylethyl)amino)propoxy)phenyl)acetamide; Practolol; Practololo; Practololum; Praktololu

$$$$
