G27
     RDKit          2D

 19 20  0  0  0  0  0  0  0  0999 V2000
    2.7953    0.8858    0.0000 C   0  0  0  0  0  0  0  0  0  0  0  0
    3.5098    0.4733    0.0000 C   0  0  0  0  0  0  0  0  0  0  0  0
    3.5098   -0.3517    0.0000 C   0  0  0  0  0  0  0  0  0  0  0  0
    2.7953   -0.7642    0.0000 C   0  0  0  0  0  0  0  0  0  0  0  0
    2.0809   -0.3517    0.0000 C   0  0  0  0  0  0  0  0  0  0  0  0
    2.0809    0.4733    0.0000 C   0  0  0  0  0  0  0  0  0  0  0  0
    1.3664    0.8858    0.0000 C   0  0  0  0  0  0  0  0  0  0  0  0
    0.6519    0.4733    0.0000 C   0  0  0  0  0  0  0  0  0  0  0  0
   -0.0625    0.8858    0.0000 C   0  0  0  0  0  0  0  0  0  0  0  0
   -0.7770    0.4733    0.0000 N   0  0  0  0  0  0  0  0  0  0  0  0
   -0.7770   -0.3517    0.0000 C   0  0  0  0  0  0  0  0  0  0  0  0
   -1.4915    0.8858    0.0000 C   0  0  0  0  0  0  0  0  0  0  0  0
   -2.2059    0.4733    0.0000 C   0  0  0  0  0  0  0  0  0  0  0  0
   -2.9203    0.8858    0.0000 O   0  0  0  0  0  0  0  0  0  0  0  0
   -2.2059   -0.3517    0.0000 C   0  0  0  0  0  0  0  0  0  0  0  0
   -2.9203   -0.7642    0.0000 O   0  0  0  0  0  0  0  0  0  0  0  0
   -1.4915   -0.7642    0.0000 C   0  0  0  0  0  0  0  0  0  0  0  0
   -1.4915   -1.5892    0.0000 C   0  0  0  0  0  0  0  0  0  0  0  0
   -2.2059   -2.0016    0.0000 O   0  0  0  0  0  0  0  0  0  0  0  0
  1  2  2  0
  1  6  1  0
  2  3  1  0
  3  4  2  0
  4  5  1  0
  5  6  2  0
  6  7  1  0
  7  8  1  0
  8  9  1  0
  9 10  1  0
 10 11  1  0
 10 12  1  0
 11 17  1  0
 12 13  1  0
 13 14  1  6
 13 15  1  0
 15 16  1  1
 15 17  1  0
 17 18  1  6
 18 19  1  0
M  END
>  <DRUGBANK_ID>  (1) 
DB07807

>  <COMMON_NAME>  (1) 
(3R,4R,5R)-5-(HYDROXYMETHYL)-1-(3-PHENYLPROPYL)PIPERIDINE-3,4-DIOL

$$$$
