
     RDKit          2D

 26 28  0  0  0  0  0  0  0  0999 V2000
    2.9199    1.5876    0.0000 C   0  0  0  0  0  0  0  0  0  0  0  0
    2.1685    1.2463    0.0000 C   0  0  0  0  0  0  0  0  0  0  0  0
    1.4974    1.7265    0.0000 O   0  0  0  0  0  0  0  0  0  0  0  0
    2.0879    0.4250    0.0000 C   0  0  0  0  0  0  0  0  0  0  0  0
    2.7590   -0.0553    0.0000 N   0  0  0  0  0  0  0  0  0  0  0  0
    1.3378    0.0841    0.0000 C   0  0  0  0  0  0  0  0  0  0  0  0
    0.6203    0.4912    0.0000 N   0  0  0  0  0  0  0  0  0  0  0  0
    0.0233   -0.0677    0.0000 C   0  0  0  0  0  0  0  0  0  0  0  0
   -0.7848    0.0993    0.0000 C   0  0  0  0  0  0  0  0  0  0  0  0
   -1.0442    0.8814    0.0000 C   0  0  0  0  0  0  0  0  0  0  0  0
   -0.5630    1.5531    0.0000 C   0  0  0  0  0  0  0  0  0  0  0  0
   -1.0442    2.2048    0.0000 N   0  0  0  0  0  0  0  0  0  0  0  0
   -1.8262    1.9541    0.0000 C   0  0  0  0  0  0  0  0  0  0  0  0
   -2.5380    2.3752    0.0000 C   0  0  0  0  0  0  0  0  0  0  0  0
   -3.2599    1.9541    0.0000 C   0  0  0  0  0  0  0  0  0  0  0  0
   -3.2599    1.1320    0.0000 C   0  0  0  0  0  0  0  0  0  0  0  0
   -2.5380    0.7110    0.0000 C   0  0  0  0  0  0  0  0  0  0  0  0
   -2.5349   -0.1141    0.0000 N   0  0  0  0  0  0  0  0  0  0  0  0
   -1.8262    1.1320    0.0000 C   0  0  0  0  0  0  0  0  0  0  0  0
    0.3527   -0.8163    0.0000 C   0  0  0  0  0  0  0  0  0  0  0  0
    0.0237   -1.3882    0.0000 O   0  0  0  0  0  0  0  0  0  0  0  0
    1.1723   -0.7239    0.0000 N   0  0  0  0  0  0  0  0  0  0  0  0
    1.7282   -1.3320    0.0000 C   0  0  0  0  0  0  0  0  0  0  0  0
    1.4796   -2.1190    0.0000 C   0  0  0  0  0  0  0  0  0  0  0  0
    0.9426   -2.2375    0.0000 O   0  0  0  0  0  0  0  0  0  0  0  0
    2.0364   -2.7281    0.0000 O   0  0  0  0  0  0  0  0  0  0  0  0
  2  1  1  6
  2  3  1  0
  4  2  1  0
  4  5  1  6
  6  4  1  0
  6  7  2  0
  6 22  1  0
  8  7  1  0
  8 20  1  0
  9  8  2  0
  9 10  1  0
 10 11  2  0
 11 12  1  0
 13 12  1  0
 14 13  1  0
 15 14  2  0
 16 15  1  0
 17 16  2  0
 17 18  1  0
 19 10  1  0
 19 13  2  0
 19 17  1  0
 20 21  2  0
 20 22  1  0
 23 22  1  0
 23 24  1  0
 24 25  2  0
 24 26  1  0
M  END
>  <DRUGBANK_ID>  (1) 
DB01641

>  <SECONDARY_ACCESSION_NUMBERS>  (1) 
EXPT00264

>  <COMMON_NAME>  (1) 
{(4Z)-2-[(1R,2R)-1-Amino-2-hydroxypropyl]-4-[(4-amino-1H-indol-3-yl)methylene]-5-oxo-4,5-dihydro-1H-imidazol-1-yl}acetic acid

$$$$
