
     RDKit          2D

 20 23  0  0  0  0  0  0  0  0999 V2000
    0.8375   -0.7122    0.0000 C   0  0  0  0  0  0  0  0  0  0  0  0
    0.0215   -0.7194    0.0000 C   0  0  0  0  0  0  0  0  0  0  0  0
    1.1920   -0.0537    0.0000 C   0  0  0  0  0  0  0  0  0  0  0  0
    1.7540   -0.4044    0.0000 C   0  0  0  0  0  0  0  0  0  0  0  0
    1.1740   -1.4747    0.0000 C   0  0  0  0  0  0  0  0  0  0  0  0
   -0.3937   -0.0715    0.0000 C   0  0  0  0  0  0  0  0  0  0  0  0
   -0.3937   -1.4460    0.0000 C   0  0  0  0  0  0  0  0  0  0  0  0
    0.8126    0.6586    0.0000 C   0  0  0  0  0  0  0  0  0  0  0  0
    2.0403   -0.0537    0.0000 C   0  0  0  0  0  0  0  0  0  0  0  0
    1.7540    0.9843    0.0000 C   0  0  0  0  0  0  0  0  0  0  0  0
    2.0546   -1.4747    0.0000 C   0  0  0  0  0  0  0  0  0  0  0  0
    0.0071    0.6442    0.0000 C   0  0  0  0  0  0  0  0  0  0  0  0
   -1.1812   -0.0715    0.0000 C   0  0  0  0  0  0  0  0  0  0  0  0
   -1.2312   -1.4604    0.0000 C   0  0  0  0  0  0  0  0  0  0  0  0
    0.8912    1.3781    0.0000 N   0  0  0  0  0  0  0  0  0  0  0  0
    2.4913   -0.7445    0.0000 C   0  0  0  0  0  0  0  0  0  0  0  0
   -1.6393   -0.7445    0.0000 C   0  0  0  0  0  0  0  0  0  0  0  0
   -1.6572   -2.1834    0.0000 O   0  0  0  0  0  0  0  0  0  0  0  0
    0.6156    2.1834    0.0000 C   0  0  0  0  0  0  0  0  0  0  0  0
   -2.4913   -2.1834    0.0000 C   0  0  0  0  0  0  0  0  0  0  0  0
  1  2  1  0
  1  3  1  0
  1  4  1  6
  1  5  1  0
  2  6  2  0
  2  7  1  0
  3  8  1  0
  3  9  1  1
  4 10  1  0
  5 11  1  0
  6 12  1  0
  6 13  1  0
  7 14  2  0
  8 15  1  0
  8 12  1  6
  9 16  1  0
 10 15  1  0
 11 16  1  0
 13 17  2  0
 14 18  1  0
 14 17  1  0
 15 19  1  0
 18 20  1  0
M  END
>  <DRUGBANK_ID>  (1) 
DB00514

>  <SECONDARY_ACCESSION_NUMBERS>  (1) 
APRD00655

>  <COMMON_NAME>  (1) 
Dextromethorphan

>  <CAS_NUMBER>  (1) 
125-71-3

>  <UNII>  (1) 
7355X3ROTS

>  <SYNONYMS>  (1) 
(+)-dextromethorphan; D-methorphan; delta-Methorphan; Dex; Dextromethorfan; Dextromethorphan; Dextrom√©thorphane; Dextromethorphanum; Dextrometorfano; DM

$$$$
