
     RDKit          2D

 22 25  0  0  0  0  0  0  0  0999 V2000
    1.5087    0.0989    0.0000 C   0  0  0  0  0  0  0  0  0  0  0  0
    0.7942   -0.3135    0.0000 C   0  0  0  0  0  0  0  0  0  0  0  0
    0.0797    0.0989    0.0000 C   0  0  0  0  0  0  0  0  0  0  0  0
   -0.6348   -0.3135    0.0000 C   0  0  0  0  0  0  0  0  0  0  0  0
   -2.0638   -1.1385    0.0000 C   0  0  0  0  0  0  0  0  0  0  0  0
   -0.6348   -1.1385    0.0000 C   0  0  0  0  0  0  0  0  0  0  0  0
    0.7942   -1.1385    0.0000 C   0  0  0  0  0  0  0  0  0  0  0  0
    1.5087    0.9240    0.0000 C   0  0  0  0  0  0  0  0  0  0  0  0
   -0.6348    0.5115    0.0000 C   0  0  0  0  0  0  0  0  0  0  0  0
   -1.3493    0.0989    0.0000 C   0  0  0  0  0  0  0  0  0  0  0  0
   -2.0638   -0.3135    0.0000 C   0  0  0  0  0  0  0  0  0  0  0  0
   -2.7784   -1.5511    0.0000 O   0  0  0  0  0  0  0  0  0  0  0  0
   -1.3493   -1.5511    0.0000 C   0  0  0  0  0  0  0  0  0  0  0  0
    0.0797   -1.5511    0.0000 C   0  0  0  0  0  0  0  0  0  0  0  0
    1.5087   -1.5511    0.0000 O   0  0  0  0  0  0  0  0  0  0  0  0
    0.0797    0.9240    0.0000 C   0  0  0  0  0  0  0  0  0  0  0  0
    0.7942    1.3365    0.0000 C   0  0  0  0  0  0  0  0  0  0  0  0
    1.5949    1.7445    0.0000 C   0  0  0  0  0  0  0  0  0  0  0  0
    2.2934    1.1789    0.0000 C   0  0  0  0  0  0  0  0  0  0  0  0
    2.5483    1.9636    0.0000 O   0  0  0  0  0  0  0  0  0  0  0  0
    2.7784    0.5115    0.0000 C   0  0  0  0  0  0  0  0  0  0  0  0
    2.2934   -0.1559    0.0000 C   0  0  0  0  0  0  0  0  0  0  0  0
  1  2  1  0
  1  8  1  0
  1 22  1  1
  2  7  1  6
  3  2  1  0
  3  4  1  0
  4  9  1  1
  5 11  1  0
  5 12  1  1
  6  4  1  0
  6 13  1  1
  7 14  1  0
  7 15  1  1
  8 17  1  0
  8 18  1  1
 10  4  1  0
 11 10  1  0
 13  5  1  0
 14  6  1  0
  3 16  1  1
 17 16  1  0
 19  8  1  0
 19 20  2  0
 21 19  1  0
 22 21  1  0
M  END
>  <DRUGBANK_ID>  (1) 
DB06622

>  <COMMON_NAME>  (1) 
7-beta-Hydroxyepiandrosterone

>  <CAS_NUMBER>  (1) 
25848-69-5

>  <UNII>  (1) 
OCP3E5KD08

>  <SYNONYMS>  (1) 
(3beta,5alpha,7beta)-3,7-Dihydroxyandrostan-17-one; 7beta-OH-Epia; 7β-Hydroxyepiandrosterone; 7β-OH-EPIA

$$$$
