
     RDKit          2D

 30 33  0  0  1  0  0  0  0  0999 V2000
    8.2875    0.1408    0.0000 C   0  0  0  0  0  0  0  0  0  0  0  0
    7.4754   -0.0044    0.0000 C   0  0  0  0  0  0  0  0  0  0  0  0
    7.1951   -0.7804    0.0000 O   0  0  0  0  0  0  0  0  0  0  0  0
    6.9436    0.6263    0.0000 O   0  0  0  0  0  0  0  0  0  0  0  0
    6.1315    0.4811    0.0000 C   0  0  0  0  0  0  0  0  0  0  0  0
    5.5996    1.1118    0.0000 C   0  0  0  0  0  0  0  0  0  0  0  0
    5.8799    1.8877    0.0000 O   0  0  0  0  0  0  0  0  0  0  0  0
    4.7875    0.9666    0.0000 C   0  0  0  0  0  0  0  0  0  0  0  0
    5.0168    0.1741    0.0000 C   0  0  0  0  0  0  0  0  0  0  0  0
    4.3340   -0.2889    0.0000 C   0  0  0  0  0  0  0  0  0  0  0  0
    3.6826    0.2174    0.0000 C   0  0  0  0  0  0  0  0  0  0  0  0
    3.9629    0.9934    0.0000 C   0  0  0  0  0  0  0  0  0  0  0  0
    3.4311    1.6241    0.0000 C   0  0  0  0  0  0  0  0  0  0  0  0
    2.6190    1.4789    0.0000 C   0  0  0  0  0  0  0  0  0  0  0  0
    2.3387    0.7029    0.0000 C   0  0  0  0  0  0  0  0  0  0  0  0
    2.8705    0.0722    0.0000 C   0  0  0  0  0  0  0  0  0  0  0  0
    2.5902   -0.7037    0.0000 C   0  0  0  0  0  0  0  0  0  0  0  0
    1.7781   -0.8489    0.0000 C   0  0  0  0  0  0  0  0  0  0  0  0
    1.2463   -0.2182    0.0000 C   0  0  0  0  0  0  0  0  0  0  0  0
    0.4342   -0.3634    0.0000 C   0  0  0  0  0  0  0  0  0  0  0  0
   -0.0976    0.2673    0.0000 C   0  0  0  0  0  0  0  0  0  0  0  0
   -0.9098    0.1221    0.0000 O   0  0  0  0  0  0  0  0  0  0  0  0
    0.1827    1.0432    0.0000 C   0  0  0  0  0  0  0  0  0  0  0  0
    0.9948    1.1884    0.0000 C   0  0  0  0  0  0  0  0  0  0  0  0
    1.5266    0.5577    0.0000 C   0  0  0  0  0  0  0  0  0  0  0  0
    1.8069    1.3336    0.0000 C   0  0  0  0  0  0  0  0  0  0  0  0
    1.4978   -1.6248    0.0000 F   0  0  0  0  0  0  0  0  0  0  0  0
    2.0872    2.1096    0.0000 O   0  0  0  0  0  0  0  0  0  0  0  0
    4.3228    1.7357    0.0000 C   0  0  0  0  0  0  0  0  0  0  0  0
    4.7280    1.7894    0.0000 O   0  0  0  0  0  0  0  0  0  0  0  0
  1  2  1  0
  2  3  2  0
  2  4  1  0
  4  5  1  0
  5  6  1  0
  6  7  2  0
  8  6  1  0
  8  9  1  0
  8 12  1  0
  8 30  1  6
  9 10  1  0
 11 10  1  1
 11 12  1  0
 11 16  1  0
 12 13  1  0
 12 29  1  1
 13 14  1  0
 14 28  1  1
 15 14  1  1
 15 16  1  0
 15 25  1  0
 16 17  1  6
 17 18  1  0
 18 19  1  0
 18 27  1  6
 19 20  2  0
 19 25  1  0
 20 21  1  0
 21 22  2  0
 21 23  1  0
 23 24  2  0
 24 25  1  0
 25 26  1  1
M  END
>  <DRUGBANK_ID>  (1) 
DB14637

>  <SECONDARY_ACCESSION_NUMBERS>  (1) 
DBSALT002198

>  <COMMON_NAME>  (1) 
Fluprednisolone acetate

>  <CAS_NUMBER>  (1) 
570-36-5

>  <UNII>  (1) 
5YEO81H7EG

$$$$
