
     RDKit          2D

  1  0  0  0  0  0  0  0  0  0999 V2000
    0.4125   -0.0015    0.0000 I   0  0  0  0  0  0  0  0  0  0  0  0
M  END
>  <DRUGBANK_ID>  (1) 
DB15778

>  <COMMON_NAME>  (1) 
Hydrogen iodide

>  <CAS_NUMBER>  (1) 
10034-85-2

>  <UNII>  (1) 
694C0EFT9Q

>  <SYNONYMS>  (1) 
Acide iodhydrique; Acido yodhidrico; Hydriodic acid; Hydrogen iodide, anhydrous

$$$$
