
     RDKit          2D

  8  7  0  0  0  0  0  0  0  0999 V2000
   -1.7849   -0.2066    0.0000 N   0  0  0  0  0  0  0  0  0  0  0  0
   -1.0709   -0.6200    0.0000 C   0  0  0  0  0  0  0  0  0  0  0  0
   -0.3569   -0.2066    0.0000 C   0  0  0  0  0  0  0  0  0  0  0  0
    0.3569   -0.6200    0.0000 C   0  0  0  0  0  0  0  0  0  0  0  0
    1.0709   -0.2066    0.0000 C   0  0  0  0  0  0  0  0  0  0  0  0
    1.7849   -0.6200    0.0000 O   0  0  0  0  0  0  0  0  0  0  0  0
   -0.3610    0.6200    0.0000 O   0  0  0  0  0  0  0  0  0  0  0  0
    1.0668    0.6200    0.0000 O   0  0  0  0  0  0  0  0  0  0  0  0
  1  2  1  0
  2  3  1  0
  3  7  1  0
  3  4  1  0
  4  5  1  0
  5  6  1  0
  5  8  2  0
M  END
>  <DRUGBANK_ID>  (1) 
DB15985

>  <COMMON_NAME>  (1) 
Gamma-amino-beta-hydroxybutyric acid

>  <CAS_NUMBER>  (1) 
924-49-2

>  <UNII>  (1) 
1ZHM019FLD

>  <SYNONYMS>  (1) 
4-Amino-3-hydroxybutyric acid; Buxamine; Gamma-amino-beta-hydroxybutyric acid

$$$$
