
     RDKit          2D

 21 23  0  0  0  0  0  0  0  0999 V2000
   -0.3984    0.7541    0.0000 C   0  0  0  0  0  0  0  0  0  0  0  0
   -0.1435   -0.0305    0.0000 N   0  0  0  0  0  0  0  0  0  0  0  0
   -0.6284   -0.6979    0.0000 C   0  0  0  0  0  0  0  0  0  0  0  0
   -1.4534   -0.6979    0.0000 C   0  0  0  0  0  0  0  0  0  0  0  0
   -1.8659    0.0165    0.0000 C   0  0  0  0  0  0  0  0  0  0  0  0
   -2.6909    0.0165    0.0000 C   0  0  0  0  0  0  0  0  0  0  0  0
   -3.1034    0.7310    0.0000 O   0  0  0  0  0  0  0  0  0  0  0  0
   -0.1435   -1.3654    0.0000 C   0  0  0  0  0  0  0  0  0  0  0  0
   -0.3984   -2.1500    0.0000 C   0  0  0  0  0  0  0  0  0  0  0  0
    0.1536   -2.7631    0.0000 O   0  0  0  0  0  0  0  0  0  0  0  0
    0.6411   -1.1104    0.0000 C   0  0  0  0  0  0  0  0  0  0  0  0
    0.6411   -0.2854    0.0000 C   0  0  0  0  0  0  0  0  0  0  0  0
    1.3556    0.1271    0.0000 C   0  0  0  0  0  0  0  0  0  0  0  0
    1.3556    0.9521    0.0000 O   0  0  0  0  0  0  0  0  0  0  0  0
    2.0701   -0.2854    0.0000 C   0  0  0  0  0  0  0  0  0  0  0  0
    2.0701   -1.1104    0.0000 C   0  0  0  0  0  0  0  0  0  0  0  0
    2.7845   -1.5229    0.0000 N   0  0  0  0  0  0  0  0  0  0  0  0
    3.6095   -1.5229    0.0000 C   0  0  0  0  0  0  0  0  0  0  0  0
    3.1970   -2.2374    0.0000 C   0  0  0  0  0  0  0  0  0  0  0  0
    1.3556   -1.5229    0.0000 C   0  0  0  0  0  0  0  0  0  0  0  0
    1.3556   -2.3479    0.0000 O   0  0  0  0  0  0  0  0  0  0  0  0
  1  2  1  0
  2  3  1  0
  2 12  1  0
  3  4  1  0
  3  8  2  0
  4  5  1  0
  5  6  1  0
  6  7  1  0
  8  9  1  0
  8 11  1  0
  9 10  1  0
 11 12  2  0
 11 20  1  0
 12 13  1  0
 13 14  2  0
 13 15  1  0
 15 16  2  0
 16 17  1  0
 16 20  1  0
 17 18  1  0
 17 19  1  0
 18 19  1  0
 20 21  2  0
M  END
>  <DRUGBANK_ID>  (1) 
DB02395

>  <SECONDARY_ACCESSION_NUMBERS>  (1) 
EXPT01312

>  <COMMON_NAME>  (1) 
3-Hydroxymethyl-5-Aziridinyl-1methyl-2-[1h-Indole-4,7-Dione]-Propanol

$$$$
