
     RDKit          2D

 24 27  0  0  0  0  0  0  0  0999 V2000
    0.3020   -1.7309    0.0000 C   0  0  0  0  0  0  0  0  0  0  0  0
    1.1270   -1.7309    0.0000 C   0  0  0  0  0  0  0  0  0  0  0  0
    1.5395   -1.0164    0.0000 N   0  0  0  0  0  0  0  0  0  0  0  0
    2.3645   -1.0164    0.0000 C   0  0  0  0  0  0  0  0  0  0  0  0
    2.7770   -1.7309    0.0000 C   0  0  0  0  0  0  0  0  0  0  0  0
    3.6020   -1.7309    0.0000 C   0  0  0  0  0  0  0  0  0  0  0  0
    4.0145   -2.4454    0.0000 C   0  0  0  0  0  0  0  0  0  0  0  0
    3.6020   -3.1599    0.0000 C   0  0  0  0  0  0  0  0  0  0  0  0
    2.7770   -3.1599    0.0000 C   0  0  0  0  0  0  0  0  0  0  0  0
    2.3645   -2.4454    0.0000 C   0  0  0  0  0  0  0  0  0  0  0  0
    2.7770   -0.3020    0.0000 C   0  0  0  0  0  0  0  0  0  0  0  0
    2.3645    0.4125    0.0000 C   0  0  0  0  0  0  0  0  0  0  0  0
    2.7770    1.1270    0.0000 C   0  0  0  0  0  0  0  0  0  0  0  0
    3.6020    1.1270    0.0000 C   0  0  0  0  0  0  0  0  0  0  0  0
    4.0145    0.4125    0.0000 C   0  0  0  0  0  0  0  0  0  0  0  0
    4.8395    0.4125    0.0000 N   0  0  0  0  0  0  0  0  0  0  0  0
    3.6020   -0.3020    0.0000 C   0  0  0  0  0  0  0  0  0  0  0  0
    1.5395    0.4125    0.0000 C   0  0  0  0  0  0  0  0  0  0  0  0
    1.1270   -0.3020    0.0000 C   0  0  0  0  0  0  0  0  0  0  0  0
    0.3020   -0.3020    0.0000 C   0  0  0  0  0  0  0  0  0  0  0  0
   -0.1105    0.4125    0.0000 C   0  0  0  0  0  0  0  0  0  0  0  0
   -0.9355    0.4125    0.0000 N   0  0  0  0  0  0  0  0  0  0  0  0
    0.3020    1.1270    0.0000 C   0  0  0  0  0  0  0  0  0  0  0  0
    1.1270    1.1270    0.0000 C   0  0  0  0  0  0  0  0  0  0  0  0
  1  2  1  0
  2  3  1  0
  3  4  2  0
  3 19  1  0
  4  5  1  0
  4 11  1  0
  5  6  2  0
  5 10  1  0
  6  7  1  0
  7  8  2  0
  8  9  1  0
  9 10  2  0
 11 12  2  0
 11 17  1  0
 12 13  1  0
 12 18  1  0
 13 14  2  0
 14 15  1  0
 15 16  1  0
 15 17  2  0
 18 19  2  0
 18 24  1  0
 19 20  1  0
 20 21  2  0
 21 22  1  0
 21 23  1  0
 23 24  2  0
M  CHG  1   3   1
M  END
>  <DRUGBANK_ID>  (1) 
DB17031

>  <COMMON_NAME>  (1) 
Homidium

>  <CAS_NUMBER>  (1) 
3546-21-2

>  <UNII>  (1) 
EN464416SI

>  <SYNONYMS>  (1) 
2,7-diamino-10-ethyl-9-phenylphenanthridinium; 2,7-diamino-9-phenyl-10-ethylphenanthridinium; 3,8-diamino-5-ethyl-6-phenylphenanthridinium; Babidium; Ethidium; Homidium cation; Homidium ion; Novidium

$$$$
