74M
     RDKit          2D

 28 29  0  0  0  0  0  0  0  0999 V2000
   -2.2434   -0.8073    0.0000 C   0  0  0  0  0  0  0  0  0  0  0  0
   -2.2434    0.0177    0.0000 O   0  0  0  0  0  0  0  0  0  0  0  0
   -1.5290   -0.3948    0.0000 C   0  0  0  0  0  0  0  0  0  0  0  0
   -0.7040   -0.3948    0.0000 C   0  0  0  0  0  0  0  0  0  0  0  0
   -0.2915   -1.1092    0.0000 O   0  0  0  0  0  0  0  0  0  0  0  0
   -0.2915    0.3197    0.0000 N   0  0  0  0  0  0  0  0  0  0  0  0
    0.5335    0.3197    0.0000 C   0  0  0  0  0  0  0  0  0  0  0  0
    0.9460    1.0342    0.0000 C   0  0  0  0  0  0  0  0  0  0  0  0
    0.5335    1.7487    0.0000 O   0  0  0  0  0  0  0  0  0  0  0  0
    0.9460   -0.3948    0.0000 C   0  0  0  0  0  0  0  0  0  0  0  0
    1.7710   -0.3948    0.0000 C   0  0  0  0  0  0  0  0  0  0  0  0
    0.5335   -1.1092    0.0000 C   0  0  0  0  0  0  0  0  0  0  0  0
    2.1835   -1.1092    0.0000 C   0  0  0  0  0  0  0  0  0  0  0  0
    1.7710    1.0342    0.0000 N   0  0  0  0  0  0  0  0  0  0  0  0
    2.2560    1.7016    0.0000 C   0  0  0  0  0  0  0  0  0  0  0  0
    2.0010    2.4862    0.0000 C   0  0  0  0  0  0  0  0  0  0  0  0
    1.1940    2.6578    0.0000 O   0  0  0  0  0  0  0  0  0  0  0  0
    3.0406    1.4467    0.0000 C   0  0  0  0  0  0  0  0  0  0  0  0
    3.0406    0.6217    0.0000 C   0  0  0  0  0  0  0  0  0  0  0  0
    2.2560    0.3667    0.0000 C   0  0  0  0  0  0  0  0  0  0  0  0
    2.5530    3.0993    0.0000 O   0  0  0  0  0  0  0  0  0  0  0  0
    2.2981    3.8840    0.0000 C   0  0  0  0  0  0  0  0  0  0  0  0
   -3.4809   -1.5217    0.0000 N   0  0  0  0  0  0  0  0  0  0  0  0
   -3.8934   -2.2362    0.0000 C   0  0  0  0  0  0  0  0  0  0  0  0
   -4.7184   -2.2362    0.0000 C   0  0  0  0  0  0  0  0  0  0  0  0
   -5.1309   -2.9507    0.0000 C   0  0  0  0  0  0  0  0  0  0  0  0
   -2.6559   -1.5217    0.0000 C   0  0  0  0  0  0  0  0  0  0  0  0
   -2.2434   -2.2362    0.0000 O   0  0  0  0  0  0  0  0  0  0  0  0
  1  2  1  0
  1  3  1  0
  1 27  1  1
  2  3  1  0
  3  4  1  6
  4  5  2  0
  4  6  1  0
  7  6  1  6
  7  8  1  0
  7 10  1  0
  8  9  2  0
  8 14  1  0
 10 11  1  0
 10 12  1  6
 11 13  1  0
 14 15  1  0
 14 20  1  0
 15 16  1  6
 15 18  1  0
 16 17  2  0
 16 21  1  0
 18 19  1  0
 19 20  1  0
 21 22  1  0
 23 24  1  0
 23 27  1  0
 24 25  1  0
 25 26  1  0
 27 28  2  0
M  END
>  <DRUGBANK_ID>  (1) 
DB07223

>  <COMMON_NAME>  (1) 
CA-074 methyl ester

>  <CAS_NUMBER>  (1) 
147859-80-1

>  <SYNONYMS>  (1) 
(S)-methyl 1-((2S,3S)-3-methyl-2-((2S,3S)-3-(propylcarbamoyl)oxirane-2-carboxamido)pentanoyl)pyrrolidine-2-carboxylate; CA 074 Me ester; CA 074 methyl ester; L-Proline, 1-[N-[[3-[(propylamino)carbonyl]oxiranyl]carbonyl]-L-isoleucyl]-, methyl ester, (2S-trans)-; L-Proline, N-[[(2S,3S)-3-[(propylamino)carbonyl]oxiranyl]carbonyl]-L-isoleucyl-, methyl ester; Methyl (2S)-1-[(2S,3S)-3-methyl-2-[[(2S,3S)-3-(propylcarbamoyl)oxirane-2-carbonyl]amino]pentanoyl]pyrrolidine-2-carboxylate; Methyl N-({(2s,3s)-3-[(propylamino)carbonyl]oxiran-2-Yl}carbonyl)-L-isoleucyl-L-prolinate

$$$$
