
     RDKit          2D

 33 36  0  0  0  0  0  0  0  0999 V2000
    1.0284    2.6929    0.0000 Cl  0  0  0  0  0  0  0  0  0  0  0  0
   -0.3907    1.8514    0.0000 F   0  0  0  0  0  0  0  0  0  0  0  0
   -1.0995   -1.8561    0.0000 O   0  0  0  0  0  0  0  0  0  0  0  0
   -0.3851   -2.2687    0.0000 O   0  0  0  0  0  0  0  0  0  0  0  0
   -2.5287    1.4436    0.0000 N   0  0  0  0  0  0  0  0  0  0  0  0
   -0.3851   -0.6187    0.0000 N   0  0  0  0  0  0  0  0  0  0  0  0
    2.4861    0.2348    0.0000 N   0  0  0  0  0  0  0  0  0  0  0  0
    2.4957   -2.2973    0.0000 N   0  0  0  0  0  0  0  0  0  0  0  0
    3.2432   -1.0140    0.0000 N   0  0  0  0  0  0  0  0  0  0  0  0
   -2.5287    3.0936    0.0000 C   0  0  0  0  0  0  0  0  0  0  0  0
   -3.2432    2.6811    0.0000 C   0  0  0  0  0  0  0  0  0  0  0  0
   -1.8143    2.6811    0.0000 C   0  0  0  0  0  0  0  0  0  0  0  0
   -1.8142    1.8562    0.0000 C   0  0  0  0  0  0  0  0  0  0  0  0
   -3.2431    1.8560    0.0000 C   0  0  0  0  0  0  0  0  0  0  0  0
   -2.5285    0.6186    0.0000 C   0  0  0  0  0  0  0  0  0  0  0  0
   -1.8141    0.2062    0.0000 C   0  0  0  0  0  0  0  0  0  0  0  0
   -1.8140   -0.6187    0.0000 C   0  0  0  0  0  0  0  0  0  0  0  0
   -1.0995   -1.0312    0.0000 C   0  0  0  0  0  0  0  0  0  0  0  0
    0.3293   -1.0312    0.0000 C   0  0  0  0  0  0  0  0  0  0  0  0
    1.7582   -1.0312    0.0000 C   0  0  0  0  0  0  0  0  0  0  0  0
    1.0437   -0.6187    0.0000 C   0  0  0  0  0  0  0  0  0  0  0  0
    0.3293   -1.8561    0.0000 C   0  0  0  0  0  0  0  0  0  0  0  0
    1.7582   -1.8561    0.0000 C   0  0  0  0  0  0  0  0  0  0  0  0
    2.4957   -0.5902    0.0000 C   0  0  0  0  0  0  0  0  0  0  0  0
    1.0437   -2.2687    0.0000 C   0  0  0  0  0  0  0  0  0  0  0  0
    1.7669    0.6389    0.0000 C   0  0  0  0  0  0  0  0  0  0  0  0
    3.2432   -1.8733    0.0000 C   0  0  0  0  0  0  0  0  0  0  0  0
    1.7572    1.4639    0.0000 C   0  0  0  0  0  0  0  0  0  0  0  0
    1.0572    0.2181    0.0000 C   0  0  0  0  0  0  0  0  0  0  0  0
   -0.3851   -3.0936    0.0000 C   0  0  0  0  0  0  0  0  0  0  0  0
    1.0381    1.8680    0.0000 C   0  0  0  0  0  0  0  0  0  0  0  0
    0.3380    0.6223    0.0000 C   0  0  0  0  0  0  0  0  0  0  0  0
    0.3285    1.4471    0.0000 C   0  0  0  0  0  0  0  0  0  0  0  0
  1 31  1  0
  2 33  1  0
  3 18  2  0
  4 22  1  0
  4 30  1  0
  5 13  1  0
  5 14  1  0
  5 15  1  0
  6 18  1  0
  6 19  1  0
  7 24  1  0
  7 26  1  0
  8 23  2  0
  8 27  1  0
  9 24  1  0
  9 27  2  0
 10 11  1  0
 10 12  1  0
 11 14  1  0
 12 13  1  0
 15 16  1  0
 16 17  2  0
 17 18  1  0
 19 21  2  0
 19 22  1  0
 20 21  1  0
 20 23  1  0
 20 24  2  0
 22 25  2  0
 23 25  1  0
 26 28  2  0
 26 29  1  0
 28 31  1  0
 29 32  2  0
 31 33  2  0
 32 33  1  0
M  END
>  <DRUGBANK_ID>  (1) 
DB11963

>  <COMMON_NAME>  (1) 
Dacomitinib

>  <CAS_NUMBER>  (1) 
1110813-31-4

>  <UNII>  (1) 
2XJX250C20

>  <SYNONYMS>  (1) 
Dacomitinib; Dacomitinib anhydrous; Dacomitinibum

$$$$
