S58
     RDKit          2D

 26 28  0  0  0  0  0  0  0  0999 V2000
   -1.6310    1.4375    0.0000 C   0  0  0  0  0  0  0  0  0  0  0  0
   -0.9635    0.9526    0.0000 C   0  0  0  0  0  0  0  0  0  0  0  0
   -2.2984    0.9526    0.0000 C   0  0  0  0  0  0  0  0  0  0  0  0
   -3.0830    1.2075    0.0000 C   0  0  0  0  0  0  0  0  0  0  0  0
   -0.7336   -0.4995    0.0000 C   0  0  0  0  0  0  0  0  0  0  0  0
    0.0869   -0.4133    0.0000 C   0  0  0  0  0  0  0  0  0  0  0  0
    0.5718   -1.0807    0.0000 C   0  0  0  0  0  0  0  0  0  0  0  0
    0.2363   -1.8344    0.0000 C   0  0  0  0  0  0  0  0  0  0  0  0
   -0.5842   -1.9206    0.0000 C   0  0  0  0  0  0  0  0  0  0  0  0
   -1.0691   -1.2532    0.0000 C   0  0  0  0  0  0  0  0  0  0  0  0
   -0.1789    1.2075    0.0000 C   0  0  0  0  0  0  0  0  0  0  0  0
   -0.0074    2.0145    0.0000 C   0  0  0  0  0  0  0  0  0  0  0  0
    0.7772    2.2694    0.0000 C   0  0  0  0  0  0  0  0  0  0  0  0
    1.3903    1.7174    0.0000 C   0  0  0  0  0  0  0  0  0  0  0  0
    1.2188    0.9104    0.0000 C   0  0  0  0  0  0  0  0  0  0  0  0
    0.4342    0.6555    0.0000 C   0  0  0  0  0  0  0  0  0  0  0  0
   -1.2185    0.1679    0.0000 N   0  0  0  0  0  0  0  0  0  0  0  0
   -2.0435    0.1679    0.0000 N   0  0  0  0  0  0  0  0  0  0  0  0
    1.2061   -3.1693    0.0000 N   0  0  0  0  0  0  0  0  0  0  0  0
    1.3886   -2.0169    0.0000 O   0  0  0  0  0  0  0  0  0  0  0  0
    0.0538   -2.9867    0.0000 O   0  0  0  0  0  0  0  0  0  0  0  0
    2.1749    1.9723    0.0000 Br  0  0  0  0  0  0  0  0  0  0  0  0
   -3.8677    1.4624    0.0000 F   0  0  0  0  0  0  0  0  0  0  0  0
   -3.3380    0.4229    0.0000 F   0  0  0  0  0  0  0  0  0  0  0  0
   -2.8281    1.9921    0.0000 F   0  0  0  0  0  0  0  0  0  0  0  0
    0.7212   -2.5018    0.0000 S   0  0  0  0  0  0  0  0  0  0  0  0
  1  2  2  0
  1  3  1  0
  2 11  1  0
  2 17  1  0
  3  4  1  0
  3 18  2  0
  4 23  1  0
  4 24  1  0
  4 25  1  0
  5  6  2  0
  5 10  1  0
  5 17  1  0
  6  7  1  0
  7  8  2  0
  8  9  1  0
  8 26  1  0
  9 10  2  0
 11 12  2  0
 11 16  1  0
 12 13  1  0
 13 14  2  0
 14 15  1  0
 14 22  1  0
 15 16  2  0
 17 18  1  0
 19 26  1  0
 20 26  2  0
 21 26  2  0
M  END
>  <DRUGBANK_ID>  (1) 
DB03477

>  <SECONDARY_ACCESSION_NUMBERS>  (1) 
EXPT02833

>  <COMMON_NAME>  (1) 
1-Phenylsulfonamide-3-Trifluoromethyl-5-Parabromophenylpyrazole

$$$$
