
     RDKit          2D

 20 22  0  0  0  0  0  0  0  0999 V2000
   -3.1759   -1.8613    0.0000 C   0  0  0  0  0  0  0  0  0  0  0  0
   -2.5346   -1.1776    0.0000 C   0  0  0  0  0  0  0  0  0  0  0  0
   -2.3714   -1.6362    0.0000 C   0  0  0  0  0  0  0  0  0  0  0  0
   -1.8233   -1.4403    0.0000 C   0  0  0  0  0  0  0  0  0  0  0  0
   -1.6187   -1.9391    0.0000 C   0  0  0  0  0  0  0  0  0  0  0  0
   -1.0764   -1.2552    0.0000 C   0  0  0  0  0  0  0  0  0  0  0  0
   -2.3740   -0.7837    0.0000 C   0  0  0  0  0  0  0  0  0  0  0  0
   -1.8175   -0.1258    0.0000 C   0  0  0  0  0  0  0  0  0  0  0  0
   -2.5391   -0.3822    0.0000 C   0  0  0  0  0  0  0  0  0  0  0  0
   -1.0696   -0.4359    0.0000 C   0  0  0  0  0  0  0  0  0  0  0  0
   -1.8228    0.6969    0.0000 N   0  0  0  0  0  0  0  0  0  0  0  0
   -1.1109    1.1141    0.0000 C   0  0  0  0  0  0  0  0  0  0  0  0
   -1.1162    1.9391    0.0000 O   0  0  0  0  0  0  0  0  0  0  0  0
   -0.3938    0.7060    0.0000 C   0  0  0  0  0  0  0  0  0  0  0  0
    0.3180    1.1231    0.0000 O   0  0  0  0  0  0  0  0  0  0  0  0
    1.0351    0.7152    0.0000 C   0  0  0  0  0  0  0  0  0  0  0  0
    1.7470    1.1321    0.0000 C   0  0  0  0  0  0  0  0  0  0  0  0
    2.4641    0.7242    0.0000 N   0  0  0  0  0  0  0  0  0  0  0  0
    3.1759    1.1413    0.0000 C   0  0  0  0  0  0  0  0  0  0  0  0
    2.4693   -0.1007    0.0000 C   0  0  0  0  0  0  0  0  0  0  0  0
  1  2  1  0
  1  3  1  0
  2  4  1  0
  2  9  1  0
  3  5  1  0
  3  7  1  0
  4  6  1  0
  5  6  1  0
  6 10  1  0
  7  8  1  0
  8  9  1  0
  8 11  1  0
 10  8  1  0
 11 12  1  0
 12 13  2  0
 12 14  1  0
 14 15  1  0
 15 16  1  0
 16 17  1  0
 17 18  1  0
 18 19  1  0
 18 20  1  0
M  END
>  <DRUGBANK_ID>  (1) 
DB13288

>  <COMMON_NAME>  (1) 
Tromantadine

>  <CAS_NUMBER>  (1) 
53783-83-8

>  <UNII>  (1) 
H191JFG8WA

>  <SYNONYMS>  (1) 
Tromantadina; Tromantadine; Tromantadinum

$$$$
