
     RDKit          2D

 29 31  0  0  0  0  0  0  0  0999 V2000
   -0.0418   -1.4893    0.0000 C   0  0  0  0  0  0  0  0  0  0  0  0
   -0.7528   -1.9076    0.0000 C   0  0  0  0  0  0  0  0  0  0  0  0
   -0.0418   -0.6529    0.0000 N   0  0  0  0  0  0  0  0  0  0  0  0
   -1.4640   -1.4893    0.0000 C   0  0  0  0  0  0  0  0  0  0  0  0
   -2.1750   -1.9076    0.0000 C   0  0  0  0  0  0  0  0  0  0  0  0
   -2.8861   -1.4893    0.0000 C   0  0  0  0  0  0  0  0  0  0  0  0
   -3.5973   -1.9076    0.0000 C   0  0  0  0  0  0  0  0  0  0  0  0
   -4.3084   -1.4893    0.0000 C   0  0  0  0  0  0  0  0  0  0  0  0
   -5.0195   -1.9076    0.0000 C   0  0  0  0  0  0  0  0  0  0  0  0
    3.5555    0.6019    0.0000 C   0  0  0  0  0  0  0  0  0  0  0  0
    3.5555   -0.2346    0.0000 C   0  0  0  0  0  0  0  0  0  0  0  0
    4.2665   -0.6529    0.0000 O   0  0  0  0  0  0  0  0  0  0  0  0
    5.0195   -0.2346    0.0000 C   0  0  0  0  0  0  0  0  0  0  0  0
    5.0195    0.6019    0.0000 C   0  0  0  0  0  0  0  0  0  0  0  0
    4.2665    1.0202    0.0000 O   0  0  0  0  0  0  0  0  0  0  0  0
    2.8444    1.0202    0.0000 C   0  0  0  0  0  0  0  0  0  0  0  0
    2.0915    0.6019    0.0000 C   0  0  0  0  0  0  0  0  0  0  0  0
    2.0915   -0.2346    0.0000 C   0  0  0  0  0  0  0  0  0  0  0  0
    2.8444   -0.6529    0.0000 C   0  0  0  0  0  0  0  0  0  0  0  0
    1.3804   -0.6529    0.0000 C   0  0  0  0  0  0  0  0  0  0  0  0
    0.6693   -0.2346    0.0000 C   0  0  0  0  0  0  0  0  0  0  0  0
    0.6693    0.6019    0.0000 C   0  0  0  0  0  0  0  0  0  0  0  0
    1.3804   -1.4893    0.0000 O   0  0  0  0  0  0  0  0  0  0  0  0
    0.6742   -1.8990    0.0000 O   0  0  0  0  0  0  0  0  0  0  0  0
   -0.0685    0.9709    0.0000 N   0  0  0  0  0  0  0  0  0  0  0  0
   -0.8007    0.5908    0.0000 C   0  0  0  0  0  0  0  0  0  0  0  0
   -0.2038    1.7848    0.0000 C   0  0  0  0  0  0  0  0  0  0  0  0
   -1.3885    1.1697    0.0000 C   0  0  0  0  0  0  0  0  0  0  0  0
   -1.0198    1.9076    0.0000 C   0  0  0  0  0  0  0  0  0  0  0  0
  1  2  1  0
  1  3  1  0
  1 24  2  0
  2  4  1  0
  4  5  1  0
  5  6  1  0
  6  7  1  0
  7  8  1  0
  8  9  1  0
 10 11  2  0
 10 15  1  0
 10 16  1  0
 11 12  1  0
 11 19  1  0
 12 13  1  0
 13 14  1  0
 14 15  1  0
 16 17  2  0
 17 18  1  0
 18 19  2  0
 18 20  1  0
 20 21  1  0
 20 23  1  1
 21  3  1  0
 21 22  1  6
 22 25  1  0
 26 25  1  0
 27 25  1  0
 28 26  1  0
 29 27  1  0
 29 28  1  0
M  END
>  <DRUGBANK_ID>  (1) 
DB09039

>  <SECONDARY_ACCESSION_NUMBERS>  (1) 
DB05715

>  <COMMON_NAME>  (1) 
Eliglustat

>  <CAS_NUMBER>  (1) 
491833-29-5

>  <UNII>  (1) 
DR40J4WA67

>  <SYNONYMS>  (1) 
Eliglustat; Ã©liglustat; Eliglustatum; N-[(1R,2R)-1-(2,3-Dihydro-1,4-benzodioxin-6-yl)-1-hydroxy-3-(1-pyrrolidinyl)-2-propanyl]octanamide

$$$$
