
     RDKit          2D

 25 26  0  0  0  0  0  0  0  0999 V2000
   -4.3842   -0.2737    0.0000 O   0  0  0  0  0  0  0  0  0  0  0  0
   -3.6697    0.1387    0.0000 C   0  0  0  0  0  0  0  0  0  0  0  0
   -2.9552   -0.2737    0.0000 C   0  0  0  0  0  0  0  0  0  0  0  0
   -2.9552   -1.0987    0.0000 C   0  0  0  0  0  0  0  0  0  0  0  0
   -3.6697   -1.5112    0.0000 O   0  0  0  0  0  0  0  0  0  0  0  0
   -2.2408    0.1387    0.0000 N   0  0  0  0  0  0  0  0  0  0  0  0
   -1.5263   -0.2737    0.0000 C   0  0  0  0  0  0  0  0  0  0  0  0
   -1.5263   -1.0987    0.0000 O   0  0  0  0  0  0  0  0  0  0  0  0
   -0.8118    0.1387    0.0000 C   0  0  0  0  0  0  0  0  0  0  0  0
   -0.8118    0.9637    0.0000 O   0  0  0  0  0  0  0  0  0  0  0  0
   -0.0973   -0.2737    0.0000 C   0  0  0  0  0  0  0  0  0  0  0  0
   -0.0973   -1.0987    0.0000 O   0  0  0  0  0  0  0  0  0  0  0  0
    0.6170    0.1387    0.0000 C   0  0  0  0  0  0  0  0  0  0  0  0
    0.7033    0.9592    0.0000 C   0  0  0  0  0  0  0  0  0  0  0  0
    0.0902    1.5112    0.0000 C   0  0  0  0  0  0  0  0  0  0  0  0
    1.5102    1.1307    0.0000 O   0  0  0  0  0  0  0  0  0  0  0  0
    1.9227    0.4162    0.0000 C   0  0  0  0  0  0  0  0  0  0  0  0
    1.3707   -0.1968    0.0000 N   0  0  0  0  0  0  0  0  0  0  0  0
    2.7432    0.3300    0.0000 C   0  0  0  0  0  0  0  0  0  0  0  0
    3.2281    0.9974    0.0000 C   0  0  0  0  0  0  0  0  0  0  0  0
    4.0486    0.9112    0.0000 C   0  0  0  0  0  0  0  0  0  0  0  0
    4.3842    0.1575    0.0000 C   0  0  0  0  0  0  0  0  0  0  0  0
    3.8993   -0.5098    0.0000 C   0  0  0  0  0  0  0  0  0  0  0  0
    3.0788   -0.4236    0.0000 C   0  0  0  0  0  0  0  0  0  0  0  0
    2.5938   -1.0910    0.0000 O   0  0  0  0  0  0  0  0  0  0  0  0
  1  2  1  0
  2  3  1  0
  3  4  1  0
  3  6  1  0
  4  5  1  0
  6  7  1  0
  7  8  2  0
  9  7  1  0
  9 10  1  1
 11  9  1  0
 11 12  1  6
 11 13  1  0
 13 14  1  0
 13 18  1  1
 14 15  1  6
 14 16  1  0
 16 17  1  0
 17 18  2  0
 17 19  1  0
 19 20  2  0
 19 24  1  0
 20 21  1  0
 21 22  2  0
 22 23  1  0
 23 24  2  0
 24 25  1  0
M  END
>  <DRUGBANK_ID>  (1) 
DB15554

>  <COMMON_NAME>  (1) 
Leptazoline D

$$$$
