008
     RDKit          2D

 26 28  0  0  0  0  0  0  0  0999 V2000
   -3.2966   -0.9164    0.0000 F   0  0  0  0  0  0  0  0  0  0  0  0
   -3.2966   -0.0914    0.0000 C   0  0  0  0  0  0  0  0  0  0  0  0
   -4.0111    0.3211    0.0000 C   0  0  0  0  0  0  0  0  0  0  0  0
   -4.0111    1.1461    0.0000 C   0  0  0  0  0  0  0  0  0  0  0  0
   -3.2966    1.5586    0.0000 C   0  0  0  0  0  0  0  0  0  0  0  0
   -2.5821    1.1461    0.0000 C   0  0  0  0  0  0  0  0  0  0  0  0
   -2.5821    0.3211    0.0000 C   0  0  0  0  0  0  0  0  0  0  0  0
   -1.8676   -0.0914    0.0000 C   0  0  0  0  0  0  0  0  0  0  0  0
   -1.1532    0.3211    0.0000 C   0  0  0  0  0  0  0  0  0  0  0  0
   -1.1532    1.1461    0.0000 N   0  0  0  0  0  0  0  0  0  0  0  0
   -0.4387   -0.0914    0.0000 C   0  0  0  0  0  0  0  0  0  0  0  0
    0.2758    0.3211    0.0000 C   0  0  0  0  0  0  0  0  0  0  0  0
    0.2758    1.1461    0.0000 O   0  0  0  0  0  0  0  0  0  0  0  0
    0.9902   -0.0914    0.0000 N   0  0  0  0  0  0  0  0  0  0  0  0
    1.7047    0.3211    0.0000 C   0  0  0  0  0  0  0  0  0  0  0  0
    2.4192   -0.0914    0.0000 C   0  0  0  0  0  0  0  0  0  0  0  0
    3.1337    0.3211    0.0000 C   0  0  0  0  0  0  0  0  0  0  0  0
    3.8481   -0.0914    0.0000 C   0  0  0  0  0  0  0  0  0  0  0  0
    3.8481   -0.9164    0.0000 C   0  0  0  0  0  0  0  0  0  0  0  0
    2.4192   -0.9164    0.0000 C   0  0  0  0  0  0  0  0  0  0  0  0
    3.1337   -1.3289    0.0000 C   0  0  0  0  0  0  0  0  0  0  0  0
    1.7047   -1.3289    0.0000 C   0  0  0  0  0  0  0  0  0  0  0  0
    0.9902   -0.9164    0.0000 C   0  0  0  0  0  0  0  0  0  0  0  0
    0.2758   -1.3289    0.0000 C   0  0  0  0  0  0  0  0  0  0  0  0
    0.2758   -2.1539    0.0000 O   0  0  0  0  0  0  0  0  0  0  0  0
   -0.4387   -0.9164    0.0000 N   0  0  0  0  0  0  0  0  0  0  0  0
  1  2  1  0
  2  3  2  0
  2  7  1  0
  3  4  1  0
  4  5  2  0
  5  6  1  0
  6  7  2  0
  7  8  1  0
  8  9  1  0
  9 10  1  1
  9 11  1  0
 11 12  1  0
 12 13  2  0
 12 14  1  0
 14 15  1  0
 14 23  1  0
 15 16  1  0
 16 17  2  0
 16 20  1  0
 17 18  1  0
 18 19  2  0
 19 21  1  0
 20 21  2  0
 20 22  1  0
 22 23  1  0
 23 24  1  1
 24 25  2  0
 24 26  1  0
M  END
>  <DRUGBANK_ID>  (1) 
DB04578

>  <COMMON_NAME>  (1) 
(S)-2-[(R)-3-amino-4-(2-fluorophenyl)butyryl]-1,2,3,4-tetrahydroisoquinoline-3-carboxamide

$$$$
