
     RDKit          2D

 21 23  0  0  0  0  0  0  0  0999 V2000
    1.9332    0.5626    0.0000 C   0  0  0  0  0  0  0  0  0  0  0  0
    1.1097    0.6131    0.0000 C   0  0  0  0  0  0  0  0  0  0  0  0
    0.8074    1.3807    0.0000 C   0  0  0  0  0  0  0  0  0  0  0  0
   -0.0561    1.4930    0.0000 N   0  0  0  0  0  0  0  0  0  0  0  0
   -0.2905    2.2841    0.0000 C   0  0  0  0  0  0  0  0  0  0  0  0
    0.1945    2.9516    0.0000 S   0  0  0  0  0  0  0  0  0  0  0  0
   -1.1152    2.2626    0.0000 N   0  0  0  0  0  0  0  0  0  0  0  0
   -1.4847    1.4557    0.0000 C   0  0  0  0  0  0  0  0  0  0  0  0
   -0.7596    1.0620    0.0000 C   0  0  0  0  0  0  0  0  0  0  0  0
   -0.7381    0.2372    0.0000 C   0  0  0  0  0  0  0  0  0  0  0  0
   -1.4416   -0.1937    0.0000 C   0  0  0  0  0  0  0  0  0  0  0  0
   -1.4200   -1.0185    0.0000 Cl  0  0  0  0  0  0  0  0  0  0  0  0
   -2.1666    0.1999    0.0000 C   0  0  0  0  0  0  0  0  0  0  0  0
   -2.1882    1.0247    0.0000 C   0  0  0  0  0  0  0  0  0  0  0  0
   -0.0924   -0.2763    0.0000 C   0  0  0  0  0  0  0  0  0  0  0  0
    0.7160   -0.1119    0.0000 N   0  0  0  0  0  0  0  0  0  0  0  0
    1.2067   -0.7751    0.0000 C   0  0  0  0  0  0  0  0  0  0  0  0
    0.8777   -1.5317    0.0000 C   0  0  0  0  0  0  0  0  0  0  0  0
    1.3684   -2.1950    0.0000 C   0  0  0  0  0  0  0  0  0  0  0  0
    1.0394   -2.9516    0.0000 C   0  0  0  0  0  0  0  0  0  0  0  0
    2.1882   -2.1016    0.0000 C   0  0  0  0  0  0  0  0  0  0  0  0
  2  1  1  6
  2  3  1  0
  2 16  1  0
  3  4  1  0
  4  5  1  0
  4  9  1  0
  5  6  2  0
  5  7  1  0
  7  8  1  0
  8  9  2  0
  8 14  1  0
  9 10  1  0
 10 11  2  0
 10 15  1  0
 11 12  1  0
 11 13  1  0
 13 14  2  0
 15 16  1  0
 16 17  1  0
 17 18  1  0
 18 19  2  3
 19 20  1  0
 19 21  1  0
M  END
>  <DRUGBANK_ID>  (1) 
DB08600

>  <COMMON_NAME>  (1) 
Tivirapine

>  <CAS_NUMBER>  (1) 
137332-54-8

>  <UNII>  (1) 
7WP69N3Y3Y

>  <SYNONYMS>  (1) 
Tivirapine

$$$$
