
     RDKit          2D

 23 26  0  0  0  0  0  0  0  0999 V2000
    0.5316    1.1226    0.0000 C   0  0  0  0  0  0  0  0  0  0  0  0
    0.3524    1.9279    0.0000 C   0  0  0  0  0  0  0  0  0  0  0  0
    0.9602    2.4857    0.0000 C   0  0  0  0  0  0  0  0  0  0  0  0
    1.7472    2.2382    0.0000 C   0  0  0  0  0  0  0  0  0  0  0  0
    1.9264    1.4329    0.0000 C   0  0  0  0  0  0  0  0  0  0  0  0
    1.3186    0.8751    0.0000 C   0  0  0  0  0  0  0  0  0  0  0  0
   -2.7134    1.4583    0.0000 C   0  0  0  0  0  0  0  0  0  0  0  0
   -2.5254    2.2616    0.0000 C   0  0  0  0  0  0  0  0  0  0  0  0
   -1.7357    2.5005    0.0000 C   0  0  0  0  0  0  0  0  0  0  0  0
   -1.1340    1.9360    0.0000 C   0  0  0  0  0  0  0  0  0  0  0  0
   -1.3220    1.1327    0.0000 C   0  0  0  0  0  0  0  0  0  0  0  0
   -2.1117    0.8939    0.0000 C   0  0  0  0  0  0  0  0  0  0  0  0
   -0.3888    2.2899    0.0000 S   0  0  0  0  0  0  0  0  0  0  0  0
   -0.8112    0.4849    0.0000 C   0  0  0  0  0  0  0  0  0  0  0  0
    0.0137    0.4804    0.0000 C   0  0  0  0  0  0  0  0  0  0  0  0
    2.7134    1.1854    0.0000 Cl  0  0  0  0  0  0  0  0  0  0  0  0
    0.3676   -0.2647    0.0000 N   0  0  0  0  0  0  0  0  0  0  0  0
    1.1899   -0.3309    0.0000 C   0  0  0  0  0  0  0  0  0  0  0  0
    1.5438   -1.0762    0.0000 C   0  0  0  0  0  0  0  0  0  0  0  0
    1.0754   -1.7552    0.0000 N   0  0  0  0  0  0  0  0  0  0  0  0
    0.2530   -1.6891    0.0000 C   0  0  0  0  0  0  0  0  0  0  0  0
   -0.1008   -0.9438    0.0000 C   0  0  0  0  0  0  0  0  0  0  0  0
    1.4292   -2.5005    0.0000 C   0  0  0  0  0  0  0  0  0  0  0  0
  1  2  1  0
  1 15  1  0
  2  3  2  0
  3  4  1  0
  4  5  2  0
  5 16  1  0
  5  6  1  0
  6  1  2  0
  7  8  2  0
  8  9  1  0
  9 10  2  0
 10 13  1  0
 10 11  1  0
 11 12  2  0
 11 14  1  0
 12  7  1  0
 13  2  1  0
 14 15  1  0
 15 17  1  0
 17 18  1  0
 17 22  1  0
 18 19  1  0
 19 20  1  0
 20 21  1  0
 20 23  1  0
 21 22  1  0
M  END
>  <DRUGBANK_ID>  (1) 
DB15971

>  <COMMON_NAME>  (1) 
Clorotepine

>  <CAS_NUMBER>  (1) 
13448-22-1

>  <UNII>  (1) 
E65W20MU7A

>  <SYNONYMS>  (1) 
Clorotepina; Clorotepine; Clorotepinum; Clothepin; Octoclothepine

$$$$
