
     RDKit          2D

 34 37  0  0  0  0  0  0  0  0999 V2000
   -2.8917   -0.7477    0.0000 C   0  0  0  0  0  0  0  0  0  0  0  0
   -0.7405    0.4759    0.0000 C   0  0  0  0  0  0  0  0  0  0  0  0
   -2.8917   -1.5685    0.0000 C   0  0  0  0  0  0  0  0  0  0  0  0
    0.0460    0.7235    0.0000 C   0  0  0  0  0  0  0  0  0  0  0  0
   -2.1779   -0.3302    0.0000 C   0  0  0  0  0  0  0  0  0  0  0  0
   -1.4640   -0.7527    0.0000 C   0  0  0  0  0  0  0  0  0  0  0  0
   -0.7501   -0.3448    0.0000 C   0  0  0  0  0  0  0  0  0  0  0  0
   -3.6056   -0.3302    0.0000 C   0  0  0  0  0  0  0  0  0  0  0  0
   -1.4544    0.8983    0.0000 C   0  0  0  0  0  0  0  0  0  0  0  0
   -2.1779    0.4904    0.0000 C   0  0  0  0  0  0  0  0  0  0  0  0
   -1.4689   -1.5781    0.0000 C   0  0  0  0  0  0  0  0  0  0  0  0
   -3.6056   -1.9860    0.0000 C   0  0  0  0  0  0  0  0  0  0  0  0
   -2.1828   -1.9860    0.0000 C   0  0  0  0  0  0  0  0  0  0  0  0
    0.0364    1.5490    0.0000 C   0  0  0  0  0  0  0  0  0  0  0  0
    0.5171    0.0534    0.0000 C   0  0  0  0  0  0  0  0  0  0  0  0
    0.0315   -0.6070    0.0000 C   0  0  0  0  0  0  0  0  0  0  0  0
   -4.3193   -0.7477    0.0000 C   0  0  0  0  0  0  0  0  0  0  0  0
   -4.3193   -1.5685    0.0000 C   0  0  0  0  0  0  0  0  0  0  0  0
    4.3290    1.5830    0.0000 C   0  0  0  0  0  0  0  0  0  0  0  0
    2.1779    1.9860    0.0000 C   0  0  0  0  0  0  0  0  0  0  0  0
    0.7501    1.9714    0.0000 C   0  0  0  0  0  0  0  0  0  0  0  0
    5.0332    2.0006    0.0000 O   0  0  0  0  0  0  0  0  0  0  0  0
   -0.6774    1.9569    0.0000 O   0  0  0  0  0  0  0  0  0  0  0  0
    1.4640    1.5635    0.0000 O   0  0  0  0  0  0  0  0  0  0  0  0
    4.3339    0.7623    0.0000 O   0  0  0  0  0  0  0  0  0  0  0  0
    2.1729    2.8068    0.0000 O   0  0  0  0  0  0  0  0  0  0  0  0
   -5.0332   -1.9764    0.0000 O   0  0  0  0  0  0  0  0  0  0  0  0
    0.7599    1.1411    0.0000 O   0  0  0  0  0  0  0  0  0  0  0  0
   -2.8965    0.0776    0.0000 C   0  0  0  0  0  0  0  0  0  0  0  0
   -0.7501    1.3013    0.0000 C   0  0  0  0  0  0  0  0  0  0  0  0
   -2.8917    0.9080    0.0000 O   0  0  0  0  0  0  0  0  0  0  0  0
    3.6056    1.9909    0.0000 C   0  0  0  0  0  0  0  0  0  0  0  0
    2.8917    1.5781    0.0000 C   0  0  0  0  0  0  0  0  0  0  0  0
   -2.1924   -2.8068    0.0000 C   0  0  0  0  0  0  0  0  0  0  0  0
  1 29  1  1
  2  9  1  0
  2 30  1  1
  3  1  1  0
  4  2  1  0
  4 14  1  0
  4 28  1  6
  4 15  1  0
  5  1  1  0
  6  5  1  0
  7  6  1  0
  7  2  1  0
  8  1  1  0
  9 10  1  0
  5 10  1  1
 10 31  1  1
  6 11  1  6
 11 13  1  0
 12  3  2  0
 13  3  1  0
 13 34  1  6
 15 16  1  0
  7 16  1  1
 17  8  2  0
 18 17  1  0
 18 12  1  0
 19 32  1  0
 20 24  1  0
 21 14  1  0
 22 19  1  0
 23 14  2  0
 24 21  1  0
 25 19  2  0
 26 20  2  0
 27 18  2  0
 32 33  1  0
 33 20  1  0
M  END
>  <DRUGBANK_ID>  (1) 
DB14644

>  <COMMON_NAME>  (1) 
Methylprednisolone hemisuccinate

>  <CAS_NUMBER>  (1) 
2921-57-5

>  <UNII>  (1) 
5GMR90S4KN

>  <SYNONYMS>  (1) 
Methylprednisolone hemisuccinate; Methylprednisolone hydrogen succinate; Methylprednisolone succinate

$$$$
