
     RDKit          2D

 24 26  0  0  1  0  0  0  0  0999 V2000
    2.5600    1.8968    0.0000 C   0  0  0  0  0  0  0  0  0  0  0  0
    1.9469    1.3448    0.0000 C   0  0  0  0  0  0  0  0  0  0  0  0
    1.4620    0.6773    0.0000 C   0  0  0  0  0  0  0  0  0  0  0  0
    0.6773    0.9323    0.0000 N   0  0  0  0  0  0  0  0  0  0  0  0
    0.6773    1.7573    0.0000 C   0  0  0  0  0  0  0  0  0  0  0  0
    1.4620    2.0122    0.0000 S   0  0  0  0  0  0  0  0  0  0  0  0
   -0.1477    1.7573    0.0000 C   0  0  0  0  0  0  0  0  0  0  0  0
   -0.1477    0.9323    0.0000 C   0  0  0  0  0  0  0  0  0  0  0  0
   -0.7310    0.3489    0.0000 O   0  0  0  0  0  0  0  0  0  0  0  0
   -0.7310    2.3406    0.0000 N   0  0  0  0  0  0  0  0  0  0  0  0
   -1.5279    2.1271    0.0000 C   0  0  0  0  0  0  0  0  0  0  0  0
   -1.7414    1.3302    0.0000 O   0  0  0  0  0  0  0  0  0  0  0  0
   -2.1113    2.7105    0.0000 C   0  0  0  0  0  0  0  0  0  0  0  0
   -2.9082    2.4970    0.0000 C   0  0  0  0  0  0  0  0  0  0  0  0
   -3.1217    1.7001    0.0000 C   0  0  0  0  0  0  0  0  0  0  0  0
   -3.9186    1.4865    0.0000 C   0  0  0  0  0  0  0  0  0  0  0  0
   -4.5019    2.0699    0.0000 C   0  0  0  0  0  0  0  0  0  0  0  0
   -4.2884    2.8668    0.0000 C   0  0  0  0  0  0  0  0  0  0  0  0
   -3.4915    3.0803    0.0000 C   0  0  0  0  0  0  0  0  0  0  0  0
   -1.8977    3.5074    0.0000 N   0  0  0  0  0  0  0  0  0  0  0  0
    1.7169   -0.1073    0.0000 C   0  0  0  0  0  0  0  0  0  0  0  0
    2.5239   -0.2788    0.0000 O   0  0  0  0  0  0  0  0  0  0  0  0
    1.1649   -0.7204    0.0000 O   0  0  0  0  0  0  0  0  0  0  0  0
    2.5600    0.7927    0.0000 C   0  0  0  0  0  0  0  0  0  0  0  0
  1  2  1  0
  2  3  1  0
  2  6  1  0
  2 24  1  0
  3  4  1  0
  3 21  1  6
  4  8  1  0
  5  4  1  0
  5  6  1  1
  5  7  1  0
  7  8  1  0
  7 10  1  1
  8  9  2  0
 10 11  1  0
 11 12  2  0
 11 13  1  0
 13 14  1  0
 13 20  1  1
 14 15  2  0
 14 19  1  0
 15 16  1  0
 16 17  1  0
 17 18  2  0
 18 19  1  0
 21 22  2  0
 21 23  1  0
M  END
>  <DRUGBANK_ID>  (1) 
DB13300

>  <COMMON_NAME>  (1) 
Epicillin

>  <CAS_NUMBER>  (1) 
26774-90-3

>  <UNII>  (1) 
3LU1L73C8Y

>  <SYNONYMS>  (1) 
Epicillin

$$$$
