
     RDKit          2D

 12 12  0  0  0  0  0  0  0  0999 V2000
    0.0000    0.4125    0.0000 C   0  0  0  0  0  0  0  0  0  0  0  0
    0.7144    0.0000    0.0000 C   0  0  0  0  0  0  0  0  0  0  0  0
    0.7144   -0.8250    0.0000 C   0  0  0  0  0  0  0  0  0  0  0  0
    0.0000    1.2374    0.0000 O   0  0  0  0  0  0  0  0  0  0  0  0
    1.4289    0.4125    0.0000 N   0  0  0  0  0  0  0  0  0  0  0  0
    2.1434    0.0000    0.0000 C   0  0  0  0  0  0  0  0  0  0  0  0
   -0.7144    0.0000    0.0000 C   0  0  0  0  0  0  0  0  0  0  0  0
   -0.7144   -0.8250    0.0000 C   0  0  0  0  0  0  0  0  0  0  0  0
   -1.4289    0.4125    0.0000 C   0  0  0  0  0  0  0  0  0  0  0  0
   -1.4289   -1.2374    0.0000 C   0  0  0  0  0  0  0  0  0  0  0  0
   -2.1434    0.0000    0.0000 C   0  0  0  0  0  0  0  0  0  0  0  0
   -2.1434   -0.8250    0.0000 C   0  0  0  0  0  0  0  0  0  0  0  0
  1  4  1  1
  2  1  1  0
  2  3  1  1
  5  2  1  0
  6  5  1  0
  7  1  1  0
  8  7  2  0
  9  7  1  0
 10  8  1  0
 11  9  2  0
 12 10  2  0
 12 11  1  0
M  END
>  <DRUGBANK_ID>  (1) 
DB01364

>  <COMMON_NAME>  (1) 
Ephedrine

>  <CAS_NUMBER>  (1) 
299-42-3

>  <UNII>  (1) 
GN83C131XS

>  <SYNONYMS>  (1) 
(-)-Ephedrine; (1R,2S)-1-Phenyl-1-hydroxy-2-methylaminopropane; Efedrina; Ephedrine; L-Ephedrine; L-erythro-2-(Methylamino)-1-phenylpropan-1-ol; L(âˆ’)-ephedrine

$$$$
