
     RDKit          2D

 13 14  0  0  0  0  0  0  0  0999 V2000
    0.6592    0.3771    0.0000 O   0  0  0  0  0  0  0  0  0  0  0  0
   -0.7696    0.3771    0.0000 O   0  0  0  0  0  0  0  0  0  0  0  0
   -0.7696   -0.4478    0.0000 C   0  0  0  0  0  0  0  0  0  0  0  0
   -1.4842   -0.8603    0.0000 O   0  0  0  0  0  0  0  0  0  0  0  0
    0.6592   -0.4478    0.0000 C   0  0  0  0  0  0  0  0  0  0  0  0
    1.3737   -0.8603    0.0000 O   0  0  0  0  0  0  0  0  0  0  0  0
   -0.0552   -0.8603    0.0000 C   0  0  0  0  0  0  0  0  0  0  0  0
    0.5281   -1.4437    0.0000 C   0  0  0  0  0  0  0  0  0  0  0  0
   -0.6385   -1.4437    0.0000 C   0  0  0  0  0  0  0  0  0  0  0  0
   -0.0552   -2.0271    0.0000 C   0  0  0  0  0  0  0  0  0  0  0  0
   -0.0552    0.7896    0.0000 Pt  0  0  0  0  0  4  0  0  0  0  0  0
   -0.7696    1.2021    0.0000 N   0  0  0  0  0  0  0  0  0  0  0  0
    0.6592    1.2021    0.0000 N   0  0  0  0  0  0  0  0  0  0  0  0
  1  5  1  0
  3  2  1  0
  3  4  2  0
  5  7  1  0
  5  6  2  0
  7  3  1  0
  7  8  1  0
  7  9  1  0
  8 10  1  0
  9 10  1  0
 11  1  1  0
 11  2  1  0
 11 13  1  0
 11 12  1  0
M  END
>  <DRUGBANK_ID>  (1) 
DB00958

>  <SECONDARY_ACCESSION_NUMBERS>  (1) 
APRD00466

>  <COMMON_NAME>  (1) 
Carboplatin

>  <CAS_NUMBER>  (1) 
41575-94-4

>  <UNII>  (1) 
BG3F62OND5

>  <SYNONYMS>  (1) 
Carboplatin; Carboplatine; Carboplatino; CBDCA; cis-(1,1-cyclobutanedicarboxylato)diammineplatinum(II); cis-diammine(1,1-cyclobutanedicarboxylato)platinum; cis-diammine(1,1-cyclobutanedicarboxylato)platinum(II)

$$$$
