
     RDKit          2D

 12 11  0  0  0  0  0  0  0  0999 V2000
   -0.1357   -2.2194    0.0000 S   0  0  0  0  0  0  0  0  0  0  0  0
    2.0078    1.4933    0.0000 O   0  0  0  0  0  0  0  0  0  0  0  0
    1.2932    2.7310    0.0000 O   0  0  0  0  0  0  0  0  0  0  0  0
   -0.8503   -0.9818    0.0000 N   0  0  0  0  0  0  0  0  0  0  0  0
   -0.1357    1.9058    0.0000 N   0  0  0  0  0  0  0  0  0  0  0  0
   -1.5648   -2.2194    0.0000 N   0  0  0  0  0  0  0  0  0  0  0  0
    0.5787    0.6682    0.0000 C   0  0  0  0  0  0  0  0  0  0  0  0
   -0.1357    0.2557    0.0000 C   0  0  0  0  0  0  0  0  0  0  0  0
    0.5787    1.4933    0.0000 C   0  0  0  0  0  0  0  0  0  0  0  0
   -0.1357   -0.5692    0.0000 C   0  0  0  0  0  0  0  0  0  0  0  0
    1.2932    1.9058    0.0000 C   0  0  0  0  0  0  0  0  0  0  0  0
   -0.8503   -1.8068    0.0000 C   0  0  0  0  0  0  0  0  0  0  0  0
  1 12  2  0
  2 11  1  0
  3 11  2  0
  4 10  1  0
  4 12  1  0
  6 12  1  0
  7  8  1  0
  7  9  1  0
  8 10  1  0
  9  5  1  6
  9 11  1  0
M  END
>  <DRUGBANK_ID>  (1) 
DB03953

>  <SECONDARY_ACCESSION_NUMBERS>  (1) 
EXPT02866

>  <COMMON_NAME>  (1) 
Thiocitrulline

>  <CAS_NUMBER>  (1) 
156719-37-8

>  <SYNONYMS>  (1) 
L-thiocitrulline; Thiocitrulline

$$$$
