C00
     RDKit          2D

 25 28  0  0  0  0  0  0  0  0999 V2000
    3.2541    0.9149    0.0000 C   0  0  0  0  0  0  0  0  0  0  0  0
    3.2541    0.0899    0.0000 C   0  0  0  0  0  0  0  0  0  0  0  0
    1.8252    0.0899    0.0000 C   0  0  0  0  0  0  0  0  0  0  0  0
    1.8252    0.9149    0.0000 C   0  0  0  0  0  0  0  0  0  0  0  0
    2.5396    2.1524    0.0000 C   0  0  0  0  0  0  0  0  0  0  0  0
    1.0405    1.1698    0.0000 C   0  0  0  0  0  0  0  0  0  0  0  0
   -0.2694    0.5024    0.0000 C   0  0  0  0  0  0  0  0  0  0  0  0
   -0.6819   -0.2121    0.0000 C   0  0  0  0  0  0  0  0  0  0  0  0
   -1.5069   -0.2121    0.0000 C   0  0  0  0  0  0  0  0  0  0  0  0
   -1.9194    0.5024    0.0000 C   0  0  0  0  0  0  0  0  0  0  0  0
   -1.5069    1.2169    0.0000 C   0  0  0  0  0  0  0  0  0  0  0  0
   -0.6819    1.2169    0.0000 C   0  0  0  0  0  0  0  0  0  0  0  0
   -3.1569   -1.6410    0.0000 C   0  0  0  0  0  0  0  0  0  0  0  0
    0.7856   -0.9496    0.0000 O   0  0  0  0  0  0  0  0  0  0  0  0
    1.0405   -0.1650    0.0000 C   0  0  0  0  0  0  0  0  0  0  0  0
    2.5396   -0.3226    0.0000 C   0  0  0  0  0  0  0  0  0  0  0  0
    0.5556    0.5024    0.0000 N   0  0  0  0  0  0  0  0  0  0  0  0
    0.7856    1.9545    0.0000 O   0  0  0  0  0  0  0  0  0  0  0  0
    2.5396    1.3274    0.0000 C   0  0  0  0  0  0  0  0  0  0  0  0
   -0.2694    1.9314    0.0000 O   0  0  0  0  0  0  0  0  0  0  0  0
   -1.9194   -0.9265    0.0000 C   0  0  0  0  0  0  0  0  0  0  0  0
   -2.7444   -0.9265    0.0000 C   0  0  0  0  0  0  0  0  0  0  0  0
   -1.5069   -1.6410    0.0000 C   0  0  0  0  0  0  0  0  0  0  0  0
   -1.9194   -2.3555    0.0000 C   0  0  0  0  0  0  0  0  0  0  0  0
   -2.7444   -2.3555    0.0000 C   0  0  0  0  0  0  0  0  0  0  0  0
  1  2  2  0
  1 19  1  0
  2 16  1  0
  3  4  1  0
  3 15  1  0
  3 16  2  0
  4  6  1  0
  4 19  2  0
  5 19  1  0
  6 17  1  0
  6 18  2  0
  7  8  2  0
  7 12  1  0
  7 17  1  0
  8  9  1  0
  9 10  2  0
  9 21  1  0
 10 11  1  0
 11 12  2  0
 12 20  1  0
 13 22  2  0
 13 25  1  0
 14 15  2  0
 15 17  1  0
 21 22  1  0
 21 23  2  0
 23 24  1  0
 24 25  2  0
M  END
>  <DRUGBANK_ID>  (1) 
DB07507

>  <COMMON_NAME>  (1) 
2-(4-hydroxybiphenyl-3-yl)-4-methyl-1H-isoindole-1,3(2H)-dione

$$$$
