
     RDKit          2D

  8  7  0  0  1  0  0  0  0  0999 V2000
    5.2408   -8.5347    0.0000 S   0  0  0  0  0  0  0  0  0  0  0  0
    5.9553   -8.1222    0.0000 C   0  0  0  0  0  0  0  0  0  0  0  0
    6.6698   -8.5347    0.0000 C   0  0  0  0  0  0  0  0  0  0  0  0
    7.3843   -8.1222    0.0000 C   0  0  0  0  0  0  0  0  0  0  0  0
    8.0988   -8.5347    0.0000 C   0  0  0  0  0  0  0  0  0  0  0  0
    8.8133   -8.1222    0.0000 S   0  0  0  0  0  0  0  0  0  0  0  0
    6.6698   -9.3597    0.0000 O   0  0  0  0  0  0  0  0  0  0  0  0
    7.3843   -7.2972    0.0000 O   0  0  0  0  0  0  0  0  0  0  0  0
  2  1  1  0
  3  2  1  0
  3  7  1  1
  4  3  1  0
  4  8  1  1
  5  4  1  0
  6  5  1  0
M  END
>  <DRUGBANK_ID>  (1) 
DB04447

>  <SECONDARY_ACCESSION_NUMBERS>  (1) 
EXPT01291

>  <COMMON_NAME>  (1) 
1,4-Dithiothreitol

>  <CAS_NUMBER>  (1) 
3483-12-3

>  <UNII>  (1) 
T8ID5YZU6Y

>  <SYNONYMS>  (1) 
2,3-dihydroxy-1,4-dithiobutane

$$$$
