
     RDKit          2D

 21 23  0  0  0  0  0  0  0  0999 V2000
   -3.1024   -0.2124    0.0000 C   0  0  0  0  0  0  0  0  0  0  0  0
   -3.8169    0.2000    0.0000 C   0  0  0  0  0  0  0  0  0  0  0  0
   -4.5314   -0.2125    0.0000 C   0  0  0  0  0  0  0  0  0  0  0  0
   -4.5315   -1.0374    0.0000 C   0  0  0  0  0  0  0  0  0  0  0  0
   -3.8170   -1.4500    0.0000 C   0  0  0  0  0  0  0  0  0  0  0  0
   -3.1024   -1.0374    0.0000 C   0  0  0  0  0  0  0  0  0  0  0  0
   -2.3878   -1.4499    0.0000 S   0  0  0  0  0  0  0  0  0  0  0  0
   -2.3880    0.2001    0.0000 N   0  0  0  0  0  0  0  0  0  0  0  0
   -0.9590    0.2001    0.0000 C   0  0  0  0  0  0  0  0  0  0  0  0
   -1.6734   -0.2123    0.0000 C   0  0  0  0  0  0  0  0  0  0  0  0
   -1.6734   -1.0374    0.0000 C   0  0  0  0  0  0  0  0  0  0  0  0
   -0.9590   -1.4499    0.0000 C   0  0  0  0  0  0  0  0  0  0  0  0
   -0.2445   -1.0374    0.0000 C   0  0  0  0  0  0  0  0  0  0  0  0
   -0.2445   -0.2123    0.0000 C   0  0  0  0  0  0  0  0  0  0  0  0
   -2.3880    1.0251    0.0000 C   0  0  0  0  0  0  0  0  0  0  0  0
   -3.1025    1.4375    0.0000 C   0  0  0  0  0  0  0  0  0  0  0  0
   -3.8170    1.0250    0.0000 C   0  0  0  0  0  0  0  0  0  0  0  0
   -3.1026    2.2625    0.0000 N   0  0  0  0  0  0  0  0  0  0  0  0
   -3.8171    2.6750    0.0000 C   0  0  0  0  0  0  0  0  0  0  0  0
   -2.3881    2.6751    0.0000 C   0  0  0  0  0  0  0  0  0  0  0  0
   -3.1026    3.0875    0.0000 C   0  0  0  0  0  0  0  0  0  0  0  0
  1  2  2  0
  1  8  1  0
  2  3  1  0
  3  4  2  0
  4  5  1  0
  5  6  2  0
  6  1  1  0
  6  7  1  0
  7 11  1  0
  8 15  1  0
  9 10  1  0
 10 11  2  0
 10  8  1  0
 11 12  1  0
 12 13  2  0
 13 14  1  0
 14  9  2  0
 15 16  1  0
 16 17  1  0
 16 18  1  0
 18 19  1  0
 18 20  1  0
 18 21  1  0
M  CHG  1  18   1
M  END
>  <DRUGBANK_ID>  (1) 
DB13420

>  <COMMON_NAME>  (1) 
Thiazinam

>  <CAS_NUMBER>  (1) 
2338-21-8

>  <UNII>  (1) 
666W2P28N2

>  <SYNONYMS>  (1) 
Thiazinamium

$$$$
