
     RDKit          2D

 16 16  0  0  1  0  0  0  0  0999 V2000
    0.5678    2.7643    0.0000 C   0  0  0  0  0  0  0  0  0  0  0  0
   -0.2572    1.9393    0.0000 C   0  0  0  0  0  0  0  0  0  0  0  0
    1.3928    1.9393    0.0000 C   0  0  0  0  0  0  0  0  0  0  0  0
    2.0198    0.8843    0.0000 C   0  0  0  0  0  0  0  0  0  0  0  0
    1.2352    0.6294    0.0000 C   0  0  0  0  0  0  0  0  0  0  0  0
    2.6329    0.3323    0.0000 C   0  0  0  0  0  0  0  0  0  0  0  0
    0.5678    1.1143    0.0000 C   0  0  0  0  0  0  0  0  0  0  0  0
    0.9803   -0.1553    0.0000 C   0  0  0  0  0  0  0  0  0  0  0  0
    3.4175    0.5872    0.0000 C   0  0  0  0  0  0  0  0  0  0  0  0
    0.5678    1.9393    0.0000 C   0  0  0  0  0  0  0  0  0  0  0  0
    2.4614   -0.4747    0.0000 N   0  0  0  0  0  0  0  0  0  0  0  0
    0.1553   -0.1553    0.0000 N   0  0  0  0  0  0  0  0  0  0  0  0
    1.4652   -0.8227    0.0000 O   0  0  0  0  0  0  0  0  0  0  0  0
    3.5891    1.3942    0.0000 O   0  0  0  0  0  0  0  0  0  0  0  0
    4.0306    0.0352    0.0000 O   0  0  0  0  0  0  0  0  0  0  0  0
   -0.0997    0.6294    0.0000 O   0  0  0  0  0  0  0  0  0  0  0  0
  5  4  1  0
  6  4  1  0
  6 11  1  1
  7  5  2  0
  8  5  1  0
  9  6  1  0
 10  1  1  0
 10  2  1  0
 10  3  1  0
 10  7  1  0
 12  8  2  0
 13  8  1  0
 14  9  2  0
 15  9  1  0
 16  7  1  0
 16 12  1  0
M  CHG  1  13  -1
M  END
>  <DRUGBANK_ID>  (1) 
DB03319

>  <SECONDARY_ACCESSION_NUMBERS>  (1) 
EXPT00882

>  <COMMON_NAME>  (1) 
(2S)-2-Ammonio-3-[5-(2-methyl-2-propanyl)-3-oxido-1,2-oxazol-4-yl]propanoate

$$$$
