
     RDKit          2D

 22 22  0  0  0  0  0  0  0  0999 V2000
   -1.3996    0.5961    0.0000 C   0  0  0  0  0  0  0  0  0  0  0  0
   -1.0640   -0.1575    0.0000 C   0  0  0  0  0  0  0  0  0  0  0  0
   -0.5791   -0.8250    0.0000 C   0  0  0  0  0  0  0  0  0  0  0  0
   -1.0640   -1.4924    0.0000 C   0  0  0  0  0  0  0  0  0  0  0  0
   -1.8486   -1.2375    0.0000 C   0  0  0  0  0  0  0  0  0  0  0  0
   -1.8486   -0.4125    0.0000 N   0  0  0  0  0  0  0  0  0  0  0  0
   -2.5161    0.0724    0.0000 C   0  0  0  0  0  0  0  0  0  0  0  0
   -2.4298    0.8929    0.0000 O   0  0  0  0  0  0  0  0  0  0  0  0
   -3.2697   -0.2631    0.0000 C   0  0  0  0  0  0  0  0  0  0  0  0
   -3.9372    0.2217    0.0000 N   0  0  0  0  0  0  0  0  0  0  0  0
   -0.3495    0.2549    0.0000 C   0  0  0  0  0  0  0  0  0  0  0  0
   -0.3495    1.0799    0.0000 O   0  0  0  0  0  0  0  0  0  0  0  0
    0.3648   -0.1575    0.0000 N   0  0  0  0  0  0  0  0  0  0  0  0
    1.0793    0.2549    0.0000 C   0  0  0  0  0  0  0  0  0  0  0  0
    1.7938   -0.1575    0.0000 C   0  0  0  0  0  0  0  0  0  0  0  0
    2.5082    0.2549    0.0000 C   0  0  0  0  0  0  0  0  0  0  0  0
    3.2227   -0.1575    0.0000 C   0  0  0  0  0  0  0  0  0  0  0  0
    3.9372    0.2549    0.0000 O   0  0  0  0  0  0  0  0  0  0  0  0
    3.2227   -0.9825    0.0000 O   0  0  0  0  0  0  0  0  0  0  0  0
    1.0793    1.0799    0.0000 C   0  0  0  0  0  0  0  0  0  0  0  0
    1.7938    1.4924    0.0000 O   0  0  0  0  0  0  0  0  0  0  0  0
    0.3648    1.4924    0.0000 O   0  0  0  0  0  0  0  0  0  0  0  0
  2  1  1  1
  2  3  1  0
  2  6  1  0
  2 11  1  0
  3  4  1  0
  4  5  1  0
  5  6  1  0
  6  7  1  0
  7  8  2  0
  7  9  1  0
  9 10  1  0
 11 12  2  0
 11 13  1  0
 14 13  1  0
 14 15  1  6
 14 20  1  0
 15 16  1  0
 16 17  1  0
 17 18  2  0
 17 19  1  0
 20 21  2  0
 20 22  1  0
M  END
>  <DRUGBANK_ID>  (1) 
DB06045

>  <COMMON_NAME>  (1) 
Trofinetide

>  <CAS_NUMBER>  (1) 
853400-76-7

>  <UNII>  (1) 
Z2ME8F52QL

>  <SYNONYMS>  (1) 
glycyl-L-2-methylprolyl-L-glutamic acid; Trofinetide

$$$$
