
     RDKit          2D

 28 29  0  0  0  0  0  0  0  0999 V2000
    2.1406    1.4404    0.0000 C   0  0  0  0  0  0  0  0  0  0  0  0
    2.1406    2.2707    0.0000 C   0  0  0  0  0  0  0  0  0  0  0  0
    1.4304    2.6807    0.0000 O   0  0  0  0  0  0  0  0  0  0  0  0
    2.8608    1.0302    0.0000 C   0  0  0  0  0  0  0  0  0  0  0  0
    3.5710    1.4404    0.0000 C   0  0  0  0  0  0  0  0  0  0  0  0
    4.2913    1.0302    0.0000 C   0  0  0  0  0  0  0  0  0  0  0  0
    5.0014    1.4404    0.0000 O   0  0  0  0  0  0  0  0  0  0  0  0
    1.4304    1.0302    0.0000 N   0  0  0  0  0  0  0  0  0  0  0  0
    0.7101    1.4404    0.0000 S   0  0  0  0  0  0  0  0  0  0  0  0
    0.1299    2.0306    0.0000 O   0  0  0  0  0  0  0  0  0  0  0  0
    1.3004    2.0306    0.0000 O   0  0  0  0  0  0  0  0  0  0  0  0
    0.0000    1.0302    0.0000 C   0  0  0  0  0  0  0  0  0  0  0  0
   -1.4304    1.0302    0.0000 C   0  0  0  0  0  0  0  0  0  0  0  0
   -2.1405    1.4404    0.0000 C   0  0  0  0  0  0  0  0  0  0  0  0
   -2.8608    1.0302    0.0000 C   0  0  0  0  0  0  0  0  0  0  0  0
   -2.8608    0.2100    0.0000 C   0  0  0  0  0  0  0  0  0  0  0  0
   -2.1405   -0.2100    0.0000 C   0  0  0  0  0  0  0  0  0  0  0  0
   -1.4304    0.2100    0.0000 C   0  0  0  0  0  0  0  0  0  0  0  0
   -0.7101   -0.2100    0.0000 C   0  0  0  0  0  0  0  0  0  0  0  0
    0.0000    0.2100    0.0000 C   0  0  0  0  0  0  0  0  0  0  0  0
   -0.7101    1.4404    0.0000 C   0  0  0  0  0  0  0  0  0  0  0  0
   -3.5710   -1.0302    0.0000 C   0  0  0  0  0  0  0  0  0  0  0  0
   -3.5710   -0.2100    0.0000 O   0  0  0  0  0  0  0  0  0  0  0  0
   -4.2913   -1.4403    0.0000 C   0  0  0  0  0  0  0  0  0  0  0  0
   -4.2913   -2.2706    0.0000 C   0  0  0  0  0  0  0  0  0  0  0  0
   -5.0014   -2.6807    0.0000 C   0  0  0  0  0  0  0  0  0  0  0  0
    2.8608    2.6807    0.0000 O   0  0  0  0  0  0  0  0  0  0  0  0
    4.2913    0.2100    0.0000 O   0  0  0  0  0  0  0  0  0  0  0  0
  1  8  1  0
  1  4  1  6
  1  2  1  0
  2  3  2  0
  2 27  1  0
  4  5  1  0
  5  6  1  0
  6  7  2  0
  6 28  1  0
  8  9  1  0
  9 12  1  0
  9 10  2  0
  9 11  2  0
 12 20  2  0
 12 21  1  0
 13 14  1  0
 13 18  1  0
 13 21  2  0
 14 15  2  0
 15 16  1  0
 16 17  2  0
 16 23  1  0
 17 18  1  0
 18 19  2  0
 19 20  1  0
 22 23  1  0
 22 24  1  0
 24 25  1  0
 25 26  1  0
M  END
>  <DRUGBANK_ID>  (1) 
DB08105

>  <COMMON_NAME>  (1) 
N-[(6-butoxynaphthalen-2-yl)sulfonyl]-L-glutamic acid

$$$$
