
     RDKit          2D

 25 28  0  0  1  0  0  0  0  0999 V2000
   -0.0726    2.9763    0.0000 C   0  0  0  0  0  0  0  0  0  0  0  0
   -0.1014    2.1518    0.0000 C   0  0  0  0  0  0  0  0  0  0  0  0
    0.1536    1.3672    0.0000 C   0  0  0  0  0  0  0  0  0  0  0  0
   -0.3984    0.7541    0.0000 N   0  0  0  0  0  0  0  0  0  0  0  0
   -1.2054    0.9256    0.0000 C   0  0  0  0  0  0  0  0  0  0  0  0
   -1.4604    1.7103    0.0000 C   0  0  0  0  0  0  0  0  0  0  0  0
   -0.9083    2.3234    0.0000 N   0  0  0  0  0  0  0  0  0  0  0  0
   -1.1633    3.1080    0.0000 C   0  0  0  0  0  0  0  0  0  0  0  0
   -0.1435   -0.0305    0.0000 C   0  0  0  0  0  0  0  0  0  0  0  0
   -0.6284   -0.6979    0.0000 C   0  0  0  0  0  0  0  0  0  0  0  0
   -0.1435   -1.3654    0.0000 C   0  0  0  0  0  0  0  0  0  0  0  0
    0.6411   -1.1104    0.0000 C   0  0  0  0  0  0  0  0  0  0  0  0
    0.6411   -0.2854    0.0000 C   0  0  0  0  0  0  0  0  0  0  0  0
    1.3556    0.1271    0.0000 C   0  0  0  0  0  0  0  0  0  0  0  0
    2.0701   -0.2854    0.0000 C   0  0  0  0  0  0  0  0  0  0  0  0
    2.0701   -1.1104    0.0000 C   0  0  0  0  0  0  0  0  0  0  0  0
    1.3556   -1.5229    0.0000 C   0  0  0  0  0  0  0  0  0  0  0  0
    2.7845    0.1271    0.0000 Cl  0  0  0  0  0  0  0  0  0  0  0  0
   -0.3984   -2.1500    0.0000 C   0  0  0  0  0  0  0  0  0  0  0  0
    0.1536   -2.7631    0.0000 C   0  0  0  0  0  0  0  0  0  0  0  0
   -0.1014   -3.5477    0.0000 C   0  0  0  0  0  0  0  0  0  0  0  0
   -0.9083   -3.7192    0.0000 C   0  0  0  0  0  0  0  0  0  0  0  0
   -1.4604   -3.1062    0.0000 C   0  0  0  0  0  0  0  0  0  0  0  0
   -1.2054   -2.3215    0.0000 C   0  0  0  0  0  0  0  0  0  0  0  0
    0.7156    2.2667    0.0000 C   0  0  0  0  0  0  0  0  0  0  0  0
  1  2  1  0
  2  3  1  0
  2  7  1  0
  2 25  1  0
  3  4  1  0
  4  5  1  0
  5  6  1  0
  6  7  1  0
  7  8  1  0
  9  4  1  1
  9 10  1  0
  9 13  1  0
 10 11  1  0
 11 12  1  0
 11 19  1  6
 12 13  2  0
 12 17  1  0
 13 14  1  0
 14 15  2  0
 15 16  1  0
 15 18  1  0
 16 17  2  0
 19 20  2  0
 19 24  1  0
 20 21  1  0
 21 22  2  0
 22 23  1  0
 23 24  2  0
M  END
>  <DRUGBANK_ID>  (1) 
DB12188

>  <COMMON_NAME>  (1) 
Zicronapine

>  <CAS_NUMBER>  (1) 
170381-16-5

>  <UNII>  (1) 
QZV11V7G6A

>  <SYNONYMS>  (1) 
Zicronapine

$$$$
