PIL
     RDKit          2D

 25 27  0  0  0  0  0  0  0  0999 V2000
   -1.9469   -0.9110    0.0000 Cl  0  0  0  0  0  0  0  0  0  0  0  0
   -2.6614   -0.4985    0.0000 C   0  0  0  0  0  0  0  0  0  0  0  0
   -3.3758   -0.9110    0.0000 C   0  0  0  0  0  0  0  0  0  0  0  0
   -4.0903   -0.4985    0.0000 N   0  0  0  0  0  0  0  0  0  0  0  0
   -4.0903    0.3265    0.0000 C   0  0  0  0  0  0  0  0  0  0  0  0
   -3.3758    0.7390    0.0000 C   0  0  0  0  0  0  0  0  0  0  0  0
   -3.3758    1.5640    0.0000 Cl  0  0  0  0  0  0  0  0  0  0  0  0
   -2.6614    0.3265    0.0000 C   0  0  0  0  0  0  0  0  0  0  0  0
   -1.9469    0.7390    0.0000 N   0  0  0  0  0  0  0  0  0  0  0  0
   -1.2324    0.3265    0.0000 C   0  0  0  0  0  0  0  0  0  0  0  0
   -1.2324   -0.4985    0.0000 O   0  0  0  0  0  0  0  0  0  0  0  0
   -0.5180    0.7390    0.0000 C   0  0  0  0  0  0  0  0  0  0  0  0
   -0.5180    1.5640    0.0000 C   0  0  0  0  0  0  0  0  0  0  0  0
    0.1965    1.9765    0.0000 C   0  0  0  0  0  0  0  0  0  0  0  0
    0.9110    1.5640    0.0000 C   0  0  0  0  0  0  0  0  0  0  0  0
    1.6255    1.9765    0.0000 O   0  0  0  0  0  0  0  0  0  0  0  0
    2.3399    1.5640    0.0000 C   0  0  0  0  0  0  0  0  0  0  0  0
    0.9110    0.7390    0.0000 C   0  0  0  0  0  0  0  0  0  0  0  0
    0.1965    0.3265    0.0000 C   0  0  0  0  0  0  0  0  0  0  0  0
    1.6255    0.3265    0.0000 O   0  0  0  0  0  0  0  0  0  0  0  0
    1.6255   -0.4985    0.0000 C   0  0  0  0  0  0  0  0  0  0  0  0
    2.2929   -0.9834    0.0000 C   0  0  0  0  0  0  0  0  0  0  0  0
    2.0380   -1.7681    0.0000 C   0  0  0  0  0  0  0  0  0  0  0  0
    1.2130   -1.7681    0.0000 C   0  0  0  0  0  0  0  0  0  0  0  0
    0.9580   -0.9834    0.0000 C   0  0  0  0  0  0  0  0  0  0  0  0
  1  2  1  0
  2  3  2  0
  2  8  1  0
  3  4  1  0
  4  5  2  0
  5  6  1  0
  6  7  1  0
  6  8  2  0
  8  9  1  0
  9 10  1  0
 10 11  2  0
 10 12  1  0
 12 13  2  0
 12 19  1  0
 13 14  1  0
 14 15  2  0
 15 16  1  0
 15 18  1  0
 16 17  1  0
 18 19  2  0
 18 20  1  0
 20 21  1  0
 21 22  1  0
 21 25  1  0
 22 23  1  0
 23 24  1  0
 24 25  1  0
M  END
>  <DRUGBANK_ID>  (1) 
DB01791

>  <SECONDARY_ACCESSION_NUMBERS>  (1) 
EXPT02600

>  <COMMON_NAME>  (1) 
Piclamilast

>  <CAS_NUMBER>  (1) 
144035-83-6

>  <UNII>  (1) 
WM58D7C3ZT

>  <SYNONYMS>  (1) 
3-(cyclopentyloxy)-N-(3,5-dichloro-4-pyridinyl)-4-methoxybenzamide; 3-(cyclopentyloxy)-N-(3,5-dichloro-4-pyridyl)-p-anisamide; Piclamilast; Piclamilastum

$$$$
