
     RDKit          2D

 41 46  0  0  1  0  0  0  0  0999 V2000
    3.3523    1.9354    0.0000 C   0  0  0  0  0  0  0  0  0  0  0  0
    4.0668    2.3479    0.0000 C   0  0  0  0  0  0  0  0  0  0  0  0
    4.7812    1.9354    0.0000 C   0  0  0  0  0  0  0  0  0  0  0  0
    4.7812    1.1104    0.0000 N   0  0  0  0  0  0  0  0  0  0  0  0
    4.0668    0.6979    0.0000 C   0  0  0  0  0  0  0  0  0  0  0  0
    3.3523    1.1104    0.0000 C   0  0  0  0  0  0  0  0  0  0  0  0
    2.6378    0.6979    0.0000 C   0  0  0  0  0  0  0  0  0  0  0  0
    1.9233    1.1104    0.0000 C   0  0  0  0  0  0  0  0  0  0  0  0
    1.9233    1.9354    0.0000 C   0  0  0  0  0  0  0  0  0  0  0  0
    2.6378    2.3479    0.0000 C   0  0  0  0  0  0  0  0  0  0  0  0
    1.1387    2.1904    0.0000 N   0  0  0  0  0  0  0  0  0  0  0  0
    0.6538    1.5229    0.0000 N   0  0  0  0  0  0  0  0  0  0  0  0
    1.1387    0.8555    0.0000 C   0  0  0  0  0  0  0  0  0  0  0  0
    0.8838    2.9750    0.0000 C   0  0  0  0  0  0  0  0  0  0  0  0
    0.0768    3.1465    0.0000 C   0  0  0  0  0  0  0  0  0  0  0  0
   -0.1781    3.9312    0.0000 C   0  0  0  0  0  0  0  0  0  0  0  0
    0.3739    4.5442    0.0000 C   0  0  0  0  0  0  0  0  0  0  0  0
    0.1190    5.3289    0.0000 F   0  0  0  0  0  0  0  0  0  0  0  0
    1.1809    4.3727    0.0000 C   0  0  0  0  0  0  0  0  0  0  0  0
    1.4358    3.5881    0.0000 C   0  0  0  0  0  0  0  0  0  0  0  0
    3.3523    0.2854    0.0000 C   0  0  0  0  0  0  0  0  0  0  0  0
    4.0668   -0.1271    0.0000 O   0  0  0  0  0  0  0  0  0  0  0  0
    2.6378   -0.1271    0.0000 C   0  0  0  0  0  0  0  0  0  0  0  0
    2.6378   -0.9521    0.0000 C   0  0  0  0  0  0  0  0  0  0  0  0
    1.9233   -1.3646    0.0000 C   0  0  0  0  0  0  0  0  0  0  0  0
    1.2089   -0.9521    0.0000 C   0  0  0  0  0  0  0  0  0  0  0  0
    1.2089   -0.1271    0.0000 C   0  0  0  0  0  0  0  0  0  0  0  0
    1.9233    0.2854    0.0000 N   0  0  0  0  0  0  0  0  0  0  0  0
    1.9233   -2.1896    0.0000 C   0  0  0  0  0  0  0  0  0  0  0  0
    1.9233   -3.0146    0.0000 F   0  0  0  0  0  0  0  0  0  0  0  0
    1.0983   -2.1896    0.0000 F   0  0  0  0  0  0  0  0  0  0  0  0
    2.7483   -2.1896    0.0000 F   0  0  0  0  0  0  0  0  0  0  0  0
    5.4957    0.6979    0.0000 S   0  0  0  0  0  0  0  0  0  0  0  0
    5.0832   -0.0165    0.0000 O   0  0  0  0  0  0  0  0  0  0  0  0
    5.9082    1.4124    0.0000 O   0  0  0  0  0  0  0  0  0  0  0  0
    6.2102    0.2854    0.0000 C   0  0  0  0  0  0  0  0  0  0  0  0
    6.9638    0.6210    0.0000 N   0  0  0  0  0  0  0  0  0  0  0  0
    7.5159    0.0079    0.0000 N   0  0  0  0  0  0  0  0  0  0  0  0
    8.3364    0.0941    0.0000 C   0  0  0  0  0  0  0  0  0  0  0  0
    7.1034   -0.7066    0.0000 N   0  0  0  0  0  0  0  0  0  0  0  0
    6.2964   -0.5350    0.0000 C   0  0  0  0  0  0  0  0  0  0  0  0
  1  2  1  6
  1  6  1  0
  1 10  1  0
  2  3  1  0
  3  4  1  0
  4  5  1  0
  4 33  1  0
  6  5  1  0
  6  7  1  0
  6 21  1  6
  7  8  1  0
  8  9  2  0
  8 13  1  0
  9 10  1  0
  9 11  1  0
 11 12  1  0
 11 14  1  0
 12 13  2  0
 14 15  2  0
 14 20  1  0
 15 16  1  0
 16 17  2  0
 17 18  1  0
 17 19  1  0
 19 20  2  0
 21 22  2  0
 21 23  1  0
 23 24  2  0
 23 28  1  0
 24 25  1  0
 25 26  2  0
 25 29  1  0
 26 27  1  0
 27 28  2  0
 29 30  1  0
 29 31  1  0
 29 32  1  0
 33 34  2  0
 33 35  2  0
 33 36  1  0
 36 37  2  0
 36 41  1  0
 37 38  1  0
 38 39  1  0
 38 40  1  0
 40 41  2  0
M  END
>  <DRUGBANK_ID>  (1) 
DB16162

>  <COMMON_NAME>  (1) 
Exicorilant

>  <CAS_NUMBER>  (1) 
1781244-77-6

>  <UNII>  (1) 
GTB859B7K8

>  <SYNONYMS>  (1) 
Exicorilant

$$$$
