
     RDKit          2D

 36 40  0  0  0  0  0  0  0  0999 V2000
    2.9308   -1.0011    0.0000 C   0  0  0  0  0  0  0  0  0  0  0  0
    2.8906   -0.1767    0.0000 C   0  0  0  0  0  0  0  0  0  0  0  0
    2.2793    0.3736    0.0000 C   0  0  0  0  0  0  0  0  0  0  0  0
   -2.8381    1.3168    0.0000 N   0  0  0  0  0  0  0  0  0  0  0  0
    1.4551    0.3275    0.0000 C   0  0  0  0  0  0  0  0  0  0  0  0
    2.3774   -1.6097    0.0000 C   0  0  0  0  0  0  0  0  0  0  0  0
    0.9420   -1.1053    0.0000 C   0  0  0  0  0  0  0  0  0  0  0  0
    1.5533   -1.6557    0.0000 C   0  0  0  0  0  0  0  0  0  0  0  0
   -3.4156    0.2491    0.0000 C   0  0  0  0  0  0  0  0  0  0  0  0
   -3.4198    2.4261    0.0000 C   0  0  0  0  0  0  0  0  0  0  0  0
    0.9017   -0.2809    0.0000 C   0  0  0  0  0  0  0  0  0  0  0  0
    3.6638    0.1108    0.0000 C   0  0  0  0  0  0  0  0  0  0  0  0
    3.7219   -1.2214    0.0000 C   0  0  0  0  0  0  0  0  0  0  0  0
    2.2769   -1.0367    0.0000 C   0  0  0  0  0  0  0  0  0  0  0  0
    0.9047    0.9388    0.0000 O   0  0  0  0  0  0  0  0  0  0  0  0
   -2.4766    2.2183    0.0000 C   0  0  0  0  0  0  0  0  0  0  0  0
   -2.4685    0.4735    0.0000 C   0  0  0  0  0  0  0  0  0  0  0  0
    0.1902    1.3501    0.0000 C   0  0  0  0  0  0  0  0  0  0  0  0
    1.7276   -0.3317    0.0000 C   0  0  0  0  0  0  0  0  0  0  0  0
   -2.0613    1.3459    0.0000 C   0  0  0  0  0  0  0  0  0  0  0  0
    0.1147   -1.1488    0.0000 C   0  0  0  0  0  0  0  0  0  0  0  0
    4.1800   -0.5328    0.0000 C   0  0  0  0  0  0  0  0  0  0  0  0
   -4.1800    1.8154    0.0000 C   0  0  0  0  0  0  0  0  0  0  0  0
   -4.1800    0.8557    0.0000 C   0  0  0  0  0  0  0  0  0  0  0  0
   -1.2388    1.3501    0.0000 S   0  0  0  0  0  0  0  0  0  0  0  0
    2.3644   -0.4863    0.0000 C   0  0  0  0  0  0  0  0  0  0  0  0
    3.8277    0.9137    0.0000 O   0  0  0  0  0  0  0  0  0  0  0  0
    0.1861    2.1726    0.0000 O   0  0  0  0  0  0  0  0  0  0  0  0
   -0.4965   -0.5983    0.0000 C   0  0  0  0  0  0  0  0  0  0  0  0
   -0.5243    0.9388    0.0000 C   0  0  0  0  0  0  0  0  0  0  0  0
    1.2788   -2.4261    0.0000 O   0  0  0  0  0  0  0  0  0  0  0  0
    2.2738    1.2322    0.0000 C   0  0  0  0  0  0  0  0  0  0  0  0
   -3.5971    1.3071    0.0000 C   0  0  0  0  0  0  0  0  0  0  0  0
    0.3884   -1.7138    0.0000 C   0  0  0  0  0  0  0  0  0  0  0  0
    2.6245   -2.3968    0.0000 C   0  0  0  0  0  0  0  0  0  0  0  0
    1.6708   -0.9747    0.0000 C   0  0  0  0  0  0  0  0  0  0  0  0
  1  6  1  0
  1 13  1  6
  1 14  1  0
  2  1  1  0
  2 12  1  6
  3  2  1  0
  3  5  1  0
  3 19  1  0
  3 32  1  6
  5 15  1  1
  5 11  1  0
  6  8  1  0
  6 35  1  1
  7 11  1  0
  7 21  1  0
  7 34  1  1
  8  7  1  0
  8 31  1  6
  9  4  1  0
  9 17  1  6
 10 16  1  6
 10  4  1  0
 16 20  1  0
 17 20  1  0
 18 15  1  0
 19 36  1  1
 19 26  1  0
 20 25  1  1
 22 13  1  0
 22 12  1  0
 23 10  1  0
 23 24  1  0
 24  9  1  0
 25 30  1  0
 26 14  1  0
 27 12  2  0
 28 18  2  0
 29 21  2  0
 30 18  1  0
 33  4  1  0
M  END
>  <DRUGBANK_ID>  (1) 
DB01256

>  <COMMON_NAME>  (1) 
Retapamulin

>  <CAS_NUMBER>  (1) 
224452-66-8

>  <UNII>  (1) 
4MG6O8991R

>  <SYNONYMS>  (1) 
Retapamulin; Retapamulina

$$$$
