
     RDKit          2D

 26 29  0  0  0  0  0  0  0  0999 V2000
   -3.2169   -0.6945    0.0000 C   0  0  0  0  0  0  0  0  0  0  0  0
   -2.5025   -0.2819    0.0000 C   0  0  0  0  0  0  0  0  0  0  0  0
   -1.7880   -0.6945    0.0000 C   0  0  0  0  0  0  0  0  0  0  0  0
   -1.7880   -1.5195    0.0000 C   0  0  0  0  0  0  0  0  0  0  0  0
   -2.5025   -1.9320    0.0000 C   0  0  0  0  0  0  0  0  0  0  0  0
   -3.2169   -1.5195    0.0000 C   0  0  0  0  0  0  0  0  0  0  0  0
   -2.5025   -2.7571    0.0000 Cl  0  0  0  0  0  0  0  0  0  0  0  0
   -1.1429   -2.0339    0.0000 C   0  0  0  0  0  0  0  0  0  0  0  0
   -0.3386   -1.8504    0.0000 N   0  0  0  0  0  0  0  0  0  0  0  0
    0.0193   -1.1070    0.0000 C   0  0  0  0  0  0  0  0  0  0  0  0
   -0.3386   -0.3637    0.0000 C   0  0  0  0  0  0  0  0  0  0  0  0
   -1.1429   -0.1801    0.0000 N   0  0  0  0  0  0  0  0  0  0  0  0
   -1.2168    0.6416    0.0000 C   0  0  0  0  0  0  0  0  0  0  0  0
   -0.4582    0.9658    0.0000 N   0  0  0  0  0  0  0  0  0  0  0  0
    0.0845    0.3445    0.0000 C   0  0  0  0  0  0  0  0  0  0  0  0
    0.9063    0.4184    0.0000 C   0  0  0  0  0  0  0  0  0  0  0  0
    1.4490   -0.2028    0.0000 N   0  0  0  0  0  0  0  0  0  0  0  0
    2.2077    0.1214    0.0000 O   0  0  0  0  0  0  0  0  0  0  0  0
    2.1337    0.9431    0.0000 C   0  0  0  0  0  0  0  0  0  0  0  0
    1.3294    1.1267    0.0000 N   0  0  0  0  0  0  0  0  0  0  0  0
    2.7551    1.4859    0.0000 C   0  0  0  0  0  0  0  0  0  0  0  0
    2.5956    2.2954    0.0000 N   0  0  0  0  0  0  0  0  0  0  0  0
    3.2169    2.8382    0.0000 C   0  0  0  0  0  0  0  0  0  0  0  0
    1.8149    2.5621    0.0000 C   0  0  0  0  0  0  0  0  0  0  0  0
    0.2447   -2.4337    0.0000 C   0  0  0  0  0  0  0  0  0  0  0  0
   -1.3265   -2.8382    0.0000 O   0  0  0  0  0  0  0  0  0  0  0  0
  1  6  2  0
  2  1  1  0
  3  2  2  0
  3 12  1  0
  4  3  1  0
  4  8  1  0
  5  4  2  0
  5  7  1  0
  6  5  1  0
  8  9  1  0
  8 26  2  0
  9 25  1  0
 10  9  1  0
 11 10  1  0
 11 15  2  0
 12 11  1  0
 12 13  1  0
 14 13  2  0
 15 14  1  0
 15 16  1  0
 17 16  2  0
 17 18  1  0
 18 19  1  0
 19 20  2  0
 19 21  1  0
 20 16  1  0
 21 22  1  0
 22 23  1  0
 22 24  1  0
M  END
>  <DRUGBANK_ID>  (1) 
DB05721

>  <COMMON_NAME>  (1) 
EVT 201

>  <CAS_NUMBER>  (1) 
308239-86-3

>  <UNII>  (1) 
6J8AF7CLE4

$$$$
