BI3
     RDKit          2D

 29 33  0  0  0  0  0  0  0  0999 V2000
   -2.8973   -2.2314    0.0000 N   0  0  0  0  0  0  0  0  0  0  0  0
   -2.0903   -2.0599    0.0000 C   0  0  0  0  0  0  0  0  0  0  0  0
   -1.8354   -1.2752    0.0000 C   0  0  0  0  0  0  0  0  0  0  0  0
   -1.0284   -1.1037    0.0000 C   0  0  0  0  0  0  0  0  0  0  0  0
   -0.7735   -0.3191    0.0000 N   0  0  0  0  0  0  0  0  0  0  0  0
    0.0111   -0.0641    0.0000 C   0  0  0  0  0  0  0  0  0  0  0  0
   -1.2584    0.3484    0.0000 C   0  0  0  0  0  0  0  0  0  0  0  0
   -2.0789    0.4346    0.0000 C   0  0  0  0  0  0  0  0  0  0  0  0
   -2.4145    1.1883    0.0000 C   0  0  0  0  0  0  0  0  0  0  0  0
   -1.9295    1.8557    0.0000 C   0  0  0  0  0  0  0  0  0  0  0  0
   -1.1091    1.7695    0.0000 C   0  0  0  0  0  0  0  0  0  0  0  0
   -0.7735    1.0158    0.0000 C   0  0  0  0  0  0  0  0  0  0  0  0
    0.0111    0.7609    0.0000 C   0  0  0  0  0  0  0  0  0  0  0  0
    0.6786    1.2458    0.0000 C   0  0  0  0  0  0  0  0  0  0  0  0
    0.6786    2.0708    0.0000 C   0  0  0  0  0  0  0  0  0  0  0  0
    0.0111    2.5557    0.0000 O   0  0  0  0  0  0  0  0  0  0  0  0
    1.4632    2.3257    0.0000 N   0  0  0  0  0  0  0  0  0  0  0  0
    1.9481    1.6583    0.0000 C   0  0  0  0  0  0  0  0  0  0  0  0
    2.7731    1.6583    0.0000 O   0  0  0  0  0  0  0  0  0  0  0  0
    1.4632    0.9908    0.0000 C   0  0  0  0  0  0  0  0  0  0  0  0
    1.7181    0.2062    0.0000 C   0  0  0  0  0  0  0  0  0  0  0  0
    2.5027   -0.0487    0.0000 C   0  0  0  0  0  0  0  0  0  0  0  0
    3.2172    0.3638    0.0000 C   0  0  0  0  0  0  0  0  0  0  0  0
    3.9317   -0.0487    0.0000 C   0  0  0  0  0  0  0  0  0  0  0  0
    3.9317   -0.8737    0.0000 C   0  0  0  0  0  0  0  0  0  0  0  0
    3.2172   -1.2862    0.0000 C   0  0  0  0  0  0  0  0  0  0  0  0
    2.5027   -0.8737    0.0000 C   0  0  0  0  0  0  0  0  0  0  0  0
    1.7181   -1.1287    0.0000 N   0  0  0  0  0  0  0  0  0  0  0  0
    1.2332   -0.4612    0.0000 C   0  0  0  0  0  0  0  0  0  0  0  0
  1  2  1  0
  2  3  1  0
  3  4  1  0
  4  5  1  0
  5  6  1  0
  5  7  1  0
  6 13  2  0
  7  8  2  0
  7 12  1  0
  8  9  1  0
  9 10  2  0
 10 11  1  0
 11 12  2  0
 12 13  1  0
 13 14  1  0
 14 15  1  0
 14 20  2  0
 15 16  2  0
 15 17  1  0
 17 18  1  0
 18 19  2  0
 18 20  1  0
 20 21  1  0
 21 22  1  0
 21 29  2  0
 22 23  2  0
 22 27  1  0
 23 24  1  0
 24 25  2  0
 25 26  1  0
 26 27  2  0
 27 28  1  0
 28 29  1  0
M  END
>  <DRUGBANK_ID>  (1) 
DB07457

>  <COMMON_NAME>  (1) 
3-[1-(3-AMINOPROPYL)-1H-INDOL-3-YL]-4-(1H-INDOL-3-YL)-1H-PYRROLE-2,5-DIONE

$$$$
