
     RDKit          2D

 38 41  0  0  0  0  0  0  0  0999 V2000
   -1.7309    6.9020    0.0000 C   0  0  0  0  0  0  0  0  0  0  0  0
   -1.0164    6.4895    0.0000 O   0  0  0  0  0  0  0  0  0  0  0  0
   -0.3020    6.9020    0.0000 C   0  0  0  0  0  0  0  0  0  0  0  0
    0.4125    6.4895    0.0000 C   0  0  0  0  0  0  0  0  0  0  0  0
    1.1270    6.9020    0.0000 C   0  0  0  0  0  0  0  0  0  0  0  0
    1.1270    7.7270    0.0000 C   0  0  0  0  0  0  0  0  0  0  0  0
    0.4125    8.1395    0.0000 C   0  0  0  0  0  0  0  0  0  0  0  0
   -0.3020    7.7270    0.0000 C   0  0  0  0  0  0  0  0  0  0  0  0
   -1.0164    8.1395    0.0000 C   0  0  0  0  0  0  0  0  0  0  0  0
   -1.7309    7.7270    0.0000 C   0  0  0  0  0  0  0  0  0  0  0  0
    1.8414    8.1395    0.0000 C   0  0  0  0  0  0  0  0  0  0  0  0
    2.5559    7.7270    0.0000 O   0  0  0  0  0  0  0  0  0  0  0  0
    1.8414    8.9645    0.0000 N   0  0  0  0  0  0  0  0  0  0  0  0
    2.5559    9.3770    0.0000 C   0  0  0  0  0  0  0  0  0  0  0  0
    2.5559   10.2020    0.0000 C   0  0  0  0  0  0  0  0  0  0  0  0
    3.2704   10.6145    0.0000 C   0  0  0  0  0  0  0  0  0  0  0  0
    3.9849   10.2020    0.0000 C   0  0  0  0  0  0  0  0  0  0  0  0
    3.9849    9.3770    0.0000 C   0  0  0  0  0  0  0  0  0  0  0  0
    3.2704    8.9645    0.0000 C   0  0  0  0  0  0  0  0  0  0  0  0
    4.6993   10.6145    0.0000 C   0  0  0  0  0  0  0  0  0  0  0  0
    5.4138   10.2020    0.0000 N   0  0  0  0  0  0  0  0  0  0  0  0
    4.6993   11.4395    0.0000 N   0  0  0  0  0  0  0  0  0  0  0  0
    1.8414    6.4895    0.0000 C   0  0  0  0  0  0  0  0  0  0  0  0
    2.5559    6.9020    0.0000 C   0  0  0  0  0  0  0  0  0  0  0  0
    3.2704    6.4895    0.0000 C   0  0  0  0  0  0  0  0  0  0  0  0
    3.2704    5.6645    0.0000 C   0  0  0  0  0  0  0  0  0  0  0  0
    2.5559    5.2520    0.0000 N   0  0  0  0  0  0  0  0  0  0  0  0
    1.8414    5.6645    0.0000 C   0  0  0  0  0  0  0  0  0  0  0  0
    1.1270    5.2520    0.0000 C   0  0  0  0  0  0  0  0  0  0  0  0
    0.4125    5.6645    0.0000 O   0  0  0  0  0  0  0  0  0  0  0  0
    1.1270    4.4270    0.0000 O   0  0  0  0  0  0  0  0  0  0  0  0
    3.9849    5.2520    0.0000 C   0  0  0  0  0  0  0  0  0  0  0  0
    4.6993    5.6645    0.0000 O   0  0  0  0  0  0  0  0  0  0  0  0
    3.9849    4.4270    0.0000 N   0  0  0  0  0  0  0  0  0  0  0  0
    3.2704    4.0145    0.0000 C   0  0  0  0  0  0  0  0  0  0  0  0
    3.2704    3.1895    0.0000 C   0  0  0  0  0  0  0  0  0  0  0  0
    3.6829    2.4750    0.0000 C   0  0  0  0  0  0  0  0  0  0  0  0
    2.8579    2.4750    0.0000 C   0  0  0  0  0  0  0  0  0  0  0  0
  1  2  1  0
  2  3  1  0
  3  4  2  0
  3  8  1  0
  4  5  1  0
  5  6  2  0
  5 23  1  0
  6  7  1  0
  6 11  1  0
  7  8  2  0
  8  9  1  0
  9 10  2  0
 11 12  2  0
 11 13  1  0
 13 14  1  0
 14 15  2  0
 14 19  1  0
 15 16  1  0
 16 17  2  0
 17 18  1  0
 17 20  1  0
 18 19  2  0
 20 21  2  0
 20 22  1  0
 23 24  2  0
 23 28  1  0
 24 25  1  0
 25 26  2  0
 26 27  1  0
 26 32  1  0
 27 28  2  0
 28 29  1  0
 29 30  2  0
 29 31  1  0
 32 33  2  0
 32 34  1  0
 34 35  1  0
 35 36  1  0
 36 37  1  0
 36 38  1  0
 37 38  1  0
M  END
>  <DRUGBANK_ID>  (1) 
DB12120

>  <COMMON_NAME>  (1) 
Avoralstat

>  <CAS_NUMBER>  (1) 
918407-35-9

>  <UNII>  (1) 
UX17773O15

>  <SYNONYMS>  (1) 
3-(2-((4-Carbamimidoylphenyl)carbamoyl)-4-ethenyl-5-methoxyphenyl)-6-((cyclopropylmethyl)carbamoyl)pyridine-2-carboxylic acid; 3-[2-(4-carbamimidoyl-phenylcarbamoyl)-5-methoxy-4-vinyl-phenyl]-6-(cyclopropylmethyl-carbamoyl)-pyridine-2-carboxylic acid; 3-[2-[(4-carbamimidoylphenyl)carbamoyl]-4-ethenyl-5-methoxyphenyl]-6-(cyclopropylmethylcarbamoyl)pyridine-2-carboxylic acid; Avoralstat; BCX-4161; BCX4161

$$$$
