FTC
     RDKit          2D

 23 24  0  0  0  0  0  0  0  0999 V2000
   -3.1306    0.0926    0.0000 C   0  0  0  0  0  0  0  0  0  0  0  0
   -3.8451   -0.3199    0.0000 N   0  0  0  0  0  0  0  0  0  0  0  0
   -4.5596    0.0926    0.0000 C   0  0  0  0  0  0  0  0  0  0  0  0
   -4.5596    0.9176    0.0000 C   0  0  0  0  0  0  0  0  0  0  0  0
   -3.8451    1.3301    0.0000 C   0  0  0  0  0  0  0  0  0  0  0  0
   -3.1306    0.9176    0.0000 C   0  0  0  0  0  0  0  0  0  0  0  0
   -5.2741    1.3301    0.0000 Cl  0  0  0  0  0  0  0  0  0  0  0  0
   -2.4162   -0.3199    0.0000 N   0  0  0  0  0  0  0  0  0  0  0  0
   -1.7017    0.0926    0.0000 C   0  0  0  0  0  0  0  0  0  0  0  0
   -1.7017    0.9176    0.0000 S   0  0  0  0  0  0  0  0  0  0  0  0
   -0.9872   -0.3199    0.0000 N   0  0  0  0  0  0  0  0  0  0  0  0
   -0.2728    0.0926    0.0000 C   0  0  0  0  0  0  0  0  0  0  0  0
    0.4417   -0.3199    0.0000 C   0  0  0  0  0  0  0  0  0  0  0  0
    1.1562    0.0926    0.0000 C   0  0  0  0  0  0  0  0  0  0  0  0
    1.1562    0.9176    0.0000 N   0  0  0  0  0  0  0  0  0  0  0  0
    1.8707    1.3301    0.0000 C   0  0  0  0  0  0  0  0  0  0  0  0
    2.5851    0.9176    0.0000 C   0  0  0  0  0  0  0  0  0  0  0  0
    2.5851    0.0926    0.0000 C   0  0  0  0  0  0  0  0  0  0  0  0
    1.8707   -0.3199    0.0000 C   0  0  0  0  0  0  0  0  0  0  0  0
    3.2996   -0.3199    0.0000 O   0  0  0  0  0  0  0  0  0  0  0  0
    3.2996   -1.1449    0.0000 C   0  0  0  0  0  0  0  0  0  0  0  0
    4.0141   -1.5574    0.0000 C   0  0  0  0  0  0  0  0  0  0  0  0
    1.8707   -1.1449    0.0000 F   0  0  0  0  0  0  0  0  0  0  0  0
  1  2  2  0
  1  6  1  0
  1  8  1  0
  2  3  1  0
  3  4  2  0
  4  5  1  0
  4  7  1  0
  5  6  2  0
  8  9  1  0
  9 10  2  0
  9 11  1  0
 11 12  1  0
 12 13  1  0
 13 14  1  0
 14 15  2  0
 14 19  1  0
 15 16  1  0
 16 17  2  0
 17 18  1  0
 18 19  2  0
 18 20  1  0
 19 23  1  0
 20 21  1  0
 21 22  1  0
M  END
>  <DRUGBANK_ID>  (1) 
DB07797

>  <COMMON_NAME>  (1) 
N-[[3-FLUORO-4-ETHOXY-PYRID-2-YL]ETHYL]-N'-[5-CHLORO-PYRIDYL]-THIOUREA

$$$$
