75V
     RDKit          2D

 24 24  0  0  0  0  0  0  0  0999 V2000
    2.5400   -1.6314    0.0000 C   0  0  0  0  0  0  0  0  0  0  0  0
    2.9525   -0.9169    0.0000 O   0  0  0  0  0  0  0  0  0  0  0  0
    2.9525   -2.3459    0.0000 O   0  0  0  0  0  0  0  0  0  0  0  0
    3.7775   -2.3459    0.0000 C   0  0  0  0  0  0  0  0  0  0  0  0
    4.1900   -3.0604    0.0000 C   0  0  0  0  0  0  0  0  0  0  0  0
    0.5880   -0.5044    0.0000 C   0  0  0  0  0  0  0  0  0  0  0  0
    1.0005   -1.2189    0.0000 C   0  0  0  0  0  0  0  0  0  0  0  0
    1.7150   -1.6314    0.0000 C   0  0  0  0  0  0  0  0  0  0  0  0
    1.0005   -2.0439    0.0000 O   0  0  0  0  0  0  0  0  0  0  0  0
    1.0005    0.2100    0.0000 O   0  0  0  0  0  0  0  0  0  0  0  0
   -0.2370   -0.5044    0.0000 N   0  0  0  0  0  0  0  0  0  0  0  0
   -0.6495    0.2100    0.0000 C   0  0  0  0  0  0  0  0  0  0  0  0
   -1.4745    0.2100    0.0000 C   0  0  0  0  0  0  0  0  0  0  0  0
   -1.8870   -0.5044    0.0000 O   0  0  0  0  0  0  0  0  0  0  0  0
   -0.2370    0.9245    0.0000 C   0  0  0  0  0  0  0  0  0  0  0  0
   -0.6495    1.6390    0.0000 C   0  0  0  0  0  0  0  0  0  0  0  0
    0.5880    0.9245    0.0000 C   0  0  0  0  0  0  0  0  0  0  0  0
   -0.2370    2.3534    0.0000 C   0  0  0  0  0  0  0  0  0  0  0  0
   -1.8870    0.9245    0.0000 N   0  0  0  0  0  0  0  0  0  0  0  0
   -2.7120    0.9245    0.0000 C   0  0  0  0  0  0  0  0  0  0  0  0
   -3.1245    1.6390    0.0000 C   0  0  0  0  0  0  0  0  0  0  0  0
   -3.9495    1.6390    0.0000 O   0  0  0  0  0  0  0  0  0  0  0  0
   -3.1245    0.2100    0.0000 C   0  0  0  0  0  0  0  0  0  0  0  0
   -2.7120    2.3534    0.0000 O   0  0  0  0  0  0  0  0  0  0  0  0
  1  2  2  0
  1  3  1  0
  3  4  1  0
  4  5  1  0
  6 10  2  0
  6 11  1  0
  7  6  1  6
  7  8  1  0
  7  9  1  0
  8  1  1  1
  8  9  1  0
 12 11  1  6
 12 13  1  0
 12 15  1  0
 13 14  2  0
 13 19  1  0
 15 16  1  0
 15 17  1  6
 16 18  1  0
 19 20  1  0
 20 21  1  0
 20 23  1  1
 21 22  1  0
 21 24  2  0
M  END
>  <DRUGBANK_ID>  (1) 
DB07224

>  <COMMON_NAME>  (1) 
N-{[(2S,3S)-3-(ETHOXYCARBONYL)OXIRAN-2-YL]CARBONYL}-L-ISOLEUCYL-L-ALANINE

$$$$
