
     RDKit          2D

 24 25  0  0  0  0  0  0  0  0999 V2000
    2.4787   -0.3695    0.0000 N   0  0  0  0  0  0  0  0  0  0  0  0
    2.4787    0.4567    0.0000 C   0  0  0  0  0  0  0  0  0  0  0  0
    3.1913   -0.7978    0.0000 C   0  0  0  0  0  0  0  0  0  0  0  0
    1.6525   -0.3695    0.0000 C   0  0  0  0  0  0  0  0  0  0  0  0
    1.6525    0.4567    0.0000 C   0  0  0  0  0  0  0  0  0  0  0  0
    3.1913    0.8698    0.0000 S   0  0  0  0  0  0  0  0  0  0  0  0
    3.9152   -0.3770    0.0000 C   0  0  0  0  0  0  0  0  0  0  0  0
    3.1837   -1.6241    0.0000 C   0  0  0  0  0  0  0  0  0  0  0  0
    1.0688   -0.9494    0.0000 O   0  0  0  0  0  0  0  0  0  0  0  0
    0.3676    0.8016    0.0000 N   0  0  0  0  0  0  0  0  0  0  0  0
    3.9152    0.4567    0.0000 C   0  0  0  0  0  0  0  0  0  0  0  0
    4.6278   -0.7865    0.0000 C   0  0  0  0  0  0  0  0  0  0  0  0
    2.4674   -2.0259    0.0000 O   0  0  0  0  0  0  0  0  0  0  0  0
    3.8963   -2.0372    0.0000 O   0  0  0  0  0  0  0  0  0  0  0  0
   -0.3448    1.2110    0.0000 C   0  0  0  0  0  0  0  0  0  0  0  0
   -1.0574    0.8016    0.0000 C   0  0  0  0  0  0  0  0  0  0  0  0
   -0.3448    2.0372    0.0000 O   0  0  0  0  0  0  0  0  0  0  0  0
   -1.7737    1.2110    0.0000 C   0  0  0  0  0  0  0  0  0  0  0  0
   -2.4863    0.8016    0.0000 C   0  0  0  0  0  0  0  0  0  0  0  0
   -3.1989    1.2110    0.0000 C   0  0  0  0  0  0  0  0  0  0  0  0
   -3.9152    0.8016    0.0000 C   0  0  0  0  0  0  0  0  0  0  0  0
   -3.1989    2.0372    0.0000 N   0  0  0  0  0  0  0  0  0  0  0  0
   -4.6278    1.2147    0.0000 O   0  0  0  0  0  0  0  0  0  0  0  0
   -3.9115   -0.0246    0.0000 O   0  0  0  0  0  0  0  0  0  0  0  0
  1  2  1  0
  1  3  1  0
  1  4  1  0
  2  5  1  0
  2  6  1  1
  3  7  2  0
  3  8  1  0
  4  9  2  0
  4  5  1  0
  5 10  1  1
  6 11  1  0
  7 12  1  0
  7 11  1  0
  8 13  1  0
  8 14  2  0
 10 15  1  0
 15 16  1  0
 15 17  2  0
 16 18  1  0
 18 19  1  0
 19 20  1  0
 20 21  1  0
 20 22  1  6
 21 23  1  0
 21 24  2  0
M  END
>  <DRUGBANK_ID>  (1) 
DB03938

>  <SECONDARY_ACCESSION_NUMBERS>  (1) 
EXPT02469

>  <COMMON_NAME>  (1) 
Deacetoxycephalosporin C

>  <CAS_NUMBER>  (1) 
26924-74-3

>  <SYNONYMS>  (1) 
DAOC; De(acetyloxy)cephalosporin C; Deacetoxycephalosporin C; Deacetoxycephalosporin-C

$$$$
