
     RDKit          2D

 27 29  0  0  0  0  0  0  0  0999 V2000
    1.8504   -1.5629    0.0000 C   0  0  0  0  0  0  0  0  0  0  0  0
   -0.7604   -0.4005    0.0000 C   0  0  0  0  0  0  0  0  0  0  0  0
   -3.0401    0.4394    0.0000 C   0  0  0  0  0  0  0  0  0  0  0  0
   -1.8841   -0.4005    0.0000 C   0  0  0  0  0  0  0  0  0  0  0  0
   -3.5251   -0.2280    0.0000 C   0  0  0  0  0  0  0  0  0  0  0  0
   -2.3690   -1.0679    0.0000 C   0  0  0  0  0  0  0  0  0  0  0  0
   -0.2754   -1.0679    0.0000 C   0  0  0  0  0  0  0  0  0  0  0  0
    0.3957    0.4394    0.0000 C   0  0  0  0  0  0  0  0  0  0  0  0
   -0.6548    1.8053    0.0000 C   0  0  0  0  0  0  0  0  0  0  0  0
   -0.4248    0.3532    0.0000 C   0  0  0  0  0  0  0  0  0  0  0  0
   -2.2197    0.3532    0.0000 C   0  0  0  0  0  0  0  0  0  0  0  0
   -3.1895   -0.9817    0.0000 C   0  0  0  0  0  0  0  0  0  0  0  0
    0.8806   -0.2280    0.0000 C   0  0  0  0  0  0  0  0  0  0  0  0
   -1.3222    2.2902    0.0000 C   0  0  0  0  0  0  0  0  0  0  0  0
   -0.9097    1.0206    0.0000 C   0  0  0  0  0  0  0  0  0  0  0  0
    0.5450   -0.9817    0.0000 C   0  0  0  0  0  0  0  0  0  0  0  0
   -1.3222    3.1152    0.0000 C   0  0  0  0  0  0  0  0  0  0  0  0
    1.7011   -0.1418    0.0000 F   0  0  0  0  0  0  0  0  0  0  0  0
   -2.0367    3.5277    0.0000 F   0  0  0  0  0  0  0  0  0  0  0  0
   -0.6078    3.5277    0.0000 F   0  0  0  0  0  0  0  0  0  0  0  0
   -4.1594   -2.3166    0.0000 N   0  0  0  0  0  0  0  0  0  0  0  0
   -1.9897    1.8053    0.0000 N   0  0  0  0  0  0  0  0  0  0  0  0
   -1.7347    1.0206    0.0000 N   0  0  0  0  0  0  0  0  0  0  0  0
   -4.3419   -1.1642    0.0000 O   0  0  0  0  0  0  0  0  0  0  0  0
   -3.0070   -2.1340    0.0000 O   0  0  0  0  0  0  0  0  0  0  0  0
    1.0300   -1.6491    0.0000 O   0  0  0  0  0  0  0  0  0  0  0  0
   -3.6744   -1.6491    0.0000 S   0  0  0  0  0  0  0  0  0  0  0  0
  5  3  2  0
  6  4  1  0
  7  2  2  0
 10  2  1  0
 10  8  2  0
 11  3  1  0
 11  4  2  0
 12  5  1  0
 12  6  2  0
 13  8  1  0
 14  9  1  0
 15  9  2  0
 15 10  1  0
 16  7  1  0
 16 13  2  0
 17 14  1  0
 18 13  1  0
 19 17  1  0
 20 17  1  0
 22 14  2  0
 23 11  1  0
 23 15  1  0
 23 22  1  0
 26  1  1  0
 26 16  1  0
 27 12  1  0
 27 21  1  0
 27 24  2  0
 27 25  2  0
M  END
>  <DRUGBANK_ID>  (1) 
DB11395

>  <COMMON_NAME>  (1) 
Deracoxib

>  <CAS_NUMBER>  (1) 
169590-41-4

>  <UNII>  (1) 
VX29JB5XWV

>  <SYNONYMS>  (1) 
DÃ©racoxib; Deracoxib; Deracoxibum

$$$$
