
     RDKit          2D

 23 27  0  0  0  0  0  0  0  0999 V2000
   -1.1348    0.3605    0.0000 C   0  0  0  0  0  0  0  0  0  0  0  0
   -0.4059    0.7464    0.0000 C   0  0  0  0  0  0  0  0  0  0  0  0
   -1.8639    0.7464    0.0000 N   0  0  0  0  0  0  0  0  0  0  0  0
    0.3229    0.3605    0.0000 N   0  0  0  0  0  0  0  0  0  0  0  0
   -0.4059    1.6040    0.0000 O   0  0  0  0  0  0  0  0  0  0  0  0
    0.5803   -0.4542    0.0000 C   0  0  0  0  0  0  0  0  0  0  0  0
    1.4379   -0.4542    0.0000 C   0  0  0  0  0  0  0  0  0  0  0  0
    1.6953    0.4033    0.0000 C   0  0  0  0  0  0  0  0  0  0  0  0
    0.9662    0.8321    0.0000 C   0  0  0  0  0  0  0  0  0  0  0  0
    0.9662    1.6898    0.0000 C   0  0  0  0  0  0  0  0  0  0  0  0
    0.9662    2.5473    0.0000 N   0  0  0  0  0  0  0  0  0  0  0  0
    1.0091   -1.1833    0.0000 C   0  0  0  0  0  0  0  0  0  0  0  0
   -1.1348   -0.4972    0.0000 C   0  0  0  0  0  0  0  0  0  0  0  0
   -1.8490   -0.9095    0.0000 C   0  0  0  0  0  0  0  0  0  0  0  0
   -1.8490   -1.7344    0.0000 C   0  0  0  0  0  0  0  0  0  0  0  0
   -0.4204   -1.7344    0.0000 C   0  0  0  0  0  0  0  0  0  0  0  0
   -1.1348   -2.1468    0.0000 C   0  0  0  0  0  0  0  0  0  0  0  0
   -1.5812   -2.2137    0.0000 C   0  0  0  0  0  0  0  0  0  0  0  0
   -1.5812   -1.3890    0.0000 C   0  0  0  0  0  0  0  0  0  0  0  0
   -0.4204   -0.9095    0.0000 C   0  0  0  0  0  0  0  0  0  0  0  0
   -2.2955   -2.5473    0.0000 C   0  0  0  0  0  0  0  0  0  0  0  0
   -0.8270   -2.5473    0.0000 C   0  0  0  0  0  0  0  0  0  0  0  0
    0.2938   -2.1468    0.0000 O   0  0  0  0  0  0  0  0  0  0  0  0
  1  2  1  0
  1  3  1  6
  2  4  1  0
  2  5  2  0
  4  6  1  0
  4  9  1  0
  6  7  1  0
  7  8  1  6
  7 12  1  0
  8  9  1  0
  9 10  1  6
 10 11  3  0
  6 12  1  6
 13  1  1  0
 13 14  1  0
 13 20  1  0
 13 19  1  0
 14 15  1  0
 15 17  1  0
 16 20  1  0
 16 17  1  0
 16 23  1  0
 18 19  1  0
 21 18  1  0
 21 15  1  0
 22 16  1  0
 22 18  1  0
M  END
>  <DRUGBANK_ID>  (1) 
DB06335

>  <COMMON_NAME>  (1) 
Saxagliptin

>  <CAS_NUMBER>  (1) 
361442-04-8

>  <UNII>  (1) 
8I7IO46IVQ

>  <SYNONYMS>  (1) 
(1S,3S,5S)-2-((2S)-Amino(3-hydroxytricyclo(3.3.1.13,7)dec-1-yl)acetyl)-2-azabicyclo(3.1.0)hexane-3-carbonitrile; Saxagliptin; Saxagliptin anhydrous; Saxagliptina

$$$$
