
     RDKit          2D

 35 39  0  0  0  0  0  0  0  0999 V2000
    0.3281   -0.2906    0.0000 C   0  0  0  0  0  0  0  0  0  0  0  0
    0.2869   -1.1158    0.0000 C   0  0  0  0  0  0  0  0  0  0  0  0
   -0.3733    0.1220    0.0000 N   0  0  0  0  0  0  0  0  0  0  0  0
   -0.4146   -1.5285    0.0000 C   0  0  0  0  0  0  0  0  0  0  0  0
    0.9884   -1.5698    0.0000 C   0  0  0  0  0  0  0  0  0  0  0  0
   -1.1161   -0.2493    0.0000 C   0  0  0  0  0  0  0  0  0  0  0  0
   -0.4558   -2.3538    0.0000 C   0  0  0  0  0  0  0  0  0  0  0  0
   -1.1161   -1.1158    0.0000 C   0  0  0  0  0  0  0  0  0  0  0  0
    0.9884   -2.3951    0.0000 C   0  0  0  0  0  0  0  0  0  0  0  0
    0.2456   -2.7665    0.0000 C   0  0  0  0  0  0  0  0  0  0  0  0
    1.6899   -2.8078    0.0000 O   0  0  0  0  0  0  0  0  0  0  0  0
    0.2456   -3.5918    0.0000 O   0  0  0  0  0  0  0  0  0  0  0  0
   -0.4558   -4.0045    0.0000 C   0  0  0  0  0  0  0  0  0  0  0  0
   -3.2215    3.5921    0.0000 C   0  0  0  0  0  0  0  0  0  0  0  0
   -3.2215    2.7671    0.0000 C   0  0  0  0  0  0  0  0  0  0  0  0
   -2.5072    2.3547    0.0000 O   0  0  0  0  0  0  0  0  0  0  0  0
   -1.7928    2.7671    0.0000 C   0  0  0  0  0  0  0  0  0  0  0  0
   -1.7928    3.5921    0.0000 C   0  0  0  0  0  0  0  0  0  0  0  0
   -2.5072    4.0045    0.0000 O   0  0  0  0  0  0  0  0  0  0  0  0
   -1.0783    2.3547    0.0000 C   0  0  0  0  0  0  0  0  0  0  0  0
   -0.3639    2.7671    0.0000 C   0  0  0  0  0  0  0  0  0  0  0  0
   -0.3639    3.5921    0.0000 C   0  0  0  0  0  0  0  0  0  0  0  0
   -1.0783    4.0045    0.0000 C   0  0  0  0  0  0  0  0  0  0  0  0
    0.3505    2.3547    0.0000 C   0  0  0  0  0  0  0  0  0  0  0  0
    1.0649    2.7671    0.0000 N   0  0  0  0  0  0  0  0  0  0  0  0
    1.0649    3.5921    0.0000 C   0  0  0  0  0  0  0  0  0  0  0  0
    0.3505    4.0045    0.0000 C   0  0  0  0  0  0  0  0  0  0  0  0
    0.3505    1.5296    0.0000 C   0  0  0  0  0  0  0  0  0  0  0  0
    1.0649    1.1171    0.0000 C   0  0  0  0  0  0  0  0  0  0  0  0
    1.7793    1.5296    0.0000 C   0  0  0  0  0  0  0  0  0  0  0  0
    1.7793    2.3547    0.0000 C   0  0  0  0  0  0  0  0  0  0  0  0
    1.0649    0.2922    0.0000 C   0  0  0  0  0  0  0  0  0  0  0  0
    2.4938    1.1171    0.0000 C   0  0  0  0  0  0  0  0  0  0  0  0
    3.2215    1.5375    0.0000 C   0  0  0  0  0  0  0  0  0  0  0  0
    1.6899   -3.6357    0.0000 C   0  0  0  0  0  0  0  0  0  0  0  0
  1  2  1  0
  1  3  1  0
  1 32  1  6
  2  4  2  0
  2  5  1  0
  3  6  1  0
  4  7  1  0
  4  8  1  0
  5  9  2  0
  6  8  1  0
  7 10  2  0
  9 11  1  0
  9 10  1  0
 10 12  1  0
 11 35  1  0
 12 13  1  0
 14 19  1  0
 15 16  1  0
 16 17  1  0
 17 18  2  0
 17 20  1  0
 18 19  1  0
 18 23  1  0
 20 21  2  0
 21 22  1  0
 21 24  1  0
 22 23  2  0
 22 27  1  0
 24 25  1  0
 24 28  1  1
 25 26  1  0
 25 31  1  0
 26 27  1  0
 28 29  1  0
 29 30  2  0
 29 32  1  0
 30 31  1  0
 30 33  1  0
 33 34  1  0
M  END
>  <DRUGBANK_ID>  (1) 
DB13865

>  <COMMON_NAME>  (1) 
Dehydroemetine

>  <CAS_NUMBER>  (1) 
4914-30-1

>  <UNII>  (1) 
7S79QT1T91

>  <SYNONYMS>  (1) 
Dehydroemetine

$$$$
