
     RDKit          2D

 10 11  0  0  0  0  0  0  0  0999 V2000
    0.3094    0.4538    0.0000 C   0  0  0  0  0  0  0  0  0  0  0  0
   -0.3919    0.0412    0.0000 C   0  0  0  0  0  0  0  0  0  0  0  0
    1.1344    0.4538    0.0000 C   0  0  0  0  0  0  0  0  0  0  0  0
    0.7219    1.1963    0.0000 C   0  0  0  0  0  0  0  0  0  0  0  0
   -1.1345    0.4538    0.0000 C   0  0  0  0  0  0  0  0  0  0  0  0
   -0.3919   -0.7838    0.0000 C   0  0  0  0  0  0  0  0  0  0  0  0
    1.8357    0.0412    0.0000 N   0  0  0  0  0  0  0  0  0  0  0  0
   -1.8357    0.0412    0.0000 C   0  0  0  0  0  0  0  0  0  0  0  0
   -1.1345   -1.1963    0.0000 C   0  0  0  0  0  0  0  0  0  0  0  0
   -1.8357   -0.7838    0.0000 C   0  0  0  0  0  0  0  0  0  0  0  0
  1  2  1  6
  1  3  1  0
  1  4  1  0
  2  5  2  0
  2  6  1  0
  3  7  1  1
  3  4  1  0
  5  8  1  0
  6  9  2  0
  8 10  2  0
  9 10  1  0
M  CHG  1   7   1
M  END
>  <DRUGBANK_ID>  (1) 
DB02665

>  <SECONDARY_ACCESSION_NUMBERS>  (1) 
EXPT03088

>  <COMMON_NAME>  (1) 
(1R,2S)-2-Phenylcyclopropanaminium

>  <CAS_NUMBER>  (1) 
1986-47-6

>  <UNII>  (1) 
7H4CZX4FYH

>  <SYNONYMS>  (1) 
(1R,2S)-tranylcypromine(1+)

$$$$
