AD8
     RDKit          2D

 18 21  0  0  0  0  0  0  0  0999 V2000
    0.0218   -1.6798    0.0000 N   0  0  0  0  0  0  0  0  0  0  0  0
   -0.6457   -2.1647    0.0000 C   0  0  0  0  0  0  0  0  0  0  0  0
   -0.3907   -2.9493    0.0000 N   0  0  0  0  0  0  0  0  0  0  0  0
    0.4343   -2.9493    0.0000 C   0  0  0  0  0  0  0  0  0  0  0  0
    0.6892   -2.1647    0.0000 C   0  0  0  0  0  0  0  0  0  0  0  0
    0.0217   -0.8548    0.0000 C   0  0  0  0  0  0  0  0  0  0  0  0
   -0.6928   -0.4423    0.0000 C   0  0  0  0  0  0  0  0  0  0  0  0
   -1.4072   -0.8548    0.0000 O   0  0  0  0  0  0  0  0  0  0  0  0
   -0.6928    0.3827    0.0000 C   0  0  0  0  0  0  0  0  0  0  0  0
   -1.4282    0.0090    0.0000 C   0  0  0  0  0  0  0  0  0  0  0  0
   -0.6928    1.1301    0.0000 C   0  0  0  0  0  0  0  0  0  0  0  0
    0.0428    0.0090    0.0000 C   0  0  0  0  0  0  0  0  0  0  0  0
    0.4923    0.7993    0.0000 C   0  0  0  0  0  0  0  0  0  0  0  0
   -0.2433    0.4256    0.0000 C   0  0  0  0  0  0  0  0  0  0  0  0
    0.4923    1.5467    0.0000 C   0  0  0  0  0  0  0  0  0  0  0  0
   -0.2433    1.9204    0.0000 C   0  0  0  0  0  0  0  0  0  0  0  0
   -0.9788    1.5467    0.0000 C   0  0  0  0  0  0  0  0  0  0  0  0
   -0.9788    0.7993    0.0000 C   0  0  0  0  0  0  0  0  0  0  0  0
  1  6  1  0
  2  1  1  0
  3  2  2  0
  3  4  1  0
  4  5  2  0
  5  1  1  0
  6  7  1  0
  8  7  2  0
  9  7  1  6
  9 12  1  0
  9 11  1  0
 10  9  1  0
 18 10  1  6
 16 11  1  6
 13 12  1  6
 13 15  1  0
 14 13  1  0
 16 15  1  0
 17 16  1  0
 18 14  1  0
 18 17  1  0
M  END
>  <DRUGBANK_ID>  (1) 
DB07342

>  <COMMON_NAME>  (1) 
1-(adamantan-1-yl)-2-(1H-imidazol-1-yl)ethanone

$$$$
