
     RDKit          2D

 18 20  0  0  0  0  0  0  0  0999 V2000
    0.9920   -2.4122    0.0000 C   0  0  0  0  0  0  0  0  0  0  0  0
   -0.4369   -2.4122    0.0000 C   0  0  0  0  0  0  0  0  0  0  0  0
   -0.4369   -1.5872    0.0000 C   0  0  0  0  0  0  0  0  0  0  0  0
   -0.4369    0.8877    0.0000 C   0  0  0  0  0  0  0  0  0  0  0  0
   -0.0244    2.1573    0.0000 C   0  0  0  0  0  0  0  0  0  0  0  0
    0.2305    1.3727    0.0000 C   0  0  0  0  0  0  0  0  0  0  0  0
   -1.2215   -2.6671    0.0000 N   0  0  0  0  0  0  0  0  0  0  0  0
    0.2775   -2.8247    0.0000 N   0  0  0  0  0  0  0  0  0  0  0  0
    1.7064   -2.8247    0.0000 N   0  0  0  0  0  0  0  0  0  0  0  0
    0.9920   -1.5872    0.0000 N   0  0  0  0  0  0  0  0  0  0  0  0
    0.2775   -1.1747    0.0000 C   0  0  0  0  0  0  0  0  0  0  0  0
    0.2775   -0.3497    0.0000 O   0  0  0  0  0  0  0  0  0  0  0  0
   -0.4369    0.0627    0.0000 C   0  0  0  0  0  0  0  0  0  0  0  0
   -0.8494    2.1573    0.0000 C   0  0  0  0  0  0  0  0  0  0  0  0
   -1.2215   -1.3322    0.0000 N   0  0  0  0  0  0  0  0  0  0  0  0
   -1.7064   -1.9997    0.0000 C   0  0  0  0  0  0  0  0  0  0  0  0
   -1.3343    2.8247    0.0000 O   0  0  0  0  0  0  0  0  0  0  0  0
   -1.1043    1.3727    0.0000 N   0  0  0  0  0  0  0  0  0  0  0  0
  1  8  2  0
  1  9  1  0
  1 10  1  0
  2  3  2  0
  2  7  1  0
  2  8  1  0
  3 11  1  0
  3 15  1  0
  4 13  1  6
  4 18  1  0
  6  4  1  0
  6  5  1  0
 11 10  2  0
 11 12  1  0
 13 12  1  0
 14  5  1  0
 14 17  2  0
 14 18  1  0
 16  7  1  0
 16 15  2  0
M  END
>  <DRUGBANK_ID>  (1) 
DB02898

>  <SECONDARY_ACCESSION_NUMBERS>  (1) 
EXPT03189

>  <COMMON_NAME>  (1) 
(5R)-5-{[(2-Amino-3H-purin-6-yl)oxy]methyl}-2-pyrrolidinone

$$$$
