
     RDKit          2D

 31 32  0  0  0  0  0  0  0  0999 V2000
    1.2259    0.4610    0.0000 S   0  0  0  0  0  0  0  0  0  0  0  0
   -3.6521   -1.0540    0.0000 S   0  0  0  0  0  0  0  0  0  0  0  0
   -0.9174    0.8735    0.0000 O   0  0  0  0  0  0  0  0  0  0  0  0
    1.2259   -2.0139    0.0000 O   0  0  0  0  0  0  0  0  0  0  0  0
   -0.9174   -1.6014    0.0000 O   0  0  0  0  0  0  0  0  0  0  0  0
    3.3693   -1.6014    0.0000 O   0  0  0  0  0  0  0  0  0  0  0  0
   -1.6319    2.9360    0.0000 O   0  0  0  0  0  0  0  0  0  0  0  0
    4.0838   -0.3639    0.0000 O   0  0  0  0  0  0  0  0  0  0  0  0
   -0.2029    2.9360    0.0000 O   0  0  0  0  0  0  0  0  0  0  0  0
   -0.2029   -0.3639    0.0000 N   0  0  0  0  0  0  0  0  0  0  0  0
    1.9404   -0.7764    0.0000 N   0  0  0  0  0  0  0  0  0  0  0  0
   -1.6319    0.4610    0.0000 N   0  0  0  0  0  0  0  0  0  0  0  0
   -2.4325   -1.5969    0.0000 N   0  0  0  0  0  0  0  0  0  0  0  0
   -3.5751   -2.5221    0.0000 N   0  0  0  0  0  0  0  0  0  0  0  0
    1.2259   -0.3639    0.0000 C   0  0  0  0  0  0  0  0  0  0  0  0
    0.5115   -0.7764    0.0000 C   0  0  0  0  0  0  0  0  0  0  0  0
    1.9404    0.8735    0.0000 C   0  0  0  0  0  0  0  0  0  0  0  0
    2.6549    0.4610    0.0000 C   0  0  0  0  0  0  0  0  0  0  0  0
    2.6549   -0.3639    0.0000 C   0  0  0  0  0  0  0  0  0  0  0  0
   -0.9174    1.6985    0.0000 C   0  0  0  0  0  0  0  0  0  0  0  0
    0.5115   -1.6014    0.0000 C   0  0  0  0  0  0  0  0  0  0  0  0
   -0.9174   -0.7764    0.0000 C   0  0  0  0  0  0  0  0  0  0  0  0
   -1.6319   -0.3639    0.0000 C   0  0  0  0  0  0  0  0  0  0  0  0
   -0.0924    1.6985    0.0000 C   0  0  0  0  0  0  0  0  0  0  0  0
   -1.7424    1.6985    0.0000 C   0  0  0  0  0  0  0  0  0  0  0  0
    3.3693   -0.7764    0.0000 C   0  0  0  0  0  0  0  0  0  0  0  0
    3.3693    0.8735    0.0000 C   0  0  0  0  0  0  0  0  0  0  0  0
   -0.9174    2.5235    0.0000 C   0  0  0  0  0  0  0  0  0  0  0  0
   -2.3463   -0.7764    0.0000 C   0  0  0  0  0  0  0  0  0  0  0  0
   -3.1000   -0.4409    0.0000 C   0  0  0  0  0  0  0  0  0  0  0  0
   -3.2396   -1.7684    0.0000 C   0  0  0  0  0  0  0  0  0  0  0  0
  1 15  1  0
  1 17  1  0
  2 30  1  0
  2 31  1  0
  3 12  1  0
  3 20  1  0
  4 21  2  0
  5 22  2  0
  6 26  1  0
  7 28  1  0
  8 26  2  0
  9 28  2  0
 10 22  1  0
 15 11  1  1
 11 19  2  0
 12 23  2  0
 13 29  1  0
 13 31  2  0
 14 31  1  0
 15 16  1  0
 16 10  1  0
 16 21  1  1
 17 18  1  0
 18 19  1  0
 18 27  2  0
 19 26  1  0
 20 24  1  0
 20 25  1  0
 20 28  1  0
 22 23  1  0
 23 29  1  0
 29 30  2  0
M  END
>  <DRUGBANK_ID>  (1) 
DB03530

>  <SECONDARY_ACCESSION_NUMBERS>  (1) 
EXPT00836

>  <COMMON_NAME>  (1) 
Acylated ceftazidime

$$$$
