
     RDKit          2D

 21 24  0  0  0  0  0  0  0  0999 V2000
    2.4453   -0.9755    0.0000 C   0  0  0  0  0  0  0  0  0  0  0  0
    1.7856   -0.8531    0.0000 C   0  0  0  0  0  0  0  0  0  0  0  0
    0.4188   -0.6852    0.0000 N   0  0  0  0  0  0  0  0  0  0  0  0
    1.9261   -0.3294    0.0000 C   0  0  0  0  0  0  0  0  0  0  0  0
    0.8307   -2.2023    0.0000 C   0  0  0  0  0  0  0  0  0  0  0  0
    1.1885   -1.5708    0.0000 C   0  0  0  0  0  0  0  0  0  0  0  0
   -0.2955   -0.2727    0.0000 C   0  0  0  0  0  0  0  0  0  0  0  0
   -1.0101   -0.6852    0.0000 C   0  0  0  0  0  0  0  0  0  0  0  0
   -1.7246   -0.2727    0.0000 C   0  0  0  0  0  0  0  0  0  0  0  0
   -1.7246    0.5522    0.0000 C   0  0  0  0  0  0  0  0  0  0  0  0
   -2.4390    0.9648    0.0000 C   0  0  0  0  0  0  0  0  0  0  0  0
   -3.1534    1.3772    0.0000 N   0  0  0  0  0  0  0  0  0  0  0  0
    3.1534   -1.3989    0.0000 O   0  0  0  0  0  0  0  0  0  0  0  0
   -0.2955    0.5522    0.0000 C   0  0  0  0  0  0  0  0  0  0  0  0
   -1.0101    0.9648    0.0000 C   0  0  0  0  0  0  0  0  0  0  0  0
   -1.0101    1.7898    0.0000 C   0  0  0  0  0  0  0  0  0  0  0  0
   -0.2955    2.2023    0.0000 C   0  0  0  0  0  0  0  0  0  0  0  0
    0.4188    1.7898    0.0000 C   0  0  0  0  0  0  0  0  0  0  0  0
    0.4188    0.9648    0.0000 C   0  0  0  0  0  0  0  0  0  0  0  0
    1.1228   -0.7959    0.0000 C   0  0  0  0  0  0  0  0  0  0  0  0
    0.9373   -1.3269    0.0000 C   0  0  0  0  0  0  0  0  0  0  0  0
  1 13  1  6
  1  2  1  0
 21  2  1  6
  3 20  1  0
  3  7  1  0
  4  1  1  0
  5  6  1  0
  7  8  2  0
  8  9  1  0
  9 10  2  0
 10 15  1  0
 10 11  1  0
 11 12  3  0
 14  7  1  0
 14 15  2  0
 15 16  1  0
 16 17  2  0
 17 18  1  0
 18 19  2  0
 19 14  1  0
 20  4  1  1
 20  6  1  0
 21  3  1  0
 21  5  1  0
M  END
>  <DRUGBANK_ID>  (1) 
DB13935

>  <COMMON_NAME>  (1) 
AC-262536

>  <CAS_NUMBER>  (1) 
870888-46-3

>  <UNII>  (1) 
U8VS41J5O6

$$$$
