
     RDKit          2D

 26 26  0  0  1  0  0  0  0  0999 V2000
   -1.0164    0.7145    0.0000 C   0  0  0  0  0  0  0  0  0  0  0  0
    0.7145   -0.4125    0.0000 C   0  0  0  0  0  0  0  0  0  0  0  0
    1.4289    0.8250    0.0000 C   0  0  0  0  0  0  0  0  0  0  0  0
    1.4289    0.0000    0.0000 C   0  0  0  0  0  0  0  0  0  0  0  0
   -0.0000    0.0000    0.0000 C   0  0  0  0  0  0  0  0  0  0  0  0
    0.7145    1.2375    0.0000 C   0  0  0  0  0  0  0  0  0  0  0  0
    0.0000    0.8250    0.0000 C   0  0  0  0  0  0  0  0  0  0  0  0
    2.1434   -0.4125    0.0000 C   0  0  0  0  0  0  0  0  0  0  0  0
   -1.8414   -0.7145    0.0000 C   0  0  0  0  0  0  0  0  0  0  0  0
   -1.4289    0.0000    0.0000 C   0  0  0  0  0  0  0  0  0  0  0  0
   -0.7145    1.2375    0.0000 O   0  0  0  0  0  0  0  0  0  0  0  0
    2.8579    0.0000    0.0000 O   0  0  0  0  0  0  0  0  0  0  0  0
    2.1434   -1.2375    0.0000 O   0  0  0  0  0  0  0  0  0  0  0  0
   -1.4289   -1.4289    0.0000 O   0  0  0  0  0  0  0  0  0  0  0  0
   -2.6664   -0.7145    0.0000 O   0  0  0  0  0  0  0  0  0  0  0  0
    2.1434    2.8875    0.0000 O   0  0  0  0  0  0  0  0  0  0  0  0
    1.0164    3.1895    0.0000 O   0  0  0  0  0  0  0  0  0  0  0  0
    1.8414    1.7605    0.0000 O   0  0  0  0  0  0  0  0  0  0  0  0
   -2.9684    1.2375    0.0000 O   0  0  0  0  0  0  0  0  0  0  0  0
   -2.1434    2.0625    0.0000 O   0  0  0  0  0  0  0  0  0  0  0  0
   -1.3184    1.2375    0.0000 O   0  0  0  0  0  0  0  0  0  0  0  0
   -0.7145   -0.4125    0.0000 O   0  0  0  0  0  0  0  0  0  0  0  0
    0.7145    2.0625    0.0000 O   0  0  0  0  0  0  0  0  0  0  0  0
   -2.1434    0.4125    0.0000 O   0  0  0  0  0  0  0  0  0  0  0  0
    1.4289    2.4750    0.0000 P   0  0  0  0  0  0  0  0  0  0  0  0
   -2.1434    1.2375    0.0000 P   0  0  0  0  0  0  0  0  0  0  0  0
  4  2  1  0
  4  3  2  0
  5  2  1  0
  5 22  1  1
  6  3  1  0
  6 23  1  6
  7  5  1  0
  7  6  1  0
  7 11  1  6
  8  4  1  0
 10  1  1  1
 10  9  1  0
 10 22  1  0
 12  8  2  0
 13  8  1  0
 14  9  2  0
 15  9  1  0
 24 10  1  0
 25 16  1  0
 25 17  1  0
 25 18  2  0
 25 23  1  0
 26 19  1  0
 26 20  1  0
 26 21  2  0
 26 24  1  0
M  END
>  <DRUGBANK_ID>  (1) 
DB03116

>  <SECONDARY_ACCESSION_NUMBERS>  (1) 
EXPT02914

>  <COMMON_NAME>  (1) 
5-(1-Carboxy-1-Phosphonooxy-Ethoxyl)-Shikimate-3-Phosphate

$$$$
