
     RDKit          2D

 20 23  0  0  0  0  0  0  0  0999 V2000
   -2.1450   -0.8250    0.0000 C   0  0  0  0  0  0  0  0  0  0  0  0
   -2.1450    0.0000    0.0000 C   0  0  0  0  0  0  0  0  0  0  0  0
   -1.4437    0.4125    0.0000 C   0  0  0  0  0  0  0  0  0  0  0  0
   -0.7012    0.0000    0.0000 C   0  0  0  0  0  0  0  0  0  0  0  0
   -0.7012   -0.8250    0.0000 C   0  0  0  0  0  0  0  0  0  0  0  0
   -1.4437   -1.2375    0.0000 C   0  0  0  0  0  0  0  0  0  0  0  0
    0.0000    0.4125    0.0000 C   0  0  0  0  0  0  0  0  0  0  0  0
    0.7012    0.0000    0.0000 C   0  0  0  0  0  0  0  0  0  0  0  0
    0.7012   -0.8250    0.0000 C   0  0  0  0  0  0  0  0  0  0  0  0
    0.0000   -1.2375    0.0000 O   0  0  0  0  0  0  0  0  0  0  0  0
    1.4437    0.4125    0.0000 C   0  0  0  0  0  0  0  0  0  0  0  0
    2.1450    0.0000    0.0000 N   0  0  0  0  0  0  0  0  0  0  0  0
    2.1450   -0.8250    0.0000 C   0  0  0  0  0  0  0  0  0  0  0  0
    1.4437   -1.2375    0.0000 C   0  0  0  0  0  0  0  0  0  0  0  0
    2.8462    0.4125    0.0000 C   0  0  0  0  0  0  0  0  0  0  0  0
   -2.8462    0.4125    0.0000 Cl  0  0  0  0  0  0  0  0  0  0  0  0
    0.0000    1.2375    0.0000 C   0  0  0  0  0  0  0  0  0  0  0  0
    0.1518   -0.4125    0.0000 N   0  0  0  0  0  0  0  0  0  0  0  0
    0.7144    0.8250    0.0000 C   0  0  0  0  0  0  0  0  0  0  0  0
    1.4998    1.0321    0.0000 O   0  0  0  0  0  0  0  0  0  0  0  0
  1  2  2  0
  1  6  1  0
  2  3  1  0
  2 16  1  0
  3  4  2  0
  4  5  1  0
  4  7  1  0
  5  6  2  0
  5 10  1  0
  7  8  1  0
  7 17  1  0
  8  9  1  0
  8 11  1  0
  9 10  1  0
  9 14  1  0
  9 18  1  0
 11 12  1  0
 12 13  1  0
 12 15  1  0
 13 14  1  0
 17 19  1  0
 19 18  1  0
 19 20  2  0
M  END
>  <DRUGBANK_ID>  (1) 
DB09187

>  <COMMON_NAME>  (1) 
Lortalamine

>  <CAS_NUMBER>  (1) 
70384-91-7

>  <UNII>  (1) 
9GIR4SV22T

>  <SYNONYMS>  (1) 
Lortalamine

$$$$
