T12
     RDKit          2D

 32 34  0  0  0  0  0  0  0  0999 V2000
   -5.1441    4.6527    0.0000 O   0  0  0  0  0  0  0  0  0  0  0  0
   -4.3191    4.6527    0.0000 N   0  0  0  0  0  0  0  0  0  0  0  0
   -3.9066    5.3671    0.0000 O   0  0  0  0  0  0  0  0  0  0  0  0
   -3.9066    3.9382    0.0000 C   0  0  0  0  0  0  0  0  0  0  0  0
   -4.3191    3.2237    0.0000 C   0  0  0  0  0  0  0  0  0  0  0  0
   -3.9066    2.5093    0.0000 C   0  0  0  0  0  0  0  0  0  0  0  0
   -3.0816    2.5093    0.0000 C   0  0  0  0  0  0  0  0  0  0  0  0
   -3.0816    3.9382    0.0000 C   0  0  0  0  0  0  0  0  0  0  0  0
   -2.6691    3.2237    0.0000 C   0  0  0  0  0  0  0  0  0  0  0  0
   -1.8441    3.2237    0.0000 C   0  0  0  0  0  0  0  0  0  0  0  0
   -1.4316    2.5093    0.0000 O   0  0  0  0  0  0  0  0  0  0  0  0
   -1.4316    3.9382    0.0000 N   0  0  0  0  0  0  0  0  0  0  0  0
   -0.6066    3.9382    0.0000 C   0  0  0  0  0  0  0  0  0  0  0  0
   -0.1216    4.6056    0.0000 N   0  0  0  0  0  0  0  0  0  0  0  0
    0.6630    4.3507    0.0000 C   0  0  0  0  0  0  0  0  0  0  0  0
    1.3775    4.7632    0.0000 C   0  0  0  0  0  0  0  0  0  0  0  0
    2.0919    4.3507    0.0000 C   0  0  0  0  0  0  0  0  0  0  0  0
    2.8064    4.7632    0.0000 O   0  0  0  0  0  0  0  0  0  0  0  0
    3.5209    4.3507    0.0000 C   0  0  0  0  0  0  0  0  0  0  0  0
    3.5209    3.5257    0.0000 O   0  0  0  0  0  0  0  0  0  0  0  0
    4.2353    4.7632    0.0000 C   0  0  0  0  0  0  0  0  0  0  0  0
    4.9498    5.1757    0.0000 C   0  0  0  0  0  0  0  0  0  0  0  0
    4.6478    4.0487    0.0000 C   0  0  0  0  0  0  0  0  0  0  0  0
    3.8228    5.4777    0.0000 C   0  0  0  0  0  0  0  0  0  0  0  0
    2.0919    3.5257    0.0000 C   0  0  0  0  0  0  0  0  0  0  0  0
    0.6630    3.5257    0.0000 C   0  0  0  0  0  0  0  0  0  0  0  0
    1.3775    3.1132    0.0000 C   0  0  0  0  0  0  0  0  0  0  0  0
   -0.1216    3.2708    0.0000 N   0  0  0  0  0  0  0  0  0  0  0  0
   -0.3766    2.4861    0.0000 C   0  0  0  0  0  0  0  0  0  0  0  0
    0.1755    1.8730    0.0000 C   0  0  0  0  0  0  0  0  0  0  0  0
    0.9824    2.0446    0.0000 C   0  0  0  0  0  0  0  0  0  0  0  0
    1.5345    1.4315    0.0000 O   0  0  0  0  0  0  0  0  0  0  0  0
  1  2  1  0
  2  3  2  0
  2  4  1  0
  4  8  2  0
  4  5  1  0
  5  6  2  0
  6  7  1  0
  7  9  2  0
  8  9  1  0
  9 10  1  0
 10 12  1  0
 10 11  2  0
 12 13  1  0
 13 28  1  0
 13 14  2  0
 14 15  1  0
 15 16  2  0
 15 26  1  0
 16 17  1  0
 17 18  1  0
 17 25  2  0
 18 19  1  0
 19 21  1  0
 19 20  2  0
 21 23  1  0
 21 24  1  0
 21 22  1  0
 25 27  1  0
 26 27  2  0
 26 28  1  0
 28 29  1  0
 29 30  1  0
 30 31  1  0
 31 32  1  0
M  CHG  2   1  -1   2   1
M  END
>  <DRUGBANK_ID>  (1) 
DB08590

>  <COMMON_NAME>  (1) 
1-(3-HYDROXYPROPYL)-2-[(3-NITROBENZOYL)AMINO]-1H-BENZIMIDAZOL-5-YL PIVALATE

>  <UNII>  (1) 
QOL8WS9UXV

$$$$
