
     RDKit          2D

 27 30  0  0  0  0  0  0  0  0999 V2000
    0.7231   -1.0619    0.0000 C   0  0  0  0  0  0  0  0  0  0  0  0
    0.0105   -0.6462    0.0000 C   0  0  0  0  0  0  0  0  0  0  0  0
   -0.3109   -1.8514    0.0000 C   0  0  0  0  0  0  0  0  0  0  0  0
    1.4357   -0.6462    0.0000 C   0  0  0  0  0  0  0  0  0  0  0  0
    0.7196   -1.8828    0.0000 C   0  0  0  0  0  0  0  0  0  0  0  0
   -0.7021   -1.0584    0.0000 C   0  0  0  0  0  0  0  0  0  0  0  0
    0.0105    0.1780    0.0000 C   0  0  0  0  0  0  0  0  0  0  0  0
   -0.3073   -2.6793    0.0000 C   0  0  0  0  0  0  0  0  0  0  0  0
   -1.0234   -1.4392    0.0000 C   0  0  0  0  0  0  0  0  0  0  0  0
    2.1483   -1.0654    0.0000 N   0  0  0  0  0  0  0  0  0  0  0  0
    1.4357    0.1746    0.0000 O   0  0  0  0  0  0  0  0  0  0  0  0
    1.4288   -2.2950    0.0000 C   0  0  0  0  0  0  0  0  0  0  0  0
   -1.4112   -0.6497    0.0000 C   0  0  0  0  0  0  0  0  0  0  0  0
   -0.7055    0.5903    0.0000 C   0  0  0  0  0  0  0  0  0  0  0  0
   -1.0234   -3.0880    0.0000 C   0  0  0  0  0  0  0  0  0  0  0  0
   -1.7326   -1.8549    0.0000 C   0  0  0  0  0  0  0  0  0  0  0  0
    2.1449   -1.8864    0.0000 C   0  0  0  0  0  0  0  0  0  0  0  0
   -1.4112    0.1746    0.0000 N   0  0  0  0  0  0  0  0  0  0  0  0
   -1.7361   -2.6828    0.0000 C   0  0  0  0  0  0  0  0  0  0  0  0
    2.8575   -2.3020    0.0000 O   0  0  0  0  0  0  0  0  0  0  0  0
   -2.1274    0.5833    0.0000 C   0  0  0  0  0  0  0  0  0  0  0  0
   -2.1274    1.4182    0.0000 C   0  0  0  0  0  0  0  0  0  0  0  0
   -1.4042    1.8374    0.0000 C   0  0  0  0  0  0  0  0  0  0  0  0
   -2.8505    1.8304    0.0000 C   0  0  0  0  0  0  0  0  0  0  0  0
   -1.4077    2.6723    0.0000 C   0  0  0  0  0  0  0  0  0  0  0  0
   -2.8575    2.6618    0.0000 C   0  0  0  0  0  0  0  0  0  0  0  0
   -2.1308    3.0880    0.0000 C   0  0  0  0  0  0  0  0  0  0  0  0
  1  2  1  1
  1  3  1  0
  1  4  1  0
  1  5  1  0
  2  6  1  0
  2  7  1  0
  3  8  2  0
  3  9  1  0
  4 10  1  0
  4 11  2  0
  5 12  1  0
  6 13  1  0
  7 14  1  0
  8 15  1  0
  9 16  2  0
 10 17  1  0
 12 17  1  0
 13 18  1  0
 14 18  1  0
 15 19  2  0
 16 19  1  0
 17 20  2  0
 18 21  1  0
 21 22  1  0
 22 23  2  0
 22 24  1  0
 23 25  1  0
 24 26  2  0
 25 27  2  0
 26 27  1  0
M  END
>  <DRUGBANK_ID>  (1) 
DB08997

>  <COMMON_NAME>  (1) 
Dexetimide

>  <CAS_NUMBER>  (1) 
21888-98-2

>  <UNII>  (1) 
43477QYX3D

>  <SYNONYMS>  (1) 
Dexetimida; Dexetimide; Dexetimidum

$$$$
