
     RDKit          2D

 10  7  0  0  0  0  0  0  0  0999 V2000
    0.3572    0.2062    0.0000 C   0  0  0  0  0  0  0  0  0  0  0  0
   -0.3572   -0.2062    0.0000 C   0  0  0  0  0  0  0  0  0  0  0  0
    1.0717   -0.2062    0.0000 C   0  0  0  0  0  0  0  0  0  0  0  0
   -1.0717    0.2062    0.0000 C   0  0  0  0  0  0  0  0  0  0  0  0
    1.0717   -1.0312    0.0000 O   0  0  0  0  0  0  0  0  0  0  0  0
    1.7861    0.2062    0.0000 O   0  0  0  0  0  0  0  0  0  0  0  0
   -1.0717    1.0312    0.0000 O   0  0  0  0  0  0  0  0  0  0  0  0
   -1.7861   -0.2062    0.0000 O   0  0  0  0  0  0  0  0  0  0  0  0
    2.5006    0.6187    0.0000 Li  0  0  0  0  0 15  0  0  0  0  0  0
   -2.5006   -0.6187    0.0000 Li  0  0  0  0  0 15  0  0  0  0  0  0
  2  1  1  0
  3  1  1  0
  4  2  1  0
  5  3  2  0
  6  3  1  0
  7  4  2  0
  8  4  1  0
M  CHG  4   6  -1   8  -1   9   1  10   1
M  END
>  <DRUGBANK_ID>  (1) 
DB14508

>  <SECONDARY_ACCESSION_NUMBERS>  (1) 
DBSALT002479

>  <COMMON_NAME>  (1) 
Lithium succinate

>  <CAS_NUMBER>  (1) 
29126-50-9

>  <UNII>  (1) 
MD64P82Y28

>  <SYNONYMS>  (1) 
Butanedioic acid, dilithium salt; Dilithium succinate; Lithium succinate dibasic; Lithium succinate, dibasic; Succinic acid dilithium salt; Succinic acid, dilithium salt

$$$$
