
     RDKit          2D

 32 34  0  0  0  0  0  0  0  0999 V2000
   -1.8371    0.1668    0.0000 C   0  0  0  0  0  0  0  0  0  0  0  0
   -1.1157    0.5995    0.0000 C   0  0  0  0  0  0  0  0  0  0  0  0
   -0.3899    0.1668    0.0000 N   0  0  0  0  0  0  0  0  0  0  0  0
    0.3313    0.6221    0.0000 C   0  0  0  0  0  0  0  0  0  0  0  0
   -1.1157    1.4065    0.0000 C   0  0  0  0  0  0  0  0  0  0  0  0
   -1.8371   -0.6491    0.0000 C   0  0  0  0  0  0  0  0  0  0  0  0
    1.0616    0.2209    0.0000 C   0  0  0  0  0  0  0  0  0  0  0  0
    2.4817   -0.5769    0.0000 C   0  0  0  0  0  0  0  0  0  0  0  0
   -2.5674   -1.0548    0.0000 N   0  0  0  0  0  0  0  0  0  0  0  0
   -1.8371    1.8258    0.0000 C   0  0  0  0  0  0  0  0  0  0  0  0
    2.4907    0.2434    0.0000 C   0  0  0  0  0  0  0  0  0  0  0  0
    1.7649    0.6491    0.0000 C   0  0  0  0  0  0  0  0  0  0  0  0
    3.2481   -1.0008    0.0000 O   0  0  0  0  0  0  0  0  0  0  0  0
   -2.5493    0.5995    0.0000 C   0  0  0  0  0  0  0  0  0  0  0  0
    3.9694   -0.5545    0.0000 C   0  0  0  0  0  0  0  0  0  0  0  0
   -2.5493    1.4245    0.0000 C   0  0  0  0  0  0  0  0  0  0  0  0
    0.3448    1.4471    0.0000 O   0  0  0  0  0  0  0  0  0  0  0  0
    1.0481   -0.6040    0.0000 C   0  0  0  0  0  0  0  0  0  0  0  0
    1.8189   -1.0008    0.0000 C   0  0  0  0  0  0  0  0  0  0  0  0
    3.9423    0.0676    0.0000 O   0  0  0  0  0  0  0  0  0  0  0  0
   -3.2661   -0.6491    0.0000 C   0  0  0  0  0  0  0  0  0  0  0  0
   -0.3899    1.8258    0.0000 Br  0  0  0  0  0  0  0  0  0  0  0  0
   -3.2436    1.8798    0.0000 Br  0  0  0  0  0  0  0  0  0  0  0  0
    3.1939    0.6761    0.0000 O   0  0  0  0  0  0  0  0  0  0  0  0
   -2.5674   -1.8798    0.0000 C   0  0  0  0  0  0  0  0  0  0  0  0
    4.6996   -0.9466    0.0000 C   0  0  0  0  0  0  0  0  0  0  0  0
   -3.9964   -1.0548    0.0000 C   0  0  0  0  0  0  0  0  0  0  0  0
   -3.2661    0.1668    0.0000 C   0  0  0  0  0  0  0  0  0  0  0  0
    3.1714    1.6499    0.0000 C   0  0  0  0  0  0  0  0  0  0  0  0
   -3.9964    0.5725    0.0000 C   0  0  0  0  0  0  0  0  0  0  0  0
   -4.6996   -0.6491    0.0000 C   0  0  0  0  0  0  0  0  0  0  0  0
   -4.6996    0.1668    0.0000 C   0  0  0  0  0  0  0  0  0  0  0  0
  2  1  1  0
  3  2  1  0
  4  3  1  0
  5  2  2  0
  5 10  1  0
  6  1  1  0
  7  4  1  0
  8 19  2  0
  9  6  1  0
 10 16  2  0
 11 12  2  0
 11  8  1  0
 12  7  1  0
 13  8  1  0
 14  1  2  0
 15 13  1  0
 16 14  1  0
 17  4  2  0
 18  7  2  0
 19 18  1  0
 20 15  2  0
 21  9  1  0
 22  5  1  0
 23 16  1  0
 24 11  1  0
 25  9  1  0
 26 15  1  0
 27 21  1  0
 28 21  1  0
 29 24  1  0
 30 28  1  0
 31 27  1  0
 31 32  1  0
 32 30  1  0
M  END
>  <DRUGBANK_ID>  (1) 
DB14720

>  <COMMON_NAME>  (1) 
Brovanexine

>  <CAS_NUMBER>  (1) 
54340-61-3

>  <UNII>  (1) 
Y00SD533IW

>  <SYNONYMS>  (1) 
Brovanexina; Brovanexine; Brovanexinum

$$$$
