
     RDKit          2D

 27 29  0  0  1  0  0  0  0  0999 V2000
   -1.3219    2.4609    0.0000 O   0  0  0  0  0  0  0  0  0  0  0  0
   -2.7505    0.8107    0.0000 O   0  0  0  0  0  0  0  0  0  0  0  0
   -1.7538   -1.2019    0.0000 O   0  0  0  0  0  0  0  0  0  0  0  0
   -0.6071   -0.4268    0.0000 O   0  0  0  0  0  0  0  0  0  0  0  0
    2.3049    2.0680    0.0000 O   0  0  0  0  0  0  0  0  0  0  0  0
    0.8351   -0.4553    0.0000 O   0  0  0  0  0  0  0  0  0  0  0  0
   -3.4650   -0.4268    0.0000 O   0  0  0  0  0  0  0  0  0  0  0  0
   -0.6071    1.2231    0.0000 O   0  0  0  0  0  0  0  0  0  0  0  0
   -1.3216    1.6356    0.0000 C   0  0  0  0  0  0  0  0  0  0  0  0
   -0.6071    2.0481    0.0000 C   0  0  0  0  0  0  0  0  0  0  0  0
   -1.3216    0.8107    0.0000 C   0  0  0  0  0  0  0  0  0  0  0  0
    0.1071    1.6356    0.0000 C   0  0  0  0  0  0  0  0  0  0  0  0
   -2.0361    0.3981    0.0000 C   0  0  0  0  0  0  0  0  0  0  0  0
   -2.0361   -0.4268    0.0000 C   0  0  0  0  0  0  0  0  0  0  0  0
    0.1071    0.8107    0.0000 C   0  0  0  0  0  0  0  0  0  0  0  0
    0.8447    2.0767    0.0000 C   0  0  0  0  0  0  0  0  0  0  0  0
    0.8447    0.3695    0.0000 C   0  0  0  0  0  0  0  0  0  0  0  0
    1.5921    1.6528    0.0000 C   0  0  0  0  0  0  0  0  0  0  0  0
   -2.7505   -0.8392    0.0000 C   0  0  0  0  0  0  0  0  0  0  0  0
   -0.6071    0.3981    0.0000 C   0  0  0  0  0  0  0  0  0  0  0  0
    1.5921    0.7935    0.0000 C   0  0  0  0  0  0  0  0  0  0  0  0
   -1.3216   -0.8392    0.0000 C   0  0  0  0  0  0  0  0  0  0  0  0
   -2.7505   -1.6642    0.0000 C   0  0  0  0  0  0  0  0  0  0  0  0
   -1.3216   -1.6642    0.0000 C   0  0  0  0  0  0  0  0  0  0  0  0
   -2.0361   -2.0767    0.0000 C   0  0  0  0  0  0  0  0  0  0  0  0
   -1.3216   -0.0142    0.0000 C   0  0  0  0  0  0  0  0  0  0  0  0
    3.0210    1.6583    0.0000 C   0  0  0  0  0  0  0  0  0  0  0  0
  4 20  1  0
  4 22  1  0
  5 18  1  0
  5 27  1  0
  6 17  1  0
  7 19  2  0
  8 20  2  0
  9  1  1  0
  9 10  1  0
  9 11  1  1
 10  1  1  6
 10 12  1  0
 11 13  1  0
 12 15  2  0
 12 16  1  0
 13  2  1  1
 13 14  1  0
 14  3  1  6
 14 19  1  0
 15 17  1  0
 15 20  1  0
 16 18  2  0
 17 21  2  0
 18 21  1  0
 19 23  1  0
 22 24  1  0
 22 26  1  6
 23 25  2  0
 24 25  1  0
M  END
>  <DRUGBANK_ID>  (1) 
DB07905

>  <COMMON_NAME>  (1) 
Hypothemycin

>  <CAS_NUMBER>  (1) 
76958-67-3

>  <SYNONYMS>  (1) 
Aigialomycin A

$$$$
