H7J
     RDKit          2D

 27 28  0  0  0  0  0  0  0  0999 V2000
    2.1334    1.3525    0.0000 O   0  0  0  0  0  0  0  0  0  0  0  0
    1.3365    1.1390    0.0000 C   0  0  0  0  0  0  0  0  0  0  0  0
    0.7531    1.7224    0.0000 C   0  0  0  0  0  0  0  0  0  0  0  0
   -0.0438    1.5088    0.0000 C   0  0  0  0  0  0  0  0  0  0  0  0
   -0.6272    2.0922    0.0000 C   0  0  0  0  0  0  0  0  0  0  0  0
   -0.4136    2.8891    0.0000 C   0  0  0  0  0  0  0  0  0  0  0  0
    0.3833    3.1026    0.0000 C   0  0  0  0  0  0  0  0  0  0  0  0
    0.9666    2.5192    0.0000 C   0  0  0  0  0  0  0  0  0  0  0  0
    1.1229    0.3421    0.0000 N   0  0  0  0  0  0  0  0  0  0  0  0
    1.7063   -0.2413    0.0000 C   0  0  0  0  0  0  0  0  0  0  0  0
    2.2897   -0.8246    0.0000 C   0  0  0  0  0  0  0  0  0  0  0  0
    2.2897    0.3421    0.0000 C   0  0  0  0  0  0  0  0  0  0  0  0
    2.5853    1.1123    0.0000 C   0  0  0  0  0  0  0  0  0  0  0  0
    3.0866    0.1286    0.0000 C   0  0  0  0  0  0  0  0  0  0  0  0
    1.1229   -0.8246    0.0000 C   0  0  0  0  0  0  0  0  0  0  0  0
    1.2520   -1.6395    0.0000 N   0  0  0  0  0  0  0  0  0  0  0  0
    0.5169   -2.0140    0.0000 N   0  0  0  0  0  0  0  0  0  0  0  0
    0.3081   -0.6956    0.0000 C   0  0  0  0  0  0  0  0  0  0  0  0
   -0.0664   -1.4306    0.0000 N   0  0  0  0  0  0  0  0  0  0  0  0
   -0.8813   -1.5597    0.0000 C   0  0  0  0  0  0  0  0  0  0  0  0
   -1.1769   -2.3299    0.0000 C   0  0  0  0  0  0  0  0  0  0  0  0
   -1.9918   -2.4590    0.0000 C   0  0  0  0  0  0  0  0  0  0  0  0
   -0.6578   -2.9711    0.0000 O   0  0  0  0  0  0  0  0  0  0  0  0
   -1.4005   -0.9186    0.0000 C   0  0  0  0  0  0  0  0  0  0  0  0
   -2.2153   -1.0476    0.0000 C   0  0  0  0  0  0  0  0  0  0  0  0
   -2.7345   -0.4065    0.0000 C   0  0  0  0  0  0  0  0  0  0  0  0
   -3.5494   -0.5355    0.0000 C   0  0  0  0  0  0  0  0  0  0  0  0
  1  2  2  0
  2  3  1  0
  2  9  1  0
  3  4  2  0
  3  8  1  0
  4  5  1  0
  5  6  2  0
  6  7  1  0
  7  8  2  0
 10  9  1  0
 10 11  1  6
 10 12  1  0
 10 15  1  0
 12 13  1  0
 12 14  1  0
 15 16  1  0
 15 18  2  0
 16 17  2  0
 17 19  1  0
 18 19  1  0
 20 19  1  0
 20 21  1  0
 20 24  1  1
 21 22  1  0
 21 23  2  0
 24 25  1  0
 25 26  2  0
 26 27  1  0
M  END
>  <DRUGBANK_ID>  (1) 
DB07878

>  <COMMON_NAME>  (1) 
N-[(1S)-1-{1-[(1R,3E)-1-ACETYLPENT-3-EN-1-YL]-1H-1,2,3-TRIAZOL-4-YL}-1,2-DIMETHYLPROPYL]BENZAMIDE

$$$$
