
     RDKit          2D

 32 33  0  0  1  0  0  0  0  0999 V2000
   -8.9296   -3.0008    0.0000 C   0  0  0  0  0  0  0  0  0  0  0  0
   -8.2151   -2.5883    0.0000 C   0  0  0  0  0  0  0  0  0  0  0  0
   -8.2151   -1.7633    0.0000 C   0  0  0  0  0  0  0  0  0  0  0  0
   -7.5006   -3.0008    0.0000 C   0  0  0  0  0  0  0  0  0  0  0  0
   -7.5006   -3.8258    0.0000 N   0  0  0  0  0  0  0  0  0  0  0  0
   -6.7861   -2.5883    0.0000 C   0  0  0  0  0  0  0  0  0  0  0  0
   -6.7861   -1.7633    0.0000 O   0  0  0  0  0  0  0  0  0  0  0  0
   -6.0717   -3.0008    0.0000 N   0  0  0  0  0  0  0  0  0  0  0  0
   -5.3572   -2.5883    0.0000 C   0  0  0  0  0  0  0  0  0  0  0  0
   -5.3572   -1.7633    0.0000 C   0  0  0  0  0  0  0  0  0  0  0  0
   -4.6427   -1.3508    0.0000 C   0  0  0  0  0  0  0  0  0  0  0  0
   -6.0717   -1.3508    0.0000 C   0  0  0  0  0  0  0  0  0  0  0  0
   -4.6427   -3.0008    0.0000 C   0  0  0  0  0  0  0  0  0  0  0  0
   -4.6427   -3.8258    0.0000 O   0  0  0  0  0  0  0  0  0  0  0  0
   -3.9283   -2.5883    0.0000 O   0  0  0  0  0  0  0  0  0  0  0  0
   -3.2138   -3.0008    0.0000 C   0  0  0  0  0  0  0  0  0  0  0  0
   -2.4993   -2.5883    0.0000 C   0  0  0  0  0  0  0  0  0  0  0  0
   -2.4993   -1.7633    0.0000 C   0  0  0  0  0  0  0  0  0  0  0  0
   -1.7849   -1.3508    0.0000 O   0  0  0  0  0  0  0  0  0  0  0  0
   -1.7849   -3.0008    0.0000 O   0  0  0  0  0  0  0  0  0  0  0  0
   -1.0704   -2.5883    0.0000 C   0  0  0  0  0  0  0  0  0  0  0  0
   -0.3559   -3.0008    0.0000 N   0  0  0  0  0  0  0  0  0  0  0  0
   -0.2697   -3.8213    0.0000 C   0  0  0  0  0  0  0  0  0  0  0  0
    0.5373   -3.9928    0.0000 N   0  0  0  0  0  0  0  0  0  0  0  0
    0.9498   -3.2784    0.0000 C   0  0  0  0  0  0  0  0  0  0  0  0
    0.3978   -2.6653    0.0000 C   0  0  0  0  0  0  0  0  0  0  0  0
    0.6527   -1.8807    0.0000 N   0  0  0  0  0  0  0  0  0  0  0  0
    1.4597   -1.7091    0.0000 C   0  0  0  0  0  0  0  0  0  0  0  0
    1.7146   -0.9245    0.0000 N   0  0  0  0  0  0  0  0  0  0  0  0
    2.0117   -2.3222    0.0000 N   0  0  0  0  0  0  0  0  0  0  0  0
    1.7568   -3.1069    0.0000 C   0  0  0  0  0  0  0  0  0  0  0  0
    2.3088   -3.7199    0.0000 O   0  0  0  0  0  0  0  0  0  0  0  0
  1  2  1  0
  2  3  1  0
  4  2  1  0
  4  5  1  1
  4  6  1  0
  6  7  2  0
  6  8  1  0
  9  8  1  1
  9 10  1  0
  9 13  1  0
 10 11  1  0
 10 12  1  0
 13 14  2  0
 13 15  1  0
 15 16  1  0
 17 16  1  1
 17 18  1  0
 17 20  1  0
 18 19  1  0
 20 21  1  0
 21 22  1  0
 22 23  1  0
 22 26  1  0
 23 24  2  0
 24 25  1  0
 25 26  2  0
 25 31  1  0
 26 27  1  0
 27 28  2  0
 28 29  1  0
 28 30  1  0
 30 31  1  0
 31 32  2  0
M  END
>  <DRUGBANK_ID>  (1) 
DB17744

>  <COMMON_NAME>  (1) 
Valine-valine-ganciclovir

>  <CAS_NUMBER>  (1) 
897937-73-4

>  <UNII>  (1) 
ZW811N4EW6

>  <SYNONYMS>  (1) 
L-valine, l-valyl-, 2-((2-amino-1,6-dihydro-6-oxo-9h-purin-9-yl)methoxy)-3-hydroxypropyl ester; Valganciclovir n-valyl impurity

$$$$
