LLG
     RDKit          2D

 17 18  0  0  0  0  0  0  0  0999 V2000
   -3.5205   -0.1667    0.0000 N   0  0  0  0  0  0  0  0  0  0  0  0
   -2.0916   -0.1667    0.0000 C   0  0  0  0  0  0  0  0  0  0  0  0
   -2.8061    0.2458    0.0000 C   0  0  0  0  0  0  0  0  0  0  0  0
    0.0518    0.2458    0.0000 C   0  0  0  0  0  0  0  0  0  0  0  0
   -0.6626   -0.1667    0.0000 C   0  0  0  0  0  0  0  0  0  0  0  0
    2.1952    1.4833    0.0000 C   0  0  0  0  0  0  0  0  0  0  0  0
    2.1952   -0.1667    0.0000 C   0  0  0  0  0  0  0  0  0  0  0  0
    0.7663   -0.1667    0.0000 C   0  0  0  0  0  0  0  0  0  0  0  0
    1.4808   -1.4042    0.0000 C   0  0  0  0  0  0  0  0  0  0  0  0
   -1.3771    0.2458    0.0000 O   0  0  0  0  0  0  0  0  0  0  0  0
    0.7663   -0.9917    0.0000 C   0  0  0  0  0  0  0  0  0  0  0  0
    2.1952   -0.9917    0.0000 C   0  0  0  0  0  0  0  0  0  0  0  0
    1.4808    0.2458    0.0000 C   0  0  0  0  0  0  0  0  0  0  0  0
    1.4808    1.0708    0.0000 C   0  0  0  0  0  0  0  0  0  0  0  0
    2.9097    1.0708    0.0000 C   0  0  0  0  0  0  0  0  0  0  0  0
    2.9097    0.2458    0.0000 C   0  0  0  0  0  0  0  0  0  0  0  0
   -0.6626   -0.9917    0.0000 O   0  0  0  0  0  0  0  0  0  0  0  0
  1  3  1  0
  2  3  1  0
  2 10  1  0
  4  5  1  0
  4  8  1  0
  5 10  1  0
  5 17  2  0
  6 14  2  0
  6 15  1  0
  7 12  1  0
  7 13  2  0
  7 16  1  0
  8 11  2  0
  8 13  1  0
  9 11  1  0
  9 12  2  0
 13 14  1  0
 15 16  2  0
M  END
>  <DRUGBANK_ID>  (1) 
DB08115

>  <COMMON_NAME>  (1) 
2-aminoethyl naphthalen-1-ylacetate

$$$$
