
     RDKit          2D

 30 32  0  0  0  0  0  0  0  0999 V2000
    0.3019    5.7750    0.0000 C   0  0  0  0  0  0  0  0  0  0  0  0
   -0.5230    4.9500    0.0000 C   0  0  0  0  0  0  0  0  0  0  0  0
    1.1269    4.9500    0.0000 C   0  0  0  0  0  0  0  0  0  0  0  0
    1.0164   -5.3625    0.0000 C   0  0  0  0  0  0  0  0  0  0  0  0
    1.0164   -4.5375    0.0000 C   0  0  0  0  0  0  0  0  0  0  0  0
   -1.1269   -0.8250    0.0000 C   0  0  0  0  0  0  0  0  0  0  0  0
    0.3019   -0.8250    0.0000 C   0  0  0  0  0  0  0  0  0  0  0  0
   -1.1269   -1.6500    0.0000 C   0  0  0  0  0  0  0  0  0  0  0  0
    0.3019   -1.6500    0.0000 C   0  0  0  0  0  0  0  0  0  0  0  0
   -0.4125    3.7125    0.0000 C   0  0  0  0  0  0  0  0  0  0  0  0
    1.0164    3.7125    0.0000 C   0  0  0  0  0  0  0  0  0  0  0  0
   -0.4125    2.8875    0.0000 C   0  0  0  0  0  0  0  0  0  0  0  0
    1.0164    2.8875    0.0000 C   0  0  0  0  0  0  0  0  0  0  0  0
    0.3019   -5.7750    0.0000 C   0  0  0  0  0  0  0  0  0  0  0  0
   -0.4125    0.4125    0.0000 C   0  0  0  0  0  0  0  0  0  0  0  0
   -0.4125   -4.5375    0.0000 C   0  0  0  0  0  0  0  0  0  0  0  0
   -0.4125   -0.4125    0.0000 C   0  0  0  0  0  0  0  0  0  0  0  0
   -0.4125   -2.0625    0.0000 C   0  0  0  0  0  0  0  0  0  0  0  0
    0.3019    4.1250    0.0000 C   0  0  0  0  0  0  0  0  0  0  0  0
    0.3019   -4.1250    0.0000 C   0  0  0  0  0  0  0  0  0  0  0  0
    0.3019    2.4750    0.0000 C   0  0  0  0  0  0  0  0  0  0  0  0
   -0.4125   -2.8875    0.0000 C   0  0  0  0  0  0  0  0  0  0  0  0
    0.3019    4.9500    0.0000 C   0  0  0  0  0  0  0  0  0  0  0  0
   -0.4125   -5.3625    0.0000 N   0  0  0  0  0  0  0  0  0  0  0  0
    0.3019    0.8250    0.0000 N   0  0  0  0  0  0  0  0  0  0  0  0
    0.3019   -3.3000    0.0000 N   0  0  0  0  0  0  0  0  0  0  0  0
   -1.1269   -3.3000    0.0000 O   0  0  0  0  0  0  0  0  0  0  0  0
   -0.5230    1.6500    0.0000 O   0  0  0  0  0  0  0  0  0  0  0  0
    1.1269    1.6500    0.0000 O   0  0  0  0  0  0  0  0  0  0  0  0
    0.3019    1.6500    0.0000 S   0  0  0  0  0  0  0  0  0  0  0  0
  5  4  2  0
  8  6  2  0
  9  7  1  0
 12 10  2  0
 13 11  1  0
 14  4  1  0
 17  6  1  0
 17  7  2  0
 17 15  1  0
 18  8  1  0
 18  9  2  0
 19 10  1  0
 19 11  2  0
 20  5  1  0
 20 16  2  0
 21 12  1  0
 21 13  2  0
 22 18  1  0
 23  1  1  0
 23  2  1  0
 23  3  1  0
 23 19  1  0
 24 14  2  0
 24 16  1  0
 25 15  1  0
 26 20  1  0
 26 22  1  0
 27 22  2  0
 30 21  1  0
 30 25  1  0
 30 28  2  0
 30 29  2  0
M  END
>  <DRUGBANK_ID>  (1) 
DB16761

>  <COMMON_NAME>  (1) 
STF-31

>  <CAS_NUMBER>  (1) 
724741-75-7

>  <SYNONYMS>  (1) 
STF 31; STF31

$$$$
