
     RDKit          2D

 25 28  0  0  0  0  0  0  0  0999 V2000
   -2.1246    0.6394    0.0000 C   0  0  0  0  0  0  0  0  0  0  0  0
   -2.1246   -0.1856    0.0000 C   0  0  0  0  0  0  0  0  0  0  0  0
   -1.4233   -0.5982    0.0000 C   0  0  0  0  0  0  0  0  0  0  0  0
   -0.7219   -0.1856    0.0000 C   0  0  0  0  0  0  0  0  0  0  0  0
   -0.7219    0.6394    0.0000 C   0  0  0  0  0  0  0  0  0  0  0  0
   -1.4233    1.0519    0.0000 C   0  0  0  0  0  0  0  0  0  0  0  0
   -2.8672   -0.5569    0.0000 O   0  0  0  0  0  0  0  0  0  0  0  0
    0.0206    1.0519    0.0000 C   0  0  0  0  0  0  0  0  0  0  0  0
    0.7219    0.6394    0.0000 C   0  0  0  0  0  0  0  0  0  0  0  0
   -0.7219    1.4645    0.0000 C   0  0  0  0  0  0  0  0  0  0  0  0
    0.7219    1.4645    0.0000 C   0  0  0  0  0  0  0  0  0  0  0  0
    0.7219   -0.1856    0.0000 C   0  0  0  0  0  0  0  0  0  0  0  0
    1.4233   -0.5982    0.0000 C   0  0  0  0  0  0  0  0  0  0  0  0
    2.1658   -0.1856    0.0000 C   0  0  0  0  0  0  0  0  0  0  0  0
    2.1658    0.6394    0.0000 C   0  0  0  0  0  0  0  0  0  0  0  0
    1.4233    1.0519    0.0000 C   0  0  0  0  0  0  0  0  0  0  0  0
    2.8671   -0.5982    0.0000 O   0  0  0  0  0  0  0  0  0  0  0  0
   -3.5686   -0.1443    0.0000 C   0  0  0  0  0  0  0  0  0  0  0  0
    3.5686   -0.1856    0.0000 C   0  0  0  0  0  0  0  0  0  0  0  0
   -4.2864   -0.5510    0.0000 C   0  0  0  0  0  0  0  0  0  0  0  0
    4.2864   -0.5923    0.0000 C   0  0  0  0  0  0  0  0  0  0  0  0
   -5.0950   -0.5569    0.0000 C   0  0  0  0  0  0  0  0  0  0  0  0
   -4.6411   -1.3820    0.0000 O   0  0  0  0  0  0  0  0  0  0  0  0
    4.6824   -1.4645    0.0000 O   0  0  0  0  0  0  0  0  0  0  0  0
    5.0950   -0.5982    0.0000 C   0  0  0  0  0  0  0  0  0  0  0  0
  1  2  2  0
  2  3  1  0
  2  7  1  0
  3  4  2  0
  4  5  1  0
  5  6  2  0
  5  8  1  0
  6  1  1  0
  7 18  1  0
  8  9  1  0
  8 10  1  0
  8 11  1  0
  9 12  2  0
 12 13  1  0
 13 14  2  0
 14 15  1  0
 14 17  1  0
 15 16  2  0
 16  9  1  0
 17 19  1  0
 18 20  1  0
 19 21  1  0
 20 22  1  0
 20 23  1  0
 21 24  1  0
 21 25  1  0
 23 22  1  0
 25 24  1  0
M  END
>  <DRUGBANK_ID>  (1) 
DB14083

>  <COMMON_NAME>  (1) 
Bisphenol A diglycidyl ether

>  <CAS_NUMBER>  (1) 
1675-54-3

>  <UNII>  (1) 
F3XRM1NX4H

>  <SYNONYMS>  (1) 
2,2-Bis(4-glycidyloxyphenyl)propane; 2,2-bis(4'-glycidyloxyphenyl)propane; 4,4'-isopropylidenediphenol diglycidyl ether; Bisphenol diglycidyl ether; DGEBPA; Diglycidyl bisphenol A ether

$$$$
