
     RDKit          2D

 31 34  0  0  0  0  0  0  0  0999 V2000
    2.5006   -3.5062    0.0000 Cl  0  0  0  0  0  0  0  0  0  0  0  0
    1.7861   -3.0937    0.0000 C   0  0  0  0  0  0  0  0  0  0  0  0
    1.0717   -3.5062    0.0000 C   0  0  0  0  0  0  0  0  0  0  0  0
    0.3572   -3.0937    0.0000 C   0  0  0  0  0  0  0  0  0  0  0  0
    0.3572   -2.2687    0.0000 C   0  0  0  0  0  0  0  0  0  0  0  0
    1.0717   -1.8562    0.0000 C   0  0  0  0  0  0  0  0  0  0  0  0
    1.0717   -1.0312    0.0000 Cl  0  0  0  0  0  0  0  0  0  0  0  0
    1.7861   -2.2687    0.0000 C   0  0  0  0  0  0  0  0  0  0  0  0
   -0.3572   -1.8562    0.0000 S   0  0  0  0  0  0  0  0  0  0  0  0
    0.0552   -1.1417    0.0000 O   0  0  0  0  0  0  0  0  0  0  0  0
   -0.7697   -2.5707    0.0000 O   0  0  0  0  0  0  0  0  0  0  0  0
   -1.0717   -1.4437    0.0000 N   0  0  0  0  0  0  0  0  0  0  0  0
   -1.0717   -0.6187    0.0000 C   0  0  0  0  0  0  0  0  0  0  0  0
   -1.7861   -0.2062    0.0000 C   0  0  0  0  0  0  0  0  0  0  0  0
   -1.7861    0.6187    0.0000 C   0  0  0  0  0  0  0  0  0  0  0  0
   -2.5006    1.0312    0.0000 Cl  0  0  0  0  0  0  0  0  0  0  0  0
   -1.0717    1.0312    0.0000 C   0  0  0  0  0  0  0  0  0  0  0  0
   -1.0717    1.8562    0.0000 O   0  0  0  0  0  0  0  0  0  0  0  0
   -0.3572    2.2687    0.0000 C   0  0  0  0  0  0  0  0  0  0  0  0
   -0.3572    3.0937    0.0000 C   0  0  0  0  0  0  0  0  0  0  0  0
    0.3572    3.5062    0.0000 N   0  0  0  0  0  0  0  0  0  0  0  0
    1.0717    3.0937    0.0000 C   0  0  0  0  0  0  0  0  0  0  0  0
    1.7861    3.5062    0.0000 C   0  0  0  0  0  0  0  0  0  0  0  0
    2.5006    3.0937    0.0000 C   0  0  0  0  0  0  0  0  0  0  0  0
    2.5006    2.2687    0.0000 C   0  0  0  0  0  0  0  0  0  0  0  0
    1.7861    1.8562    0.0000 C   0  0  0  0  0  0  0  0  0  0  0  0
    1.0717    2.2687    0.0000 C   0  0  0  0  0  0  0  0  0  0  0  0
    0.3572    1.8562    0.0000 C   0  0  0  0  0  0  0  0  0  0  0  0
   -0.3572    0.6187    0.0000 C   0  0  0  0  0  0  0  0  0  0  0  0
    0.3572    1.0312    0.0000 Cl  0  0  0  0  0  0  0  0  0  0  0  0
   -0.3572   -0.2062    0.0000 C   0  0  0  0  0  0  0  0  0  0  0  0
  1  2  1  0
  2  3  2  0
  2  8  1  0
  3  4  1  0
  4  5  2  0
  5  6  1  0
  5  9  1  0
  6  7  1  0
  6  8  2  0
  9 10  2  0
  9 11  2  0
  9 12  1  0
 12 13  1  0
 13 14  2  0
 13 31  1  0
 14 15  1  0
 15 16  1  0
 15 17  2  0
 17 18  1  0
 17 29  1  0
 18 19  1  0
 19 20  2  0
 19 28  1  0
 20 21  1  0
 21 22  2  0
 22 23  1  0
 22 27  1  0
 23 24  2  0
 24 25  1  0
 25 26  2  0
 26 27  1  0
 27 28  2  0
 29 30  1  0
 29 31  2  0
M  END
>  <DRUGBANK_ID>  (1) 
DB05490

>  <COMMON_NAME>  (1) 
AMG-131

>  <CAS_NUMBER>  (1) 
315224-26-1

>  <UNII>  (1) 
E7ILQ6U50J

$$$$
