113
     RDKit          2D

 23 25  0  0  0  0  0  0  0  0999 V2000
    2.4567    0.7895    0.0000 C   0  0  0  0  0  0  0  0  0  0  0  0
    1.7422    1.2020    0.0000 C   0  0  0  0  0  0  0  0  0  0  0  0
    1.0278    0.7895    0.0000 C   0  0  0  0  0  0  0  0  0  0  0  0
    1.0278   -0.0355    0.0000 C   0  0  0  0  0  0  0  0  0  0  0  0
    1.7422   -0.4480    0.0000 C   0  0  0  0  0  0  0  0  0  0  0  0
    2.4567   -0.0355    0.0000 C   0  0  0  0  0  0  0  0  0  0  0  0
    0.3133    1.2020    0.0000 O   0  0  0  0  0  0  0  0  0  0  0  0
   -0.4012    0.7895    0.0000 C   0  0  0  0  0  0  0  0  0  0  0  0
   -0.4012   -0.0355    0.0000 C   0  0  0  0  0  0  0  0  0  0  0  0
    0.3133   -0.4480    0.0000 C   0  0  0  0  0  0  0  0  0  0  0  0
   -1.1156    1.2020    0.0000 C   0  0  0  0  0  0  0  0  0  0  0  0
   -1.8301    0.7895    0.0000 C   0  0  0  0  0  0  0  0  0  0  0  0
   -1.8301   -0.0355    0.0000 O   0  0  0  0  0  0  0  0  0  0  0  0
   -1.1156   -0.4480    0.0000 C   0  0  0  0  0  0  0  0  0  0  0  0
    3.1712   -0.4480    0.0000 O   0  0  0  0  0  0  0  0  0  0  0  0
    3.1712    1.2020    0.0000 O   0  0  0  0  0  0  0  0  0  0  0  0
    1.7422   -1.2730    0.0000 C   0  0  0  0  0  0  0  0  0  0  0  0
    2.4567   -1.6855    0.0000 O   0  0  0  0  0  0  0  0  0  0  0  0
   -1.1156   -1.2730    0.0000 O   0  0  0  0  0  0  0  0  0  0  0  0
   -1.8301   -1.6855    0.0000 C   0  0  0  0  0  0  0  0  0  0  0  0
   -2.5446    1.2020    0.0000 C   0  0  0  0  0  0  0  0  0  0  0  0
    1.0278   -1.6855    0.0000 O   0  0  0  0  0  0  0  0  0  0  0  0
    0.3133   -1.2730    0.0000 O   0  0  0  0  0  0  0  0  0  0  0  0
  1  2  2  0
  1  6  1  0
  1 16  1  0
  2  3  1  0
  3  4  2  0
  3  7  1  0
  4  5  1  0
  4 10  1  0
  5  6  2  0
  5 17  1  0
  6 15  1  0
  7  8  1  0
  8  9  2  0
  8 11  1  0
  9 10  1  0
  9 14  1  0
 10 23  2  0
 11 12  1  0
 12 13  1  0
 12 21  1  1
 13 14  1  0
 14 19  1  6
 17 18  1  0
 17 22  2  0
 19 20  1  0
M  END
>  <DRUGBANK_ID>  (1) 
DB02593

>  <SECONDARY_ACCESSION_NUMBERS>  (1) 
EXPT00011

>  <COMMON_NAME>  (1) 
7,8-Dihydroxy-1-Methoxy-3-Methyl-10-Oxo-4,10-Dihydro-1h,3h-Pyrano[4,3-B]Chromene-9-Carboxylic Acid

$$$$
