
     RDKit          2D

 36 38  0  0  0  0  0  0  0  0999 V2000
    0.7144    0.4125    0.0000 O   0  0  0  0  0  0  0  0  0  0  0  0
   -1.4289   -4.1250    0.0000 O   0  0  0  0  0  0  0  0  0  0  0  0
    2.1434   -0.4125    0.0000 O   0  0  0  0  0  0  0  0  0  0  0  0
    1.4290   -1.6500    0.0000 O   0  0  0  0  0  0  0  0  0  0  0  0
   -0.7144    0.4125    0.0000 N   0  0  0  0  0  0  0  0  0  0  0  0
   -0.7144   -0.4125    0.0000 C   0  0  0  0  0  0  0  0  0  0  0  0
    0.0000   -0.8250    0.0000 C   0  0  0  0  0  0  0  0  0  0  0  0
   -1.4289   -0.8250    0.0000 C   0  0  0  0  0  0  0  0  0  0  0  0
    0.7144    2.8875    0.0000 C   0  0  0  0  0  0  0  0  0  0  0  0
    0.7144    2.0625    0.0000 C   0  0  0  0  0  0  0  0  0  0  0  0
    1.4290    3.3000    0.0000 C   0  0  0  0  0  0  0  0  0  0  0  0
    0.0000    1.6500    0.0000 C   0  0  0  0  0  0  0  0  0  0  0  0
    1.4290    4.1250    0.0000 C   0  0  0  0  0  0  0  0  0  0  0  0
    0.0000    0.8250    0.0000 C   0  0  0  0  0  0  0  0  0  0  0  0
    0.7144   -0.4125    0.0000 C   0  0  0  0  0  0  0  0  0  0  0  0
   -1.4289   -1.6500    0.0000 C   0  0  0  0  0  0  0  0  0  0  0  0
    2.1434    4.5375    0.0000 C   0  0  0  0  0  0  0  0  0  0  0  0
   -0.7144   -2.0625    0.0000 C   0  0  0  0  0  0  0  0  0  0  0  0
   -2.1434   -2.0625    0.0000 C   0  0  0  0  0  0  0  0  0  0  0  0
    2.1434    5.3626    0.0000 C   0  0  0  0  0  0  0  0  0  0  0  0
    1.4290   -0.8250    0.0000 C   0  0  0  0  0  0  0  0  0  0  0  0
   -0.7144   -2.8875    0.0000 C   0  0  0  0  0  0  0  0  0  0  0  0
   -2.1434   -2.8875    0.0000 C   0  0  0  0  0  0  0  0  0  0  0  0
   -1.4289   -3.3000    0.0000 C   0  0  0  0  0  0  0  0  0  0  0  0
    1.4290    5.7751    0.0000 C   0  0  0  0  0  0  0  0  0  0  0  0
    2.8579    5.7751    0.0000 C   0  0  0  0  0  0  0  0  0  0  0  0
    1.4290    6.6001    0.0000 C   0  0  0  0  0  0  0  0  0  0  0  0
    2.8579    6.6001    0.0000 C   0  0  0  0  0  0  0  0  0  0  0  0
    2.1434    7.0126    0.0000 C   0  0  0  0  0  0  0  0  0  0  0  0
   -2.1434   -4.5375    0.0000 C   0  0  0  0  0  0  0  0  0  0  0  0
   -2.1434   -5.3626    0.0000 C   0  0  0  0  0  0  0  0  0  0  0  0
   -1.4289   -5.7751    0.0000 C   0  0  0  0  0  0  0  0  0  0  0  0
   -2.8579   -5.7751    0.0000 C   0  0  0  0  0  0  0  0  0  0  0  0
   -1.4289   -6.6001    0.0000 C   0  0  0  0  0  0  0  0  0  0  0  0
   -2.8579   -6.6001    0.0000 C   0  0  0  0  0  0  0  0  0  0  0  0
   -2.1434   -7.0126    0.0000 C   0  0  0  0  0  0  0  0  0  0  0  0
  1 14  2  0
  2 24  1  0
  2 30  1  0
  3 21  1  0
  4 21  2  0
  5 14  1  0
  6  5  1  0
  6  7  1  1
  6  8  1  0
  7 15  1  0
  8 16  1  0
  9 10  1  0
  9 11  1  0
 10 12  1  0
 11 13  1  0
 12 14  1  0
 13 17  1  0
 15 21  1  0
 16 18  2  0
 16 19  1  0
 17 20  1  0
 18 22  1  0
 19 23  2  0
 20 25  2  0
 20 26  1  0
 22 24  2  0
 23 24  1  0
 25 27  1  0
 26 28  2  0
 27 29  2  0
 28 29  1  0
 30 31  1  0
 31 32  2  0
 31 33  1  0
 32 34  1  0
 33 35  2  0
 34 36  2  0
 35 36  1  0
M  END
>  <DRUGBANK_ID>  (1) 
DB04287

>  <SECONDARY_ACCESSION_NUMBERS>  (1) 
EXPT00701

>  <COMMON_NAME>  (1) 
KH064

>  <CAS_NUMBER>  (1) 
393569-31-8

>  <SYNONYMS>  (1) 
(S)-5-(4-Benzyloxy-phenyl)-4-(7-phenyl-heptanoylamino)-pentanoic acid; 5-(4-Benzyloxyphenyl)-4S-(7-phenylheptanoylamino)pentanoic acid

$$$$
