
     RDKit          2D

 27 29  0  0  0  0  0  0  0  0999 V2000
   -3.6215   -0.4373    0.0000 C   0  0  0  0  0  0  0  0  0  0  0  0
   -2.9069   -0.0248    0.0000 C   0  0  0  0  0  0  0  0  0  0  0  0
   -2.9069    0.8001    0.0000 C   0  0  0  0  0  0  0  0  0  0  0  0
   -2.1925    1.2126    0.0000 C   0  0  0  0  0  0  0  0  0  0  0  0
   -1.4780    0.8001    0.0000 C   0  0  0  0  0  0  0  0  0  0  0  0
   -1.4780   -0.0248    0.0000 C   0  0  0  0  0  0  0  0  0  0  0  0
   -2.1925   -0.4373    0.0000 C   0  0  0  0  0  0  0  0  0  0  0  0
   -3.6215   -1.2624    0.0000 O   0  0  0  0  0  0  0  0  0  0  0  0
   -4.3359   -0.0248    0.0000 O   0  0  0  0  0  0  0  0  0  0  0  0
   -0.7635    1.2126    0.0000 C   0  0  0  0  0  0  0  0  0  0  0  0
   -0.0490    0.8001    0.0000 C   0  0  0  0  0  0  0  0  0  0  0  0
    0.6654    1.2126    0.0000 C   0  0  0  0  0  0  0  0  0  0  0  0
    1.3799   -0.0248    0.0000 C   0  0  0  0  0  0  0  0  0  0  0  0
    1.3799    0.8001    0.0000 C   0  0  0  0  0  0  0  0  0  0  0  0
    2.0945    1.2126    0.0000 C   0  0  0  0  0  0  0  0  0  0  0  0
    2.8089    0.8001    0.0000 C   0  0  0  0  0  0  0  0  0  0  0  0
    2.8089   -0.0248    0.0000 C   0  0  0  0  0  0  0  0  0  0  0  0
    3.5235   -0.4373    0.0000 C   0  0  0  0  0  0  0  0  0  0  0  0
    3.5235   -1.2624    0.0000 C   0  0  0  0  0  0  0  0  0  0  0  0
    2.8089   -1.6749    0.0000 C   0  0  0  0  0  0  0  0  0  0  0  0
    2.0945   -1.2624    0.0000 C   0  0  0  0  0  0  0  0  0  0  0  0
    2.0945   -0.4373    0.0000 C   0  0  0  0  0  0  0  0  0  0  0  0
    1.8122   -2.0377    0.0000 C   0  0  0  0  0  0  0  0  0  0  0  0
    1.2819   -1.1191    0.0000 C   0  0  0  0  0  0  0  0  0  0  0  0
    3.8056    0.3378    0.0000 C   0  0  0  0  0  0  0  0  0  0  0  0
    4.3359   -0.5806    0.0000 C   0  0  0  0  0  0  0  0  0  0  0  0
    0.6654    2.0377    0.0000 O   0  0  0  0  0  0  0  0  0  0  0  0
  1  2  1  0
  1  8  2  0
  1  9  1  0
  2  3  2  0
  2  7  1  0
  3  4  1  0
  4  5  2  0
  5  6  1  0
  5 10  1  0
  6  7  2  0
 10 11  2  0
 11 12  1  0
 12 14  1  0
 12 27  2  0
 13 14  2  0
 13 22  1  0
 14 15  1  0
 15 16  2  0
 16 17  1  0
 17 18  1  0
 17 22  2  0
 18 19  1  0
 18 25  1  0
 18 26  1  0
 19 20  1  0
 20 21  1  0
 21 22  1  0
 21 23  1  0
 21 24  1  0
M  END
>  <DRUGBANK_ID>  (1) 
DB02466

>  <SECONDARY_ACCESSION_NUMBERS>  (1) 
EXPT00042

>  <COMMON_NAME>  (1) 
BMS-181156

>  <CAS_NUMBER>  (1) 
110368-35-9

>  <UNII>  (1) 
C9FL8WH6S4

>  <SYNONYMS>  (1) 
(E)-4-(3-Oxo-3-(5,6,7,8-tetrahydro-5,5,8,8-tetramethyl-2-naphthalenyl)-1-propenyl)benzoic acid

$$$$
