78P
     RDKit          2D

 18 20  0  0  0  0  0  0  0  0999 V2000
    1.2549    0.2312    0.0000 C   0  0  0  0  0  0  0  0  0  0  0  0
    1.9694    0.6437    0.0000 C   0  0  0  0  0  0  0  0  0  0  0  0
    2.6838    0.2312    0.0000 C   0  0  0  0  0  0  0  0  0  0  0  0
   -0.0147   -0.1813    0.0000 C   0  0  0  0  0  0  0  0  0  0  0  0
    1.9694    1.4687    0.0000 C   0  0  0  0  0  0  0  0  0  0  0  0
   -0.8397   -0.1813    0.0000 C   0  0  0  0  0  0  0  0  0  0  0  0
   -2.1482   -0.4451    0.0000 C   0  0  0  0  0  0  0  0  0  0  0  0
   -0.9345   -1.0008    0.0000 C   0  0  0  0  0  0  0  0  0  0  0  0
    2.6838   -0.5938    0.0000 C   0  0  0  0  0  0  0  0  0  0  0  0
    1.9694   -1.0063    0.0000 C   0  0  0  0  0  0  0  0  0  0  0  0
    1.2549   -0.5938    0.0000 C   0  0  0  0  0  0  0  0  0  0  0  0
    0.4703   -0.8487    0.0000 N   0  0  0  0  0  0  0  0  0  0  0  0
    0.4703    0.4861    0.0000 N   0  0  0  0  0  0  0  0  0  0  0  0
    1.2549    1.8812    0.0000 N   0  0  0  0  0  0  0  0  0  0  0  0
    2.6838    1.8812    0.0000 O   0  0  0  0  0  0  0  0  0  0  0  0
   -1.5898    0.1621    0.0000 N   0  0  0  0  0  0  0  0  0  0  0  0
   -1.7432   -1.1639    0.0000 C   0  0  0  0  0  0  0  0  0  0  0  0
   -0.4123    0.5244    0.0000 C   0  0  0  0  0  0  0  0  0  0  0  0
  1  2  2  0
  2  3  1  0
  2  5  1  0
  4 13  1  0
  5 15  2  0
  6  8  1  0
  6 16  1  0
  6  4  1  0
  6 18  1  6
  7 17  1  0
  8 17  1  0
  9  3  2  0
 10  9  1  0
 11 10  2  0
 11  1  1  0
 12  4  2  0
 12 11  1  0
 13  1  1  0
 14  5  1  0
 16  7  1  0
M  END
>  <DRUGBANK_ID>  (1) 
DB07232

>  <COMMON_NAME>  (1) 
Veliparib

>  <CAS_NUMBER>  (1) 
912444-00-9

>  <UNII>  (1) 
01O4K0631N

>  <SYNONYMS>  (1) 
(2R)-2-(7-carbamoyl-1H-benzimidazol-2-yl)-2-methylpyrrolidinium; 2-((2R)-2-methylpyrrolidin-2-yl)-1H-benzimidazole-4-carboxamide; 2-[(R)-2-methylpyrrolidin-2-yl]-1H-benzimadazole-4-carboxamide; Veliparib

$$$$
