PM4
     RDKit          2D

 28 27  0  0  0  0  0  0  0  0999 V2000
   -6.3756   -0.2730    0.0000 O   0  0  0  0  0  0  0  0  0  0  0  0
   -5.6890    0.1844    0.0000 P   0  0  0  0  0  0  0  0  0  0  0  0
   -5.7419    1.0077    0.0000 O   0  0  0  0  0  0  0  0  0  0  0  0
   -4.9496   -0.1816    0.0000 O   0  0  0  0  0  0  0  0  0  0  0  0
   -4.2630    0.2758    0.0000 C   0  0  0  0  0  0  0  0  0  0  0  0
   -3.5236   -0.0901    0.0000 C   0  0  0  0  0  0  0  0  0  0  0  0
   -3.8895   -0.8295    0.0000 C   0  0  0  0  0  0  0  0  0  0  0  0
   -3.1577    0.6493    0.0000 C   0  0  0  0  0  0  0  0  0  0  0  0
   -2.7842   -0.4560    0.0000 C   0  0  0  0  0  0  0  0  0  0  0  0
   -2.7314   -1.2793    0.0000 O   0  0  0  0  0  0  0  0  0  0  0  0
   -2.0976    0.0014    0.0000 C   0  0  0  0  0  0  0  0  0  0  0  0
   -2.1504    0.8247    0.0000 O   0  0  0  0  0  0  0  0  0  0  0  0
   -1.3582   -0.3645    0.0000 N   0  0  0  0  0  0  0  0  0  0  0  0
   -0.6716    0.0929    0.0000 C   0  0  0  0  0  0  0  0  0  0  0  0
    0.0678   -0.2730    0.0000 C   0  0  0  0  0  0  0  0  0  0  0  0
    0.7544    0.1844    0.0000 C   0  0  0  0  0  0  0  0  0  0  0  0
    0.7016    1.0077    0.0000 O   0  0  0  0  0  0  0  0  0  0  0  0
    1.4938   -0.1816    0.0000 N   0  0  0  0  0  0  0  0  0  0  0  0
    2.1804    0.2758    0.0000 C   0  0  0  0  0  0  0  0  0  0  0  0
    2.9198   -0.0901    0.0000 C   0  0  0  0  0  0  0  0  0  0  0  0
    3.6064    0.3673    0.0000 S   0  0  0  0  0  0  0  0  0  0  0  0
    4.3458    0.0014    0.0000 C   0  0  0  0  0  0  0  0  0  0  0  0
    4.3987   -0.8219    0.0000 O   0  0  0  0  0  0  0  0  0  0  0  0
    5.0324    0.4588    0.0000 C   0  0  0  0  0  0  0  0  0  0  0  0
    5.7719    0.0929    0.0000 C   0  0  0  0  0  0  0  0  0  0  0  0
    6.4584    0.5503    0.0000 C   0  0  0  0  0  0  0  0  0  0  0  0
    7.1979    0.1844    0.0000 C   0  0  0  0  0  0  0  0  0  0  0  0
    7.8845    0.6418    0.0000 C   0  0  0  0  0  0  0  0  0  0  0  0
  2  1  1  6
  2  3  2  0
  2  4  1  0
  4  5  1  0
  5  6  1  0
  6  7  1  0
  6  8  1  0
  6  9  1  0
  9 10  1  6
  9 11  1  0
 11 12  2  0
 11 13  1  0
 13 14  1  0
 14 15  1  0
 15 16  1  0
 16 17  2  0
 16 18  1  0
 18 19  1  0
 19 20  1  0
 20 21  1  0
 21 22  1  0
 22 23  2  0
 22 24  1  0
 24 25  1  0
 25 26  1  0
 26 27  1  0
 27 28  1  0
M  END
>  <DRUGBANK_ID>  (1) 
DB08404

>  <COMMON_NAME>  (1) 
S-(2-{[N-(2-HYDROXY-4-{[HYDROXY(OXIDO)PHOSPHINO]OXY}-3,3-DIMETHYLBUTANOYL)-BETA-ALANYL]AMINO}ETHYL) HEXANETHIOATE

$$$$
