LIB
     RDKit          2D

 32 34  0  0  0  0  0  0  0  0999 V2000
    0.2618   -0.5855    0.0000 N   0  0  0  0  0  0  0  0  0  0  0  0
    0.2618    1.8895    0.0000 C   0  0  0  0  0  0  0  0  0  0  0  0
   -0.4526    0.6520    0.0000 C   0  0  0  0  0  0  0  0  0  0  0  0
    0.9763    0.6520    0.0000 C   0  0  0  0  0  0  0  0  0  0  0  0
    0.9763    1.4770    0.0000 C   0  0  0  0  0  0  0  0  0  0  0  0
   -0.4526    1.4770    0.0000 C   0  0  0  0  0  0  0  0  0  0  0  0
    2.4052   -0.9980    0.0000 C   0  0  0  0  0  0  0  0  0  0  0  0
    3.8342   -1.8230    0.0000 C   0  0  0  0  0  0  0  0  0  0  0  0
    3.1197   -0.5855    0.0000 C   0  0  0  0  0  0  0  0  0  0  0  0
    3.1197   -2.2355    0.0000 C   0  0  0  0  0  0  0  0  0  0  0  0
    3.1197    0.2395    0.0000 Cl  0  0  0  0  0  0  0  0  0  0  0  0
    3.8342   -0.9980    0.0000 C   0  0  0  0  0  0  0  0  0  0  0  0
    2.4052   -1.8230    0.0000 C   0  0  0  0  0  0  0  0  0  0  0  0
    1.6908   -0.5855    0.0000 N   0  0  0  0  0  0  0  0  0  0  0  0
    0.9763   -0.9980    0.0000 C   0  0  0  0  0  0  0  0  0  0  0  0
    0.9763   -1.8230    0.0000 O   0  0  0  0  0  0  0  0  0  0  0  0
    0.2618    0.2395    0.0000 C   0  0  0  0  0  0  0  0  0  0  0  0
    0.2618    2.7145    0.0000 O   0  0  0  0  0  0  0  0  0  0  0  0
   -0.4526    3.1270    0.0000 C   0  0  0  0  0  0  0  0  0  0  0  0
   -0.4526   -0.9980    0.0000 C   0  0  0  0  0  0  0  0  0  0  0  0
   -0.4526   -1.8230    0.0000 C   0  0  0  0  0  0  0  0  0  0  0  0
   -1.1671   -2.2355    0.0000 C   0  0  0  0  0  0  0  0  0  0  0  0
   -1.8816   -1.8230    0.0000 N   0  0  0  0  0  0  0  0  0  0  0  0
   -1.8816   -0.9980    0.0000 C   0  0  0  0  0  0  0  0  0  0  0  0
   -1.1671   -0.5855    0.0000 N   0  0  0  0  0  0  0  0  0  0  0  0
   -2.5961   -0.5855    0.0000 N   0  0  0  0  0  0  0  0  0  0  0  0
   -2.5961    0.2395    0.0000 C   0  0  0  0  0  0  0  0  0  0  0  0
   -1.8816    0.6520    0.0000 C   0  0  0  0  0  0  0  0  0  0  0  0
   -3.3105    0.6520    0.0000 C   0  0  0  0  0  0  0  0  0  0  0  0
   -4.0250    1.0645    0.0000 C   0  0  0  0  0  0  0  0  0  0  0  0
   -2.8980    1.3664    0.0000 C   0  0  0  0  0  0  0  0  0  0  0  0
   -3.7230   -0.0625    0.0000 O   0  0  0  0  0  0  0  0  0  0  0  0
  1 15  1  0
  1 17  1  0
  1 20  1  0
  2  5  2  0
  2  6  1  0
  2 18  1  0
  3  6  2  0
  3 17  1  0
  4  5  1  0
  4 17  2  0
  7  9  1  0
  7 13  2  0
  7 14  1  0
  8 10  2  0
  8 12  1  0
  9 11  1  0
  9 12  2  0
 10 13  1  0
 14 15  1  0
 15 16  2  0
 18 19  1  0
 20 21  2  0
 20 25  1  0
 21 22  1  0
 22 23  2  0
 23 24  1  0
 24 25  2  0
 24 26  1  0
 26 27  1  0
 27 28  1  6
 27 29  1  0
 29 30  1  0
 29 31  1  0
 29 32  1  0
M  END
>  <DRUGBANK_ID>  (1) 
DB08095

>  <COMMON_NAME>  (1) 
3-(2-CHLOROPHENYL)-1-(2-{[(1S)-2-HYDROXY-1,2-DIMETHYLPROPYL]AMINO}PYRIMIDIN-4-YL)-1-(4-METHOXYPHENYL)UREA

$$$$
