
     RDKit          2D

 23 25  0  0  0  0  0  0  0  0999 V2000
   -2.9556    4.3885    0.0000 C   0  0  0  0  0  0  0  0  0  0  0  0
   -3.2106    3.6039    0.0000 C   0  0  0  0  0  0  0  0  0  0  0  0
   -2.6586    2.9908    0.0000 O   0  0  0  0  0  0  0  0  0  0  0  0
   -2.9135    2.2062    0.0000 C   0  0  0  0  0  0  0  0  0  0  0  0
   -3.7205    2.0347    0.0000 O   0  0  0  0  0  0  0  0  0  0  0  0
   -2.3615    1.5931    0.0000 C   0  0  0  0  0  0  0  0  0  0  0  0
   -2.5330    0.7861    0.0000 C   0  0  0  0  0  0  0  0  0  0  0  0
   -3.2867    0.4506    0.0000 C   0  0  0  0  0  0  0  0  0  0  0  0
   -1.8185    0.3736    0.0000 N   0  0  0  0  0  0  0  0  0  0  0  0
   -1.2054    0.9256    0.0000 C   0  0  0  0  0  0  0  0  0  0  0  0
   -0.3984    0.7541    0.0000 C   0  0  0  0  0  0  0  0  0  0  0  0
   -0.1435   -0.0305    0.0000 C   0  0  0  0  0  0  0  0  0  0  0  0
   -0.6284   -0.6979    0.0000 C   0  0  0  0  0  0  0  0  0  0  0  0
   -1.4534   -0.6979    0.0000 O   0  0  0  0  0  0  0  0  0  0  0  0
   -0.1435   -1.3654    0.0000 N   0  0  0  0  0  0  0  0  0  0  0  0
    0.6411   -1.1104    0.0000 C   0  0  0  0  0  0  0  0  0  0  0  0
    0.6411   -0.2854    0.0000 C   0  0  0  0  0  0  0  0  0  0  0  0
    1.3556    0.1271    0.0000 C   0  0  0  0  0  0  0  0  0  0  0  0
    2.0701   -0.2854    0.0000 C   0  0  0  0  0  0  0  0  0  0  0  0
    2.0701   -1.1104    0.0000 C   0  0  0  0  0  0  0  0  0  0  0  0
    1.3556   -1.5229    0.0000 C   0  0  0  0  0  0  0  0  0  0  0  0
   -1.5410    1.6793    0.0000 C   0  0  0  0  0  0  0  0  0  0  0  0
   -1.1285    2.3938    0.0000 C   0  0  0  0  0  0  0  0  0  0  0  0
  1  2  1  0
  2  3  1  0
  3  4  1  0
  4  5  2  0
  4  6  1  0
  6  7  2  0
  6 22  1  0
  7  8  1  0
  7  9  1  0
  9 10  1  0
 10 11  1  0
 10 22  2  0
 11 12  2  0
 12 13  1  0
 12 17  1  0
 13 14  2  0
 13 15  1  0
 15 16  1  0
 16 17  2  0
 16 21  1  0
 17 18  1  0
 18 19  2  0
 19 20  1  0
 20 21  2  0
 22 23  1  0
M  END
>  <DRUGBANK_ID>  (1) 
DB17061

>  <COMMON_NAME>  (1) 
VEGFR 2 Kinase inhibitor I

>  <CAS_NUMBER>  (1) 
15966-93-5

>  <UNII>  (1) 
U07H877HUF

>  <SYNONYMS>  (1) 
3-(2,4-dimethyl-3-ethoxycarbonylpyrrol-5-methylidenyl)-2-indolinone; Ethyl 2,4-dimethyl-5-(((3z)-2-oxo-2,3-dihydro-1h-indol-3-ylidene)methyl)-1h-pyrrole-3-carboxylate; Vegf receptor 2 kinase inhibitor i; Vegfr-2 inhi

$$$$
