
     RDKit          2D

 33 35  0  0  1  0  0  0  0  0999 V2000
    0.3302   -3.7644    0.0000 C   0  0  0  0  0  0  0  0  0  0  0  0
    1.1054   -3.4822    0.0000 C   0  0  0  0  0  0  0  0  0  0  0  0
    1.2487   -2.6697    0.0000 C   0  0  0  0  0  0  0  0  0  0  0  0
    0.6167   -2.1394    0.0000 C   0  0  0  0  0  0  0  0  0  0  0  0
    0.7599   -1.3270    0.0000 C   0  0  0  0  0  0  0  0  0  0  0  0
    1.5352   -1.0448    0.0000 C   0  0  0  0  0  0  0  0  0  0  0  0
    2.1672   -1.5751    0.0000 C   0  0  0  0  0  0  0  0  0  0  0  0
    2.0239   -2.3876    0.0000 C   0  0  0  0  0  0  0  0  0  0  0  0
    2.6559   -2.9179    0.0000 F   0  0  0  0  0  0  0  0  0  0  0  0
    1.6784   -0.2323    0.0000 C   0  0  0  0  0  0  0  0  0  0  0  0
    1.0465    0.2980    0.0000 C   0  0  0  0  0  0  0  0  0  0  0  0
    1.1897    1.1104    0.0000 C   0  0  0  0  0  0  0  0  0  0  0  0
    1.9650    1.3926    0.0000 C   0  0  0  0  0  0  0  0  0  0  0  0
    2.5970    0.8623    0.0000 C   0  0  0  0  0  0  0  0  0  0  0  0
    2.4537    0.0498    0.0000 C   0  0  0  0  0  0  0  0  0  0  0  0
    3.0857   -0.4805    0.0000 C   0  0  0  0  0  0  0  0  0  0  0  0
    2.9424   -1.2929    0.0000 O   0  0  0  0  0  0  0  0  0  0  0  0
    3.8609   -0.1983    0.0000 O   0  0  0  0  0  0  0  0  0  0  0  0
    4.4929   -0.7286    0.0000 C   0  0  0  0  0  0  0  0  0  0  0  0
    3.3722    1.1445    0.0000 Cl  0  0  0  0  0  0  0  0  0  0  0  0
    1.7374   -4.0125    0.0000 N   0  0  0  0  0  0  0  0  0  0  0  0
    1.5941   -4.8250    0.0000 C   0  0  0  0  0  0  0  0  0  0  0  0
    0.8189   -5.1071    0.0000 O   0  0  0  0  0  0  0  0  0  0  0  0
    2.2261   -5.3553    0.0000 C   0  0  0  0  0  0  0  0  0  0  0  0
    2.6386   -6.0697    0.0000 C   0  0  0  0  0  0  0  0  0  0  0  0
    1.8136   -6.0697    0.0000 C   0  0  0  0  0  0  0  0  0  0  0  0
    2.8581   -4.8250    0.0000 N   0  0  0  0  0  0  0  0  0  0  0  0
    3.6334   -5.1071    0.0000 C   0  0  0  0  0  0  0  0  0  0  0  0
    3.7766   -5.9196    0.0000 O   0  0  0  0  0  0  0  0  0  0  0  0
    4.2653   -4.5768    0.0000 C   0  0  0  0  0  0  0  0  0  0  0  0
    4.8973   -4.0465    0.0000 F   0  0  0  0  0  0  0  0  0  0  0  0
    4.7956   -5.2088    0.0000 F   0  0  0  0  0  0  0  0  0  0  0  0
    3.7350   -3.9448    0.0000 F   0  0  0  0  0  0  0  0  0  0  0  0
  2  1  1  6
  2  3  1  0
  2 21  1  0
  3  4  2  0
  3  8  1  0
  4  5  1  0
  5  6  2  0
  6  7  1  0
  6 10  1  0
  7  8  2  0
  8  9  1  0
 10 11  2  0
 10 15  1  0
 11 12  1  0
 12 13  2  0
 13 14  1  0
 14 15  2  0
 14 20  1  0
 15 16  1  0
 16 17  2  0
 16 18  1  0
 18 19  1  0
 21 22  1  0
 22 23  2  0
 22 24  1  0
 24 25  1  0
 24 26  1  0
 24 27  1  0
 25 26  1  0
 27 28  1  0
 28 29  2  0
 28 30  1  0
 30 31  1  0
 30 32  1  0
 30 33  1  0
M  END
>  <DRUGBANK_ID>  (1) 
DB12563

>  <COMMON_NAME>  (1) 
MK-0686

>  <CAS_NUMBER>  (1) 
578727-68-1

>  <UNII>  (1) 
M310323W0U

$$$$
