
     RDKit          2D

 31 33  0  0  1  0  0  0  0  0999 V2000
   -0.5683   -1.4940    0.0000 C   0  0  0  0  0  0  0  0  0  0  0  0
   -4.1642   -1.4572    0.0000 C   0  0  0  0  0  0  0  0  0  0  0  0
    3.3523    1.1104    0.0000 C   0  0  0  0  0  0  0  0  0  0  0  0
    0.6538    1.5229    0.0000 C   0  0  0  0  0  0  0  0  0  0  0  0
    0.0992   -1.0091    0.0000 C   0  0  0  0  0  0  0  0  0  0  0  0
    1.9233    1.9354    0.0000 C   0  0  0  0  0  0  0  0  0  0  0  0
    0.8838   -1.2640    0.0000 C   0  0  0  0  0  0  0  0  0  0  0  0
    1.3687   -0.5966    0.0000 C   0  0  0  0  0  0  0  0  0  0  0  0
    2.6378    2.3479    0.0000 C   0  0  0  0  0  0  0  0  0  0  0  0
    1.9233    1.1104    0.0000 C   0  0  0  0  0  0  0  0  0  0  0  0
    0.8838    0.0709    0.0000 C   0  0  0  0  0  0  0  0  0  0  0  0
   -4.8316   -1.9421    0.0000 As  0  0  0  0  0  5  0  0  0  0  0  0
    2.6378    3.1729    0.0000 N   0  0  0  0  0  0  0  0  0  0  0  0
    3.3523    1.9354    0.0000 N   0  0  0  0  0  0  0  0  0  0  0  0
    2.6378    0.6979    0.0000 N   0  0  0  0  0  0  0  0  0  0  0  0
    1.1387    2.1904    0.0000 N   0  0  0  0  0  0  0  0  0  0  0  0
    1.1387    0.8555    0.0000 N   0  0  0  0  0  0  0  0  0  0  0  0
    1.1387   -2.0486    0.0000 O   0  0  0  0  0  0  0  0  0  0  0  0
    2.1937   -0.5966    0.0000 O   0  0  0  0  0  0  0  0  0  0  0  0
   -5.4991   -2.4270    0.0000 O   0  0  0  0  0  0  0  0  0  0  0  0
   -5.3165   -1.2746    0.0000 O   0  0  0  0  0  0  0  0  0  0  0  0
   -4.3467   -2.6095    0.0000 O   0  0  0  0  0  0  0  0  0  0  0  0
   -3.0749   -1.0390    0.0000 O   0  0  0  0  0  0  0  0  0  0  0  0
   -3.7461   -2.5464    0.0000 O   0  0  0  0  0  0  0  0  0  0  0  0
   -2.4743   -0.9759    0.0000 O   0  0  0  0  0  0  0  0  0  0  0  0
   -1.5045   -2.3108    0.0000 O   0  0  0  0  0  0  0  0  0  0  0  0
   -1.3220   -1.1584    0.0000 O   0  0  0  0  0  0  0  0  0  0  0  0
    0.0992   -0.1841    0.0000 O   0  0  0  0  0  0  0  0  0  0  0  0
   -2.6568   -2.1283    0.0000 O   0  0  0  0  0  0  0  0  0  0  0  0
   -3.4105   -1.7927    0.0000 P   0  0  0  0  0  0  0  0  0  0  0  0
   -1.9894   -1.6433    0.0000 P   0  0  0  0  0  0  0  0  0  0  0  0
  5  1  1  1
  7  5  1  0
  7 18  1  6
  8  7  1  0
  8 19  1  6
  9  6  2  0
 10  6  1  0
 11  8  1  0
 11 17  1  1
 12  2  1  0
 13  9  1  0
 14  3  2  0
 14  9  1  0
 15  3  1  0
 15 10  2  0
 16  4  2  0
 16  6  1  0
 17  4  1  0
 17 10  1  0
 20 12  1  0
 21 12  1  0
 22 12  2  0
 27  1  1  0
 28  5  1  0
 28 11  1  0
 30  2  1  0
 30 23  1  0
 30 24  2  0
 30 29  1  0
 31 25  1  0
 31 26  2  0
 31 27  1  0
 31 29  1  0
M  END
>  <DRUGBANK_ID>  (1) 
DB02937

>  <SECONDARY_ACCESSION_NUMBERS>  (1) 
EXPT00589

>  <COMMON_NAME>  (1) 
Gamma-Arsono-Beta, Gamma-Methyleneadenosine-5'-Diphosphate

$$$$
