
     RDKit          2D

 31 34  0  0  0  0  0  0  0  0999 V2000
    0.1067   -1.7116    0.0000 N   0  0  0  0  0  0  0  0  0  0  0  0
    0.1067   -2.5366    0.0000 C   0  0  0  0  0  0  0  0  0  0  0  0
    0.7741   -3.0215    0.0000 C   0  0  0  0  0  0  0  0  0  0  0  0
    0.5192   -3.8062    0.0000 C   0  0  0  0  0  0  0  0  0  0  0  0
   -0.3058   -3.8062    0.0000 N   0  0  0  0  0  0  0  0  0  0  0  0
   -0.5607   -3.0215    0.0000 N   0  0  0  0  0  0  0  0  0  0  0  0
    1.5588   -2.7666    0.0000 C   0  0  0  0  0  0  0  0  0  0  0  0
    2.1719   -3.3186    0.0000 C   0  0  0  0  0  0  0  0  0  0  0  0
    2.9565   -3.0637    0.0000 C   0  0  0  0  0  0  0  0  0  0  0  0
    3.5696   -3.6157    0.0000 Cl  0  0  0  0  0  0  0  0  0  0  0  0
    3.1280   -2.2567    0.0000 C   0  0  0  0  0  0  0  0  0  0  0  0
    2.5149   -1.7047    0.0000 C   0  0  0  0  0  0  0  0  0  0  0  0
    1.7303   -1.9596    0.0000 C   0  0  0  0  0  0  0  0  0  0  0  0
    1.1172   -1.4076    0.0000 O   0  0  0  0  0  0  0  0  0  0  0  0
    1.2887   -0.6006    0.0000 C   0  0  0  0  0  0  0  0  0  0  0  0
    0.6756   -0.0486    0.0000 C   0  0  0  0  0  0  0  0  0  0  0  0
    0.8472    0.7584    0.0000 C   0  0  0  0  0  0  0  0  0  0  0  0
    0.2341    1.3104    0.0000 F   0  0  0  0  0  0  0  0  0  0  0  0
    1.6318    1.0133    0.0000 C   0  0  0  0  0  0  0  0  0  0  0  0
    2.2449    0.4613    0.0000 C   0  0  0  0  0  0  0  0  0  0  0  0
    2.0733   -0.3457    0.0000 C   0  0  0  0  0  0  0  0  0  0  0  0
    2.6864   -0.8977    0.0000 Cl  0  0  0  0  0  0  0  0  0  0  0  0
    1.8033    1.8203    0.0000 S   0  0  0  0  0  0  0  0  0  0  0  0
    2.6103    1.6488    0.0000 O   0  0  0  0  0  0  0  0  0  0  0  0
    0.9963    1.9918    0.0000 O   0  0  0  0  0  0  0  0  0  0  0  0
    1.9748    2.6273    0.0000 N   0  0  0  0  0  0  0  0  0  0  0  0
    2.7595    2.8822    0.0000 C   0  0  0  0  0  0  0  0  0  0  0  0
    3.0144    3.6668    0.0000 C   0  0  0  0  0  0  0  0  0  0  0  0
    3.8394    3.6668    0.0000 S   0  0  0  0  0  0  0  0  0  0  0  0
    4.0943    2.8822    0.0000 C   0  0  0  0  0  0  0  0  0  0  0  0
    3.4269    2.3973    0.0000 N   0  0  0  0  0  0  0  0  0  0  0  0
  1  2  1  0
  2  3  2  0
  2  6  1  0
  3  4  1  0
  3  7  1  0
  4  5  2  0
  5  6  1  0
  7  8  2  0
  7 13  1  0
  8  9  1  0
  9 10  1  0
  9 11  2  0
 11 12  1  0
 12 13  2  0
 13 14  1  0
 14 15  1  0
 15 16  2  0
 15 21  1  0
 16 17  1  0
 17 18  1  0
 17 19  2  0
 19 20  1  0
 19 23  1  0
 20 21  2  0
 21 22  1  0
 23 24  2  0
 23 25  2  0
 23 26  1  0
 26 27  1  0
 27 28  2  0
 27 31  1  0
 28 29  1  0
 29 30  1  0
 30 31  2  0
M  END
>  <DRUGBANK_ID>  (1) 
DB14856

>  <COMMON_NAME>  (1) 
PF-05089771

>  <CAS_NUMBER>  (1) 
1235403-62-9

>  <UNII>  (1) 
25U4N985O2

$$$$
