
     RDKit          2D

 30 33  0  0  0  0  0  0  0  0999 V2000
   -1.1129    1.8562    0.0000 C   0  0  0  0  0  0  0  0  0  0  0  0
   -0.3985    1.4437    0.0000 N   0  0  0  0  0  0  0  0  0  0  0  0
   -1.1129    2.6812    0.0000 C   0  0  0  0  0  0  0  0  0  0  0  0
   -1.8274    1.4437    0.0000 C   0  0  0  0  0  0  0  0  0  0  0  0
    0.3160    1.8562    0.0000 C   0  0  0  0  0  0  0  0  0  0  0  0
   -0.3984    0.6187    0.0000 C   0  0  0  0  0  0  0  0  0  0  0  0
   -0.3985    3.0937    0.0000 S   0  0  0  0  0  0  0  0  0  0  0  0
   -1.8274    3.0937    0.0000 C   0  0  0  0  0  0  0  0  0  0  0  0
   -2.5419    1.8562    0.0000 C   0  0  0  0  0  0  0  0  0  0  0  0
    0.3160    2.6813    0.0000 C   0  0  0  0  0  0  0  0  0  0  0  0
    1.0304    1.4437    0.0000 C   0  0  0  0  0  0  0  0  0  0  0  0
    0.3160    0.2062    0.0000 C   0  0  0  0  0  0  0  0  0  0  0  0
   -2.5419    2.6812    0.0000 C   0  0  0  0  0  0  0  0  0  0  0  0
   -3.2564    1.4437    0.0000 S   0  0  0  0  0  0  0  0  0  0  0  0
    1.0304    3.0938    0.0000 C   0  0  0  0  0  0  0  0  0  0  0  0
    1.7449    1.8562    0.0000 C   0  0  0  0  0  0  0  0  0  0  0  0
    0.3160   -0.6187    0.0000 C   0  0  0  0  0  0  0  0  0  0  0  0
   -3.8398    2.0270    0.0000 C   0  0  0  0  0  0  0  0  0  0  0  0
   -2.7831    0.7679    0.0000 O   0  0  0  0  0  0  0  0  0  0  0  0
   -3.8884    0.9134    0.0000 O   0  0  0  0  0  0  0  0  0  0  0  0
    1.7449    2.6813    0.0000 C   0  0  0  0  0  0  0  0  0  0  0  0
    1.0305   -1.0312    0.0000 N   0  0  0  0  0  0  0  0  0  0  0  0
    1.0305   -1.8562    0.0000 C   0  0  0  0  0  0  0  0  0  0  0  0
    1.7449   -0.6187    0.0000 C   0  0  0  0  0  0  0  0  0  0  0  0
    1.7449   -2.2687    0.0000 C   0  0  0  0  0  0  0  0  0  0  0  0
    2.4594   -1.0312    0.0000 C   0  0  0  0  0  0  0  0  0  0  0  0
    2.4595   -1.8562    0.0000 C   0  0  0  0  0  0  0  0  0  0  0  0
    3.1739   -2.2687    0.0000 C   0  0  0  0  0  0  0  0  0  0  0  0
    3.8884   -1.8562    0.0000 N   0  0  0  0  0  0  0  0  0  0  0  0
    3.1739   -3.0938    0.0000 O   0  0  0  0  0  0  0  0  0  0  0  0
  1  2  1  0
  1  3  1  0
  1  4  2  0
  2  5  1  0
  2  6  1  0
  3  7  1  0
  3  8  2  0
  4  9  1  0
  5 10  2  0
  5 11  1  0
  6 12  1  0
  7 10  1  0
  8 13  1  0
  9 14  1  0
  9 13  2  0
 10 15  1  0
 11 16  2  0
 12 17  1  0
 14 18  1  0
 14 19  2  0
 14 20  2  0
 15 21  2  0
 16 21  1  0
 17 22  1  0
 22 23  1  0
 22 24  1  0
 23 25  1  0
 24 26  1  0
 25 27  1  0
 26 27  1  0
 27 28  1  0
 28 29  1  0
 28 30  2  0
M  END
>  <DRUGBANK_ID>  (1) 
DB13591

>  <COMMON_NAME>  (1) 
Metopimazine

>  <CAS_NUMBER>  (1) 
14008-44-7

>  <UNII>  (1) 
238S75V9AV

>  <SYNONYMS>  (1) 
Metopimazina; Metopimazine; Metopimazinum

$$$$
