
     RDKit          2D

 30 34  0  0  0  0  0  0  0  0999 V2000
    4.2868   -4.1250    0.0000 F   0  0  0  0  0  0  0  0  0  0  0  0
    3.5724   -3.7125    0.0000 C   0  0  0  0  0  0  0  0  0  0  0  0
    2.8579   -4.1250    0.0000 C   0  0  0  0  0  0  0  0  0  0  0  0
    2.1434   -3.7125    0.0000 C   0  0  0  0  0  0  0  0  0  0  0  0
    2.1434   -2.8875    0.0000 C   0  0  0  0  0  0  0  0  0  0  0  0
    1.4289   -2.4750    0.0000 C   0  0  0  0  0  0  0  0  0  0  0  0
    1.4289   -1.6500    0.0000 C   0  0  0  0  0  0  0  0  0  0  0  0
    0.7145   -1.2375    0.0000 N   0  0  0  0  0  0  0  0  0  0  0  0
    0.7145   -0.4125    0.0000 N   0  0  0  0  0  0  0  0  0  0  0  0
    1.4289    0.0000    0.0000 C   0  0  0  0  0  0  0  0  0  0  0  0
    1.4289    0.8250    0.0000 O   0  0  0  0  0  0  0  0  0  0  0  0
    2.1434   -0.4125    0.0000 C   0  0  0  0  0  0  0  0  0  0  0  0
    2.8579    0.0000    0.0000 C   0  0  0  0  0  0  0  0  0  0  0  0
    3.5724   -0.4125    0.0000 C   0  0  0  0  0  0  0  0  0  0  0  0
    3.5724   -1.2375    0.0000 C   0  0  0  0  0  0  0  0  0  0  0  0
    2.8579   -1.6500    0.0000 C   0  0  0  0  0  0  0  0  0  0  0  0
    2.1434   -1.2375    0.0000 C   0  0  0  0  0  0  0  0  0  0  0  0
    2.8579   -2.4750    0.0000 C   0  0  0  0  0  0  0  0  0  0  0  0
    3.5724   -2.8875    0.0000 C   0  0  0  0  0  0  0  0  0  0  0  0
    2.8579   -4.9500    0.0000 C   0  0  0  0  0  0  0  0  0  0  0  0
    3.5724   -5.3625    0.0000 O   0  0  0  0  0  0  0  0  0  0  0  0
    2.1434   -5.3625    0.0000 N   0  0  0  0  0  0  0  0  0  0  0  0
    1.9299   -6.1594    0.0000 C   0  0  0  0  0  0  0  0  0  0  0  0
    1.1330   -5.9459    0.0000 C   0  0  0  0  0  0  0  0  0  0  0  0
    0.4185   -6.3584    0.0000 C   0  0  0  0  0  0  0  0  0  0  0  0
    0.4185   -7.1834    0.0000 N   0  0  0  0  0  0  0  0  0  0  0  0
   -0.2959   -7.5959    0.0000 C   0  0  0  0  0  0  0  0  0  0  0  0
   -0.7084   -8.3103    0.0000 C   0  0  0  0  0  0  0  0  0  0  0  0
   -1.1209   -7.5959    0.0000 C   0  0  0  0  0  0  0  0  0  0  0  0
    1.3465   -5.1490    0.0000 C   0  0  0  0  0  0  0  0  0  0  0  0
  1  2  1  0
  2  3  2  0
  2 19  1  0
  3  4  1  0
  3 20  1  0
  4  5  2  0
  5  6  1  0
  5 18  1  0
  6  7  1  0
  7  8  2  0
  7 17  1  0
  8  9  1  0
  9 10  1  0
 10 11  2  0
 10 12  1  0
 12 13  1  0
 12 17  2  0
 13 14  2  0
 14 15  1  0
 15 16  2  0
 16 17  1  0
 18 19  2  0
 20 21  2  0
 20 22  1  0
 22 23  1  0
 22 30  1  0
 23 24  1  0
 24 25  1  0
 24 30  1  0
 25 26  1  0
 26 27  1  0
 27 28  1  0
 27 29  1  0
 28 29  1  0
M  END
>  <DRUGBANK_ID>  (1) 
DB17105

>  <COMMON_NAME>  (1) 
Venadaparib

>  <CAS_NUMBER>  (1) 
1681017-83-3

>  <UNII>  (1) 
PUP792O0IW

>  <SYNONYMS>  (1) 
1(2h)-phthalazinone, 4-((3-((3-((cyclopropylamino)methyl)-1-azetidinyl)carbonyl)-4-fluorophenyl)methyl)-; 4-((3-((3-((cyclopropylamino)methyl)-1-azetidinyl)carbonyl)-4-fluorophenyl)methyl)-1(2h)-phthalazinone

$$$$
