
     RDKit          2D

 11 12  0  0  0  0  0  0  0  0999 V2000
   -0.1075    0.4991    0.0000 C   0  0  0  0  0  0  0  0  0  0  0  0
    0.6694    0.2205    0.0000 C   0  0  0  0  0  0  0  0  0  0  0  0
    1.3842   -0.1857    0.0000 C   0  0  0  0  0  0  0  0  0  0  0  0
    1.0117    0.9712    0.0000 C   0  0  0  0  0  0  0  0  0  0  0  0
    0.1997   -0.4539    0.0000 C   0  0  0  0  0  0  0  0  0  0  0  0
   -0.5724   -0.1751    0.0000 C   0  0  0  0  0  0  0  0  0  0  0  0
   -0.6428   -0.9998    0.0000 C   0  0  0  0  0  0  0  0  0  0  0  0
   -1.3842   -0.3258    0.0000 C   0  0  0  0  0  0  0  0  0  0  0  0
   -0.9144    0.3535    0.0000 C   0  0  0  0  0  0  0  0  0  0  0  0
   -0.4576    1.2412    0.0000 C   0  0  0  0  0  0  0  0  0  0  0  0
    0.4486   -1.2412    0.0000 O   0  0  0  0  0  0  0  0  0  0  0  0
  1  2  1  0
  1  9  1  1
  1 10  1  0
  2  3  1  0
  2  4  1  0
  2  5  1  0
  5  6  1  0
  5 11  2  0
  6  7  1  1
  6  8  1  0
  6 10  1  0
  9  8  1  0
M  END
>  <DRUGBANK_ID>  (1) 
DB15918

>  <COMMON_NAME>  (1) 
Fenchone

>  <CAS_NUMBER>  (1) 
1195-79-5

>  <UNII>  (1) 
4Q6W8568TG

>  <SYNONYMS>  (1) 
(+/-)-Fenchone; DL-Fenchone; Fenchon

$$$$
