
     RDKit          2D

 32 35  0  0  0  0  0  0  0  0999 V2000
    3.9641   -7.3602    0.0000 C   0  0  0  0  0  0  0  0  0  0  0  0
    3.9641   -8.1852    0.0000 N   0  0  0  0  0  0  0  0  0  0  0  0
    4.6315   -8.6701    0.0000 C   0  0  0  0  0  0  0  0  0  0  0  0
    4.3766   -9.4548    0.0000 C   0  0  0  0  0  0  0  0  0  0  0  0
    3.5516   -9.4548    0.0000 C   0  0  0  0  0  0  0  0  0  0  0  0
    3.2966   -8.6701    0.0000 N   0  0  0  0  0  0  0  0  0  0  0  0
    4.8615  -10.1222    0.0000 C   0  0  0  0  0  0  0  0  0  0  0  0
    5.6820  -10.0360    0.0000 C   0  0  0  0  0  0  0  0  0  0  0  0
    6.1669  -10.7034    0.0000 C   0  0  0  0  0  0  0  0  0  0  0  0
    5.8314  -11.4571    0.0000 C   0  0  0  0  0  0  0  0  0  0  0  0
    5.0109  -11.5433    0.0000 C   0  0  0  0  0  0  0  0  0  0  0  0
    4.5260  -10.8759    0.0000 C   0  0  0  0  0  0  0  0  0  0  0  0
    6.3163  -12.1245    0.0000 S   0  0  0  0  0  0  0  0  0  0  0  0
    5.6488  -12.6094    0.0000 O   0  0  0  0  0  0  0  0  0  0  0  0
    6.9837  -11.6396    0.0000 O   0  0  0  0  0  0  0  0  0  0  0  0
    6.8012  -12.7919    0.0000 N   0  0  0  0  0  0  0  0  0  0  0  0
    7.6262  -12.7919    0.0000 C   0  0  0  0  0  0  0  0  0  0  0  0
    7.8811  -13.5766    0.0000 C   0  0  0  0  0  0  0  0  0  0  0  0
    7.2137  -14.0615    0.0000 C   0  0  0  0  0  0  0  0  0  0  0  0
    7.2137  -14.8865    0.0000 C   0  0  0  0  0  0  0  0  0  0  0  0
    6.4992  -15.2990    0.0000 C   0  0  0  0  0  0  0  0  0  0  0  0
    6.4992  -16.1240    0.0000 C   0  0  0  0  0  0  0  0  0  0  0  0
    5.7848  -16.5365    0.0000 O   0  0  0  0  0  0  0  0  0  0  0  0
    7.2137  -16.5365    0.0000 N   0  0  0  0  0  0  0  0  0  0  0  0
    7.2137  -17.3615    0.0000 C   0  0  0  0  0  0  0  0  0  0  0  0
    7.9282  -17.7740    0.0000 C   0  0  0  0  0  0  0  0  0  0  0  0
    7.9282  -18.5990    0.0000 C   0  0  0  0  0  0  0  0  0  0  0  0
    7.2137  -19.0115    0.0000 C   0  0  0  0  0  0  0  0  0  0  0  0
    6.4992  -18.5990    0.0000 C   0  0  0  0  0  0  0  0  0  0  0  0
    6.4992  -17.7740    0.0000 C   0  0  0  0  0  0  0  0  0  0  0  0
    5.7848  -17.3615    0.0000 N   0  0  0  0  0  0  0  0  0  0  0  0
    6.5463  -13.5766    0.0000 C   0  0  0  0  0  0  0  0  0  0  0  0
  1  2  1  0
  2  3  1  0
  2  6  1  0
  3  4  2  0
  4  5  1  0
  4  7  1  0
  5  6  2  0
  7  8  2  0
  7 12  1  0
  8  9  1  0
  9 10  2  0
 10 11  1  0
 10 13  1  0
 11 12  2  0
 13 14  2  0
 13 15  2  0
 13 16  1  0
 16 17  1  0
 16 32  1  0
 17 18  2  0
 18 19  1  0
 19 20  1  0
 19 32  2  0
 20 21  2  0
 21 22  1  0
 22 23  2  0
 22 24  1  0
 24 25  1  0
 25 26  2  0
 25 30  1  0
 26 27  1  0
 27 28  2  0
 28 29  1  0
 29 30  2  0
 30 31  1  0
M  END
>  <DRUGBANK_ID>  (1) 
DB13101

>  <COMMON_NAME>  (1) 
4SC-202

>  <CAS_NUMBER>  (1) 
910462-43-0

$$$$
