
     RDKit          2D

 24 25  0  0  1  0  0  0  0  0999 V2000
   -2.7812   -1.5019    0.0000 C   0  0  0  0  0  0  0  0  0  0  0  0
   -1.9768   -3.4240    0.0000 C   0  0  0  0  0  0  0  0  0  0  0  0
   -2.1262   -4.8451    0.0000 C   0  0  0  0  0  0  0  0  0  0  0  0
   -2.7973   -3.3377    0.0000 C   0  0  0  0  0  0  0  0  0  0  0  0
   -2.9467   -4.7588    0.0000 C   0  0  0  0  0  0  0  0  0  0  0  0
   -0.6378   -1.0894    0.0000 C   0  0  0  0  0  0  0  0  0  0  0  0
   -1.3523   -1.5019    0.0000 C   0  0  0  0  0  0  0  0  0  0  0  0
   -0.8208   -4.2639    0.0000 C   0  0  0  0  0  0  0  0  0  0  0  0
    1.5287   -2.5569    0.0000 C   0  0  0  0  0  0  0  0  0  0  0  0
   -1.6413   -4.1776    0.0000 C   0  0  0  0  0  0  0  0  0  0  0  0
   -3.2822   -4.0052    0.0000 C   0  0  0  0  0  0  0  0  0  0  0  0
    0.0766   -1.5019    0.0000 C   0  0  0  0  0  0  0  0  0  0  0  0
   -0.3359   -3.5964    0.0000 C   0  0  0  0  0  0  0  0  0  0  0  0
    2.1418   -3.1089    0.0000 C   0  0  0  0  0  0  0  0  0  0  0  0
    0.0766   -2.3269    0.0000 C   0  0  0  0  0  0  0  0  0  0  0  0
    0.4891   -3.5964    0.0000 C   0  0  0  0  0  0  0  0  0  0  0  0
    0.7911   -1.0894    0.0000 N   0  0  0  0  0  0  0  0  0  0  0  0
   -0.5908   -2.8118    0.0000 N   0  0  0  0  0  0  0  0  0  0  0  0
    0.7441   -2.8118    0.0000 N   0  0  0  0  0  0  0  0  0  0  0  0
   -4.1027   -3.9189    0.0000 O   0  0  0  0  0  0  0  0  0  0  0  0
    2.9264   -2.8540    0.0000 O   0  0  0  0  0  0  0  0  0  0  0  0
    1.9703   -3.9159    0.0000 O   0  0  0  0  0  0  0  0  0  0  0  0
    0.9741   -4.2639    0.0000 O   0  0  0  0  0  0  0  0  0  0  0  0
   -2.0668   -1.0894    0.0000 S   0  0  0  0  0  0  0  0  0  0  0  0
  4  2  2  0
  5  3  1  0
  7  6  1  0
 10  2  1  0
 10  3  2  0
 10  8  1  0
 11  4  1  0
 11  5  2  0
 12  6  1  0
 12 17  1  6
 13  8  2  0
 14  9  1  0
 15 12  1  0
 16 13  1  0
 18 13  1  0
 18 15  2  0
 19  9  1  0
 19 15  1  0
 19 16  1  0
 20 11  1  0
 21 14  2  0
 22 14  1  0
 23 16  2  0
 24  1  1  0
 24  7  1  0
M  END
>  <DRUGBANK_ID>  (1) 
DB03391

>  <SECONDARY_ACCESSION_NUMBERS>  (1) 
EXPT00904

>  <COMMON_NAME>  (1) 
Chromophore (Met-Tyr-Gly)

$$$$
