LGS
     RDKit          2D

 22 23  0  0  0  0  0  0  0  0999 V2000
   -2.4449    2.5920    0.0000 O   0  0  0  0  0  0  0  0  0  0  0  0
   -2.6998    1.8073    0.0000 C   0  0  0  0  0  0  0  0  0  0  0  0
   -2.1478    1.1942    0.0000 C   0  0  0  0  0  0  0  0  0  0  0  0
   -1.3228    1.1942    0.0000 C   0  0  0  0  0  0  0  0  0  0  0  0
   -1.0678    0.4096    0.0000 O   0  0  0  0  0  0  0  0  0  0  0  0
   -3.5068    1.6358    0.0000 C   0  0  0  0  0  0  0  0  0  0  0  0
   -4.0588    2.2489    0.0000 O   0  0  0  0  0  0  0  0  0  0  0  0
   -3.7617    0.8512    0.0000 C   0  0  0  0  0  0  0  0  0  0  0  0
   -4.5687    0.6797    0.0000 O   0  0  0  0  0  0  0  0  0  0  0  0
   -3.2097    0.2381    0.0000 C   0  0  0  0  0  0  0  0  0  0  0  0
   -3.4646   -0.5465    0.0000 O   0  0  0  0  0  0  0  0  0  0  0  0
   -2.4027    0.4096    0.0000 N   0  0  0  0  0  0  0  0  0  0  0  0
   -1.7353   -0.0753    0.0000 C   0  0  0  0  0  0  0  0  0  0  0  0
   -1.7353   -0.9003    0.0000 N   0  0  0  0  0  0  0  0  0  0  0  0
   -1.0208   -1.3128    0.0000 C   0  0  0  0  0  0  0  0  0  0  0  0
   -0.3063   -0.9003    0.0000 C   0  0  0  0  0  0  0  0  0  0  0  0
    0.4082   -1.3128    0.0000 C   0  0  0  0  0  0  0  0  0  0  0  0
    1.1226   -0.9003    0.0000 C   0  0  0  0  0  0  0  0  0  0  0  0
    1.8371   -1.3128    0.0000 C   0  0  0  0  0  0  0  0  0  0  0  0
    2.5516   -0.9003    0.0000 C   0  0  0  0  0  0  0  0  0  0  0  0
    3.2660   -1.3128    0.0000 C   0  0  0  0  0  0  0  0  0  0  0  0
    3.9805   -0.9003    0.0000 C   0  0  0  0  0  0  0  0  0  0  0  0
  2  1  1  6
  2  3  1  0
  2  6  1  0
  3  4  1  1
  3 12  1  0
  4  5  1  0
  5 13  1  0
  6  7  1  1
  6  8  1  0
  8  9  1  6
  8 10  1  0
 10 11  1  1
 10 12  1  0
 12 13  1  0
 13 14  2  0
 14 15  1  0
 15 16  1  0
 16 17  1  0
 17 18  1  0
 18 19  1  0
 19 20  1  0
 20 21  1  0
 21 22  1  0
M  END
>  <DRUGBANK_ID>  (1) 
DB08090

>  <COMMON_NAME>  (1) 
(3Z,5S,6R,7S,8R,8aR)-3-(octylimino)hexahydro[1,3]oxazolo[3,4-a]pyridine-5,6,7,8-tetrol

$$$$
