
     RDKit          2D

  1  0  0  0  0  0  0  0  0  0999 V2000
    0.0000    0.0000    0.0000 Fe  0  0  0  0  0 15  0  0  0  0  0  0
M  CHG  1   1   3
M  END
>  <DRUGBANK_ID>  (1) 
DB13949

>  <COMMON_NAME>  (1) 
Ferric cation

>  <CAS_NUMBER>  (1) 
20074-52-6

>  <UNII>  (1) 
91O4LML611

>  <SYNONYMS>  (1) 
FE (III) ION; Fe(III); Ferric ion; iron(3+)

$$$$
