
     RDKit          2D

 37 40  0  0  1  0  0  0  0  0999 V2000
    0.0000   -5.9368    0.0000 C   0  0  0  0  0  0  0  0  0  0  0  0
    0.4125   -5.2224    0.0000 C   0  0  0  0  0  0  0  0  0  0  0  0
    0.0000   -4.5079    0.0000 C   0  0  0  0  0  0  0  0  0  0  0  0
    0.4125   -3.7934    0.0000 C   0  0  0  0  0  0  0  0  0  0  0  0
    1.2375   -3.7934    0.0000 C   0  0  0  0  0  0  0  0  0  0  0  0
    1.6500   -4.5079    0.0000 C   0  0  0  0  0  0  0  0  0  0  0  0
    1.2375   -5.2224    0.0000 C   0  0  0  0  0  0  0  0  0  0  0  0
    1.6500   -3.0789    0.0000 C   0  0  0  0  0  0  0  0  0  0  0  0
    2.4750   -3.0789    0.0000 O   0  0  0  0  0  0  0  0  0  0  0  0
    1.2375   -2.3645    0.0000 N   0  0  0  0  0  0  0  0  0  0  0  0
    0.4125   -2.3645    0.0000 C   0  0  0  0  0  0  0  0  0  0  0  0
    0.0000   -1.6500    0.0000 C   0  0  0  0  0  0  0  0  0  0  0  0
   -0.8250   -1.6500    0.0000 C   0  0  0  0  0  0  0  0  0  0  0  0
   -1.2375   -2.3645    0.0000 N   0  0  0  0  0  0  0  0  0  0  0  0
    1.6500   -1.6500    0.0000 C   0  0  0  0  0  0  0  0  0  0  0  0
    1.2375   -0.9355    0.0000 C   0  0  0  0  0  0  0  0  0  0  0  0
    0.4125   -0.9355    0.0000 N   0  0  0  0  0  0  0  0  0  0  0  0
    0.0000   -0.2211    0.0000 C   0  0  0  0  0  0  0  0  0  0  0  0
   -0.8250   -0.2211    0.0000 C   0  0  0  0  0  0  0  0  0  0  0  0
   -1.2375    0.4934    0.0000 C   0  0  0  0  0  0  0  0  0  0  0  0
   -0.8250    1.2079    0.0000 C   0  0  0  0  0  0  0  0  0  0  0  0
    0.0000    1.2079    0.0000 C   0  0  0  0  0  0  0  0  0  0  0  0
    0.4125    0.4934    0.0000 C   0  0  0  0  0  0  0  0  0  0  0  0
    1.2375    0.4934    0.0000 C   0  0  0  0  0  0  0  0  0  0  0  0
    1.6500    1.2079    0.0000 O   0  0  0  0  0  0  0  0  0  0  0  0
    1.6500   -0.2211    0.0000 N   0  0  0  0  0  0  0  0  0  0  0  0
    2.4750   -0.2211    0.0000 C   0  0  0  0  0  0  0  0  0  0  0  0
    2.8875    0.4934    0.0000 C   0  0  0  0  0  0  0  0  0  0  0  0
    2.4750    1.2079    0.0000 C   0  0  0  0  0  0  0  0  0  0  0  0
    2.8875    1.9224    0.0000 C   0  0  0  0  0  0  0  0  0  0  0  0
    3.7125    1.9224    0.0000 C   0  0  0  0  0  0  0  0  0  0  0  0
    4.1250    1.2079    0.0000 C   0  0  0  0  0  0  0  0  0  0  0  0
    3.7125    0.4934    0.0000 C   0  0  0  0  0  0  0  0  0  0  0  0
   -2.0625    0.4934    0.0000 Cl  0  0  0  0  0  0  0  0  0  0  0  0
    2.4750   -1.6500    0.0000 C   0  0  0  0  0  0  0  0  0  0  0  0
    2.8875   -0.9355    0.0000 C   0  0  0  0  0  0  0  0  0  0  0  0
    2.8875   -2.3645    0.0000 C   0  0  0  0  0  0  0  0  0  0  0  0
  1  2  1  0
  2  3  2  0
  2  7  1  0
  3  4  1  0
  4  5  2  0
  5  6  1  0
  5  8  1  0
  6  7  2  0
  8  9  2  0
  8 10  1  0
 10 11  1  0
 11 12  1  0
 12 13  1  0
 13 14  1  0
 15 10  1  0
 15 16  1  0
 15 35  1  1
 16 17  2  0
 16 26  1  0
 17 18  1  0
 18 19  2  0
 18 23  1  0
 19 20  1  0
 20 21  2  0
 20 34  1  0
 21 22  1  0
 22 23  2  0
 23 24  1  0
 24 25  2  0
 24 26  1  0
 26 27  1  0
 27 28  1  0
 28 29  2  0
 28 33  1  0
 29 30  1  0
 30 31  2  0
 31 32  1  0
 32 33  2  0
 35 36  1  0
 35 37  1  0
M  END
>  <DRUGBANK_ID>  (1) 
DB06188

>  <COMMON_NAME>  (1) 
Ispinesib

>  <CAS_NUMBER>  (1) 
336113-53-2

>  <UNII>  (1) 
BKT5F9C2NI

>  <SYNONYMS>  (1) 
Ispinesib

$$$$
