
     RDKit          2D

 33 37  0  0  0  0  0  0  0  0999 V2000
   -2.0962    0.8250    0.0000 C   0  0  0  0  0  0  0  0  0  0  0  0
   -2.0962    0.0000    0.0000 N   0  0  0  0  0  0  0  0  0  0  0  0
   -1.3818   -0.4114    0.0000 C   0  0  0  0  0  0  0  0  0  0  0  0
   -1.3818   -1.2364    0.0000 C   0  0  0  0  0  0  0  0  0  0  0  0
   -0.6652   -1.6500    0.0000 C   0  0  0  0  0  0  0  0  0  0  0  0
    0.0471   -1.2364    0.0000 C   0  0  0  0  0  0  0  0  0  0  0  0
    0.0471   -0.4114    0.0000 C   0  0  0  0  0  0  0  0  0  0  0  0
   -0.6652    0.0000    0.0000 C   0  0  0  0  0  0  0  0  0  0  0  0
    0.7615   -1.6500    0.0000 C   0  0  0  0  0  0  0  0  0  0  0  0
    1.4760   -1.2364    0.0000 C   0  0  0  0  0  0  0  0  0  0  0  0
    2.1290   -1.7420    0.0000 N   0  0  0  0  0  0  0  0  0  0  0  0
    2.8128   -1.2364    0.0000 C   0  0  0  0  0  0  0  0  0  0  0  0
    2.5753   -0.4646    0.0000 C   0  0  0  0  0  0  0  0  0  0  0  0
    1.7441   -0.4646    0.0000 C   0  0  0  0  0  0  0  0  0  0  0  0
    3.5272   -1.6500    0.0000 C   0  0  0  0  0  0  0  0  0  0  0  0
    3.5272   -2.4750    0.0000 O   0  0  0  0  0  0  0  0  0  0  0  0
    4.2416   -1.2364    0.0000 C   0  0  0  0  0  0  0  0  0  0  0  0
    4.2416   -0.4114    0.0000 C   0  0  0  0  0  0  0  0  0  0  0  0
    4.9582    0.0000    0.0000 C   0  0  0  0  0  0  0  0  0  0  0  0
    5.6706   -0.4114    0.0000 C   0  0  0  0  0  0  0  0  0  0  0  0
    5.6706   -1.2364    0.0000 C   0  0  0  0  0  0  0  0  0  0  0  0
    4.9582   -1.6500    0.0000 C   0  0  0  0  0  0  0  0  0  0  0  0
   -1.3818    1.2385    0.0000 O   0  0  0  0  0  0  0  0  0  0  0  0
   -2.8107    1.2385    0.0000 C   0  0  0  0  0  0  0  0  0  0  0  0
   -4.2416    1.2385    0.0000 N   0  0  0  0  0  0  0  0  0  0  0  0
   -4.2416    2.0635    0.0000 C   0  0  0  0  0  0  0  0  0  0  0  0
   -3.5251    2.4750    0.0000 C   0  0  0  0  0  0  0  0  0  0  0  0
   -2.8107    2.0635    0.0000 C   0  0  0  0  0  0  0  0  0  0  0  0
   -4.9540    2.4750    0.0000 N   0  0  0  0  0  0  0  0  0  0  0  0
   -5.6706    2.0635    0.0000 C   0  0  0  0  0  0  0  0  0  0  0  0
   -5.6706    1.2385    0.0000 C   0  0  0  0  0  0  0  0  0  0  0  0
   -4.9540    0.8250    0.0000 C   0  0  0  0  0  0  0  0  0  0  0  0
   -4.9540    0.0000    0.0000 O   0  0  0  0  0  0  0  0  0  0  0  0
  1  2  1  0
  1 23  2  0
  2  3  1  0
  3  4  2  0
  3  8  1  0
  4  5  1  0
  5  6  2  0
  6  9  1  0
  7  6  1  0
  8  7  2  0
 10  9  1  6
 10 11  1  0
 10 14  1  0
 11 12  1  0
 12 13  1  6
 12 15  1  0
 14 13  1  0
 15 16  1  1
 15 17  1  0
 17 18  2  0
 17 22  1  0
 18 19  1  0
 19 20  2  0
 21 20  1  0
 22 21  2  0
 24  1  1  1
 24 25  1  0
 24 28  1  0
 25 26  1  0
 25 32  1  0
 26 27  1  0
 26 29  2  0
 28 27  1  0
 29 30  1  0
 31 30  2  0
 32 31  1  0
 32 33  2  0
M  END
>  <DRUGBANK_ID>  (1) 
DB14895

>  <COMMON_NAME>  (1) 
Vibegron

>  <CAS_NUMBER>  (1) 
1190389-15-1

>  <UNII>  (1) 
M5TSE03W5U

>  <SYNONYMS>  (1) 
Vibégron; Vibegrón; Vibegron; Vibegronum

$$$$
