
     RDKit          2D

 32 35  0  0  1  0  0  0  0  0999 V2000
    2.7474   -2.2836    0.0000 C   0  0  0  0  0  0  0  0  0  0  0  0
    3.5724   -2.2836    0.0000 C   0  0  0  0  0  0  0  0  0  0  0  0
    3.9849   -2.9980    0.0000 C   0  0  0  0  0  0  0  0  0  0  0  0
    3.5724   -3.7125    0.0000 C   0  0  0  0  0  0  0  0  0  0  0  0
    2.7474   -3.7125    0.0000 C   0  0  0  0  0  0  0  0  0  0  0  0
    4.8099   -2.9980    0.0000 C   0  0  0  0  0  0  0  0  0  0  0  0
    5.2224   -3.7125    0.0000 O   0  0  0  0  0  0  0  0  0  0  0  0
    6.0474   -3.7125    0.0000 C   0  0  0  0  0  0  0  0  0  0  0  0
    6.4599   -2.9980    0.0000 O   0  0  0  0  0  0  0  0  0  0  0  0
    6.4599   -4.4270    0.0000 C   0  0  0  0  0  0  0  0  0  0  0  0
    7.2849   -4.4270    0.0000 C   0  0  0  0  0  0  0  0  0  0  0  0
    7.6974   -5.1414    0.0000 C   0  0  0  0  0  0  0  0  0  0  0  0
    8.5224   -5.1414    0.0000 C   0  0  0  0  0  0  0  0  0  0  0  0
    8.9349   -5.8559    0.0000 C   0  0  0  0  0  0  0  0  0  0  0  0
    8.5224   -6.5704    0.0000 C   0  0  0  0  0  0  0  0  0  0  0  0
    7.6974   -6.5704    0.0000 C   0  0  0  0  0  0  0  0  0  0  0  0
    7.2849   -5.8559    0.0000 C   0  0  0  0  0  0  0  0  0  0  0  0
    6.4599   -5.8559    0.0000 C   0  0  0  0  0  0  0  0  0  0  0  0
    6.0474   -5.1414    0.0000 N   0  0  0  0  0  0  0  0  0  0  0  0
    9.7599   -5.8559    0.0000 O   0  0  0  0  0  0  0  0  0  0  0  0
   10.1724   -5.1414    0.0000 C   0  0  0  0  0  0  0  0  0  0  0  0
    9.7599   -4.4270    0.0000 C   0  0  0  0  0  0  0  0  0  0  0  0
   10.1724   -3.7125    0.0000 C   0  0  0  0  0  0  0  0  0  0  0  0
   10.9974   -3.7125    0.0000 C   0  0  0  0  0  0  0  0  0  0  0  0
   11.4099   -4.4270    0.0000 C   0  0  0  0  0  0  0  0  0  0  0  0
   10.9974   -5.1414    0.0000 C   0  0  0  0  0  0  0  0  0  0  0  0
   11.4099   -5.8559    0.0000 C   0  0  0  0  0  0  0  0  0  0  0  0
   12.2303   -5.9421    0.0000 N   0  0  0  0  0  0  0  0  0  0  0  0
   12.4019   -6.7491    0.0000 N   0  0  0  0  0  0  0  0  0  0  0  0
   11.6874   -7.1616    0.0000 N   0  0  0  0  0  0  0  0  0  0  0  0
   11.0743   -6.6096    0.0000 N   0  0  0  0  0  0  0  0  0  0  0  0
   12.2349   -4.4270    0.0000 Cl  0  0  0  0  0  0  0  0  0  0  0  0
  1  2  1  0
  2  3  1  0
  3  4  1  0
  3  6  1  0
  4  5  1  0
  6  7  1  0
  7  8  1  0
  8  9  2  0
 10  8  1  6
 10 11  1  0
 10 19  1  0
 12 11  1  1
 12 13  1  0
 12 17  1  0
 13 14  1  0
 14 15  1  0
 14 20  1  1
 15 16  1  0
 17 16  1  1
 17 18  1  0
 18 19  1  0
 20 21  1  0
 21 22  2  0
 21 26  1  0
 22 23  1  0
 23 24  2  0
 24 25  1  0
 25 26  2  0
 25 32  1  0
 26 27  1  0
 27 28  1  0
 27 31  2  0
 28 29  1  0
 29 30  2  0
 30 31  1  0
M  END
>  <DRUGBANK_ID>  (1) 
DB12049

>  <COMMON_NAME>  (1) 
Dasolampanel etibutil

>  <CAS_NUMBER>  (1) 
503291-52-9

>  <UNII>  (1) 
M7BFC308LR

>  <SYNONYMS>  (1) 
Dasolampanel etibutil

$$$$
