
     RDKit          2D

 23 24  0  0  0  0  0  0  0  0999 V2000
    2.4535    3.2690    0.0000 C   0  0  0  0  0  0  0  0  0  0  0  0
    0.3101   -0.4434    0.0000 C   0  0  0  0  0  0  0  0  0  0  0  0
    1.7390    2.8565    0.0000 C   0  0  0  0  0  0  0  0  0  0  0  0
    0.3101    2.0315    0.0000 C   0  0  0  0  0  0  0  0  0  0  0  0
   -0.4043    1.6190    0.0000 C   0  0  0  0  0  0  0  0  0  0  0  0
    2.4535    1.6190    0.0000 C   0  0  0  0  0  0  0  0  0  0  0  0
    3.1680    2.0315    0.0000 C   0  0  0  0  0  0  0  0  0  0  0  0
    1.0246    0.7940    0.0000 C   0  0  0  0  0  0  0  0  0  0  0  0
   -3.1389   -1.1334    0.0000 C   0  0  0  0  0  0  0  0  0  0  0  0
    0.3101    0.3815    0.0000 C   0  0  0  0  0  0  0  0  0  0  0  0
    1.0246    1.6190    0.0000 C   0  0  0  0  0  0  0  0  0  0  0  0
   -0.4043    0.7940    0.0000 C   0  0  0  0  0  0  0  0  0  0  0  0
   -2.7264   -1.8479    0.0000 C   0  0  0  0  0  0  0  0  0  0  0  0
   -1.8332   -0.8559    0.0000 C   0  0  0  0  0  0  0  0  0  0  0  0
   -2.5869   -0.5203    0.0000 N   0  0  0  0  0  0  0  0  0  0  0  0
   -1.1187    0.3815    0.0000 N   0  0  0  0  0  0  0  0  0  0  0  0
   -1.1187   -0.4434    0.0000 N   0  0  0  0  0  0  0  0  0  0  0  0
    1.7390    2.0315    0.0000 N   0  0  0  0  0  0  0  0  0  0  0  0
   -3.0620   -2.6016    0.0000 N   0  0  0  0  0  0  0  0  0  0  0  0
    3.8825    1.6190    0.0000 O   0  0  0  0  0  0  0  0  0  0  0  0
   -2.5771   -3.2690    0.0000 O   0  0  0  0  0  0  0  0  0  0  0  0
   -3.8825   -2.6878    0.0000 O   0  0  0  0  0  0  0  0  0  0  0  0
   -1.9194   -1.6764    0.0000 S   0  0  0  0  0  0  0  0  0  0  0  0
  3  1  1  0
  5  4  2  0
  7  6  1  0
 10  2  1  0
 10  8  1  0
 11  4  1  0
 11  8  2  0
 12  5  1  0
 12 10  2  0
 13  9  2  0
 15  9  1  0
 15 14  2  0
 16 12  1  0
 17 14  1  0
 17 16  2  0
 18  3  1  0
 18  6  1  0
 18 11  1  0
 19 13  1  0
 20  7  1  0
 21 19  1  0
 22 19  2  0
 23 13  1  0
 23 14  1  0
M  CHG  2  19   1  21  -1
M  END
>  <DRUGBANK_ID>  (1) 
DB14203

>  <COMMON_NAME>  (1) 
Disperse Blue 106

>  <CAS_NUMBER>  (1) 
68516-81-4

>  <UNII>  (1) 
C48O4QYD6N

>  <SYNONYMS>  (1) 
5-Nitro-2-(2-methyl-4-(N-ethyl-N-(2-hydroxyethyl)amino)phenylazo)thiazole; C.I. Disperse Blue 106; C.I. Disperse Blue 357; Disperse Blue 357

$$$$
