7CS
     RDKit          2D

 21 24  0  0  0  0  0  0  0  0999 V2000
   -0.3839   -1.5086    0.0000 C   0  0  0  0  0  0  0  0  0  0  0  0
    0.9751   -1.0670    0.0000 O   0  0  0  0  0  0  0  0  0  0  0  0
    1.6840    3.0560    0.0000 C   0  0  0  0  0  0  0  0  0  0  0  0
    0.1681   -0.8955    0.0000 C   0  0  0  0  0  0  0  0  0  0  0  0
   -1.2044   -1.4224    0.0000 C   0  0  0  0  0  0  0  0  0  0  0  0
   -0.0868   -0.1109    0.0000 O   0  0  0  0  0  0  0  0  0  0  0  0
   -0.4268    2.3232    0.0000 C   0  0  0  0  0  0  0  0  0  0  0  0
    0.1238    1.8503    0.0000 C   0  0  0  0  0  0  0  0  0  0  0  0
    1.1414    2.4346    0.0000 N   0  0  0  0  0  0  0  0  0  0  0  0
    0.8969    1.7652    0.0000 C   0  0  0  0  0  0  0  0  0  0  0  0
    1.1995    0.8870    0.0000 C   0  0  0  0  0  0  0  0  0  0  0  0
    0.4116    2.0497    0.0000 C   0  0  0  0  0  0  0  0  0  0  0  0
    0.7128    1.1259    0.0000 C   0  0  0  0  0  0  0  0  0  0  0  0
    0.4652    0.5022    0.0000 C   0  0  0  0  0  0  0  0  0  0  0  0
   -0.2124   -3.9656    0.0000 C   0  0  0  0  0  0  0  0  0  0  0  0
   -0.9269   -3.5531    0.0000 N   0  0  0  0  0  0  0  0  0  0  0  0
   -0.9269   -2.7281    0.0000 C   0  0  0  0  0  0  0  0  0  0  0  0
   -0.2124   -2.3156    0.0000 C   0  0  0  0  0  0  0  0  0  0  0  0
    0.5021   -2.7281    0.0000 C   0  0  0  0  0  0  0  0  0  0  0  0
    0.5021   -3.5531    0.0000 C   0  0  0  0  0  0  0  0  0  0  0  0
   -1.5400   -2.1760    0.0000 N   0  0  0  0  0  0  0  0  0  0  0  0
  1 18  1  0
  1  5  2  0
  1  4  1  0
  2  4  2  0
  3  9  1  0
  4  6  1  0
  5 21  1  0
  7  8  1  0
 12  7  1  6
 10  8  1  1
  9 10  1  0
  9 12  1  0
 10 11  1  0
 11 14  1  0
 12 13  1  0
 13 14  1  0
 14  6  1  6
 15 16  2  0
 15 20  1  0
 16 17  1  0
 17 21  1  0
 17 18  2  0
 18 19  1  0
 19 20  2  0
M  END
>  <DRUGBANK_ID>  (1) 
DB07243

>  <COMMON_NAME>  (1) 
(3-ENDO)-8-METHYL-8-AZABICYCLO[3.2.1]OCT-3-YL 1H-PYRROLO[2,3-B]PYRIDINE-3-CARBOXYLATE

$$$$
