
     RDKit          2D

 17 16  0  0  0  0  0  0  0  0999 V2000
   -0.7144    1.4842    0.0000 S   0  0  0  0  0  0  0  0  0  0  0  0
    0.0000    0.2467    0.0000 O   0  0  0  0  0  0  0  0  0  0  0  0
    0.7144    1.4842    0.0000 S   0  0  0  0  0  0  0  0  0  0  0  0
    0.7144    0.6592    0.0000 P   0  0  0  0  0  0  0  0  0  0  0  0
   -0.7144    0.6592    0.0000 P   0  0  0  0  0  0  0  0  0  0  0  0
   -1.4289    0.2467    0.0000 O   0  0  0  0  0  0  0  0  0  0  0  0
   -2.1434    0.6592    0.0000 C   0  0  0  0  0  0  0  0  0  0  0  0
   -2.8579    0.2467    0.0000 C   0  0  0  0  0  0  0  0  0  0  0  0
    1.4289    0.2467    0.0000 O   0  0  0  0  0  0  0  0  0  0  0  0
    2.1433    0.6592    0.0000 C   0  0  0  0  0  0  0  0  0  0  0  0
    2.8579    0.2467    0.0000 C   0  0  0  0  0  0  0  0  0  0  0  0
    1.1269   -0.0552    0.0000 O   0  0  0  0  0  0  0  0  0  0  0  0
    0.7144   -0.7697    0.0000 C   0  0  0  0  0  0  0  0  0  0  0  0
    1.1269   -1.4842    0.0000 C   0  0  0  0  0  0  0  0  0  0  0  0
   -1.1269   -0.0552    0.0000 O   0  0  0  0  0  0  0  0  0  0  0  0
   -0.7144   -0.7697    0.0000 C   0  0  0  0  0  0  0  0  0  0  0  0
   -1.1269   -1.4842    0.0000 C   0  0  0  0  0  0  0  0  0  0  0  0
  2  4  1  0
  4  3  2  0
  4  9  1  0
  4 12  1  0
  5  1  2  0
  5  2  1  0
  5  6  1  0
  5 15  1  0
  6  7  1  0
  7  8  1  0
  9 10  1  0
 10 11  1  0
 12 13  1  0
 13 14  1  0
 15 16  1  0
 16 17  1  0
M  END
>  <DRUGBANK_ID>  (1) 
DB11497

>  <COMMON_NAME>  (1) 
Sulfotep

>  <CAS_NUMBER>  (1) 
3689-24-5

>  <UNII>  (1) 
V41BK2EE8X

>  <SYNONYMS>  (1) 
Bis(O,O-diethylphosphorothionic) anhydride; Dithion; Dithiophos; O,O,O,O-Tetraethyl dithiopyrophosphate; Sulfotepp; Sulphotepp; TEDP; TEDTP; Tetraethyl dithiopyrophosphate; Thiodiphosphate, tetraethyl ester

$$$$
