2361
     RDKit          2D

 21 24  0  0  0  0  0  0  0  0999 V2000
    4.5391   -0.8708    0.0000 O   0  0  0  0  0  0  0  0  0  0  0  0
    4.5487    1.6612    0.0000 O   0  0  0  0  0  0  0  0  0  0  0  0
    5.2766    0.3952    0.0000 C   0  0  0  0  0  0  0  0  0  0  0  0
    5.9911    0.8077    0.0000 C   0  0  0  0  0  0  0  0  0  0  0  0
    5.2766   -0.4297    0.0000 C   0  0  0  0  0  0  0  0  0  0  0  0
    6.7055    0.3952    0.0000 C   0  0  0  0  0  0  0  0  0  0  0  0
    4.5391    0.8364    0.0000 C   0  0  0  0  0  0  0  0  0  0  0  0
    3.7916   -0.4469    0.0000 C   0  0  0  0  0  0  0  0  0  0  0  0
    5.9911   -0.8422    0.0000 C   0  0  0  0  0  0  0  0  0  0  0  0
    6.7055   -0.4297    0.0000 C   0  0  0  0  0  0  0  0  0  0  0  0
    5.9778    1.6669    0.0000 C   0  0  0  0  0  0  0  0  0  0  0  0
    3.7916    0.4124    0.0000 C   0  0  0  0  0  0  0  0  0  0  0  0
    7.4562    0.8134    0.0000 C   0  0  0  0  0  0  0  0  0  0  0  0
    3.0788   -0.8621    0.0000 C   0  0  0  0  0  0  0  0  0  0  0  0
    6.7186    2.1023    0.0000 C   0  0  0  0  0  0  0  0  0  0  0  0
    7.4628    1.6727    0.0000 C   0  0  0  0  0  0  0  0  0  0  0  0
    2.3628   -0.4524    0.0000 C   0  0  0  0  0  0  0  0  0  0  0  0
    3.0820   -1.6871    0.0000 C   0  0  0  0  0  0  0  0  0  0  0  0
    1.6499   -0.8676    0.0000 C   0  0  0  0  0  0  0  0  0  0  0  0
    2.3691   -2.1023    0.0000 C   0  0  0  0  0  0  0  0  0  0  0  0
    1.6531   -1.6926    0.0000 C   0  0  0  0  0  0  0  0  0  0  0  0
  1  5  1  0
  1  8  1  0
  2  7  2  0
  3  4  1  0
  3  5  2  0
  3  7  1  0
  4  6  2  0
  4 11  1  0
  5  9  1  0
  6 10  1  0
  6 13  1  0
  7 12  1  0
  8 12  2  0
  8 14  1  0
  9 10  2  0
 11 15  2  0
 13 16  2  0
 14 17  2  0
 14 18  1  0
 15 16  1  0
 17 19  1  0
 18 20  2  0
 19 21  2  0
 20 21  1  0
M  END
>  <DRUGBANK_ID>  (1) 
DB06732

>  <COMMON_NAME>  (1) 
beta-Naphthoflavone

>  <CAS_NUMBER>  (1) 
6051-87-2

>  <UNII>  (1) 
1BT0256Y8O

>  <SYNONYMS>  (1) 
3-phenyl-1H-naphtho(2,1-b)pyran-1-one; 5,6-benzoflavone; beta-NF; Î²-NF

$$$$
