
     RDKit          2D

 11 11  0  0  0  0  0  0  0  0999 V2000
    1.4290    1.4933    0.0000 O   0  0  0  0  0  0  0  0  0  0  0  0
   -1.4290   -0.9818    0.0000 N   0  0  0  0  0  0  0  0  0  0  0  0
    0.0000   -0.9818    0.0000 N   0  0  0  0  0  0  0  0  0  0  0  0
    0.7145   -0.5692    0.0000 N   0  0  0  0  0  0  0  0  0  0  0  0
   -2.1436   -0.5692    0.0000 N   0  0  0  0  0  0  0  0  0  0  0  0
    2.1436    0.2557    0.0000 N   0  0  0  0  0  0  0  0  0  0  0  0
   -0.7145   -0.5692    0.0000 C   0  0  0  0  0  0  0  0  0  0  0  0
    0.7145    0.2557    0.0000 C   0  0  0  0  0  0  0  0  0  0  0  0
   -0.7145    0.2557    0.0000 C   0  0  0  0  0  0  0  0  0  0  0  0
    0.0000    0.6682    0.0000 C   0  0  0  0  0  0  0  0  0  0  0  0
    1.4290    0.6682    0.0000 C   0  0  0  0  0  0  0  0  0  0  0  0
  1 11  2  0
  2  5  1  0
  2  7  1  0
  3  4  2  0
  3  7  1  0
  4  8  1  0
  6 11  1  0
  7  9  2  0
  8 10  2  0
  8 11  1  0
  9 10  1  0
M  END
>  <DRUGBANK_ID>  (1) 
DB09243

>  <COMMON_NAME>  (1) 
Hydracarbazine

>  <CAS_NUMBER>  (1) 
3614-47-9

>  <UNII>  (1) 
6CTK2FB9QM

>  <SYNONYMS>  (1) 
Hydracarbazine

$$$$
