BSB
     RDKit          2D

 20 21  0  0  0  0  0  0  0  0999 V2000
    0.7758   -0.5956    0.0000 C   0  0  0  0  0  0  0  0  0  0  0  0
    1.4902   -1.0081    0.0000 C   0  0  0  0  0  0  0  0  0  0  0  0
    1.4902   -1.8331    0.0000 C   0  0  0  0  0  0  0  0  0  0  0  0
    0.7758   -2.2456    0.0000 C   0  0  0  0  0  0  0  0  0  0  0  0
    0.0613   -1.8331    0.0000 C   0  0  0  0  0  0  0  0  0  0  0  0
    0.0613   -1.0081    0.0000 C   0  0  0  0  0  0  0  0  0  0  0  0
   -0.6532   -0.5956    0.0000 C   0  0  0  0  0  0  0  0  0  0  0  0
   -1.3676   -1.0081    0.0000 O   0  0  0  0  0  0  0  0  0  0  0  0
   -0.6532    0.2294    0.0000 N   0  0  0  0  0  0  0  0  0  0  0  0
   -1.3676    0.6419    0.0000 C   0  0  0  0  0  0  0  0  0  0  0  0
    2.2047   -2.2456    0.0000 S   0  0  0  0  0  0  0  0  0  0  0  0
    2.9192   -2.6581    0.0000 N   0  0  0  0  0  0  0  0  0  0  0  0
    2.6172   -1.5311    0.0000 O   0  0  0  0  0  0  0  0  0  0  0  0
    1.7922   -2.9601    0.0000 O   0  0  0  0  0  0  0  0  0  0  0  0
   -1.3676    1.4669    0.0000 C   0  0  0  0  0  0  0  0  0  0  0  0
   -2.0821    1.8794    0.0000 C   0  0  0  0  0  0  0  0  0  0  0  0
   -2.0821    2.7044    0.0000 C   0  0  0  0  0  0  0  0  0  0  0  0
   -1.3676    3.1169    0.0000 C   0  0  0  0  0  0  0  0  0  0  0  0
   -0.6532    2.7044    0.0000 C   0  0  0  0  0  0  0  0  0  0  0  0
   -0.6532    1.8794    0.0000 C   0  0  0  0  0  0  0  0  0  0  0  0
  1  2  2  0
  1  6  1  0
  2  3  1  0
  3  4  2  0
  3 11  1  0
  4  5  1  0
  5  6  2  0
  6  7  1  0
  7  8  2  0
  7  9  1  0
  9 10  1  0
 10 15  1  0
 11 12  1  0
 11 13  2  0
 11 14  2  0
 15 16  2  0
 15 20  1  0
 16 17  1  0
 17 18  2  0
 18 19  1  0
 19 20  2  0
M  END
>  <DRUGBANK_ID>  (1) 
DB01748

>  <SECONDARY_ACCESSION_NUMBERS>  (1) 
EXPT00761

>  <COMMON_NAME>  (1) 
N-Benzyl-4-Sulfamoyl-Benzamide

>  <UNII>  (1) 
6LQK8L3YE9

$$$$
