
     RDKit          2D

  1  0  0  0  0  0  0  0  0  0999 V2000
    0.0000    0.0000    0.0000 P   0  0  0  0  0 15  0  0  0  0  0  0
M  END
>  <DRUGBANK_ID>  (1) 
DB14151

>  <COMMON_NAME>  (1) 
Phosphorus

>  <CAS_NUMBER>  (1) 
7723-14-0

>  <UNII>  (1) 
27YLU75U4W

>  <SYNONYMS>  (1) 
Phosphorous; Phosphorus, elemental

$$$$
