
     RDKit          2D

 37 42  0  0  0  0  0  0  0  0999 V2000
    5.3340    2.8875    0.0000 C   0  0  0  0  0  0  0  0  0  0  0  0
    4.6196    3.3000    0.0000 N   0  0  0  0  0  0  0  0  0  0  0  0
    4.6196    4.1250    0.0000 C   0  0  0  0  0  0  0  0  0  0  0  0
    3.9051    2.8875    0.0000 C   0  0  0  0  0  0  0  0  0  0  0  0
    3.1906    3.3000    0.0000 C   0  0  0  0  0  0  0  0  0  0  0  0
    2.4762    2.8875    0.0000 N   0  0  0  0  0  0  0  0  0  0  0  0
    1.7617    3.3000    0.0000 C   0  0  0  0  0  0  0  0  0  0  0  0
    1.0472    2.8875    0.0000 C   0  0  0  0  0  0  0  0  0  0  0  0
    1.0472    2.0625    0.0000 C   0  0  0  0  0  0  0  0  0  0  0  0
    1.7617    1.6500    0.0000 C   0  0  0  0  0  0  0  0  0  0  0  0
    2.4762    2.0625    0.0000 C   0  0  0  0  0  0  0  0  0  0  0  0
    1.7617    0.8250    0.0000 C   0  0  0  0  0  0  0  0  0  0  0  0
    1.0472    0.4125    0.0000 C   0  0  0  0  0  0  0  0  0  0  0  0
    0.3328    0.8250    0.0000 C   0  0  0  0  0  0  0  0  0  0  0  0
   -0.3816    0.4125    0.0000 N   0  0  0  0  0  0  0  0  0  0  0  0
   -0.3816   -0.4125    0.0000 C   0  0  0  0  0  0  0  0  0  0  0  0
    0.3328   -0.8250    0.0000 N   0  0  0  0  0  0  0  0  0  0  0  0
    0.3328   -1.6500    0.0000 C   0  0  0  0  0  0  0  0  0  0  0  0
   -0.3816   -2.0625    0.0000 C   0  0  0  0  0  0  0  0  0  0  0  0
   -0.3816   -2.8875    0.0000 F   0  0  0  0  0  0  0  0  0  0  0  0
   -1.0961   -1.6500    0.0000 C   0  0  0  0  0  0  0  0  0  0  0  0
   -1.0961   -0.8250    0.0000 N   0  0  0  0  0  0  0  0  0  0  0  0
   -1.8106   -2.0625    0.0000 C   0  0  0  0  0  0  0  0  0  0  0  0
   -1.8106   -2.8875    0.0000 C   0  0  0  0  0  0  0  0  0  0  0  0
   -2.5250   -3.3000    0.0000 C   0  0  0  0  0  0  0  0  0  0  0  0
   -2.5250   -4.1250    0.0000 F   0  0  0  0  0  0  0  0  0  0  0  0
   -3.2395   -2.8875    0.0000 C   0  0  0  0  0  0  0  0  0  0  0  0
   -4.0241   -3.1424    0.0000 N   0  0  0  0  0  0  0  0  0  0  0  0
   -4.5090   -2.4750    0.0000 C   0  0  0  0  0  0  0  0  0  0  0  0
   -5.3340   -2.4750    0.0000 C   0  0  0  0  0  0  0  0  0  0  0  0
   -4.0241   -1.8075    0.0000 N   0  0  0  0  0  0  0  0  0  0  0  0
   -4.2790   -1.0229    0.0000 C   0  0  0  0  0  0  0  0  0  0  0  0
   -4.8922   -0.4708    0.0000 C   0  0  0  0  0  0  0  0  0  0  0  0
   -4.1075   -0.2159    0.0000 C   0  0  0  0  0  0  0  0  0  0  0  0
   -3.2395   -2.0625    0.0000 C   0  0  0  0  0  0  0  0  0  0  0  0
   -2.5250   -1.6500    0.0000 C   0  0  0  0  0  0  0  0  0  0  0  0
    0.3328    1.6500    0.0000 N   0  0  0  0  0  0  0  0  0  0  0  0
  1  2  1  0
  2  3  1  0
  2  4  1  0
  4  5  1  0
  5  6  1  0
  6  7  1  0
  6 11  1  0
  7  8  1  0
  8  9  1  0
  9 10  2  0
  9 37  1  0
 10 11  1  0
 10 12  1  0
 12 13  2  0
 13 14  1  0
 14 15  1  0
 14 37  2  0
 15 16  1  0
 16 17  2  0
 16 22  1  0
 17 18  1  0
 18 19  2  0
 19 20  1  0
 19 21  1  0
 21 22  2  0
 21 23  1  0
 23 24  2  0
 23 36  1  0
 24 25  1  0
 25 26  1  0
 25 27  2  0
 27 28  1  0
 27 35  1  0
 28 29  2  0
 29 30  1  0
 29 31  1  0
 31 32  1  0
 31 35  1  0
 32 33  1  0
 32 34  1  0
 33 34  1  0
 35 36  2  0
M  END
>  <DRUGBANK_ID>  (1) 
DB18299

>  <COMMON_NAME>  (1) 
N-(4-(1-cyclopropyl-4-fluoro-2-methyl-1H-benzo(d)imidazol-6-yl)-5-fluoropyrimidin-2-yl)-6-(2-(dimethylamino)ethyl)-5,6,7,8-tetrahydro-l,6-naphthyridin-2-amine

>  <CAS_NUMBER>  (1) 
2102887-41-0

>  <UNII>  (1) 
484EDA7KEM

$$$$
