
     RDKit          2D

 42 45  0  0  0  0  0  0  0  0999 V2000
    3.0493   -2.3645    0.0000 O   0  0  0  0  0  0  0  0  0  0  0  0
    3.4618   -1.6500    0.0000 C   0  0  0  0  0  0  0  0  0  0  0  0
    3.0493   -0.9355    0.0000 O   0  0  0  0  0  0  0  0  0  0  0  0
    4.2868   -1.6500    0.0000 C   0  0  0  0  0  0  0  0  0  0  0  0
    4.6993   -2.3645    0.0000 C   0  0  0  0  0  0  0  0  0  0  0  0
    5.5243   -2.3645    0.0000 C   0  0  0  0  0  0  0  0  0  0  0  0
    5.9368   -3.0789    0.0000 C   0  0  0  0  0  0  0  0  0  0  0  0
    6.7618   -3.0789    0.0000 N   0  0  0  0  0  0  0  0  0  0  0  0
    7.1743   -2.3645    0.0000 C   0  0  0  0  0  0  0  0  0  0  0  0
    6.7618   -1.6500    0.0000 C   0  0  0  0  0  0  0  0  0  0  0  0
    7.1743   -0.9355    0.0000 C   0  0  0  0  0  0  0  0  0  0  0  0
    6.7618   -0.2211    0.0000 C   0  0  0  0  0  0  0  0  0  0  0  0
    5.9368   -0.2211    0.0000 O   0  0  0  0  0  0  0  0  0  0  0  0
    5.5243    0.4934    0.0000 C   0  0  0  0  0  0  0  0  0  0  0  0
    4.6993    0.4934    0.0000 C   0  0  0  0  0  0  0  0  0  0  0  0
    4.2868   -0.2211    0.0000 C   0  0  0  0  0  0  0  0  0  0  0  0
    3.4618   -0.2211    0.0000 C   0  0  0  0  0  0  0  0  0  0  0  0
    3.0493    0.4934    0.0000 C   0  0  0  0  0  0  0  0  0  0  0  0
    2.2243    0.4934    0.0000 C   0  0  0  0  0  0  0  0  0  0  0  0
    1.8118    1.2079    0.0000 C   0  0  0  0  0  0  0  0  0  0  0  0
    0.9868    1.2079    0.0000 C   0  0  0  0  0  0  0  0  0  0  0  0
    0.5743    0.4934    0.0000 C   0  0  0  0  0  0  0  0  0  0  0  0
   -0.2507    0.4934    0.0000 C   0  0  0  0  0  0  0  0  0  0  0  0
   -0.6632    1.2079    0.0000 C   0  0  0  0  0  0  0  0  0  0  0  0
   -0.2507    1.9224    0.0000 C   0  0  0  0  0  0  0  0  0  0  0  0
    0.5743    1.9224    0.0000 C   0  0  0  0  0  0  0  0  0  0  0  0
    3.4618    1.2079    0.0000 C   0  0  0  0  0  0  0  0  0  0  0  0
    4.2868    1.2079    0.0000 C   0  0  0  0  0  0  0  0  0  0  0  0
    7.1743    0.4934    0.0000 C   0  0  0  0  0  0  0  0  0  0  0  0
    7.9993    0.4934    0.0000 C   0  0  0  0  0  0  0  0  0  0  0  0
    8.4118   -0.2211    0.0000 C   0  0  0  0  0  0  0  0  0  0  0  0
    7.9993   -0.9355    0.0000 C   0  0  0  0  0  0  0  0  0  0  0  0
    7.1743   -3.7934    0.0000 C   0  0  0  0  0  0  0  0  0  0  0  0
    6.7618   -4.5079    0.0000 C   0  0  0  0  0  0  0  0  0  0  0  0
    7.1743   -5.2224    0.0000 C   0  0  0  0  0  0  0  0  0  0  0  0
    6.7618   -5.9368    0.0000 C   0  0  0  0  0  0  0  0  0  0  0  0
    5.9368   -5.9368    0.0000 C   0  0  0  0  0  0  0  0  0  0  0  0
    5.5243   -5.2224    0.0000 C   0  0  0  0  0  0  0  0  0  0  0  0
    5.9368   -4.5079    0.0000 C   0  0  0  0  0  0  0  0  0  0  0  0
    5.5243   -6.6513    0.0000 C   0  0  0  0  0  0  0  0  0  0  0  0
    5.9368   -7.3658    0.0000 O   0  0  0  0  0  0  0  0  0  0  0  0
    4.6993   -6.6513    0.0000 O   0  0  0  0  0  0  0  0  0  0  0  0
  1  2  1  0
  2  3  2  0
  2  4  1  0
  4  5  1  0
  5  6  1  0
  6  7  1  0
  7  8  1  0
  8  9  1  0
  8 33  1  0
  9 10  1  0
 10 11  1  0
 11 12  1  0
 11 32  2  0
 12 13  1  0
 12 29  2  0
 13 14  1  0
 14 15  1  0
 15 16  2  0
 15 28  1  0
 16 17  1  0
 17 18  2  0
 18 19  1  0
 18 27  1  0
 19 20  1  0
 20 21  1  0
 21 22  2  0
 21 26  1  0
 22 23  1  0
 23 24  2  0
 24 25  1  0
 25 26  2  0
 27 28  2  0
 29 30  1  0
 30 31  2  0
 31 32  1  0
 33 34  1  0
 34 35  2  0
 34 39  1  0
 35 36  1  0
 36 37  2  0
 37 38  1  0
 37 40  1  0
 38 39  2  0
 40 41  1  0
 40 42  2  0
M  END
>  <DRUGBANK_ID>  (1) 
DB16126

>  <COMMON_NAME>  (1) 
Cinaciguat

>  <CAS_NUMBER>  (1) 
329773-35-5

>  <UNII>  (1) 
59K0Y58UAD

>  <SYNONYMS>  (1) 
Cinaciguat

$$$$
