VGG
     RDKit          2D

 22 24  0  0  0  0  0  0  0  0999 V2000
   -1.1704    2.9382    0.0000 C   0  0  0  0  0  0  0  0  0  0  0  0
   -0.9155    2.1535    0.0000 C   0  0  0  0  0  0  0  0  0  0  0  0
   -1.7001    1.8986    0.0000 C   0  0  0  0  0  0  0  0  0  0  0  0
   -0.1309    2.4085    0.0000 C   0  0  0  0  0  0  0  0  0  0  0  0
   -0.6605    1.3689    0.0000 N   0  0  0  0  0  0  0  0  0  0  0  0
   -1.1455    0.7015    0.0000 N   0  0  0  0  0  0  0  0  0  0  0  0
    0.1241    1.1140    0.0000 C   0  0  0  0  0  0  0  0  0  0  0  0
    0.8386    1.5265    0.0000 N   0  0  0  0  0  0  0  0  0  0  0  0
    1.5530    1.1140    0.0000 C   0  0  0  0  0  0  0  0  0  0  0  0
    1.5530    0.2890    0.0000 N   0  0  0  0  0  0  0  0  0  0  0  0
    0.8386   -0.1235    0.0000 C   0  0  0  0  0  0  0  0  0  0  0  0
    0.8386   -0.9485    0.0000 N   0  0  0  0  0  0  0  0  0  0  0  0
    0.1241    0.2890    0.0000 C   0  0  0  0  0  0  0  0  0  0  0  0
   -0.6605    0.0340    0.0000 C   0  0  0  0  0  0  0  0  0  0  0  0
   -0.9155   -0.7506    0.0000 C   0  0  0  0  0  0  0  0  0  0  0  0
   -0.3634   -1.3637    0.0000 C   0  0  0  0  0  0  0  0  0  0  0  0
    0.4435   -1.1921    0.0000 C   0  0  0  0  0  0  0  0  0  0  0  0
   -0.6184   -2.1483    0.0000 C   0  0  0  0  0  0  0  0  0  0  0  0
   -0.0664   -2.7614    0.0000 C   0  0  0  0  0  0  0  0  0  0  0  0
    0.7406   -2.5899    0.0000 C   0  0  0  0  0  0  0  0  0  0  0  0
    0.9956   -1.8052    0.0000 C   0  0  0  0  0  0  0  0  0  0  0  0
    1.8025   -1.6337    0.0000 C   0  0  0  0  0  0  0  0  0  0  0  0
  1  2  1  0
  2  3  1  0
  2  4  1  0
  2  5  1  0
  5  6  1  0
  5  7  1  0
  6 14  2  0
  7  8  2  0
  7 13  1  0
  8  9  1  0
  9 10  2  0
 10 11  1  0
 11 12  1  0
 11 13  2  0
 13 14  1  0
 14 15  1  0
 15 16  1  0
 16 17  2  0
 16 18  1  0
 17 21  1  0
 18 19  2  0
 19 20  1  0
 20 21  2  0
 21 22  1  0
M  END
>  <DRUGBANK_ID>  (1) 
DB08699

>  <COMMON_NAME>  (1) 
1-tert-butyl-3-(3-methylbenzyl)-1H-pyrazolo[3,4-d]pyrimidin-4-amine

>  <UNII>  (1) 
LP62329LQ7

$$$$
