
     RDKit          2D

 23 26  0  0  1  0  0  0  0  0999 V2000
   16.4154  -12.1105    0.0000 C   0  0  0  0  0  0  0  0  0  0  0  0
   16.4154  -12.9355    0.0000 C   0  0  0  0  0  0  0  0  0  0  0  0
   17.1298  -13.3480    0.0000 C   0  0  0  0  0  0  0  0  0  0  0  0
   17.8443  -12.9355    0.0000 C   0  0  0  0  0  0  0  0  0  0  0  0
   17.8443  -12.1105    0.0000 C   0  0  0  0  0  0  0  0  0  0  0  0
   17.1298  -11.6980    0.0000 C   0  0  0  0  0  0  0  0  0  0  0  0
   18.5588  -13.3480    0.0000 C   0  0  0  0  0  0  0  0  0  0  0  0
   19.2733  -12.9355    0.0000 C   0  0  0  0  0  0  0  0  0  0  0  0
   19.2733  -12.1105    0.0000 C   0  0  0  0  0  0  0  0  0  0  0  0
   18.5588  -11.6980    0.0000 C   0  0  0  0  0  0  0  0  0  0  0  0
   19.9878  -11.6980    0.0000 C   0  0  0  0  0  0  0  0  0  0  0  0
   19.9878  -10.8730    0.0000 C   0  0  0  0  0  0  0  0  0  0  0  0
   19.2733  -10.4605    0.0000 C   0  0  0  0  0  0  0  0  0  0  0  0
   18.5588  -10.8730    0.0000 C   0  0  0  0  0  0  0  0  0  0  0  0
   20.7724  -11.9530    0.0000 C   0  0  0  0  0  0  0  0  0  0  0  0
   21.2573  -11.2855    0.0000 C   0  0  0  0  0  0  0  0  0  0  0  0
   20.7724  -10.6181    0.0000 C   0  0  0  0  0  0  0  0  0  0  0  0
   21.0273   -9.8334    0.0000 C   0  0  0  0  0  0  0  0  0  0  0  0
   21.8343   -9.6619    0.0000 O   0  0  0  0  0  0  0  0  0  0  0  0
   20.4752   -9.2203    0.0000 C   0  0  0  0  0  0  0  0  0  0  0  0
   20.0740  -10.0525    0.0000 C   0  0  0  0  0  0  0  0  0  0  0  0
   17.8443  -11.2855    0.0000 C   0  0  0  0  0  0  0  0  0  0  0  0
   15.7009  -13.3480    0.0000 O   0  0  0  0  0  0  0  0  0  0  0  0
  1  2  1  0
  2  3  1  0
  2 23  1  1
  4  3  1  1
  4  5  1  0
  4  7  1  0
  5  6  1  0
  5 22  1  1
  6  1  1  0
  7  8  1  0
  9  8  1  6
  9 10  1  0
  9 11  1  0
 10  5  1  0
 11 12  1  0
 11 15  1  1
 12 13  1  0
 12 21  1  1
 13 14  1  0
 10 14  1  1
 15 16  1  0
 16 17  1  0
 17 12  1  0
 17 18  1  1
 18 19  2  0
 18 20  1  0
M  END
>  <DRUGBANK_ID>  (1) 
DB12972

>  <COMMON_NAME>  (1) 
Sepranolone

>  <CAS_NUMBER>  (1) 
516-55-2

>  <UNII>  (1) 
3P8Z6V53MU

>  <SYNONYMS>  (1) 
Sepranolone

$$$$
