
     RDKit          2D

 14 14  0  0  0  0  0  0  0  0999 V2000
    0.9729    2.4918    0.0000 O   0  0  0  0  0  0  0  0  0  0  0  0
    1.4248    1.6495    0.0000 S   0  0  0  0  0  0  0  0  0  0  0  0
    2.1477    2.0659    0.0000 O   0  0  0  0  0  0  0  0  0  0  0  0
    1.8412    0.9265    0.0000 O   0  0  0  0  0  0  0  0  0  0  0  0
    0.7125    1.2343    0.0000 C   0  0  0  0  0  0  0  0  0  0  0  0
    0.7144    0.4049    0.0000 C   0  0  0  0  0  0  0  0  0  0  0  0
    0.0016   -0.0074    0.0000 C   0  0  0  0  0  0  0  0  0  0  0  0
    0.0026   -0.8361    0.0000 N   0  0  0  0  0  0  0  0  0  0  0  0
   -0.7214   -1.2538    0.0000 C   0  0  0  0  0  0  0  0  0  0  0  0
   -1.4333   -0.8412    0.0000 C   0  0  0  0  0  0  0  0  0  0  0  0
   -2.1477   -1.2538    0.0000 C   0  0  0  0  0  0  0  0  0  0  0  0
   -2.1477   -2.0791    0.0000 C   0  0  0  0  0  0  0  0  0  0  0  0
   -1.4333   -2.4918    0.0000 C   0  0  0  0  0  0  0  0  0  0  0  0
   -0.7214   -2.0791    0.0000 C   0  0  0  0  0  0  0  0  0  0  0  0
  1  2  2  0
  2  3  2  0
  2  4  1  0
  2  5  1  0
  5  6  1  0
  6  7  1  0
  7  8  1  0
  8  9  1  0
  9 10  1  0
 10 11  1  0
 11 12  1  0
 12 13  1  0
 13 14  1  0
 14  9  1  0
M  END
>  <DRUGBANK_ID>  (1) 
DB02219

>  <SECONDARY_ACCESSION_NUMBERS>  (1) 
EXPT01070

>  <COMMON_NAME>  (1) 
3-(cyclohexylamino)propanesulfonic acid

>  <CAS_NUMBER>  (1) 
1135-40-6

>  <UNII>  (1) 
4W981O1LXP

>  <SYNONYMS>  (1) 
3-(Cyclohexylamino)-1-propanesulfonic acid; 3-Cyclohexylaminopropane-1-sulphonic acid; CAPS

$$$$
