300
     RDKit          2D

 15 15  0  0  0  0  0  0  0  0999 V2000
    1.7649    0.3053    0.0000 C   0  0  0  0  0  0  0  0  0  0  0  0
    1.7649   -0.5197    0.0000 C   0  0  0  0  0  0  0  0  0  0  0  0
    1.0505   -0.9322    0.0000 C   0  0  0  0  0  0  0  0  0  0  0  0
    0.3360   -0.5197    0.0000 C   0  0  0  0  0  0  0  0  0  0  0  0
    0.3360    0.3053    0.0000 C   0  0  0  0  0  0  0  0  0  0  0  0
    1.0505    0.7178    0.0000 C   0  0  0  0  0  0  0  0  0  0  0  0
    1.0505    1.5428    0.0000 C   0  0  0  0  0  0  0  0  0  0  0  0
   -0.3785    0.7178    0.0000 O   0  0  0  0  0  0  0  0  0  0  0  0
   -0.3785   -0.9322    0.0000 O   0  0  0  0  0  0  0  0  0  0  0  0
   -1.0930   -0.5197    0.0000 C   0  0  0  0  0  0  0  0  0  0  0  0
   -1.0930    0.3053    0.0000 P   0  0  0  0  0  0  0  0  0  0  0  0
   -1.8074   -0.1072    0.0000 O   0  0  0  0  0  0  0  0  0  0  0  0
   -1.5055    1.0198    0.0000 O   0  0  0  0  0  0  0  0  0  0  0  0
   -0.6805   -0.4092    0.0000 O   0  0  0  0  0  0  0  0  0  0  0  0
    0.3360    1.9553    0.0000 O   0  0  0  0  0  0  0  0  0  0  0  0
  1  2  2  0
  1  6  1  0
  2  3  1  0
  3  4  2  0
  4  5  1  0
  4  9  1  0
  5  6  2  0
  5  8  1  0
  6  7  1  0
  7 15  2  0
  8 11  1  0
  9 10  1  0
 11 12  1  0
 11 13  2  0
 11 14  1  0
M  END
>  <DRUGBANK_ID>  (1) 
DB03306

>  <SECONDARY_ACCESSION_NUMBERS>  (1) 
EXPT00147

>  <COMMON_NAME>  (1) 
RU78300

$$$$
