
     RDKit          2D

 36 38  0  0  1  0  0  0  0  0999 V2000
   -5.7080    5.5349    0.0000 C   0  0  0  0  0  0  0  0  0  0  0  0
   -4.9010    5.3633    0.0000 C   0  0  0  0  0  0  0  0  0  0  0  0
   -4.6461    4.5787    0.0000 O   0  0  0  0  0  0  0  0  0  0  0  0
   -3.8391    4.4072    0.0000 C   0  0  0  0  0  0  0  0  0  0  0  0
   -3.2871    5.0203    0.0000 O   0  0  0  0  0  0  0  0  0  0  0  0
   -3.5842    3.6226    0.0000 C   0  0  0  0  0  0  0  0  0  0  0  0
   -4.1362    3.0095    0.0000 C   0  0  0  0  0  0  0  0  0  0  0  0
   -2.7772    3.4510    0.0000 N   0  0  0  0  0  0  0  0  0  0  0  0
   -2.5223    2.6664    0.0000 P   0  0  0  0  0  0  0  0  0  0  0  0
   -3.3069    2.4115    0.0000 O   0  0  0  0  0  0  0  0  0  0  0  0
   -2.2673    1.8818    0.0000 C   0  0  0  0  0  0  0  0  0  0  0  0
   -1.4604    1.7103    0.0000 O   0  0  0  0  0  0  0  0  0  0  0  0
   -1.2054    0.9256    0.0000 C   0  0  0  0  0  0  0  0  0  0  0  0
   -0.3984    0.7541    0.0000 C   0  0  0  0  0  0  0  0  0  0  0  0
   -0.1435   -0.0305    0.0000 N   0  0  0  0  0  0  0  0  0  0  0  0
   -0.6284   -0.6979    0.0000 C   0  0  0  0  0  0  0  0  0  0  0  0
   -0.1435   -1.3654    0.0000 N   0  0  0  0  0  0  0  0  0  0  0  0
    0.6411   -1.1104    0.0000 C   0  0  0  0  0  0  0  0  0  0  0  0
    0.6411   -0.2854    0.0000 C   0  0  0  0  0  0  0  0  0  0  0  0
    1.3556    0.1271    0.0000 N   0  0  0  0  0  0  0  0  0  0  0  0
    2.0701   -0.2854    0.0000 C   0  0  0  0  0  0  0  0  0  0  0  0
    2.0701   -1.1104    0.0000 N   0  0  0  0  0  0  0  0  0  0  0  0
    1.3556   -1.5229    0.0000 C   0  0  0  0  0  0  0  0  0  0  0  0
    1.3556   -2.3479    0.0000 N   0  0  0  0  0  0  0  0  0  0  0  0
    0.6411   -2.7604    0.0000 C   0  0  0  0  0  0  0  0  0  0  0  0
    0.2286   -3.4749    0.0000 C   0  0  0  0  0  0  0  0  0  0  0  0
   -0.1839   -2.7604    0.0000 C   0  0  0  0  0  0  0  0  0  0  0  0
    2.7845    0.1271    0.0000 N   0  0  0  0  0  0  0  0  0  0  0  0
   -1.7376    2.9214    0.0000 N   0  0  0  0  0  0  0  0  0  0  0  0
   -1.5661    3.7283    0.0000 C   0  0  0  0  0  0  0  0  0  0  0  0
   -2.1792    4.2804    0.0000 C   0  0  0  0  0  0  0  0  0  0  0  0
   -0.7815    3.9833    0.0000 C   0  0  0  0  0  0  0  0  0  0  0  0
   -0.1684    3.4312    0.0000 O   0  0  0  0  0  0  0  0  0  0  0  0
   -0.6100    4.7902    0.0000 O   0  0  0  0  0  0  0  0  0  0  0  0
   -1.2231    5.3423    0.0000 C   0  0  0  0  0  0  0  0  0  0  0  0
   -1.0515    6.1492    0.0000 C   0  0  0  0  0  0  0  0  0  0  0  0
  1  2  1  0
  2  3  1  0
  3  4  1  0
  4  5  2  0
  4  6  1  0
  6  7  1  1
  6  8  1  0
  8  9  1  0
  9 10  2  0
  9 11  1  0
  9 29  1  0
 11 12  1  0
 12 13  1  0
 13 14  1  0
 14 15  1  0
 15 16  1  0
 15 19  1  0
 16 17  2  0
 17 18  1  0
 18 19  2  0
 18 23  1  0
 19 20  1  0
 20 21  2  0
 21 22  1  0
 21 28  1  0
 22 23  2  0
 23 24  1  0
 24 25  1  0
 25 26  1  0
 25 27  1  0
 26 27  1  0
 29 30  1  0
 30 31  1  1
 30 32  1  0
 32 33  2  0
 32 34  1  0
 34 35  1  0
 35 36  1  0
M  END
>  <DRUGBANK_ID>  (1) 
DB12762

>  <COMMON_NAME>  (1) 
Rabacfosadine

>  <CAS_NUMBER>  (1) 
859209-74-8

>  <UNII>  (1) 
M39BO43J9W

>  <SYNONYMS>  (1) 
Rabacfosadine

$$$$
