
     RDKit          2D

  1  0  0  0  0  0  0  0  0  0999 V2000
    0.0000    0.0000    0.0000 Fe  0  0  0  0  0 15  0  0  0  0  0  0
M  CHG  1   1   2
M  END
>  <DRUGBANK_ID>  (1) 
DB14510

>  <COMMON_NAME>  (1) 
Ferrous cation

>  <CAS_NUMBER>  (1) 
15438-31-0

>  <UNII>  (1) 
GW89581OWR

>  <SYNONYMS>  (1) 
Fe2+; Ferrous ion; Iron, ion (Fe2+); Iron(2+); Iron(2+) ion; Iron(II) ion

$$$$
