K01
     RDKit          2D

 24 26  0  0  0  0  0  0  0  0999 V2000
   -1.0078   -1.7415    0.0000 O   0  0  0  0  0  0  0  0  0  0  0  0
   -1.4203   -1.0271    0.0000 C   0  0  0  0  0  0  0  0  0  0  0  0
   -2.2453   -1.0271    0.0000 C   0  0  0  0  0  0  0  0  0  0  0  0
   -2.7302   -0.3596    0.0000 S   0  0  0  0  0  0  0  0  0  0  0  0
   -3.5148   -0.6146    0.0000 C   0  0  0  0  0  0  0  0  0  0  0  0
   -3.5148   -1.4396    0.0000 C   0  0  0  0  0  0  0  0  0  0  0  0
   -2.7302   -1.6945    0.0000 C   0  0  0  0  0  0  0  0  0  0  0  0
   -1.0078   -0.3126    0.0000 N   0  0  0  0  0  0  0  0  0  0  0  0
   -0.1828   -0.3126    0.0000 C   0  0  0  0  0  0  0  0  0  0  0  0
    0.3021   -0.9800    0.0000 S   0  0  0  0  0  0  0  0  0  0  0  0
    1.0868   -0.7251    0.0000 C   0  0  0  0  0  0  0  0  0  0  0  0
    1.0868    0.0999    0.0000 C   0  0  0  0  0  0  0  0  0  0  0  0
    1.8012    0.5124    0.0000 C   0  0  0  0  0  0  0  0  0  0  0  0
    2.5157    0.0999    0.0000 C   0  0  0  0  0  0  0  0  0  0  0  0
    2.5157   -0.7251    0.0000 C   0  0  0  0  0  0  0  0  0  0  0  0
    1.8012   -1.1376    0.0000 C   0  0  0  0  0  0  0  0  0  0  0  0
    0.3021    0.3549    0.0000 C   0  0  0  0  0  0  0  0  0  0  0  0
    0.0472    1.1395    0.0000 C   0  0  0  0  0  0  0  0  0  0  0  0
    0.5992    1.7526    0.0000 O   0  0  0  0  0  0  0  0  0  0  0  0
   -0.7598    1.3110    0.0000 N   0  0  0  0  0  0  0  0  0  0  0  0
   -1.0147    2.0956    0.0000 C   0  0  0  0  0  0  0  0  0  0  0  0
   -0.4627    2.7087    0.0000 C   0  0  0  0  0  0  0  0  0  0  0  0
   -1.3118    0.6979    0.0000 C   0  0  0  0  0  0  0  0  0  0  0  0
   -2.1188    0.8694    0.0000 C   0  0  0  0  0  0  0  0  0  0  0  0
  1  2  2  0
  2  3  1  0
  2  8  1  0
  3  7  2  0
  3  4  1  0
  4  5  1  0
  5  6  2  0
  6  7  1  0
  8  9  1  0
  9 17  2  0
  9 10  1  0
 10 11  1  0
 11 12  2  0
 11 16  1  0
 12 17  1  0
 12 13  1  0
 13 14  1  0
 14 15  1  0
 15 16  1  0
 17 18  1  0
 18 20  1  0
 18 19  2  0
 20 23  1  0
 20 21  1  0
 21 22  1  0
 23 24  1  0
M  END
>  <DRUGBANK_ID>  (1) 
DB08032

>  <COMMON_NAME>  (1) 
N,N-DIETHYL-2-[(2-THIENYLCARBONYL)AMINO]-4,5,6,7-TETRAHYDRO-1-BENZOTHIOPHENE-3-CARBOXAMIDE

$$$$
