
     RDKit          2D

 38 41  0  0  0  0  0  0  0  0999 V2000
   -0.3596   -1.8481    0.0000 C   0  0  0  0  0  0  0  0  0  0  0  0
   -0.3598   -1.0227    0.0000 O   0  0  0  0  0  0  0  0  0  0  0  0
   -1.0739   -2.2603    0.0000 N   0  0  0  0  0  0  0  0  0  0  0  0
    0.3547   -2.2610    0.0000 N   0  0  0  0  0  0  0  0  0  0  0  0
    1.7834   -0.6115    0.0000 C   0  0  0  0  0  0  0  0  0  0  0  0
    2.4979   -1.0243    0.0000 C   0  0  0  0  0  0  0  0  0  0  0  0
    2.4980   -1.8497    0.0000 C   0  0  0  0  0  0  0  0  0  0  0  0
    1.7835   -2.2620    0.0000 C   0  0  0  0  0  0  0  0  0  0  0  0
    1.0691   -1.8488    0.0000 C   0  0  0  0  0  0  0  0  0  0  0  0
    1.0691   -1.0236    0.0000 C   0  0  0  0  0  0  0  0  0  0  0  0
    0.3546   -0.6105    0.0000 Cl  0  0  0  0  0  0  0  0  0  0  0  0
    1.7836   -3.0870    0.0000 Cl  0  0  0  0  0  0  0  0  0  0  0  0
    1.7833    0.2139    0.0000 O   0  0  0  0  0  0  0  0  0  0  0  0
    2.4979    0.6262    0.0000 C   0  0  0  0  0  0  0  0  0  0  0  0
    3.2124   -2.2626    0.0000 O   0  0  0  0  0  0  0  0  0  0  0  0
   -3.2115   -1.0265    0.0000 N   0  0  0  0  0  0  0  0  0  0  0  0
   -2.5036   -2.2588    0.0000 N   0  0  0  0  0  0  0  0  0  0  0  0
   -3.2124   -1.8456    0.0000 C   0  0  0  0  0  0  0  0  0  0  0  0
   -1.7875   -1.0280    0.0000 C   0  0  0  0  0  0  0  0  0  0  0  0
   -2.5018   -0.6149    0.0000 C   0  0  0  0  0  0  0  0  0  0  0  0
   -1.7884   -1.8472    0.0000 C   0  0  0  0  0  0  0  0  0  0  0  0
   -2.5009    0.2098    0.0000 N   0  0  0  0  0  0  0  0  0  0  0  0
   -1.0805    1.8578    0.0000 C   0  0  0  0  0  0  0  0  0  0  0  0
   -0.3664    1.4390    0.0000 C   0  0  0  0  0  0  0  0  0  0  0  0
   -0.3673    0.6199    0.0000 C   0  0  0  0  0  0  0  0  0  0  0  0
   -1.0823    0.2083    0.0000 C   0  0  0  0  0  0  0  0  0  0  0  0
   -1.7911    0.6214    0.0000 C   0  0  0  0  0  0  0  0  0  0  0  0
   -1.7903    1.4462    0.0000 C   0  0  0  0  0  0  0  0  0  0  0  0
    0.3490    1.8506    0.0000 N   0  0  0  0  0  0  0  0  0  0  0  0
    1.7795    2.6740    0.0000 N   0  0  0  0  0  0  0  0  0  0  0  0
    1.7786    1.8491    0.0000 C   0  0  0  0  0  0  0  0  0  0  0  0
    0.3499    2.6754    0.0000 C   0  0  0  0  0  0  0  0  0  0  0  0
    1.0650    3.0870    0.0000 C   0  0  0  0  0  0  0  0  0  0  0  0
    1.0631    1.4375    0.0000 C   0  0  0  0  0  0  0  0  0  0  0  0
    2.4946    3.0854    0.0000 C   0  0  0  0  0  0  0  0  0  0  0  0
   -1.0739   -3.0853    0.0000 C   0  0  0  0  0  0  0  0  0  0  0  0
    3.2077    2.6726    0.0000 C   0  0  0  0  0  0  0  0  0  0  0  0
    3.2121   -3.0868    0.0000 C   0  0  0  0  0  0  0  0  0  0  0  0
  2  1  2  0
  3  1  1  0
  4  1  1  0
  6  5  2  0
  7  6  1  0
  8  7  2  0
  9  4  1  0
  9  8  1  0
 10  5  1  0
 10  9  2  0
 11 10  1  0
 12  8  1  0
 13  5  1  0
 14 13  1  0
 15  7  1  0
 15 38  1  0
 18 16  2  0
 18 17  1  0
 20 16  1  0
 20 19  2  0
 21  3  1  0
 21 17  2  0
 21 19  1  0
 22 20  1  0
 24 23  2  0
 25 24  1  0
 26 25  2  0
 27 22  1  0
 27 26  1  0
 28 23  1  0
 28 27  2  0
 29 24  1  0
 31 30  1  0
 32 29  1  0
 33 30  1  0
 33 32  1  0
 34 29  1  0
 34 31  1  0
 35 30  1  0
 35 37  1  0
 36  3  1  0
M  END
>  <DRUGBANK_ID>  (1) 
DB11886

>  <COMMON_NAME>  (1) 
Infigratinib

>  <CAS_NUMBER>  (1) 
872511-34-7

>  <UNII>  (1) 
A4055ME1VK

>  <SYNONYMS>  (1) 
Infigratinib

$$$$
