
     RDKit          2D

 27 29  0  0  0  0  0  0  0  0999 V2000
   -2.1434   -0.1509    0.0000 C   0  0  0  0  0  0  0  0  0  0  0  0
   -2.8578   -0.5634    0.0000 C   0  0  0  0  0  0  0  0  0  0  0  0
   -2.8578   -1.3885    0.0000 C   0  0  0  0  0  0  0  0  0  0  0  0
   -2.1434   -1.8010    0.0000 N   0  0  0  0  0  0  0  0  0  0  0  0
   -1.4289   -1.3885    0.0000 C   0  0  0  0  0  0  0  0  0  0  0  0
   -1.4289   -0.5634    0.0000 C   0  0  0  0  0  0  0  0  0  0  0  0
   -0.7144   -0.1509    0.0000 N   0  0  0  0  0  0  0  0  0  0  0  0
   -0.7144   -1.8010    0.0000 C   0  0  0  0  0  0  0  0  0  0  0  0
    0.0000   -0.5634    0.0000 C   0  0  0  0  0  0  0  0  0  0  0  0
    0.7144   -0.1509    0.0000 C   0  0  0  0  0  0  0  0  0  0  0  0
    0.0000   -1.3885    0.0000 C   0  0  0  0  0  0  0  0  0  0  0  0
   -0.7144   -2.6260    0.0000 C   0  0  0  0  0  0  0  0  0  0  0  0
    0.0000   -3.0385    0.0000 C   0  0  0  0  0  0  0  0  0  0  0  0
    0.7144   -2.6260    0.0000 C   0  0  0  0  0  0  0  0  0  0  0  0
    0.7144   -1.8010    0.0000 C   0  0  0  0  0  0  0  0  0  0  0  0
    1.4289    1.0865    0.0000 C   0  0  0  0  0  0  0  0  0  0  0  0
    0.7144    0.6740    0.0000 C   0  0  0  0  0  0  0  0  0  0  0  0
    1.4289   -0.5635    0.0000 C   0  0  0  0  0  0  0  0  0  0  0  0
    2.1433   -0.1509    0.0000 C   0  0  0  0  0  0  0  0  0  0  0  0
    2.1433    0.6740    0.0000 C   0  0  0  0  0  0  0  0  0  0  0  0
    1.4289    1.9115    0.0000 O   0  0  0  0  0  0  0  0  0  0  0  0
    1.4289   -1.3885    0.0000 O   0  0  0  0  0  0  0  0  0  0  0  0
    2.1433   -1.8010    0.0000 C   0  0  0  0  0  0  0  0  0  0  0  0
    2.1433    2.3240    0.0000 C   0  0  0  0  0  0  0  0  0  0  0  0
    2.8578    2.7365    0.0000 F   0  0  0  0  0  0  0  0  0  0  0  0
    2.5558    1.6095    0.0000 F   0  0  0  0  0  0  0  0  0  0  0  0
    1.7308    3.0385    0.0000 F   0  0  0  0  0  0  0  0  0  0  0  0
  1  2  1  0
  1  6  1  0
  2  3  1  0
  3  4  1  0
  4  5  1  0
  5  6  1  0
  5  8  1  6
  6  7  1  6
  7  9  1  0
  8 12  1  0
  9 10  1  0
 10 18  2  0
 11  8  2  0
 11 15  1  0
 12 13  2  0
 13 14  1  0
 14 15  2  0
 16 17  2  0
 16 20  1  0
 16 21  1  0
 17 10  1  0
 18 19  1  0
 18 22  1  0
 19 20  2  0
 21 24  1  0
 22 23  1  0
 24 25  1  0
 24 26  1  0
 24 27  1  0
M  END
>  <DRUGBANK_ID>  (1) 
DB05421

>  <COMMON_NAME>  (1) 
CP-122721

>  <CAS_NUMBER>  (1) 
145742-28-5

>  <UNII>  (1) 
R7OYP6N58F

$$$$
