
     RDKit          2D

 24 23  0  0  0  0  0  0  0  0999 V2000
   -2.1434    0.0000    0.0000 C   0  0  0  0  0  0  0  0  0  0  0  0
   -2.8579   -0.4124    0.0000 C   0  0  0  0  0  0  0  0  0  0  0  0
    4.2868   -0.4124    0.0000 O   0  0  0  0  0  0  0  0  0  0  0  0
    2.8579   -0.4124    0.0000 O   0  0  0  0  0  0  0  0  0  0  0  0
    2.1434    0.0000    0.0000 C   0  0  0  0  0  0  0  0  0  0  0  0
    5.7158   -0.4124    0.0000 O   0  0  0  0  0  0  0  0  0  0  0  0
    1.4289   -0.4124    0.0000 C   0  0  0  0  0  0  0  0  0  0  0  0
    0.7145    0.0000    0.0000 C   0  0  0  0  0  0  0  0  0  0  0  0
    0.0000   -0.4124    0.0000 C   0  0  0  0  0  0  0  0  0  0  0  0
   -0.7145    0.0000    0.0000 C   0  0  0  0  0  0  0  0  0  0  0  0
   -1.4289   -0.4124    0.0000 C   0  0  0  0  0  0  0  0  0  0  0  0
   -3.5724    0.0000    0.0000 C   0  0  0  0  0  0  0  0  0  0  0  0
   -4.2868   -0.4124    0.0000 C   0  0  0  0  0  0  0  0  0  0  0  0
   -5.0012    0.0000    0.0000 C   0  0  0  0  0  0  0  0  0  0  0  0
   -5.7158   -0.4124    0.0000 C   0  0  0  0  0  0  0  0  0  0  0  0
    3.5724    0.0000    0.0000 P   0  0  0  0  0  0  0  0  0  0  0  0
    5.0012    0.0000    0.0000 P   0  0  0  0  0  0  0  0  0  0  0  0
    3.5722    0.8250    0.0000 O   0  0  0  0  0  0  0  0  0  0  0  0
    5.0012    0.8249    0.0000 O   0  0  0  0  0  0  0  0  0  0  0  0
    0.7144    0.8249    0.0000 C   0  0  0  0  0  0  0  0  0  0  0  0
   -2.1434    0.8250    0.0000 C   0  0  0  0  0  0  0  0  0  0  0  0
   -5.0012    0.8250    0.0000 C   0  0  0  0  0  0  0  0  0  0  0  0
    3.5722   -0.8250    0.0000 O   0  0  0  0  0  0  0  0  0  0  0  0
    5.0012   -0.8249    0.0000 O   0  0  0  0  0  0  0  0  0  0  0  0
  1 21  1  0
  1  2  1  0
  2 12  1  0
  3 17  1  0
  4  5  1  0
  5  7  1  0
  7  8  2  0
  8 20  1  0
  8  9  1  0
  9 10  1  0
 10 11  1  0
 11  1  2  0
 12 13  1  0
 13 14  2  3
 14 22  1  0
 14 15  1  0
 16  4  1  0
 16  3  1  0
 16 18  2  0
 16 23  1  0
 17  6  1  0
 17 19  2  0
 17 24  1  0
M  END
>  <DRUGBANK_ID>  (1) 
DB07780

>  <COMMON_NAME>  (1) 
Farnesyl diphosphate

>  <CAS_NUMBER>  (1) 
13058-04-3

>  <UNII>  (1) 
79W6B01D07

>  <SYNONYMS>  (1) 
(2E,6E)-farnesol diphosphate; (2E,6E)-farnesyl diphosphate; (2E,6E)-farnesyl pyrophosphate; (all-E)-farnesyl diphosphate; (E,E)-farnesyl pyrophosphate; 2-trans,6-trans-farnesyl diphosphate; all-trans-farnesyl pyrophosphate; Farnesyl pyrophosphate

$$$$
