
     RDKit          2D

 18 19  0  0  0  0  0  0  0  0999 V2000
    0.2942    0.2037    0.0000 C   0  0  0  0  0  0  0  0  0  0  0  0
   -0.4205    0.6158    0.0000 C   0  0  0  0  0  0  0  0  0  0  0  0
   -1.1310    0.2037    0.0000 N   0  0  0  0  0  0  0  0  0  0  0  0
   -1.2161   -0.6112    0.0000 N   0  0  0  0  0  0  0  0  0  0  0  0
   -2.0224   -0.7853    0.0000 C   0  0  0  0  0  0  0  0  0  0  0  0
   -2.4344   -0.0704    0.0000 N   0  0  0  0  0  0  0  0  0  0  0  0
   -1.8845    0.5398    0.0000 N   0  0  0  0  0  0  0  0  0  0  0  0
    0.2942   -0.6158    0.0000 O   0  0  0  0  0  0  0  0  0  0  0  0
    1.0046   -1.0278    0.0000 C   0  0  0  0  0  0  0  0  0  0  0  0
    1.7195   -0.6158    0.0000 N   0  0  0  0  0  0  0  0  0  0  0  0
    1.0046   -1.8519    0.0000 O   0  0  0  0  0  0  0  0  0  0  0  0
    1.0046    0.6158    0.0000 C   0  0  0  0  0  0  0  0  0  0  0  0
    1.0046    1.4398    0.0000 C   0  0  0  0  0  0  0  0  0  0  0  0
    1.7195    1.8519    0.0000 C   0  0  0  0  0  0  0  0  0  0  0  0
    2.4344    1.4398    0.0000 C   0  0  0  0  0  0  0  0  0  0  0  0
    2.4344    0.6158    0.0000 C   0  0  0  0  0  0  0  0  0  0  0  0
    1.7195    0.2037    0.0000 C   0  0  0  0  0  0  0  0  0  0  0  0
    0.2942    1.8519    0.0000 Cl  0  0  0  0  0  0  0  0  0  0  0  0
  1  2  1  1
  1  8  1  0
  1 12  1  0
  2  3  1  0
  3  4  1  0
  3  7  1  0
  4  5  2  0
  5  6  1  0
  7  6  2  0
  8  9  1  0
  9 10  1  0
  9 11  2  0
 12 13  2  0
 12 17  1  0
 13 14  1  0
 13 18  1  0
 14 15  2  0
 16 15  1  0
 17 16  2  0
M  END
>  <DRUGBANK_ID>  (1) 
DB06119

>  <COMMON_NAME>  (1) 
Cenobamate

>  <CAS_NUMBER>  (1) 
913088-80-9

>  <UNII>  (1) 
P85X70RZWS

>  <SYNONYMS>  (1) 
Cenobamate; CÃ©nobamate; Cenobamato; Cenobamatum

$$$$
