
     RDKit          2D

 20 22  0  0  0  0  0  0  0  0999 V2000
   -1.3492    0.2061    0.0000 C   0  0  0  0  0  0  0  0  0  0  0  0
   -1.3492   -0.6187    0.0000 N   0  0  0  0  0  0  0  0  0  0  0  0
   -2.0637   -1.0312    0.0000 C   0  0  0  0  0  0  0  0  0  0  0  0
   -2.7781   -0.6187    0.0000 C   0  0  0  0  0  0  0  0  0  0  0  0
   -2.7781    0.2061    0.0000 C   0  0  0  0  0  0  0  0  0  0  0  0
   -2.0637    0.6187    0.0000 N   0  0  0  0  0  0  0  0  0  0  0  0
   -2.0637   -1.8563    0.0000 N   0  0  0  0  0  0  0  0  0  0  0  0
   -0.6347    0.6187    0.0000 S   0  0  0  0  0  0  0  0  0  0  0  0
    0.0797    0.2061    0.0000 C   0  0  0  0  0  0  0  0  0  0  0  0
    0.0797   -0.6187    0.0000 C   0  0  0  0  0  0  0  0  0  0  0  0
    1.5086    1.8562    0.0000 C   0  0  0  0  0  0  0  0  0  0  0  0
    2.2231    1.4437    0.0000 C   0  0  0  0  0  0  0  0  0  0  0  0
    2.2231    0.6187    0.0000 C   0  0  0  0  0  0  0  0  0  0  0  0
    1.5086    0.2061    0.0000 C   0  0  0  0  0  0  0  0  0  0  0  0
    0.7942    0.6187    0.0000 C   0  0  0  0  0  0  0  0  0  0  0  0
    0.7942    1.4437    0.0000 N   0  0  0  0  0  0  0  0  0  0  0  0
    3.0077    1.6986    0.0000 O   0  0  0  0  0  0  0  0  0  0  0  0
    3.0077    0.3637    0.0000 C   0  0  0  0  0  0  0  0  0  0  0  0
    3.4927    1.0313    0.0000 C   0  0  0  0  0  0  0  0  0  0  0  0
   -3.4927    0.6187    0.0000 Cl  0  0  0  0  0  0  0  0  0  0  0  0
  1  2  2  0
  1  6  1  0
  1  8  1  0
  2  3  1  0
  3  4  2  0
  3  7  1  0
  4  5  1  0
  5  6  2  0
  5 20  1  0
  8  9  1  0
  9 10  1  6
  9 15  1  0
 11 12  2  0
 11 16  1  0
 12 13  1  0
 13 14  2  0
 14 15  1  0
 15 16  2  0
 17 19  1  0
 17 12  1  0
 18 19  2  0
 18 13  1  0
M  END
>  <DRUGBANK_ID>  (1) 
DB08414

>  <COMMON_NAME>  (1) 
PNU-142721

>  <CAS_NUMBER>  (1) 
185220-03-5

>  <UNII>  (1) 
U3D0LYB7P0

$$$$
