
     RDKit          2D

 35 38  0  0  1  0  0  0  0  0999 V2000
   -0.8476   -0.6241    0.0000 C   0  0  0  0  0  0  0  0  0  0  0  0
   -0.5655    0.1511    0.0000 C   0  0  0  0  0  0  0  0  0  0  0  0
    0.2470    0.2944    0.0000 C   0  0  0  0  0  0  0  0  0  0  0  0
    0.5292    1.0696    0.0000 C   0  0  0  0  0  0  0  0  0  0  0  0
    1.3416    1.2129    0.0000 S   0  0  0  0  0  0  0  0  0  0  0  0
    1.8719    0.5809    0.0000 C   0  0  0  0  0  0  0  0  0  0  0  0
    2.6844    0.7241    0.0000 C   0  0  0  0  0  0  0  0  0  0  0  0
    2.9666    1.4994    0.0000 O   0  0  0  0  0  0  0  0  0  0  0  0
    3.2147    0.0922    0.0000 C   0  0  0  0  0  0  0  0  0  0  0  0
    2.9325   -0.6831    0.0000 C   0  0  0  0  0  0  0  0  0  0  0  0
    3.7450   -0.8263    0.0000 C   0  0  0  0  0  0  0  0  0  0  0  0
    4.2753   -0.1944    0.0000 C   0  0  0  0  0  0  0  0  0  0  0  0
    5.0878   -0.3376    0.0000 C   0  0  0  0  0  0  0  0  0  0  0  0
    5.6181    0.2944    0.0000 C   0  0  0  0  0  0  0  0  0  0  0  0
    6.4305    0.1511    0.0000 C   0  0  0  0  0  0  0  0  0  0  0  0
    6.7127   -0.6241    0.0000 C   0  0  0  0  0  0  0  0  0  0  0  0
    7.5252   -0.7674    0.0000 O   0  0  0  0  0  0  0  0  0  0  0  0
    6.1824   -1.2561    0.0000 C   0  0  0  0  0  0  0  0  0  0  0  0
    5.3699   -1.1129    0.0000 C   0  0  0  0  0  0  0  0  0  0  0  0
    2.1201   -0.8263    0.0000 O   0  0  0  0  0  0  0  0  0  0  0  0
    1.5898   -0.1944    0.0000 C   0  0  0  0  0  0  0  0  0  0  0  0
    0.7773   -0.3376    0.0000 O   0  0  0  0  0  0  0  0  0  0  0  0
    2.9325   -1.5081    0.0000 C   0  0  0  0  0  0  0  0  0  0  0  0
    3.6000   -1.9930    0.0000 C   0  0  0  0  0  0  0  0  0  0  0  0
    3.3450   -2.7776    0.0000 C   0  0  0  0  0  0  0  0  0  0  0  0
    2.5200   -2.7776    0.0000 C   0  0  0  0  0  0  0  0  0  0  0  0
    2.2651   -1.9930    0.0000 C   0  0  0  0  0  0  0  0  0  0  0  0
   -0.0011    1.7016    0.0000 C   0  0  0  0  0  0  0  0  0  0  0  0
   -0.8136    1.5583    0.0000 C   0  0  0  0  0  0  0  0  0  0  0  0
   -1.0958    0.7831    0.0000 C   0  0  0  0  0  0  0  0  0  0  0  0
   -1.9082    0.6398    0.0000 N   0  0  0  0  0  0  0  0  0  0  0  0
    0.2810    2.4768    0.0000 C   0  0  0  0  0  0  0  0  0  0  0  0
    0.5632    3.2521    0.0000 C   0  0  0  0  0  0  0  0  0  0  0  0
   -0.4942    2.7590    0.0000 C   0  0  0  0  0  0  0  0  0  0  0  0
    1.0563    2.1947    0.0000 C   0  0  0  0  0  0  0  0  0  0  0  0
  1  2  1  0
  2  3  2  0
  2 30  1  0
  3  4  1  0
  4  5  1  0
  4 28  2  0
  5  6  1  0
  6  7  2  0
  6 21  1  0
  7  8  1  0
  7  9  1  0
  9 10  1  0
 10 11  1  6
 10 20  1  0
 10 23  1  0
 11 12  1  0
 12 13  1  0
 13 14  2  0
 13 19  1  0
 14 15  1  0
 15 16  2  0
 16 17  1  0
 16 18  1  0
 18 19  2  0
 20 21  1  0
 21 22  2  0
 23 24  1  0
 23 27  1  0
 24 25  1  0
 25 26  1  0
 26 27  1  0
 28 29  1  0
 28 32  1  0
 29 30  2  0
 30 31  1  0
 32 33  1  0
 32 34  1  0
 32 35  1  0
M  END
>  <DRUGBANK_ID>  (1) 
DB04298

>  <SECONDARY_ACCESSION_NUMBERS>  (1) 
EXPT02340

>  <COMMON_NAME>  (1) 
3-(4-Amino-2-Tert-Butyl-5-Methyl-Phenylsulfanyl)-6-Cyclopentyl-4-Hydroxy-6-[2-(4-Hydroxy-Phenyl)-Ethyl]-5,6-Dihydro-Pyran-2-One

$$$$
