JST
     RDKit          2D

 18 19  0  0  0  0  0  0  0  0999 V2000
   -0.2021   -0.0674    0.0000 S   0  0  0  0  0  0  0  0  0  0  0  0
    4.0847    1.5826    0.0000 Cl  0  0  0  0  0  0  0  0  0  0  0  0
    1.2268   -0.8924    0.0000 N   0  0  0  0  0  0  0  0  0  0  0  0
    0.5123   -1.3049    0.0000 N   0  0  0  0  0  0  0  0  0  0  0  0
   -0.9166   -1.3049    0.0000 N   0  0  0  0  0  0  0  0  0  0  0  0
    1.9413    1.1701    0.0000 C   0  0  0  0  0  0  0  0  0  0  0  0
    2.6558    1.5826    0.0000 C   0  0  0  0  0  0  0  0  0  0  0  0
    3.3702    1.1701    0.0000 C   0  0  0  0  0  0  0  0  0  0  0  0
    3.3702    0.3451    0.0000 C   0  0  0  0  0  0  0  0  0  0  0  0
    2.6558   -0.0674    0.0000 C   0  0  0  0  0  0  0  0  0  0  0  0
    1.9413    0.3451    0.0000 C   0  0  0  0  0  0  0  0  0  0  0  0
    1.2268   -0.0674    0.0000 C   0  0  0  0  0  0  0  0  0  0  0  0
    0.5123    0.3451    0.0000 C   0  0  0  0  0  0  0  0  0  0  0  0
   -0.2021   -0.8924    0.0000 C   0  0  0  0  0  0  0  0  0  0  0  0
   -1.6311   -0.8924    0.0000 C   0  0  0  0  0  0  0  0  0  0  0  0
   -2.3455   -1.3049    0.0000 C   0  0  0  0  0  0  0  0  0  0  0  0
   -3.0600   -0.8924    0.0000 C   0  0  0  0  0  0  0  0  0  0  0  0
   -3.7745   -1.3049    0.0000 C   0  0  0  0  0  0  0  0  0  0  0  0
  1 13  1  0
  1 14  1  0
  2  8  1  0
  3  4  1  0
  3 12  2  0
  4 14  1  0
  5 14  2  0
  5 15  1  0
  6  7  2  0
  6 11  1  0
  7  8  1  0
  8  9  2  0
  9 10  1  0
 10 11  2  0
 11 12  1  0
 12 13  1  0
 15 16  1  0
 16 17  1  0
 17 18  2  0
M  END
>  <DRUGBANK_ID>  (1) 
DB08028

>  <COMMON_NAME>  (1) 
BUT-3-ENYL-[5-(4-CHLORO-PHENYL)-3,6-DIHYDRO-[1,3,4]THIADIAZIN-2-YLIDENE]-AMINE

$$$$
