
     RDKit          2D

 31 35  0  0  0  0  0  0  0  0999 V2000
   -1.4573   -0.7640    0.0000 C   0  0  0  0  0  0  0  0  0  0  0  0
   -1.4573   -1.5846    0.0000 C   0  0  0  0  0  0  0  0  0  0  0  0
   -2.1648   -0.3395    0.0000 C   0  0  0  0  0  0  0  0  0  0  0  0
   -2.1648   -1.9808    0.0000 C   0  0  0  0  0  0  0  0  0  0  0  0
   -2.9005   -0.7640    0.0000 C   0  0  0  0  0  0  0  0  0  0  0  0
   -2.9005   -1.5846    0.0000 C   0  0  0  0  0  0  0  0  0  0  0  0
   -0.7216   -0.3395    0.0000 C   0  0  0  0  0  0  0  0  0  0  0  0
   -0.0142   -0.7640    0.0000 C   0  0  0  0  0  0  0  0  0  0  0  0
   -0.7216   -1.9808    0.0000 C   0  0  0  0  0  0  0  0  0  0  0  0
   -0.0142   -1.5846    0.0000 C   0  0  0  0  0  0  0  0  0  0  0  0
   -0.7216    0.5093    0.0000 C   0  0  0  0  0  0  0  0  0  0  0  0
   -0.0142    0.9054    0.0000 C   0  0  0  0  0  0  0  0  0  0  0  0
    0.6932   -0.3395    0.0000 C   0  0  0  0  0  0  0  0  0  0  0  0
    0.6932    0.5093    0.0000 C   0  0  0  0  0  0  0  0  0  0  0  0
    1.4856   -0.5942    0.0000 C   0  0  0  0  0  0  0  0  0  0  0  0
    1.9666    0.0848    0.0000 C   0  0  0  0  0  0  0  0  0  0  0  0
    1.4856    0.7640    0.0000 C   0  0  0  0  0  0  0  0  0  0  0  0
    2.7872    0.3395    0.0000 O   0  0  0  0  0  0  0  0  0  0  0  0
    2.7872    1.1601    0.0000 C   0  0  0  0  0  0  0  0  0  0  0  0
    1.9666    1.4148    0.0000 O   0  0  0  0  0  0  0  0  0  0  0  0
   -3.6079   -1.9808    0.0000 O   0  0  0  0  0  0  0  0  0  0  0  0
   -0.7216   -2.8297    0.0000 F   0  0  0  0  0  0  0  0  0  0  0  0
   -1.4573    0.0848    0.0000 C   0  0  0  0  0  0  0  0  0  0  0  0
   -1.4573    0.9054    0.0000 O   0  0  0  0  0  0  0  0  0  0  0  0
    0.6932    1.3299    0.0000 C   0  0  0  0  0  0  0  0  0  0  0  0
    1.4856    1.5846    0.0000 C   0  0  0  0  0  0  0  0  0  0  0  0
    2.1929    2.0090    0.0000 C   0  0  0  0  0  0  0  0  0  0  0  0
    0.7780    1.9807    0.0000 O   0  0  0  0  0  0  0  0  0  0  0  0
    2.1929    2.8297    0.0000 O   0  0  0  0  0  0  0  0  0  0  0  0
    3.1834    1.8676    0.0000 C   0  0  0  0  0  0  0  0  0  0  0  0
    3.6079    1.1601    0.0000 C   0  0  0  0  0  0  0  0  0  0  0  0
  1 23  1  1
  2  1  1  0
  3  1  1  0
  4  2  2  0
  5  3  2  0
  6  4  1  0
  6  5  1  0
  7  1  1  0
  8  7  1  0
  9  2  1  0
  9 22  1  6
  8 10  1  6
 10  9  1  0
  7 11  1  1
 11 24  1  1
 12 11  1  0
 13  8  1  0
 14 12  1  0
 14 13  1  0
 14 25  1  1
 13 15  1  1
 16 15  1  6
 17 14  1  0
 17 16  1  0
 17 26  1  1
 18 16  1  0
 19 18  1  0
 20 17  1  0
 20 19  1  0
 21  6  2  0
 27 26  1  0
 28 26  2  0
 29 27  1  0
 30 19  1  0
 31 19  1  0
M  END
>  <DRUGBANK_ID>  (1) 
DB00180

>  <SECONDARY_ACCESSION_NUMBERS>  (1) 
APRD00976

>  <COMMON_NAME>  (1) 
Flunisolide

>  <CAS_NUMBER>  (1) 
3385-03-3

>  <UNII>  (1) 
78M02AA8KF

>  <SYNONYMS>  (1) 
Flunisolida; Flunisolide; Flunisolide anhydrous; Flunisolidum

$$$$
