BHM
     RDKit          2D

 21 21  0  0  0  0  0  0  0  0999 V2000
   -3.1493   -0.8347    0.0000 Br  0  0  0  0  0  0  0  0  0  0  0  0
   -2.4348   -1.2472    0.0000 C   0  0  0  0  0  0  0  0  0  0  0  0
   -1.7203   -0.8347    0.0000 C   0  0  0  0  0  0  0  0  0  0  0  0
   -1.3078   -1.5492    0.0000 O   0  0  0  0  0  0  0  0  0  0  0  0
   -2.1328   -0.1203    0.0000 C   0  0  0  0  0  0  0  0  0  0  0  0
   -1.0059   -0.4222    0.0000 C   0  0  0  0  0  0  0  0  0  0  0  0
   -1.0059    0.4028    0.0000 O   0  0  0  0  0  0  0  0  0  0  0  0
   -0.2914   -0.8347    0.0000 N   0  0  0  0  0  0  0  0  0  0  0  0
    0.4231   -0.4222    0.0000 C   0  0  0  0  0  0  0  0  0  0  0  0
    0.4231    0.4028    0.0000 C   0  0  0  0  0  0  0  0  0  0  0  0
    1.1376   -0.8347    0.0000 C   0  0  0  0  0  0  0  0  0  0  0  0
    1.8520   -0.4222    0.0000 C   0  0  0  0  0  0  0  0  0  0  0  0
    1.8520    0.4028    0.0000 C   0  0  0  0  0  0  0  0  0  0  0  0
    2.5665    0.8153    0.0000 N   0  0  0  0  0  0  0  0  0  0  0  0
    2.5665    1.6403    0.0000 O   0  0  0  0  0  0  0  0  0  0  0  0
    3.2810    0.4028    0.0000 O   0  0  0  0  0  0  0  0  0  0  0  0
    1.1376    0.8153    0.0000 C   0  0  0  0  0  0  0  0  0  0  0  0
    1.1376    1.6403    0.0000 C   0  0  0  0  0  0  0  0  0  0  0  0
    1.1376    2.4653    0.0000 F   0  0  0  0  0  0  0  0  0  0  0  0
    1.9626    1.6403    0.0000 F   0  0  0  0  0  0  0  0  0  0  0  0
    0.3126    1.6403    0.0000 F   0  0  0  0  0  0  0  0  0  0  0  0
  1  2  1  0
  2  3  1  0
  3  4  1  0
  3  5  1  6
  3  6  1  0
  6  7  2  0
  6  8  1  0
  8  9  1  0
  9 10  2  0
  9 11  1  0
 10 17  1  0
 11 12  2  0
 12 13  1  0
 13 14  1  0
 13 17  2  0
 14 15  2  0
 14 16  1  0
 17 18  1  0
 18 19  1  0
 18 20  1  0
 18 21  1  0
M  CHG  2  14   1  16  -1
M  END
>  <DRUGBANK_ID>  (1) 
DB07454

>  <COMMON_NAME>  (1) 
(R)-3-BROMO-2-HYDROXY-2-METHYL-N-[4-NITRO-3-(TRIFLUOROMETHYL)PHENYL]PROPANAMIDE

$$$$
