ESP
     RDKit          2D

 12 13  0  0  0  0  0  0  0  0999 V2000
   -1.5451   -0.3678    0.0000 C   0  0  0  0  0  0  0  0  0  0  0  0
   -0.7201   -0.3678    0.0000 C   0  0  0  0  0  0  0  0  0  0  0  0
   -1.9576    0.3467    0.0000 N   0  0  0  0  0  0  0  0  0  0  0  0
   -1.9576   -1.0823    0.0000 N   0  0  0  0  0  0  0  0  0  0  0  0
   -0.2352   -1.0352    0.0000 S   0  0  0  0  0  0  0  0  0  0  0  0
    0.5494   -0.7803    0.0000 C   0  0  0  0  0  0  0  0  0  0  0  0
    0.5494    0.0447    0.0000 C   0  0  0  0  0  0  0  0  0  0  0  0
   -0.2352    0.2996    0.0000 C   0  0  0  0  0  0  0  0  0  0  0  0
    1.2639   -1.1928    0.0000 N   0  0  0  0  0  0  0  0  0  0  0  0
    1.9784   -0.7803    0.0000 C   0  0  0  0  0  0  0  0  0  0  0  0
    1.9784    0.0447    0.0000 C   0  0  0  0  0  0  0  0  0  0  0  0
    1.2639    0.4572    0.0000 C   0  0  0  0  0  0  0  0  0  0  0  0
  1  2  1  0
  1  3  1  0
  1  4  2  0
  2  5  1  0
  2  8  2  0
  5  6  1  0
  6  7  2  0
  6  9  1  0
  7  8  1  0
  7 12  1  0
  9 10  2  0
 10 11  1  0
 11 12  2  0
M  CHG  1   4   1
M  END
>  <DRUGBANK_ID>  (1) 
DB03876

>  <SECONDARY_ACCESSION_NUMBERS>  (1) 
EXPT01363

>  <COMMON_NAME>  (1) 
Thieno[2,3-B]Pyridine-2-Carboxamidine

$$$$
