LL1
     RDKit          2D

 15 17  0  0  0  0  0  0  0  0999 V2000
    0.3767   -0.5607    0.0000 C   0  0  0  0  0  0  0  0  0  0  0  0
    1.0912   -0.1482    0.0000 C   0  0  0  0  0  0  0  0  0  0  0  0
    1.8057   -0.5607    0.0000 C   0  0  0  0  0  0  0  0  0  0  0  0
    1.8057   -1.3857    0.0000 C   0  0  0  0  0  0  0  0  0  0  0  0
    1.0912   -1.7982    0.0000 C   0  0  0  0  0  0  0  0  0  0  0  0
    0.3767   -1.3857    0.0000 C   0  0  0  0  0  0  0  0  0  0  0  0
   -0.4079   -1.6406    0.0000 N   0  0  0  0  0  0  0  0  0  0  0  0
   -0.8928   -0.9732    0.0000 N   0  0  0  0  0  0  0  0  0  0  0  0
   -0.4079   -0.3058    0.0000 C   0  0  0  0  0  0  0  0  0  0  0  0
   -0.6628    0.4789    0.0000 C   0  0  0  0  0  0  0  0  0  0  0  0
   -0.1108    1.0920    0.0000 C   0  0  0  0  0  0  0  0  0  0  0  0
   -0.3658    1.8766    0.0000 C   0  0  0  0  0  0  0  0  0  0  0  0
   -1.1727    2.0481    0.0000 N   0  0  0  0  0  0  0  0  0  0  0  0
   -1.7248    1.4350    0.0000 C   0  0  0  0  0  0  0  0  0  0  0  0
   -1.4698    0.6504    0.0000 C   0  0  0  0  0  0  0  0  0  0  0  0
  1  2  2  0
  2  3  1  0
  4  3  2  0
  5  4  1  0
  6  1  1  0
  6  5  2  0
  7  6  1  0
  7  8  1  0
  8  9  2  0
  9  1  1  0
  9 10  1  0
 10 15  1  0
 11 10  2  0
 11 12  1  0
 12 13  2  0
 13 14  1  0
 15 14  2  0
M  END
>  <DRUGBANK_ID>  (1) 
DB08113

>  <COMMON_NAME>  (1) 
3-pyridin-4-yl-1H-indazole

$$$$
