59A
     RDKit          2D

 19 19  0  0  0  0  0  0  0  0999 V2000
   -2.0283    1.0166    0.0000 C   0  0  0  0  0  0  0  0  0  0  0  0
   -1.6158    1.7311    0.0000 O   0  0  0  0  0  0  0  0  0  0  0  0
   -1.2033    1.0166    0.0000 C   0  0  0  0  0  0  0  0  0  0  0  0
   -0.4888    0.6041    0.0000 C   0  0  0  0  0  0  0  0  0  0  0  0
   -0.4888   -0.2209    0.0000 O   0  0  0  0  0  0  0  0  0  0  0  0
    0.2257    1.0166    0.0000 N   0  0  0  0  0  0  0  0  0  0  0  0
    0.9401    0.6041    0.0000 C   0  0  0  0  0  0  0  0  0  0  0  0
    0.9401   -0.2209    0.0000 C   0  0  0  0  0  0  0  0  0  0  0  0
    1.6546   -0.6334    0.0000 O   0  0  0  0  0  0  0  0  0  0  0  0
    1.6546    1.0166    0.0000 C   0  0  0  0  0  0  0  0  0  0  0  0
    2.3691    0.6041    0.0000 C   0  0  0  0  0  0  0  0  0  0  0  0
    1.6546    1.8416    0.0000 C   0  0  0  0  0  0  0  0  0  0  0  0
    3.0836    1.0166    0.0000 C   0  0  0  0  0  0  0  0  0  0  0  0
    0.2257   -0.6334    0.0000 O   0  0  0  0  0  0  0  0  0  0  0  0
   -2.7427    0.6041    0.0000 C   0  0  0  0  0  0  0  0  0  0  0  0
   -3.4572    1.0166    0.0000 O   0  0  0  0  0  0  0  0  0  0  0  0
   -2.7427   -0.2209    0.0000 O   0  0  0  0  0  0  0  0  0  0  0  0
   -3.4572   -0.6334    0.0000 C   0  0  0  0  0  0  0  0  0  0  0  0
   -3.4572   -1.4584    0.0000 C   0  0  0  0  0  0  0  0  0  0  0  0
  1  2  1  0
  1  3  1  0
  1 15  1  1
  2  3  1  0
  3  4  1  6
  4  5  2  0
  4  6  1  0
  7  6  1  1
  7  8  1  0
  7 10  1  0
  8  9  1  0
  8 14  2  0
 10 11  1  0
 10 12  1  1
 11 13  1  0
 15 16  2  0
 15 17  1  0
 17 18  1  0
 18 19  1  0
M  END
>  <DRUGBANK_ID>  (1) 
DB07160

>  <COMMON_NAME>  (1) 
N-{[(2S,3S)-3-(ETHOXYCARBONYL)OXIRAN-2-YL]CARBONYL}-L-ISOLEUCINE

$$$$
