UFO
     RDKit          2D

 14 15  0  0  0  0  0  0  0  0999 V2000
   -1.3238    0.2342    0.0000 C   0  0  0  0  0  0  0  0  0  0  0  0
   -0.6093    0.6467    0.0000 C   0  0  0  0  0  0  0  0  0  0  0  0
    0.1051   -0.5908    0.0000 C   0  0  0  0  0  0  0  0  0  0  0  0
   -0.6093   -1.0033    0.0000 C   0  0  0  0  0  0  0  0  0  0  0  0
   -1.3238   -0.5908    0.0000 C   0  0  0  0  0  0  0  0  0  0  0  0
   -2.0383    1.4717    0.0000 N   0  0  0  0  0  0  0  0  0  0  0  0
   -2.0383    0.6467    0.0000 C   0  0  0  0  0  0  0  0  0  0  0  0
    0.8196   -1.0033    0.0000 N   0  0  0  0  0  0  0  0  0  0  0  0
    0.8196   -1.8283    0.0000 C   0  0  0  0  0  0  0  0  0  0  0  0
    1.5341   -0.5908    0.0000 C   0  0  0  0  0  0  0  0  0  0  0  0
    1.5341    0.2342    0.0000 C   0  0  0  0  0  0  0  0  0  0  0  0
    0.8196    0.6467    0.0000 N   0  0  0  0  0  0  0  0  0  0  0  0
    0.8196    1.4717    0.0000 C   0  0  0  0  0  0  0  0  0  0  0  0
    0.1051    0.2342    0.0000 C   0  0  0  0  0  0  0  0  0  0  0  0
  1  2  2  0
  1  7  1  0
  3 14  2  0
  4  3  1  0
  4  5  2  0
  5  1  1  0
  7  6  1  0
  8  3  1  0
  8 10  1  0
  9  8  1  0
 10 11  1  0
 11 12  1  0
 12 13  1  0
 14  2  1  0
 14 12  1  0
M  END
>  <DRUGBANK_ID>  (1) 
DB08685

>  <COMMON_NAME>  (1) 
1-(1,4-dimethyl-1,2,3,4-tetrahydroquinoxalin-6-yl)methanamine

$$$$
