
     RDKit          2D

 36 39  0  0  1  0  0  0  0  0999 V2000
   -1.4289   -2.4750    0.0000 C   0  0  0  0  0  0  0  0  0  0  0  0
   -1.4289   -1.6500    0.0000 C   0  0  0  0  0  0  0  0  0  0  0  0
   -0.7145   -1.2375    0.0000 C   0  0  0  0  0  0  0  0  0  0  0  0
   -0.7145   -0.4125    0.0000 O   0  0  0  0  0  0  0  0  0  0  0  0
    0.0000   -1.6500    0.0000 O   0  0  0  0  0  0  0  0  0  0  0  0
    0.7145   -1.2375    0.0000 C   0  0  0  0  0  0  0  0  0  0  0  0
    1.4289   -1.6500    0.0000 C   0  0  0  0  0  0  0  0  0  0  0  0
    2.1434   -1.2375    0.0000 O   0  0  0  0  0  0  0  0  0  0  0  0
    1.4289   -2.4750    0.0000 N   0  0  0  0  0  0  0  0  0  0  0  0
    0.7615   -2.9599    0.0000 N   0  0  0  0  0  0  0  0  0  0  0  0
    1.0164   -3.7445    0.0000 C   0  0  0  0  0  0  0  0  0  0  0  0
    1.8414   -3.7445    0.0000 C   0  0  0  0  0  0  0  0  0  0  0  0
    2.0964   -2.9599    0.0000 C   0  0  0  0  0  0  0  0  0  0  0  0
    2.8810   -2.7050    0.0000 C   0  0  0  0  0  0  0  0  0  0  0  0
    3.4941   -3.2570    0.0000 O   0  0  0  0  0  0  0  0  0  0  0  0
    3.0525   -1.8980    0.0000 N   0  0  0  0  0  0  0  0  0  0  0  0
    3.8372   -1.6431    0.0000 C   0  0  0  0  0  0  0  0  0  0  0  0
    4.0087   -0.8361    0.0000 C   0  0  0  0  0  0  0  0  0  0  0  0
    4.7933   -0.5812    0.0000 C   0  0  0  0  0  0  0  0  0  0  0  0
    4.9648    0.2258    0.0000 C   0  0  0  0  0  0  0  0  0  0  0  0
    4.3517    0.7778    0.0000 C   0  0  0  0  0  0  0  0  0  0  0  0
    3.5671    0.5229    0.0000 C   0  0  0  0  0  0  0  0  0  0  0  0
    2.9540    1.0749    0.0000 Cl  0  0  0  0  0  0  0  0  0  0  0  0
    3.3956   -0.2841    0.0000 C   0  0  0  0  0  0  0  0  0  0  0  0
    5.4064   -1.1332    0.0000 N   0  0  0  0  0  0  0  0  0  0  0  0
    5.3202   -1.9537    0.0000 C   0  0  0  0  0  0  0  0  0  0  0  0
    6.0738   -2.2892    0.0000 N   0  0  0  0  0  0  0  0  0  0  0  0
    6.6259   -1.6761    0.0000 N   0  0  0  0  0  0  0  0  0  0  0  0
    6.2134   -0.9617    0.0000 N   0  0  0  0  0  0  0  0  0  0  0  0
    0.7145   -0.4125    0.0000 C   0  0  0  0  0  0  0  0  0  0  0  0
    0.0000   -0.0000    0.0000 C   0  0  0  0  0  0  0  0  0  0  0  0
    0.0000    0.8250    0.0000 C   0  0  0  0  0  0  0  0  0  0  0  0
    0.7145    1.2375    0.0000 C   0  0  0  0  0  0  0  0  0  0  0  0
    0.7145    2.0625    0.0000 F   0  0  0  0  0  0  0  0  0  0  0  0
    1.4289    0.8250    0.0000 C   0  0  0  0  0  0  0  0  0  0  0  0
    1.4289   -0.0000    0.0000 C   0  0  0  0  0  0  0  0  0  0  0  0
  1  2  1  0
  2  3  1  0
  3  4  2  0
  3  5  1  0
  6  5  1  6
  6  7  1  0
  6 30  1  0
  7  8  2  0
  7  9  1  0
  9 10  1  0
 10 11  2  0
 11 12  1  0
 13 12  1  0
 13  9  1  0
 13 14  1  6
 14 15  2  0
 14 16  1  0
 16 17  1  0
 17 18  1  0
 18 19  1  0
 18 24  2  0
 19 20  2  0
 19 25  1  0
 20 21  1  0
 21 22  2  0
 22 23  1  0
 22 24  1  0
 25 26  1  0
 25 29  1  0
 26 27  2  0
 27 28  1  0
 28 29  2  0
 30 31  2  0
 30 36  1  0
 31 32  1  0
 32 33  2  0
 33 34  1  0
 33 35  1  0
 35 36  2  0
M  END
>  <DRUGBANK_ID>  (1) 
DB15132

>  <COMMON_NAME>  (1) 
AZD-8165

>  <CAS_NUMBER>  (1) 
1201686-72-7

>  <UNII>  (1) 
7WO8I5IY24

$$$$
