VPU
     RDKit          2D

 28 29  0  0  0  0  0  0  0  0999 V2000
   -4.5894    0.6353    0.0000 C   0  0  0  0  0  0  0  0  0  0  0  0
   -3.8749    0.2228    0.0000 C   0  0  0  0  0  0  0  0  0  0  0  0
   -3.1604    0.6353    0.0000 C   0  0  0  0  0  0  0  0  0  0  0  0
   -2.4460    0.2228    0.0000 C   0  0  0  0  0  0  0  0  0  0  0  0
   -1.7315    0.6353    0.0000 C   0  0  0  0  0  0  0  0  0  0  0  0
   -1.7315    1.4603    0.0000 O   0  0  0  0  0  0  0  0  0  0  0  0
   -1.0170    0.2228    0.0000 N   0  0  0  0  0  0  0  0  0  0  0  0
   -0.3025    0.6353    0.0000 C   0  0  0  0  0  0  0  0  0  0  0  0
   -0.3025    1.4603    0.0000 C   0  0  0  0  0  0  0  0  0  0  0  0
   -1.0170    1.8728    0.0000 O   0  0  0  0  0  0  0  0  0  0  0  0
    0.4119    1.8728    0.0000 C   0  0  0  0  0  0  0  0  0  0  0  0
    0.4119    2.6978    0.0000 O   0  0  0  0  0  0  0  0  0  0  0  0
    1.1264    1.4603    0.0000 C   0  0  0  0  0  0  0  0  0  0  0  0
    1.8409    1.8728    0.0000 C   0  0  0  0  0  0  0  0  0  0  0  0
    2.5553    1.4603    0.0000 O   0  0  0  0  0  0  0  0  0  0  0  0
    1.1264    0.6353    0.0000 O   0  0  0  0  0  0  0  0  0  0  0  0
    0.4119    0.2228    0.0000 C   0  0  0  0  0  0  0  0  0  0  0  0
    0.4119   -0.6022    0.0000 N   0  0  0  0  0  0  0  0  0  0  0  0
    1.1264   -1.0147    0.0000 O   0  0  0  0  0  0  0  0  0  0  0  0
    1.1264   -1.8397    0.0000 C   0  0  0  0  0  0  0  0  0  0  0  0
    0.4119   -2.2522    0.0000 O   0  0  0  0  0  0  0  0  0  0  0  0
    1.8409   -2.2522    0.0000 N   0  0  0  0  0  0  0  0  0  0  0  0
    2.5553   -1.8397    0.0000 C   0  0  0  0  0  0  0  0  0  0  0  0
    2.5553   -1.0147    0.0000 C   0  0  0  0  0  0  0  0  0  0  0  0
    3.2698   -0.6022    0.0000 C   0  0  0  0  0  0  0  0  0  0  0  0
    3.9843   -1.0147    0.0000 C   0  0  0  0  0  0  0  0  0  0  0  0
    3.9843   -1.8397    0.0000 C   0  0  0  0  0  0  0  0  0  0  0  0
    3.2698   -2.2522    0.0000 C   0  0  0  0  0  0  0  0  0  0  0  0
  1  2  1  0
  2  3  1  0
  3  4  1  0
  4  5  1  0
  5  6  2  0
  5  7  1  0
  8  7  1  6
  8  9  1  0
  8 17  1  0
  9 10  1  1
  9 11  1  0
 11 12  1  6
 11 13  1  0
 13 14  1  1
 13 16  1  0
 14 15  1  0
 16 17  1  0
 17 18  2  0
 18 19  1  0
 19 20  1  0
 20 21  2  0
 20 22  1  0
 22 23  1  0
 23 24  2  0
 23 28  1  0
 24 25  1  0
 25 26  2  0
 26 27  1  0
 27 28  2  0
M  END
>  <DRUGBANK_ID>  (1) 
DB08704

>  <COMMON_NAME>  (1) 
[[(3R,4R,5S,6R)-4,5-dihydroxy-6-(hydroxymethyl)-3-(pentanoylamino)oxan-2-ylidene]amino] N-phenylcarbamate

$$$$
