
     RDKit          2D

 25 24  0  0  1  0  0  0  0  0999 V2000
   -9.1263    2.5046    0.0000 C   0  0  0  0  0  0  0  0  0  0  0  0
   -8.4118    2.0921    0.0000 C   0  0  0  0  0  0  0  0  0  0  0  0
   -8.4118    1.2671    0.0000 C   0  0  0  0  0  0  0  0  0  0  0  0
   -7.6974    0.8546    0.0000 C   0  0  0  0  0  0  0  0  0  0  0  0
   -7.6974    0.0296    0.0000 C   0  0  0  0  0  0  0  0  0  0  0  0
   -6.9829   -0.3829    0.0000 C   0  0  0  0  0  0  0  0  0  0  0  0
   -6.9829   -1.2079    0.0000 C   0  0  0  0  0  0  0  0  0  0  0  0
   -6.2684   -1.6204    0.0000 C   0  0  0  0  0  0  0  0  0  0  0  0
   -6.2684   -2.4454    0.0000 C   0  0  0  0  0  0  0  0  0  0  0  0
   -5.5539   -2.8579    0.0000 C   0  0  0  0  0  0  0  0  0  0  0  0
   -4.8395   -2.4454    0.0000 C   0  0  0  0  0  0  0  0  0  0  0  0
   -4.1250   -2.8579    0.0000 C   0  0  0  0  0  0  0  0  0  0  0  0
   -3.4105   -2.4454    0.0000 C   0  0  0  0  0  0  0  0  0  0  0  0
   -2.6961   -2.8579    0.0000 C   0  0  0  0  0  0  0  0  0  0  0  0
   -1.9816   -2.4454    0.0000 C   0  0  0  0  0  0  0  0  0  0  0  0
   -1.2671   -2.8579    0.0000 C   0  0  0  0  0  0  0  0  0  0  0  0
   -0.5526   -2.4454    0.0000 C   0  0  0  0  0  0  0  0  0  0  0  0
    0.1618   -2.8579    0.0000 C   0  0  0  0  0  0  0  0  0  0  0  0
    3.0197   -2.8579    0.0000 C   0  0  0  0  0  0  0  0  0  0  0  0
    2.3052   -2.4454    0.0000 C   0  0  0  0  0  0  0  0  0  0  0  0
    1.5908   -2.8579    0.0000 C   0  0  0  0  0  0  0  0  0  0  0  0
    3.7342   -2.4454    0.0000 O   0  0  0  0  0  0  0  0  0  0  0  0
    2.3052   -1.6204    0.0000 O   0  0  0  0  0  0  0  0  0  0  0  0
    1.5908   -3.6829    0.0000 O   0  0  0  0  0  0  0  0  0  0  0  0
    0.8763   -2.4454    0.0000 O   0  0  0  0  0  0  0  0  0  0  0  0
  2  1  1  0
  3  2  1  0
  4  3  1  0
  5  4  1  0
  6  5  1  0
  7  6  1  0
  8  7  1  0
  9  8  1  0
 10  9  2  0
 11 10  1  0
 12 11  1  0
 13 12  1  0
 14 13  1  0
 15 14  1  0
 16 15  1  0
 17 16  1  0
 18 17  1  0
 20 19  1  0
 20 23  1  6
 21 20  1  0
 22 19  1  0
 24 21  2  0
 25 18  1  0
 25 21  1  0
M  END
>  <DRUGBANK_ID>  (1) 
DB03831

>  <SECONDARY_ACCESSION_NUMBERS>  (1) 
EXPT02220

>  <COMMON_NAME>  (1) 
[(Z)-octadec-9-enyl] (2R)-2,3-bis(oxidanyl)propanoate

$$$$
