
     RDKit          2D

 32 35  0  0  0  0  0  0  0  0999 V2000
   -1.3328   -3.9584    0.0000 C   0  0  0  0  0  0  0  0  0  0  0  0
   -1.3328   -3.1334    0.0000 C   0  0  0  0  0  0  0  0  0  0  0  0
   -0.6183   -2.7209    0.0000 S   0  0  0  0  0  0  0  0  0  0  0  0
   -0.2058   -3.4354    0.0000 O   0  0  0  0  0  0  0  0  0  0  0  0
   -1.0308   -2.0065    0.0000 O   0  0  0  0  0  0  0  0  0  0  0  0
    0.0962   -2.3084    0.0000 C   0  0  0  0  0  0  0  0  0  0  0  0
    0.0962   -1.4834    0.0000 C   0  0  0  0  0  0  0  0  0  0  0  0
    0.8106   -1.0709    0.0000 C   0  0  0  0  0  0  0  0  0  0  0  0
    0.8106   -0.2459    0.0000 C   0  0  0  0  0  0  0  0  0  0  0  0
    0.0962    0.1666    0.0000 C   0  0  0  0  0  0  0  0  0  0  0  0
    0.0962    0.9916    0.0000 C   0  0  0  0  0  0  0  0  0  0  0  0
    0.8106    1.4041    0.0000 C   0  0  0  0  0  0  0  0  0  0  0  0
    1.5251    0.9916    0.0000 C   0  0  0  0  0  0  0  0  0  0  0  0
    1.5251    0.1666    0.0000 C   0  0  0  0  0  0  0  0  0  0  0  0
    0.9481    0.8541    0.0000 C   0  0  0  0  0  0  0  0  0  0  0  0
    0.9481    0.3041    0.0000 C   0  0  0  0  0  0  0  0  0  0  0  0
    0.8106    2.2291    0.0000 C   0  0  0  0  0  0  0  0  0  0  0  0
    0.1432    2.7140    0.0000 N   0  0  0  0  0  0  0  0  0  0  0  0
    0.3981    3.4986    0.0000 N   0  0  0  0  0  0  0  0  0  0  0  0
    1.2231    3.4986    0.0000 C   0  0  0  0  0  0  0  0  0  0  0  0
    1.4781    2.7140    0.0000 N   0  0  0  0  0  0  0  0  0  0  0  0
    2.2627    2.4590    0.0000 C   0  0  0  0  0  0  0  0  0  0  0  0
    1.7081    4.1660    0.0000 C   0  0  0  0  0  0  0  0  0  0  0  0
    1.3725    4.9197    0.0000 C   0  0  0  0  0  0  0  0  0  0  0  0
    1.8574    5.5872    0.0000 C   0  0  0  0  0  0  0  0  0  0  0  0
    2.6779    5.5009    0.0000 C   0  0  0  0  0  0  0  0  0  0  0  0
    3.0135    4.7472    0.0000 C   0  0  0  0  0  0  0  0  0  0  0  0
    2.5285    4.0798    0.0000 C   0  0  0  0  0  0  0  0  0  0  0  0
    2.8641    3.3261    0.0000 C   0  0  0  0  0  0  0  0  0  0  0  0
    3.1997    2.5725    0.0000 F   0  0  0  0  0  0  0  0  0  0  0  0
    2.1104    2.9906    0.0000 F   0  0  0  0  0  0  0  0  0  0  0  0
    3.6178    3.6617    0.0000 F   0  0  0  0  0  0  0  0  0  0  0  0
  1  2  1  0
  2  3  1  0
  3  4  2  0
  3  5  2  0
  3  6  1  0
  6  7  1  0
  7  8  1  0
  8  9  1  0
  9 10  1  0
  9 14  1  0
  9 16  1  0
 10 11  1  0
 11 12  1  0
 12 13  1  0
 12 15  1  0
 12 17  1  0
 13 14  1  0
 15 16  1  0
 17 18  2  0
 17 21  1  0
 18 19  1  0
 19 20  2  0
 20 21  1  0
 20 23  1  0
 21 22  1  0
 23 24  2  0
 23 28  1  0
 24 25  1  0
 25 26  2  0
 26 27  1  0
 27 28  2  0
 28 29  1  0
 29 30  1  0
 29 31  1  0
 29 32  1  0
M  END
>  <DRUGBANK_ID>  (1) 
DB15209

>  <COMMON_NAME>  (1) 
MK-0736

>  <CAS_NUMBER>  (1) 
719272-79-4

>  <UNII>  (1) 
9RT16RBU2Y

$$$$
