
     RDKit          2D

 15 16  0  0  0  0  0  0  0  0999 V2000
   -1.9201    0.8250    0.0000 C   0  0  0  0  0  0  0  0  0  0  0  0
   -1.2057   -0.4125    0.0000 C   0  0  0  0  0  0  0  0  0  0  0  0
   -0.4912    0.8250    0.0000 C   0  0  0  0  0  0  0  0  0  0  0  0
   -2.3666   -0.8130    0.0000 C   0  0  0  0  0  0  0  0  0  0  0  0
   -0.8978   -0.8130    0.0000 C   0  0  0  0  0  0  0  0  0  0  0  0
   -1.2057    1.2374    0.0000 N   0  0  0  0  0  0  0  0  0  0  0  0
   -0.4912    0.0000    0.0000 N   0  0  0  0  0  0  0  0  0  0  0  0
   -1.9201    0.0000    0.0000 N   0  0  0  0  0  0  0  0  0  0  0  0
   -1.6272    0.3790    0.0000 C   0  0  0  0  0  0  0  0  0  0  0  0
   -1.6272   -0.5127    0.0000 N   0  0  0  0  0  0  0  0  0  0  0  0
    0.2232   -0.4125    0.0000 C   0  0  0  0  0  0  0  0  0  0  0  0
    0.9376    0.0000    0.0000 C   0  0  0  0  0  0  0  0  0  0  0  0
    1.6521   -0.4125    0.0000 C   0  0  0  0  0  0  0  0  0  0  0  0
    2.3666    0.0000    0.0000 Cl  0  0  0  0  0  0  0  0  0  0  0  0
    0.6759   -0.9569    0.0000 Cl  0  0  0  0  0  0  0  0  0  0  0  0
  1  8  1  0
  4 10  1  0
  4  8  1  0
  5  7  1  0
  5 10  1  0
  6  1  1  0
  6  3  1  0
  6  9  1  0
  7  3  1  0
  7  2  1  0
  7 11  1  0
  8  2  1  0
 10  9  1  0
 11 12  1  0
 12 13  2  3
 13 14  1  0
M  CHG  2   7   1  15  -1
M  END
>  <DRUGBANK_ID>  (1) 
DB14198

>  <COMMON_NAME>  (1) 
Quaternium-15

>  <CAS_NUMBER>  (1) 
4080-31-3

>  <UNII>  (1) 
E40U03LEM0

>  <SYNONYMS>  (1) 
1-(3-Chloroallyl)-3,5,7-triaza-1-azoniaadamantane chloride; 3,5,7-Triaza-1-azoniaadamantane, 1-(3-chloroallyl)-, chloride; 3,5,7-Triaza-1-azoniatricyclo(3.3.1.13,7)decane, 1-(3-chloro-2-propen-1-yl)-, chloride (1:1); Methenamine 3-chloroallylochloride; N-(3-Chloroallyl)hexaminium chloride; Quaternium 15

$$$$
