
     RDKit          2D

 21 24  0  0  0  0  0  0  0  0999 V2000
   -0.4964   -0.9423    0.0000 N   0  0  0  0  0  0  0  0  0  0  0  0
   -0.0101   -0.2938    0.0000 C   0  0  0  0  0  0  0  0  0  0  0  0
   -1.2666   -0.7195    0.0000 C   0  0  0  0  0  0  0  0  0  0  0  0
   -1.2666    0.1316    0.0000 C   0  0  0  0  0  0  0  0  0  0  0  0
   -0.4964    0.3749    0.0000 C   0  0  0  0  0  0  0  0  0  0  0  0
   -1.9962   -1.1046    0.0000 C   0  0  0  0  0  0  0  0  0  0  0  0
   -1.9962    0.5369    0.0000 C   0  0  0  0  0  0  0  0  0  0  0  0
   -2.6852    0.1316    0.0000 C   0  0  0  0  0  0  0  0  0  0  0  0
   -2.6852   -0.7195    0.0000 C   0  0  0  0  0  0  0  0  0  0  0  0
    2.0570   -0.6991    0.0000 N   0  0  0  0  0  0  0  0  0  0  0  0
    1.2869   -0.9626    0.0000 C   0  0  0  0  0  0  0  0  0  0  0  0
    2.0975    0.1114    0.0000 C   0  0  0  0  0  0  0  0  0  0  0  0
    1.2869    0.3749    0.0000 C   0  0  0  0  0  0  0  0  0  0  0  0
    0.8207   -0.2938    0.0000 C   0  0  0  0  0  0  0  0  0  0  0  0
    2.6852    0.6789    0.0000 C   0  0  0  0  0  0  0  0  0  0  0  0
    1.1246    1.1856    0.0000 C   0  0  0  0  0  0  0  0  0  0  0  0
    1.7124    1.7124    0.0000 C   0  0  0  0  0  0  0  0  0  0  0  0
    2.5231    1.4489    0.0000 C   0  0  0  0  0  0  0  0  0  0  0  0
    1.0233   -1.7530    0.0000 O   0  0  0  0  0  0  0  0  0  0  0  0
   -0.2330    1.1450    0.0000 N   0  0  0  0  0  0  0  0  0  0  0  0
   -0.8005    1.7530    0.0000 O   0  0  0  0  0  0  0  0  0  0  0  0
  2  1  1  0
  3  1  1  0
  4  3  2  0
  5  2  1  0
  5  4  1  0
  6  3  1  0
  7  4  1  0
  8  7  2  0
  9  6  2  0
  9  8  1  0
 11 10  1  0
 12 10  1  0
 13 12  2  0
 14  2  2  0
 14 11  1  0
 14 13  1  0
 15 12  1  0
 16 13  1  0
 17 16  2  0
 18 15  2  0
 18 17  1  0
 19 11  2  0
 20  5  2  0
 21 20  1  0
M  END
>  <DRUGBANK_ID>  (1) 
DB02052

>  <SECONDARY_ACCESSION_NUMBERS>  (1) 
EXPT01949

>  <COMMON_NAME>  (1) 
Indirubin-3'-monoxime

>  <UNII>  (1) 
X6CSG51MBQ

>  <SYNONYMS>  (1) 
1H,1'H-[2,3']biindolylidene3,2'-dione-3-oxime

$$$$
