
     RDKit          2D

 19 20  0  0  0  0  0  0  0  0999 V2000
    8.5736    0.8250    0.0000 C   0  0  0  0  0  0  0  0  0  0  0  0
    7.8591    1.2375    0.0000 C   0  0  0  0  0  0  0  0  0  0  0  0
    8.5736    0.0000    0.0000 C   0  0  0  0  0  0  0  0  0  0  0  0
    7.1447    0.8250    0.0000 C   0  0  0  0  0  0  0  0  0  0  0  0
    7.8591   -0.4125    0.0000 C   0  0  0  0  0  0  0  0  0  0  0  0
    5.7157    0.0000    0.0000 C   0  0  0  0  0  0  0  0  0  0  0  0
    6.4302   -1.2375    0.0000 C   0  0  0  0  0  0  0  0  0  0  0  0
    5.0012   -0.4125    0.0000 C   0  0  0  0  0  0  0  0  0  0  0  0
    5.7157   -1.6500    0.0000 C   0  0  0  0  0  0  0  0  0  0  0  0
    3.5723   -1.2375    0.0000 C   0  0  0  0  0  0  0  0  0  0  0  0
    2.8578   -1.6500    0.0000 C   0  0  0  0  0  0  0  0  0  0  0  0
    7.1447    0.0000    0.0000 C   0  0  0  0  0  0  0  0  0  0  0  0
    6.4302   -0.4125    0.0000 C   0  0  0  0  0  0  0  0  0  0  0  0
    5.0012   -1.2375    0.0000 C   0  0  0  0  0  0  0  0  0  0  0  0
    4.2868   -1.6500    0.0000 C   0  0  0  0  0  0  0  0  0  0  0  0
    2.1434   -1.2375    0.0000 C   0  0  0  0  0  0  0  0  0  0  0  0
    4.2868   -2.4750    0.0000 O   0  0  0  0  0  0  0  0  0  0  0  0
    1.4289   -1.6500    0.0000 O   0  0  0  0  0  0  0  0  0  0  0  0
    2.1434   -0.4125    0.0000 O   0  0  0  0  0  0  0  0  0  0  0  0
  2  1  2  0
  3  1  1  0
  4  2  1  0
  5  3  2  0
  8  6  2  0
  9  7  1  0
 11 10  1  0
 12  4  2  0
 12  5  1  0
 13  6  1  0
 13  7  2  0
 13 12  1  0
 14  8  1  0
 14  9  2  0
 15 10  1  0
 15 14  1  0
 16 11  1  0
 17 15  2  0
 18 16  2  0
 19 16  1  0
M  END
>  <DRUGBANK_ID>  (1) 
DB08981

>  <COMMON_NAME>  (1) 
Fenbufen

>  <CAS_NUMBER>  (1) 
36330-85-5

>  <UNII>  (1) 
9815R1WR9B

>  <SYNONYMS>  (1) 
3-(4-Biphenylylcarbonyl)propionic acid; 3-(4-Phenylbenzoyl)propionic acid; 4-(4-Biphenylyl)-4-oxobutyric acid; Fenbufén; Fenbufen; Fenbufène; Fenbufenum; gamma-oxo(1,1'-biphenyl)-4-butanoic acid

$$$$
