BIF
     RDKit          2D

 18 19  0  0  0  0  0  0  0  0999 V2000
    1.1756    0.8366    0.0000 N   0  0  0  0  0  0  0  0  0  0  0  0
    1.8901    1.2491    0.0000 C   0  0  0  0  0  0  0  0  0  0  0  0
    1.8901    2.0741    0.0000 C   0  0  0  0  0  0  0  0  0  0  0  0
    1.1756    2.4866    0.0000 O   0  0  0  0  0  0  0  0  0  0  0  0
    2.6046    0.8366    0.0000 C   0  0  0  0  0  0  0  0  0  0  0  0
    2.6046    0.0116    0.0000 C   0  0  0  0  0  0  0  0  0  0  0  0
    3.3190   -0.4009    0.0000 C   0  0  0  0  0  0  0  0  0  0  0  0
    3.3190   -1.2259    0.0000 C   0  0  0  0  0  0  0  0  0  0  0  0
    2.6046   -1.6384    0.0000 C   0  0  0  0  0  0  0  0  0  0  0  0
    1.8901   -1.2259    0.0000 C   0  0  0  0  0  0  0  0  0  0  0  0
    1.8901   -0.4009    0.0000 C   0  0  0  0  0  0  0  0  0  0  0  0
    3.3190   -3.7009    0.0000 C   0  0  0  0  0  0  0  0  0  0  0  0
    2.6046   -4.1134    0.0000 C   0  0  0  0  0  0  0  0  0  0  0  0
    1.8901   -3.7009    0.0000 C   0  0  0  0  0  0  0  0  0  0  0  0
    1.8901   -2.8759    0.0000 C   0  0  0  0  0  0  0  0  0  0  0  0
    2.6046   -2.4634    0.0000 C   0  0  0  0  0  0  0  0  0  0  0  0
    3.3190   -2.8759    0.0000 C   0  0  0  0  0  0  0  0  0  0  0  0
    2.6046    2.4866    0.0000 O   0  0  0  0  0  0  0  0  0  0  0  0
  2  1  1  6
  2  3  1  0
  2  5  1  0
  3  4  1  0
  3 18  2  0
  5  6  1  0
  6  7  2  0
  6 11  1  0
  7  8  1  0
  8  9  2  0
  9 10  1  0
  9 16  1  0
 10 11  2  0
 12 13  2  0
 12 17  1  0
 13 14  1  0
 14 15  2  0
 15 16  1  0
 16 17  2  0
M  END
>  <DRUGBANK_ID>  (1) 
DB04639

>  <COMMON_NAME>  (1) 
Biphenylalanine

$$$$
