1569
     RDKit          2D

 25 28  0  0  1  0  0  0  0  0999 V2000
   -0.3562    0.2046    0.0000 C   0  0  0  0  0  0  0  0  0  0  0  0
   -0.3562   -0.6204    0.0000 C   0  0  0  0  0  0  0  0  0  0  0  0
    0.3583   -0.2047    0.0000 C   0  0  0  0  0  0  0  0  0  0  0  0
   -0.3562   -1.4515    0.0000 C   0  0  0  0  0  0  0  0  0  0  0  0
   -1.0687   -0.2047    0.0000 C   0  0  0  0  0  0  0  0  0  0  0  0
    1.0708   -0.6204    0.0000 C   0  0  0  0  0  0  0  0  0  0  0  0
    0.3583    0.6264    0.0000 C   0  0  0  0  0  0  0  0  0  0  0  0
    0.3583   -1.8672    0.0000 C   0  0  0  0  0  0  0  0  0  0  0  0
   -1.0687   -1.8672    0.0000 C   0  0  0  0  0  0  0  0  0  0  0  0
   -1.7812   -0.6204    0.0000 C   0  0  0  0  0  0  0  0  0  0  0  0
    1.7833   -0.2047    0.0000 C   0  0  0  0  0  0  0  0  0  0  0  0
    1.0708   -1.4515    0.0000 C   0  0  0  0  0  0  0  0  0  0  0  0
   -0.3583    1.0400    0.0000 O   0  0  0  0  0  0  0  0  0  0  0  0
    1.0708    1.0420    0.0000 C   0  0  0  0  0  0  0  0  0  0  0  0
   -1.7812   -1.4515    0.0000 C   0  0  0  0  0  0  0  0  0  0  0  0
   -2.4958   -0.2088    0.0000 C   0  0  0  0  0  0  0  0  0  0  0  0
    1.7833    0.6264    0.0000 C   0  0  0  0  0  0  0  0  0  0  0  0
    3.2083   -0.2047    0.0000 C   0  0  0  0  0  0  0  0  0  0  0  0
   -2.4958   -1.8651    0.0000 O   0  0  0  0  0  0  0  0  0  0  0  0
   -3.2103   -0.6204    0.0000 O   0  0  0  0  0  0  0  0  0  0  0  0
    1.7833    1.4515    0.0000 C   0  0  0  0  0  0  0  0  0  0  0  0
    2.4958    1.0420    0.0000 C   0  0  0  0  0  0  0  0  0  0  0  0
    3.2083    0.6264    0.0000 C   0  0  0  0  0  0  0  0  0  0  0  0
    3.2103    1.4557    0.0000 C   0  0  0  0  0  0  0  0  0  0  0  0
    2.4958    1.8672    0.0000 O   0  0  0  0  0  0  0  0  0  0  0  0
  2  1  1  1
  2  4  1  0
  2  5  1  0
  3  2  1  0
  3  7  1  1
  4  8  1  0
  4  9  2  0
  5 10  2  0
  6  3  1  0
  6 12  1  6
  7 13  1  6
  7 14  1  0
  8 12  1  0
  9 15  1  0
 10 15  1  0
 10 16  1  0
 11  6  1  0
 11 17  1  0
 11 18  1  1
 15 19  2  0
 16 20  2  0
 17 14  1  0
 17 21  1  1
 17 22  1  0
 18 23  1  0
 22 23  1  0
 22 24  1  6
 22 25  1  0
M  END
>  <DRUGBANK_ID>  (1) 
DB01569

>  <COMMON_NAME>  (1) 
Formebolone

>  <CAS_NUMBER>  (1) 
2454-11-7

>  <UNII>  (1) 
Z2MMV08KUQ

>  <SYNONYMS>  (1) 
11-alpha,17-beta-Dihydroxy-17-methyl-3-oxoandrosta-1,4-diene-2-carboxaldehyde; 2-Formyl-11-alpha-hydroxy-delta(sup 1)-methyltestosterone; 2-formyl-11α-hydroxy-17α-methyl-δ1-testosterone; 2-Formyl-17-alpha-methylandrosta-1,4-diene-11-alpha,17-beta-diol-3-one; Esiclene; Formebolona; Formebolone; Formebolonum; Formyldienolone

$$$$
