C62
     RDKit          2D

 23 25  0  0  0  0  0  0  0  0999 V2000
   -0.4861    3.9699    0.0000 O   0  0  0  0  0  0  0  0  0  0  0  0
   -0.4861    3.1449    0.0000 S   0  0  0  0  0  0  0  0  0  0  0  0
    0.3389    3.1449    0.0000 O   0  0  0  0  0  0  0  0  0  0  0  0
   -1.3111    3.1449    0.0000 N   0  0  0  0  0  0  0  0  0  0  0  0
   -0.4861    2.3199    0.0000 C   0  0  0  0  0  0  0  0  0  0  0  0
    0.2284    1.9074    0.0000 C   0  0  0  0  0  0  0  0  0  0  0  0
    0.2284    1.0824    0.0000 C   0  0  0  0  0  0  0  0  0  0  0  0
   -0.4861    0.6699    0.0000 C   0  0  0  0  0  0  0  0  0  0  0  0
   -1.2006    1.0824    0.0000 C   0  0  0  0  0  0  0  0  0  0  0  0
   -1.2006    1.9074    0.0000 C   0  0  0  0  0  0  0  0  0  0  0  0
   -0.4861   -0.1551    0.0000 C   0  0  0  0  0  0  0  0  0  0  0  0
    0.1813   -0.6400    0.0000 O   0  0  0  0  0  0  0  0  0  0  0  0
   -1.1535   -0.6400    0.0000 C   0  0  0  0  0  0  0  0  0  0  0  0
   -0.8986   -1.4246    0.0000 C   0  0  0  0  0  0  0  0  0  0  0  0
   -0.0736   -1.4246    0.0000 C   0  0  0  0  0  0  0  0  0  0  0  0
    0.4113   -2.0920    0.0000 C   0  0  0  0  0  0  0  0  0  0  0  0
    1.2318   -2.0058    0.0000 C   0  0  0  0  0  0  0  0  0  0  0  0
    1.6443   -1.2913    0.0000 S   0  0  0  0  0  0  0  0  0  0  0  0
    2.4513   -1.4629    0.0000 C   0  0  0  0  0  0  0  0  0  0  0  0
    2.5375   -2.2833    0.0000 N   0  0  0  0  0  0  0  0  0  0  0  0
    1.7838   -2.6189    0.0000 C   0  0  0  0  0  0  0  0  0  0  0  0
    1.6123   -3.4259    0.0000 O   0  0  0  0  0  0  0  0  0  0  0  0
    3.0644   -0.9108    0.0000 O   0  0  0  0  0  0  0  0  0  0  0  0
  2  1  2  0
  2  4  1  0
  2  5  1  0
  3  2  2  0
  5  6  2  0
  5 10  1  0
  7  6  1  0
  8  7  2  0
  8 11  1  0
  9  8  1  0
 10  9  2  0
 11 12  1  0
 11 13  2  0
 12 15  1  0
 13 14  1  0
 14 15  2  0
 15 16  1  0
 16 17  2  0
 17 18  1  0
 17 21  1  0
 18 19  1  0
 19 20  1  0
 19 23  2  0
 20 21  1  0
 21 22  2  0
M  END
>  <DRUGBANK_ID>  (1) 
DB07531

>  <COMMON_NAME>  (1) 
4-{5-[(Z)-(2,4-DIOXO-1,3-THIAZOLIDIN-5-YLIDENE)METHYL]FURAN-2-YL}BENZENESULFONAMIDE

$$$$
