
     RDKit          2D

 21 24  0  0  0  0  0  0  0  0999 V2000
   -2.4141   -0.2078    0.0000 C   0  0  0  0  0  0  0  0  0  0  0  0
   -2.4153   -1.0342    0.0000 C   0  0  0  0  0  0  0  0  0  0  0  0
   -1.7011   -1.4467    0.0000 C   0  0  0  0  0  0  0  0  0  0  0  0
   -1.7029    0.2042    0.0000 C   0  0  0  0  0  0  0  0  0  0  0  0
   -0.9886   -0.2041    0.0000 C   0  0  0  0  0  0  0  0  0  0  0  0
   -0.9878   -1.0301    0.0000 C   0  0  0  0  0  0  0  0  0  0  0  0
   -0.2732   -1.4406    0.0000 C   0  0  0  0  0  0  0  0  0  0  0  0
    0.4408   -1.0263    0.0000 C   0  0  0  0  0  0  0  0  0  0  0  0
   -0.2789    0.2093    0.0000 C   0  0  0  0  0  0  0  0  0  0  0  0
    0.4371   -0.2006    0.0000 C   0  0  0  0  0  0  0  0  0  0  0  0
    0.4294    1.4467    0.0000 C   0  0  0  0  0  0  0  0  0  0  0  0
   -0.2858    1.0321    0.0000 C   0  0  0  0  0  0  0  0  0  0  0  0
    1.1456    1.0366    0.0000 C   0  0  0  0  0  0  0  0  0  0  0  0
    1.1456    0.2115    0.0000 C   0  0  0  0  0  0  0  0  0  0  0  0
    1.9303   -0.0433    0.0000 O   0  0  0  0  0  0  0  0  0  0  0  0
    2.4153    0.6240    0.0000 C   0  0  0  0  0  0  0  0  0  0  0  0
    1.9303    1.2916    0.0000 C   0  0  0  0  0  0  0  0  0  0  0  0
    0.4273    2.2707    0.0000 O   0  0  0  0  0  0  0  0  0  0  0  0
   -1.0014    1.4407    0.0000 O   0  0  0  0  0  0  0  0  0  0  0  0
   -1.6993   -2.2707    0.0000 C   0  0  0  0  0  0  0  0  0  0  0  0
    2.1850    2.0753    0.0000 C   0  0  0  0  0  0  0  0  0  0  0  0
  1  2  2  0
  2  3  1  0
  3  6  2  0
  3 20  1  0
  4  1  1  0
  5  6  1  0
  5  4  2  0
  6  7  1  0
  7  8  2  0
  8 10  1  0
  9 12  1  0
  9  5  1  0
  9 10  2  0
 10 14  1  0
 11 12  1  0
 11 18  2  0
 12 19  2  0
 13 11  1  0
 13 14  2  0
 14 15  1  0
 15 16  1  0
 16 17  2  0
 17 13  1  0
 17 21  1  0
M  END
>  <DRUGBANK_ID>  (1) 
DB16886

>  <COMMON_NAME>  (1) 
Tanshinone I

>  <CAS_NUMBER>  (1) 
568-73-0

>  <UNII>  (1) 
03UUH3J385

>  <SYNONYMS>  (1) 
Tanshinon I; Tanshinone A

$$$$
