
     RDKit          2D

 20 23  0  0  0  0  0  0  0  0999 V2000
   -2.6768   -0.7746    0.0000 N   0  0  0  0  0  0  0  0  0  0  0  0
   -1.8922   -0.5196    0.0000 C   0  0  0  0  0  0  0  0  0  0  0  0
   -1.4072   -1.1870    0.0000 C   0  0  0  0  0  0  0  0  0  0  0  0
   -1.8921   -1.8544    0.0000 C   0  0  0  0  0  0  0  0  0  0  0  0
   -2.6768   -1.5996    0.0000 C   0  0  0  0  0  0  0  0  0  0  0  0
   -0.4632   -0.5195    0.0000 N   0  0  0  0  0  0  0  0  0  0  0  0
   -1.1777   -0.1070    0.0000 C   0  0  0  0  0  0  0  0  0  0  0  0
   -1.1778    0.7179    0.0000 N   0  0  0  0  0  0  0  0  0  0  0  0
   -0.4633    1.1304    0.0000 C   0  0  0  0  0  0  0  0  0  0  0  0
    0.2512   -0.1070    0.0000 C   0  0  0  0  0  0  0  0  0  0  0  0
    0.2511    0.7180    0.0000 C   0  0  0  0  0  0  0  0  0  0  0  0
    1.0358    0.9729    0.0000 O   0  0  0  0  0  0  0  0  0  0  0  0
    1.0358   -0.3619    0.0000 C   0  0  0  0  0  0  0  0  0  0  0  0
    1.5207    0.3055    0.0000 C   0  0  0  0  0  0  0  0  0  0  0  0
    2.3412    0.2193    0.0000 C   0  0  0  0  0  0  0  0  0  0  0  0
    2.6768   -0.5343    0.0000 C   0  0  0  0  0  0  0  0  0  0  0  0
    2.1919   -1.2017    0.0000 C   0  0  0  0  0  0  0  0  0  0  0  0
    1.3714   -1.1156    0.0000 C   0  0  0  0  0  0  0  0  0  0  0  0
    2.5275   -1.9554    0.0000 Cl  0  0  0  0  0  0  0  0  0  0  0  0
   -0.4633    1.9554    0.0000 O   0  0  0  0  0  0  0  0  0  0  0  0
  1  2  1  0
  2  3  1  0
  3  4  1  0
  4  5  1  0
  5  1  1  0
  6  7  2  0
  7  8  1  0
  2  7  1  6
  8  9  1  0
  9 20  2  0
 10  6  1  0
 10 11  2  0
 11 12  1  0
 11  9  1  0
 12 14  1  0
 13 10  1  0
 13 14  2  0
 14 15  1  0
 15 16  2  0
 16 17  1  0
 17 18  2  0
 17 19  1  0
 18 13  1  0
M  END
>  <DRUGBANK_ID>  (1) 
DB12357

>  <COMMON_NAME>  (1) 
BMS-863233

>  <CAS_NUMBER>  (1) 
1169558-38-6

>  <UNII>  (1) 
8QK62S7492

$$$$
