2A6
     RDKit          2D

 24 27  0  0  0  0  0  0  0  0999 V2000
    0.6470    1.4019    0.0000 C   0  0  0  0  0  0  0  0  0  0  0  0
   -2.0515    0.9894    0.0000 C   0  0  0  0  0  0  0  0  0  0  0  0
   -0.7819   -1.0731    0.0000 C   0  0  0  0  0  0  0  0  0  0  0  0
   -0.7819   -1.8981    0.0000 C   0  0  0  0  0  0  0  0  0  0  0  0
   -0.0674   -2.3106    0.0000 C   0  0  0  0  0  0  0  0  0  0  0  0
   -0.0674   -3.1356    0.0000 C   0  0  0  0  0  0  0  0  0  0  0  0
   -0.7819   -3.5481    0.0000 C   0  0  0  0  0  0  0  0  0  0  0  0
   -1.4964   -3.1356    0.0000 C   0  0  0  0  0  0  0  0  0  0  0  0
   -1.4964   -2.3106    0.0000 C   0  0  0  0  0  0  0  0  0  0  0  0
    0.6470    3.8769    0.0000 C   0  0  0  0  0  0  0  0  0  0  0  0
    1.3615    4.2894    0.0000 C   0  0  0  0  0  0  0  0  0  0  0  0
    2.0760    3.8769    0.0000 C   0  0  0  0  0  0  0  0  0  0  0  0
    2.0760    3.0519    0.0000 C   0  0  0  0  0  0  0  0  0  0  0  0
    0.6470    0.5769    0.0000 N   0  0  0  0  0  0  0  0  0  0  0  0
   -0.0674    0.1644    0.0000 C   0  0  0  0  0  0  0  0  0  0  0  0
   -0.0674   -0.6606    0.0000 O   0  0  0  0  0  0  0  0  0  0  0  0
   -0.7819    0.5769    0.0000 C   0  0  0  0  0  0  0  0  0  0  0  0
   -1.5665    0.3219    0.0000 N   0  0  0  0  0  0  0  0  0  0  0  0
   -1.5665    1.6568    0.0000 N   0  0  0  0  0  0  0  0  0  0  0  0
   -0.7819    1.4019    0.0000 C   0  0  0  0  0  0  0  0  0  0  0  0
   -0.0674    1.8144    0.0000 N   0  0  0  0  0  0  0  0  0  0  0  0
    1.3615    1.8144    0.0000 N   0  0  0  0  0  0  0  0  0  0  0  0
    1.3615    2.6394    0.0000 C   0  0  0  0  0  0  0  0  0  0  0  0
    0.6470    3.0519    0.0000 C   0  0  0  0  0  0  0  0  0  0  0  0
  1 14  2  0
  1 21  1  0
  1 22  1  0
  2 18  1  0
  2 19  2  0
  3  4  1  0
  3 16  1  0
  4  5  1  0
  4  9  1  0
  5  6  1  0
  6  7  1  0
  7  8  1  0
  8  9  1  0
 10 11  2  0
 10 24  1  0
 11 12  1  0
 12 13  2  0
 13 23  1  0
 14 15  1  0
 15 16  1  0
 15 17  2  0
 17 18  1  0
 17 20  1  0
 19 20  1  0
 20 21  2  0
 22 23  1  0
 23 24  2  0
M  END
>  <DRUGBANK_ID>  (1) 
DB06948

>  <COMMON_NAME>  (1) 
2-ANILINO-6-CYCLOHEXYLMETHOXYPURINE

$$$$
