Structure #1
     RDKit          2D

 17 18  0  0  0  0  0  0  0  0999 V2000
    4.2868    1.6500    0.0000 C   0  0  0  0  0  0  0  0  0  0  0  0
   -2.0945    0.4125    0.0000 C   0  0  0  0  0  0  0  0  0  0  0  0
    3.5724    1.2375    0.0000 C   0  0  0  0  0  0  0  0  0  0  0  0
    2.8579    1.6500    0.0000 C   0  0  0  0  0  0  0  0  0  0  0  0
   -0.7846    1.0799    0.0000 C   0  0  0  0  0  0  0  0  0  0  0  0
    0.7145   -0.4125    0.0000 C   0  0  0  0  0  0  0  0  0  0  0  0
   -1.2695    0.4125    0.0000 C   0  0  0  0  0  0  0  0  0  0  0  0
    0.0000    0.8250    0.0000 C   0  0  0  0  0  0  0  0  0  0  0  0
    0.0000    0.0000    0.0000 C   0  0  0  0  0  0  0  0  0  0  0  0
    0.7145    1.2375    0.0000 B   0  0  0  0  0  0  0  0  0  0  0  0
    1.4289    0.0000    0.0000 N   0  0  0  0  0  0  0  0  0  0  0  0
    1.4289    0.8250    0.0000 N   0  0  0  0  0  0  0  0  0  0  0  0
    0.7145    2.0625    0.0000 O   0  0  0  0  0  0  0  0  0  0  0  0
    1.7309    1.9520    0.0000 O   0  0  0  0  0  0  0  0  0  0  0  0
    2.5559    0.5230    0.0000 O   0  0  0  0  0  0  0  0  0  0  0  0
   -0.7846   -0.2549    0.0000 S   0  0  0  0  0  0  0  0  0  0  0  0
    2.1434    1.2375    0.0000 S   0  0  0  0  0  0  0  0  0  0  0  0
  1  3  1  0
  2  7  1  0
  3  4  1  0
  4 17  1  0
  5  7  2  0
  5  8  1  0
  6  9  1  0
  6 11  2  0
  7 16  1  0
  8  9  2  0
  8 10  1  0
  9 16  1  0
 10 12  1  0
 10 13  1  0
 11 12  1  0
 12 17  1  0
 14 17  2  0
 15 17  2  0
M  END
>  <DRUGBANK_ID>  (1) 
DB08605

>  <COMMON_NAME>  (1) 
6-METHYL-2(PROPANE-1-SULFONYL)-2H-THIENO[3,2-D][1,2,3]DIAZABORININ-1-OL

$$$$
