
     RDKit          2D

  5  4  0  0  0  0  0  0  0  0999 V2000
    0.0000    0.0000    0.0000 Se  0  0  0  0  0  6  0  0  0  0  0  0
    0.0000    0.8250    0.0000 O   0  0  0  0  0  0  0  0  0  0  0  0
    0.8250    0.0000    0.0000 O   0  0  0  0  0  0  0  0  0  0  0  0
    0.0000   -0.8250    0.0000 O   0  0  0  0  0  0  0  0  0  0  0  0
   -0.8250    0.0000    0.0000 O   0  0  0  0  0  0  0  0  0  0  0  0
  2  1  1  0
  3  1  1  0
  4  1  2  0
  5  1  2  0
M  END
>  <DRUGBANK_ID>  (1) 
DB11068

>  <COMMON_NAME>  (1) 
Selenic acid

>  <CAS_NUMBER>  (1) 
7783-08-6

>  <UNII>  (1) 
HV0Y51NC4J

$$$$
