
     RDKit          2D

 18 18  0  0  0  0  0  0  0  0999 V2000
   -0.3545    0.4234    0.0000 N   0  0  0  0  0  0  0  0  0  0  0  0
   -0.3545   -0.4047    0.0000 C   0  0  0  0  0  0  0  0  0  0  0  0
    0.3607   -0.8167    0.0000 N   0  0  0  0  0  0  0  0  0  0  0  0
    1.0759   -0.4047    0.0000 C   0  0  0  0  0  0  0  0  0  0  0  0
    1.0759    0.4234    0.0000 N   0  0  0  0  0  0  0  0  0  0  0  0
    0.3607    0.8353    0.0000 C   0  0  0  0  0  0  0  0  0  0  0  0
    0.3607    1.6594    0.0000 N   0  0  0  0  0  0  0  0  0  0  0  0
    1.7932   -0.8260    0.0000 N   0  0  0  0  0  0  0  0  0  0  0  0
   -1.0718   -0.8303    0.0000 N   0  0  0  0  0  0  0  0  0  0  0  0
    1.0702    2.0674    0.0000 N   0  0  0  0  0  0  0  0  0  0  0  0
    1.7920   -1.6543    0.0000 C   0  0  0  0  0  0  0  0  0  0  0  0
    2.5073   -0.4151    0.0000 C   0  0  0  0  0  0  0  0  0  0  0  0
    2.5046    0.4120    0.0000 C   0  0  0  0  0  0  0  0  0  0  0  0
    2.5009   -2.0674    0.0000 C   0  0  0  0  0  0  0  0  0  0  0  0
   -1.7985   -0.4235    0.0000 C   0  0  0  0  0  0  0  0  0  0  0  0
   -1.0582   -1.6585    0.0000 C   0  0  0  0  0  0  0  0  0  0  0  0
   -0.3437   -2.0674    0.0000 C   0  0  0  0  0  0  0  0  0  0  0  0
   -2.5073   -0.8447    0.0000 C   0  0  0  0  0  0  0  0  0  0  0  0
  1  2  2  0
  1  6  1  0
  2  9  1  0
  2  3  1  0
  3  4  1  0
  4  5  2  0
  4  8  1  0
  5  6  1  0
  6  7  2  3
  7 10  1  0
  8 11  1  0
  8 12  1  0
  9 15  1  0
  9 16  1  0
 11 14  1  0
 12 13  1  0
 15 18  1  0
 16 17  1  0
M  END
>  <DRUGBANK_ID>  (1) 
DB13272

>  <COMMON_NAME>  (1) 
Meladrazine

>  <CAS_NUMBER>  (1) 
13957-36-3

>  <UNII>  (1) 
2V6Z0JG2X0

>  <SYNONYMS>  (1) 
Meladrazina; Meladrazine; MÃ©ladrazine; Meladrazinum

$$$$
