
     RDKit          2D

 24 26  0  0  0  0  0  0  0  0999 V2000
   -1.6365    3.5062    0.0000 Cl  0  0  0  0  0  0  0  0  0  0  0  0
   -2.3510   -3.5062    0.0000 O   0  0  0  0  0  0  0  0  0  0  0  0
    1.2875   -1.2826    0.0000 N   0  0  0  0  0  0  0  0  0  0  0  0
    1.2875    0.0451    0.0000 N   0  0  0  0  0  0  0  0  0  0  0  0
   -0.2076   -1.4437    0.0000 N   0  0  0  0  0  0  0  0  0  0  0  0
   -0.2076    1.0312    0.0000 N   0  0  0  0  0  0  0  0  0  0  0  0
   -0.9220   -0.2062    0.0000 N   0  0  0  0  0  0  0  0  0  0  0  0
   -1.6365   -1.4437    0.0000 N   0  0  0  0  0  0  0  0  0  0  0  0
    1.5437   -2.0668    0.0000 C   0  0  0  0  0  0  0  0  0  0  0  0
    0.5068   -1.0312    0.0000 C   0  0  0  0  0  0  0  0  0  0  0  0
    0.5068   -0.2062    0.0000 C   0  0  0  0  0  0  0  0  0  0  0  0
    0.9928   -2.6809    0.0000 C   0  0  0  0  0  0  0  0  0  0  0  0
    2.3510   -2.2369    0.0000 C   0  0  0  0  0  0  0  0  0  0  0  0
    1.7690   -0.6187    0.0000 C   0  0  0  0  0  0  0  0  0  0  0  0
   -0.2076    0.2062    0.0000 C   0  0  0  0  0  0  0  0  0  0  0  0
   -0.9220   -1.0312    0.0000 C   0  0  0  0  0  0  0  0  0  0  0  0
   -0.9220    1.4437    0.0000 C   0  0  0  0  0  0  0  0  0  0  0  0
   -1.6365   -2.2687    0.0000 C   0  0  0  0  0  0  0  0  0  0  0  0
   -2.3510   -2.6812    0.0000 C   0  0  0  0  0  0  0  0  0  0  0  0
   -0.9220    2.2687    0.0000 C   0  0  0  0  0  0  0  0  0  0  0  0
   -1.6365    1.0312    0.0000 C   0  0  0  0  0  0  0  0  0  0  0  0
   -1.6365    2.6812    0.0000 C   0  0  0  0  0  0  0  0  0  0  0  0
   -2.3510    1.4437    0.0000 C   0  0  0  0  0  0  0  0  0  0  0  0
   -2.3510    2.2687    0.0000 C   0  0  0  0  0  0  0  0  0  0  0  0
  1 22  1  0
  2 19  1  0
  3  9  1  0
  3 10  1  0
  3 14  1  0
  4 11  1  0
  4 14  2  0
  5 10  2  0
  5 16  1  0
  6 15  1  0
  6 17  1  0
  7 15  1  0
  7 16  2  0
  8 16  1  0
  8 18  1  0
  9 12  1  0
  9 13  1  0
 10 11  1  0
 11 15  2  0
 17 20  2  0
 17 21  1  0
 18 19  1  0
 20 22  1  0
 21 23  2  0
 22 24  2  0
 23 24  1  0
M  END
>  <DRUGBANK_ID>  (1) 
DB08325

>  <COMMON_NAME>  (1) 
2-({6-[(3-Chlorophenyl)amino]-9-isopropyl-9H-purin-2-yl}amino)ethanol

>  <CAS_NUMBER>  (1) 
212779-48-1

>  <SYNONYMS>  (1) 
2-(2-Hydroxyethylamino)-6-(3-chloroanilino)-9-isopropylpurine

$$$$
