
     RDKit          2D

 30 31  0  0  1  0  0  0  0  0999 V2000
    7.4710    2.8600    0.0000 C   0  0  0  0  0  0  0  0  0  0  0  0
    8.3642    3.5089    0.0000 C   0  0  0  0  0  0  0  0  0  0  0  0
   11.4315    4.9500    0.0000 C   0  0  0  0  0  0  0  0  0  0  0  0
   11.4315    5.7750    0.0000 C   0  0  0  0  0  0  0  0  0  0  0  0
   10.7171    4.5375    0.0000 C   0  0  0  0  0  0  0  0  0  0  0  0
   10.7171    6.1875    0.0000 C   0  0  0  0  0  0  0  0  0  0  0  0
   10.0026    4.9500    0.0000 C   0  0  0  0  0  0  0  0  0  0  0  0
    9.2881    6.1875    0.0000 C   0  0  0  0  0  0  0  0  0  0  0  0
    5.0013    6.1875    0.0000 C   0  0  0  0  0  0  0  0  0  0  0  0
   10.0026    5.7750    0.0000 C   0  0  0  0  0  0  0  0  0  0  0  0
    4.2868    5.7750    0.0000 C   0  0  0  0  0  0  0  0  0  0  0  0
    8.5737    5.7750    0.0000 C   0  0  0  0  0  0  0  0  0  0  0  0
    7.1447    5.7750    0.0000 C   0  0  0  0  0  0  0  0  0  0  0  0
    6.7322    3.6805    0.0000 C   0  0  0  0  0  0  0  0  0  0  0  0
    7.1447    4.9500    0.0000 C   0  0  0  0  0  0  0  0  0  0  0  0
    3.5724    6.1875    0.0000 C   0  0  0  0  0  0  0  0  0  0  0  0
    6.2473    3.0130    0.0000 C   0  0  0  0  0  0  0  0  0  0  0  0
    6.4302    6.1875    0.0000 C   0  0  0  0  0  0  0  0  0  0  0  0
    7.5572    3.6805    0.0000 C   0  0  0  0  0  0  0  0  0  0  0  0
    4.2868    4.9500    0.0000 N   0  0  0  0  0  0  0  0  0  0  0  0
    7.8592    6.1875    0.0000 N   0  0  0  0  0  0  0  0  0  0  0  0
    6.4773    4.4651    0.0000 N   0  0  0  0  0  0  0  0  0  0  0  0
    8.5737    4.9500    0.0000 O   0  0  0  0  0  0  0  0  0  0  0  0
    2.8579    5.7750    0.0000 O   0  0  0  0  0  0  0  0  0  0  0  0
    3.5724    7.0125    0.0000 O   0  0  0  0  0  0  0  0  0  0  0  0
    5.4268    3.0993    0.0000 O   0  0  0  0  0  0  0  0  0  0  0  0
    6.5828    2.2593    0.0000 O   0  0  0  0  0  0  0  0  0  0  0  0
    6.4302    7.0125    0.0000 O   0  0  0  0  0  0  0  0  0  0  0  0
    5.7158    5.7750    0.0000 O   0  0  0  0  0  0  0  0  0  0  0  0
    7.8121    4.4651    0.0000 S   0  0  0  0  0  0  0  0  0  0  0  0
  4  3  2  0
  5  3  1  0
  6  4  1  0
  7  5  2  0
 10  6  2  0
 10  7  1  0
 10  8  1  0
 11  9  1  0
 11 20  1  6
 12  8  1  0
 12 23  1  0
 13 21  1  1
 14 17  1  6
 15 13  1  0
 16 11  1  0
 18 13  1  0
 19  1  1  0
 19  2  1  0
 19 14  1  0
 21 12  2  3
 22 14  1  0
 15 22  1  1
 24 16  2  0
 25 16  1  0
 26 17  2  0
 27 17  1  0
 28 18  2  0
 29  9  1  0
 29 18  1  0
 30 15  1  0
 30 19  1  0
M  CHG  2  23  -1  25  -1
M  END
>  <DRUGBANK_ID>  (1) 
DB02968

>  <SECONDARY_ACCESSION_NUMBERS>  (1) 
EXPT02561

>  <COMMON_NAME>  (1) 
Penicillin G Acyl-Serine

$$$$
