NCZ
     RDKit          2D

 24 26  0  0  0  0  0  0  0  0999 V2000
   -0.8834    0.5450    0.0000 C   0  0  0  0  0  0  0  0  0  0  0  0
   -0.1689    0.9575    0.0000 C   0  0  0  0  0  0  0  0  0  0  0  0
   -0.1689    1.7825    0.0000 C   0  0  0  0  0  0  0  0  0  0  0  0
    0.5455    2.1950    0.0000 C   0  0  0  0  0  0  0  0  0  0  0  0
    1.2600    1.7825    0.0000 C   0  0  0  0  0  0  0  0  0  0  0  0
    1.2600    0.9575    0.0000 C   0  0  0  0  0  0  0  0  0  0  0  0
    0.5455    0.5450    0.0000 C   0  0  0  0  0  0  0  0  0  0  0  0
    0.5455   -0.2800    0.0000 C   0  0  0  0  0  0  0  0  0  0  0  0
   -0.1689   -0.6925    0.0000 O   0  0  0  0  0  0  0  0  0  0  0  0
    1.2600   -0.6925    0.0000 O   0  0  0  0  0  0  0  0  0  0  0  0
    1.2600   -1.5175    0.0000 C   0  0  0  0  0  0  0  0  0  0  0  0
    1.9274   -2.0024    0.0000 C   0  0  0  0  0  0  0  0  0  0  0  0
    1.6725   -2.7870    0.0000 C   0  0  0  0  0  0  0  0  0  0  0  0
    0.8475   -2.7870    0.0000 C   0  0  0  0  0  0  0  0  0  0  0  0
    0.5926   -2.0024    0.0000 C   0  0  0  0  0  0  0  0  0  0  0  0
   -0.1921   -1.7475    0.0000 O   0  0  0  0  0  0  0  0  0  0  0  0
    2.7121   -1.7475    0.0000 O   0  0  0  0  0  0  0  0  0  0  0  0
    1.9745    0.5450    0.0000 O   0  0  0  0  0  0  0  0  0  0  0  0
   -0.8834    2.1950    0.0000 C   0  0  0  0  0  0  0  0  0  0  0  0
   -1.5979    1.7825    0.0000 C   0  0  0  0  0  0  0  0  0  0  0  0
   -1.5979    0.9575    0.0000 C   0  0  0  0  0  0  0  0  0  0  0  0
   -2.3123    0.5450    0.0000 O   0  0  0  0  0  0  0  0  0  0  0  0
   -2.3123   -0.2800    0.0000 C   0  0  0  0  0  0  0  0  0  0  0  0
   -0.8834    3.0200    0.0000 C   0  0  0  0  0  0  0  0  0  0  0  0
  1  2  2  0
  1 21  1  0
  2  3  1  0
  2  7  1  0
  3  4  1  0
  3 19  2  0
  4  5  2  0
  5  6  1  0
  6  7  2  0
  6 18  1  0
  7  8  1  0
  8  9  2  0
  8 10  1  0
 11 10  1  1
 11 12  1  0
 11 15  1  0
 12 13  1  0
 12 17  1  6
 13 14  2  0
 14 15  1  0
 15 16  1  6
 19 20  1  0
 19 24  1  0
 20 21  2  0
 21 22  1  0
 22 23  1  0
M  END
>  <DRUGBANK_ID>  (1) 
DB08261

>  <COMMON_NAME>  (1) 
2-hydroxy-7-methoxy-5-methyl-naphthalene-1-carboxylic acid meso-2,5-dihydroxy-cyclopent-3-enyl ester

$$$$
