
     RDKit          2D

 17 18  0  0  0  0  0  0  0  0999 V2000
   -0.7145    3.7125    0.0000 C   0  0  0  0  0  0  0  0  0  0  0  0
    1.4289   -0.0000    0.0000 C   0  0  0  0  0  0  0  0  0  0  0  0
   -1.4289    3.3000    0.0000 C   0  0  0  0  0  0  0  0  0  0  0  0
    1.4289    0.8250    0.0000 C   0  0  0  0  0  0  0  0  0  0  0  0
   -0.7145    1.2375    0.0000 C   0  0  0  0  0  0  0  0  0  0  0  0
    0.0000    2.4750    0.0000 C   0  0  0  0  0  0  0  0  0  0  0  0
    0.0000   -0.0000    0.0000 C   0  0  0  0  0  0  0  0  0  0  0  0
   -0.7145    2.0625    0.0000 C   0  0  0  0  0  0  0  0  0  0  0  0
    0.0000    0.8250    0.0000 C   0  0  0  0  0  0  0  0  0  0  0  0
    0.0000    3.3000    0.0000 C   0  0  0  0  0  0  0  0  0  0  0  0
    0.7145   -0.4125    0.0000 C   0  0  0  0  0  0  0  0  0  0  0  0
   -1.4289    2.4750    0.0000 C   0  0  0  0  0  0  0  0  0  0  0  0
    0.7145    1.2375    0.0000 C   0  0  0  0  0  0  0  0  0  0  0  0
    0.7145    3.7125    0.0000 Cl  0  0  0  0  0  0  0  0  0  0  0  0
    0.7145   -1.2375    0.0000 Cl  0  0  0  0  0  0  0  0  0  0  0  0
   -2.1434    2.0625    0.0000 O   0  0  0  0  0  0  0  0  0  0  0  0
    0.7145    2.0625    0.0000 O   0  0  0  0  0  0  0  0  0  0  0  0
  3  1  2  0
  4  2  2  0
  8  5  1  0
  8  6  1  0
  9  5  1  0
  9  7  1  0
 10  1  1  0
 10  6  2  0
 11  2  1  0
 11  7  2  0
 12  3  1  0
 12  8  2  0
 13  4  1  0
 13  9  2  0
 14 10  1  0
 15 11  1  0
 16 12  1  0
 17 13  1  0
M  END
>  <DRUGBANK_ID>  (1) 
DB11396

>  <COMMON_NAME>  (1) 
Dichlorophen

>  <CAS_NUMBER>  (1) 
97-23-4

>  <UNII>  (1) 
T1J0JOU64O

>  <SYNONYMS>  (1) 
2,2'-Methylenebis(4-chlorophenol); Dichlorophen; Dichlorophene; Dichlorophenum; Diclorofeno

$$$$
