
     RDKit          2D

 28 33  0  0  1  0  0  0  0  0999 V2000
    0.5281   -3.8937    0.0000 C   0  0  0  0  0  0  0  0  0  0  0  0
   -0.2969   -3.8937    0.0000 C   0  0  0  0  0  0  0  0  0  0  0  0
   -0.7094   -3.1792    0.0000 C   0  0  0  0  0  0  0  0  0  0  0  0
   -0.2969   -2.4648    0.0000 C   0  0  0  0  0  0  0  0  0  0  0  0
    0.5281   -2.4648    0.0000 C   0  0  0  0  0  0  0  0  0  0  0  0
    0.9406   -3.1792    0.0000 C   0  0  0  0  0  0  0  0  0  0  0  0
    0.7831   -1.6801    0.0000 C   0  0  0  0  0  0  0  0  0  0  0  0
    0.1156   -1.1952    0.0000 C   0  0  0  0  0  0  0  0  0  0  0  0
   -0.5518   -1.6801    0.0000 N   0  0  0  0  0  0  0  0  0  0  0  0
    1.5677   -1.4252    0.0000 C   0  0  0  0  0  0  0  0  0  0  0  0
    1.8226   -0.6406    0.0000 C   0  0  0  0  0  0  0  0  0  0  0  0
    2.6476   -0.6406    0.0000 C   0  0  0  0  0  0  0  0  0  0  0  0
    3.1325    0.0269    0.0000 O   0  0  0  0  0  0  0  0  0  0  0  0
    2.9026   -1.4252    0.0000 N   0  0  0  0  0  0  0  0  0  0  0  0
    2.2351   -1.9101    0.0000 C   0  0  0  0  0  0  0  0  0  0  0  0
    2.2351   -2.7351    0.0000 O   0  0  0  0  0  0  0  0  0  0  0  0
    1.3377    0.0269    0.0000 C   0  0  0  0  0  0  0  0  0  0  0  0
    0.5127    0.0269    0.0000 C   0  0  0  0  0  0  0  0  0  0  0  0
    0.2578    0.8115    0.0000 N   0  0  0  0  0  0  0  0  0  0  0  0
    0.9252    1.2964    0.0000 C   0  0  0  0  0  0  0  0  0  0  0  0
    1.5926    0.8115    0.0000 C   0  0  0  0  0  0  0  0  0  0  0  0
    2.3463    1.1470    0.0000 C   0  0  0  0  0  0  0  0  0  0  0  0
    2.4326    1.9675    0.0000 C   0  0  0  0  0  0  0  0  0  0  0  0
    1.7651    2.4525    0.0000 C   0  0  0  0  0  0  0  0  0  0  0  0
    0.8390    2.1169    0.0000 C   0  0  0  0  0  0  0  0  0  0  0  0
    0.0853    2.4525    0.0000 C   0  0  0  0  0  0  0  0  0  0  0  0
   -0.5821    1.9675    0.0000 C   0  0  0  0  0  0  0  0  0  0  0  0
   -0.4959    1.1470    0.0000 C   0  0  0  0  0  0  0  0  0  0  0  0
  1  2  2  0
  1  6  1  0
  2  3  1  0
  3  4  2  0
  4  5  1  0
  4  9  1  0
  5  6  2  0
  5  7  1  0
  7  8  2  0
  8  9  1  0
 10  7  1  1
 10 11  1  0
 10 15  1  0
 11 12  1  0
 11 17  1  6
 12 13  2  0
 12 14  1  0
 14 15  1  0
 15 16  2  0
 17 18  2  0
 17 21  1  0
 18 19  1  0
 19 20  1  0
 19 28  1  0
 20 21  2  0
 20 25  1  0
 21 22  1  0
 22 23  2  0
 23 24  1  0
 24 25  2  0
 25 26  1  0
 26 27  1  0
 27 28  1  0
M  END
>  <DRUGBANK_ID>  (1) 
DB12200

>  <SECONDARY_ACCESSION_NUMBERS>  (1) 
DB06026

>  <COMMON_NAME>  (1) 
Tivantinib

>  <CAS_NUMBER>  (1) 
905854-02-6

>  <UNII>  (1) 
PJ4H73IL17

>  <SYNONYMS>  (1) 
Tivantinib

$$$$
