
     RDKit          2D

 43 45  0  0  0  0  0  0  0  0999 V2000
   -1.5852    1.3728    0.0000 C   0  0  0  0  0  0  0  0  0  0  0  0
   -2.3779    1.6016    0.0000 C   0  0  0  0  0  0  0  0  0  0  0  0
   -2.5760    2.4025    0.0000 C   0  0  0  0  0  0  0  0  0  0  0  0
   -2.9723    1.0296    0.0000 C   0  0  0  0  0  0  0  0  0  0  0  0
   -2.7742    0.2288    0.0000 C   0  0  0  0  0  0  0  0  0  0  0  0
   -3.3686   -0.3432    0.0000 N   0  0  0  0  0  0  0  0  0  0  0  0
   -4.1613   -0.1144    0.0000 C   0  0  0  0  0  0  0  0  0  0  0  0
   -4.3594    0.6864    0.0000 O   0  0  0  0  0  0  0  0  0  0  0  0
   -4.7558   -0.6864    0.0000 C   0  0  0  0  0  0  0  0  0  0  0  0
   -5.5484   -0.4576    0.0000 O   0  0  0  0  0  0  0  0  0  0  0  0
   -6.1429   -1.0296    0.0000 C   0  0  0  0  0  0  0  0  0  0  0  0
   -5.9447   -1.8305    0.0000 C   0  0  0  0  0  0  0  0  0  0  0  0
   -6.5392   -2.4025    0.0000 C   0  0  0  0  0  0  0  0  0  0  0  0
   -7.3318   -2.1737    0.0000 C   0  0  0  0  0  0  0  0  0  0  0  0
   -7.5300   -1.3728    0.0000 C   0  0  0  0  0  0  0  0  0  0  0  0
   -6.9355   -0.8008    0.0000 C   0  0  0  0  0  0  0  0  0  0  0  0
   -7.1337    0.0000    0.0000 C   0  0  0  0  0  0  0  0  0  0  0  0
   -1.9815    0.0000    0.0000 C   0  0  0  0  0  0  0  0  0  0  0  0
   -1.7834   -0.8008    0.0000 O   0  0  0  0  0  0  0  0  0  0  0  0
   -1.3871    0.5720    0.0000 N   0  0  0  0  0  0  0  0  0  0  0  0
   -0.5944    0.3432    0.0000 C   0  0  0  0  0  0  0  0  0  0  0  0
    0.0000    0.9152    0.0000 C   0  0  0  0  0  0  0  0  0  0  0  0
    0.7926    0.6864    0.0000 C   0  0  0  0  0  0  0  0  0  0  0  0
    1.3871    1.2584    0.0000 C   0  0  0  0  0  0  0  0  0  0  0  0
    2.1797    1.0296    0.0000 C   0  0  0  0  0  0  0  0  0  0  0  0
    2.3779    0.2288    0.0000 C   0  0  0  0  0  0  0  0  0  0  0  0
    3.1705    0.0000    0.0000 O   0  0  0  0  0  0  0  0  0  0  0  0
    3.7650    0.5720    0.0000 C   0  0  0  0  0  0  0  0  0  0  0  0
    3.5668    1.3728    0.0000 O   0  0  0  0  0  0  0  0  0  0  0  0
    4.5576    0.3432    0.0000 N   0  0  0  0  0  0  0  0  0  0  0  0
    5.1521    0.9152    0.0000 C   0  0  0  0  0  0  0  0  0  0  0  0
    5.9447    0.6864    0.0000 C   0  0  0  0  0  0  0  0  0  0  0  0
    6.1429   -0.1144    0.0000 C   0  0  0  0  0  0  0  0  0  0  0  0
    5.5484   -0.6864    0.0000 C   0  0  0  0  0  0  0  0  0  0  0  0
    4.7558   -0.4576    0.0000 C   0  0  0  0  0  0  0  0  0  0  0  0
    6.9355   -0.3432    0.0000 C   0  0  0  0  0  0  0  0  0  0  0  0
    7.5300    0.2288    0.0000 O   0  0  0  0  0  0  0  0  0  0  0  0
    7.1337   -1.1440    0.0000 N   0  0  0  0  0  0  0  0  0  0  0  0
    1.7834   -0.3432    0.0000 C   0  0  0  0  0  0  0  0  0  0  0  0
    0.9907   -0.1144    0.0000 C   0  0  0  0  0  0  0  0  0  0  0  0
   -0.3963   -0.4576    0.0000 C   0  0  0  0  0  0  0  0  0  0  0  0
    0.3963   -0.6864    0.0000 O   0  0  0  0  0  0  0  0  0  0  0  0
   -0.9907   -1.0296    0.0000 O   0  0  0  0  0  0  0  0  0  0  0  0
  1  2  1  0
  2  3  1  0
  2  4  1  0
  5  4  1  1
  5  6  1  0
  5 18  1  0
  6  7  1  0
  7  8  2  0
  7  9  1  0
  9 10  1  0
 10 11  1  0
 11 12  2  0
 11 16  1  0
 12 13  1  0
 13 14  2  0
 14 15  1  0
 15 16  2  0
 16 17  1  0
 18 19  2  0
 18 20  1  0
 21 20  1  0
 21 22  1  1
 21 41  1  0
 22 23  1  0
 23 24  2  0
 23 40  1  0
 24 25  1  0
 25 26  2  0
 26 27  1  0
 26 39  1  0
 27 28  1  0
 28 29  2  0
 28 30  1  0
 30 31  1  0
 30 35  1  0
 31 32  1  0
 32 33  1  0
 33 34  1  0
 33 36  1  0
 34 35  1  0
 36 37  2  0
 36 38  1  0
 39 40  2  0
 41 42  2  0
 41 43  1  0
M  END
>  <DRUGBANK_ID>  (1) 
DB06508

>  <COMMON_NAME>  (1) 
GW-559090

>  <CAS_NUMBER>  (1) 
278598-52-0

>  <UNII>  (1) 
H9W4YH429K

$$$$
