
     RDKit          2D

 31 34  0  0  1  0  0  0  0  0999 V2000
    8.5737   -1.6500    0.0000 C   0  0  0  0  0  0  0  0  0  0  0  0
    8.5737   -2.4750    0.0000 C   0  0  0  0  0  0  0  0  0  0  0  0
    9.2881   -2.8875    0.0000 C   0  0  0  0  0  0  0  0  0  0  0  0
    9.2881   -3.7125    0.0000 N   0  0  0  0  0  0  0  0  0  0  0  0
    8.5737   -4.1250    0.0000 C   0  0  0  0  0  0  0  0  0  0  0  0
    7.8592   -3.7125    0.0000 C   0  0  0  0  0  0  0  0  0  0  0  0
    7.8592   -2.8875    0.0000 N   0  0  0  0  0  0  0  0  0  0  0  0
   10.0026   -4.1250    0.0000 C   0  0  0  0  0  0  0  0  0  0  0  0
   10.0026   -4.9500    0.0000 C   0  0  0  0  0  0  0  0  0  0  0  0
   10.7171   -5.3625    0.0000 C   0  0  0  0  0  0  0  0  0  0  0  0
   10.7171   -6.1875    0.0000 C   0  0  0  0  0  0  0  0  0  0  0  0
   10.0026   -6.6000    0.0000 C   0  0  0  0  0  0  0  0  0  0  0  0
    9.2881   -6.1875    0.0000 C   0  0  0  0  0  0  0  0  0  0  0  0
    9.2881   -5.3625    0.0000 C   0  0  0  0  0  0  0  0  0  0  0  0
   10.0026   -7.4250    0.0000 C   0  0  0  0  0  0  0  0  0  0  0  0
   10.7171   -7.8375    0.0000 C   0  0  0  0  0  0  0  0  0  0  0  0
   11.4315   -7.4250    0.0000 O   0  0  0  0  0  0  0  0  0  0  0  0
   10.7171   -8.6625    0.0000 N   0  0  0  0  0  0  0  0  0  0  0  0
   11.4315   -9.0750    0.0000 C   0  0  0  0  0  0  0  0  0  0  0  0
   11.4315   -9.9000    0.0000 C   0  0  0  0  0  0  0  0  0  0  0  0
   10.7171  -10.3125    0.0000 C   0  0  0  0  0  0  0  0  0  0  0  0
   10.0026   -9.9000    0.0000 C   0  0  0  0  0  0  0  0  0  0  0  0
   10.0026   -9.0750    0.0000 C   0  0  0  0  0  0  0  0  0  0  0  0
   10.7171  -11.1375    0.0000 N   0  0  0  0  0  0  0  0  0  0  0  0
   10.0026  -11.5500    0.0000 C   0  0  0  0  0  0  0  0  0  0  0  0
   10.0026  -12.3750    0.0000 C   0  0  0  0  0  0  0  0  0  0  0  0
    9.2881  -12.7875    0.0000 C   0  0  0  0  0  0  0  0  0  0  0  0
    8.5737  -12.3750    0.0000 C   0  0  0  0  0  0  0  0  0  0  0  0
    8.5737  -11.5500    0.0000 C   0  0  0  0  0  0  0  0  0  0  0  0
    9.2881  -11.1375    0.0000 C   0  0  0  0  0  0  0  0  0  0  0  0
    7.8592  -11.1375    0.0000 F   0  0  0  0  0  0  0  0  0  0  0  0
  2  1  1  1
  2  3  1  0
  2  7  1  0
  3  4  1  0
  4  5  1  0
  4  8  1  0
  5  6  1  0
  6  7  1  0
  8  9  1  0
  9 10  2  0
  9 14  1  0
 10 11  1  0
 11 12  2  0
 12 13  1  0
 12 15  1  0
 13 14  2  0
 15 16  1  0
 16 17  2  0
 16 18  1  0
 18 19  1  0
 18 23  1  0
 19 20  1  0
 20 21  1  0
 21 22  1  0
 21 24  1  0
 22 23  1  0
 24 25  1  0
 25 26  2  0
 25 30  1  0
 26 27  1  0
 27 28  2  0
 28 29  1  0
 29 30  2  0
 29 31  1  0
M  END
>  <DRUGBANK_ID>  (1) 
DB12567

>  <COMMON_NAME>  (1) 
Camicinal

>  <CAS_NUMBER>  (1) 
923565-21-3

>  <UNII>  (1) 
3C8348951H

>  <SYNONYMS>  (1) 
Camicinal

$$$$
