
     RDKit          2D

 23 26  0  0  0  0  0  0  0  0999 V2000
   -1.6493   -0.2259    0.0000 C   0  0  0  0  0  0  0  0  0  0  0  0
   -2.3726   -0.6226    0.0000 C   0  0  0  0  0  0  0  0  0  0  0  0
   -2.3726   -1.4626    0.0000 C   0  0  0  0  0  0  0  0  0  0  0  0
   -1.6493   -1.8749    0.0000 C   0  0  0  0  0  0  0  0  0  0  0  0
   -0.9493   -1.4626    0.0000 C   0  0  0  0  0  0  0  0  0  0  0  0
   -0.2337   -1.8749    0.0000 C   0  0  0  0  0  0  0  0  0  0  0  0
    0.4973   -1.4626    0.0000 C   0  0  0  0  0  0  0  0  0  0  0  0
    0.4973   -0.6226    0.0000 C   0  0  0  0  0  0  0  0  0  0  0  0
   -0.2337   -0.2259    0.0000 C   0  0  0  0  0  0  0  0  0  0  0  0
   -0.9493   -0.6226    0.0000 C   0  0  0  0  0  0  0  0  0  0  0  0
   -0.2337    0.5829    0.0000 C   0  0  0  0  0  0  0  0  0  0  0  0
    0.4973    1.0029    0.0000 C   0  0  0  0  0  0  0  0  0  0  0  0
    1.1973    0.5829    0.0000 C   0  0  0  0  0  0  0  0  0  0  0  0
    1.1973   -0.2259    0.0000 C   0  0  0  0  0  0  0  0  0  0  0  0
    1.9830   -0.4826    0.0000 C   0  0  0  0  0  0  0  0  0  0  0  0
    2.4497    0.1707    0.0000 C   0  0  0  0  0  0  0  0  0  0  0  0
    1.9830    0.8318    0.0000 C   0  0  0  0  0  0  0  0  0  0  0  0
    1.1973    1.4307    0.0000 C   0  0  0  0  0  0  0  0  0  0  0  0
   -0.9493    0.1862    0.0000 C   0  0  0  0  0  0  0  0  0  0  0  0
    2.2474    1.6174    0.0000 C   0  0  0  0  0  0  0  0  0  0  0  0
    3.0564    1.7807    0.0000 C   0  0  0  0  0  0  0  0  0  0  0  0
   -3.0564   -1.8914    0.0000 O   0  0  0  0  0  0  0  0  0  0  0  0
    1.7781    2.1818    0.0000 O   0  0  0  0  0  0  0  0  0  0  0  0
  1 10  1  0
  2  1  1  0
  3  4  1  0
  3  2  1  0
  3 22  1  6
  5  4  1  1
  5 10  1  0
  6  7  1  0
  6  5  1  0
  8  7  1  6
  8 14  1  0
  8  9  1  0
 10  9  1  0
 10 19  1  1
  9 11  1  1
 11 12  1  0
 12 13  1  0
 13 18  1  1
 14 13  1  0
 14 15  1  1
 16 17  1  0
 16 15  1  0
 17 13  1  0
 17 20  1  1
 21 20  1  0
 23 20  2  0
M  END
>  <DRUGBANK_ID>  (1) 
DB11859

>  <COMMON_NAME>  (1) 
Brexanolone

>  <CAS_NUMBER>  (1) 
516-54-1

>  <UNII>  (1) 
S39XZ5QV8Y

>  <SYNONYMS>  (1) 
3alpha-OH DHP; allopregnan-3Î±-ol-20-one; Allopregnanolone; Brexanolone

$$$$
