
     RDKit          2D

 24 25  0  0  1  0  0  0  0  0999 V2000
    2.6664   -2.3645    0.0000 C   0  0  0  0  0  0  0  0  0  0  0  0
    1.8414   -2.3645    0.0000 C   0  0  0  0  0  0  0  0  0  0  0  0
    1.4289   -1.6500    0.0000 N   0  0  0  0  0  0  0  0  0  0  0  0
    1.8414   -0.9355    0.0000 C   0  0  0  0  0  0  0  0  0  0  0  0
    2.6664   -0.9355    0.0000 N   0  0  0  0  0  0  0  0  0  0  0  0
    3.0789   -1.6500    0.0000 C   0  0  0  0  0  0  0  0  0  0  0  0
    3.9039   -1.6500    0.0000 C   0  0  0  0  0  0  0  0  0  0  0  0
    4.3164   -0.9355    0.0000 O   0  0  0  0  0  0  0  0  0  0  0  0
    4.3164   -2.3645    0.0000 O   0  0  0  0  0  0  0  0  0  0  0  0
    1.4289   -0.2211    0.0000 N   0  0  0  0  0  0  0  0  0  0  0  0
    1.8414    0.4934    0.0000 C   0  0  0  0  0  0  0  0  0  0  0  0
    1.4289    1.2079    0.0000 C   0  0  0  0  0  0  0  0  0  0  0  0
    1.8414    1.9224    0.0000 C   0  0  0  0  0  0  0  0  0  0  0  0
    2.6664    1.9224    0.0000 C   0  0  0  0  0  0  0  0  0  0  0  0
    3.0789    2.6368    0.0000 C   0  0  0  0  0  0  0  0  0  0  0  0
    3.9039    2.6368    0.0000 N   0  0  0  0  0  0  0  0  0  0  0  0
    3.0789    1.2079    0.0000 C   0  0  0  0  0  0  0  0  0  0  0  0
    2.6664    0.4934    0.0000 C   0  0  0  0  0  0  0  0  0  0  0  0
    1.4289   -3.0789    0.0000 C   0  0  0  0  0  0  0  0  0  0  0  0
    1.8414   -3.7934    0.0000 C   0  0  0  0  0  0  0  0  0  0  0  0
    1.4289   -4.5079    0.0000 C   0  0  0  0  0  0  0  0  0  0  0  0
    0.6039   -4.5079    0.0000 C   0  0  0  0  0  0  0  0  0  0  0  0
    0.1914   -3.7934    0.0000 C   0  0  0  0  0  0  0  0  0  0  0  0
    0.6039   -3.0789    0.0000 C   0  0  0  0  0  0  0  0  0  0  0  0
  2  1  1  6
  2  3  1  0
  2 19  1  0
  4  3  1  6
  4  5  1  0
  4 10  1  0
  5  6  1  0
  6  7  1  0
  7  8  1  0
  7  9  1  0
 10 11  1  0
 11 12  2  0
 11 18  1  0
 12 13  1  0
 13 14  2  0
 14 15  1  0
 14 17  1  0
 15 16  1  0
 17 18  2  0
 19 20  2  0
 19 24  1  0
 20 21  1  0
 21 22  2  0
 22 23  1  0
 23 24  2  0
M  END
>  <DRUGBANK_ID>  (1) 
DB04778

>  <COMMON_NAME>  (1) 
SC45647

$$$$
