
     RDKit          2D

 10 10  0  0  0  0  0  0  0  0999 V2000
    0.0114   -0.3963    0.0000 N   0  0  0  0  0  0  0  0  0  0  0  0
   -0.6559   -0.8814    0.0000 C   0  0  0  0  0  0  0  0  0  0  0  0
    0.6790   -0.8814    0.0000 C   0  0  0  0  0  0  0  0  0  0  0  0
    0.0114    0.4285    0.0000 C   0  0  0  0  0  0  0  0  0  0  0  0
   -0.4010   -1.6660    0.0000 C   0  0  0  0  0  0  0  0  0  0  0  0
   -1.4405   -0.6264    0.0000 O   0  0  0  0  0  0  0  0  0  0  0  0
    0.4239   -1.6660    0.0000 C   0  0  0  0  0  0  0  0  0  0  0  0
    0.7259    0.8410    0.0000 C   0  0  0  0  0  0  0  0  0  0  0  0
    0.7259    1.6660    0.0000 O   0  0  0  0  0  0  0  0  0  0  0  0
    1.4405    0.4285    0.0000 N   0  0  0  0  0  0  0  0  0  0  0  0
  1  2  1  0
  1  3  1  0
  1  4  1  0
  2  5  1  0
  2  6  2  0
  3  7  1  0
  4  8  1  0
  5  7  1  0
  8  9  2  0
  8 10  1  0
M  END
>  <DRUGBANK_ID>  (1) 
DB09210

>  <COMMON_NAME>  (1) 
Piracetam

>  <CAS_NUMBER>  (1) 
7491-74-9

>  <UNII>  (1) 
ZH516LNZ10

>  <SYNONYMS>  (1) 
Piracetam; Piracetamum

$$$$
