FC2
     RDKit          2D

 16 17  0  0  0  0  0  0  0  0999 V2000
    0.7406   -0.7385    0.0000 O   0  0  0  0  0  0  0  0  0  0  0  0
    0.4857   -1.5231    0.0000 C   0  0  0  0  0  0  0  0  0  0  0  0
    0.9706   -2.1905    0.0000 C   0  0  0  0  0  0  0  0  0  0  0  0
    0.6351   -2.9442    0.0000 O   0  0  0  0  0  0  0  0  0  0  0  0
   -0.3393   -1.5231    0.0000 C   0  0  0  0  0  0  0  0  0  0  0  0
   -0.5942   -0.7385    0.0000 C   0  0  0  0  0  0  0  0  0  0  0  0
    0.0732   -0.2536    0.0000 C   0  0  0  0  0  0  0  0  0  0  0  0
    1.7911   -2.1043    0.0000 O   0  0  0  0  0  0  0  0  0  0  0  0
    0.0732    0.5714    0.0000 C   0  0  0  0  0  0  0  0  0  0  0  0
   -0.6413    0.9839    0.0000 C   0  0  0  0  0  0  0  0  0  0  0  0
   -0.6413    1.8089    0.0000 C   0  0  0  0  0  0  0  0  0  0  0  0
    0.0732    2.2214    0.0000 C   0  0  0  0  0  0  0  0  0  0  0  0
    0.7877    1.8089    0.0000 C   0  0  0  0  0  0  0  0  0  0  0  0
    0.7877    0.9839    0.0000 C   0  0  0  0  0  0  0  0  0  0  0  0
   -1.3557    0.5714    0.0000 Cl  0  0  0  0  0  0  0  0  0  0  0  0
    1.5021    2.2214    0.0000 Cl  0  0  0  0  0  0  0  0  0  0  0  0
  1  2  1  0
  1  7  1  0
  2  3  1  0
  2  5  2  0
  3  4  1  0
  3  8  2  0
  5  6  1  0
  6  7  2  0
  7  9  1  0
  9 10  2  0
  9 14  1  0
 10 11  1  0
 10 15  1  0
 11 12  2  0
 12 13  1  0
 13 14  2  0
 13 16  1  0
M  END
>  <DRUGBANK_ID>  (1) 
DB07758

>  <COMMON_NAME>  (1) 
5-(2,5-DICHLOROPHENYL)-2-FUROIC ACID

$$$$
