
     RDKit          2D

 22 24  0  0  0  0  0  0  0  0999 V2000
    2.5012    1.2560    0.0000 C   0  0  0  0  0  0  0  0  0  0  0  0
    1.7861    1.6685    0.0000 C   0  0  0  0  0  0  0  0  0  0  0  0
    1.0711    1.2560    0.0000 C   0  0  0  0  0  0  0  0  0  0  0  0
    1.7861    0.0185    0.0000 C   0  0  0  0  0  0  0  0  0  0  0  0
    2.5012    0.4310    0.0000 C   0  0  0  0  0  0  0  0  0  0  0  0
    0.3575   -0.8064    0.0000 C   0  0  0  0  0  0  0  0  0  0  0  0
    0.3575    0.0185    0.0000 C   0  0  0  0  0  0  0  0  0  0  0  0
   -0.3573    0.4310    0.0000 O   0  0  0  0  0  0  0  0  0  0  0  0
   -0.3573   -1.2189    0.0000 C   0  0  0  0  0  0  0  0  0  0  0  0
   -1.0711   -0.8064    0.0000 C   0  0  0  0  0  0  0  0  0  0  0  0
   -1.0711    0.0185    0.0000 C   0  0  0  0  0  0  0  0  0  0  0  0
   -1.7861    0.4310    0.0000 C   0  0  0  0  0  0  0  0  0  0  0  0
   -2.5012    0.0171    0.0000 C   0  0  0  0  0  0  0  0  0  0  0  0
   -2.5012   -0.8078    0.0000 C   0  0  0  0  0  0  0  0  0  0  0  0
   -1.7861   -1.2189    0.0000 C   0  0  0  0  0  0  0  0  0  0  0  0
   -1.7855   -2.0439    0.0000 O   0  0  0  0  0  0  0  0  0  0  0  0
   -3.2159    0.4293    0.0000 O   0  0  0  0  0  0  0  0  0  0  0  0
    1.0719   -1.2189    0.0000 O   0  0  0  0  0  0  0  0  0  0  0  0
    1.7861    2.4935    0.0000 O   0  0  0  0  0  0  0  0  0  0  0  0
    3.2156    1.6687    0.0000 O   0  0  0  0  0  0  0  0  0  0  0  0
    3.2156    0.0184    0.0000 O   0  0  0  0  0  0  0  0  0  0  0  0
    1.0719    0.4311    0.0000 C   0  0  0  0  0  0  0  0  0  0  0  0
  1  2  2  0
  1  5  1  0
  1 20  1  0
  2  3  1  0
  2 19  1  0
  3 22  2  0
  4  5  2  0
  5 21  1  0
  6  7  1  0
  6  9  1  0
  6 18  1  6
  7  8  1  0
  7 22  1  6
  8 11  1  0
  9 10  1  0
 10 11  2  0
 10 15  1  0
 11 12  1  0
 12 13  2  0
 13 14  1  0
 13 17  1  0
 14 15  2  0
 15 16  1  0
 22  4  1  0
M  END
>  <DRUGBANK_ID>  (1) 
DB03823

>  <SECONDARY_ACCESSION_NUMBERS>  (1) 
EXPT01331

>  <COMMON_NAME>  (1) 
Epigallocatechin

>  <CAS_NUMBER>  (1) 
970-74-1

>  <UNII>  (1) 
7Z197MG6QL

>  <SYNONYMS>  (1) 
(-)-epi-gallocatechin; (-)-epigallocatechin; (-)-epigallocatechol; (âˆ’)-epigallocatechin; 3,3',4',5,5',7-flavanhexol; Antiscurvy factor C2; EGC; Epi-gallocatechin; Galloepicatechin; L-epigallocatechin

$$$$
