
     RDKit          2D

  5  4  0  0  0  0  0  0  0  0999 V2000
    0.8250   -0.8250    0.0000 O   0  0  0  0  0  0  0  0  0  0  0  0
    0.8250    0.0000    0.0000 Cl  0  0  0  0  0  0  0  0  0  0  0  0
    0.8250    0.8250    0.0000 O   0  0  0  0  0  0  0  0  0  0  0  0
    1.6500    0.0000    0.0000 O   0  0  0  0  0  0  0  0  0  0  0  0
    0.0000    0.0000    0.0000 O   0  0  0  0  0  0  0  0  0  0  0  0
  1  2  1  0
  2  3  1  0
  2  4  1  0
  2  5  1  0
M  CHG  5   1  -1   2   3   3  -1   4  -1   5  -1
M  END
>  <DRUGBANK_ID>  (1) 
DB03138

>  <SECONDARY_ACCESSION_NUMBERS>  (1) 
EXPT02010

>  <COMMON_NAME>  (1) 
Perchlorate

>  <CAS_NUMBER>  (1) 
14797-73-0

>  <UNII>  (1) 
VLA4NZX2P4

>  <SYNONYMS>  (1) 
Perchlorate Ion

$$$$
