
     RDKit          2D

 12 11  0  0  0  0  0  0  0  0999 V2000
    0.0000    0.4150    0.0000 C   0  0  0  0  0  0  0  0  0  0  0  0
   -0.7125    0.8243    0.0000 N   0  0  0  0  0  0  0  0  0  0  0  0
    0.7125    0.8243    0.0000 N   0  0  0  0  0  0  0  0  0  0  0  0
    0.0000   -0.4112    0.0000 C   0  0  0  0  0  0  0  0  0  0  0  0
   -1.4288    0.4150    0.0000 C   0  0  0  0  0  0  0  0  0  0  0  0
    1.4288    0.4150    0.0000 C   0  0  0  0  0  0  0  0  0  0  0  0
    0.7125   -0.8243    0.0000 O   0  0  0  0  0  0  0  0  0  0  0  0
   -0.7125   -0.8243    0.0000 O   0  0  0  0  0  0  0  0  0  0  0  0
   -2.1413    0.8243    0.0000 N   0  0  0  0  0  0  0  0  0  0  0  0
   -1.4288   -0.4112    0.0000 O   0  0  0  0  0  0  0  0  0  0  0  0
    2.1413    0.8243    0.0000 N   0  0  0  0  0  0  0  0  0  0  0  0
    1.4288   -0.4112    0.0000 O   0  0  0  0  0  0  0  0  0  0  0  0
  1  2  1  0
  1  3  1  0
  1  4  1  0
  2  5  1  0
  3  6  1  0
  4  7  1  0
  4  8  2  0
  5  9  1  0
  5 10  2  0
  6 11  1  0
  6 12  2  0
M  CHG  1   7  -1
M  END
>  <DRUGBANK_ID>  (1) 
DB04380

>  <SECONDARY_ACCESSION_NUMBERS>  (1) 
EXPT00066

>  <COMMON_NAME>  (1) 
Allantoate

>  <SYNONYMS>  (1) 
bis[(aminocarbonyl)amino]acetate; diureido-acetate; diureidoacetate

$$$$
