
     RDKit          2D

 25 26  0  0  0  0  0  0  0  0999 V2000
   -0.2332    2.0272    0.0000 S   0  0  0  0  0  0  0  0  0  0  0  0
    2.1522    3.3930    0.0000 O   0  0  0  0  0  0  0  0  0  0  0  0
    0.9962    4.2330    0.0000 O   0  0  0  0  0  0  0  0  0  0  0  0
    1.1487   -0.5203    0.0000 O   0  0  0  0  0  0  0  0  0  0  0  0
    0.4342   -0.9328    0.0000 O   0  0  0  0  0  0  0  0  0  0  0  0
   -0.9947   -4.2330    0.0000 O   0  0  0  0  0  0  0  0  0  0  0  0
    1.1017    2.0272    0.0000 N   0  0  0  0  0  0  0  0  0  0  0  0
   -0.2802    0.3046    0.0000 N   0  0  0  0  0  0  0  0  0  0  0  0
   -1.7092   -0.5203    0.0000 N   0  0  0  0  0  0  0  0  0  0  0  0
    0.0217    2.8118    0.0000 C   0  0  0  0  0  0  0  0  0  0  0  0
    0.8467    2.8118    0.0000 C   0  0  0  0  0  0  0  0  0  0  0  0
    0.4342    1.5422    0.0000 C   0  0  0  0  0  0  0  0  0  0  0  0
    0.4342    0.7172    0.0000 C   0  0  0  0  0  0  0  0  0  0  0  0
   -0.7628    3.0668    0.0000 C   0  0  0  0  0  0  0  0  0  0  0  0
    0.0217    3.6368    0.0000 C   0  0  0  0  0  0  0  0  0  0  0  0
    1.3317    3.4793    0.0000 C   0  0  0  0  0  0  0  0  0  0  0  0
    1.1487    0.3046    0.0000 C   0  0  0  0  0  0  0  0  0  0  0  0
   -0.2802   -0.5203    0.0000 C   0  0  0  0  0  0  0  0  0  0  0  0
   -0.9947   -0.9328    0.0000 C   0  0  0  0  0  0  0  0  0  0  0  0
   -0.9947   -1.7579    0.0000 C   0  0  0  0  0  0  0  0  0  0  0  0
   -0.2802   -2.1704    0.0000 C   0  0  0  0  0  0  0  0  0  0  0  0
   -1.7092   -2.1704    0.0000 C   0  0  0  0  0  0  0  0  0  0  0  0
   -0.2802   -2.9955    0.0000 C   0  0  0  0  0  0  0  0  0  0  0  0
   -1.7092   -2.9955    0.0000 C   0  0  0  0  0  0  0  0  0  0  0  0
   -0.9947   -3.4080    0.0000 C   0  0  0  0  0  0  0  0  0  0  0  0
  1 10  1  0
  1 12  1  0
  2 16  1  0
  3 16  2  0
  4 17  2  0
  5 18  2  0
  6 25  1  0
  7 11  1  0
 12  7  1  1
  8 18  1  0
 10 11  1  0
 10 14  1  0
 10 15  1  0
 11 16  1  6
 12 13  1  0
 13  8  1  0
 13 17  1  1
 18 19  1  0
 19  9  1  1
 19 20  1  0
 20 21  2  0
 20 22  1  0
 21 23  1  0
 22 24  2  0
 23 25  2  0
 24 25  1  0
M  END
>  <DRUGBANK_ID>  (1) 
DB03658

>  <SECONDARY_ACCESSION_NUMBERS>  (1) 
EXPT00594

>  <COMMON_NAME>  (1) 
(2R,4S)-2-[(1R)-1-{[(2R)-2-Amino-2-(4-hydroxyphenyl)acetyl]amino}-2-oxoethyl]-5,5-dimethyl-1,3-thiazolidine-4-carboxylic acid

>  <SYNONYMS>  (1) 
(2R,4S)-2-[(1R)-1-[[(2R)-2-Amino-2-(4-hydroxyphenyl)acetyl]amino]-2-oxoethyl]-5,5-dimethyl-1,3-thiazolidine-4-carboxylic acid

$$$$
