
     RDKit          2D

 21 23  0  0  1  0  0  0  0  0999 V2000
    1.6442    1.0637    0.0000 C   0  0  0  0  0  0  0  0  0  0  0  0
    1.7733    0.2488    0.0000 C   0  0  0  0  0  0  0  0  0  0  0  0
    2.5579    0.5038    0.0000 C   0  0  0  0  0  0  0  0  0  0  0  0
    3.0428   -0.1637    0.0000 C   0  0  0  0  0  0  0  0  0  0  0  0
    3.8678   -0.1637    0.0000 O   0  0  0  0  0  0  0  0  0  0  0  0
    2.5579   -0.8311    0.0000 N   0  0  0  0  0  0  0  0  0  0  0  0
    1.7733   -0.5762    0.0000 C   0  0  0  0  0  0  0  0  0  0  0  0
    0.9483   -0.5762    0.0000 C   0  0  0  0  0  0  0  0  0  0  0  0
    0.3649   -1.1595    0.0000 O   0  0  0  0  0  0  0  0  0  0  0  0
    0.9483    0.2488    0.0000 O   0  0  0  0  0  0  0  0  0  0  0  0
    1.6442   -1.3910    0.0000 C   0  0  0  0  0  0  0  0  0  0  0  0
    2.2854   -1.9102    0.0000 C   0  0  0  0  0  0  0  0  0  0  0  0
    3.0556   -1.6146    0.0000 C   0  0  0  0  0  0  0  0  0  0  0  0
    3.6967   -2.1337    0.0000 C   0  0  0  0  0  0  0  0  0  0  0  0
    3.5677   -2.9486    0.0000 C   0  0  0  0  0  0  0  0  0  0  0  0
    2.7975   -3.2442    0.0000 C   0  0  0  0  0  0  0  0  0  0  0  0
    2.1563   -2.7251    0.0000 C   0  0  0  0  0  0  0  0  0  0  0  0
    0.8740   -1.6867    0.0000 O   0  0  0  0  0  0  0  0  0  0  0  0
    2.8129    1.2884    0.0000 C   0  0  0  0  0  0  0  0  0  0  0  0
    3.6198    1.4599    0.0000 C   0  0  0  0  0  0  0  0  0  0  0  0
    3.8748    2.2445    0.0000 Cl  0  0  0  0  0  0  0  0  0  0  0  0
  2  1  1  6
  2  3  1  0
  2  7  1  0
  2 10  1  0
  3  4  1  0
  3 19  1  1
  4  5  2  0
  4  6  1  0
  7  6  1  1
  7  8  1  0
  7 11  1  0
  8  9  2  0
  8 10  1  0
 11 18  1  6
 12 11  1  0
 12 13  1  1
 12 17  1  0
 13 14  1  0
 14 15  1  0
 15 16  1  0
 16 17  2  0
 19 20  1  0
 20 21  1  0
M  END
>  <DRUGBANK_ID>  (1) 
DB11762

>  <COMMON_NAME>  (1) 
Marizomib

>  <CAS_NUMBER>  (1) 
437742-34-2

>  <UNII>  (1) 
703P9YDP7F

>  <SYNONYMS>  (1) 
Marizomib

$$$$
