
     RDKit          2D

 34 39  0  0  0  0  0  0  0  0999 V2000
   -3.4566    1.4280    0.0000 C   0  0  0  0  0  0  0  0  0  0  0  0
   -3.5305    0.6063    0.0000 C   0  0  0  0  0  0  0  0  0  0  0  0
   -2.7081    1.7749    0.0000 C   0  0  0  0  0  0  0  0  0  0  0  0
    1.7887   -1.6977    0.0000 C   0  0  0  0  0  0  0  0  0  0  0  0
    1.2503   -2.3229    0.0000 C   0  0  0  0  0  0  0  0  0  0  0  0
   -2.9297   -0.6901    0.0000 C   0  0  0  0  0  0  0  0  0  0  0  0
   -2.2550   -1.1649    0.0000 C   0  0  0  0  0  0  0  0  0  0  0  0
    1.8959    2.0818    0.0000 C   0  0  0  0  0  0  0  0  0  0  0  0
   -1.1388    3.4194    0.0000 C   0  0  0  0  0  0  0  0  0  0  0  0
    1.3051    2.6577    0.0000 C   0  0  0  0  0  0  0  0  0  0  0  0
   -1.8544    3.0088    0.0000 C   0  0  0  0  0  0  0  0  0  0  0  0
    0.7059   -0.7653    0.0000 C   0  0  0  0  0  0  0  0  0  0  0  0
   -1.4326    0.0036    0.0000 C   0  0  0  0  0  0  0  0  0  0  0  0
   -0.0985   -2.7943    0.0000 C   0  0  0  0  0  0  0  0  0  0  0  0
    3.0070    1.6322    0.0000 C   0  0  0  0  0  0  0  0  0  0  0  0
    2.0354   -0.2775    0.0000 C   0  0  0  0  0  0  0  0  0  0  0  0
    3.0858    0.2997    0.0000 C   0  0  0  0  0  0  0  0  0  0  0  0
    1.5165   -0.9189    0.0000 C   0  0  0  0  0  0  0  0  0  0  0  0
   -2.8558    0.1315    0.0000 C   0  0  0  0  0  0  0  0  0  0  0  0
    0.4398   -2.1692    0.0000 C   0  0  0  0  0  0  0  0  0  0  0  0
    2.2388    1.3315    0.0000 C   0  0  0  0  0  0  0  0  0  0  0  0
   -1.5065   -0.8180    0.0000 C   0  0  0  0  0  0  0  0  0  0  0  0
   -2.1073    0.4784    0.0000 C   0  0  0  0  0  0  0  0  0  0  0  0
   -0.5272    2.8658    0.0000 C   0  0  0  0  0  0  0  0  0  0  0  0
   -2.0334    1.3001    0.0000 C   0  0  0  0  0  0  0  0  0  0  0  0
    0.1676   -1.3904    0.0000 C   0  0  0  0  0  0  0  0  0  0  0  0
   -0.8647    2.1130    0.0000 C   0  0  0  0  0  0  0  0  0  0  0  0
   -0.6369   -3.4194    0.0000 N   0  0  0  0  0  0  0  0  0  0  0  0
    3.5305    0.9946    0.0000 N   0  0  0  0  0  0  0  0  0  0  0  0
    0.5462    2.9812    0.0000 N   0  0  0  0  0  0  0  0  0  0  0  0
    2.2875    0.5079    0.0000 N   0  0  0  0  0  0  0  0  0  0  0  0
   -1.6849    2.2014    0.0000 N   0  0  0  0  0  0  0  0  0  0  0  0
   -0.4540    1.3975    0.0000 O   0  0  0  0  0  0  0  0  0  0  0  0
   -0.8199   -1.2755    0.0000 O   0  0  0  0  0  0  0  0  0  0  0  0
  2  1  2  0
  3  1  1  0
  5  4  1  0
  7  6  1  0
 10  8  1  0
 11  9  1  0
 18  4  2  0
 18 12  1  0
 18 16  1  0
 19  2  1  0
 19  6  2  0
 20  5  1  0
 20 14  1  6
 20 26  1  0
 21  8  1  0
 21 15  2  0
 22  7  2  0
 22 13  1  0
 23 13  2  0
 23 19  1  0
 24  9  1  6
 24 27  1  0
 24 30  1  0
 25  3  2  0
 25 23  1  0
 26 12  1  0
 28 14  3  0
 29 15  1  0
 29 17  2  0
 30 10  1  0
 31 16  1  0
 31 17  1  0
 31 21  1  0
 32 11  1  0
 32 25  1  0
 32 27  1  0
 33 27  2  0
 34 22  1  0
 34 26  1  0
M  END
>  <DRUGBANK_ID>  (1) 
DB08676

>  <COMMON_NAME>  (1) 
(20S)-19,20,22,23-TETRAHYDRO-19-OXO-5H,21H-18,20-ETHANO-12,14-ETHENO-6,10-METHENOBENZ[D]IMIDAZO[4,3-L][1,6,9,13]OXATRIAZACYCLONOADECOSINE-9-CARBONITRILE

$$$$
