
     RDKit          2D

 13 15  0  0  0  0  0  0  0  0999 V2000
    0.0000    0.9413    0.0000 N   0  0  0  0  0  0  0  0  0  0  0  0
   -0.6674    0.4564    0.0000 C   0  0  0  0  0  0  0  0  0  0  0  0
    0.4124   -0.3281    0.0000 C   0  0  0  0  0  0  0  0  0  0  0  0
    0.6674    0.4564    0.0000 C   0  0  0  0  0  0  0  0  0  0  0  0
   -0.4125   -0.3281    0.0000 C   0  0  0  0  0  0  0  0  0  0  0  0
    0.9645   -0.9413    0.0000 C   0  0  0  0  0  0  0  0  0  0  0  0
    1.7714   -0.7698    0.0000 C   0  0  0  0  0  0  0  0  0  0  0  0
    2.0264    0.0149    0.0000 C   0  0  0  0  0  0  0  0  0  0  0  0
    1.4744    0.6280    0.0000 C   0  0  0  0  0  0  0  0  0  0  0  0
   -0.9645   -0.9413    0.0000 C   0  0  0  0  0  0  0  0  0  0  0  0
   -1.4744    0.6280    0.0000 C   0  0  0  0  0  0  0  0  0  0  0  0
   -2.0264    0.0149    0.0000 C   0  0  0  0  0  0  0  0  0  0  0  0
   -1.7715   -0.7698    0.0000 C   0  0  0  0  0  0  0  0  0  0  0  0
  1  2  1  0
  1  4  1  0
  2 11  2  0
  3  5  1  0
  4  3  2  0
  5  2  1  0
  6  3  1  0
  6  7  2  0
  7  8  1  0
  8  9  2  0
  9  4  1  0
 10  5  2  0
 10 13  1  0
 11 12  1  0
 12 13  2  0
M  END
>  <DRUGBANK_ID>  (1) 
DB07301

>  <COMMON_NAME>  (1) 
Carbazole

>  <CAS_NUMBER>  (1) 
86-74-8

>  <UNII>  (1) 
0P2197HHHN

>  <SYNONYMS>  (1) 
9-Azafluorene; 9H-Carbazole; Dibenzopyrrole; Diphenylenimide

$$$$
