SB7
     RDKit          2D

 13 13  0  0  0  0  0  0  0  0999 V2000
   -1.8925    1.2044    0.0000 C   0  0  0  0  0  0  0  0  0  0  0  0
   -1.1780    0.7919    0.0000 C   0  0  0  0  0  0  0  0  0  0  0  0
   -1.1780   -0.0331    0.0000 C   0  0  0  0  0  0  0  0  0  0  0  0
   -1.8925   -0.4456    0.0000 C   0  0  0  0  0  0  0  0  0  0  0  0
   -2.6070   -0.0331    0.0000 C   0  0  0  0  0  0  0  0  0  0  0  0
   -2.6070    0.7919    0.0000 C   0  0  0  0  0  0  0  0  0  0  0  0
   -0.4636   -0.4456    0.0000 C   0  0  0  0  0  0  0  0  0  0  0  0
    0.2509   -0.0331    0.0000 C   0  0  0  0  0  0  0  0  0  0  0  0
    0.9654   -0.4456    0.0000 C   0  0  0  0  0  0  0  0  0  0  0  0
    1.6798   -0.0331    0.0000 N   0  0  0  0  0  0  0  0  0  0  0  0
    1.6798    0.7919    0.0000 O   0  0  0  0  0  0  0  0  0  0  0  0
    2.3943   -0.4456    0.0000 C   0  0  0  0  0  0  0  0  0  0  0  0
    3.1088   -0.0331    0.0000 O   0  0  0  0  0  0  0  0  0  0  0  0
  1  2  2  0
  1  6  1  0
  2  3  1  0
  3  4  2  0
  3  7  1  0
  4  5  1  0
  5  6  2  0
  7  8  1  0
  8  9  1  0
  9 10  1  0
 10 11  1  0
 10 12  1  0
 12 13  1  0
M  END
>  <DRUGBANK_ID>  (1) 
DB08523

>  <COMMON_NAME>  (1) 
[HYDROXY(3-PHENYLPROPYL)AMINO]METHANOL

$$$$
