
     RDKit          2D

 23 24  0  0  0  0  0  0  0  0999 V2000
   -0.8590    0.3164    0.0000 C   0  0  0  0  0  0  0  0  0  0  0  0
   -0.1420    0.7349    0.0000 C   0  0  0  0  0  0  0  0  0  0  0  0
   -1.5727    0.7355    0.0000 C   0  0  0  0  0  0  0  0  0  0  0  0
   -2.2856    0.3171    0.0000 C   0  0  0  0  0  0  0  0  0  0  0  0
    2.7531    0.6717    0.0000 N   0  0  0  0  0  0  0  0  0  0  0  0
    0.5715    0.3240    0.0000 N   0  0  0  0  0  0  0  0  0  0  0  0
   -0.8499   -0.5004    0.0000 C   0  0  0  0  0  0  0  0  0  0  0  0
    1.9981    0.3274    0.0000 C   0  0  0  0  0  0  0  0  0  0  0  0
   -0.1472    1.5601    0.0000 O   0  0  0  0  0  0  0  0  0  0  0  0
    1.2884    0.7424    0.0000 C   0  0  0  0  0  0  0  0  0  0  0  0
   -2.2805   -0.5081    0.0000 C   0  0  0  0  0  0  0  0  0  0  0  0
   -1.5585   -0.9147    0.0000 C   0  0  0  0  0  0  0  0  0  0  0  0
    3.3074    0.0558    0.0000 C   0  0  0  0  0  0  0  0  0  0  0  0
   -0.1322   -0.9071    0.0000 O   0  0  0  0  0  0  0  0  0  0  0  0
    2.9225    1.4782    0.0000 C   0  0  0  0  0  0  0  0  0  0  0  0
    2.9007   -0.6578    0.0000 C   0  0  0  0  0  0  0  0  0  0  0  0
    2.0943   -0.4925    0.0000 C   0  0  0  0  0  0  0  0  0  0  0  0
   -0.1228   -1.7321    0.0000 C   0  0  0  0  0  0  0  0  0  0  0  0
    3.7076    1.7357    0.0000 C   0  0  0  0  0  0  0  0  0  0  0  0
   -1.5727    1.5566    0.0000 O   0  0  0  0  0  0  0  0  0  0  0  0
   -2.9994    0.7227    0.0000 C   0  0  0  0  0  0  0  0  0  0  0  0
   -3.7076    0.3075    0.0000 C   0  0  0  0  0  0  0  0  0  0  0  0
   -1.5519   -1.7357    0.0000 Cl  0  0  0  0  0  0  0  0  0  0  0  0
  1  7  1  0
  1  3  2  0
  2  1  1  0
  3 20  1  0
  3  4  1  0
  4 21  1  0
  6  2  1  0
  7 12  2  0
  8  5  1  0
  8 10  1  1
  8 17  1  0
  9  2  2  0
 10  6  1  0
 11  4  2  0
 12 11  1  0
 12 23  1  0
 13  5  1  0
 13 16  1  0
 14  7  1  0
 15  5  1  0
 16 17  1  0
 18 14  1  0
 19 15  1  0
 21 22  1  0
M  END
>  <DRUGBANK_ID>  (1) 
DB15492

>  <COMMON_NAME>  (1) 
Eticlopride

>  <CAS_NUMBER>  (1) 
84226-12-0

>  <UNII>  (1) 
J8M468HBH4

>  <SYNONYMS>  (1) 
Eticloprida; Eticlopride; Eticlopridum

$$$$
