CPX
     RDKit          2D

 32 35  0  0  0  0  0  0  0  0999 V2000
   -1.6317    1.9309    0.0000 O   0  0  0  0  0  0  0  0  0  0  0  0
    2.3122   -3.8252    0.0000 C   0  0  0  0  0  0  0  0  0  0  0  0
    1.6447   -4.3101    0.0000 C   0  0  0  0  0  0  0  0  0  0  0  0
    1.5585   -3.4897    0.0000 C   0  0  0  0  0  0  0  0  0  0  0  0
   -1.6317    1.1059    0.0000 C   0  0  0  0  0  0  0  0  0  0  0  0
   -2.3462    0.6934    0.0000 N   0  0  0  0  0  0  0  0  0  0  0  0
   -3.0607    1.1059    0.0000 C   0  0  0  0  0  0  0  0  0  0  0  0
   -3.8143    0.7704    0.0000 C   0  0  0  0  0  0  0  0  0  0  0  0
   -4.3664    1.3835    0.0000 C   0  0  0  0  0  0  0  0  0  0  0  0
   -3.9539    2.0979    0.0000 C   0  0  0  0  0  0  0  0  0  0  0  0
   -3.1469    1.9264    0.0000 C   0  0  0  0  0  0  0  0  0  0  0  0
   -0.9172    0.6934    0.0000 N   0  0  0  0  0  0  0  0  0  0  0  0
   -0.2028    1.1059    0.0000 C   0  0  0  0  0  0  0  0  0  0  0  0
   -0.2028    1.9309    0.0000 C   0  0  0  0  0  0  0  0  0  0  0  0
    0.5117    2.3434    0.0000 C   0  0  0  0  0  0  0  0  0  0  0  0
   -0.9172    2.3434    0.0000 C   0  0  0  0  0  0  0  0  0  0  0  0
    0.5117    0.6934    0.0000 C   0  0  0  0  0  0  0  0  0  0  0  0
    1.2262    1.1059    0.0000 O   0  0  0  0  0  0  0  0  0  0  0  0
    0.5117   -0.1316    0.0000 N   0  0  0  0  0  0  0  0  0  0  0  0
    1.1791   -0.6165    0.0000 C   0  0  0  0  0  0  0  0  0  0  0  0
    0.9242   -1.4011    0.0000 C   0  0  0  0  0  0  0  0  0  0  0  0
    0.0992   -1.4011    0.0000 C   0  0  0  0  0  0  0  0  0  0  0  0
   -0.1557   -0.6165    0.0000 C   0  0  0  0  0  0  0  0  0  0  0  0
    1.4091   -2.0685    0.0000 N   0  0  0  0  0  0  0  0  0  0  0  0
    1.0736   -2.8222    0.0000 C   0  0  0  0  0  0  0  0  0  0  0  0
    0.2531   -2.9085    0.0000 O   0  0  0  0  0  0  0  0  0  0  0  0
    1.9638   -0.3615    0.0000 C   0  0  0  0  0  0  0  0  0  0  0  0
    2.2187   -1.1462    0.0000 C   0  0  0  0  0  0  0  0  0  0  0  0
    1.6667   -1.7593    0.0000 O   0  0  0  0  0  0  0  0  0  0  0  0
    1.7088    0.4231    0.0000 C   0  0  0  0  0  0  0  0  0  0  0  0
    2.4934    0.6780    0.0000 C   0  0  0  0  0  0  0  0  0  0  0  0
    2.7484   -0.1066    0.0000 C   0  0  0  0  0  0  0  0  0  0  0  0
  1  5  2  0
  2  3  1  0
  2  4  1  0
  3  4  1  0
  4 25  1  0
  5  6  1  0
  5 12  1  0
  6  7  1  0
  7  8  1  0
  7 11  1  0
  8  9  1  0
  9 10  1  0
 10 11  1  0
 13 12  1  1
 13 14  1  0
 13 17  1  0
 14 15  1  0
 14 16  1  0
 17 18  2  0
 17 19  1  0
 19 20  1  0
 19 23  1  0
 20 21  1  0
 20 27  1  6
 21 22  1  0
 21 24  1  1
 22 23  1  0
 24 25  1  0
 25 26  2  0
 27 28  1  0
 27 30  1  0
 27 32  1  0
 28 29  2  0
 30 31  1  0
 31 32  1  0
M  END
>  <DRUGBANK_ID>  (1) 
DB07582

>  <COMMON_NAME>  (1) 
N-[(2R,3S)-1-((2S)-2-{[(CYCLOPENTYLAMINO)CARBONYL]AMINO}-3-METHYLBUTANOYL)-2-(1-FORMYL-1-CYCLOBUTYL)PYRROLIDINYL]CYCLOPROPANECARBOXAMIDE

$$$$
