
     RDKit          2D

 31 32  0  0  0  0  0  0  0  0999 V2000
   -2.5286   -1.9187    0.0000 C   0  0  0  0  0  0  0  0  0  0  0  0
   -2.5286   -2.7437    0.0000 C   0  0  0  0  0  0  0  0  0  0  0  0
   -1.8041   -3.1562    0.0000 C   0  0  0  0  0  0  0  0  0  0  0  0
   -1.8041   -1.5061    0.0000 C   0  0  0  0  0  0  0  0  0  0  0  0
   -1.0898   -1.9187    0.0000 C   0  0  0  0  0  0  0  0  0  0  0  0
   -1.0898   -2.7437    0.0000 C   0  0  0  0  0  0  0  0  0  0  0  0
   -0.3754   -3.1562    0.0000 C   0  0  0  0  0  0  0  0  0  0  0  0
    0.3389   -2.7437    0.0000 C   0  0  0  0  0  0  0  0  0  0  0  0
    0.3389   -1.9187    0.0000 C   0  0  0  0  0  0  0  0  0  0  0  0
    0.9115   -1.5880    0.0000 C   0  0  0  0  0  0  0  0  0  0  0  0
   -3.1003   -3.0760    0.0000 C   0  0  0  0  0  0  0  0  0  0  0  0
   -1.8010   -0.6791    0.0000 O   0  0  0  0  0  0  0  0  0  0  0  0
   -2.5153   -0.2624    0.0000 C   0  0  0  0  0  0  0  0  0  0  0  0
   -3.0893   -0.5906    0.0000 O   0  0  0  0  0  0  0  0  0  0  0  0
   -2.5121    0.5645    0.0000 C   0  0  0  0  0  0  0  0  0  0  0  0
   -3.2264    0.9812    0.0000 C   0  0  0  0  0  0  0  0  0  0  0  0
   -2.5092    1.2257    0.0000 C   0  0  0  0  0  0  0  0  0  0  0  0
   -1.9381    0.8928    0.0000 C   0  0  0  0  0  0  0  0  0  0  0  0
   -3.2239    1.6425    0.0000 C   0  0  0  0  0  0  0  0  0  0  0  0
    0.3408   -1.1158    0.0000 C   0  0  0  0  0  0  0  0  0  0  0  0
    0.3819   -0.2898    0.0000 C   0  0  0  0  0  0  0  0  0  0  0  0
    1.6731   -0.2703    0.0000 O   0  0  0  0  0  0  0  0  0  0  0  0
    1.9352    2.1179    0.0000 C   0  0  0  0  0  0  0  0  0  0  0  0
    1.8941    1.2919    0.0000 C   0  0  0  0  0  0  0  0  0  0  0  0
    1.1585    0.9140    0.0000 C   0  0  0  0  0  0  0  0  0  0  0  0
    2.6708    2.4958    0.0000 C   0  0  0  0  0  0  0  0  0  0  0  0
    3.2264    2.1373    0.0000 O   0  0  0  0  0  0  0  0  0  0  0  0
    2.7036    3.1562    0.0000 O   0  0  0  0  0  0  0  0  0  0  0  0
    2.4498    0.9335    0.0000 O   0  0  0  0  0  0  0  0  0  0  0  0
    1.1174    0.0880    0.0000 C   0  0  0  0  0  0  0  0  0  0  0  0
   -0.3754   -1.5061    0.0000 C   0  0  0  0  0  0  0  0  0  0  0  0
  1  2  1  0
  1  4  1  0
  2  3  1  0
  2 11  1  6
  3  6  2  0
  4 12  1  6
  5  4  1  0
  5  6  1  6
  5 31  1  0
  6  7  1  0
  7  8  2  0
  8  9  1  0
  9 31  1  0
  9 10  1  1
 12 13  1  0
 13 14  2  0
 13 15  1  0
 15 16  1  0
 15 17  1  0
 15 18  1  0
 16 19  1  0
 20 21  1  0
 23 24  1  0
 23 26  1  0
 24 25  1  0
 24 29  1  6
 26 27  1  0
 26 28  2  0
 30 21  1  0
 30 22  1  6
 30 25  1  0
 31 20  1  1
M  END
>  <DRUGBANK_ID>  (1) 
DB14714

>  <COMMON_NAME>  (1) 
Tenivastatin

>  <CAS_NUMBER>  (1) 
121009-77-6

>  <UNII>  (1) 
9L6M5TH46B

>  <SYNONYMS>  (1) 
Tenivastatin

$$$$
