51U
     RDKit          2D

 27 29  0  0  0  0  0  0  0  0999 V2000
    2.2955   -0.8706    0.0000 C   0  0  0  0  0  0  0  0  0  0  0  0
    1.3394   -1.9325    0.0000 N   0  0  0  0  0  0  0  0  0  0  0  0
    1.5109   -1.1255    0.0000 C   0  0  0  0  0  0  0  0  0  0  0  0
    0.8978   -0.5735    0.0000 C   0  0  0  0  0  0  0  0  0  0  0  0
    1.0694    0.2335    0.0000 O   0  0  0  0  0  0  0  0  0  0  0  0
    0.1132   -0.8284    0.0000 N   0  0  0  0  0  0  0  0  0  0  0  0
   -0.1417   -1.6131    0.0000 C   0  0  0  0  0  0  0  0  0  0  0  0
   -0.9667   -1.6131    0.0000 C   0  0  0  0  0  0  0  0  0  0  0  0
   -1.2217   -0.8284    0.0000 C   0  0  0  0  0  0  0  0  0  0  0  0
   -0.5542   -0.3435    0.0000 C   0  0  0  0  0  0  0  0  0  0  0  0
   -0.5542    0.4815    0.0000 C   0  0  0  0  0  0  0  0  0  0  0  0
   -1.2687    0.8940    0.0000 N   0  0  0  0  0  0  0  0  0  0  0  0
   -1.2687    1.7190    0.0000 C   0  0  0  0  0  0  0  0  0  0  0  0
   -1.9832    2.1315    0.0000 C   0  0  0  0  0  0  0  0  0  0  0  0
   -2.6976    1.7190    0.0000 C   0  0  0  0  0  0  0  0  0  0  0  0
   -3.4121    2.1315    0.0000 C   0  0  0  0  0  0  0  0  0  0  0  0
   -4.1266    1.7190    0.0000 C   0  0  0  0  0  0  0  0  0  0  0  0
   -3.4121    2.9565    0.0000 C   0  0  0  0  0  0  0  0  0  0  0  0
   -2.6976    3.3690    0.0000 C   0  0  0  0  0  0  0  0  0  0  0  0
   -1.9832    2.9565    0.0000 C   0  0  0  0  0  0  0  0  0  0  0  0
    0.1602    0.8940    0.0000 O   0  0  0  0  0  0  0  0  0  0  0  0
    2.9086   -1.4226    0.0000 C   0  0  0  0  0  0  0  0  0  0  0  0
    3.6933   -1.1677    0.0000 C   0  0  0  0  0  0  0  0  0  0  0  0
    4.3064   -1.7197    0.0000 C   0  0  0  0  0  0  0  0  0  0  0  0
    4.1348   -2.5267    0.0000 C   0  0  0  0  0  0  0  0  0  0  0  0
    3.3502   -2.7816    0.0000 C   0  0  0  0  0  0  0  0  0  0  0  0
    2.7371   -2.2296    0.0000 C   0  0  0  0  0  0  0  0  0  0  0  0
  1  3  1  0
  1 22  1  0
  3  2  1  1
  3  4  1  0
  4  5  2  0
  4  6  1  0
  6  7  1  0
  6 10  1  0
  7  8  1  0
  8  9  1  0
  9 10  1  0
 10 11  1  1
 11 12  1  0
 11 21  2  0
 12 13  1  0
 13 14  1  0
 14 15  2  0
 14 20  1  0
 15 16  1  0
 16 17  1  0
 16 18  2  0
 18 19  1  0
 19 20  2  0
 22 23  2  0
 22 27  1  0
 23 24  1  0
 24 25  2  0
 25 26  1  0
 26 27  2  0
M  END
>  <DRUGBANK_ID>  (1) 
DB07133

>  <COMMON_NAME>  (1) 
D-phenylalanyl-N-(3-methylbenzyl)-L-prolinamide

$$$$
