244
     RDKit          2D

 20 22  0  0  0  0  0  0  0  0999 V2000
    2.2122   -0.2491    0.0000 C   0  0  0  0  0  0  0  0  0  0  0  0
    1.4977   -0.6616    0.0000 C   0  0  0  0  0  0  0  0  0  0  0  0
    0.7833   -0.2491    0.0000 C   0  0  0  0  0  0  0  0  0  0  0  0
    0.7833    0.5759    0.0000 C   0  0  0  0  0  0  0  0  0  0  0  0
    1.4977    0.9884    0.0000 C   0  0  0  0  0  0  0  0  0  0  0  0
    2.2122    0.5759    0.0000 C   0  0  0  0  0  0  0  0  0  0  0  0
   -0.0014   -0.5040    0.0000 O   0  0  0  0  0  0  0  0  0  0  0  0
   -0.4863    0.1634    0.0000 C   0  0  0  0  0  0  0  0  0  0  0  0
   -0.0014    0.8308    0.0000 C   0  0  0  0  0  0  0  0  0  0  0  0
    2.9267    0.9884    0.0000 O   0  0  0  0  0  0  0  0  0  0  0  0
    1.4977   -1.4866    0.0000 C   0  0  0  0  0  0  0  0  0  0  0  0
    2.2122   -1.8991    0.0000 C   0  0  0  0  0  0  0  0  0  0  0  0
    2.9267   -2.3116    0.0000 N   0  0  0  0  0  0  0  0  0  0  0  0
   -1.3113    0.1634    0.0000 C   0  0  0  0  0  0  0  0  0  0  0  0
   -1.7238   -0.5511    0.0000 C   0  0  0  0  0  0  0  0  0  0  0  0
   -2.5488   -0.5511    0.0000 C   0  0  0  0  0  0  0  0  0  0  0  0
   -2.9613    0.1634    0.0000 C   0  0  0  0  0  0  0  0  0  0  0  0
   -2.5488    0.8779    0.0000 C   0  0  0  0  0  0  0  0  0  0  0  0
   -1.7238    0.8779    0.0000 C   0  0  0  0  0  0  0  0  0  0  0  0
   -3.7863    0.1634    0.0000 O   0  0  0  0  0  0  0  0  0  0  0  0
  1  2  2  0
  1  6  1  0
  2  3  1  0
  2 11  1  0
  3  4  2  0
  3  7  1  0
  4  5  1  0
  4  9  1  0
  5  6  2  0
  6 10  1  0
  7  8  1  0
  8  9  2  0
  8 14  1  0
 11 12  1  0
 12 13  3  0
 14 15  2  0
 14 19  1  0
 15 16  1  0
 16 17  2  0
 17 18  1  0
 17 20  1  0
 18 19  2  0
M  END
>  <DRUGBANK_ID>  (1) 
DB06927

>  <COMMON_NAME>  (1) 
[5-HYDROXY-2-(4-HYDROXYPHENYL)-1-BENZOFURAN-7-YL]ACETONITRILE

>  <UNII>  (1) 
7B877S86BL

$$$$
