2E1
     RDKit          2D

 25 27  0  0  0  0  0  0  0  0999 V2000
    0.9888    1.3413    0.0000 C   0  0  0  0  0  0  0  0  0  0  0  0
    0.9888    0.5163    0.0000 C   0  0  0  0  0  0  0  0  0  0  0  0
   -0.4402    0.5163    0.0000 C   0  0  0  0  0  0  0  0  0  0  0  0
   -0.4402    1.3413    0.0000 C   0  0  0  0  0  0  0  0  0  0  0  0
    0.2743    0.1038    0.0000 N   0  0  0  0  0  0  0  0  0  0  0  0
    0.2743   -0.7212    0.0000 C   0  0  0  0  0  0  0  0  0  0  0  0
   -0.3932   -1.2062    0.0000 C   0  0  0  0  0  0  0  0  0  0  0  0
   -1.1778   -0.9512    0.0000 C   0  0  0  0  0  0  0  0  0  0  0  0
    0.2743    1.7538    0.0000 N   0  0  0  0  0  0  0  0  0  0  0  0
   -1.7909   -1.5033    0.0000 O   0  0  0  0  0  0  0  0  0  0  0  0
   -1.3493   -0.1443    0.0000 N   0  0  0  0  0  0  0  0  0  0  0  0
   -2.1339    0.1107    0.0000 C   0  0  0  0  0  0  0  0  0  0  0  0
   -2.7470   -0.4413    0.0000 C   0  0  0  0  0  0  0  0  0  0  0  0
   -0.1382   -1.9908    0.0000 N   0  0  0  0  0  0  0  0  0  0  0  0
    0.6868   -1.9908    0.0000 N   0  0  0  0  0  0  0  0  0  0  0  0
    0.9417   -1.2062    0.0000 C   0  0  0  0  0  0  0  0  0  0  0  0
    1.7263   -0.9512    0.0000 C   0  0  0  0  0  0  0  0  0  0  0  0
    1.8979   -0.1443    0.0000 C   0  0  0  0  0  0  0  0  0  0  0  0
    2.6825    0.1107    0.0000 C   0  0  0  0  0  0  0  0  0  0  0  0
    2.8540    0.9177    0.0000 Cl  0  0  0  0  0  0  0  0  0  0  0  0
    3.2956   -0.4413    0.0000 C   0  0  0  0  0  0  0  0  0  0  0  0
    4.0802   -0.1864    0.0000 O   0  0  0  0  0  0  0  0  0  0  0  0
    3.1241   -1.2483    0.0000 C   0  0  0  0  0  0  0  0  0  0  0  0
    2.3394   -1.5033    0.0000 C   0  0  0  0  0  0  0  0  0  0  0  0
    2.1679   -2.3102    0.0000 O   0  0  0  0  0  0  0  0  0  0  0  0
  1  2  1  0
  1  9  1  0
  2  5  1  0
  3  4  1  0
  3  5  1  0
  4  9  1  0
  5  6  1  0
  6  7  1  0
  6 16  2  0
  7  8  1  0
  7 14  2  0
  8 10  2  0
  8 11  1  0
 11 12  1  0
 12 13  1  0
 14 15  1  0
 15 16  1  0
 16 17  1  0
 17 18  2  0
 17 24  1  0
 18 19  1  0
 19 20  1  0
 19 21  2  0
 21 22  1  0
 21 23  1  0
 23 24  2  0
 24 25  1  0
M  END
>  <DRUGBANK_ID>  (1) 
DB06958

>  <COMMON_NAME>  (1) 
5-(5-CHLORO-2,4-DIHYDROXYPHENYL)-N-ETHYL-4-PIPERAZIN-1-YL-1H-PYRAZOLE-3-CARBOXAMIDE

$$$$
