
     RDKit          2D

 17 16  0  0  0  0  0  0  0  0999 V2000
   -1.4289   -0.0022    0.0000 C   0  0  0  0  0  0  0  0  0  0  0  0
   -1.4289   -0.8272    0.0000 C   0  0  0  0  0  0  0  0  0  0  0  0
   -2.1435    0.4102    0.0000 C   0  0  0  0  0  0  0  0  0  0  0  0
   -2.1435   -1.2397    0.0000 C   0  0  0  0  0  0  0  0  0  0  0  0
   -2.8580   -0.0022    0.0000 C   0  0  0  0  0  0  0  0  0  0  0  0
   -2.8580   -0.8272    0.0000 C   0  0  0  0  0  0  0  0  0  0  0  0
   -0.7144    0.4102    0.0000 C   0  0  0  0  0  0  0  0  0  0  0  0
    0.0000   -0.0022    0.0000 C   0  0  0  0  0  0  0  0  0  0  0  0
   -0.7145   -1.2397    0.0000 C   0  0  0  0  0  0  0  0  0  0  0  0
    0.0000   -0.8273    0.0000 C   0  0  0  0  0  0  0  0  0  0  0  0
    0.7146    0.4101    0.0000 C   0  0  0  0  0  0  0  0  0  0  0  0
    1.4289   -0.0024    0.0000 C   0  0  0  0  0  0  0  0  0  0  0  0
    0.7143   -1.2398    0.0000 C   0  0  0  0  0  0  0  0  0  0  0  0
    2.1436    0.4099    0.0000 C   0  0  0  0  0  0  0  0  0  0  0  0
    2.8580   -0.0027    0.0000 O   0  0  0  0  0  0  0  0  0  0  0  0
    2.1436    1.2351    0.0000 O   0  0  0  0  0  0  0  0  0  0  0  0
    0.7176    1.2398    0.0000 O   0  0  0  0  0  0  0  0  0  0  0  0
  3  1  1  0
  4  2  1  0
  5  3  1  0
  6  4  1  0
  6  5  1  0
  7  1  1  0
  8  7  1  0
  9  2  1  0
 10  9  1  0
 11  8  1  0
 11 17  1  1
 12 11  1  0
 12 14  1  0
 13 10  1  0
 14 15  1  0
 14 16  2  0
M  END
>  <DRUGBANK_ID>  (1) 
DB02767

>  <SECONDARY_ACCESSION_NUMBERS>  (1) 
EXPT01506

>  <COMMON_NAME>  (1) 
(R)-3-hydroxytetradecanoic acid

>  <CAS_NUMBER>  (1) 
28715-21-1

>  <UNII>  (1) 
R7C245Y68X

>  <SYNONYMS>  (1) 
(−)-3-hydroxymyristic acid; (3R)-hydroxymyristic acid; (R)-(-)-3-Hydroxytetradecanoic acid; (R)-(−)-3-hydroxytetradecanoic acid; (R)-3-Hydroxymyristic acid; (R)-3-Hydroxytetradecanoic acid; D-(-)-beta-Hydroxymyristic acid; D-(−)-β-hydroxymyristic acid; β-hydroxymyristic acid; β-hydroxytetradecanoic acid

$$$$
