
     RDKit          2D

 42 43  0  0  1  0  0  0  0  0999 V2000
    0.1952   -3.2982    0.0000 C   0  0  0  0  0  0  0  0  0  0  0  0
    5.3472   -3.3330    0.0000 C   0  0  0  0  0  0  0  0  0  0  0  0
    4.9645    1.2415    0.0000 C   0  0  0  0  0  0  0  0  0  0  0  0
    5.6360   -2.9127    0.0000 C   0  0  0  0  0  0  0  0  0  0  0  0
    5.7528   -1.9628    0.0000 C   0  0  0  0  0  0  0  0  0  0  0  0
    8.3012   -0.2245    0.0000 C   0  0  0  0  0  0  0  0  0  0  0  0
    5.3272   -6.3075    0.0000 C   0  0  0  0  0  0  0  0  0  0  0  0
    0.9863   -3.5324    0.0000 C   0  0  0  0  0  0  0  0  0  0  0  0
    6.7951    0.5806    0.0000 C   0  0  0  0  0  0  0  0  0  0  0  0
    6.0506    0.2253    0.0000 C   0  0  0  0  0  0  0  0  0  0  0  0
    7.3631   -0.0177    0.0000 C   0  0  0  0  0  0  0  0  0  0  0  0
    1.5846   -2.9644    0.0000 C   0  0  0  0  0  0  0  0  0  0  0  0
    3.9578   -3.6668    0.0000 C   0  0  0  0  0  0  0  0  0  0  0  0
    4.9417   -4.7032    0.0000 C   0  0  0  0  0  0  0  0  0  0  0  0
    6.7366   -2.9991    0.0000 C   0  0  0  0  0  0  0  0  0  0  0  0
    3.3796   -1.2603    0.0000 C   0  0  0  0  0  0  0  0  0  0  0  0
    4.7489   -3.9010    0.0000 C   0  0  0  0  0  0  0  0  0  0  0  0
    5.1746    0.4437    0.0000 C   0  0  0  0  0  0  0  0  0  0  0  0
    6.1383   -3.5672    0.0000 C   0  0  0  0  0  0  0  0  0  0  0  0
    6.5439   -2.1970    0.0000 C   0  0  0  0  0  0  0  0  0  0  0  0
    3.7651   -2.8647    0.0000 C   0  0  0  0  0  0  0  0  0  0  0  0
    4.1707   -1.4945    0.0000 C   0  0  0  0  0  0  0  0  0  0  0  0
    2.7813   -1.8283    0.0000 C   0  0  0  0  0  0  0  0  0  0  0  0
    6.9696   -0.7428    0.0000 C   0  0  0  0  0  0  0  0  0  0  0  0
    5.7327   -4.9373    0.0000 C   0  0  0  0  0  0  0  0  0  0  0  0
    2.9740   -2.6305    0.0000 C   0  0  0  0  0  0  0  0  0  0  0  0
    6.3311   -4.3693    0.0000 C   0  0  0  0  0  0  0  0  0  0  0  0
    4.3634   -2.2967    0.0000 C   0  0  0  0  0  0  0  0  0  0  0  0
    7.1422   -1.6290    0.0000 C   0  0  0  0  0  0  0  0  0  0  0  0
    4.5763   -0.1243    0.0000 C   0  0  0  0  0  0  0  0  0  0  0  0
    8.1033   -2.6864    0.0000 C   0  0  0  0  0  0  0  0  0  0  0  0
    8.8891   -2.9377    0.0000 N   0  0  0  0  0  0  0  0  0  0  0  0
    2.3757   -3.1985    0.0000 N   0  0  0  0  0  0  0  0  0  0  0  0
    4.7690   -0.9265    0.0000 N   0  0  0  0  0  0  0  0  0  0  0  0
    1.9902   -1.5942    0.0000 O   0  0  0  0  0  0  0  0  0  0  0  0
    7.1221   -4.6035    0.0000 O   0  0  0  0  0  0  0  0  0  0  0  0
    5.1545   -2.5308    0.0000 O   0  0  0  0  0  0  0  0  0  0  0  0
    3.7852    0.1098    0.0000 O   0  0  0  0  0  0  0  0  0  0  0  0
    7.4928   -3.2413    0.0000 O   0  0  0  0  0  0  0  0  0  0  0  0
    7.7850   -0.8681    0.0000 O   0  0  0  0  0  0  0  0  0  0  0  0
    5.9255   -5.7395    0.0000 O   0  0  0  0  0  0  0  0  0  0  0  0
    7.9280   -1.8802    0.0000 O   0  0  0  0  0  0  0  0  0  0  0  0
  8  1  2  0
 10  9  1  0
 11  9  2  0
 12  8  1  0
 17  2  1  1
 17 13  1  0
 17 14  1  0
 18  3  1  0
 18 10  2  0
 19  4  1  1
 19 15  1  0
 20  5  1  0
 20 15  2  0
 21 13  1  0
 22 16  2  0
 23 16  1  0
 24 11  1  0
 24 40  1  1
 25 14  1  0
 25 41  1  1
 26 21  2  0
 26 23  1  0
 27 19  1  0
 27 25  1  0
 27 36  1  1
 28 21  1  0
 28 22  1  0
 29 20  1  0
 29 24  1  0
 29 42  1  1
 30 18  1  0
 32 31  2  0
 33 12  1  0
 33 26  1  0
 34 22  1  0
 34 30  2  3
 35 23  2  0
 37 28  2  0
 38 30  1  0
 39 31  1  0
 40  6  1  0
 41  7  1  0
 42 31  1  0
M  END
>  <DRUGBANK_ID>  (1) 
DB05134

>  <SECONDARY_ACCESSION_NUMBERS>  (1) 
DB06398

>  <COMMON_NAME>  (1) 
Tanespimycin

>  <CAS_NUMBER>  (1) 
75747-14-7

>  <UNII>  (1) 
4GY0AVT3L4

>  <SYNONYMS>  (1) 
17-allylamino-17-demethoxygeldanamycin; 17-allylamino-17-demethoxygeldanamycin (17-AGG); 17AAG; Tanespimycin; tanespimycina

$$$$
