
     RDKit          2D

 32 37  0  0  0  0  0  0  0  0999 V2000
    0.2787   -2.6194    0.0000 O   0  0  0  0  0  0  0  0  0  0  0  0
    3.8509   -2.2070    0.0000 O   0  0  0  0  0  0  0  0  0  0  0  0
   -0.9051    1.2365    0.0000 O   0  0  0  0  0  0  0  0  0  0  0  0
    0.2787   -0.9695    0.0000 N   0  0  0  0  0  0  0  0  0  0  0  0
    2.4221   -1.3820    0.0000 N   0  0  0  0  0  0  0  0  0  0  0  0
    0.9931   -1.3820    0.0000 C   0  0  0  0  0  0  0  0  0  0  0  0
    1.7076   -0.9695    0.0000 C   0  0  0  0  0  0  0  0  0  0  0  0
   -0.4356   -1.3820    0.0000 C   0  0  0  0  0  0  0  0  0  0  0  0
    0.9931   -2.2070    0.0000 C   0  0  0  0  0  0  0  0  0  0  0  0
   -0.0224   -0.2069    0.0000 C   0  0  0  0  0  0  0  0  0  0  0  0
   -1.1731   -0.9410    0.0000 C   0  0  0  0  0  0  0  0  0  0  0  0
   -0.8420   -0.1907    0.0000 C   0  0  0  0  0  0  0  0  0  0  0  0
   -0.4356   -2.2070    0.0000 C   0  0  0  0  0  0  0  0  0  0  0  0
    3.1365   -0.9695    0.0000 C   0  0  0  0  0  0  0  0  0  0  0  0
    2.4221   -2.2070    0.0000 C   0  0  0  0  0  0  0  0  0  0  0  0
    0.4482    0.4705    0.0000 C   0  0  0  0  0  0  0  0  0  0  0  0
    3.8509   -1.3820    0.0000 C   0  0  0  0  0  0  0  0  0  0  0  0
    3.1365   -2.6194    0.0000 C   0  0  0  0  0  0  0  0  0  0  0  0
   -1.9205   -1.3649    0.0000 C   0  0  0  0  0  0  0  0  0  0  0  0
   -1.1731   -2.6480    0.0000 C   0  0  0  0  0  0  0  0  0  0  0  0
   -1.2857    0.5046    0.0000 C   0  0  0  0  0  0  0  0  0  0  0  0
   -1.9205   -2.2241    0.0000 C   0  0  0  0  0  0  0  0  0  0  0  0
   -2.1099    0.4682    0.0000 C   0  0  0  0  0  0  0  0  0  0  0  0
   -2.5535    1.1637    0.0000 C   0  0  0  0  0  0  0  0  0  0  0  0
   -2.4904   -0.2635    0.0000 C   0  0  0  0  0  0  0  0  0  0  0  0
   -3.3776    1.1273    0.0000 C   0  0  0  0  0  0  0  0  0  0  0  0
   -2.1454    1.9200    0.0000 C   0  0  0  0  0  0  0  0  0  0  0  0
   -3.3145   -0.3001    0.0000 C   0  0  0  0  0  0  0  0  0  0  0  0
   -3.7582    0.3953    0.0000 C   0  0  0  0  0  0  0  0  0  0  0  0
   -3.8509    1.8445    0.0000 C   0  0  0  0  0  0  0  0  0  0  0  0
   -2.6019    2.6480    0.0000 C   0  0  0  0  0  0  0  0  0  0  0  0
   -3.4604    2.6100    0.0000 C   0  0  0  0  0  0  0  0  0  0  0  0
  1  9  1  0
  1 13  1  0
  2 17  1  0
  2 18  1  0
  3 21  2  0
  4  6  1  0
  4  8  1  0
  4 10  1  0
  5  7  1  0
  5 14  1  0
  5 15  1  0
  6  7  1  6
  6  9  1  0
  8 11  1  0
  8 13  2  0
 10 12  2  0
 10 16  1  0
 11 12  1  0
 11 19  2  0
 12 21  1  0
 13 20  1  0
 14 17  1  0
 15 18  1  0
 19 22  1  0
 20 22  2  0
 21 23  1  0
 23 24  1  0
 23 25  2  0
 24 26  2  0
 24 27  1  0
 25 28  1  0
 26 29  1  0
 26 30  1  0
 27 31  2  0
 28 29  2  0
 30 32  2  0
 31 32  1  0
M  END
>  <DRUGBANK_ID>  (1) 
DB13950

>  <COMMON_NAME>  (1) 
WIN 55212-2

>  <CAS_NUMBER>  (1) 
131543-22-1

>  <UNII>  (1) 
5H31GI9502

>  <SYNONYMS>  (1) 
(2,3-Dihydro-5-methyl-3-((4-morpholinyl)methyl)pyrrolo-(1,2,3-de)-1,4-benzoxazin-6-yl)(1-naphthalenyl)methanone monomethanesulfonate

$$$$
