4EA
     RDKit          2D

 28 31  0  0  0  0  0  0  0  0999 V2000
   -1.2344    2.4970    0.0000 C   0  0  0  0  0  0  0  0  0  0  0  0
   -0.4274    2.3254    0.0000 C   0  0  0  0  0  0  0  0  0  0  0  0
    0.1246    2.9385    0.0000 C   0  0  0  0  0  0  0  0  0  0  0  0
   -0.1303    3.7232    0.0000 C   0  0  0  0  0  0  0  0  0  0  0  0
    0.9316    2.7670    0.0000 C   0  0  0  0  0  0  0  0  0  0  0  0
    1.4836    3.3801    0.0000 C   0  0  0  0  0  0  0  0  0  0  0  0
    1.2287    4.1647    0.0000 N   0  0  0  0  0  0  0  0  0  0  0  0
    0.4217    4.3363    0.0000 C   0  0  0  0  0  0  0  0  0  0  0  0
    2.5088   -3.2907    0.0000 C   0  0  0  0  0  0  0  0  0  0  0  0
    1.7944   -3.7032    0.0000 C   0  0  0  0  0  0  0  0  0  0  0  0
    1.0799   -3.2907    0.0000 C   0  0  0  0  0  0  0  0  0  0  0  0
    1.0799   -2.4657    0.0000 C   0  0  0  0  0  0  0  0  0  0  0  0
    1.7944   -2.0532    0.0000 C   0  0  0  0  0  0  0  0  0  0  0  0
    2.5088   -2.4657    0.0000 C   0  0  0  0  0  0  0  0  0  0  0  0
    0.2953   -3.5456    0.0000 N   0  0  0  0  0  0  0  0  0  0  0  0
   -0.1896   -2.8782    0.0000 C   0  0  0  0  0  0  0  0  0  0  0  0
    0.2953   -2.2108    0.0000 C   0  0  0  0  0  0  0  0  0  0  0  0
   -2.8905    0.6577    0.0000 C   0  0  0  0  0  0  0  0  0  0  0  0
   -3.1454    1.4423    0.0000 N   0  0  0  0  0  0  0  0  0  0  0  0
   -2.5934    2.0554    0.0000 C   0  0  0  0  0  0  0  0  0  0  0  0
   -1.7864    1.8839    0.0000 C   0  0  0  0  0  0  0  0  0  0  0  0
   -1.5315    1.0993    0.0000 C   0  0  0  0  0  0  0  0  0  0  0  0
   -2.0835    0.4862    0.0000 C   0  0  0  0  0  0  0  0  0  0  0  0
   -1.8285   -0.2985    0.0000 O   0  0  0  0  0  0  0  0  0  0  0  0
   -1.0216   -0.4700    0.0000 C   0  0  0  0  0  0  0  0  0  0  0  0
   -0.7666   -1.2546    0.0000 C   0  0  0  0  0  0  0  0  0  0  0  0
    0.0403   -1.4261    0.0000 C   0  0  0  0  0  0  0  0  0  0  0  0
   -1.3187   -1.8677    0.0000 N   0  0  0  0  0  0  0  0  0  0  0  0
  1  2  2  0
  1 21  1  0
  2  3  1  0
  3  4  2  0
  3  5  1  0
  4  8  1  0
  5  6  2  0
  6  7  1  0
  7  8  2  0
  9 10  2  0
  9 14  1  0
 10 11  1  0
 11 12  2  0
 11 15  1  0
 12 13  1  0
 12 17  1  0
 13 14  2  0
 15 16  1  0
 16 17  2  0
 17 27  1  0
 18 19  2  0
 18 23  1  0
 19 20  1  0
 20 21  2  0
 21 22  1  0
 22 23  2  0
 23 24  1  0
 24 25  1  0
 25 26  1  0
 26 27  1  0
 26 28  1  6
M  END
>  <DRUGBANK_ID>  (1) 
DB07107

>  <COMMON_NAME>  (1) 
(1S)-2-(1H-INDOL-3-YL)-1-[({5-[(E)-2-PYRIDIN-4-YLVINYL]PYRIDIN-3-YL}OXY)METHYL]ETHYLAMINE

$$$$
