
     RDKit          2D

 30 33  0  0  0  0  0  0  0  0999 V2000
    3.4274   -1.0194    0.0000 C   0  0  0  0  0  0  0  0  0  0  0  0
    2.8439   -0.4360    0.0000 C   0  0  0  0  0  0  0  0  0  0  0  0
    1.8335   -1.4465    0.0000 C   0  0  0  0  0  0  0  0  0  0  0  0
    2.4169   -2.0298    0.0000 C   0  0  0  0  0  0  0  0  0  0  0  0
    3.2138   -1.8163    0.0000 C   0  0  0  0  0  0  0  0  0  0  0  0
    3.7973   -2.3997    0.0000 F   0  0  0  0  0  0  0  0  0  0  0  0
    2.0470   -0.6496    0.0000 C   0  0  0  0  0  0  0  0  0  0  0  0
    0.6386   -0.0661    0.0000 C   0  0  0  0  0  0  0  0  0  0  0  0
    0.0552   -0.6496    0.0000 O   0  0  0  0  0  0  0  0  0  0  0  0
    1.4637   -0.0661    0.0000 N   0  0  0  0  0  0  0  0  0  0  0  0
    0.6387    0.7588    0.0000 C   0  0  0  0  0  0  0  0  0  0  0  0
    3.6263    1.1541    0.0000 C   0  0  0  0  0  0  0  0  0  0  0  0
    2.8978    2.3836    0.0000 C   0  0  0  0  0  0  0  0  0  0  0  0
    2.1881    1.9630    0.0000 C   0  0  0  0  0  0  0  0  0  0  0  0
    2.9164    0.7337    0.0000 C   0  0  0  0  0  0  0  0  0  0  0  0
    3.6170    1.9791    0.0000 C   0  0  0  0  0  0  0  0  0  0  0  0
    4.3269    2.3997    0.0000 O   0  0  0  0  0  0  0  0  0  0  0  0
    2.1973    1.1381    0.0000 C   0  0  0  0  0  0  0  0  0  0  0  0
    1.4637    0.7588    0.0000 C   0  0  0  0  0  0  0  0  0  0  0  0
   -0.0741    1.1632    0.0000 C   0  0  0  0  0  0  0  0  0  0  0  0
   -2.8981   -0.5444    0.0000 C   0  0  0  0  0  0  0  0  0  0  0  0
   -3.6209   -0.1464    0.0000 C   0  0  0  0  0  0  0  0  0  0  0  0
   -2.2088    0.7074    0.0000 C   0  0  0  0  0  0  0  0  0  0  0  0
   -2.1921   -0.1174    0.0000 C   0  0  0  0  0  0  0  0  0  0  0  0
   -3.6375    0.6784    0.0000 C   0  0  0  0  0  0  0  0  0  0  0  0
   -2.9315    1.1053    0.0000 C   0  0  0  0  0  0  0  0  0  0  0  0
   -0.7802    0.7363    0.0000 C   0  0  0  0  0  0  0  0  0  0  0  0
   -4.3269   -0.5734    0.0000 F   0  0  0  0  0  0  0  0  0  0  0  0
   -1.5029    1.1342    0.0000 C   0  0  0  0  0  0  0  0  0  0  0  0
   -1.5197    1.9591    0.0000 O   0  0  0  0  0  0  0  0  0  0  0  0
  1  2  2  0
  1  5  1  0
  2  7  1  0
  3  4  1  0
  4  5  2  0
  5  6  1  0
  7  3  2  0
  7 10  1  0
  8 10  1  0
  8  9  2  0
 10 19  1  0
 11  8  1  0
 11 20  1  6
 12 16  2  0
 12 15  1  0
 13 14  2  0
 14 18  1  0
 16 13  1  0
 16 17  1  0
 18 15  2  0
 19 18  1  1
 19 11  1  0
 20 27  1  0
 21 22  2  0
 22 28  1  0
 22 25  1  0
 24 23  2  0
 24 21  1  0
 25 26  2  0
 26 23  1  0
 27 29  1  0
 29 23  1  0
 29 30  1  1
M  END
>  <DRUGBANK_ID>  (1) 
DB00973

>  <SECONDARY_ACCESSION_NUMBERS>  (1) 
APRD00619

>  <COMMON_NAME>  (1) 
Ezetimibe

>  <CAS_NUMBER>  (1) 
163222-33-1

>  <UNII>  (1) 
EOR26LQQ24

>  <SYNONYMS>  (1) 
Ezetimiba; ézétimibe; Ezetimibe; Ezetimibum

$$$$
