
     RDKit          2D

 33 35  0  0  0  0  0  0  0  0999 V2000
    3.2151    1.0865    0.0000 C   0  0  0  0  0  0  0  0  0  0  0  0
    3.9295    0.6740    0.0000 C   0  0  0  0  0  0  0  0  0  0  0  0
    3.9295   -0.1509    0.0000 C   0  0  0  0  0  0  0  0  0  0  0  0
    3.2151   -0.5635    0.0000 C   0  0  0  0  0  0  0  0  0  0  0  0
    2.5006   -0.1509    0.0000 C   0  0  0  0  0  0  0  0  0  0  0  0
    2.5006    0.6740    0.0000 N   0  0  0  0  0  0  0  0  0  0  0  0
    4.6440    1.0865    0.0000 C   0  0  0  0  0  0  0  0  0  0  0  0
    5.3585    1.4990    0.0000 F   0  0  0  0  0  0  0  0  0  0  0  0
    5.0565    0.3721    0.0000 F   0  0  0  0  0  0  0  0  0  0  0  0
    4.2315    1.8010    0.0000 F   0  0  0  0  0  0  0  0  0  0  0  0
    3.2151   -1.3884    0.0000 Cl  0  0  0  0  0  0  0  0  0  0  0  0
    1.7861   -0.5635    0.0000 O   0  0  0  0  0  0  0  0  0  0  0  0
    1.0717   -0.1509    0.0000 C   0  0  0  0  0  0  0  0  0  0  0  0
    0.3572   -0.5635    0.0000 C   0  0  0  0  0  0  0  0  0  0  0  0
   -0.3572   -0.1509    0.0000 C   0  0  0  0  0  0  0  0  0  0  0  0
   -0.3572    0.6740    0.0000 C   0  0  0  0  0  0  0  0  0  0  0  0
    0.3572    1.0865    0.0000 C   0  0  0  0  0  0  0  0  0  0  0  0
    1.0717    0.6740    0.0000 C   0  0  0  0  0  0  0  0  0  0  0  0
    1.7861    1.0865    0.0000 Cl  0  0  0  0  0  0  0  0  0  0  0  0
   -1.0717   -0.5635    0.0000 N   0  0  0  0  0  0  0  0  0  0  0  0
   -1.7861   -0.1509    0.0000 C   0  0  0  0  0  0  0  0  0  0  0  0
   -1.7861    0.6740    0.0000 O   0  0  0  0  0  0  0  0  0  0  0  0
   -2.5006   -0.5635    0.0000 N   0  0  0  0  0  0  0  0  0  0  0  0
   -3.2151   -0.1509    0.0000 C   0  0  0  0  0  0  0  0  0  0  0  0
   -3.2151    0.6740    0.0000 O   0  0  0  0  0  0  0  0  0  0  0  0
   -3.9295   -0.5635    0.0000 C   0  0  0  0  0  0  0  0  0  0  0  0
   -4.6440   -0.1509    0.0000 C   0  0  0  0  0  0  0  0  0  0  0  0
   -5.3585   -0.5635    0.0000 C   0  0  0  0  0  0  0  0  0  0  0  0
   -5.3585   -1.3884    0.0000 C   0  0  0  0  0  0  0  0  0  0  0  0
   -4.6440   -1.8010    0.0000 C   0  0  0  0  0  0  0  0  0  0  0  0
   -3.9295   -1.3884    0.0000 C   0  0  0  0  0  0  0  0  0  0  0  0
   -3.2151   -1.8010    0.0000 F   0  0  0  0  0  0  0  0  0  0  0  0
   -4.6440    0.6740    0.0000 F   0  0  0  0  0  0  0  0  0  0  0  0
  1  2  2  0
  2  3  1  0
  2  7  1  0
  3  4  2  0
  4  5  1  0
  4 11  1  0
  5  6  2  0
  5 12  1  0
  6  1  1  0
  7  8  1  0
  7  9  1  0
  7 10  1  0
 12 13  1  0
 13 14  2  0
 14 15  1  0
 15 20  1  0
 15 16  2  0
 16 17  1  0
 17 18  2  0
 18 13  1  0
 18 19  1  0
 20 21  1  0
 21 22  2  0
 21 23  1  0
 23 24  1  0
 24 25  2  0
 24 26  1  0
 26 27  2  0
 27 28  1  0
 27 33  1  0
 28 29  2  0
 29 30  1  0
 30 31  2  0
 31 26  1  0
 31 32  1  0
M  END
>  <DRUGBANK_ID>  (1) 
DB15583

>  <COMMON_NAME>  (1) 
Fluazuron

>  <CAS_NUMBER>  (1) 
86811-58-7

>  <UNII>  (1) 
VB0PV6I7L6

>  <SYNONYMS>  (1) 
Fluazuron; Fluazuronum

$$$$
