
     RDKit          2D

 30 33  0  0  1  0  0  0  0  0999 V2000
    0.0000    0.0000    0.0000 C   0  0  0  0  0  0  0  0  0  0  0  0
    0.7145   -0.4125    0.0000 C   0  0  0  0  0  0  0  0  0  0  0  0
    1.4289    0.0000    0.0000 C   0  0  0  0  0  0  0  0  0  0  0  0
    2.1434   -0.4125    0.0000 C   0  0  0  0  0  0  0  0  0  0  0  0
    2.8579    0.0000    0.0000 C   0  0  0  0  0  0  0  0  0  0  0  0
    3.5724   -0.4125    0.0000 S   0  0  0  0  0  0  0  0  0  0  0  0
    3.5724   -1.2375    0.0000 C   0  0  0  0  0  0  0  0  0  0  0  0
    4.2868   -1.6500    0.0000 N   0  0  0  0  0  0  0  0  0  0  0  0
    2.8579   -1.6500    0.0000 N   0  0  0  0  0  0  0  0  0  0  0  0
    2.1434   -1.2375    0.0000 C   0  0  0  0  0  0  0  0  0  0  0  0
    1.4289   -1.6500    0.0000 C   0  0  0  0  0  0  0  0  0  0  0  0
    0.7145   -1.2375    0.0000 O   0  0  0  0  0  0  0  0  0  0  0  0
    2.1434   -2.0625    0.0000 C   0  0  0  0  0  0  0  0  0  0  0  0
    2.8109   -2.5474    0.0000 N   0  0  0  0  0  0  0  0  0  0  0  0
    2.5559   -3.3320    0.0000 C   0  0  0  0  0  0  0  0  0  0  0  0
    3.0408   -3.9995    0.0000 N   0  0  0  0  0  0  0  0  0  0  0  0
    3.8613   -3.9132    0.0000 C   0  0  0  0  0  0  0  0  0  0  0  0
    4.1969   -3.1596    0.0000 O   0  0  0  0  0  0  0  0  0  0  0  0
    4.3462   -4.5807    0.0000 C   0  0  0  0  0  0  0  0  0  0  0  0
    5.1667   -4.4945    0.0000 N   0  0  0  0  0  0  0  0  0  0  0  0
    5.6516   -5.1619    0.0000 C   0  0  0  0  0  0  0  0  0  0  0  0
    5.3161   -5.9156    0.0000 C   0  0  0  0  0  0  0  0  0  0  0  0
    5.8010   -6.5830    0.0000 O   0  0  0  0  0  0  0  0  0  0  0  0
    5.4654   -7.3367    0.0000 C   0  0  0  0  0  0  0  0  0  0  0  0
    5.9504   -8.0041    0.0000 F   0  0  0  0  0  0  0  0  0  0  0  0
    4.6450   -7.4229    0.0000 F   0  0  0  0  0  0  0  0  0  0  0  0
    4.4956   -6.0018    0.0000 C   0  0  0  0  0  0  0  0  0  0  0  0
    4.0107   -5.3344    0.0000 C   0  0  0  0  0  0  0  0  0  0  0  0
    1.7309   -3.3320    0.0000 C   0  0  0  0  0  0  0  0  0  0  0  0
    1.4760   -2.5474    0.0000 S   0  0  0  0  0  0  0  0  0  0  0  0
  2  1  1  1
  2  3  1  0
  2 12  1  0
  4  3  1  1
  4  5  1  0
  4 10  1  0
  5  6  1  0
  6  7  1  0
  7  8  1  0
  7  9  2  0
 10  9  1  0
 10 11  1  0
 10 13  1  6
 11 12  1  0
 13 14  2  0
 13 30  1  0
 14 15  1  0
 15 16  1  0
 15 29  2  0
 16 17  1  0
 17 18  2  0
 17 19  1  0
 19 20  2  0
 19 28  1  0
 20 21  1  0
 21 22  2  0
 22 23  1  0
 22 27  1  0
 23 24  1  0
 24 25  1  0
 24 26  1  0
 27 28  2  0
 29 30  1  0
M  END
>  <DRUGBANK_ID>  (1) 
DB15105

>  <COMMON_NAME>  (1) 
PF-06751979

>  <CAS_NUMBER>  (1) 
1818339-66-0

>  <UNII>  (1) 
1Y0Y126GUG

$$$$
