
     RDKit          2D

 21 21  0  0  0  0  0  0  0  0999 V2000
   -0.1787   -0.3609    0.0000 O   0  0  0  0  0  0  0  0  0  0  0  0
   -1.0877   -1.0213    0.0000 O   0  0  0  0  0  0  0  0  0  0  0  0
    2.4450    1.0401    0.0000 O   0  0  0  0  0  0  0  0  0  0  0  0
    1.4889    2.1020    0.0000 O   0  0  0  0  0  0  0  0  0  0  0  0
    2.9596   -1.3805    0.0000 O   0  0  0  0  0  0  0  0  0  0  0  0
    1.5619   -1.6776    0.0000 O   0  0  0  0  0  0  0  0  0  0  0  0
   -1.8022    0.2160    0.0000 N   0  0  0  0  0  0  0  0  0  0  0  0
    0.2628    0.9980    0.0000 N   0  0  0  0  0  0  0  0  0  0  0  0
   -2.5167   -1.8463    0.0000 N   0  0  0  0  0  0  0  0  0  0  0  0
   -1.1348    0.7009    0.0000 C   0  0  0  0  0  0  0  0  0  0  0  0
   -1.3897    1.4855    0.0000 C   0  0  0  0  0  0  0  0  0  0  0  0
   -2.2146    1.4855    0.0000 C   0  0  0  0  0  0  0  0  0  0  0  0
   -2.4696    0.7009    0.0000 C   0  0  0  0  0  0  0  0  0  0  0  0
   -0.3502    0.4460    0.0000 C   0  0  0  0  0  0  0  0  0  0  0  0
   -1.8022   -0.6089    0.0000 C   0  0  0  0  0  0  0  0  0  0  0  0
    1.0473    0.7431    0.0000 C   0  0  0  0  0  0  0  0  0  0  0  0
    1.2188   -0.0637    0.0000 C   0  0  0  0  0  0  0  0  0  0  0  0
   -2.5167   -1.0213    0.0000 C   0  0  0  0  0  0  0  0  0  0  0  0
    2.0034   -0.3187    0.0000 C   0  0  0  0  0  0  0  0  0  0  0  0
    1.6604    1.2951    0.0000 C   0  0  0  0  0  0  0  0  0  0  0  0
    2.1750   -1.1256    0.0000 C   0  0  0  0  0  0  0  0  0  0  0  0
  1 14  2  0
  2 15  2  0
  3 20  1  0
  4 20  2  0
  5 21  1  0
  6 21  2  0
  7 10  1  0
  7 13  1  0
  7 15  1  0
  8 14  1  0
  9 18  1  0
 10 11  1  0
 10 14  1  1
 11 12  1  0
 12 13  1  0
 15 18  1  0
 16  8  1  0
 16 17  1  6
 16 20  1  0
 17 19  1  0
 19 21  1  0
M  END
>  <DRUGBANK_ID>  (1) 
DB05633

>  <COMMON_NAME>  (1) 
Glypromate

>  <CAS_NUMBER>  (1) 
32302-76-4

>  <UNII>  (1) 
ZYK4RVV5LS

>  <SYNONYMS>  (1) 
Gly-pro-glu; Glycyl-prolyl-glutamic acid; GPE

$$$$
