PSY
     RDKit          2D

 12 12  0  0  0  0  0  0  0  0999 V2000
    2.1208    0.3151    0.0000 C   0  0  0  0  0  0  0  0  0  0  0  0
    2.1208   -0.5099    0.0000 C   0  0  0  0  0  0  0  0  0  0  0  0
    1.4064    0.7276    0.0000 C   0  0  0  0  0  0  0  0  0  0  0  0
    1.4064   -0.9224    0.0000 C   0  0  0  0  0  0  0  0  0  0  0  0
    0.6919    0.3151    0.0000 C   0  0  0  0  0  0  0  0  0  0  0  0
    0.6919   -0.5099    0.0000 C   0  0  0  0  0  0  0  0  0  0  0  0
   -0.0226   -0.9224    0.0000 O   0  0  0  0  0  0  0  0  0  0  0  0
   -0.7370   -0.5099    0.0000 S   0  0  0  0  0  0  0  0  0  0  0  0
   -0.3245    0.2046    0.0000 O   0  0  0  0  0  0  0  0  0  0  0  0
   -1.1495   -1.2244    0.0000 O   0  0  0  0  0  0  0  0  0  0  0  0
   -1.4515   -0.0974    0.0000 C   0  0  0  0  0  0  0  0  0  0  0  0
   -2.1660   -0.5099    0.0000 C   0  0  0  0  0  0  0  0  0  0  0  0
  1  2  2  0
  2  4  1  0
  3  1  1  0
  3  5  2  0
  5  6  1  0
  6  4  2  0
  6  7  1  0
  8  7  1  0
  8  9  2  0
 10  8  2  0
 11  8  1  0
 12 11  2  0
M  END
>  <DRUGBANK_ID>  (1) 
DB08433

>  <COMMON_NAME>  (1) 
phenyl ethenesulfonate

>  <UNII>  (1) 
HN14RW9PVP

$$$$
