
     RDKit          2D

  6  5  0  0  0  0  0  0  0  0999 V2000
   -0.3573    0.2062    0.0000 C   0  0  0  0  0  0  0  0  0  0  0  0
   -0.3573   -0.6188    0.0000 O   0  0  0  0  0  0  0  0  0  0  0  0
    0.3572    0.6188    0.0000 C   0  0  0  0  0  0  0  0  0  0  0  0
   -1.0717    0.6188    0.0000 C   0  0  0  0  0  0  0  0  0  0  0  0
    1.0717    0.2062    0.0000 C   0  0  0  0  0  0  0  0  0  0  0  0
    1.0717   -0.6187    0.0000 O   0  0  0  0  0  0  0  0  0  0  0  0
  1  2  1  0
  1  3  1  0
  1  4  1  0
  3  5  1  0
  5  6  1  0
M  END
>  <DRUGBANK_ID>  (1) 
DB14110

>  <COMMON_NAME>  (1) 
Butylene glycol

>  <CAS_NUMBER>  (1) 
107-88-0

>  <UNII>  (1) 
3XUS85K0RA

>  <SYNONYMS>  (1) 
(RS)-1,3-Butandiol; 1,3 Butylene glycol; 1,3-Butandiol; 1,3-Butanediol; 1,3-Butylene glycol; 1,3-Butylenglykol; BD; beta-Butylene glycol; Butane-1,3-diol; Methyltrimethylene glycol

$$$$
