
     RDKit          2D

 21 22  0  0  0  0  0  0  0  0999 V2000
   -0.9252   -3.6175    0.0000 C   0  0  0  0  0  0  0  0  0  0  0  0
   -0.7537   -2.8106    0.0000 C   0  0  0  0  0  0  0  0  0  0  0  0
   -1.3057   -2.1975    0.0000 N   0  0  0  0  0  0  0  0  0  0  0  0
   -0.8932   -1.4830    0.0000 N   0  0  0  0  0  0  0  0  0  0  0  0
   -0.0862   -1.6545    0.0000 C   0  0  0  0  0  0  0  0  0  0  0  0
    0.5269   -1.1025    0.0000 C   0  0  0  0  0  0  0  0  0  0  0  0
    0.0000   -2.4750    0.0000 C   0  0  0  0  0  0  0  0  0  0  0  0
    0.7145   -2.8875    0.0000 C   0  0  0  0  0  0  0  0  0  0  0  0
    1.4289   -2.4750    0.0000 C   0  0  0  0  0  0  0  0  0  0  0  0
    2.1434   -2.8875    0.0000 C   0  0  0  0  0  0  0  0  0  0  0  0
    2.8579   -2.4750    0.0000 O   0  0  0  0  0  0  0  0  0  0  0  0
    3.5724   -2.8875    0.0000 C   0  0  0  0  0  0  0  0  0  0  0  0
    4.2868   -2.4750    0.0000 C   0  0  0  0  0  0  0  0  0  0  0  0
    5.0013   -2.8875    0.0000 C   0  0  0  0  0  0  0  0  0  0  0  0
    5.0013   -3.7125    0.0000 C   0  0  0  0  0  0  0  0  0  0  0  0
    4.2868   -4.1250    0.0000 C   0  0  0  0  0  0  0  0  0  0  0  0
    3.5724   -3.7125    0.0000 C   0  0  0  0  0  0  0  0  0  0  0  0
    2.8579   -4.1250    0.0000 F   0  0  0  0  0  0  0  0  0  0  0  0
    5.7158   -2.4750    0.0000 C   0  0  0  0  0  0  0  0  0  0  0  0
    5.7158   -1.6500    0.0000 O   0  0  0  0  0  0  0  0  0  0  0  0
    6.4302   -2.8875    0.0000 O   0  0  0  0  0  0  0  0  0  0  0  0
  1  2  1  0
  2  3  2  0
  2  7  1  0
  3  4  1  0
  4  5  1  0
  5  6  1  0
  5  7  2  0
  7  8  1  0
  8  9  1  0
  9 10  1  0
 10 11  1  0
 11 12  1  0
 12 13  2  0
 12 17  1  0
 13 14  1  0
 14 15  2  0
 14 19  1  0
 15 16  1  0
 16 17  2  0
 17 18  1  0
 19 20  1  0
 19 21  2  0
M  END
>  <DRUGBANK_ID>  (1) 
DB17999

>  <COMMON_NAME>  (1) 
Acoramidis

>  <CAS_NUMBER>  (1) 
1446711-81-4

>  <UNII>  (1) 
T12B44A1OE

>  <SYNONYMS>  (1) 
3-(3-(3,5-dimethyl-1h-pyrazol-4-yl)propoxy)-4-fluorobenzoic acid; Acoramidis

$$$$
