
     RDKit          2D

 30 34  0  0  1  0  0  0  0  0999 V2000
    1.6119   -3.1745    0.0000 C   0  0  0  0  0  0  0  0  0  0  0  0
    1.1270   -2.5070    0.0000 C   0  0  0  0  0  0  0  0  0  0  0  0
    0.3020   -2.5070    0.0000 C   0  0  0  0  0  0  0  0  0  0  0  0
    0.0470   -1.7224    0.0000 C   0  0  0  0  0  0  0  0  0  0  0  0
    0.7145   -1.2375    0.0000 C   0  0  0  0  0  0  0  0  0  0  0  0
    1.3819   -1.7224    0.0000 O   0  0  0  0  0  0  0  0  0  0  0  0
    0.7145   -0.4125    0.0000 C   0  0  0  0  0  0  0  0  0  0  0  0
    0.0000    0.0000    0.0000 C   0  0  0  0  0  0  0  0  0  0  0  0
   -0.7846   -0.2549    0.0000 N   0  0  0  0  0  0  0  0  0  0  0  0
   -1.2695    0.4125    0.0000 N   0  0  0  0  0  0  0  0  0  0  0  0
   -0.7846    1.0799    0.0000 N   0  0  0  0  0  0  0  0  0  0  0  0
   -1.0396    1.8646    0.0000 C   0  0  0  0  0  0  0  0  0  0  0  0
   -1.8465    2.0361    0.0000 C   0  0  0  0  0  0  0  0  0  0  0  0
   -2.3986    1.4230    0.0000 C   0  0  0  0  0  0  0  0  0  0  0  0
   -3.2055    1.5945    0.0000 C   0  0  0  0  0  0  0  0  0  0  0  0
   -3.4605    2.3791    0.0000 C   0  0  0  0  0  0  0  0  0  0  0  0
   -2.9084    2.9922    0.0000 C   0  0  0  0  0  0  0  0  0  0  0  0
   -3.1634    3.7769    0.0000 C   0  0  0  0  0  0  0  0  0  0  0  0
   -3.9704    3.9484    0.0000 O   0  0  0  0  0  0  0  0  0  0  0  0
   -4.2253    4.7330    0.0000 C   0  0  0  0  0  0  0  0  0  0  0  0
   -5.0099    4.9879    0.0000 C   0  0  0  0  0  0  0  0  0  0  0  0
   -5.0099    5.8129    0.0000 C   0  0  0  0  0  0  0  0  0  0  0  0
   -4.2253    6.0679    0.0000 O   0  0  0  0  0  0  0  0  0  0  0  0
   -3.7404    5.4004    0.0000 C   0  0  0  0  0  0  0  0  0  0  0  0
   -2.1015    2.8207    0.0000 N   0  0  0  0  0  0  0  0  0  0  0  0
    0.0000    0.8250    0.0000 C   0  0  0  0  0  0  0  0  0  0  0  0
    0.7145    1.2375    0.0000 N   0  0  0  0  0  0  0  0  0  0  0  0
    1.4289    0.8250    0.0000 C   0  0  0  0  0  0  0  0  0  0  0  0
    2.1434    1.2375    0.0000 N   0  0  0  0  0  0  0  0  0  0  0  0
    1.4289    0.0000    0.0000 N   0  0  0  0  0  0  0  0  0  0  0  0
  1  2  1  0
  2  3  2  0
  2  6  1  0
  3  4  1  0
  4  5  2  0
  5  6  1  0
  5  7  1  0
  7  8  2  0
  7 30  1  0
  8  9  1  0
  8 26  1  0
  9 10  2  0
 10 11  1  0
 11 12  1  0
 11 26  1  0
 12 13  1  0
 13 14  2  0
 13 25  1  0
 14 15  1  0
 15 16  2  0
 16 17  1  0
 17 18  1  0
 17 25  2  0
 18 19  1  0
 20 19  1  1
 20 21  1  0
 20 24  1  0
 21 22  1  0
 22 23  1  0
 23 24  1  0
 26 27  2  0
 27 28  1  0
 28 29  1  0
 28 30  2  0
M  END
>  <DRUGBANK_ID>  (1) 
DB16125

>  <COMMON_NAME>  (1) 
Ciforadenant

>  <CAS_NUMBER>  (1) 
1202402-40-1

>  <UNII>  (1) 
8KFO2187CP

>  <SYNONYMS>  (1) 
Ciforadenant

$$$$
