
     RDKit          2D

 26 27  0  0  0  0  0  0  0  0999 V2000
   -0.0537   -1.8313    0.0000 Cu  0  0  0  0  0 15  0  0  0  0  0  0
   -0.1494    1.0127    0.0000 O   0  0  0  0  0  0  0  0  0  0  0  0
    0.5198    0.5287    0.0000 C   0  0  0  0  0  0  0  0  0  0  0  0
    0.2629   -0.2599    0.0000 C   0  0  0  0  0  0  0  0  0  0  0  0
   -0.5616   -0.2599    0.0000 C   0  0  0  0  0  0  0  0  0  0  0  0
   -0.8185    0.5287    0.0000 C   0  0  0  0  0  0  0  0  0  0  0  0
    0.8186   -0.8694    0.0000 C   0  0  0  0  0  0  0  0  0  0  0  0
    1.6252   -0.7021    0.0000 C   0  0  0  0  0  0  0  0  0  0  0  0
    1.8822    0.0866    0.0000 C   0  0  0  0  0  0  0  0  0  0  0  0
    1.3265    0.7021    0.0000 C   0  0  0  0  0  0  0  0  0  0  0  0
   -1.6252    0.7021    0.0000 C   0  0  0  0  0  0  0  0  0  0  0  0
   -2.1809    0.0866    0.0000 C   0  0  0  0  0  0  0  0  0  0  0  0
   -1.9239   -0.7021    0.0000 C   0  0  0  0  0  0  0  0  0  0  0  0
   -1.1172   -0.8694    0.0000 C   0  0  0  0  0  0  0  0  0  0  0  0
    0.5616   -1.6581    0.0000 O   0  0  0  0  0  0  0  0  0  0  0  0
    2.6889    0.2599    0.0000 O   0  0  0  0  0  0  0  0  0  0  0  0
   -0.0717   -1.0128    0.0000 C   0  0  0  0  0  0  0  0  0  0  0  0
   -2.4797   -1.3115    0.0000 C   0  0  0  0  0  0  0  0  0  0  0  0
   -0.8604   -1.6581    0.0000 O   0  0  0  0  0  0  0  0  0  0  0  0
   -2.9875    0.2599    0.0000 O   0  0  0  0  0  0  0  0  0  0  0  0
   -1.8822    1.4847    0.0000 C   0  0  0  0  0  0  0  0  0  0  0  0
   -1.3265    2.1002    0.0000 O   0  0  0  0  0  0  0  0  0  0  0  0
   -2.6888    1.6580    0.0000 C   0  0  0  0  0  0  0  0  0  0  0  0
    2.1809   -1.3115    0.0000 C   0  0  0  0  0  0  0  0  0  0  0  0
    1.9239   -2.1002    0.0000 O   0  0  0  0  0  0  0  0  0  0  0  0
    2.9875   -1.1442    0.0000 C   0  0  0  0  0  0  0  0  0  0  0  0
  2  3  1  0
  2  6  1  0
  3  4  1  0
  3 10  2  0
  4  5  1  0
  4  7  1  0
  4 17  1  0
  5  6  2  0
  5 14  1  0
  6 11  1  0
  7  8  1  0
  7 15  2  0
  8  9  1  0
  8 24  1  0
  9 10  1  0
  9 16  2  0
 11 12  2  0
 11 21  1  0
 12 13  1  0
 12 20  1  0
 13 14  2  0
 13 18  1  0
 14 19  1  0
 21 22  2  0
 21 23  1  0
 24 25  2  0
 24 26  1  0
M  CHG  3   1   2  19  -1  20  -1
M  END
>  <DRUGBANK_ID>  (1) 
DB13830

>  <COMMON_NAME>  (1) 
Copper usnate

>  <UNII>  (1) 
2EV5P25E2S

$$$$
