IQZ
     RDKit          2D

 18 21  0  0  0  0  0  0  0  0999 V2000
    1.9557    0.8351    0.0000 C   0  0  0  0  0  0  0  0  0  0  0  0
    1.2225    0.4570    0.0000 C   0  0  0  0  0  0  0  0  0  0  0  0
    1.1833   -0.3670    0.0000 C   0  0  0  0  0  0  0  0  0  0  0  0
    1.8773   -0.8130    0.0000 C   0  0  0  0  0  0  0  0  0  0  0  0
    2.6106   -0.4350    0.0000 C   0  0  0  0  0  0  0  0  0  0  0  0
    2.6498    0.3891    0.0000 C   0  0  0  0  0  0  0  0  0  0  0  0
    0.4509    0.7490    0.0000 N   0  0  0  0  0  0  0  0  0  0  0  0
   -0.0652    0.1053    0.0000 C   0  0  0  0  0  0  0  0  0  0  0  0
    0.3874   -0.5844    0.0000 C   0  0  0  0  0  0  0  0  0  0  0  0
   -0.8889    0.0582    0.0000 C   0  0  0  0  0  0  0  0  0  0  0  0
   -1.2599   -0.6787    0.0000 N   0  0  0  0  0  0  0  0  0  0  0  0
   -0.8072   -1.3684    0.0000 C   0  0  0  0  0  0  0  0  0  0  0  0
    0.0164   -1.3213    0.0000 C   0  0  0  0  0  0  0  0  0  0  0  0
   -1.3415    0.7479    0.0000 C   0  0  0  0  0  0  0  0  0  0  0  0
   -2.1652    0.7008    0.0000 C   0  0  0  0  0  0  0  0  0  0  0  0
   -2.5362   -0.0361    0.0000 C   0  0  0  0  0  0  0  0  0  0  0  0
   -2.0835   -0.7258    0.0000 C   0  0  0  0  0  0  0  0  0  0  0  0
    0.4691   -2.0110    0.0000 O   0  0  0  0  0  0  0  0  0  0  0  0
  1  2  2  0
  1  6  1  0
  2  3  1  0
  2  7  1  0
  3  4  2  0
  3  9  1  0
  4  5  1  0
  5  6  2  0
  7  8  1  0
  8  9  2  0
  8 10  1  0
  9 13  1  0
 10 11  1  0
 10 14  1  1
 11 12  1  0
 11 17  1  0
 12 13  1  0
 13 18  2  0
 14 15  1  0
 15 16  1  0
 16 17  1  0
M  END
>  <DRUGBANK_ID>  (1) 
DB02191

>  <SECONDARY_ACCESSION_NUMBERS>  (1) 
EXPT01928

>  <COMMON_NAME>  (1) 
(7as,12ar,12bs)-1,2,3,4,7a,12,12a,12b-Octahydroindolo[2,3-a]Quinolizin-7(6h)-One

$$$$
