
     RDKit          2D

 25 26  0  0  0  0  0  0  0  0999 V2000
   -2.0730    0.5407    0.0000 O   0  0  0  0  0  0  0  0  0  0  0  0
   -1.4051    1.0249    0.0000 C   0  0  0  0  0  0  0  0  0  0  0  0
   -1.8188   -0.2441    0.0000 C   0  0  0  0  0  0  0  0  0  0  0  0
   -0.7382    0.5395    0.0000 C   0  0  0  0  0  0  0  0  0  0  0  0
   -0.9937   -0.2449    0.0000 C   0  0  0  0  0  0  0  0  0  0  0  0
   -2.0744   -1.0287    0.0000 C   0  0  0  0  0  0  0  0  0  0  0  0
   -1.4073   -1.5142    0.0000 C   0  0  0  0  0  0  0  0  0  0  0  0
   -0.7393   -1.0298    0.0000 C   0  0  0  0  0  0  0  0  0  0  0  0
   -1.4045    1.8500    0.0000 C   0  0  0  0  0  0  0  0  0  0  0  0
   -2.1186    2.2631    0.0000 C   0  0  0  0  0  0  0  0  0  0  0  0
   -2.8334    1.8513    0.0000 C   0  0  0  0  0  0  0  0  0  0  0  0
   -3.5475    2.2644    0.0000 C   0  0  0  0  0  0  0  0  0  0  0  0
   -4.2624    1.8526    0.0000 C   0  0  0  0  0  0  0  0  0  0  0  0
   -4.9765    2.2657    0.0000 O   0  0  0  0  0  0  0  0  0  0  0  0
   -4.2631    1.0275    0.0000 O   0  0  0  0  0  0  0  0  0  0  0  0
   -0.0250   -1.4427    0.0000 C   0  0  0  0  0  0  0  0  0  0  0  0
    0.6895   -1.0305    0.0000 C   0  0  0  0  0  0  0  0  0  0  0  0
    1.4038   -1.4433    0.0000 C   0  0  0  0  0  0  0  0  0  0  0  0
    2.1185   -1.0311    0.0000 C   0  0  0  0  0  0  0  0  0  0  0  0
    2.8329   -1.4440    0.0000 C   0  0  0  0  0  0  0  0  0  0  0  0
    3.5475   -1.0318    0.0000 C   0  0  0  0  0  0  0  0  0  0  0  0
    4.2618   -1.4446    0.0000 C   0  0  0  0  0  0  0  0  0  0  0  0
    4.9765   -1.0324    0.0000 C   0  0  0  0  0  0  0  0  0  0  0  0
    1.4151   -2.1871    0.0000 O   0  0  0  0  0  0  0  0  0  0  0  0
   -1.4056   -2.2657    0.0000 O   0  0  0  0  0  0  0  0  0  0  0  0
  2  1  1  0
  3  1  1  0
  4  2  1  0
  5  4  1  6
  5  3  1  0
  3  6  1  6
  7  6  1  0
  7 25  1  6
  8  5  1  0
  8  7  1  0
  8 16  1  1
  9  2  2  0
 10  9  1  0
 11 10  1  0
 12 11  1  0
 13 12  1  0
 14 13  1  0
 15 13  2  0
 17 16  2  0
 18 17  1  0
 18 24  1  6
 19 18  1  0
 20 19  1  0
 21 20  1  0
 22 21  1  0
 23 22  1  0
M  END
>  <DRUGBANK_ID>  (1) 
DB01240

>  <SECONDARY_ACCESSION_NUMBERS>  (1) 
APRD00949

>  <COMMON_NAME>  (1) 
Epoprostenol

>  <CAS_NUMBER>  (1) 
35121-78-9

>  <UNII>  (1) 
DCR9Z582X0

>  <SYNONYMS>  (1) 
(5Z,13E)-(15S)-6,9alpha-Epoxy-11alpha,15-dihydroxyprosta-5,13-dienoate; (5Z,9α,11α,13E,15S)-6,9-epoxy-11,15-dihydroxyprosta-5,13-dien-1-oic acid; Epoprostenol; PGI2; PGX; Prostacyclin; Prostaglandin I2; Prostaglandin X; Vasocyclin

$$$$
