4BM
     RDKit          2D

 26 27  0  0  0  0  0  0  0  0999 V2000
   -2.9248    1.0100    0.0000 C   0  0  0  0  0  0  0  0  0  0  0  0
   -3.6392    0.5975    0.0000 C   0  0  0  0  0  0  0  0  0  0  0  0
   -4.3537    1.0100    0.0000 C   0  0  0  0  0  0  0  0  0  0  0  0
   -4.3537    1.8350    0.0000 C   0  0  0  0  0  0  0  0  0  0  0  0
   -3.6392    2.2475    0.0000 C   0  0  0  0  0  0  0  0  0  0  0  0
   -2.9248    1.8350    0.0000 C   0  0  0  0  0  0  0  0  0  0  0  0
   -2.2103    0.5975    0.0000 N   0  0  0  0  0  0  0  0  0  0  0  0
   -2.2103   -0.2275    0.0000 C   0  0  0  0  0  0  0  0  0  0  0  0
   -1.4958   -0.6400    0.0000 C   0  0  0  0  0  0  0  0  0  0  0  0
   -1.4958   -1.4650    0.0000 C   0  0  0  0  0  0  0  0  0  0  0  0
   -2.2103   -1.8775    0.0000 C   0  0  0  0  0  0  0  0  0  0  0  0
   -2.9248   -1.4650    0.0000 C   0  0  0  0  0  0  0  0  0  0  0  0
   -2.9248   -0.6400    0.0000 C   0  0  0  0  0  0  0  0  0  0  0  0
   -0.7813   -0.2275    0.0000 C   0  0  0  0  0  0  0  0  0  0  0  0
   -0.0669   -0.6400    0.0000 N   0  0  0  0  0  0  0  0  0  0  0  0
   -0.7813    0.5975    0.0000 O   0  0  0  0  0  0  0  0  0  0  0  0
    0.6476   -0.2275    0.0000 O   0  0  0  0  0  0  0  0  0  0  0  0
    1.3621   -0.6400    0.0000 C   0  0  0  0  0  0  0  0  0  0  0  0
    2.0765   -0.2275    0.0000 C   0  0  0  0  0  0  0  0  0  0  0  0
    2.7910   -0.6400    0.0000 C   0  0  0  0  0  0  0  0  0  0  0  0
    2.0765    0.5975    0.0000 O   0  0  0  0  0  0  0  0  0  0  0  0
    3.5055   -0.2275    0.0000 O   0  0  0  0  0  0  0  0  0  0  0  0
   -5.0682    2.2475    0.0000 I   0  0  0  0  0  0  0  0  0  0  0  0
   -2.2103    2.2475    0.0000 F   0  0  0  0  0  0  0  0  0  0  0  0
   -3.6392   -0.2275    0.0000 F   0  0  0  0  0  0  0  0  0  0  0  0
   -3.6392   -1.8775    0.0000 F   0  0  0  0  0  0  0  0  0  0  0  0
  1  2  2  0
  1  6  1  0
  1  7  1  0
  2  3  1  0
  3  4  2  0
  4  5  1  0
  4 23  1  0
  5  6  2  0
  6 24  1  0
  7  8  1  0
  8  9  2  0
  8 13  1  0
  9 10  1  0
  9 14  1  0
 10 11  2  0
 11 12  1  0
 12 13  2  0
 12 26  1  0
 13 25  1  0
 14 15  1  0
 14 16  2  0
 15 17  1  0
 17 18  1  0
 18 19  1  0
 19 20  1  0
 19 21  1  6
 20 22  1  0
M  END
>  <DRUGBANK_ID>  (1) 
DB07101

>  <SECONDARY_ACCESSION_NUMBERS>  (1) 
DB11802

>  <COMMON_NAME>  (1) 
Mirdametinib

>  <CAS_NUMBER>  (1) 
391210-10-9

>  <UNII>  (1) 
86K0J5AK6M

>  <SYNONYMS>  (1) 
Benzamide, N-((2R)-2,3-dihydroxypropoxy)-3,4-difluoro-2-((2-fluoro-4-iodophenyl)amino)-; N-[(2R)-2,3 Dihydroxypropoxy]-3,4 Difluro-2 -[(2-Fluoro-4-Iodophenyl)Amino] Benzamide; PD 0325901; PD-0325901; PD0325901

$$$$
