
     RDKit          2D

 17 18  0  0  1  0  0  0  0  0999 V2000
    0.2811   -0.8852    0.0000 F   0  0  0  0  0  0  0  0  0  0  0  0
    1.8460    0.5668    0.0000 O   0  0  0  0  0  0  0  0  0  0  0  0
    2.8966   -0.7990    0.0000 O   0  0  0  0  0  0  0  0  0  0  0  0
    2.6076    1.8768    0.0000 O   0  0  0  0  0  0  0  0  0  0  0  0
    1.1785    4.3520    0.0000 O   0  0  0  0  0  0  0  0  0  0  0  0
    1.1785    1.8768    0.0000 N   0  0  0  0  0  0  0  0  0  0  0  0
    1.8931    3.1144    0.0000 N   0  0  0  0  0  0  0  0  0  0  0  0
    1.1785    1.0518    0.0000 C   0  0  0  0  0  0  0  0  0  0  0  0
    0.5110    0.5668    0.0000 C   0  0  0  0  0  0  0  0  0  0  0  0
    0.7660   -0.2178    0.0000 C   0  0  0  0  0  0  0  0  0  0  0  0
    1.5910   -0.2178    0.0000 C   0  0  0  0  0  0  0  0  0  0  0  0
    2.0760   -0.8852    0.0000 C   0  0  0  0  0  0  0  0  0  0  0  0
    0.4640    2.2894    0.0000 C   0  0  0  0  0  0  0  0  0  0  0  0
    1.8931    2.2894    0.0000 C   0  0  0  0  0  0  0  0  0  0  0  0
    0.4640    3.1144    0.0000 C   0  0  0  0  0  0  0  0  0  0  0  0
    1.1785    3.5270    0.0000 C   0  0  0  0  0  0  0  0  0  0  0  0
   -0.2504    3.5270    0.0000 C   0  0  0  0  0  0  0  0  0  0  0  0
  2  8  1  0
  2 11  1  0
  3 12  1  0
  4 14  2  0
  5 16  2  0
  6 13  1  0
  6 14  1  0
  7 14  1  0
  7 16  1  0
  8  6  1  6
  8  9  1  0
  9 10  1  0
 10  1  1  1
 10 11  1  0
 11 12  1  6
 13 15  2  0
 15 16  1  0
 15 17  1  0
M  END
>  <DRUGBANK_ID>  (1) 
DB06198

>  <COMMON_NAME>  (1) 
Alovudine

>  <CAS_NUMBER>  (1) 
25526-93-6

>  <UNII>  (1) 
PG53R0DWDQ

>  <SYNONYMS>  (1) 
Alovudine

$$$$
