
     RDKit          2D

 23 25  0  0  1  0  0  0  0  0999 V2000
   -0.5683   -1.4940    0.0000 C   0  0  0  0  0  0  0  0  0  0  0  0
    3.3523    1.1104    0.0000 C   0  0  0  0  0  0  0  0  0  0  0  0
    0.6538    1.5229    0.0000 C   0  0  0  0  0  0  0  0  0  0  0  0
    0.0992   -1.0091    0.0000 C   0  0  0  0  0  0  0  0  0  0  0  0
    1.9233    1.9354    0.0000 C   0  0  0  0  0  0  0  0  0  0  0  0
    0.8838   -1.2640    0.0000 C   0  0  0  0  0  0  0  0  0  0  0  0
    1.3687   -0.5966    0.0000 C   0  0  0  0  0  0  0  0  0  0  0  0
    2.6378    2.3479    0.0000 C   0  0  0  0  0  0  0  0  0  0  0  0
    1.9233    1.1104    0.0000 C   0  0  0  0  0  0  0  0  0  0  0  0
    0.8838    0.0709    0.0000 C   0  0  0  0  0  0  0  0  0  0  0  0
    2.6378    3.1729    0.0000 N   0  0  0  0  0  0  0  0  0  0  0  0
   -2.6568   -2.1283    0.0000 N   0  0  0  0  0  0  0  0  0  0  0  0
    3.3523    1.9354    0.0000 N   0  0  0  0  0  0  0  0  0  0  0  0
    2.6378    0.6979    0.0000 N   0  0  0  0  0  0  0  0  0  0  0  0
    1.1387    2.1904    0.0000 N   0  0  0  0  0  0  0  0  0  0  0  0
    1.1387    0.8555    0.0000 N   0  0  0  0  0  0  0  0  0  0  0  0
    1.1387   -2.0486    0.0000 O   0  0  0  0  0  0  0  0  0  0  0  0
    2.1937   -0.5966    0.0000 O   0  0  0  0  0  0  0  0  0  0  0  0
   -2.4743   -0.9759    0.0000 O   0  0  0  0  0  0  0  0  0  0  0  0
   -1.5045   -2.3108    0.0000 O   0  0  0  0  0  0  0  0  0  0  0  0
   -1.3220   -1.1584    0.0000 O   0  0  0  0  0  0  0  0  0  0  0  0
    0.0992   -0.1841    0.0000 O   0  0  0  0  0  0  0  0  0  0  0  0
   -1.9894   -1.6433    0.0000 S   0  0  0  0  0  0  0  0  0  0  0  0
  4  1  1  1
  6  4  1  0
  6 17  1  6
  7  6  1  0
  7 18  1  6
  8  5  2  0
  9  5  1  0
 10  7  1  0
 10 16  1  1
 11  8  1  0
 13  2  2  0
 13  8  1  0
 14  2  1  0
 14  9  2  0
 15  3  2  0
 15  5  1  0
 16  3  1  0
 16  9  1  0
 21  1  1  0
 22  4  1  0
 22 10  1  0
 23 12  1  0
 23 19  2  0
 23 20  2  0
 23 21  1  0
M  END
>  <DRUGBANK_ID>  (1) 
DB02916

>  <SECONDARY_ACCESSION_NUMBERS>  (1) 
EXPT02043

>  <COMMON_NAME>  (1) 
[(2r,3s,4r,5r)-5-(6-Amino-9h-Purin-9-Yl)-3,4-Dihydroxytetrahydro-2-Furanyl]Methyl Sulfamate

$$$$
