
     RDKit          2D

 19 20  0  0  0  0  0  0  0  0999 V2000
   -1.8229    0.8249    0.0000 C   0  0  0  0  0  0  0  0  0  0  0  0
   -2.5385    1.2391    0.0000 C   0  0  0  0  0  0  0  0  0  0  0  0
   -3.2529    0.8265    0.0000 C   0  0  0  0  0  0  0  0  0  0  0  0
   -3.2530   -0.0001    0.0000 C   0  0  0  0  0  0  0  0  0  0  0  0
   -2.5325   -0.4125    0.0000 C   0  0  0  0  0  0  0  0  0  0  0  0
   -1.8210    0.0025    0.0000 C   0  0  0  0  0  0  0  0  0  0  0  0
    1.0328    0.8241    0.0000 C   0  0  0  0  0  0  0  0  0  0  0  0
    0.3172    1.2382    0.0000 C   0  0  0  0  0  0  0  0  0  0  0  0
   -0.3972    0.8256    0.0000 C   0  0  0  0  0  0  0  0  0  0  0  0
   -0.3972   -0.0009    0.0000 C   0  0  0  0  0  0  0  0  0  0  0  0
    0.3232   -0.4133    0.0000 C   0  0  0  0  0  0  0  0  0  0  0  0
    1.0346    0.0016    0.0000 C   0  0  0  0  0  0  0  0  0  0  0  0
   -1.1104   -0.4146    0.0000 C   0  0  0  0  0  0  0  0  0  0  0  0
   -1.1126   -1.2391    0.0000 O   0  0  0  0  0  0  0  0  0  0  0  0
    0.3266   -1.2379    0.0000 N   0  0  0  0  0  0  0  0  0  0  0  0
    1.8249   -0.5676    0.0000 C   0  0  0  0  0  0  0  0  0  0  0  0
    2.5411   -0.1589    0.0000 C   0  0  0  0  0  0  0  0  0  0  0  0
    2.5453    0.6655    0.0000 O   0  0  0  0  0  0  0  0  0  0  0  0
    3.2530   -0.5749    0.0000 O   0  0  0  0  0  0  0  0  0  0  0  0
  1  2  2  0
  2  3  1  0
  3  4  2  0
  4  5  1  0
  5  6  2  0
  6  1  1  0
  7  8  2  0
  8  9  1  0
  9 10  2  0
 10 13  1  0
 10 11  1  0
 11 12  2  0
 11 15  1  0
 12  7  1  0
 12 16  1  0
 13  6  1  0
 13 14  2  0
 16 17  1  0
 17 18  2  0
 17 19  1  0
M  END
>  <DRUGBANK_ID>  (1) 
DB15911

>  <COMMON_NAME>  (1) 
Amfenac

>  <CAS_NUMBER>  (1) 
51579-82-9

>  <UNII>  (1) 
28O5C1J38A

>  <SYNONYMS>  (1) 
(2-Amino-3-benzoylphenyl)acetic acid; Amfenac; Amfenaco; Amfenacum

$$$$
