
     RDKit          2D

 27 30  0  0  0  0  0  0  0  0999 V2000
   -3.0536    0.0000    0.0000 C   0  0  0  0  0  0  0  0  0  0  0  0
    3.9934    0.8250    0.0000 C   0  0  0  0  0  0  0  0  0  0  0  0
   -2.3391   -0.4125    0.0000 C   0  0  0  0  0  0  0  0  0  0  0  0
    3.2789    1.2375    0.0000 C   0  0  0  0  0  0  0  0  0  0  0  0
   -2.3391    1.2375    0.0000 C   0  0  0  0  0  0  0  0  0  0  0  0
    3.2789   -0.4125    0.0000 C   0  0  0  0  0  0  0  0  0  0  0  0
   -3.0536    0.8250    0.0000 C   0  0  0  0  0  0  0  0  0  0  0  0
    3.9934    0.0000    0.0000 C   0  0  0  0  0  0  0  0  0  0  0  0
   -1.6246    0.0000    0.0000 C   0  0  0  0  0  0  0  0  0  0  0  0
    2.5645    0.8250    0.0000 C   0  0  0  0  0  0  0  0  0  0  0  0
   -1.6246    0.8250    0.0000 C   0  0  0  0  0  0  0  0  0  0  0  0
    2.5645    0.0000    0.0000 C   0  0  0  0  0  0  0  0  0  0  0  0
   -3.7680    1.2375    0.0000 C   0  0  0  0  0  0  0  0  0  0  0  0
    4.7079   -0.4125    0.0000 C   0  0  0  0  0  0  0  0  0  0  0  0
   -0.3551    0.4125    0.0000 C   0  0  0  0  0  0  0  0  0  0  0  0
    1.2949    0.4125    0.0000 C   0  0  0  0  0  0  0  0  0  0  0  0
    0.4699    0.4125    0.0000 C   0  0  0  0  0  0  0  0  0  0  0  0
   -4.4825    0.8250    0.0000 N   0  0  0  0  0  0  0  0  0  0  0  0
   -3.7680    2.0625    0.0000 N   0  0  0  0  0  0  0  0  0  0  0  0
    5.4223   -0.0000    0.0000 N   0  0  0  0  0  0  0  0  0  0  0  0
    4.7079   -1.2375    0.0000 N   0  0  0  0  0  0  0  0  0  0  0  0
   -0.8400   -0.2549    0.0000 N   0  0  0  0  0  0  0  0  0  0  0  0
    1.7798    1.0799    0.0000 N   0  0  0  0  0  0  0  0  0  0  0  0
   -0.8400    1.0799    0.0000 N   0  0  0  0  0  0  0  0  0  0  0  0
    1.7798   -0.2549    0.0000 N   0  0  0  0  0  0  0  0  0  0  0  0
    0.4699   -0.4125    0.0000 O   0  0  0  0  0  0  0  0  0  0  0  0
    0.4699    1.2375    0.0000 O   0  0  0  0  0  0  0  0  0  0  0  0
  3  1  2  0
  4  2  2  0
  7  1  1  0
  7  5  2  0
  8  2  1  0
  8  6  2  0
  9  3  1  0
 10  4  1  0
 11  5  1  0
 11  9  2  0
 12  6  1  0
 12 10  2  0
 13  7  1  0
 14  8  1  0
 17 15  1  0
 17 16  1  0
 18 13  2  0
 19 13  1  0
 20 14  2  0
 21 14  1  0
 22  9  1  0
 22 15  2  0
 23 10  1  0
 23 16  2  0
 24 11  1  0
 24 15  1  0
 25 12  1  0
 25 16  1  0
 26 17  1  0
 27 17  1  0
M  CHG  2  18   1  19   1
M  END
>  <DRUGBANK_ID>  (1) 
DB04301

>  <SECONDARY_ACCESSION_NUMBERS>  (1) 
EXPT00621

>  <COMMON_NAME>  (1) 
Bis(5-Amidino-2-Benzimidazolyl)Methane Ketone Hydrate

$$$$
