
     RDKit          2D

  8  8  0  0  0  0  0  0  0  0999 V2000
    1.4289    0.0000    0.0000 C   0  0  0  0  0  0  0  0  0  0  0  0
    0.0000    0.0000    0.0000 C   0  0  0  0  0  0  0  0  0  0  0  0
    1.4289    0.8250    0.0000 C   0  0  0  0  0  0  0  0  0  0  0  0
    0.0000    0.8250    0.0000 C   0  0  0  0  0  0  0  0  0  0  0  0
    0.7144   -0.4125    0.0000 C   0  0  0  0  0  0  0  0  0  0  0  0
    0.7144    1.2375    0.0000 C   0  0  0  0  0  0  0  0  0  0  0  0
    0.7144   -1.2375    0.0000 N   0  0  0  0  0  0  0  0  0  0  0  0
    0.7144    2.0625    0.0000 O   0  0  0  0  0  0  0  0  0  0  0  0
  3  1  2  0
  4  2  1  0
  5  1  1  0
  5  2  2  0
  6  3  1  0
  6  4  2  0
  7  5  1  0
  8  6  1  0
M  END
>  <DRUGBANK_ID>  (1) 
DB14144

>  <COMMON_NAME>  (1) 
p-Aminophenol

>  <CAS_NUMBER>  (1) 
123-30-8

>  <UNII>  (1) 
R7P8FRP05V

>  <SYNONYMS>  (1) 
4-Aminobenzenol; 4-Aminophenol; 4-Hydroxyaniline; p-hydroxyaniline

$$$$
