
     RDKit          2D

 11 12  0  0  0  0  0  0  0  0999 V2000
   -0.1189    0.4125    0.0000 C   0  0  0  0  0  0  0  0  0  0  0  0
    0.5955    0.0000    0.0000 C   0  0  0  0  0  0  0  0  0  0  0  0
    0.5955   -0.8250    0.0000 C   0  0  0  0  0  0  0  0  0  0  0  0
   -0.1189   -1.2374    0.0000 C   0  0  0  0  0  0  0  0  0  0  0  0
   -0.8333   -0.8250    0.0000 C   0  0  0  0  0  0  0  0  0  0  0  0
   -0.8334    0.0000    0.0000 C   0  0  0  0  0  0  0  0  0  0  0  0
   -0.5952   -0.4125    0.0000 C   0  0  0  0  0  0  0  0  0  0  0  0
   -0.1189    1.2374    0.0000 C   0  0  0  0  0  0  0  0  0  0  0  0
    1.3098    0.4124    0.0000 O   0  0  0  0  0  0  0  0  0  0  0  0
   -1.3098   -0.8250    0.0000 C   0  0  0  0  0  0  0  0  0  0  0  0
   -1.3097    0.0000    0.0000 C   0  0  0  0  0  0  0  0  0  0  0  0
  1  7  1  0
  1  8  1  1
  1  2  1  0
  2  9  2  0
  2  3  1  0
  4  5  1  6
  4  7  1  0
  4  3  1  0
  5  6  1  0
  6  1  1  0
 10  7  1  0
 11  7  1  0
M  END
>  <DRUGBANK_ID>  (1) 
DB11345

>  <COMMON_NAME>  (1) 
(S)-camphor

>  <CAS_NUMBER>  (1) 
464-48-2

>  <UNII>  (1) 
213N3S8275

>  <SYNONYMS>  (1) 
(−)-bornan-2-one; (−)-camphor; (1S,4S)-camphor; (1S)-(−)-camphor; l-camphor

$$$$
