
     RDKit          2D

 26 29  0  0  0  0  0  0  0  0999 V2000
    2.1785   -1.0012    0.0000 C   0  0  0  0  0  0  0  0  0  0  0  0
    0.6794   -1.9838    0.0000 C   0  0  0  0  0  0  0  0  0  0  0  0
    2.1785    0.3336    0.0000 C   0  0  0  0  0  0  0  0  0  0  0  0
    0.6794    0.4911    0.0000 C   0  0  0  0  0  0  0  0  0  0  0  0
    2.6635   -0.3338    0.0000 C   0  0  0  0  0  0  0  0  0  0  0  0
   -0.7495   -1.1588    0.0000 C   0  0  0  0  0  0  0  0  0  0  0  0
   -0.0350    0.0786    0.0000 C   0  0  0  0  0  0  0  0  0  0  0  0
   -0.0350   -2.3962    0.0000 C   0  0  0  0  0  0  0  0  0  0  0  0
   -0.7495   -1.9838    0.0000 C   0  0  0  0  0  0  0  0  0  0  0  0
   -1.4640   -0.7463    0.0000 C   0  0  0  0  0  0  0  0  0  0  0  0
   -1.4640   -2.3962    0.0000 C   0  0  0  0  0  0  0  0  0  0  0  0
   -2.1783   -1.1588    0.0000 C   0  0  0  0  0  0  0  0  0  0  0  0
    0.6794   -1.1588    0.0000 C   0  0  0  0  0  0  0  0  0  0  0  0
   -0.0350   -0.7463    0.0000 C   0  0  0  0  0  0  0  0  0  0  0  0
    1.3938    0.0786    0.0000 C   0  0  0  0  0  0  0  0  0  0  0  0
    1.3938    0.9036    0.0000 C   0  0  0  0  0  0  0  0  0  0  0  0
    1.3938   -0.7463    0.0000 C   0  0  0  0  0  0  0  0  0  0  0  0
   -2.8929   -2.3962    0.0000 O   0  0  0  0  0  0  0  0  0  0  0  0
   -2.1783   -1.9838    0.0000 C   0  0  0  0  0  0  0  0  0  0  0  0
   -0.7495   -0.3338    0.0000 C   0  0  0  0  0  0  0  0  0  0  0  0
    2.8929    0.7461    0.0000 O   0  0  0  0  0  0  0  0  0  0  0  0
    2.1785    1.1587    0.0000 C   0  0  0  0  0  0  0  0  0  0  0  0
   -0.7495    0.4911    0.0000 O   0  0  0  0  0  0  0  0  0  0  0  0
    1.4640    1.5711    0.0000 O   0  0  0  0  0  0  0  0  0  0  0  0
    2.8929    1.5711    0.0000 C   0  0  0  0  0  0  0  0  0  0  0  0
    2.8929    2.3962    0.0000 O   0  0  0  0  0  0  0  0  0  0  0  0
  2  8  1  0
  3  5  1  0
  3 21  1  6
  3 22  1  0
  4  7  1  0
  5  1  1  0
  6  9  1  0
  6 10  1  0
  6 20  1  1
  7 23  2  0
  8  9  1  0
  9 11  2  0
 10 12  2  0
 11 19  1  0
 12 19  1  0
 13 14  1  0
 13  2  1  6
 14  6  1  0
 14  7  1  1
 15  3  1  0
 15  4  1  0
 15 16  1  1
 17 13  1  0
 17 15  1  0
 17  1  1  1
 19 18  2  0
 24 22  2  0
 25 22  1  0
 26 25  1  0
M  END
>  <DRUGBANK_ID>  (1) 
DB00635

>  <SECONDARY_ACCESSION_NUMBERS>  (1) 
APRD00340

>  <COMMON_NAME>  (1) 
Prednisone

>  <CAS_NUMBER>  (1) 
53-03-2

>  <UNII>  (1) 
VB0R961HZT

>  <SYNONYMS>  (1) 
1,2-Dehydrocortisone; 1,4-Pregnadiene-17Î±,21-diol-3,11,20-trione; 17,21-Dihydroxypregna-1,4-diene-3,11,20-trione; Dehydrocortisone; Prednisona; Prednisone; Prednisonum

$$$$
