
     RDKit          2D

 29 31  0  0  1  0  0  0  0  0999 V2000
   -3.5724    7.1401    0.0000 C   0  0  0  0  0  0  0  0  0  0  0  0
   -2.8579    6.7276    0.0000 C   0  0  0  0  0  0  0  0  0  0  0  0
   -2.1434    7.1401    0.0000 C   0  0  0  0  0  0  0  0  0  0  0  0
   -1.4289    6.7276    0.0000 C   0  0  0  0  0  0  0  0  0  0  0  0
   -2.1434    7.9651    0.0000 O   0  0  0  0  0  0  0  0  0  0  0  0
   -1.4289    8.3776    0.0000 C   0  0  0  0  0  0  0  0  0  0  0  0
   -1.4289    9.2026    0.0000 C   0  0  0  0  0  0  0  0  0  0  0  0
   -0.7145    9.6151    0.0000 C   0  0  0  0  0  0  0  0  0  0  0  0
   -0.0000    9.2026    0.0000 N   0  0  0  0  0  0  0  0  0  0  0  0
   -0.0000    8.3776    0.0000 C   0  0  0  0  0  0  0  0  0  0  0  0
   -0.7145    7.9651    0.0000 N   0  0  0  0  0  0  0  0  0  0  0  0
    0.7145    7.9651    0.0000 N   0  0  0  0  0  0  0  0  0  0  0  0
    0.7145    7.1401    0.0000 C   0  0  0  0  0  0  0  0  0  0  0  0
    1.4289    6.7276    0.0000 C   0  0  0  0  0  0  0  0  0  0  0  0
    1.4289    5.9026    0.0000 C   0  0  0  0  0  0  0  0  0  0  0  0
    0.7145    5.4901    0.0000 C   0  0  0  0  0  0  0  0  0  0  0  0
    0.0000    5.9026    0.0000 C   0  0  0  0  0  0  0  0  0  0  0  0
   -0.0000    6.7276    0.0000 C   0  0  0  0  0  0  0  0  0  0  0  0
    0.7145    4.6651    0.0000 S   0  0  0  0  0  0  0  0  0  0  0  0
   -0.1105    4.6651    0.0000 N   0  0  0  0  0  0  0  0  0  0  0  0
    1.5395    4.6651    0.0000 O   0  0  0  0  0  0  0  0  0  0  0  0
    0.7145    3.8401    0.0000 C   0  0  0  0  0  0  0  0  0  0  0  0
    1.1270    3.1257    0.0000 C   0  0  0  0  0  0  0  0  0  0  0  0
    0.3020    3.1257    0.0000 C   0  0  0  0  0  0  0  0  0  0  0  0
   -2.1434    9.6151    0.0000 C   0  0  0  0  0  0  0  0  0  0  0  0
   -2.8579   10.0276    0.0000 F   0  0  0  0  0  0  0  0  0  0  0  0
   -1.7309   10.3296    0.0000 F   0  0  0  0  0  0  0  0  0  0  0  0
   -2.5559    8.9007    0.0000 F   0  0  0  0  0  0  0  0  0  0  0  0
   -2.8579    5.9026    0.0000 O   0  0  0  0  0  0  0  0  0  0  0  0
  2  1  1  6
  2  3  1  0
  2 29  1  0
  3  4  1  6
  3  5  1  0
  5  6  1  0
  6  7  2  0
  6 11  1  0
  7  8  1  0
  7 25  1  0
  8  9  2  0
  9 10  1  0
 10 11  2  0
 10 12  1  0
 12 13  1  0
 13 14  2  0
 13 18  1  0
 14 15  1  0
 15 16  2  0
 16 17  1  0
 17 18  2  0
 19 16  1  0
 19 20  2  0
 19 21  2  0
 19 22  1  0
 22 23  1  0
 22 24  1  0
 23 24  1  0
 25 26  1  0
 25 27  1  0
 25 28  1  0
M  END
>  <DRUGBANK_ID>  (1) 
DB12974

>  <COMMON_NAME>  (1) 
Roniciclib

>  <CAS_NUMBER>  (1) 
1223498-69-8

>  <UNII>  (1) 
0W9Q8U337A

>  <SYNONYMS>  (1) 
Roniciclib

$$$$
