N5T
     RDKit          2D

 24 26  0  0  0  0  0  0  0  0999 V2000
    1.4929   -2.8262    0.0000 C   0  0  0  0  0  0  0  0  0  0  0  0
    1.0080   -2.1587    0.0000 C   0  0  0  0  0  0  0  0  0  0  0  0
    1.3435   -1.4051    0.0000 C   0  0  0  0  0  0  0  0  0  0  0  0
    2.1640   -1.3188    0.0000 C   0  0  0  0  0  0  0  0  0  0  0  0
    2.6489   -1.9863    0.0000 C   0  0  0  0  0  0  0  0  0  0  0  0
    2.3134   -2.7399    0.0000 C   0  0  0  0  0  0  0  0  0  0  0  0
    0.8586   -0.7376    0.0000 C   0  0  0  0  0  0  0  0  0  0  0  0
    0.0336   -0.7376    0.0000 C   0  0  0  0  0  0  0  0  0  0  0  0
   -0.2213    0.0470    0.0000 N   0  0  0  0  0  0  0  0  0  0  0  0
    0.4461    0.5319    0.0000 C   0  0  0  0  0  0  0  0  0  0  0  0
    1.1136    0.0470    0.0000 C   0  0  0  0  0  0  0  0  0  0  0  0
    0.4461    1.3569    0.0000 C   0  0  0  0  0  0  0  0  0  0  0  0
   -0.2684    1.7694    0.0000 C   0  0  0  0  0  0  0  0  0  0  0  0
   -0.2684    2.5944    0.0000 C   0  0  0  0  0  0  0  0  0  0  0  0
    0.4461    3.0069    0.0000 C   0  0  0  0  0  0  0  0  0  0  0  0
    1.1606    2.5944    0.0000 C   0  0  0  0  0  0  0  0  0  0  0  0
    1.1606    1.7694    0.0000 C   0  0  0  0  0  0  0  0  0  0  0  0
   -1.0059    0.3019    0.0000 C   0  0  0  0  0  0  0  0  0  0  0  0
   -1.6190   -0.2501    0.0000 N   0  0  0  0  0  0  0  0  0  0  0  0
   -1.4475   -1.0571    0.0000 C   0  0  0  0  0  0  0  0  0  0  0  0
   -2.4037    0.0048    0.0000 C   0  0  0  0  0  0  0  0  0  0  0  0
   -1.1775    1.1089    0.0000 O   0  0  0  0  0  0  0  0  0  0  0  0
    2.4996   -0.5652    0.0000 F   0  0  0  0  0  0  0  0  0  0  0  0
    1.1573   -3.5799    0.0000 F   0  0  0  0  0  0  0  0  0  0  0  0
  1  2  2  0
  1  6  1  0
  1 24  1  0
  2  3  1  0
  3  4  2  0
  3  7  1  0
  4  5  1  0
  4 23  1  0
  5  6  2  0
  7  8  1  0
  7 11  2  0
  8  9  1  0
  9 10  1  0
  9 18  1  0
 10 11  1  0
 10 12  1  6
 12 13  2  0
 12 17  1  0
 13 14  1  0
 14 15  2  0
 15 16  1  0
 16 17  2  0
 18 19  1  0
 18 22  2  0
 19 20  1  0
 19 21  1  0
M  END
>  <DRUGBANK_ID>  (1) 
DB08246

>  <COMMON_NAME>  (1) 
(2S)-4-(2,5-DIFLUOROPHENYL)-N,N-DIMETHYL-2-PHENYL-2,5-DIHYDRO-1H-PYRROLE-1-CARBOXAMIDE

$$$$
