4BH
     RDKit          2D

 20 22  0  0  0  0  0  0  0  0999 V2000
   -0.8458    1.7340    0.0000 Cl  0  0  0  0  0  0  0  0  0  0  0  0
   -0.1313    1.3215    0.0000 C   0  0  0  0  0  0  0  0  0  0  0  0
    0.5832    1.7340    0.0000 C   0  0  0  0  0  0  0  0  0  0  0  0
    0.5832    2.5590    0.0000 O   0  0  0  0  0  0  0  0  0  0  0  0
    1.2976    1.3215    0.0000 C   0  0  0  0  0  0  0  0  0  0  0  0
    1.2976    0.4965    0.0000 C   0  0  0  0  0  0  0  0  0  0  0  0
    2.0121    0.0840    0.0000 O   0  0  0  0  0  0  0  0  0  0  0  0
   -0.1313    0.4965    0.0000 C   0  0  0  0  0  0  0  0  0  0  0  0
    0.5832    0.0840    0.0000 C   0  0  0  0  0  0  0  0  0  0  0  0
    0.5832   -0.7410    0.0000 C   0  0  0  0  0  0  0  0  0  0  0  0
    1.2506   -1.2259    0.0000 N   0  0  0  0  0  0  0  0  0  0  0  0
    0.9957   -2.0105    0.0000 N   0  0  0  0  0  0  0  0  0  0  0  0
    0.1707   -2.0105    0.0000 C   0  0  0  0  0  0  0  0  0  0  0  0
   -0.0843   -1.2259    0.0000 C   0  0  0  0  0  0  0  0  0  0  0  0
   -0.8689   -0.9710    0.0000 N   0  0  0  0  0  0  0  0  0  0  0  0
   -1.4820   -1.5230    0.0000 C   0  0  0  0  0  0  0  0  0  0  0  0
   -2.2666   -1.2681    0.0000 C   0  0  0  0  0  0  0  0  0  0  0  0
   -1.0404   -0.1640    0.0000 C   0  0  0  0  0  0  0  0  0  0  0  0
   -1.8250    0.0909    0.0000 C   0  0  0  0  0  0  0  0  0  0  0  0
   -2.4381   -0.4611    0.0000 N   0  0  0  0  0  0  0  0  0  0  0  0
  1  2  1  0
  2  3  2  0
  2  8  1  0
  3  4  1  0
  3  5  1  0
  5  6  2  0
  6  7  1  0
  6  9  1  0
  8  9  2  0
  9 10  1  0
 10 11  1  0
 10 14  2  0
 11 12  1  0
 12 13  2  0
 13 14  1  0
 14 15  1  0
 15 16  1  0
 15 18  1  0
 16 17  1  0
 17 20  1  0
 18 19  1  0
 19 20  1  0
M  END
>  <DRUGBANK_ID>  (1) 
DB07100

>  <COMMON_NAME>  (1) 
4-CHLORO-6-(4-PIPERAZIN-1-YL-1H-PYRAZOL-5-YL)BENZENE-1,3-DIOL

$$$$
