
     RDKit          2D

 15 15  0  0  0  0  0  0  0  0999 V2000
    2.4752    0.3020    0.0000 S   0  0  0  0  0  0  0  0  0  0  0  0
    1.6501    0.3020    0.0000 C   0  0  0  0  0  0  0  0  0  0  0  0
    3.3002    0.3020    0.0000 O   0  0  0  0  0  0  0  0  0  0  0  0
    2.4752    1.1271    0.0000 O   0  0  0  0  0  0  0  0  0  0  0  0
    2.4752   -0.5229    0.0000 O   0  0  0  0  0  0  0  0  0  0  0  0
    1.2376   -0.4124    0.0000 C   0  0  0  0  0  0  0  0  0  0  0  0
    0.4125   -0.4124    0.0000 N   0  0  0  0  0  0  0  0  0  0  0  0
    0.0000   -1.1271    0.0000 C   0  0  0  0  0  0  0  0  0  0  0  0
    0.0000    0.3020    0.0000 C   0  0  0  0  0  0  0  0  0  0  0  0
   -0.8250   -1.1271    0.0000 C   0  0  0  0  0  0  0  0  0  0  0  0
   -0.8250    0.3020    0.0000 C   0  0  0  0  0  0  0  0  0  0  0  0
   -1.2375   -0.4124    0.0000 N   0  0  0  0  0  0  0  0  0  0  0  0
   -2.0627   -0.4124    0.0000 C   0  0  0  0  0  0  0  0  0  0  0  0
   -2.4751    0.3020    0.0000 C   0  0  0  0  0  0  0  0  0  0  0  0
   -3.3002    0.3020    0.0000 O   0  0  0  0  0  0  0  0  0  0  0  0
  1  2  1  0
  1  3  1  0
  1  4  2  0
  1  5  2  0
  2  6  1  0
  6  7  1  0
  7  8  1  0
  7  9  1  0
  8 10  1  0
  9 11  1  0
 10 12  1  0
 11 12  1  0
 12 13  1  0
 13 14  1  0
 14 15  1  0
M  END
>  <DRUGBANK_ID>  (1) 
DB16872

>  <COMMON_NAME>  (1) 
HEPES

>  <CAS_NUMBER>  (1) 
7365-45-9

>  <UNII>  (1) 
RWW266YE9I

>  <SYNONYMS>  (1) 
4-(2-Hydroxyethyl)-1-piperazineethane sulfonic acid; 4-(2-Hydroxyethyl)-1-piperazineethane sulphonic acid

$$$$
