AKV
     RDKit          2D

 30 32  0  0  0  0  0  0  0  0999 V2000
    0.6533   -1.8238    0.0000 O   0  0  0  0  0  0  0  0  0  0  0  0
   -0.0612   -1.4113    0.0000 C   0  0  0  0  0  0  0  0  0  0  0  0
   -0.0612   -0.5863    0.0000 C   0  0  0  0  0  0  0  0  0  0  0  0
    0.6533   -0.1738    0.0000 C   0  0  0  0  0  0  0  0  0  0  0  0
    1.3678   -0.5863    0.0000 O   0  0  0  0  0  0  0  0  0  0  0  0
   -0.7756   -1.8238    0.0000 C   0  0  0  0  0  0  0  0  0  0  0  0
   -0.7756   -2.6488    0.0000 C   0  0  0  0  0  0  0  0  0  0  0  0
   -0.0612   -3.0613    0.0000 O   0  0  0  0  0  0  0  0  0  0  0  0
   -1.4901   -3.0613    0.0000 C   0  0  0  0  0  0  0  0  0  0  0  0
   -2.2046   -2.6488    0.0000 C   0  0  0  0  0  0  0  0  0  0  0  0
   -2.2046   -1.8238    0.0000 C   0  0  0  0  0  0  0  0  0  0  0  0
   -1.4901   -1.4113    0.0000 C   0  0  0  0  0  0  0  0  0  0  0  0
   -1.4901   -0.5863    0.0000 C   0  0  0  0  0  0  0  0  0  0  0  0
   -2.2046   -0.1738    0.0000 O   0  0  0  0  0  0  0  0  0  0  0  0
   -0.7756   -0.1738    0.0000 C   0  0  0  0  0  0  0  0  0  0  0  0
   -0.7756    0.6512    0.0000 C   0  0  0  0  0  0  0  0  0  0  0  0
   -0.0612    1.0637    0.0000 C   0  0  0  0  0  0  0  0  0  0  0  0
   -0.0612    1.8887    0.0000 C   0  0  0  0  0  0  0  0  0  0  0  0
   -0.7756    2.3012    0.0000 C   0  0  0  0  0  0  0  0  0  0  0  0
   -1.4901    1.8887    0.0000 O   0  0  0  0  0  0  0  0  0  0  0  0
   -2.2046    2.3012    0.0000 C   0  0  0  0  0  0  0  0  0  0  0  0
   -0.7756    3.1262    0.0000 O   0  0  0  0  0  0  0  0  0  0  0  0
    0.6533    0.6512    0.0000 C   0  0  0  0  0  0  0  0  0  0  0  0
    1.3678    1.0637    0.0000 C   0  0  0  0  0  0  0  0  0  0  0  0
    1.3678    1.8887    0.0000 O   0  0  0  0  0  0  0  0  0  0  0  0
    2.0823    0.6512    0.0000 C   0  0  0  0  0  0  0  0  0  0  0  0
    2.7967    1.0637    0.0000 C   0  0  0  0  0  0  0  0  0  0  0  0
    2.7967    1.8887    0.0000 O   0  0  0  0  0  0  0  0  0  0  0  0
    3.5112    0.6512    0.0000 C   0  0  0  0  0  0  0  0  0  0  0  0
    3.5112   -0.1738    0.0000 C   0  0  0  0  0  0  0  0  0  0  0  0
  1  2  2  0
  2  3  1  0
  2  6  1  0
  3  4  1  0
  3 15  2  0
  4  5  1  0
  4 23  2  0
  6  7  2  0
  6 12  1  0
  7  8  1  0
  7  9  1  0
  9 10  2  0
 10 11  1  0
 11 12  2  0
 12 13  1  0
 13 14  2  0
 13 15  1  0
 15 16  1  0
 16 17  2  0
 17 18  1  0
 17 23  1  0
 18 19  1  0
 19 20  1  0
 19 22  2  0
 20 21  1  0
 23 24  1  0
 24 25  1  6
 24 26  1  0
 26 27  1  0
 27 28  1  1
 27 29  1  0
 29 30  1  0
M  END
>  <DRUGBANK_ID>  (1) 
DB04624

>  <COMMON_NAME>  (1) 
DERIVATIVE OF AKLANONIC ACID METHYL ESTER (AAME)

$$$$
