PN5
     RDKit          2D

 24 23  0  0  0  0  0  0  0  0999 V2000
   -5.9103    0.2028    0.0000 C   0  0  0  0  0  0  0  0  0  0  0  0
   -5.1958   -0.2097    0.0000 C   0  0  0  0  0  0  0  0  0  0  0  0
   -4.4814    0.2028    0.0000 N   0  0  0  0  0  0  0  0  0  0  0  0
   -3.7669   -0.2097    0.0000 C   0  0  0  0  0  0  0  0  0  0  0  0
   -3.7669   -1.0347    0.0000 O   0  0  0  0  0  0  0  0  0  0  0  0
   -3.0524    0.2028    0.0000 C   0  0  0  0  0  0  0  0  0  0  0  0
   -2.3379   -0.2097    0.0000 C   0  0  0  0  0  0  0  0  0  0  0  0
   -1.6235    0.2028    0.0000 N   0  0  0  0  0  0  0  0  0  0  0  0
   -0.9090   -0.2097    0.0000 C   0  0  0  0  0  0  0  0  0  0  0  0
   -0.9090   -1.0347    0.0000 O   0  0  0  0  0  0  0  0  0  0  0  0
   -0.1945    0.2028    0.0000 C   0  0  0  0  0  0  0  0  0  0  0  0
   -0.1945    1.0278    0.0000 O   0  0  0  0  0  0  0  0  0  0  0  0
    0.5199   -0.2097    0.0000 C   0  0  0  0  0  0  0  0  0  0  0  0
    0.1074   -0.9242    0.0000 C   0  0  0  0  0  0  0  0  0  0  0  0
    0.9324    0.5048    0.0000 C   0  0  0  0  0  0  0  0  0  0  0  0
    1.2344   -0.6222    0.0000 C   0  0  0  0  0  0  0  0  0  0  0  0
    1.9489   -0.2097    0.0000 O   0  0  0  0  0  0  0  0  0  0  0  0
    2.6634   -0.6222    0.0000 C   0  0  0  0  0  0  0  0  0  0  0  0
    2.6634   -1.4472    0.0000 O   0  0  0  0  0  0  0  0  0  0  0  0
    3.3778   -0.2097    0.0000 C   0  0  0  0  0  0  0  0  0  0  0  0
    4.0923    0.2028    0.0000 C   0  0  0  0  0  0  0  0  0  0  0  0
    2.9653    0.5048    0.0000 C   0  0  0  0  0  0  0  0  0  0  0  0
    3.7903   -0.9242    0.0000 C   0  0  0  0  0  0  0  0  0  0  0  0
   -6.6248   -0.2097    0.0000 S   0  0  0  0  0  0  0  0  0  0  0  0
  1  2  1  0
  1 24  1  0
  2  3  1  0
  3  4  1  0
  4  5  2  0
  4  6  1  0
  6  7  1  0
  7  8  1  0
  8  9  1  0
  9 10  2  0
  9 11  1  0
 11 12  1  6
 13 15  1  0
 13 14  1  0
 13 16  1  0
 13 11  1  0
 16 17  1  0
 17 18  1  0
 18 19  2  0
 18 20  1  0
 20 22  1  0
 20 23  1  0
 20 21  1  0
M  END
>  <DRUGBANK_ID>  (1) 
DB08408

>  <COMMON_NAME>  (1) 
(3R)-3-hydroxy-2,2-dimethyl-4-oxo-4-({3-oxo-3-[(2-sulfanylethyl)amino]propyl}amino)butyl 2,2-dimethylpropanoate

$$$$
