
     RDKit          2D

 12 12  0  0  0  0  0  0  0  0999 V2000
   -0.5787   -0.1278    0.0000 O   0  0  0  0  0  0  0  0  0  0  0  0
    0.8502    1.5221    0.0000 N   0  0  0  0  0  0  0  0  0  0  0  0
    0.8502    2.3471    0.0000 N   0  0  0  0  0  0  0  0  0  0  0  0
    0.1357    1.1096    0.0000 C   0  0  0  0  0  0  0  0  0  0  0  0
    0.1357    0.2846    0.0000 C   0  0  0  0  0  0  0  0  0  0  0  0
   -0.5787    1.5221    0.0000 C   0  0  0  0  0  0  0  0  0  0  0  0
   -0.5787   -0.9529    0.0000 C   0  0  0  0  0  0  0  0  0  0  0  0
    0.1357   -1.3653    0.0000 C   0  0  0  0  0  0  0  0  0  0  0  0
   -1.2932   -1.3653    0.0000 C   0  0  0  0  0  0  0  0  0  0  0  0
    0.1357   -2.1904    0.0000 C   0  0  0  0  0  0  0  0  0  0  0  0
   -1.2932   -2.1904    0.0000 C   0  0  0  0  0  0  0  0  0  0  0  0
   -0.5787   -2.6029    0.0000 C   0  0  0  0  0  0  0  0  0  0  0  0
  1  5  1  0
  1  7  1  0
  2  3  1  0
  2  4  1  0
  4  5  1  0
  4  6  1  0
  7  8  2  0
  7  9  1  0
  8 10  1  0
  9 11  2  0
 10 12  2  0
 11 12  1  0
M  END
>  <DRUGBANK_ID>  (1) 
DB09251

>  <COMMON_NAME>  (1) 
Phenoxypropazine

>  <CAS_NUMBER>  (1) 
3818-37-9

>  <UNII>  (1) 
8E92V52324

$$$$
