
     RDKit          2D

 29 31  0  0  0  0  0  0  0  0999 V2000
    3.5383   -4.2450    0.0000 C   0  0  0  0  0  0  0  0  0  0  0  0
    2.8239   -4.6575    0.0000 C   0  0  0  0  0  0  0  0  0  0  0  0
    2.1094   -4.2450    0.0000 C   0  0  0  0  0  0  0  0  0  0  0  0
    2.1094   -3.4200    0.0000 O   0  0  0  0  0  0  0  0  0  0  0  0
    1.3949   -4.6575    0.0000 N   0  0  0  0  0  0  0  0  0  0  0  0
    1.3949   -5.4825    0.0000 C   0  0  0  0  0  0  0  0  0  0  0  0
    2.1094   -5.8950    0.0000 C   0  0  0  0  0  0  0  0  0  0  0  0
    2.1094   -6.7200    0.0000 C   0  0  0  0  0  0  0  0  0  0  0  0
    1.3949   -7.1325    0.0000 C   0  0  0  0  0  0  0  0  0  0  0  0
    0.6804   -6.7200    0.0000 C   0  0  0  0  0  0  0  0  0  0  0  0
    0.6804   -5.8950    0.0000 C   0  0  0  0  0  0  0  0  0  0  0  0
    0.6804   -4.2450    0.0000 C   0  0  0  0  0  0  0  0  0  0  0  0
   -0.1320   -4.1017    0.0000 C   0  0  0  0  0  0  0  0  0  0  0  0
   -0.4142   -3.3265    0.0000 C   0  0  0  0  0  0  0  0  0  0  0  0
    0.1161   -2.6945    0.0000 N   0  0  0  0  0  0  0  0  0  0  0  0
   -0.1661   -1.9192    0.0000 C   0  0  0  0  0  0  0  0  0  0  0  0
   -0.9785   -1.7760    0.0000 C   0  0  0  0  0  0  0  0  0  0  0  0
   -1.2607   -1.0007    0.0000 C   0  0  0  0  0  0  0  0  0  0  0  0
   -2.0732   -0.8575    0.0000 C   0  0  0  0  0  0  0  0  0  0  0  0
   -2.3553   -0.0822    0.0000 C   0  0  0  0  0  0  0  0  0  0  0  0
   -1.8250    0.5498    0.0000 C   0  0  0  0  0  0  0  0  0  0  0  0
   -1.0126    0.4065    0.0000 C   0  0  0  0  0  0  0  0  0  0  0  0
   -0.7304   -0.3687    0.0000 C   0  0  0  0  0  0  0  0  0  0  0  0
    0.9286   -2.8377    0.0000 C   0  0  0  0  0  0  0  0  0  0  0  0
    1.2107   -3.6130    0.0000 C   0  0  0  0  0  0  0  0  0  0  0  0
    0.3983   -5.0202    0.0000 C   0  0  0  0  0  0  0  0  0  0  0  0
    0.1987   -5.8207    0.0000 O   0  0  0  0  0  0  0  0  0  0  0  0
   -0.4142   -5.1635    0.0000 O   0  0  0  0  0  0  0  0  0  0  0  0
   -0.6964   -5.9387    0.0000 C   0  0  0  0  0  0  0  0  0  0  0  0
  1  2  1  0
  2  3  1  0
  3  4  2  0
  3  5  1  0
  5  6  1  0
  5 12  1  0
  6  7  2  0
  6 11  1  0
  7  8  1  0
  8  9  2  0
  9 10  1  0
 10 11  2  0
 12 13  1  0
 12 25  1  0
 12 26  1  0
 13 14  1  0
 14 15  1  0
 15 16  1  0
 15 24  1  0
 16 17  1  0
 17 18  1  0
 18 19  2  0
 18 23  1  0
 19 20  1  0
 20 21  2  0
 21 22  1  0
 22 23  2  0
 24 25  1  0
 26 27  2  0
 26 28  1  0
 28 29  1  0
M  ISO  1  29  11
M  END
>  <DRUGBANK_ID>  (1) 
DB15360

>  <COMMON_NAME>  (1) 
Carfentanil, C-11

>  <CAS_NUMBER>  (1) 
98598-83-5

>  <UNII>  (1) 
UVI40IC2GN

>  <SYNONYMS>  (1) 
11C-CARFENTANIL

$$$$
