
     RDKit          2D

 23 25  0  0  0  0  0  0  0  0999 V2000
   -1.4297    0.4118    0.0000 O   0  0  0  0  0  0  0  0  0  0  0  0
   -0.7149    0.0000    0.0000 C   0  0  0  0  0  0  0  0  0  0  0  0
    0.0000    0.4118    0.0000 C   0  0  0  0  0  0  0  0  0  0  0  0
    0.7149    0.0000    0.0000 C   0  0  0  0  0  0  0  0  0  0  0  0
    0.7149   -0.8235    0.0000 O   0  0  0  0  0  0  0  0  0  0  0  0
    1.4297    0.4118    0.0000 C   0  0  0  0  0  0  0  0  0  0  0  0
    1.4297    1.2410    0.0000 C   0  0  0  0  0  0  0  0  0  0  0  0
    0.7149    1.6528    0.0000 N   0  0  0  0  0  0  0  0  0  0  0  0
    0.7149    2.4764    0.0000 C   0  0  0  0  0  0  0  0  0  0  0  0
    0.0000    1.2410    0.0000 C   0  0  0  0  0  0  0  0  0  0  0  0
   -0.7149    1.6528    0.0000 O   0  0  0  0  0  0  0  0  0  0  0  0
    2.1447    1.6528    0.0000 C   0  0  0  0  0  0  0  0  0  0  0  0
    2.8596    1.2410    0.0000 C   0  0  0  0  0  0  0  0  0  0  0  0
    2.8596    0.4118    0.0000 C   0  0  0  0  0  0  0  0  0  0  0  0
    2.1447    0.0000    0.0000 C   0  0  0  0  0  0  0  0  0  0  0  0
   -0.7149   -0.8235    0.0000 N   0  0  0  0  0  0  0  0  0  0  0  0
   -1.4297   -1.2353    0.0000 C   0  0  0  0  0  0  0  0  0  0  0  0
   -2.1447   -0.8235    0.0000 C   0  0  0  0  0  0  0  0  0  0  0  0
   -2.8596   -1.2353    0.0000 C   0  0  0  0  0  0  0  0  0  0  0  0
   -2.8596   -2.0646    0.0000 C   0  0  0  0  0  0  0  0  0  0  0  0
   -2.1447   -2.4764    0.0000 C   0  0  0  0  0  0  0  0  0  0  0  0
   -1.4297   -2.0646    0.0000 C   0  0  0  0  0  0  0  0  0  0  0  0
    0.0000   -1.2353    0.0000 C   0  0  0  0  0  0  0  0  0  0  0  0
  1  2  2  0
  2  3  1  0
  2 16  1  0
  3  4  2  0
  3 10  1  0
  4  5  1  0
  4  6  1  0
  6  7  2  0
  6 15  1  0
  7  8  1  0
  7 12  1  0
  8  9  1  0
  8 10  1  0
 10 11  2  0
 12 13  2  0
 13 14  1  0
 14 15  2  0
 16 17  1  0
 16 23  1  0
 17 18  2  0
 17 22  1  0
 18 19  1  0
 19 20  2  0
 20 21  1  0
 21 22  2  0
M  END
>  <DRUGBANK_ID>  (1) 
DB11366

>  <COMMON_NAME>  (1) 
Roquinimex

>  <CAS_NUMBER>  (1) 
84088-42-6

>  <UNII>  (1) 
372T2944C0

>  <SYNONYMS>  (1) 
Linomide; Roquinimex

$$$$
