
     RDKit          2D

 15 14  0  0  0  0  0  0  0  0999 V2000
    3.9296    0.2062    0.0000 O   0  0  0  0  0  0  0  0  0  0  0  0
    3.2152   -1.0312    0.0000 O   0  0  0  0  0  0  0  0  0  0  0  0
   -0.3572    0.2062    0.0000 N   0  0  0  0  0  0  0  0  0  0  0  0
   -1.7862    0.2062    0.0000 N   0  0  0  0  0  0  0  0  0  0  0  0
    2.5006    1.0312    0.0000 N   0  0  0  0  0  0  0  0  0  0  0  0
   -1.0717   -1.0312    0.0000 N   0  0  0  0  0  0  0  0  0  0  0  0
    1.0717    0.2062    0.0000 C   0  0  0  0  0  0  0  0  0  0  0  0
    1.7862   -0.2062    0.0000 C   0  0  0  0  0  0  0  0  0  0  0  0
    0.3572   -0.2062    0.0000 C   0  0  0  0  0  0  0  0  0  0  0  0
    2.5006    0.2062    0.0000 C   0  0  0  0  0  0  0  0  0  0  0  0
   -1.0717   -0.2062    0.0000 C   0  0  0  0  0  0  0  0  0  0  0  0
   -2.5006   -0.2062    0.0000 C   0  0  0  0  0  0  0  0  0  0  0  0
    3.2152   -0.2062    0.0000 C   0  0  0  0  0  0  0  0  0  0  0  0
   -3.2152    0.2062    0.0000 C   0  0  0  0  0  0  0  0  0  0  0  0
   -3.9296   -0.2062    0.0000 C   0  0  0  0  0  0  0  0  0  0  0  0
  1 13  1  0
  2 13  2  0
  3  9  1  0
  3 11  1  0
  4 11  2  0
  4 12  1  0
  6 11  1  0
  7  8  1  0
  7  9  1  0
  8 10  1  0
 10  5  1  6
 10 13  1  0
 12 14  1  0
 14 15  1  0
M  CHG  1   4   1
M  END
>  <DRUGBANK_ID>  (1) 
DB02644

>  <SECONDARY_ACCESSION_NUMBERS>  (1) 
EXPT00162

>  <COMMON_NAME>  (1) 
N-omega-propyl-L-arginine

$$$$
