
     RDKit          2D

 37 39  0  0  0  0  0  0  0  0999 V2000
   -0.1357   -3.9683    0.0000 O   0  0  0  0  0  0  0  0  0  0  0  0
    1.2932   -3.9683    0.0000 O   0  0  0  0  0  0  0  0  0  0  0  0
   -1.5647   -5.6183    0.0000 O   0  0  0  0  0  0  0  0  0  0  0  0
   -0.1357   -6.4433    0.0000 O   0  0  0  0  0  0  0  0  0  0  0  0
    1.2932   -5.6183    0.0000 O   0  0  0  0  0  0  0  0  0  0  0  0
   -1.5647   -3.1433    0.0000 O   0  0  0  0  0  0  0  0  0  0  0  0
   -0.8502   -1.9057    0.0000 O   0  0  0  0  0  0  0  0  0  0  0  0
    2.7221   -0.6682    0.0000 O   0  0  0  0  0  0  0  0  0  0  0  0
    3.4366   -1.9057    0.0000 O   0  0  0  0  0  0  0  0  0  0  0  0
   -1.5647    1.8067    0.0000 N   0  0  0  0  0  0  0  0  0  0  0  0
   -1.5647    3.4568    0.0000 N   0  0  0  0  0  0  0  0  0  0  0  0
   -0.1357   -0.6682    0.0000 N   0  0  0  0  0  0  0  0  0  0  0  0
   -2.9937    5.9318    0.0000 N   0  0  0  0  0  0  0  0  0  0  0  0
    2.7221   -1.4932    0.0000 N   0  0  0  0  0  0  0  0  0  0  0  0
   -0.8502   -5.2058    0.0000 C   0  0  0  0  0  0  0  0  0  0  0  0
   -0.1357   -5.6183    0.0000 C   0  0  0  0  0  0  0  0  0  0  0  0
   -0.8502   -4.3808    0.0000 C   0  0  0  0  0  0  0  0  0  0  0  0
    0.5787   -5.2058    0.0000 C   0  0  0  0  0  0  0  0  0  0  0  0
   -2.2791    2.2192    0.0000 C   0  0  0  0  0  0  0  0  0  0  0  0
   -0.8502    2.2192    0.0000 C   0  0  0  0  0  0  0  0  0  0  0  0
   -2.2791    3.0443    0.0000 C   0  0  0  0  0  0  0  0  0  0  0  0
   -0.8502    3.0443    0.0000 C   0  0  0  0  0  0  0  0  0  0  0  0
    0.5787   -4.3808    0.0000 C   0  0  0  0  0  0  0  0  0  0  0  0
   -1.5647    0.9817    0.0000 C   0  0  0  0  0  0  0  0  0  0  0  0
   -1.5647    4.2818    0.0000 C   0  0  0  0  0  0  0  0  0  0  0  0
   -1.5647   -3.9683    0.0000 C   0  0  0  0  0  0  0  0  0  0  0  0
   -0.8502    0.5692    0.0000 C   0  0  0  0  0  0  0  0  0  0  0  0
   -2.2791    4.6943    0.0000 C   0  0  0  0  0  0  0  0  0  0  0  0
   -0.8502   -0.2557    0.0000 C   0  0  0  0  0  0  0  0  0  0  0  0
   -2.2791    5.5193    0.0000 C   0  0  0  0  0  0  0  0  0  0  0  0
    1.2932   -3.1433    0.0000 C   0  0  0  0  0  0  0  0  0  0  0  0
    0.5787   -2.7308    0.0000 C   0  0  0  0  0  0  0  0  0  0  0  0
    0.5787   -1.9057    0.0000 C   0  0  0  0  0  0  0  0  0  0  0  0
   -0.1357   -1.4932    0.0000 C   0  0  0  0  0  0  0  0  0  0  0  0
    2.0076   -2.7308    0.0000 C   0  0  0  0  0  0  0  0  0  0  0  0
    2.0076   -1.9057    0.0000 C   0  0  0  0  0  0  0  0  0  0  0  0
    1.2932   -1.4932    0.0000 C   0  0  0  0  0  0  0  0  0  0  0  0
  1 17  1  0
  1 23  1  0
  2 31  1  0
  6 26  1  0
  7 34  2  0
  8 14  1  0
  9 14  2  0
 10 19  1  0
 10 20  1  0
 10 24  1  0
 11 21  1  0
 11 22  1  0
 11 25  1  0
 12 29  1  0
 12 34  1  0
 13 30  1  0
 14 36  1  0
 15  3  1  1
 15 16  1  0
 15 17  1  0
 16  4  1  1
 16 18  1  0
 17 26  1  1
 18  5  1  6
 18 23  1  0
 19 21  1  0
 20 22  1  0
 23  2  1  1
 24 27  1  0
 25 28  1  0
 27 29  1  0
 28 30  1  0
 31 32  2  0
 31 35  1  0
 32 33  1  0
 33 34  1  0
 33 37  2  0
 35 36  2  0
 36 37  1  0
M  CHG  2   8  -1  14   1
M  END
>  <DRUGBANK_ID>  (1) 
DB04073

>  <SECONDARY_ACCESSION_NUMBERS>  (1) 
EXPT00043

>  <COMMON_NAME>  (1) 
N-{3-[4-(3-amino-propyl)-piperazin-1-yl]-propyl}-3-nitro-5-(galactopyranosyl)-beta-benzamide

$$$$
