AL2
     RDKit          2D

 24 26  0  0  0  0  0  0  0  0999 V2000
   -2.1647   -0.7019    0.0000 C   0  0  0  0  0  0  0  0  0  0  0  0
   -0.1807   -2.3519    0.0000 O   0  0  0  0  0  0  0  0  0  0  0  0
    0.5338   -1.1144    0.0000 C   0  0  0  0  0  0  0  0  0  0  0  0
   -0.1807   -1.5269    0.0000 C   0  0  0  0  0  0  0  0  0  0  0  0
    1.2482    0.1231    0.0000 C   0  0  0  0  0  0  0  0  0  0  0  0
    1.2482    0.9481    0.0000 C   0  0  0  0  0  0  0  0  0  0  0  0
    1.9627    1.3606    0.0000 C   0  0  0  0  0  0  0  0  0  0  0  0
    2.6772    0.9481    0.0000 C   0  0  0  0  0  0  0  0  0  0  0  0
    2.6772    0.1231    0.0000 C   0  0  0  0  0  0  0  0  0  0  0  0
    1.9627   -0.2894    0.0000 C   0  0  0  0  0  0  0  0  0  0  0  0
   -3.8147   -0.7019    0.0000 O   0  0  0  0  0  0  0  0  0  0  0  0
   -2.9897   -1.5269    0.0000 O   0  0  0  0  0  0  0  0  0  0  0  0
   -2.9897    0.1231    0.0000 N   0  0  0  0  0  0  0  0  0  0  0  0
   -2.9897   -0.7019    0.0000 S   0  0  0  0  0  0  0  0  0  0  0  0
   -1.6798   -1.3694    0.0000 C   0  0  0  0  0  0  0  0  0  0  0  0
   -0.8952   -1.1144    0.0000 C   0  0  0  0  0  0  0  0  0  0  0  0
   -0.8952   -0.2894    0.0000 C   0  0  0  0  0  0  0  0  0  0  0  0
   -1.6798   -0.0345    0.0000 S   0  0  0  0  0  0  0  0  0  0  0  0
   -0.1807    0.1231    0.0000 S   0  0  0  0  0  0  0  0  0  0  0  0
   -0.7110    0.7551    0.0000 O   0  0  0  0  0  0  0  0  0  0  0  0
    0.3496    0.7551    0.0000 O   0  0  0  0  0  0  0  0  0  0  0  0
    0.5338   -0.2894    0.0000 N   0  0  0  0  0  0  0  0  0  0  0  0
    3.3916    1.3606    0.0000 O   0  0  0  0  0  0  0  0  0  0  0  0
    3.3916    2.1856    0.0000 C   0  0  0  0  0  0  0  0  0  0  0  0
  1 14  1  0
  1 15  2  0
  1 18  1  0
  3  4  1  0
  3 22  1  0
  4  2  1  6
  4 16  1  0
  5  6  2  0
  5 10  1  0
  5 22  1  0
  6  7  1  0
  7  8  2  0
  8  9  1  0
  8 23  1  0
  9 10  2  0
 11 14  2  0
 12 14  2  0
 13 14  1  0
 15 16  1  0
 16 17  2  0
 17 18  1  0
 17 19  1  0
 19 20  2  0
 19 21  2  0
 19 22  1  0
 23 24  1  0
M  END
>  <DRUGBANK_ID>  (1) 
DB01964

>  <SECONDARY_ACCESSION_NUMBERS>  (1) 
EXPT00487

>  <COMMON_NAME>  (1) 
AL5424

$$$$
