
     RDKit          2D

  8  8  0  0  0  0  0  0  0  0999 V2000
   -0.7145   -0.4125    0.0000 C   0  0  0  0  0  0  0  0  0  0  0  0
   -0.7145    0.4125    0.0000 C   0  0  0  0  0  0  0  0  0  0  0  0
    0.0000    0.8250    0.0000 C   0  0  0  0  0  0  0  0  0  0  0  0
    0.7145    0.4125    0.0000 C   0  0  0  0  0  0  0  0  0  0  0  0
    0.0000   -0.8250    0.0000 C   0  0  0  0  0  0  0  0  0  0  0  0
    0.0000    1.6500    0.0000 O   0  0  0  0  0  0  0  0  0  0  0  0
    0.7145   -0.4125    0.0000 C   0  0  0  0  0  0  0  0  0  0  0  0
    1.4289   -0.8250    0.0000 O   0  0  0  0  0  0  0  0  0  0  0  0
  2  1  2  0
  2  3  1  0
  3  4  2  0
  4  7  1  0
  5  1  1  0
  6  3  1  0
  7  5  2  0
  7  8  1  0
M  END
>  <DRUGBANK_ID>  (1) 
DB11085

>  <COMMON_NAME>  (1) 
Resorcinol

>  <CAS_NUMBER>  (1) 
108-46-3

>  <UNII>  (1) 
YUL4LO94HK

>  <SYNONYMS>  (1) 
1,3-Benzenediol; 1,3-Dihydroxybenzene; 1,3-Dihydroxybenzol; m-Hydroquinone; m-hydroxyphenol; Resorcinol; Resorzin

$$$$
