C52
     RDKit          2D

 29 32  0  0  0  0  0  0  0  0999 V2000
    1.2569   -0.7587    0.0000 C   0  0  0  0  0  0  0  0  0  0  0  0
    1.9714   -0.3462    0.0000 C   0  0  0  0  0  0  0  0  0  0  0  0
    2.6858   -0.7587    0.0000 C   0  0  0  0  0  0  0  0  0  0  0  0
    3.4003   -0.3462    0.0000 N   0  0  0  0  0  0  0  0  0  0  0  0
    3.4003    0.4788    0.0000 C   0  0  0  0  0  0  0  0  0  0  0  0
    4.1148    0.8913    0.0000 N   0  0  0  0  0  0  0  0  0  0  0  0
    2.6858    0.8913    0.0000 N   0  0  0  0  0  0  0  0  0  0  0  0
    1.9714    0.4788    0.0000 C   0  0  0  0  0  0  0  0  0  0  0  0
    1.2569    0.8913    0.0000 C   0  0  0  0  0  0  0  0  0  0  0  0
    0.5424    0.4788    0.0000 C   0  0  0  0  0  0  0  0  0  0  0  0
    0.5424   -0.3462    0.0000 C   0  0  0  0  0  0  0  0  0  0  0  0
   -0.1720   -0.7587    0.0000 C   0  0  0  0  0  0  0  0  0  0  0  0
   -0.8865   -0.3462    0.0000 C   0  0  0  0  0  0  0  0  0  0  0  0
   -0.8865    0.4788    0.0000 O   0  0  0  0  0  0  0  0  0  0  0  0
   -0.1720   -1.5837    0.0000 C   0  0  0  0  0  0  0  0  0  0  0  0
    0.5424   -1.9962    0.0000 C   0  0  0  0  0  0  0  0  0  0  0  0
   -0.8865   -1.9962    0.0000 C   0  0  0  0  0  0  0  0  0  0  0  0
   -1.6010   -1.5837    0.0000 C   0  0  0  0  0  0  0  0  0  0  0  0
   -1.6010   -0.7587    0.0000 N   0  0  0  0  0  0  0  0  0  0  0  0
   -2.3155   -0.3462    0.0000 C   0  0  0  0  0  0  0  0  0  0  0  0
   -2.3155    0.4788    0.0000 C   0  0  0  0  0  0  0  0  0  0  0  0
   -3.0299   -0.7587    0.0000 C   0  0  0  0  0  0  0  0  0  0  0  0
   -3.7444   -0.3462    0.0000 C   0  0  0  0  0  0  0  0  0  0  0  0
   -3.7444    0.4788    0.0000 C   0  0  0  0  0  0  0  0  0  0  0  0
   -3.0299    0.8913    0.0000 C   0  0  0  0  0  0  0  0  0  0  0  0
   -3.0299    1.7163    0.0000 C   0  0  0  0  0  0  0  0  0  0  0  0
   -3.0299    2.5413    0.0000 F   0  0  0  0  0  0  0  0  0  0  0  0
   -3.8549    1.7163    0.0000 F   0  0  0  0  0  0  0  0  0  0  0  0
   -2.2049    1.7163    0.0000 F   0  0  0  0  0  0  0  0  0  0  0  0
  1  2  2  0
  2  8  1  0
  2  3  1  0
  3  4  2  0
  4  5  1  0
  5  6  1  0
  7  5  2  0
  8  7  1  0
  9  8  2  0
 10  9  1  0
 11  1  1  0
 11 10  2  0
 12 11  1  0
 12 15  2  0
 13 12  1  0
 14 13  2  0
 15 16  1  0
 17 15  1  0
 18 17  2  0
 19 13  1  0
 19 18  1  0
 20 19  1  0
 21 20  2  0
 22 20  1  0
 23 22  2  0
 24 23  1  0
 24 25  2  0
 25 21  1  0
 26 25  1  0
 26 29  1  0
 27 26  1  0
 28 26  1  0
M  END
>  <DRUGBANK_ID>  (1) 
DB07528

>  <COMMON_NAME>  (1) 
3-(2-aminoquinazolin-6-yl)-4-methyl-1-[3-(trifluoromethyl)phenyl]pyridin-2(1H)-one

$$$$
