4NP
     RDKit          2D

 14 14  0  0  0  0  0  0  0  0999 V2000
    1.1586    1.1720    0.0000 P   0  0  0  0  0  0  0  0  0  0  0  0
    1.1586    0.3470    0.0000 O   0  0  0  0  0  0  0  0  0  0  0  0
    1.1586    1.9970    0.0000 O   0  0  0  0  0  0  0  0  0  0  0  0
    0.3336    1.1720    0.0000 O   0  0  0  0  0  0  0  0  0  0  0  0
    1.9836    1.1720    0.0000 O   0  0  0  0  0  0  0  0  0  0  0  0
    0.4441   -0.0655    0.0000 C   0  0  0  0  0  0  0  0  0  0  0  0
    0.4441   -0.8905    0.0000 C   0  0  0  0  0  0  0  0  0  0  0  0
   -0.2704   -1.3030    0.0000 C   0  0  0  0  0  0  0  0  0  0  0  0
   -0.9848   -0.8905    0.0000 C   0  0  0  0  0  0  0  0  0  0  0  0
   -0.9848   -0.0655    0.0000 C   0  0  0  0  0  0  0  0  0  0  0  0
   -0.2704    0.3470    0.0000 C   0  0  0  0  0  0  0  0  0  0  0  0
   -1.6993   -1.3030    0.0000 N   0  0  0  0  0  0  0  0  0  0  0  0
   -1.6993   -2.1280    0.0000 O   0  0  0  0  0  0  0  0  0  0  0  0
   -2.4138   -0.8905    0.0000 O   0  0  0  0  0  0  0  0  0  0  0  0
  1  2  1  0
  1  3  2  0
  1  4  1  0
  1  5  1  0
  2  6  1  0
  6  7  2  0
  6 11  1  0
  7  8  1  0
  8  9  2  0
  9 10  1  0
  9 12  1  0
 10 11  2  0
 12 13  1  0
 12 14  2  0
M  CHG  2  12   1  13  -1
M  END
>  <DRUGBANK_ID>  (1) 
DB04214

>  <SECONDARY_ACCESSION_NUMBERS>  (1) 
EXPT00223

>  <COMMON_NAME>  (1) 
4-Nitrophenyl Phosphate

>  <CAS_NUMBER>  (1) 
330-13-2

>  <UNII>  (1) 
59NF9TE3BA

$$$$
