
     RDKit          2D

 25 28  0  0  0  0  0  0  0  0999 V2000
    2.1026   -2.0033    0.0000 C   0  0  0  0  0  0  0  0  0  0  0  0
    1.8477   -1.2186    0.0000 N   0  0  0  0  0  0  0  0  0  0  0  0
    2.3326   -0.5512    0.0000 C   0  0  0  0  0  0  0  0  0  0  0  0
    1.8477    0.1161    0.0000 N   0  0  0  0  0  0  0  0  0  0  0  0
    1.0630   -0.1387    0.0000 C   0  0  0  0  0  0  0  0  0  0  0  0
    0.3486    0.2737    0.0000 C   0  0  0  0  0  0  0  0  0  0  0  0
    0.3486    1.0987    0.0000 N   0  0  0  0  0  0  0  0  0  0  0  0
    1.0630    1.5112    0.0000 C   0  0  0  0  0  0  0  0  0  0  0  0
    1.7775    1.0987    0.0000 C   0  0  0  0  0  0  0  0  0  0  0  0
    2.4920    1.5112    0.0000 C   0  0  0  0  0  0  0  0  0  0  0  0
    2.4920    2.3362    0.0000 C   0  0  0  0  0  0  0  0  0  0  0  0
    3.2065    2.7487    0.0000 Cl  0  0  0  0  0  0  0  0  0  0  0  0
    1.7775    2.7487    0.0000 C   0  0  0  0  0  0  0  0  0  0  0  0
    1.0630    2.3362    0.0000 C   0  0  0  0  0  0  0  0  0  0  0  0
   -0.3658   -0.1387    0.0000 N   0  0  0  0  0  0  0  0  0  0  0  0
   -0.3658   -0.9637    0.0000 C   0  0  0  0  0  0  0  0  0  0  0  0
   -1.0803   -1.3762    0.0000 N   0  0  0  0  0  0  0  0  0  0  0  0
   -1.8339   -1.0406    0.0000 N   0  0  0  0  0  0  0  0  0  0  0  0
   -2.3860   -1.6537    0.0000 C   0  0  0  0  0  0  0  0  0  0  0  0
   -3.2065   -1.5675    0.0000 C   0  0  0  0  0  0  0  0  0  0  0  0
   -1.9735   -2.3682    0.0000 C   0  0  0  0  0  0  0  0  0  0  0  0
   -1.1665   -2.1967    0.0000 C   0  0  0  0  0  0  0  0  0  0  0  0
   -0.5534   -2.7487    0.0000 C   0  0  0  0  0  0  0  0  0  0  0  0
    0.3486   -1.3762    0.0000 N   0  0  0  0  0  0  0  0  0  0  0  0
    1.0630   -0.9637    0.0000 C   0  0  0  0  0  0  0  0  0  0  0  0
  1  2  1  0
  2  3  1  0
  2 25  1  0
  3  4  2  0
  4  5  1  0
  5  6  1  0
  5 25  2  0
  6  7  1  0
  6 15  2  0
  7  8  1  0
  8  9  2  0
  8 14  1  0
  9 10  1  0
 10 11  2  0
 11 12  1  0
 11 13  1  0
 13 14  2  0
 15 16  1  0
 16 17  1  0
 16 24  2  0
 17 18  1  0
 17 22  1  0
 18 19  2  0
 19 20  1  0
 19 21  1  0
 21 22  2  0
 22 23  1  0
 24 25  1  0
M  END
>  <DRUGBANK_ID>  (1) 
DB16898

>  <COMMON_NAME>  (1) 
NS13001

>  <CAS_NUMBER>  (1) 
1063331-94-1

$$$$
