
     RDKit          2D

 19 20  0  0  0  0  0  0  0  0999 V2000
   -3.1649    0.2359    0.0000 C   0  0  0  0  0  0  0  0  0  0  0  0
   -2.4548    0.6559    0.0000 C   0  0  0  0  0  0  0  0  0  0  0  0
   -2.4548   -0.1281    0.0000 C   0  0  0  0  0  0  0  0  0  0  0  0
   -3.1649   -0.5987    0.0000 C   0  0  0  0  0  0  0  0  0  0  0  0
   -2.4548   -1.0045    0.0000 C   0  0  0  0  0  0  0  0  0  0  0  0
   -1.7350   -0.5987    0.0000 C   0  0  0  0  0  0  0  0  0  0  0  0
   -1.7350    0.2359    0.0000 C   0  0  0  0  0  0  0  0  0  0  0  0
   -1.0197    0.6466    0.0000 C   0  0  0  0  0  0  0  0  0  0  0  0
   -0.3054    0.2338    0.0000 C   0  0  0  0  0  0  0  0  0  0  0  0
    0.4099    0.6446    0.0000 O   0  0  0  0  0  0  0  0  0  0  0  0
    1.1195    0.2318    0.0000 C   0  0  0  0  0  0  0  0  0  0  0  0
    1.8348    0.6426    0.0000 C   0  0  0  0  0  0  0  0  0  0  0  0
    2.5491    0.2298    0.0000 N   0  0  0  0  0  0  0  0  0  0  0  0
    3.2645    0.6406    0.0000 C   0  0  0  0  0  0  0  0  0  0  0  0
    3.9787    0.2278    0.0000 C   0  0  0  0  0  0  0  0  0  0  0  0
    2.5491   -0.5939    0.0000 C   0  0  0  0  0  0  0  0  0  0  0  0
    3.2622   -1.0067    0.0000 C   0  0  0  0  0  0  0  0  0  0  0  0
   -3.4517    1.0067    0.0000 C   0  0  0  0  0  0  0  0  0  0  0  0
   -3.9787    0.0875    0.0000 C   0  0  0  0  0  0  0  0  0  0  0  0
  1  4  1  0
  1 18  1  0
  1 19  1  0
  2  1  1  0
  2  3  1  1
  2  7  1  0
  4  3  1  1
  4  5  1  0
  5  6  1  0
  7  6  2  0
  7  8  1  0
  8  9  1  0
  9 10  1  0
 10 11  1  0
 11 12  1  0
 12 13  1  0
 13 14  1  0
 13 16  1  0
 14 15  1  0
 16 17  1  0
M  END
>  <DRUGBANK_ID>  (1) 
DB15785

>  <COMMON_NAME>  (1) 
Myrtecaine

>  <CAS_NUMBER>  (1) 
7712-50-7

>  <UNII>  (1) 
9902116282

>  <SYNONYMS>  (1) 
Mirtecaina; Myrtecaine; Myrtecainum; Nopoxamine

$$$$
