
     RDKit          2D

 26 27  0  0  1  0  0  0  0  0999 V2000
    6.3466    0.2256    0.0000 C   0  0  0  0  0  0  0  0  0  0  0  0
    1.3926   -1.9481    0.0000 C   0  0  0  0  0  0  0  0  0  0  0  0
    7.5355   -0.9184    0.0000 C   0  0  0  0  0  0  0  0  0  0  0  0
    5.5539   -2.9778    0.0000 C   0  0  0  0  0  0  0  0  0  0  0  0
    6.7429   -1.1472    0.0000 C   0  0  0  0  0  0  0  0  0  0  0  0
    4.7613   -3.2066    0.0000 C   0  0  0  0  0  0  0  0  0  0  0  0
    8.1300   -1.4905    0.0000 C   0  0  0  0  0  0  0  0  0  0  0  0
    6.1484   -3.5498    0.0000 C   0  0  0  0  0  0  0  0  0  0  0  0
    3.3742   -2.8633    0.0000 C   0  0  0  0  0  0  0  0  0  0  0  0
    2.9779   -1.4905    0.0000 C   0  0  0  0  0  0  0  0  0  0  0  0
    6.1484   -0.5752    0.0000 C   0  0  0  0  0  0  0  0  0  0  0  0
    4.1668   -2.6345    0.0000 C   0  0  0  0  0  0  0  0  0  0  0  0
    2.7797   -2.2913    0.0000 C   0  0  0  0  0  0  0  0  0  0  0  0
    7.9318   -2.2913    0.0000 C   0  0  0  0  0  0  0  0  0  0  0  0
    6.9411   -3.3210    0.0000 C   0  0  0  0  0  0  0  0  0  0  0  0
    3.7705   -1.2617    0.0000 C   0  0  0  0  0  0  0  0  0  0  0  0
    4.3650   -1.8337    0.0000 C   0  0  0  0  0  0  0  0  0  0  0  0
    7.1392   -2.5201    0.0000 C   0  0  0  0  0  0  0  0  0  0  0  0
    5.1576   -1.6049    0.0000 C   0  0  0  0  0  0  0  0  0  0  0  0
    8.5263   -2.8633    0.0000 O   0  0  0  0  0  0  0  0  0  0  0  0
    7.5355   -3.8930    0.0000 O   0  0  0  0  0  0  0  0  0  0  0  0
    3.9687   -0.4608    0.0000 O   0  0  0  0  0  0  0  0  0  0  0  0
    6.5447   -1.9481    0.0000 O   0  0  0  0  0  0  0  0  0  0  0  0
    5.7521   -2.1769    0.0000 O   0  0  0  0  0  0  0  0  0  0  0  0
    1.9871   -2.5201    0.0000 O   0  0  0  0  0  0  0  0  0  0  0  0
    5.3558   -0.8040    0.0000 O   0  0  0  0  0  0  0  0  0  0  0  0
  5  3  1  0
  6  4  2  0
  7  3  2  0
  8  4  1  0
 11  1  1  6
 11  5  1  0
 12  6  1  0
 12  9  2  0
 13  9  1  0
 13 10  2  0
 14  7  1  0
 15  8  1  0
 15 21  1  1
 16 10  1  0
 17 12  1  0
 17 16  2  0
 18 14  1  0
 18 15  1  0
 18 23  1  6
 19 17  1  0
 20 14  2  0
 22 16  1  0
 24 19  2  0
 25  2  1  0
 25 13  1  0
 26 11  1  0
 26 19  1  0
M  END
>  <DRUGBANK_ID>  (1) 
DB07788

>  <COMMON_NAME>  (1) 
(3R,5Z,8S,9S,11E)-8,9,16-TRIHYDROXY-14-METHOXY-3-METHYL-3,4,9,10-TETRAHYDRO-1H-2-BENZOXACYCLOTETRADECINE-1,7(8H)-DIONE

$$$$
