
     RDKit          2D

 28 31  0  0  1  0  0  0  0  0999 V2000
    4.1570   -0.3020    0.0000 C   0  0  0  0  0  0  0  0  0  0  0  0
    3.1971   -2.3221    0.0000 C   0  0  0  0  0  0  0  0  0  0  0  0
    3.9116   -1.9096    0.0000 C   0  0  0  0  0  0  0  0  0  0  0  0
    0.0000   -0.0000    0.0000 C   0  0  0  0  0  0  0  0  0  0  0  0
    6.2195    1.8414    0.0000 C   0  0  0  0  0  0  0  0  0  0  0  0
    6.6320    2.5559    0.0000 C   0  0  0  0  0  0  0  0  0  0  0  0
    2.5070    1.1270    0.0000 C   0  0  0  0  0  0  0  0  0  0  0  0
    0.7846   -0.2549    0.0000 C   0  0  0  0  0  0  0  0  0  0  0  0
    1.6820    1.1270    0.0000 C   0  0  0  0  0  0  0  0  0  0  0  0
    2.5840   -1.7701    0.0000 C   0  0  0  0  0  0  0  0  0  0  0  0
    3.7400   -1.1027    0.0000 C   0  0  0  0  0  0  0  0  0  0  0  0
   -0.0000    0.8250    0.0000 C   0  0  0  0  0  0  0  0  0  0  0  0
    4.9820    2.5559    0.0000 C   0  0  0  0  0  0  0  0  0  0  0  0
    4.9820    1.1270    0.0000 C   0  0  0  0  0  0  0  0  0  0  0  0
    1.6820   -0.3020    0.0000 C   0  0  0  0  0  0  0  0  0  0  0  0
    5.3945    1.8414    0.0000 C   0  0  0  0  0  0  0  0  0  0  0  0
    6.2195    3.2704    0.0000 C   0  0  0  0  0  0  0  0  0  0  0  0
    5.3945    3.2704    0.0000 C   0  0  0  0  0  0  0  0  0  0  0  0
    2.9195    0.4125    0.0000 C   0  0  0  0  0  0  0  0  0  0  0  0
    2.5070   -0.3020    0.0000 C   0  0  0  0  0  0  0  0  0  0  0  0
    4.1570    1.1270    0.0000 C   0  0  0  0  0  0  0  0  0  0  0  0
    1.2695    0.4125    0.0000 C   0  0  0  0  0  0  0  0  0  0  0  0
    6.6320    3.9849    0.0000 Cl  0  0  0  0  0  0  0  0  0  0  0  0
    4.9820    3.9849    0.0000 Cl  0  0  0  0  0  0  0  0  0  0  0  0
    3.7445    0.4125    0.0000 N   0  0  0  0  0  0  0  0  0  0  0  0
    2.9195   -1.0164    0.0000 N   0  0  0  0  0  0  0  0  0  0  0  0
    3.7445    1.8414    0.0000 O   0  0  0  0  0  0  0  0  0  0  0  0
    0.7846    1.0799    0.0000 O   0  0  0  0  0  0  0  0  0  0  0  0
  3  2  1  0
  6  5  2  0
  8  4  1  0
  9  7  1  0
 10  2  1  0
 11  3  1  0
 12  4  1  0
 16  5  1  0
 16 13  2  0
 16 14  1  0
 17  6  1  0
 18 13  1  0
 18 17  2  0
 19  7  1  0
 19 25  1  6
 20 15  1  0
 20 19  1  0
 20 26  1  1
 21 14  1  0
 22  8  1  6
 22  9  1  0
 22 15  1  0
 22 28  1  0
 23 17  1  0
 24 18  1  0
 25  1  1  0
 25 21  1  0
 26 10  1  0
 26 11  1  0
 27 21  2  0
 28 12  1  0
M  END
>  <DRUGBANK_ID>  (1) 
DB12704

>  <COMMON_NAME>  (1) 
Spiradoline

>  <CAS_NUMBER>  (1) 
87151-85-7

>  <UNII>  (1) 
N18ZH0M4NP

>  <SYNONYMS>  (1) 
Spiradoline

$$$$
