
     RDKit          2D

 15 14  0  0  1  0  0  0  0  0999 V2000
   -0.9355   -1.0164    0.0000 C   0  0  0  0  0  0  0  0  0  0  0  0
   -1.6500   -1.4289    0.0000 C   0  0  0  0  0  0  0  0  0  0  0  0
    1.9224   -1.0164    0.0000 C   0  0  0  0  0  0  0  0  0  0  0  0
   -0.2211   -1.4289    0.0000 C   0  0  0  0  0  0  0  0  0  0  0  0
    1.2079   -1.4289    0.0000 C   0  0  0  0  0  0  0  0  0  0  0  0
    0.4934   -1.0164    0.0000 C   0  0  0  0  0  0  0  0  0  0  0  0
   -2.3645   -1.0164    0.0000 O   0  0  0  0  0  0  0  0  0  0  0  0
   -0.2211   -2.2539    0.0000 O   0  0  0  0  0  0  0  0  0  0  0  0
    1.2079   -2.2539    0.0000 O   0  0  0  0  0  0  0  0  0  0  0  0
    0.4934   -0.1914    0.0000 O   0  0  0  0  0  0  0  0  0  0  0  0
    4.0658   -0.6039    0.0000 O   0  0  0  0  0  0  0  0  0  0  0  0
    3.7638   -1.7309    0.0000 O   0  0  0  0  0  0  0  0  0  0  0  0
    2.9388   -0.3020    0.0000 O   0  0  0  0  0  0  0  0  0  0  0  0
    2.6368   -1.4289    0.0000 O   0  0  0  0  0  0  0  0  0  0  0  0
    3.3513   -1.0164    0.0000 P   0  0  0  0  0  0  0  0  0  0  0  0
  2  1  1  0
  4  1  1  0
  4  8  1  6
  5  3  1  0
  5  9  1  1
  6  4  1  0
  6  5  1  0
  6 10  1  6
  7  2  1  0
 14  3  1  0
 15 11  1  0
 15 12  1  0
 15 13  2  0
 15 14  1  0
M  END
>  <DRUGBANK_ID>  (1) 
DB04516

>  <SECONDARY_ACCESSION_NUMBERS>  (1) 
EXPT01174

>  <COMMON_NAME>  (1) 
2-Deoxy-Glucitol-6-Phosphate

$$$$
