
     RDKit          2D

 30 34  0  0  0  0  0  0  0  0999 V2000
    0.5121    4.7149    0.0000 C   0  0  0  0  0  0  0  0  0  0  0  0
   -0.0400    4.1018    0.0000 C   0  0  0  0  0  0  0  0  0  0  0  0
    1.3191    4.5434    0.0000 C   0  0  0  0  0  0  0  0  0  0  0  0
    3.4905    1.2811    0.0000 C   0  0  0  0  0  0  0  0  0  0  0  0
    3.4905    2.1061    0.0000 C   0  0  0  0  0  0  0  0  0  0  0  0
    0.2150    3.3172    0.0000 C   0  0  0  0  0  0  0  0  0  0  0  0
    1.5740    3.7587    0.0000 C   0  0  0  0  0  0  0  0  0  0  0  0
    2.7760    0.8686    0.0000 C   0  0  0  0  0  0  0  0  0  0  0  0
    2.7760    2.5186    0.0000 C   0  0  0  0  0  0  0  0  0  0  0  0
    2.2030   -0.9504    0.0000 C   0  0  0  0  0  0  0  0  0  0  0  0
    2.7842    0.3550    0.0000 C   0  0  0  0  0  0  0  0  0  0  0  0
   -0.5920   -0.1015    0.0000 C   0  0  0  0  0  0  0  0  0  0  0  0
    0.7670   -0.5431    0.0000 C   0  0  0  0  0  0  0  0  0  0  0  0
    2.9567   -1.2859    0.0000 C   0  0  0  0  0  0  0  0  0  0  0  0
    3.5379    0.0195    0.0000 C   0  0  0  0  0  0  0  0  0  0  0  0
   -0.8469   -0.8862    0.0000 C   0  0  0  0  0  0  0  0  0  0  0  0
    0.5121   -1.3277    0.0000 C   0  0  0  0  0  0  0  0  0  0  0  0
    1.3631    0.2057    0.0000 C   0  0  0  0  0  0  0  0  0  0  0  0
    0.4699    0.8546    0.0000 C   0  0  0  0  0  0  0  0  0  0  0  0
    2.1168   -0.1299    0.0000 C   0  0  0  0  0  0  0  0  0  0  0  0
    0.2150    0.0700    0.0000 C   0  0  0  0  0  0  0  0  0  0  0  0
    1.0220    3.1456    0.0000 C   0  0  0  0  0  0  0  0  0  0  0  0
    2.0615    1.2811    0.0000 C   0  0  0  0  0  0  0  0  0  0  0  0
    2.0615    2.1061    0.0000 C   0  0  0  0  0  0  0  0  0  0  0  0
    0.7920    1.6936    0.0000 C   0  0  0  0  0  0  0  0  0  0  0  0
    1.2769    1.0261    0.0000 C   0  0  0  0  0  0  0  0  0  0  0  0
    3.6242   -0.8010    0.0000 N   0  0  0  0  0  0  0  0  0  0  0  0
   -0.2949   -1.4993    0.0000 N   0  0  0  0  0  0  0  0  0  0  0  0
    1.2769    2.3610    0.0000 N   0  0  0  0  0  0  0  0  0  0  0  0
   -0.0330    1.6936    0.0000 O   0  0  0  0  0  0  0  0  0  0  0  0
  2  1  2  0
  3  1  1  0
  5  4  2  0
  6  2  1  0
  7  3  2  0
  8  4  1  0
  9  5  1  0
 14 10  2  0
 15 11  1  0
 16 12  2  0
 17 13  1  0
 20 10  1  0
 20 11  2  0
 20 18  1  0
 21 12  1  0
 21 13  2  0
 21 19  1  0
 22  6  2  0
 22  7  1  0
 23  8  2  0
 24  9  2  0
 24 23  1  0
 26 18  1  0
 26 19  1  0
 26 23  1  0
 26 25  1  0
 27 14  1  0
 27 15  2  0
 28 16  1  0
 28 17  2  0
 29 22  1  0
 29 24  1  0
 29 25  1  0
 30 25  2  0
M  END
>  <DRUGBANK_ID>  (1) 
DB13806

>  <COMMON_NAME>  (1) 
Linopirdine

>  <CAS_NUMBER>  (1) 
105431-72-9

>  <UNII>  (1) 
I5TB3NZ94T

>  <SYNONYMS>  (1) 
Linopirdine

$$$$
