
     RDKit          2D

 16 16  0  0  0  0  0  0  0  0999 V2000
    1.7862    0.4125    0.0000 C   0  0  0  0  0  0  0  0  0  0  0  0
    1.0717    0.8250    0.0000 O   0  0  0  0  0  0  0  0  0  0  0  0
    0.3572    0.4125    0.0000 C   0  0  0  0  0  0  0  0  0  0  0  0
    0.3572   -0.4125    0.0000 C   0  0  0  0  0  0  0  0  0  0  0  0
    1.0717   -0.8250    0.0000 C   0  0  0  0  0  0  0  0  0  0  0  0
    1.7862   -0.4125    0.0000 C   0  0  0  0  0  0  0  0  0  0  0  0
   -1.0716    0.4125    0.0000 O   0  0  0  0  0  0  0  0  0  0  0  0
   -1.7861    1.6500    0.0000 O   0  0  0  0  0  0  0  0  0  0  0  0
   -2.5006    0.4125    0.0000 O   0  0  0  0  0  0  0  0  0  0  0  0
   -0.3571    0.8250    0.0000 C   0  0  0  0  0  0  0  0  0  0  0  0
   -0.3571   -0.8250    0.0000 O   0  0  0  0  0  0  0  0  0  0  0  0
    1.0717   -1.6500    0.0000 O   0  0  0  0  0  0  0  0  0  0  0  0
    2.5006    0.8250    0.0000 O   0  0  0  0  0  0  0  0  0  0  0  0
    2.5006   -0.8250    0.0000 O   0  0  0  0  0  0  0  0  0  0  0  0
   -1.7861    0.8250    0.0000 P   0  0  0  0  0  0  0  0  0  0  0  0
   -1.7861    0.0000    0.0000 O   0  0  0  0  0  0  0  0  0  0  0  0
  1 13  1  6
  1  6  1  0
  2  1  1  0
  3  2  1  0
  3 10  1  1
  3  4  1  0
  4 11  1  6
  4  5  1  0
  5 12  1  1
  5  6  1  0
  6 14  1  1
  7 10  1  0
 15  7  1  0
 15  8  2  0
 15  9  1  0
 15 16  1  0
M  END
>  <DRUGBANK_ID>  (1) 
DB02900

>  <SECONDARY_ACCESSION_NUMBERS>  (1) 
EXPT02088

>  <COMMON_NAME>  (1) 
alpha-D-mannose 6-phosphate

>  <CAS_NUMBER>  (1) 
40436-60-0

>  <UNII>  (1) 
C77UQ006XD

>  <SYNONYMS>  (1) 
(6P)Mana; (6P)Manα; 6-H2PO3Manα; 6-O-phosphono-α-D-mannopyranose; alpha-D-Mannopyranose 6-phosphate; Man6P; α-D-mannose 6-phosphate

$$$$
