
     RDKit          2D

 15 14  0  0  1  0  0  0  0  0999 V2000
   12.1995   -5.4501    0.0000 C   0  0  0  0  0  0  0  0  0  0  0  0
   11.4851   -5.8626    0.0000 C   0  0  0  0  0  0  0  0  0  0  0  0
   10.7706   -5.4501    0.0000 C   0  0  0  0  0  0  0  0  0  0  0  0
   10.0561   -5.8626    0.0000 C   0  0  0  0  0  0  0  0  0  0  0  0
    9.3417   -5.4501    0.0000 C   0  0  0  0  0  0  0  0  0  0  0  0
   12.1995   -4.6251    0.0000 O   0  0  0  0  0  0  0  0  0  0  0  0
   10.7706   -4.6251    0.0000 O   0  0  0  0  0  0  0  0  0  0  0  0
   10.0561   -6.6876    0.0000 O   0  0  0  0  0  0  0  0  0  0  0  0
    9.3417   -4.6251    0.0000 O   0  0  0  0  0  0  0  0  0  0  0  0
    8.6271   -5.8626    0.0000 C   0  0  0  0  0  0  0  0  0  0  0  0
    7.9127   -5.4501    0.0000 O   0  0  0  0  0  0  0  0  0  0  0  0
   11.4851   -6.6876    0.0000 N   0  0  0  0  0  0  0  0  0  0  0  0
   12.1995   -7.1001    0.0000 C   0  0  0  0  0  0  0  0  0  0  0  0
   12.9140   -6.6876    0.0000 O   0  0  0  0  0  0  0  0  0  0  0  0
   12.1995   -7.9251    0.0000 C   0  0  0  0  0  0  0  0  0  0  0  0
  2  1  1  6
  2 12  1  0
  3  2  1  0
  3  7  1  6
  4  3  1  0
  4  8  1  6
  5  4  1  0
  5  9  1  1
  6  1  2  0
 10  5  1  0
 10 11  1  0
 12 13  1  0
 14 13  2  0
 15 13  1  0
M  END
>  <DRUGBANK_ID>  (1) 
DB00141

>  <SECONDARY_ACCESSION_NUMBERS>  (1) 
NUTR00040

>  <COMMON_NAME>  (1) 
N-Acetylglucosamine

>  <CAS_NUMBER>  (1) 
7512-17-6

>  <UNII>  (1) 
V956696549

>  <SYNONYMS>  (1) 
2-Acetamido-2-deoxy-D-glucose; aldehydo-N-acetyl-D-glucosamine; D-GlcNAc; N-Acetyl-D-glucosamine; N-Acetylchitosamine

$$$$
