2C2
     RDKit          2D

 14 15  0  0  0  0  0  0  0  0999 V2000
    0.6443    1.5196    0.0000 O   0  0  0  0  0  0  0  0  0  0  0  0
    0.1140    0.8876    0.0000 C   0  0  0  0  0  0  0  0  0  0  0  0
   -0.6984    1.0309    0.0000 O   0  0  0  0  0  0  0  0  0  0  0  0
    0.3962    0.1124    0.0000 C   0  0  0  0  0  0  0  0  0  0  0  0
   -0.4163   -0.0309    0.0000 O   0  0  0  0  0  0  0  0  0  0  0  0
    1.1107    0.5249    0.0000 O   0  0  0  0  0  0  0  0  0  0  0  0
    1.8251    0.1124    0.0000 C   0  0  0  0  0  0  0  0  0  0  0  0
    1.8251   -0.7126    0.0000 C   0  0  0  0  0  0  0  0  0  0  0  0
    1.1107   -1.1251    0.0000 C   0  0  0  0  0  0  0  0  0  0  0  0
    0.3962   -0.7126    0.0000 C   0  0  0  0  0  0  0  0  0  0  0  0
    2.5396    0.5249    0.0000 C   0  0  0  0  0  0  0  0  0  0  0  0
    3.2541    0.1124    0.0000 C   0  0  0  0  0  0  0  0  0  0  0  0
    3.2541   -0.7126    0.0000 C   0  0  0  0  0  0  0  0  0  0  0  0
    2.5396   -1.1251    0.0000 C   0  0  0  0  0  0  0  0  0  0  0  0
  1  2  1  0
  2  3  2  0
  4  2  1  0
  4  5  1  6
  4  6  1  0
  4 10  1  0
  6  7  1  0
  7 11  1  0
  7  8  2  0
  8  9  1  0
  8 14  1  0
  9 10  2  0
 11 12  2  0
 12 13  1  0
 13 14  2  0
M  END
>  <DRUGBANK_ID>  (1) 
DB06952

>  <COMMON_NAME>  (1) 
(2S)-2-HYDROXY-2H-CHROMENE-2-CARBOXYLIC ACID

$$$$
