
     RDKit          2D

 43 48  0  0  1  0  0  0  0  0999 V2000
    0.5373    0.1730    0.0000 O   0  0  0  0  0  0  0  0  0  0  0  0
    1.0985    0.7778    0.0000 C   0  0  0  0  0  0  0  0  0  0  0  0
    0.7971    1.5457    0.0000 C   0  0  0  0  0  0  0  0  0  0  0  0
   -0.0256    1.6074    0.0000 O   0  0  0  0  0  0  0  0  0  0  0  0
    1.2096    2.2602    0.0000 C   0  0  0  0  0  0  0  0  0  0  0  0
    0.7448    2.9419    0.0000 C   0  0  0  0  0  0  0  0  0  0  0  0
   -0.0779    2.8802    0.0000 C   0  0  0  0  0  0  0  0  0  0  0  0
   -0.4358    2.1369    0.0000 C   0  0  0  0  0  0  0  0  0  0  0  0
   -1.2585    2.0753    0.0000 C   0  0  0  0  0  0  0  0  0  0  0  0
   -1.7233    2.7569    0.0000 C   0  0  0  0  0  0  0  0  0  0  0  0
   -1.3653    3.5002    0.0000 C   0  0  0  0  0  0  0  0  0  0  0  0
   -0.5426    3.5619    0.0000 C   0  0  0  0  0  0  0  0  0  0  0  0
    2.0254    2.3832    0.0000 N   0  0  0  0  0  0  0  0  0  0  0  0
    2.2685    3.1715    0.0000 C   0  0  0  0  0  0  0  0  0  0  0  0
    1.7074    3.7763    0.0000 C   0  0  0  0  0  0  0  0  0  0  0  0
    1.9506    4.5646    0.0000 C   0  0  0  0  0  0  0  0  0  0  0  0
    1.3894    5.1694    0.0000 C   0  0  0  0  0  0  0  0  0  0  0  0
    0.5851    4.9858    0.0000 C   0  0  0  0  0  0  0  0  0  0  0  0
    0.3419    4.1975    0.0000 C   0  0  0  0  0  0  0  0  0  0  0  0
    0.9031    3.5927    0.0000 C   0  0  0  0  0  0  0  0  0  0  0  0
    1.6326    5.9578    0.0000 C   0  0  0  0  0  0  0  0  0  0  0  0
    2.4369    6.1413    0.0000 O   0  0  0  0  0  0  0  0  0  0  0  0
    1.0714    6.5625    0.0000 N   0  0  0  0  0  0  0  0  0  0  0  0
    1.3146    7.3509    0.0000 C   0  0  0  0  0  0  0  0  0  0  0  0
    0.8198    8.0110    0.0000 N   0  0  0  0  0  0  0  0  0  0  0  0
    1.2946    8.6856    0.0000 C   0  0  0  0  0  0  0  0  0  0  0  0
    2.0830    8.4424    0.0000 C   0  0  0  0  0  0  0  0  0  0  0  0
    2.0953    7.6175    0.0000 S   0  0  0  0  0  0  0  0  0  0  0  0
    2.6301    1.8220    0.0000 C   0  0  0  0  0  0  0  0  0  0  0  0
    3.3981    2.1234    0.0000 O   0  0  0  0  0  0  0  0  0  0  0  0
    2.5685    0.9993    0.0000 N   0  0  0  0  0  0  0  0  0  0  0  0
    3.2829    0.5868    0.0000 C   0  0  0  0  0  0  0  0  0  0  0  0
    3.2829   -0.2382    0.0000 C   0  0  0  0  0  0  0  0  0  0  0  0
    3.6954   -0.9526    0.0000 C   0  0  0  0  0  0  0  0  0  0  0  0
    2.8704   -0.9526    0.0000 C   0  0  0  0  0  0  0  0  0  0  0  0
    1.8868    0.5346    0.0000 C   0  0  0  0  0  0  0  0  0  0  0  0
    2.0098   -0.2812    0.0000 C   0  0  0  0  0  0  0  0  0  0  0  0
    1.3648   -0.7956    0.0000 C   0  0  0  0  0  0  0  0  0  0  0  0
    1.4877   -1.6113    0.0000 C   0  0  0  0  0  0  0  0  0  0  0  0
    0.8427   -2.1257    0.0000 C   0  0  0  0  0  0  0  0  0  0  0  0
    0.0747   -1.8243    0.0000 C   0  0  0  0  0  0  0  0  0  0  0  0
   -0.0482   -1.0085    0.0000 C   0  0  0  0  0  0  0  0  0  0  0  0
    0.5968   -0.4942    0.0000 C   0  0  0  0  0  0  0  0  0  0  0  0
  2  1  1  6
  2  3  1  0
  2 36  1  0
  3  4  1  1
  3  5  1  0
  5  6  1  1
  5 13  1  0
  6  7  1  0
  7  8  2  0
  7 12  1  0
  8  9  1  0
  9 10  2  0
 10 11  1  0
 11 12  2  0
 13 14  1  0
 13 29  1  0
 14 15  1  0
 15 16  2  0
 15 20  1  0
 16 17  1  0
 17 18  2  0
 17 21  1  0
 18 19  1  0
 19 20  2  0
 21 22  2  0
 21 23  1  0
 23 24  1  0
 24 25  2  0
 24 28  1  0
 25 26  1  0
 26 27  2  0
 27 28  1  0
 29 30  2  0
 29 31  1  0
 31 32  1  0
 31 36  1  0
 32 33  1  0
 33 34  1  0
 33 35  1  0
 34 35  1  0
 36 37  1  6
 37 38  1  0
 38 39  2  0
 38 43  1  0
 39 40  1  0
 40 41  2  0
 41 42  1  0
 42 43  2  0
M  END
>  <DRUGBANK_ID>  (1) 
DB04609

>  <COMMON_NAME>  (1) 
INHIBITOR Q8467 OF DUPONT MERCK

$$$$
