EG3
     RDKit          2D

 33 34  0  0  0  0  0  0  0  0999 V2000
   -7.1302    1.2252    0.0000 S   0  0  0  0  0  0  0  0  0  0  0  0
   -7.8446    1.6377    0.0000 O   0  0  0  0  0  0  0  0  0  0  0  0
   -7.5427    0.5107    0.0000 O   0  0  0  0  0  0  0  0  0  0  0  0
   -6.7177    1.9397    0.0000 N   0  0  0  0  0  0  0  0  0  0  0  0
   -4.9867   -0.0123    0.0000 C   0  0  0  0  0  0  0  0  0  0  0  0
   -5.7012   -0.4248    0.0000 C   0  0  0  0  0  0  0  0  0  0  0  0
   -6.4157   -0.0123    0.0000 C   0  0  0  0  0  0  0  0  0  0  0  0
   -6.4157    0.8127    0.0000 C   0  0  0  0  0  0  0  0  0  0  0  0
   -5.7012    1.2252    0.0000 C   0  0  0  0  0  0  0  0  0  0  0  0
   -4.9867    0.8127    0.0000 C   0  0  0  0  0  0  0  0  0  0  0  0
   -4.2723   -0.4248    0.0000 C   0  0  0  0  0  0  0  0  0  0  0  0
   -4.2723   -1.2498    0.0000 O   0  0  0  0  0  0  0  0  0  0  0  0
   -3.5578   -0.0123    0.0000 N   0  0  0  0  0  0  0  0  0  0  0  0
   -2.8433   -0.4248    0.0000 C   0  0  0  0  0  0  0  0  0  0  0  0
   -2.1289   -0.0123    0.0000 C   0  0  0  0  0  0  0  0  0  0  0  0
   -1.4144   -0.4248    0.0000 O   0  0  0  0  0  0  0  0  0  0  0  0
   -0.6999   -0.0123    0.0000 C   0  0  0  0  0  0  0  0  0  0  0  0
    0.0145   -0.4248    0.0000 C   0  0  0  0  0  0  0  0  0  0  0  0
    0.7290   -0.0123    0.0000 O   0  0  0  0  0  0  0  0  0  0  0  0
    1.4435   -0.4248    0.0000 C   0  0  0  0  0  0  0  0  0  0  0  0
    2.1580   -0.0123    0.0000 C   0  0  0  0  0  0  0  0  0  0  0  0
    2.8724   -0.4248    0.0000 N   0  0  0  0  0  0  0  0  0  0  0  0
    3.5869   -0.0123    0.0000 C   0  0  0  0  0  0  0  0  0  0  0  0
    3.5869    0.8127    0.0000 O   0  0  0  0  0  0  0  0  0  0  0  0
    4.3014   -0.4248    0.0000 C   0  0  0  0  0  0  0  0  0  0  0  0
    4.3014   -1.2498    0.0000 N   0  0  0  0  0  0  0  0  0  0  0  0
    5.0158   -0.0123    0.0000 C   0  0  0  0  0  0  0  0  0  0  0  0
    5.7303   -0.4248    0.0000 C   0  0  0  0  0  0  0  0  0  0  0  0
    6.4448   -0.0123    0.0000 C   0  0  0  0  0  0  0  0  0  0  0  0
    7.1593   -0.4248    0.0000 C   0  0  0  0  0  0  0  0  0  0  0  0
    7.1593   -1.2498    0.0000 C   0  0  0  0  0  0  0  0  0  0  0  0
    6.4448   -1.6623    0.0000 C   0  0  0  0  0  0  0  0  0  0  0  0
    5.7303   -1.2498    0.0000 C   0  0  0  0  0  0  0  0  0  0  0  0
  1  2  2  0
  1  3  2  0
  1  4  1  0
  1  8  1  0
  5  6  2  0
  5 10  1  0
  5 11  1  0
  6  7  1  0
  7  8  2  0
  8  9  1  0
  9 10  2  0
 11 12  2  0
 11 13  1  0
 13 14  1  0
 14 15  1  0
 15 16  1  0
 16 17  1  0
 17 18  1  0
 18 19  1  0
 19 20  1  0
 20 21  1  0
 21 22  1  0
 22 23  1  0
 23 24  2  0
 23 25  1  0
 25 26  1  6
 25 27  1  0
 27 28  1  0
 28 29  2  0
 28 33  1  0
 29 30  1  0
 30 31  2  0
 31 32  1  0
 32 33  2  0
M  END
>  <DRUGBANK_ID>  (1) 
DB07710

>  <COMMON_NAME>  (1) 
PHENYLALANYLAMINODI(ETHYLOXY)ETHYL BENZENESULFONAMIDEAMINOCARBONYLBENZENESULFONAMIDE

$$$$
