
     RDKit          2D

 22 22  0  0  1  0  0  0  0  0999 V2000
   -0.1467    2.3518    0.0000 C   0  0  0  0  0  0  0  0  0  0  0  0
    4.1401    2.3518    0.0000 C   0  0  0  0  0  0  0  0  0  0  0  0
    1.9967    1.9393    0.0000 C   0  0  0  0  0  0  0  0  0  0  0  0
    1.2822    2.3518    0.0000 C   0  0  0  0  0  0  0  0  0  0  0  0
    2.7112    2.3518    0.0000 C   0  0  0  0  0  0  0  0  0  0  0  0
   -0.8843    0.8843    0.0000 C   0  0  0  0  0  0  0  0  0  0  0  0
    1.2352    0.6294    0.0000 C   0  0  0  0  0  0  0  0  0  0  0  0
    0.5678    1.9393    0.0000 C   0  0  0  0  0  0  0  0  0  0  0  0
    3.4256    1.9393    0.0000 C   0  0  0  0  0  0  0  0  0  0  0  0
   -0.0997    0.6294    0.0000 C   0  0  0  0  0  0  0  0  0  0  0  0
    0.5678    1.1143    0.0000 C   0  0  0  0  0  0  0  0  0  0  0  0
   -1.0558    1.6913    0.0000 C   0  0  0  0  0  0  0  0  0  0  0  0
    0.1553   -0.1553    0.0000 C   0  0  0  0  0  0  0  0  0  0  0  0
    3.4256    1.1143    0.0000 C   0  0  0  0  0  0  0  0  0  0  0  0
   -0.3297   -0.8227    0.0000 C   0  0  0  0  0  0  0  0  0  0  0  0
    0.9803   -0.1553    0.0000 N   0  0  0  0  0  0  0  0  0  0  0  0
   -0.4427    2.2433    0.0000 O   0  0  0  0  0  0  0  0  0  0  0  0
   -1.8405    1.9462    0.0000 O   0  0  0  0  0  0  0  0  0  0  0  0
    4.1401    0.7018    0.0000 O   0  0  0  0  0  0  0  0  0  0  0  0
    2.7112    0.7018    0.0000 O   0  0  0  0  0  0  0  0  0  0  0  0
    0.0059   -1.5764    0.0000 O   0  0  0  0  0  0  0  0  0  0  0  0
   -1.1501   -0.7365    0.0000 O   0  0  0  0  0  0  0  0  0  0  0  0
  4  3  1  0
  5  3  2  0
  8  1  1  0
  8  4  2  0
  9  2  1  1
  9  5  1  0
 10  6  1  1
 11  7  1  0
 11  8  1  1
 11 10  1  0
 12  6  1  0
 13 10  1  0
 13 15  1  6
 14  9  1  0
 16  7  1  0
 16 13  1  0
 17 12  2  0
 18 12  1  0
 19 14  2  0
 20 14  1  0
 21 15  2  0
 22 15  1  0
M  END
>  <DRUGBANK_ID>  (1) 
DB02852

>  <SECONDARY_ACCESSION_NUMBERS>  (1) 
EXPT01248

>  <COMMON_NAME>  (1) 
Domoic Acid

>  <CAS_NUMBER>  (1) 
14277-97-5

>  <UNII>  (1) 
M02525818H

>  <SYNONYMS>  (1) 
(-)-domoic acid; L-domoic acid

$$$$
