685
     RDKit          2D

 28 30  0  0  0  0  0  0  0  0999 V2000
   -3.0219   -2.4674    0.0000 C   0  0  0  0  0  0  0  0  0  0  0  0
   -3.0219   -1.6424    0.0000 C   0  0  0  0  0  0  0  0  0  0  0  0
   -3.7364   -1.2299    0.0000 C   0  0  0  0  0  0  0  0  0  0  0  0
   -4.4509   -1.6424    0.0000 O   0  0  0  0  0  0  0  0  0  0  0  0
   -2.3075   -1.2299    0.0000 N   0  0  0  0  0  0  0  0  0  0  0  0
   -1.5930   -1.6424    0.0000 C   0  0  0  0  0  0  0  0  0  0  0  0
   -1.5930   -2.4674    0.0000 O   0  0  0  0  0  0  0  0  0  0  0  0
   -0.8785   -1.2299    0.0000 C   0  0  0  0  0  0  0  0  0  0  0  0
   -0.1248   -1.5655    0.0000 S   0  0  0  0  0  0  0  0  0  0  0  0
    0.4272   -0.9524    0.0000 C   0  0  0  0  0  0  0  0  0  0  0  0
    0.0147   -0.2379    0.0000 N   0  0  0  0  0  0  0  0  0  0  0  0
   -0.7923   -0.4095    0.0000 C   0  0  0  0  0  0  0  0  0  0  0  0
   -1.4054    0.1426    0.0000 C   0  0  0  0  0  0  0  0  0  0  0  0
    1.2477   -1.0386    0.0000 C   0  0  0  0  0  0  0  0  0  0  0  0
    1.5832   -1.7923    0.0000 C   0  0  0  0  0  0  0  0  0  0  0  0
    2.4037   -1.8786    0.0000 C   0  0  0  0  0  0  0  0  0  0  0  0
    2.8886   -1.2111    0.0000 N   0  0  0  0  0  0  0  0  0  0  0  0
    2.5531   -0.4574    0.0000 C   0  0  0  0  0  0  0  0  0  0  0  0
    3.0380    0.2100    0.0000 N   0  0  0  0  0  0  0  0  0  0  0  0
    2.7024    0.9637    0.0000 C   0  0  0  0  0  0  0  0  0  0  0  0
    3.1874    1.6311    0.0000 C   0  0  0  0  0  0  0  0  0  0  0  0
    2.8518    2.3848    0.0000 C   0  0  0  0  0  0  0  0  0  0  0  0
    3.3367    3.0522    0.0000 C   0  0  0  0  0  0  0  0  0  0  0  0
    2.0313    2.4710    0.0000 C   0  0  0  0  0  0  0  0  0  0  0  0
    1.5464    1.8036    0.0000 C   0  0  0  0  0  0  0  0  0  0  0  0
    0.7259    1.8898    0.0000 C   0  0  0  0  0  0  0  0  0  0  0  0
    1.8820    1.0499    0.0000 C   0  0  0  0  0  0  0  0  0  0  0  0
    1.7326   -0.3712    0.0000 N   0  0  0  0  0  0  0  0  0  0  0  0
  2  1  1  1
  2  3  1  0
  2  5  1  0
  4  3  1  0
  5  6  1  0
  6  8  1  0
  7  6  2  0
  8 12  2  0
  8  9  1  0
  9 10  1  0
 10 14  1  0
 11 10  2  0
 12 11  1  0
 13 12  1  0
 14 28  1  0
 14 15  2  0
 15 16  1  0
 16 17  2  0
 18 17  1  0
 18 19  1  0
 20 19  1  0
 20 27  1  0
 21 20  2  0
 22 21  1  0
 22 24  2  0
 23 22  1  0
 24 25  1  0
 25 26  1  0
 25 27  2  0
 28 18  2  0
M  END
>  <DRUGBANK_ID>  (1) 
DB07194

>  <COMMON_NAME>  (1) 
2-{2-[(3,5-dimethylphenyl)amino]pyrimidin-4-yl}-N-[(1S)-2-hydroxy-1-methylethyl]-4-methyl-1,3-thiazole-5-carboxamide

$$$$
