
     RDKit          2D

 33 36  0  0  1  0  0  0  0  0999 V2000
   11.5296   -1.8010    0.0000 O   0  0  0  0  0  0  0  0  0  0  0  0
    9.5094   -2.4911    0.0000 O   0  0  0  0  0  0  0  0  0  0  0  0
    8.7949   -1.2535    0.0000 O   0  0  0  0  0  0  0  0  0  0  0  0
    2.3645    1.6340    0.0000 O   0  0  0  0  0  0  0  0  0  0  0  0
    4.4610    2.9440    0.0000 O   0  0  0  0  0  0  0  0  0  0  0  0
    5.2224   -0.8410    0.0000 O   0  0  0  0  0  0  0  0  0  0  0  0
    8.0804   -2.4911    0.0000 N   0  0  0  0  0  0  0  0  0  0  0  0
    4.5080   -2.0786    0.0000 N   0  0  0  0  0  0  0  0  0  0  0  0
    3.7935   -0.8410    0.0000 N   0  0  0  0  0  0  0  0  0  0  0  0
    3.3810    3.7286    0.0000 N   0  0  0  0  0  0  0  0  0  0  0  0
   10.2239   -2.0786    0.0000 C   0  0  0  0  0  0  0  0  0  0  0  0
   10.3101   -1.2581    0.0000 C   0  0  0  0  0  0  0  0  0  0  0  0
   10.9776   -2.4142    0.0000 C   0  0  0  0  0  0  0  0  0  0  0  0
   11.1171   -1.0865    0.0000 C   0  0  0  0  0  0  0  0  0  0  0  0
    8.7949   -2.0786    0.0000 C   0  0  0  0  0  0  0  0  0  0  0  0
    7.3659   -2.0786    0.0000 C   0  0  0  0  0  0  0  0  0  0  0  0
    6.6515   -2.4911    0.0000 C   0  0  0  0  0  0  0  0  0  0  0  0
    5.9370   -2.0786    0.0000 C   0  0  0  0  0  0  0  0  0  0  0  0
    5.2224   -2.4911    0.0000 C   0  0  0  0  0  0  0  0  0  0  0  0
    6.6515   -3.3161    0.0000 C   0  0  0  0  0  0  0  0  0  0  0  0
    5.2224   -3.3161    0.0000 C   0  0  0  0  0  0  0  0  0  0  0  0
    5.9370   -3.7286    0.0000 C   0  0  0  0  0  0  0  0  0  0  0  0
    3.7935   -0.0160    0.0000 C   0  0  0  0  0  0  0  0  0  0  0  0
    3.7935    1.6340    0.0000 C   0  0  0  0  0  0  0  0  0  0  0  0
    3.0791    1.2215    0.0000 C   0  0  0  0  0  0  0  0  0  0  0  0
    3.0791    0.3965    0.0000 C   0  0  0  0  0  0  0  0  0  0  0  0
    4.5080    0.3965    0.0000 C   0  0  0  0  0  0  0  0  0  0  0  0
    4.5080    1.2215    0.0000 C   0  0  0  0  0  0  0  0  0  0  0  0
    4.5080   -1.2535    0.0000 C   0  0  0  0  0  0  0  0  0  0  0  0
    3.7935    2.4590    0.0000 C   0  0  0  0  0  0  0  0  0  0  0  0
    3.1261    2.9440    0.0000 C   0  0  0  0  0  0  0  0  0  0  0  0
    1.6500    1.2215    0.0000 C   0  0  0  0  0  0  0  0  0  0  0  0
    4.2060    3.7286    0.0000 C   0  0  0  0  0  0  0  0  0  0  0  0
  1 13  1  0
  1 14  1  0
  2 15  1  0
  3 15  2  0
  4 25  1  0
  4 32  1  0
  5 30  1  0
  5 33  1  0
  6 29  2  0
  7 15  1  0
  7 16  1  0
  8 19  1  0
  8 29  1  0
  9 23  1  0
  9 29  1  0
 10 31  1  0
 10 33  2  0
 11  2  1  1
 11 12  1  0
 11 13  1  0
 12 14  1  0
 16 17  1  0
 17 18  2  0
 17 20  1  0
 18 19  1  0
 19 21  2  0
 20 22  2  0
 21 22  1  0
 23 26  2  0
 23 27  1  0
 24 25  2  0
 24 28  1  0
 24 30  1  0
 25 26  1  0
 27 28  2  0
 30 31  2  0
M  END
>  <DRUGBANK_ID>  (1) 
DB04862

>  <COMMON_NAME>  (1) 
Merimepodib

>  <CAS_NUMBER>  (1) 
198821-22-6

>  <UNII>  (1) 
2ZL2BA06FU

>  <SYNONYMS>  (1) 
Merimepodib; MMPD

$$$$
