A55
     RDKit          2D

 23 25  0  0  0  0  0  0  0  0999 V2000
   -2.0358    2.1650    0.0000 C   0  0  0  0  0  0  0  0  0  0  0  0
   -2.7503    1.7525    0.0000 C   0  0  0  0  0  0  0  0  0  0  0  0
   -2.7503    0.9275    0.0000 C   0  0  0  0  0  0  0  0  0  0  0  0
   -2.0358    0.5150    0.0000 C   0  0  0  0  0  0  0  0  0  0  0  0
   -1.3213    0.9275    0.0000 C   0  0  0  0  0  0  0  0  0  0  0  0
   -1.3213    1.7525    0.0000 C   0  0  0  0  0  0  0  0  0  0  0  0
   -0.6069    2.1650    0.0000 F   0  0  0  0  0  0  0  0  0  0  0  0
   -0.6069    0.5150    0.0000 N   0  0  0  0  0  0  0  0  0  0  0  0
   -0.6069   -0.3100    0.0000 C   0  0  0  0  0  0  0  0  0  0  0  0
   -1.3213   -0.7225    0.0000 N   0  0  0  0  0  0  0  0  0  0  0  0
   -2.0358   -0.3100    0.0000 C   0  0  0  0  0  0  0  0  0  0  0  0
   -2.7503   -0.7225    0.0000 N   0  0  0  0  0  0  0  0  0  0  0  0
    0.1076   -0.7225    0.0000 C   0  0  0  0  0  0  0  0  0  0  0  0
    0.8221   -0.3100    0.0000 C   0  0  0  0  0  0  0  0  0  0  0  0
    1.5365   -0.7225    0.0000 N   0  0  0  0  0  0  0  0  0  0  0  0
    2.2510   -0.3100    0.0000 C   0  0  0  0  0  0  0  0  0  0  0  0
    2.9655   -0.7225    0.0000 C   0  0  0  0  0  0  0  0  0  0  0  0
    3.7192   -0.3870    0.0000 C   0  0  0  0  0  0  0  0  0  0  0  0
    4.2712   -1.0001    0.0000 C   0  0  0  0  0  0  0  0  0  0  0  0
    3.8587   -1.7145    0.0000 O   0  0  0  0  0  0  0  0  0  0  0  0
    3.0517   -1.5430    0.0000 C   0  0  0  0  0  0  0  0  0  0  0  0
    2.2510    0.5150    0.0000 O   0  0  0  0  0  0  0  0  0  0  0  0
   -3.4648    0.5150    0.0000 F   0  0  0  0  0  0  0  0  0  0  0  0
  1  2  2  0
  1  6  1  0
  2  3  1  0
  3  4  2  0
  3 23  1  0
  4  5  1  0
  4 11  1  0
  5  6  2  0
  5  8  1  0
  6  7  1  0
  8  9  1  0
  9 10  1  0
  9 13  1  1
 10 11  2  0
 11 12  1  0
 13 14  1  0
 14 15  1  0
 15 16  1  0
 16 17  1  0
 16 22  2  0
 17 18  1  0
 17 21  2  0
 18 19  2  0
 19 20  1  0
 20 21  1  0
M  END
>  <DRUGBANK_ID>  (1) 
DB07318

>  <COMMON_NAME>  (1) 
N-[2-(4-AMINO-5,8-DIFLUORO-1,2-DIHYDROQUINAZOLIN-2-YL)ETHYL]-3-FURAMIDE

$$$$
