
     RDKit          2D

 40 44  0  0  0  0  0  0  0  0999 V2000
   -1.5439    1.0230    0.0000 O   0  0  0  0  0  0  0  0  0  0  0  0
   -1.9019    0.2797    0.0000 C   0  0  0  0  0  0  0  0  0  0  0  0
   -2.7246    0.2180    0.0000 N   0  0  0  0  0  0  0  0  0  0  0  0
   -3.1893    0.8997    0.0000 C   0  0  0  0  0  0  0  0  0  0  0  0
   -1.4372   -0.4019    0.0000 C   0  0  0  0  0  0  0  0  0  0  0  0
   -1.7951   -1.1452    0.0000 C   0  0  0  0  0  0  0  0  0  0  0  0
   -2.6178   -1.2068    0.0000 C   0  0  0  0  0  0  0  0  0  0  0  0
   -2.9758   -1.9502    0.0000 C   0  0  0  0  0  0  0  0  0  0  0  0
   -3.7985   -2.0118    0.0000 C   0  0  0  0  0  0  0  0  0  0  0  0
   -4.1564   -2.7551    0.0000 C   0  0  0  0  0  0  0  0  0  0  0  0
   -4.9791   -2.8167    0.0000 C   0  0  0  0  0  0  0  0  0  0  0  0
   -5.4438   -2.1351    0.0000 C   0  0  0  0  0  0  0  0  0  0  0  0
   -5.0859   -1.3919    0.0000 C   0  0  0  0  0  0  0  0  0  0  0  0
   -4.2632   -1.3301    0.0000 C   0  0  0  0  0  0  0  0  0  0  0  0
   -3.9052   -0.5868    0.0000 C   0  0  0  0  0  0  0  0  0  0  0  0
   -3.0826   -0.5252    0.0000 C   0  0  0  0  0  0  0  0  0  0  0  0
   -0.6145   -0.3402    0.0000 N   0  0  0  0  0  0  0  0  0  0  0  0
   -0.2020   -1.0547    0.0000 C   0  0  0  0  0  0  0  0  0  0  0  0
    0.6137   -1.1777    0.0000 C   0  0  0  0  0  0  0  0  0  0  0  0
    1.2185   -0.6165    0.0000 C   0  0  0  0  0  0  0  0  0  0  0  0
    1.9865   -0.9179    0.0000 O   0  0  0  0  0  0  0  0  0  0  0  0
    1.1568    0.2061    0.0000 N   0  0  0  0  0  0  0  0  0  0  0  0
    0.4752    0.6708    0.0000 C   0  0  0  0  0  0  0  0  0  0  0  0
    0.5981    1.4866    0.0000 C   0  0  0  0  0  0  0  0  0  0  0  0
   -0.0468    2.0010    0.0000 C   0  0  0  0  0  0  0  0  0  0  0  0
   -0.8147    1.6996    0.0000 C   0  0  0  0  0  0  0  0  0  0  0  0
    0.0761    2.8168    0.0000 C   0  0  0  0  0  0  0  0  0  0  0  0
   -0.3131    0.4277    0.0000 C   0  0  0  0  0  0  0  0  0  0  0  0
   -0.8742    1.0324    0.0000 O   0  0  0  0  0  0  0  0  0  0  0  0
    1.8713    0.6186    0.0000 C   0  0  0  0  0  0  0  0  0  0  0  0
    2.5858    0.2061    0.0000 C   0  0  0  0  0  0  0  0  0  0  0  0
    3.3002    0.6186    0.0000 C   0  0  0  0  0  0  0  0  0  0  0  0
    4.0147    0.2061    0.0000 C   0  0  0  0  0  0  0  0  0  0  0  0
    4.7292    0.6186    0.0000 C   0  0  0  0  0  0  0  0  0  0  0  0
    5.4438    0.2061    0.0000 C   0  0  0  0  0  0  0  0  0  0  0  0
    5.4438   -0.6188    0.0000 C   0  0  0  0  0  0  0  0  0  0  0  0
    4.7292   -1.0313    0.0000 C   0  0  0  0  0  0  0  0  0  0  0  0
    4.0147   -0.6188    0.0000 C   0  0  0  0  0  0  0  0  0  0  0  0
    3.3002   -1.0313    0.0000 N   0  0  0  0  0  0  0  0  0  0  0  0
    2.5858   -0.6188    0.0000 C   0  0  0  0  0  0  0  0  0  0  0  0
  2  1  2  0
  2  3  1  0
  4  3  1  0
  5  2  1  0
  5  6  1  1
  5 17  1  0
  6  7  1  0
  7  8  2  0
  7 16  1  0
  9  8  1  0
  9 10  2  0
 10 11  1  0
 11 12  2  0
 12 13  1  0
 14  9  1  0
 14 13  2  0
 15 14  1  0
 16 15  2  0
 18 17  1  0
 18 19  1  0
 19 20  1  0
 20 21  2  0
 20 22  1  0
 23 22  1  0
 23 24  1  6
 24 25  1  0
 25 26  1  0
 25 27  1  0
 28 17  1  0
 28 23  1  0
 28 29  2  0
 30 22  1  0
 30 31  1  0
 31 32  2  0
 31 40  1  0
 33 32  1  0
 33 34  2  0
 34 35  1  0
 35 36  2  0
 36 37  1  0
 38 33  1  0
 38 37  2  0
 38 39  1  0
 40 39  2  0
M  END
>  <DRUGBANK_ID>  (1) 
DB04724

>  <COMMON_NAME>  (1) 
(S)-2-((S)-3-isobutyl-2,5-dioxo-4-quinolin-3-ylmethyl-[1,4]diazepan-1yl)-N-methyl-3-naphtalen-2-yl-propionamide

$$$$
