D9Z
     RDKit          2D

 16 17  0  0  0  0  0  0  0  0999 V2000
   -0.4726    2.6056    0.0000 O   0  0  0  0  0  0  0  0  0  0  0  0
   -0.4726    1.7806    0.0000 S   0  0  0  0  0  0  0  0  0  0  0  0
   -1.2976    1.7806    0.0000 O   0  0  0  0  0  0  0  0  0  0  0  0
    0.3524    1.7806    0.0000 N   0  0  0  0  0  0  0  0  0  0  0  0
   -0.4726    0.9556    0.0000 C   0  0  0  0  0  0  0  0  0  0  0  0
    0.1948    0.4707    0.0000 S   0  0  0  0  0  0  0  0  0  0  0  0
   -1.1400    0.4707    0.0000 N   0  0  0  0  0  0  0  0  0  0  0  0
   -0.8851   -0.3139    0.0000 N   0  0  0  0  0  0  0  0  0  0  0  0
   -0.0601   -0.3139    0.0000 C   0  0  0  0  0  0  0  0  0  0  0  0
    0.4248   -0.9814    0.0000 C   0  0  0  0  0  0  0  0  0  0  0  0
    1.2453   -0.8951    0.0000 C   0  0  0  0  0  0  0  0  0  0  0  0
    0.0893   -1.7350    0.0000 C   0  0  0  0  0  0  0  0  0  0  0  0
    0.5742   -2.4025    0.0000 C   0  0  0  0  0  0  0  0  0  0  0  0
    1.3947   -2.3162    0.0000 C   0  0  0  0  0  0  0  0  0  0  0  0
    1.7302   -1.5626    0.0000 C   0  0  0  0  0  0  0  0  0  0  0  0
   -0.7312   -1.8213    0.0000 Cl  0  0  0  0  0  0  0  0  0  0  0  0
  1  2  2  0
  2  3  2  0
  2  4  1  0
  2  5  1  0
  5  6  1  0
  5  7  2  0
  6  9  1  0
  7  8  1  0
  8  9  2  0
  9 10  1  0
 10 11  2  0
 10 12  1  0
 11 15  1  0
 12 13  2  0
 12 16  1  0
 13 14  1  0
 14 15  2  0
M  END
>  <DRUGBANK_ID>  (1) 
DB07632

>  <COMMON_NAME>  (1) 
5-(2-chlorophenyl)-1,3,4-thiadiazole-2-sulfonamide

>  <UNII>  (1) 
J1RC4Y1VF0

$$$$
