
     RDKit          2D

 11 11  0  0  0  0  0  0  0  0999 V2000
    1.1824   -1.7862    0.0000 O   0  0  0  0  0  0  0  0  0  0  0  0
    0.7679   -1.0716    0.0000 C   0  0  0  0  0  0  0  0  0  0  0  0
    1.1824   -0.3571    0.0000 C   0  0  0  0  0  0  0  0  0  0  0  0
    0.7679    0.3572    0.0000 C   0  0  0  0  0  0  0  0  0  0  0  0
   -0.0571    0.3572    0.0000 C   0  0  0  0  0  0  0  0  0  0  0  0
   -0.4680   -0.3571    0.0000 C   0  0  0  0  0  0  0  0  0  0  0  0
   -0.0571   -1.0716    0.0000 C   0  0  0  0  0  0  0  0  0  0  0  0
   -0.4680    1.0717    0.0000 C   0  0  0  0  0  0  0  0  0  0  0  0
    0.2464    1.4860    0.0000 F   0  0  0  0  0  0  0  0  0  0  0  0
   -1.1824    0.6608    0.0000 F   0  0  0  0  0  0  0  0  0  0  0  0
   -0.8788    1.7862    0.0000 F   0  0  0  0  0  0  0  0  0  0  0  0
  1  2  1  0
  2  3  2  0
  2  7  1  0
  3  4  1  0
  4  5  2  0
  5  6  1  0
  5  8  1  0
  6  7  2  0
  8  9  1  0
  8 10  1  0
  8 11  1  0
M  END
>  <DRUGBANK_ID>  (1) 
DB03610

>  <SECONDARY_ACCESSION_NUMBERS>  (1) 
EXPT01405

>  <COMMON_NAME>  (1) 
4-(trifluoromethyl)phenol

>  <CAS_NUMBER>  (1) 
402-45-9

>  <UNII>  (1) 
G8PMO13PO4

>  <SYNONYMS>  (1) 
4-hydroxybenzotrifluoride; 4-trifluoromethylphenol; α,α,α-trifluoro-p-cresol

$$$$
