
     RDKit          2D

 10 11  0  0  0  0  0  0  0  0999 V2000
   -0.1435   -1.3654    0.0000 C   0  0  0  0  0  0  0  0  0  0  0  0
    0.6411   -1.1104    0.0000 C   0  0  0  0  0  0  0  0  0  0  0  0
    0.6411   -0.2854    0.0000 C   0  0  0  0  0  0  0  0  0  0  0  0
    1.3556    0.1271    0.0000 N   0  0  0  0  0  0  0  0  0  0  0  0
    2.0701   -0.2854    0.0000 C   0  0  0  0  0  0  0  0  0  0  0  0
    2.0701   -1.1104    0.0000 N   0  0  0  0  0  0  0  0  0  0  0  0
    1.3556   -1.5229    0.0000 C   0  0  0  0  0  0  0  0  0  0  0  0
    1.3556   -2.3479    0.0000 S   0  0  0  0  0  0  0  0  0  0  0  0
   -0.1435   -0.0305    0.0000 N   0  0  0  0  0  0  0  0  0  0  0  0
   -0.6284   -0.6979    0.0000 N   0  0  0  0  0  0  0  0  0  0  0  0
  1  2  1  0
  1 10  2  0
  2  3  2  0
  2  7  1  0
  3  4  1  0
  3  9  1  0
  4  5  1  0
  5  6  2  0
  6  7  1  0
  7  8  2  0
  9 10  1  0
M  END
>  <DRUGBANK_ID>  (1) 
DB13807

>  <COMMON_NAME>  (1) 
Tisopurine

>  <CAS_NUMBER>  (1) 
5334-23-6

>  <UNII>  (1) 
79F9I2R16M

>  <SYNONYMS>  (1) 
Tisopurine

$$$$
