
     RDKit          2D

 10  9  0  0  1  0  0  0  0  0999 V2000
   -0.2211   -1.4289    0.0000 C   0  0  0  0  0  0  0  0  0  0  0  0
   -0.9355   -1.0164    0.0000 C   0  0  0  0  0  0  0  0  0  0  0  0
   -1.6500   -1.4289    0.0000 C   0  0  0  0  0  0  0  0  0  0  0  0
    1.2079   -1.4289    0.0000 As  0  0  0  0  0  3  0  0  0  0  0  0
   -0.9355   -0.1914    0.0000 N   0  0  0  0  0  0  0  0  0  0  0  0
   -2.3645   -1.0164    0.0000 O   0  0  0  0  0  0  0  0  0  0  0  0
   -1.6500   -2.2539    0.0000 O   0  0  0  0  0  0  0  0  0  0  0  0
    1.9224   -1.0164    0.0000 O   0  0  0  0  0  0  0  0  0  0  0  0
    1.2079   -2.2539    0.0000 O   0  0  0  0  0  0  0  0  0  0  0  0
    0.4934   -1.0164    0.0000 S   0  0  0  0  0  0  0  0  0  0  0  0
  2  1  1  0
  2  5  1  1
  3  2  1  0
  6  3  2  0
  7  3  1  0
  8  4  1  0
  9  4  1  0
 10  1  1  0
 10  4  1  0
M  END
>  <DRUGBANK_ID>  (1) 
DB03289

>  <SECONDARY_ACCESSION_NUMBERS>  (1) 
EXPT01083

>  <COMMON_NAME>  (1) 
Thiarsa Dihydroxy Cysteine

$$$$
