
     RDKit          2D

 21 23  0  0  1  0  0  0  0  0999 V2000
    1.5666   -2.3201    0.0000 O   0  0  0  0  0  0  0  0  0  0  0  0
    1.0146   -1.7070    0.0000 C   0  0  0  0  0  0  0  0  0  0  0  0
    1.2695   -0.9224    0.0000 C   0  0  0  0  0  0  0  0  0  0  0  0
    0.7846   -0.2549    0.0000 O   0  0  0  0  0  0  0  0  0  0  0  0
    1.2695    0.4125    0.0000 C   0  0  0  0  0  0  0  0  0  0  0  0
    2.0542    0.1576    0.0000 C   0  0  0  0  0  0  0  0  0  0  0  0
    2.8388    0.4125    0.0000 O   0  0  0  0  0  0  0  0  0  0  0  0
    3.3237   -0.2549    0.0000 V   0  0  0  0  0  6  0  0  0  0  0  0
    3.6983    0.4801    0.0000 O   0  0  0  0  0  0  0  0  0  0  0  0
    4.1487   -0.2549    0.0000 O   0  0  0  0  0  0  0  0  0  0  0  0
    3.6983   -0.9900    0.0000 O   0  0  0  0  0  0  0  0  0  0  0  0
    2.8388   -0.9224    0.0000 O   0  0  0  0  0  0  0  0  0  0  0  0
    2.0542   -0.6674    0.0000 C   0  0  0  0  0  0  0  0  0  0  0  0
    1.0146    1.1971    0.0000 N   0  0  0  0  0  0  0  0  0  0  0  0
    0.2076    1.3686    0.0000 C   0  0  0  0  0  0  0  0  0  0  0  0
   -0.0473    2.1533    0.0000 C   0  0  0  0  0  0  0  0  0  0  0  0
    0.5047    2.7664    0.0000 C   0  0  0  0  0  0  0  0  0  0  0  0
    0.2498    3.5510    0.0000 O   0  0  0  0  0  0  0  0  0  0  0  0
    1.3117    2.5948    0.0000 N   0  0  0  0  0  0  0  0  0  0  0  0
    1.5666    1.8102    0.0000 C   0  0  0  0  0  0  0  0  0  0  0  0
    2.3736    1.6387    0.0000 O   0  0  0  0  0  0  0  0  0  0  0  0
  1  2  1  0
  3  2  1  6
  3  4  1  0
  3 13  1  0
  4  5  1  0
  5  6  1  0
  5 14  1  1
  6  7  1  1
  6 13  1  0
  7  8  1  0
  8  9  1  0
  8 10  1  0
  8 11  2  0
  8 12  1  0
 13 12  1  6
 14 15  1  0
 14 20  1  0
 15 16  2  0
 16 17  1  0
 17 18  2  0
 17 19  1  0
 19 20  1  0
 20 21  2  0
M  END
>  <DRUGBANK_ID>  (1) 
DB03512

>  <SECONDARY_ACCESSION_NUMBERS>  (1) 
EXPT03211

>  <COMMON_NAME>  (1) 
Uridine-2',3'-vanadate

$$$$
