
     RDKit          2D

 37 40  0  0  0  0  0  0  0  0999 V2000
   -2.3805   -1.1587    0.0000 C   0  0  0  0  0  0  0  0  0  0  0  0
   -3.0949   -1.5712    0.0000 C   0  0  0  0  0  0  0  0  0  0  0  0
   -0.9515   -2.8087    0.0000 C   0  0  0  0  0  0  0  0  0  0  0  0
   -0.2371   -2.3962    0.0000 C   0  0  0  0  0  0  0  0  0  0  0  0
   -1.6660   -1.5712    0.0000 C   0  0  0  0  0  0  0  0  0  0  0  0
   -0.2371    0.0787    0.0000 C   0  0  0  0  0  0  0  0  0  0  0  0
    1.2619   -1.4136    0.0000 C   0  0  0  0  0  0  0  0  0  0  0  0
   -1.6660   -0.7462    0.0000 C   0  0  0  0  0  0  0  0  0  0  0  0
   -0.9515   -1.1587    0.0000 C   0  0  0  0  0  0  0  0  0  0  0  0
   -0.2371   -1.5712    0.0000 C   0  0  0  0  0  0  0  0  0  0  0  0
    0.4773   -1.1587    0.0000 C   0  0  0  0  0  0  0  0  0  0  0  0
    0.4773   -0.3337    0.0000 C   0  0  0  0  0  0  0  0  0  0  0  0
   -0.2371   -0.7462    0.0000 C   0  0  0  0  0  0  0  0  0  0  0  0
    0.4773   -1.9837    0.0000 C   0  0  0  0  0  0  0  0  0  0  0  0
   -1.6660   -2.3962    0.0000 C   0  0  0  0  0  0  0  0  0  0  0  0
   -3.0949   -2.3962    0.0000 C   0  0  0  0  0  0  0  0  0  0  0  0
   -3.8094   -2.8087    0.0000 O   0  0  0  0  0  0  0  0  0  0  0  0
   -2.3805   -2.8087    0.0000 C   0  0  0  0  0  0  0  0  0  0  0  0
   -2.3805   -3.6337    0.0000 C   0  0  0  0  0  0  0  0  0  0  0  0
    1.7469   -0.7462    0.0000 C   0  0  0  0  0  0  0  0  0  0  0  0
    2.5719   -0.7462    0.0000 O   0  0  0  0  0  0  0  0  0  0  0  0
    3.8094   -1.4607    0.0000 C   0  0  0  0  0  0  0  0  0  0  0  0
    2.9844   -1.4607    0.0000 C   0  0  0  0  0  0  0  0  0  0  0  0
    2.5719   -2.1751    0.0000 O   0  0  0  0  0  0  0  0  0  0  0  0
    1.2619   -0.0788    0.0000 C   0  0  0  0  0  0  0  0  0  0  0  0
   -0.9515   -0.3337    0.0000 C   0  0  0  0  0  0  0  0  0  0  0  0
    1.2619    0.7461    0.0000 C   0  0  0  0  0  0  0  0  0  0  0  0
    1.9764    1.9837    0.0000 O   0  0  0  0  0  0  0  0  0  0  0  0
    1.9764    1.1587    0.0000 C   0  0  0  0  0  0  0  0  0  0  0  0
    2.6908    0.7461    0.0000 O   0  0  0  0  0  0  0  0  0  0  0  0
    0.5474    1.1587    0.0000 C   0  0  0  0  0  0  0  0  0  0  0  0
    0.5474    1.9837    0.0000 C   0  0  0  0  0  0  0  0  0  0  0  0
    1.2619    2.3962    0.0000 C   0  0  0  0  0  0  0  0  0  0  0  0
    0.5474    3.6337    0.0000 C   0  0  0  0  0  0  0  0  0  0  0  0
    1.2619    3.2212    0.0000 C   0  0  0  0  0  0  0  0  0  0  0  0
    1.9763    3.6337    0.0000 C   0  0  0  0  0  0  0  0  0  0  0  0
   -1.6660    0.0787    0.0000 O   0  0  0  0  0  0  0  0  0  0  0  0
  2  1  1  0
  3  4  1  0
  5 15  1  0
  5  8  1  1
  5  1  1  0
  9 26  1  6
  9  5  1  0
 10  9  1  0
 10  4  1  0
 10 13  1  6
 11 12  1  0
 11 10  1  0
 11  7  1  0
 11 14  1  1
 12 25  1  0
 12  6  1  1
 15 18  1  0
 15  3  1  1
 16 18  1  0
 16  2  1  0
 16 17  1  6
 18 19  1  6
 20 25  1  0
 20  7  1  0
 20 21  1  1
 21 23  1  0
 23 22  1  0
 23 24  2  0
 25 27  2  0
 26  6  1  0
 26 37  1  6
 27 31  1  0
 27 29  1  0
 29 28  2  0
 29 30  1  0
 31 32  1  0
 32 33  1  0
 33 35  2  3
 35 34  1  0
 35 36  1  0
M  END
>  <DRUGBANK_ID>  (1) 
DB02703

>  <SECONDARY_ACCESSION_NUMBERS>  (1) 
EXPT01507

>  <COMMON_NAME>  (1) 
Fusidic acid

>  <CAS_NUMBER>  (1) 
6990-06-3

>  <UNII>  (1) 
59XE10C19C

>  <SYNONYMS>  (1) 
Acide fusidique; Acido fusidico; Acidum fusidicum; Fucidate; Fucidin acid; Fusidate; Fusidic acid; Fusidine; Ramycin

$$$$
