
     RDKit          2D

 32 37  0  0  0  0  0  0  0  0999 V2000
   -2.4735    3.1072    0.0000 C   0  0  0  0  0  0  0  0  0  0  0  0
   -1.7033    2.8115    0.0000 C   0  0  0  0  0  0  0  0  0  0  0  0
   -0.9331    2.5159    0.0000 C   0  0  0  0  0  0  0  0  0  0  0  0
   -1.2288    1.7457    0.0000 C   0  0  0  0  0  0  0  0  0  0  0  0
   -1.9990    2.0413    0.0000 C   0  0  0  0  0  0  0  0  0  0  0  0
   -0.8932    0.9920    0.0000 C   0  0  0  0  0  0  0  0  0  0  0  0
   -1.3057    0.2775    0.0000 N   0  0  0  0  0  0  0  0  0  0  0  0
   -0.7537   -0.3356    0.0000 C   0  0  0  0  0  0  0  0  0  0  0  0
   -1.0086   -1.1202    0.0000 C   0  0  0  0  0  0  0  0  0  0  0  0
   -1.8156   -1.2917    0.0000 N   0  0  0  0  0  0  0  0  0  0  0  0
   -2.3676   -0.6786    0.0000 C   0  0  0  0  0  0  0  0  0  0  0  0
   -2.1127    0.1060    0.0000 C   0  0  0  0  0  0  0  0  0  0  0  0
   -0.4566   -1.7333    0.0000 N   0  0  0  0  0  0  0  0  0  0  0  0
    0.0000    0.0000    0.0000 C   0  0  0  0  0  0  0  0  0  0  0  0
   -0.0862    0.8205    0.0000 N   0  0  0  0  0  0  0  0  0  0  0  0
    0.7145   -0.4125    0.0000 C   0  0  0  0  0  0  0  0  0  0  0  0
    1.4289    0.0000    0.0000 C   0  0  0  0  0  0  0  0  0  0  0  0
    2.1434   -0.4125    0.0000 C   0  0  0  0  0  0  0  0  0  0  0  0
    2.8579    0.0000    0.0000 N   0  0  0  0  0  0  0  0  0  0  0  0
    3.5724   -0.4125    0.0000 C   0  0  0  0  0  0  0  0  0  0  0  0
    3.5724   -1.2375    0.0000 C   0  0  0  0  0  0  0  0  0  0  0  0
    2.8579   -1.6500    0.0000 C   0  0  0  0  0  0  0  0  0  0  0  0
    2.1434   -1.2375    0.0000 C   0  0  0  0  0  0  0  0  0  0  0  0
    1.4289   -1.6500    0.0000 C   0  0  0  0  0  0  0  0  0  0  0  0
    0.7145   -1.2375    0.0000 C   0  0  0  0  0  0  0  0  0  0  0  0
    4.2868   -0.0000    0.0000 C   0  0  0  0  0  0  0  0  0  0  0  0
    4.2868    0.8250    0.0000 C   0  0  0  0  0  0  0  0  0  0  0  0
    5.0013    1.2375    0.0000 C   0  0  0  0  0  0  0  0  0  0  0  0
    5.7158    0.8250    0.0000 C   0  0  0  0  0  0  0  0  0  0  0  0
    5.7158   -0.0000    0.0000 C   0  0  0  0  0  0  0  0  0  0  0  0
    5.0013   -0.4125    0.0000 C   0  0  0  0  0  0  0  0  0  0  0  0
   -1.4077    3.5817    0.0000 O   0  0  0  0  0  0  0  0  0  0  0  0
  2  1  1  1
  2  3  1  0
  2  5  1  0
  2 32  1  0
  4  3  1  0
  4  5  1  0
  4  6  1  6
  6  7  1  0
  6 15  2  0
  7  8  1  0
  7 12  1  0
  8  9  1  0
  8 14  2  0
  9 10  2  0
  9 13  1  0
 10 11  1  0
 11 12  2  0
 14 15  1  0
 14 16  1  0
 16 17  2  0
 16 25  1  0
 17 18  1  0
 18 19  2  0
 18 23  1  0
 19 20  1  0
 20 21  2  0
 20 26  1  0
 21 22  1  0
 22 23  2  0
 23 24  1  0
 24 25  2  0
 26 27  2  0
 26 31  1  0
 27 28  1  0
 28 29  2  0
 29 30  1  0
 30 31  2  0
M  END
>  <DRUGBANK_ID>  (1) 
DB06075

>  <COMMON_NAME>  (1) 
Linsitinib

>  <CAS_NUMBER>  (1) 
867160-71-2

>  <UNII>  (1) 
15A52GPT8T

>  <SYNONYMS>  (1) 
Linsitinib

$$$$
