P2C
     RDKit          2D

 21 22  0  0  0  0  0  0  0  0999 V2000
    0.1779    2.5801    0.0000 Cl  0  0  0  0  0  0  0  0  0  0  0  0
    0.1779    1.7551    0.0000 C   0  0  0  0  0  0  0  0  0  0  0  0
    0.8924    1.3426    0.0000 C   0  0  0  0  0  0  0  0  0  0  0  0
    1.6069    1.7551    0.0000 O   0  0  0  0  0  0  0  0  0  0  0  0
    1.6069    2.5801    0.0000 O   0  0  0  0  0  0  0  0  0  0  0  0
    2.3213    2.9926    0.0000 O   0  0  0  0  0  0  0  0  0  0  0  0
    0.8924    0.5176    0.0000 C   0  0  0  0  0  0  0  0  0  0  0  0
    1.6069    0.1051    0.0000 Cl  0  0  0  0  0  0  0  0  0  0  0  0
    0.1779    0.1051    0.0000 C   0  0  0  0  0  0  0  0  0  0  0  0
   -0.5365    1.3426    0.0000 C   0  0  0  0  0  0  0  0  0  0  0  0
   -0.5365    0.5176    0.0000 C   0  0  0  0  0  0  0  0  0  0  0  0
   -1.2510    0.1051    0.0000 N   0  0  0  0  0  0  0  0  0  0  0  0
   -1.2510   -0.7199    0.0000 C   0  0  0  0  0  0  0  0  0  0  0  0
   -0.5365   -1.1324    0.0000 C   0  0  0  0  0  0  0  0  0  0  0  0
   -0.5365   -1.9574    0.0000 C   0  0  0  0  0  0  0  0  0  0  0  0
   -1.2510   -2.3699    0.0000 C   0  0  0  0  0  0  0  0  0  0  0  0
   -1.9655   -1.9574    0.0000 C   0  0  0  0  0  0  0  0  0  0  0  0
   -1.9655   -1.1324    0.0000 C   0  0  0  0  0  0  0  0  0  0  0  0
   -2.6800   -0.7199    0.0000 C   0  0  0  0  0  0  0  0  0  0  0  0
   -3.3944   -1.1324    0.0000 O   0  0  0  0  0  0  0  0  0  0  0  0
   -2.6800    0.1051    0.0000 O   0  0  0  0  0  0  0  0  0  0  0  0
  1  2  1  0
  2  3  2  0
  2 10  1  0
  3  4  1  0
  3  7  1  0
  4  5  1  0
  5  6  1  0
  7  8  1  0
  7  9  2  0
  9 11  1  0
 10 11  2  0
 11 12  1  0
 12 13  1  0
 13 14  2  0
 13 18  1  0
 14 15  1  0
 15 16  2  0
 16 17  1  0
 17 18  2  0
 18 19  1  0
 19 20  2  0
 19 21  1  0
M  END
>  <DRUGBANK_ID>  (1) 
DB04756

>  <COMMON_NAME>  (1) 
2-[(3,5-Dichloro-4-trioxidanylphenyl)amino]benzoic acid

$$$$
