
     RDKit          2D

 32 34  0  0  1  0  0  0  0  0999 V2000
    2.9208   -5.5313    0.0000 C   0  0  0  0  0  0  0  0  0  0  0  0
    2.5083   -4.8168    0.0000 C   0  0  0  0  0  0  0  0  0  0  0  0
    1.6833   -4.8168    0.0000 C   0  0  0  0  0  0  0  0  0  0  0  0
    2.9208   -4.1023    0.0000 C   0  0  0  0  0  0  0  0  0  0  0  0
    3.7458   -4.1023    0.0000 C   0  0  0  0  0  0  0  0  0  0  0  0
    4.1583   -3.3879    0.0000 N   0  0  0  0  0  0  0  0  0  0  0  0
    3.8228   -2.6342    0.0000 C   0  0  0  0  0  0  0  0  0  0  0  0
    4.4359   -2.0821    0.0000 C   0  0  0  0  0  0  0  0  0  0  0  0
    4.3496   -1.2617    0.0000 O   0  0  0  0  0  0  0  0  0  0  0  0
    5.0171   -0.7767    0.0000 C   0  0  0  0  0  0  0  0  0  0  0  0
    4.9308    0.0437    0.0000 C   0  0  0  0  0  0  0  0  0  0  0  0
    4.1772    0.3793    0.0000 Cl  0  0  0  0  0  0  0  0  0  0  0  0
    5.5983    0.5287    0.0000 C   0  0  0  0  0  0  0  0  0  0  0  0
    6.3520    0.1931    0.0000 C   0  0  0  0  0  0  0  0  0  0  0  0
    6.4382   -0.6274    0.0000 C   0  0  0  0  0  0  0  0  0  0  0  0
    5.7708   -1.1123    0.0000 C   0  0  0  0  0  0  0  0  0  0  0  0
    5.1504   -2.4946    0.0000 C   0  0  0  0  0  0  0  0  0  0  0  0
    4.9788   -3.3016    0.0000 C   0  0  0  0  0  0  0  0  0  0  0  0
    5.5309   -3.9147    0.0000 O   0  0  0  0  0  0  0  0  0  0  0  0
    4.1583   -4.8168    0.0000 C   0  0  0  0  0  0  0  0  0  0  0  0
    3.7458   -5.5313    0.0000 O   0  0  0  0  0  0  0  0  0  0  0  0
    4.9833   -4.8168    0.0000 N   0  0  0  0  0  0  0  0  0  0  0  0
    5.3958   -5.5313    0.0000 C   0  0  0  0  0  0  0  0  0  0  0  0
    6.2163   -5.6175    0.0000 N   0  0  0  0  0  0  0  0  0  0  0  0
    6.3879   -6.4245    0.0000 N   0  0  0  0  0  0  0  0  0  0  0  0
    7.1415   -6.7600    0.0000 C   0  0  0  0  0  0  0  0  0  0  0  0
    7.8090   -6.2751    0.0000 C   0  0  0  0  0  0  0  0  0  0  0  0
    7.7227   -5.4546    0.0000 O   0  0  0  0  0  0  0  0  0  0  0  0
    8.5626   -6.6107    0.0000 C   0  0  0  0  0  0  0  0  0  0  0  0
    9.2301   -6.1257    0.0000 O   0  0  0  0  0  0  0  0  0  0  0  0
    5.6734   -6.8370    0.0000 C   0  0  0  0  0  0  0  0  0  0  0  0
    5.0603   -6.2849    0.0000 C   0  0  0  0  0  0  0  0  0  0  0  0
  1  2  1  0
  2  3  1  0
  2  4  1  0
  5  4  1  6
  5  6  1  0
  5 20  1  0
  6  7  1  0
  6 18  1  0
  7  8  1  0
  8  9  1  0
  8 17  2  0
  9 10  1  0
 10 11  2  0
 10 16  1  0
 11 12  1  0
 11 13  1  0
 13 14  2  0
 14 15  1  0
 15 16  2  0
 17 18  1  0
 18 19  2  0
 20 21  2  0
 20 22  1  0
 22 23  1  0
 23 24  2  0
 23 32  1  0
 24 25  1  0
 25 26  1  0
 25 31  1  0
 27 26  1  0
 27 28  1  1
 27 29  1  0
 29 30  1  0
 31 32  2  0
M  END
>  <DRUGBANK_ID>  (1) 
DB15123

>  <COMMON_NAME>  (1) 
Dorzagliatin

>  <CAS_NUMBER>  (1) 
1191995-00-2

>  <UNII>  (1) 
X59W6980E8

>  <SYNONYMS>  (1) 
Dorzagliatin

$$$$
