
     RDKit          2D

 28 28  0  0  0  0  0  0  0  0999 V2000
    2.4702    4.4591    0.0000 F   0  0  0  0  0  0  0  0  0  0  0  0
    1.7558    0.7466    0.0000 O   0  0  0  0  0  0  0  0  0  0  0  0
   -0.3876   -1.3158    0.0000 O   0  0  0  0  0  0  0  0  0  0  0  0
   -1.1020   -0.0783    0.0000 O   0  0  0  0  0  0  0  0  0  0  0  0
    1.0413    3.6341    0.0000 O   0  0  0  0  0  0  0  0  0  0  0  0
    0.3268   -0.0783    0.0000 N   0  0  0  0  0  0  0  0  0  0  0  0
    1.0413    1.9841    0.0000 N   0  0  0  0  0  0  0  0  0  0  0  0
   -1.1020    3.2216    0.0000 N   0  0  0  0  0  0  0  0  0  0  0  0
   -1.8165    4.4591    0.0000 N   0  0  0  0  0  0  0  0  0  0  0  0
   -2.5310    3.2216    0.0000 N   0  0  0  0  0  0  0  0  0  0  0  0
   -0.3876    1.1591    0.0000 C   0  0  0  0  0  0  0  0  0  0  0  0
    0.3268    0.7466    0.0000 C   0  0  0  0  0  0  0  0  0  0  0  0
   -0.3876    1.9841    0.0000 C   0  0  0  0  0  0  0  0  0  0  0  0
   -1.1020    2.3966    0.0000 C   0  0  0  0  0  0  0  0  0  0  0  0
    1.0413    1.1591    0.0000 C   0  0  0  0  0  0  0  0  0  0  0  0
    1.7558    2.3966    0.0000 C   0  0  0  0  0  0  0  0  0  0  0  0
   -1.8165    3.6341    0.0000 C   0  0  0  0  0  0  0  0  0  0  0  0
    2.4702    1.9841    0.0000 C   0  0  0  0  0  0  0  0  0  0  0  0
   -0.3876   -0.4908    0.0000 C   0  0  0  0  0  0  0  0  0  0  0  0
    1.7558    3.2216    0.0000 C   0  0  0  0  0  0  0  0  0  0  0  0
    2.4702    3.6341    0.0000 C   0  0  0  0  0  0  0  0  0  0  0  0
   -1.1020   -1.7283    0.0000 C   0  0  0  0  0  0  0  0  0  0  0  0
   -1.1020   -2.5533    0.0000 C   0  0  0  0  0  0  0  0  0  0  0  0
   -1.8165   -2.9658    0.0000 C   0  0  0  0  0  0  0  0  0  0  0  0
   -0.3876   -2.9658    0.0000 C   0  0  0  0  0  0  0  0  0  0  0  0
   -1.8165   -3.7908    0.0000 C   0  0  0  0  0  0  0  0  0  0  0  0
   -0.3876   -3.7908    0.0000 C   0  0  0  0  0  0  0  0  0  0  0  0
   -1.1020   -4.2033    0.0000 C   0  0  0  0  0  0  0  0  0  0  0  0
  1 21  1  0
  2 15  2  0
  3 19  1  0
  3 22  1  0
  4 19  2  0
  5 20  2  0
  6 19  1  0
  7 15  1  0
  8 14  1  0
  8 17  1  0
  9 17  1  0
 10 17  1  0
 12 11  1  1
 11 13  1  0
 12  6  1  0
 12 15  1  0
 13 14  1  0
 16  7  1  0
 16 18  1  6
 16 20  1  0
 20 21  1  0
 22 23  1  0
 23 24  2  0
 23 25  1  0
 24 26  1  0
 25 27  2  0
 26 28  2  0
 27 28  1  0
M  END
>  <DRUGBANK_ID>  (1) 
DB03536

>  <SECONDARY_ACCESSION_NUMBERS>  (1) 
EXPT03294

>  <COMMON_NAME>  (1) 
Benzyl N-[(2S)-5-(diaminomethylamino)-1-[[(2S)-4-fluoro-3-oxobutan-2-yl]amino]-1-oxopentan-2-yl]carbamate

>  <SYNONYMS>  (1) 
Benzoyl-arginine-alanine-methyl ketone

$$$$
