
     RDKit          2D

 18 17  0  0  0  0  0  0  0  0999 V2000
   -1.4290    0.0000    0.0000 C   0  0  0  0  0  0  0  0  0  0  0  0
   -1.4290   -0.8249    0.0000 C   0  0  0  0  0  0  0  0  0  0  0  0
   -2.1436    0.4125    0.0000 C   0  0  0  0  0  0  0  0  0  0  0  0
   -2.1436   -1.2375    0.0000 C   0  0  0  0  0  0  0  0  0  0  0  0
   -2.8580    0.0000    0.0000 C   0  0  0  0  0  0  0  0  0  0  0  0
   -2.8580   -0.8249    0.0000 C   0  0  0  0  0  0  0  0  0  0  0  0
    0.0000    0.0000    0.0000 C   0  0  0  0  0  0  0  0  0  0  0  0
    0.0000   -0.8249    0.0000 C   0  0  0  0  0  0  0  0  0  0  0  0
   -0.7145    0.4125    0.0000 C   0  0  0  0  0  0  0  0  0  0  0  0
   -0.7145   -1.2375    0.0000 C   0  0  0  0  0  0  0  0  0  0  0  0
    1.4291    0.0000    0.0000 C   0  0  0  0  0  0  0  0  0  0  0  0
    1.4291   -0.8249    0.0000 C   0  0  0  0  0  0  0  0  0  0  0  0
    0.7144    0.4125    0.0000 C   0  0  0  0  0  0  0  0  0  0  0  0
    0.7144   -1.2375    0.0000 C   0  0  0  0  0  0  0  0  0  0  0  0
    2.1435    0.4125    0.0000 C   0  0  0  0  0  0  0  0  0  0  0  0
    2.1435   -1.2375    0.0000 C   0  0  0  0  0  0  0  0  0  0  0  0
    2.8580    0.0000    0.0000 O   0  0  0  0  0  0  0  0  0  0  0  0
    2.1435    1.2375    0.0000 O   0  0  0  0  0  0  0  0  0  0  0  0
  1  9  1  0
  2 10  1  0
  3  1  1  0
  4  2  1  0
  5  3  1  0
  6  4  1  0
  6  5  1  0
  7 13  1  0
  8 14  1  0
  9  7  1  0
 10  8  1  0
 11 15  1  0
 12 16  1  0
 13 11  1  0
 14 12  1  0
 15 17  1  0
 15 18  2  0
M  END
>  <DRUGBANK_ID>  (1) 
DB03796

>  <SECONDARY_ACCESSION_NUMBERS>  (1) 
EXPT01393; EXPT02607

>  <COMMON_NAME>  (1) 
Palmitic Acid

>  <CAS_NUMBER>  (1) 
57-10-3

>  <UNII>  (1) 
2V16EO95H1

>  <SYNONYMS>  (1) 
1-hexyldecanoic acid; 1-Pentadecanecarboxylic acid; Hexadecanoate; Hexadecanoic acid; Hexadecoic acid; Hexadecylic acid; Hexaectylic acid; Palmitate; Palmitic Acid; Palmitinic acid; Palmitins√§ure

$$$$
