
     RDKit          2D

 34 37  0  0  0  0  0  0  0  0999 V2000
   -2.9353    1.6847    0.0000 C   0  0  0  0  0  0  0  0  0  0  0  0
   -3.4656    1.0527    0.0000 C   0  0  0  0  0  0  0  0  0  0  0  0
   -4.1801    0.6402    0.0000 C   0  0  0  0  0  0  0  0  0  0  0  0
   -4.1801   -0.1848    0.0000 C   0  0  0  0  0  0  0  0  0  0  0  0
   -3.4656   -0.5973    0.0000 C   0  0  0  0  0  0  0  0  0  0  0  0
   -2.7512   -0.1848    0.0000 C   0  0  0  0  0  0  0  0  0  0  0  0
   -2.7512    0.6402    0.0000 C   0  0  0  0  0  0  0  0  0  0  0  0
   -3.4656   -1.4223    0.0000 C   0  0  0  0  0  0  0  0  0  0  0  0
   -2.7512   -1.8348    0.0000 C   0  0  0  0  0  0  0  0  0  0  0  0
   -2.7512   -2.6598    0.0000 C   0  0  0  0  0  0  0  0  0  0  0  0
   -3.4656   -3.0723    0.0000 C   0  0  0  0  0  0  0  0  0  0  0  0
   -4.1801   -2.6598    0.0000 C   0  0  0  0  0  0  0  0  0  0  0  0
   -4.1801   -1.8348    0.0000 N   0  0  0  0  0  0  0  0  0  0  0  0
   -4.8946   -3.0723    0.0000 C   0  0  0  0  0  0  0  0  0  0  0  0
   -4.8946   -3.8973    0.0000 C   0  0  0  0  0  0  0  0  0  0  0  0
   -5.6091   -4.3098    0.0000 C   0  0  0  0  0  0  0  0  0  0  0  0
   -6.3235   -3.8973    0.0000 O   0  0  0  0  0  0  0  0  0  0  0  0
   -6.3235   -3.0723    0.0000 C   0  0  0  0  0  0  0  0  0  0  0  0
   -5.6091   -2.6598    0.0000 C   0  0  0  0  0  0  0  0  0  0  0  0
   -7.1480   -3.0435    0.0000 C   0  0  0  0  0  0  0  0  0  0  0  0
   -6.7607   -2.3727    0.0000 C   0  0  0  0  0  0  0  0  0  0  0  0
   -5.2217   -5.0383    0.0000 C   0  0  0  0  0  0  0  0  0  0  0  0
   -5.9964   -5.0383    0.0000 C   0  0  0  0  0  0  0  0  0  0  0  0
   -2.0367   -1.4223    0.0000 N   0  0  0  0  0  0  0  0  0  0  0  0
   -1.3222   -1.8348    0.0000 C   0  0  0  0  0  0  0  0  0  0  0  0
   -0.6078   -1.4223    0.0000 O   0  0  0  0  0  0  0  0  0  0  0  0
   -1.3222   -2.6598    0.0000 C   0  0  0  0  0  0  0  0  0  0  0  0
   -0.6548   -3.1447    0.0000 N   0  0  0  0  0  0  0  0  0  0  0  0
   -0.9097   -3.9294    0.0000 C   0  0  0  0  0  0  0  0  0  0  0  0
   -1.7347   -3.9294    0.0000 C   0  0  0  0  0  0  0  0  0  0  0  0
   -1.9897   -3.1447    0.0000 N   0  0  0  0  0  0  0  0  0  0  0  0
   -0.4248   -4.5968    0.0000 C   0  0  0  0  0  0  0  0  0  0  0  0
    0.0601   -5.2642    0.0000 N   0  0  0  0  0  0  0  0  0  0  0  0
   -3.9959    1.6847    0.0000 C   0  0  0  0  0  0  0  0  0  0  0  0
  1  2  1  0
  2  3  1  0
  2  7  1  0
  2 34  1  0
  3  4  1  0
  4  5  1  0
  5  6  2  0
  5  8  1  0
  6  7  1  0
  8  9  1  0
  8 13  2  0
  9 10  2  0
  9 24  1  0
 10 11  1  0
 11 12  2  0
 12 13  1  0
 12 14  1  0
 14 15  1  0
 14 19  1  0
 15 16  1  0
 16 17  1  0
 16 22  1  0
 16 23  1  0
 17 18  1  0
 18 19  1  0
 18 20  1  0
 18 21  1  0
 24 25  1  0
 25 26  2  0
 25 27  1  0
 27 28  1  0
 27 31  2  0
 28 29  1  0
 29 30  2  0
 29 32  1  0
 30 31  1  0
 32 33  3  0
M  END
>  <DRUGBANK_ID>  (1) 
DB12504

>  <COMMON_NAME>  (1) 
JNJ-40346527

>  <CAS_NUMBER>  (1) 
1142363-52-7

>  <UNII>  (1) 
3NU609VYNF

$$$$
