
     RDKit          2D

 35 39  0  0  0  0  0  0  0  0999 V2000
   -7.9583    0.9001    0.0000 C   0  0  0  0  0  0  0  0  0  0  0  0
   -7.4063    1.5132    0.0000 O   0  0  0  0  0  0  0  0  0  0  0  0
   -6.5993    1.3417    0.0000 C   0  0  0  0  0  0  0  0  0  0  0  0
   -6.0472    1.9548    0.0000 C   0  0  0  0  0  0  0  0  0  0  0  0
   -5.2403    1.7833    0.0000 C   0  0  0  0  0  0  0  0  0  0  0  0
   -4.9853    0.9987    0.0000 C   0  0  0  0  0  0  0  0  0  0  0  0
   -4.1784    0.8271    0.0000 C   0  0  0  0  0  0  0  0  0  0  0  0
   -3.6263    1.4402    0.0000 O   0  0  0  0  0  0  0  0  0  0  0  0
   -2.8194    1.2687    0.0000 C   0  0  0  0  0  0  0  0  0  0  0  0
   -2.2673    1.8818    0.0000 C   0  0  0  0  0  0  0  0  0  0  0  0
   -1.4604    1.7103    0.0000 C   0  0  0  0  0  0  0  0  0  0  0  0
   -1.2054    0.9256    0.0000 C   0  0  0  0  0  0  0  0  0  0  0  0
   -0.3984    0.7541    0.0000 C   0  0  0  0  0  0  0  0  0  0  0  0
   -0.1435   -0.0305    0.0000 N   0  0  0  0  0  0  0  0  0  0  0  0
   -0.6284   -0.6979    0.0000 C   0  0  0  0  0  0  0  0  0  0  0  0
   -1.4534   -0.6979    0.0000 N   0  0  0  0  0  0  0  0  0  0  0  0
   -0.1435   -1.3654    0.0000 N   0  0  0  0  0  0  0  0  0  0  0  0
    0.6411   -1.1104    0.0000 C   0  0  0  0  0  0  0  0  0  0  0  0
    0.6411   -0.2854    0.0000 C   0  0  0  0  0  0  0  0  0  0  0  0
    1.3556    0.1271    0.0000 N   0  0  0  0  0  0  0  0  0  0  0  0
    2.0701   -0.2854    0.0000 C   0  0  0  0  0  0  0  0  0  0  0  0
    2.0701   -1.1104    0.0000 C   0  0  0  0  0  0  0  0  0  0  0  0
    1.3556   -1.5229    0.0000 C   0  0  0  0  0  0  0  0  0  0  0  0
    2.7845   -1.5229    0.0000 C   0  0  0  0  0  0  0  0  0  0  0  0
    3.5382   -1.1874    0.0000 C   0  0  0  0  0  0  0  0  0  0  0  0
    4.0902   -1.8005    0.0000 N   0  0  0  0  0  0  0  0  0  0  0  0
    4.9107   -1.7142    0.0000 C   0  0  0  0  0  0  0  0  0  0  0  0
    3.6777   -2.5150    0.0000 N   0  0  0  0  0  0  0  0  0  0  0  0
    2.8708   -2.3434    0.0000 C   0  0  0  0  0  0  0  0  0  0  0  0
   -1.7575    0.3126    0.0000 C   0  0  0  0  0  0  0  0  0  0  0  0
   -2.5644    0.4841    0.0000 C   0  0  0  0  0  0  0  0  0  0  0  0
   -3.1165   -0.1290    0.0000 O   0  0  0  0  0  0  0  0  0  0  0  0
   -3.9234    0.0425    0.0000 C   0  0  0  0  0  0  0  0  0  0  0  0
   -5.5374    0.3856    0.0000 C   0  0  0  0  0  0  0  0  0  0  0  0
   -6.3443    0.5571    0.0000 C   0  0  0  0  0  0  0  0  0  0  0  0
  1  2  1  0
  2  3  1  0
  3  4  2  0
  3 35  1  0
  4  5  1  0
  5  6  2  0
  6  7  1  0
  6 34  1  0
  7  8  1  0
  8  9  1  0
  9 10  2  0
  9 31  1  0
 10 11  1  0
 11 12  2  0
 12 13  1  0
 12 30  1  0
 13 14  1  0
 14 15  1  0
 14 19  1  0
 15 16  1  0
 15 17  2  0
 17 18  1  0
 18 19  2  0
 18 23  1  0
 19 20  1  0
 20 21  2  0
 21 22  1  0
 22 23  2  0
 22 24  1  0
 24 25  2  0
 24 29  1  0
 25 26  1  0
 26 27  1  0
 26 28  1  0
 28 29  2  0
 30 31  2  0
 31 32  1  0
 32 33  1  0
 34 35  2  0
M  END
>  <DRUGBANK_ID>  (1) 
DB16056

>  <COMMON_NAME>  (1) 
GZ-389988

>  <CAS_NUMBER>  (1) 
1788906-96-6

>  <UNII>  (1) 
XX8E5WP7FS

$$$$
