
     RDKit          2D

 25 27  0  0  0  0  0  0  0  0999 V2000
    0.3556    1.4709    0.0000 C   0  0  0  0  0  0  0  0  0  0  0  0
   -2.8306   -1.6289    0.0000 C   0  0  0  0  0  0  0  0  0  0  0  0
    2.4992   -0.5915    0.0000 C   0  0  0  0  0  0  0  0  0  0  0  0
   -0.3588   -0.5915    0.0000 C   0  0  0  0  0  0  0  0  0  0  0  0
    0.3556   -1.0041    0.0000 C   0  0  0  0  0  0  0  0  0  0  0  0
    1.7916    1.4704    0.0000 C   0  0  0  0  0  0  0  0  0  0  0  0
    2.5784    1.7185    0.0000 C   0  0  0  0  0  0  0  0  0  0  0  0
   -2.5714    0.4900    0.0000 C   0  0  0  0  0  0  0  0  0  0  0  0
    0.3556    0.6459    0.0000 C   0  0  0  0  0  0  0  0  0  0  0  0
   -0.3588    0.2334    0.0000 C   0  0  0  0  0  0  0  0  0  0  0  0
   -1.7873    0.2335    0.0000 C   0  0  0  0  0  0  0  0  0  0  0  0
    1.7846    0.6454    0.0000 C   0  0  0  0  0  0  0  0  0  0  0  0
    1.0702   -0.5915    0.0000 C   0  0  0  0  0  0  0  0  0  0  0  0
    1.0702    0.2334    0.0000 C   0  0  0  0  0  0  0  0  0  0  0  0
   -1.0732    0.6459    0.0000 C   0  0  0  0  0  0  0  0  0  0  0  0
   -1.7890   -0.5914    0.0000 C   0  0  0  0  0  0  0  0  0  0  0  0
   -3.0577   -0.1764    0.0000 N   0  0  0  0  0  0  0  0  0  0  0  0
    2.5670    0.3837    0.0000 N   0  0  0  0  0  0  0  0  0  0  0  0
   -2.5742   -0.8448    0.0000 N   0  0  0  0  0  0  0  0  0  0  0  0
   -1.0732    1.4709    0.0000 O   0  0  0  0  0  0  0  0  0  0  0  0
   -1.1225   -1.0777    0.0000 O   0  0  0  0  0  0  0  0  0  0  0  0
    3.0577    1.0469    0.0000 O   0  0  0  0  0  0  0  0  0  0  0  0
    1.7846   -1.0041    0.0000 S   0  0  0  0  0  0  0  0  0  0  0  0
    2.1971   -1.7185    0.0000 O   0  0  0  0  0  0  0  0  0  0  0  0
    1.3721   -1.7185    0.0000 O   0  0  0  0  0  0  0  0  0  0  0  0
  1  9  1  0
  2 19  1  0
  3 23  1  0
  4  5  2  0
  4 10  1  0
  5 13  1  0
  6  7  1  0
  6 12  1  0
  7 22  1  0
  8 11  1  0
  8 17  2  0
  9 10  2  0
  9 14  1  0
 10 15  1  0
 11 15  1  0
 11 16  2  0
 12 14  1  0
 12 18  2  0
 13 14  2  0
 13 23  1  0
 15 20  2  0
 16 19  1  0
 16 21  1  0
 17 19  1  0
 18 22  1  0
 24 23  2  0
 25 23  2  0
M  END
>  <DRUGBANK_ID>  (1) 
DB14826

>  <COMMON_NAME>  (1) 
Topramezone

>  <CAS_NUMBER>  (1) 
210631-68-8

>  <UNII>  (1) 
W4934JAQ65

$$$$
