552
     RDKit          2D

 27 30  0  0  0  0  0  0  0  0999 V2000
   -0.1226   -2.3266    0.0000 Cl  0  0  0  0  0  0  0  0  0  0  0  0
   -0.1226   -1.5016    0.0000 C   0  0  0  0  0  0  0  0  0  0  0  0
    0.5919   -1.0891    0.0000 N   0  0  0  0  0  0  0  0  0  0  0  0
   -0.8371   -1.0891    0.0000 C   0  0  0  0  0  0  0  0  0  0  0  0
   -0.8371   -0.2641    0.0000 N   0  0  0  0  0  0  0  0  0  0  0  0
   -1.6217   -0.0092    0.0000 C   0  0  0  0  0  0  0  0  0  0  0  0
   -1.8766    0.7755    0.0000 C   0  0  0  0  0  0  0  0  0  0  0  0
   -2.6836    0.9470    0.0000 N   0  0  0  0  0  0  0  0  0  0  0  0
   -3.0192    1.7007    0.0000 C   0  0  0  0  0  0  0  0  0  0  0  0
   -3.8397    1.6144    0.0000 C   0  0  0  0  0  0  0  0  0  0  0  0
   -4.0112    0.8075    0.0000 C   0  0  0  0  0  0  0  0  0  0  0  0
   -3.2967    0.3950    0.0000 C   0  0  0  0  0  0  0  0  0  0  0  0
   -1.3246    1.3886    0.0000 O   0  0  0  0  0  0  0  0  0  0  0  0
   -2.1066   -0.6766    0.0000 C   0  0  0  0  0  0  0  0  0  0  0  0
   -1.6217   -1.3440    0.0000 C   0  0  0  0  0  0  0  0  0  0  0  0
   -0.1226    0.1484    0.0000 C   0  0  0  0  0  0  0  0  0  0  0  0
   -0.1226    0.9734    0.0000 O   0  0  0  0  0  0  0  0  0  0  0  0
    0.5919   -0.2641    0.0000 C   0  0  0  0  0  0  0  0  0  0  0  0
    1.3063    0.1484    0.0000 O   0  0  0  0  0  0  0  0  0  0  0  0
    2.0208   -0.2641    0.0000 C   0  0  0  0  0  0  0  0  0  0  0  0
    2.7353    0.1484    0.0000 C   0  0  0  0  0  0  0  0  0  0  0  0
    3.4497   -0.2641    0.0000 C   0  0  0  0  0  0  0  0  0  0  0  0
    4.1642    0.1484    0.0000 C   0  0  0  0  0  0  0  0  0  0  0  0
    2.7353    0.9734    0.0000 C   0  0  0  0  0  0  0  0  0  0  0  0
    3.4497    1.3859    0.0000 C   0  0  0  0  0  0  0  0  0  0  0  0
    4.1642    0.9734    0.0000 C   0  0  0  0  0  0  0  0  0  0  0  0
    4.8787    1.3859    0.0000 F   0  0  0  0  0  0  0  0  0  0  0  0
  2  1  1  0
  3  2  1  0
  4  2  2  0
  5  4  1  0
  6  5  1  0
  6 14  1  0
  6  7  1  1
  7 13  2  0
  8  7  1  0
  9  8  1  0
 10  9  1  0
 10 11  1  0
 11 12  1  0
 12  8  1  0
 14 15  2  0
 15  4  1  0
 16  5  1  0
 16 18  1  0
 17 16  2  0
 18  3  2  0
 19 18  1  0
 19 20  1  0
 20 21  1  0
 21 24  1  0
 22 21  2  0
 22 23  1  0
 23 26  2  0
 24 25  2  0
 26 25  1  0
 26 27  1  0
M  END
>  <DRUGBANK_ID>  (1) 
DB07148

>  <COMMON_NAME>  (1) 
(6S)-1-chloro-3-[(4-fluorobenzyl)oxy]-6-(pyrrolidin-1-ylcarbonyl)pyrrolo[1,2-a]pyrazin-4(6H)-one

$$$$
