ZAH
     RDKit          2D

 23 24  0  0  0  0  0  0  0  0999 V2000
   -3.0720   -0.9731    0.0000 C   0  0  0  0  0  0  0  0  0  0  0  0
   -3.8566   -1.2281    0.0000 O   0  0  0  0  0  0  0  0  0  0  0  0
   -2.4589   -1.5252    0.0000 O   0  0  0  0  0  0  0  0  0  0  0  0
   -2.9005   -0.1662    0.0000 C   0  0  0  0  0  0  0  0  0  0  0  0
   -3.4525    0.4469    0.0000 C   0  0  0  0  0  0  0  0  0  0  0  0
   -3.0400    1.1614    0.0000 C   0  0  0  0  0  0  0  0  0  0  0  0
   -2.2330    0.9899    0.0000 C   0  0  0  0  0  0  0  0  0  0  0  0
   -2.1468    0.1694    0.0000 N   0  0  0  0  0  0  0  0  0  0  0  0
   -1.4323   -0.2431    0.0000 C   0  0  0  0  0  0  0  0  0  0  0  0
   -1.4323   -1.0681    0.0000 O   0  0  0  0  0  0  0  0  0  0  0  0
   -0.7178    0.1694    0.0000 C   0  0  0  0  0  0  0  0  0  0  0  0
   -0.7178    0.9944    0.0000 C   0  0  0  0  0  0  0  0  0  0  0  0
   -0.0034   -0.2431    0.0000 N   0  0  0  0  0  0  0  0  0  0  0  0
    0.7111    0.1694    0.0000 C   0  0  0  0  0  0  0  0  0  0  0  0
    0.7111    0.9944    0.0000 O   0  0  0  0  0  0  0  0  0  0  0  0
    1.4256   -0.2431    0.0000 O   0  0  0  0  0  0  0  0  0  0  0  0
    2.1400    0.1694    0.0000 C   0  0  0  0  0  0  0  0  0  0  0  0
    2.8545   -0.2431    0.0000 C   0  0  0  0  0  0  0  0  0  0  0  0
    3.5690    0.1694    0.0000 C   0  0  0  0  0  0  0  0  0  0  0  0
    4.2835   -0.2431    0.0000 C   0  0  0  0  0  0  0  0  0  0  0  0
    4.2835   -1.0681    0.0000 C   0  0  0  0  0  0  0  0  0  0  0  0
    3.5690   -1.4806    0.0000 C   0  0  0  0  0  0  0  0  0  0  0  0
    2.8545   -1.0681    0.0000 C   0  0  0  0  0  0  0  0  0  0  0  0
  1  2  2  0
  1  3  1  0
  4  1  1  6
  4  5  1  0
  4  8  1  0
  5  6  1  0
  6  7  1  0
  7  8  1  0
  8  9  1  0
  9 10  2  0
  9 11  1  0
 11 12  1  6
 11 13  1  0
 13 14  1  0
 14 15  2  0
 14 16  1  0
 16 17  1  0
 17 18  1  0
 18 19  2  0
 18 23  1  0
 19 20  1  0
 20 21  2  0
 21 22  1  0
 22 23  2  0
M  END
>  <DRUGBANK_ID>  (1) 
DB04033

>  <SECONDARY_ACCESSION_NUMBERS>  (1) 
EXPT03282

>  <COMMON_NAME>  (1) 
Z-Ala Prolinal

>  <UNII>  (1) 
P6X7ZC6L89

$$$$
