
     RDKit          2D

 29 24  0  0  1  0  0  0  0  0999 V2000
   -2.1434    0.2357    0.0000 C   0  0  0  0  0  0  0  0  0  0  0  0
   -1.4289   -0.1768    0.0000 C   0  0  0  0  0  0  0  0  0  0  0  0
   -0.7145    0.2357    0.0000 C   0  0  0  0  0  0  0  0  0  0  0  0
    0.0000   -0.1768    0.0000 C   0  0  0  0  0  0  0  0  0  0  0  0
    0.7145    0.2357    0.0000 C   0  0  0  0  0  0  0  0  0  0  0  0
    1.4289   -0.1768    0.0000 C   0  0  0  0  0  0  0  0  0  0  0  0
    1.4289   -1.0018    0.0000 O   0  0  0  0  0  0  0  0  0  0  0  0
    2.1434    0.2357    0.0000 O   0  0  0  0  0  0  0  0  0  0  0  0
    0.7145    1.0607    0.0000 O   0  0  0  0  0  0  0  0  0  0  0  0
    0.0000   -1.0018    0.0000 O   0  0  0  0  0  0  0  0  0  0  0  0
   -0.7145    1.0607    0.0000 O   0  0  0  0  0  0  0  0  0  0  0  0
   -1.4289   -1.0018    0.0000 O   0  0  0  0  0  0  0  0  0  0  0  0
   -2.8579   -0.1768    0.0000 O   0  0  0  0  0  0  0  0  0  0  0  0
    5.4581    0.2856    0.0000 C   0  0  0  0  0  0  0  0  0  0  0  0
    6.1725   -0.1269    0.0000 C   0  0  0  0  0  0  0  0  0  0  0  0
    6.8870    0.2856    0.0000 C   0  0  0  0  0  0  0  0  0  0  0  0
    7.6015   -0.1269    0.0000 C   0  0  0  0  0  0  0  0  0  0  0  0
    8.3160    0.2856    0.0000 C   0  0  0  0  0  0  0  0  0  0  0  0
    9.0304   -0.1269    0.0000 C   0  0  0  0  0  0  0  0  0  0  0  0
    9.7449    0.2856    0.0000 O   0  0  0  0  0  0  0  0  0  0  0  0
    9.0304   -0.9519    0.0000 O   0  0  0  0  0  0  0  0  0  0  0  0
    8.3160    1.1106    0.0000 O   0  0  0  0  0  0  0  0  0  0  0  0
    7.6015   -0.9519    0.0000 O   0  0  0  0  0  0  0  0  0  0  0  0
    6.8870    1.1106    0.0000 O   0  0  0  0  0  0  0  0  0  0  0  0
    6.1725   -0.9519    0.0000 O   0  0  0  0  0  0  0  0  0  0  0  0
    4.7436   -0.1269    0.0000 O   0  0  0  0  0  0  0  0  0  0  0  0
    0.0000   -2.6518    0.0000 O   0  0  0  0  0  0  0  0  0  0  0  0
    2.3571   -2.6518    0.0000 O   0  0  0  0  0  0  0  0  0  0  0  0
    2.8579    0.6482    0.0000 Mg  0  0  0  0  0 15  0  0  0  0  0  0
  1  2  1  0
  1 13  1  0
  2  3  1  0
  2 12  1  6
  3  4  1  0
  3 11  1  1
  4  5  1  0
  4 10  1  1
  5  6  1  0
  5  9  1  1
  6  7  2  0
  6  8  1  0
 14 15  1  0
 14 26  1  0
 15 16  1  0
 15 25  1  6
 16 17  1  0
 16 24  1  1
 17 18  1  0
 17 23  1  1
 18 19  1  0
 18 22  1  1
 19 20  2  0
 19 21  1  0
M  CHG  3   8  -1  21  -1  29   2
M  END
>  <DRUGBANK_ID>  (1) 
DB13749

>  <COMMON_NAME>  (1) 
Magnesium gluconate

>  <CAS_NUMBER>  (1) 
59625-89-7

>  <UNII>  (1) 
T42NAD2KHC

>  <SYNONYMS>  (1) 
Magnesium (as gluconate); Magnesium D-gluconate (1:2) dihydrate; Magnesium D-gluconate (1:2) hydrate; Magnesium gluconate; Magnesium gluconate,dihydrate; Magnesium gluconicum

$$$$
