
     RDKit          2D

 24 25  0  0  1  0  0  0  0  0999 V2000
    3.0706   -3.2500    0.0000 C   0  0  0  0  0  0  0  0  0  0  0  0
    3.7850   -2.8375    0.0000 C   0  0  0  0  0  0  0  0  0  0  0  0
    4.4995   -3.2500    0.0000 N   0  0  0  0  0  0  0  0  0  0  0  0
    4.4995   -4.0750    0.0000 C   0  0  0  0  0  0  0  0  0  0  0  0
    3.7850   -4.4875    0.0000 C   0  0  0  0  0  0  0  0  0  0  0  0
    5.2140   -2.8375    0.0000 C   0  0  0  0  0  0  0  0  0  0  0  0
    5.9285   -3.2500    0.0000 C   0  0  0  0  0  0  0  0  0  0  0  0
    5.9285   -4.0750    0.0000 C   0  0  0  0  0  0  0  0  0  0  0  0
    6.6429   -2.8375    0.0000 O   0  0  0  0  0  0  0  0  0  0  0  0
    7.3574   -3.2500    0.0000 C   0  0  0  0  0  0  0  0  0  0  0  0
    7.3574   -4.0750    0.0000 O   0  0  0  0  0  0  0  0  0  0  0  0
    8.0719   -2.8375    0.0000 C   0  0  0  0  0  0  0  0  0  0  0  0
    8.0719   -2.0125    0.0000 C   0  0  0  0  0  0  0  0  0  0  0  0
    8.7863   -1.6000    0.0000 C   0  0  0  0  0  0  0  0  0  0  0  0
    9.5008   -2.0125    0.0000 C   0  0  0  0  0  0  0  0  0  0  0  0
    9.5008   -2.8375    0.0000 C   0  0  0  0  0  0  0  0  0  0  0  0
    8.7863   -3.2500    0.0000 C   0  0  0  0  0  0  0  0  0  0  0  0
    9.1737   -3.9785    0.0000 C   0  0  0  0  0  0  0  0  0  0  0  0
    9.9982   -4.0073    0.0000 C   0  0  0  0  0  0  0  0  0  0  0  0
   10.3855   -4.7357    0.0000 C   0  0  0  0  0  0  0  0  0  0  0  0
    9.9483   -5.4353    0.0000 C   0  0  0  0  0  0  0  0  0  0  0  0
    9.1238   -5.4065    0.0000 C   0  0  0  0  0  0  0  0  0  0  0  0
    8.7365   -4.6781    0.0000 C   0  0  0  0  0  0  0  0  0  0  0  0
    8.3990   -3.9785    0.0000 O   0  0  0  0  0  0  0  0  0  0  0  0
  1  2  1  0
  2  3  1  0
  3  4  1  0
  3  6  1  0
  4  5  1  0
  6  7  1  0
  7  8  1  0
  7  9  1  0
  9 10  1  0
 10 11  2  0
 12 10  1  1
 12 13  1  0
 12 17  1  0
 13 14  1  0
 14 15  1  0
 15 16  1  0
 16 17  1  0
 17 18  1  0
 17 24  1  1
 18 19  1  0
 18 23  1  0
 19 20  1  0
 20 21  1  0
 21 22  1  0
 22 23  1  0
M  END
>  <DRUGBANK_ID>  (1) 
DB13581

>  <COMMON_NAME>  (1) 
Rociverine

>  <CAS_NUMBER>  (1) 
53716-44-2

>  <UNII>  (1) 
VI08KS44V0

>  <SYNONYMS>  (1) 
Rociverine

$$$$
