IDN
     RDKit          2D

 28 31  0  0  0  0  0  0  0  0999 V2000
   -2.8961    2.3128    0.0000 C   0  0  0  0  0  0  0  0  0  0  0  0
   -2.6411    1.5282    0.0000 C   0  0  0  0  0  0  0  0  0  0  0  0
   -1.8342    1.3566    0.0000 C   0  0  0  0  0  0  0  0  0  0  0  0
   -1.2821    1.9697    0.0000 C   0  0  0  0  0  0  0  0  0  0  0  0
   -1.5371    2.7543    0.0000 C   0  0  0  0  0  0  0  0  0  0  0  0
   -2.3440    2.9259    0.0000 N   0  0  0  0  0  0  0  0  0  0  0  0
   -0.4752    1.7982    0.0000 C   0  0  0  0  0  0  0  0  0  0  0  0
   -0.2202    1.0136    0.0000 C   0  0  0  0  0  0  0  0  0  0  0  0
    0.5867    0.8420    0.0000 C   0  0  0  0  0  0  0  0  0  0  0  0
    1.1388    1.4551    0.0000 O   0  0  0  0  0  0  0  0  0  0  0  0
    0.8417    0.0574    0.0000 N   0  0  0  0  0  0  0  0  0  0  0  0
    0.2897   -0.5557    0.0000 C   0  0  0  0  0  0  0  0  0  0  0  0
    1.6487   -0.1141    0.0000 C   0  0  0  0  0  0  0  0  0  0  0  0
    1.9036   -0.8987    0.0000 C   0  0  0  0  0  0  0  0  0  0  0  0
    1.4187   -1.5662    0.0000 C   0  0  0  0  0  0  0  0  0  0  0  0
    1.9036   -2.2336    0.0000 N   0  0  0  0  0  0  0  0  0  0  0  0
    2.6882   -1.9787    0.0000 C   0  0  0  0  0  0  0  0  0  0  0  0
    2.6882   -1.1537    0.0000 C   0  0  0  0  0  0  0  0  0  0  0  0
   -3.7031    2.4843    0.0000 N   0  0  0  0  0  0  0  0  0  0  0  0
    1.6487   -3.0182    0.0000 C   0  0  0  0  0  0  0  0  0  0  0  0
    4.1172   -1.1537    0.0000 C   0  0  0  0  0  0  0  0  0  0  0  0
    4.1172   -1.9787    0.0000 C   0  0  0  0  0  0  0  0  0  0  0  0
    3.4027   -2.3912    0.0000 C   0  0  0  0  0  0  0  0  0  0  0  0
    3.4027   -0.7412    0.0000 C   0  0  0  0  0  0  0  0  0  0  0  0
   -3.1932    0.9151    0.0000 C   0  0  0  0  0  0  0  0  0  0  0  0
   -4.0001    1.0866    0.0000 C   0  0  0  0  0  0  0  0  0  0  0  0
   -4.2551    1.8712    0.0000 C   0  0  0  0  0  0  0  0  0  0  0  0
   -5.0621    2.0427    0.0000 O   0  0  0  0  0  0  0  0  0  0  0  0
  1  2  1  0
  1  6  2  0
  1 19  1  0
  2  3  2  0
  2 25  1  0
  3  4  1  0
  4  5  2  0
  4  7  1  0
  5  6  1  0
  7  8  2  0
  8  9  1  0
  9 10  2  0
  9 11  1  0
 11 12  1  0
 11 13  1  0
 13 14  1  0
 14 15  2  0
 14 18  1  0
 15 16  1  0
 16 17  1  0
 16 20  1  0
 17 18  2  0
 17 23  1  0
 18 24  1  0
 19 27  1  0
 21 22  1  0
 21 24  2  0
 22 23  2  0
 25 26  1  0
 26 27  1  0
 27 28  2  0
M  END
>  <DRUGBANK_ID>  (1) 
DB01691

>  <SECONDARY_ACCESSION_NUMBERS>  (1) 
EXPT01841

>  <COMMON_NAME>  (1) 
Indole Naphthyridinone

$$$$
