IDI
     RDKit          2D

 11 12  0  0  0  0  0  0  0  0999 V2000
   -2.2367   -0.8158    0.0000 I   0  0  0  0  0  0  0  0  0  0  0  0
   -0.8077    0.8342    0.0000 C   0  0  0  0  0  0  0  0  0  0  0  0
   -1.5222    0.4217    0.0000 C   0  0  0  0  0  0  0  0  0  0  0  0
   -1.5222   -0.4033    0.0000 C   0  0  0  0  0  0  0  0  0  0  0  0
   -0.8077   -0.8158    0.0000 C   0  0  0  0  0  0  0  0  0  0  0  0
   -0.0933   -0.4033    0.0000 C   0  0  0  0  0  0  0  0  0  0  0  0
   -0.0933    0.4217    0.0000 C   0  0  0  0  0  0  0  0  0  0  0  0
    0.6212   -0.8158    0.0000 C   0  0  0  0  0  0  0  0  0  0  0  0
    1.3357    0.4217    0.0000 C   0  0  0  0  0  0  0  0  0  0  0  0
    0.6212    0.8342    0.0000 C   0  0  0  0  0  0  0  0  0  0  0  0
    1.3357   -0.4033    0.0000 N   0  0  0  0  0  0  0  0  0  0  0  0
  1  4  1  0
  2  3  2  0
  2  7  1  0
  3  4  1  0
  4  5  2  0
  5  6  1  0
  6  7  2  0
  6  8  1  0
  7 10  1  0
  8 11  1  0
  9 10  1  0
  9 11  1  0
M  END
>  <DRUGBANK_ID>  (1) 
DB03824

>  <SECONDARY_ACCESSION_NUMBERS>  (1) 
EXPT01840

>  <COMMON_NAME>  (1) 
7-Iodo-1,2,3,4-Tetrahydro-Isoquinoline

>  <UNII>  (1) 
AA4AFP7MFA

$$$$
