
     RDKit          2D

 28 30  0  0  0  0  0  0  0  0999 V2000
   -1.8481   -1.9552    0.0000 N   0  0  0  0  0  0  0  0  0  0  0  0
   -1.1739   -1.4793    0.0000 C   0  0  0  0  0  0  0  0  0  0  0  0
   -1.4197   -0.6861    0.0000 N   0  0  0  0  0  0  0  0  0  0  0  0
   -2.2447   -0.6781    0.0000 C   0  0  0  0  0  0  0  0  0  0  0  0
   -2.5064   -1.4555    0.0000 C   0  0  0  0  0  0  0  0  0  0  0  0
   -3.2282   -1.8679    0.0000 C   0  0  0  0  0  0  0  0  0  0  0  0
   -3.9341   -1.4475    0.0000 F   0  0  0  0  0  0  0  0  0  0  0  0
   -3.2282   -2.6929    0.0000 F   0  0  0  0  0  0  0  0  0  0  0  0
   -3.9659   -2.2487    0.0000 F   0  0  0  0  0  0  0  0  0  0  0  0
   -0.9994    0.0277    0.0000 C   0  0  0  0  0  0  0  0  0  0  0  0
   -0.1745    0.0198    0.0000 C   0  0  0  0  0  0  0  0  0  0  0  0
   -1.4039    0.7415    0.0000 C   0  0  0  0  0  0  0  0  0  0  0  0
   -0.9280    1.4157    0.0000 C   0  0  0  0  0  0  0  0  0  0  0  0
   -0.1031    1.4317    0.0000 C   0  0  0  0  0  0  0  0  0  0  0  0
    0.1348    2.2169    0.0000 C   0  0  0  0  0  0  0  0  0  0  0  0
   -0.5393    2.6929    0.0000 C   0  0  0  0  0  0  0  0  0  0  0  0
   -1.1977    2.2011    0.0000 C   0  0  0  0  0  0  0  0  0  0  0  0
    0.2379   -0.7019    0.0000 O   0  0  0  0  0  0  0  0  0  0  0  0
    0.2459    0.7336    0.0000 N   0  0  0  0  0  0  0  0  0  0  0  0
    1.0708    0.7257    0.0000 C   0  0  0  0  0  0  0  0  0  0  0  0
    1.4754    0.0118    0.0000 C   0  0  0  0  0  0  0  0  0  0  0  0
    2.3002    0.0039    0.0000 C   0  0  0  0  0  0  0  0  0  0  0  0
    2.7206    0.7178    0.0000 C   0  0  0  0  0  0  0  0  0  0  0  0
    2.3081    1.4396    0.0000 C   0  0  0  0  0  0  0  0  0  0  0  0
    1.4832    1.4396    0.0000 N   0  0  0  0  0  0  0  0  0  0  0  0
    3.5455    0.7098    0.0000 C   0  0  0  0  0  0  0  0  0  0  0  0
    3.9580   -0.0039    0.0000 O   0  0  0  0  0  0  0  0  0  0  0  0
    3.9659    1.4238    0.0000 O   0  0  0  0  0  0  0  0  0  0  0  0
  1  2  2  0
  1  5  1  0
  2  3  1  0
  3  4  1  0
  3 10  1  0
  4  5  2  0
  5  6  1  0
  6  7  1  0
  6  8  1  0
  6  9  1  0
 10 11  1  0
 10 12  1  1
 11 18  2  0
 11 19  1  0
 12 13  1  0
 13 14  1  0
 13 17  1  0
 14 15  1  0
 15 16  1  0
 16 17  1  0
 19 20  1  0
 20 21  2  0
 20 25  1  0
 21 22  1  0
 22 23  2  0
 23 24  1  0
 23 26  1  0
 24 25  2  0
 26 27  1  0
 26 28  2  0
M  END
>  <DRUGBANK_ID>  (1) 
DB11765

>  <COMMON_NAME>  (1) 
PF-04991532

>  <CAS_NUMBER>  (1) 
1215197-37-7

>  <UNII>  (1) 
AJ212MS2O2

$$$$
