
     RDKit          2D

 37 41  0  0  1  0  0  0  0  0999 V2000
    7.3145   -1.0164    0.0000 C   0  0  0  0  0  0  0  0  0  0  0  0
    7.7270   -0.3020    0.0000 C   0  0  0  0  0  0  0  0  0  0  0  0
    8.5520   -0.3020    0.0000 O   0  0  0  0  0  0  0  0  0  0  0  0
    7.3145    0.4125    0.0000 O   0  0  0  0  0  0  0  0  0  0  0  0
    6.4895    0.4125    0.0000 C   0  0  0  0  0  0  0  0  0  0  0  0
    6.0770   -0.3020    0.0000 C   0  0  0  0  0  0  0  0  0  0  0  0
    5.2520   -0.3020    0.0000 C   0  0  0  0  0  0  0  0  0  0  0  0
    4.8395    0.4125    0.0000 C   0  0  0  0  0  0  0  0  0  0  0  0
    5.2520    1.1270    0.0000 C   0  0  0  0  0  0  0  0  0  0  0  0
    6.0770    1.1270    0.0000 C   0  0  0  0  0  0  0  0  0  0  0  0
    6.1058    1.9515    0.0000 C   0  0  0  0  0  0  0  0  0  0  0  0
    6.7766    1.5642    0.0000 C   0  0  0  0  0  0  0  0  0  0  0  0
    4.8395    1.8414    0.0000 C   0  0  0  0  0  0  0  0  0  0  0  0
    4.0145    1.8414    0.0000 C   0  0  0  0  0  0  0  0  0  0  0  0
    3.6020    1.1270    0.0000 C   0  0  0  0  0  0  0  0  0  0  0  0
    4.0145    0.4125    0.0000 C   0  0  0  0  0  0  0  0  0  0  0  0
    3.6020   -0.3020    0.0000 C   0  0  0  0  0  0  0  0  0  0  0  0
    4.0145   -1.0164    0.0000 O   0  0  0  0  0  0  0  0  0  0  0  0
    2.7770   -0.3020    0.0000 C   0  0  0  0  0  0  0  0  0  0  0  0
    2.3645    0.4125    0.0000 C   0  0  0  0  0  0  0  0  0  0  0  0
    2.7770    1.1270    0.0000 C   0  0  0  0  0  0  0  0  0  0  0  0
    2.3645    1.8414    0.0000 C   0  0  0  0  0  0  0  0  0  0  0  0
    1.5395    1.8414    0.0000 C   0  0  0  0  0  0  0  0  0  0  0  0
    1.1270    1.1270    0.0000 C   0  0  0  0  0  0  0  0  0  0  0  0
    1.5395    0.4125    0.0000 C   0  0  0  0  0  0  0  0  0  0  0  0
    1.1270   -0.3020    0.0000 C   0  0  0  0  0  0  0  0  0  0  0  0
    0.3020   -0.3020    0.0000 C   0  0  0  0  0  0  0  0  0  0  0  0
   -0.1105    0.4125    0.0000 C   0  0  0  0  0  0  0  0  0  0  0  0
    0.3020    1.1270    0.0000 C   0  0  0  0  0  0  0  0  0  0  0  0
    0.2732   -1.1265    0.0000 C   0  0  0  0  0  0  0  0  0  0  0  0
   -0.3977   -0.7392    0.0000 C   0  0  0  0  0  0  0  0  0  0  0  0
   -0.3689   -1.5637    0.0000 O   0  0  0  0  0  0  0  0  0  0  0  0
   -1.1261   -0.3518    0.0000 O   0  0  0  0  0  0  0  0  0  0  0  0
    0.7145    1.8414    0.0000 C   0  0  0  0  0  0  0  0  0  0  0  0
    3.1895    1.8414    0.0000 C   0  0  0  0  0  0  0  0  0  0  0  0
    3.6882    1.9475    0.0000 C   0  0  0  0  0  0  0  0  0  0  0  0
    4.4270   -0.3020    0.0000 C   0  0  0  0  0  0  0  0  0  0  0  0
  1  2  1  0
  2  3  2  0
  2  4  1  0
  5  4  1  1
  5  6  1  0
  5 10  1  0
  6  7  1  0
  7  8  1  0
  8  9  1  0
  8 16  1  0
  8 37  1  1
  9 10  1  0
  9 13  1  1
 10 11  1  0
 10 12  1  0
 13 14  1  0
 14 15  1  0
 15 16  1  0
 15 21  1  0
 15 36  1  1
 16 17  1  1
 17 18  2  0
 17 19  1  0
 19 20  2  0
 20 21  1  0
 21 22  1  0
 21 35  1  6
 22 23  1  0
 23 24  1  0
 24 25  1  0
 24 29  1  0
 24 34  1  1
 25 20  1  0
 25 26  1  6
 26 27  1  0
 27 28  1  0
 27 30  1  6
 27 31  1  0
 28 29  1  0
 31 32  2  0
 31 33  1  0
M  END
>  <DRUGBANK_ID>  (1) 
DB13640

>  <COMMON_NAME>  (1) 
Acetoxolone

>  <CAS_NUMBER>  (1) 
6277-14-1

>  <UNII>  (1) 
CWW961Q19K

$$$$
