
     RDKit          2D

 24 27  0  0  0  0  0  0  0  0999 V2000
    5.1065    4.2758    0.0000 C   0  0  0  0  0  0  0  0  0  0  0  0
    4.9994    3.4578    0.0000 N   0  0  0  0  0  0  0  0  0  0  0  0
    4.2375    3.1415    0.0000 C   0  0  0  0  0  0  0  0  0  0  0  0
    5.6543    2.9561    0.0000 C   0  0  0  0  0  0  0  0  0  0  0  0
    5.5473    2.1381    0.0000 C   0  0  0  0  0  0  0  0  0  0  0  0
    6.2021    1.6363    0.0000 C   0  0  0  0  0  0  0  0  0  0  0  0
    6.0951    0.8183    0.0000 C   0  0  0  0  0  0  0  0  0  0  0  0
    6.7856    0.3669    0.0000 C   0  0  0  0  0  0  0  0  0  0  0  0
    7.4581    0.8448    0.0000 C   0  0  0  0  0  0  0  0  0  0  0  0
    8.2082    0.5014    0.0000 C   0  0  0  0  0  0  0  0  0  0  0  0
    8.2858   -0.3200    0.0000 C   0  0  0  0  0  0  0  0  0  0  0  0
    7.6134   -0.7979    0.0000 C   0  0  0  0  0  0  0  0  0  0  0  0
    6.8632   -0.4544    0.0000 C   0  0  0  0  0  0  0  0  0  0  0  0
    6.2695   -1.0272    0.0000 O   0  0  0  0  0  0  0  0  0  0  0  0
    5.4515   -0.9202    0.0000 C   0  0  0  0  0  0  0  0  0  0  0  0
    5.0252   -0.2138    0.0000 C   0  0  0  0  0  0  0  0  0  0  0  0
    5.3116    0.5598    0.0000 C   0  0  0  0  0  0  0  0  0  0  0  0
    4.6643    1.0713    0.0000 O   0  0  0  0  0  0  0  0  0  0  0  0
    3.9778    0.6138    0.0000 C   0  0  0  0  0  0  0  0  0  0  0  0
    4.2008   -0.1805    0.0000 C   0  0  0  0  0  0  0  0  0  0  0  0
    3.6245   -0.7708    0.0000 C   0  0  0  0  0  0  0  0  0  0  0  0
    2.8251   -0.5668    0.0000 C   0  0  0  0  0  0  0  0  0  0  0  0
    2.6021    0.2274    0.0000 C   0  0  0  0  0  0  0  0  0  0  0  0
    3.1784    0.8177    0.0000 C   0  0  0  0  0  0  0  0  0  0  0  0
  1  2  1  0
  2  3  1  0
  2  4  1  0
  4  5  1  0
  6  5  1  0
  6  7  2  3
  7  8  1  0
  7 17  1  0
  8  9  2  0
  8 13  1  0
  9 10  1  0
 10 11  2  0
 11 12  1  0
 12 13  2  0
 13 14  1  0
 14 15  1  0
 15 16  1  0
 16 17  2  0
 16 20  1  0
 17 18  1  0
 18 19  1  0
 19 20  2  0
 19 24  1  0
 20 21  1  0
 21 22  2  0
 22 23  1  0
 23 24  2  0
M  END
>  <DRUGBANK_ID>  (1) 
DB13463

>  <COMMON_NAME>  (1) 
Oxetorone

>  <CAS_NUMBER>  (1) 
26020-55-3

>  <UNII>  (1) 
T3XOS33TIQ

>  <SYNONYMS>  (1) 
Oxetorone

$$$$
