QPP
     RDKit          2D

 23 26  0  0  0  0  0  0  0  0999 V2000
    1.5778    1.0688    0.0000 C   0  0  0  0  0  0  0  0  0  0  0  0
    0.8634    1.4813    0.0000 C   0  0  0  0  0  0  0  0  0  0  0  0
    0.8634    2.3063    0.0000 C   0  0  0  0  0  0  0  0  0  0  0  0
    1.5778    2.7188    0.0000 C   0  0  0  0  0  0  0  0  0  0  0  0
    2.2923    2.3063    0.0000 C   0  0  0  0  0  0  0  0  0  0  0  0
    2.2923    1.4813    0.0000 C   0  0  0  0  0  0  0  0  0  0  0  0
    3.0068    1.0688    0.0000 C   0  0  0  0  0  0  0  0  0  0  0  0
    3.0068    0.2438    0.0000 N   0  0  0  0  0  0  0  0  0  0  0  0
    3.7212    1.4813    0.0000 N   0  0  0  0  0  0  0  0  0  0  0  0
    4.4357    1.0688    0.0000 C   0  0  0  0  0  0  0  0  0  0  0  0
    5.1502    1.4813    0.0000 C   0  0  0  0  0  0  0  0  0  0  0  0
    5.8646    1.0688    0.0000 C   0  0  0  0  0  0  0  0  0  0  0  0
    5.8646    0.2438    0.0000 C   0  0  0  0  0  0  0  0  0  0  0  0
    5.1502   -0.1687    0.0000 C   0  0  0  0  0  0  0  0  0  0  0  0
    4.4357    0.2438    0.0000 C   0  0  0  0  0  0  0  0  0  0  0  0
    3.7212   -0.1687    0.0000 C   0  0  0  0  0  0  0  0  0  0  0  0
    3.7212   -0.9937    0.0000 N   0  0  0  0  0  0  0  0  0  0  0  0
    3.0068   -1.4062    0.0000 C   0  0  0  0  0  0  0  0  0  0  0  0
    2.9205   -2.2266    0.0000 C   0  0  0  0  0  0  0  0  0  0  0  0
    2.1136   -2.3982    0.0000 C   0  0  0  0  0  0  0  0  0  0  0  0
    1.7780   -3.1518    0.0000 C   0  0  0  0  0  0  0  0  0  0  0  0
    1.7011   -1.6837    0.0000 N   0  0  0  0  0  0  0  0  0  0  0  0
    2.2531   -1.0706    0.0000 N   0  0  0  0  0  0  0  0  0  0  0  0
  1  2  2  0
  1  6  1  0
  2  3  1  0
  3  4  2  0
  4  5  1  0
  5  6  2  0
  6  7  1  0
  7  8  2  0
  7  9  1  0
  8 16  1  0
  9 10  2  0
 10 11  1  0
 10 15  1  0
 11 12  2  0
 12 13  1  0
 13 14  2  0
 14 15  1  0
 15 16  2  0
 16 17  1  0
 17 18  1  0
 18 19  1  0
 18 23  2  0
 19 20  2  0
 20 21  1  0
 20 22  1  0
 22 23  1  0
M  END
>  <DRUGBANK_ID>  (1) 
DB08454

>  <COMMON_NAME>  (1) 
N-(5-METHYL-1H-PYRAZOL-3-YL)-2-PHENYLQUINAZOLIN-4-AMINE

$$$$
