CN2
     RDKit          2D

 30 32  0  0  0  0  0  0  0  0999 V2000
    0.0143   -2.7937    0.0000 O   0  0  0  0  0  0  0  0  0  0  0  0
   -0.7636   -2.5189    0.0000 C   0  0  0  0  0  0  0  0  0  0  0  0
   -1.3905   -3.0553    0.0000 C   0  0  0  0  0  0  0  0  0  0  0  0
   -1.2395   -3.8663    0.0000 S   0  0  0  0  0  0  0  0  0  0  0  0
   -0.9146   -1.7079    0.0000 N   0  0  0  0  0  0  0  0  0  0  0  0
   -0.2877   -1.1716    0.0000 C   0  0  0  0  0  0  0  0  0  0  0  0
   -0.4989   -0.3741    0.0000 C   0  0  0  0  0  0  0  0  0  0  0  0
   -1.3234   -0.4025    0.0000 C   0  0  0  0  0  0  0  0  0  0  0  0
    0.4675   -1.5037    0.0000 C   0  0  0  0  0  0  0  0  0  0  0  0
    1.1980   -1.1203    0.0000 C   0  0  0  0  0  0  0  0  0  0  0  0
    1.3537   -0.3101    0.0000 C   0  0  0  0  0  0  0  0  0  0  0  0
    2.1648   -0.1591    0.0000 C   0  0  0  0  0  0  0  0  0  0  0  0
    2.4395    0.6188    0.0000 C   0  0  0  0  0  0  0  0  0  0  0  0
    1.9032    1.2457    0.0000 C   0  0  0  0  0  0  0  0  0  0  0  0
    1.0922    1.0947    0.0000 C   0  0  0  0  0  0  0  0  0  0  0  0
    0.5558    1.7216    0.0000 O   0  0  0  0  0  0  0  0  0  0  0  0
   -0.2552    1.5705    0.0000 C   0  0  0  0  0  0  0  0  0  0  0  0
    2.1780    2.0236    0.0000 O   0  0  0  0  0  0  0  0  0  0  0  0
    1.6416    2.6505    0.0000 C   0  0  0  0  0  0  0  0  0  0  0  0
    3.2506    0.7698    0.0000 O   0  0  0  0  0  0  0  0  0  0  0  0
    3.5253    1.5477    0.0000 C   0  0  0  0  0  0  0  0  0  0  0  0
    0.8174    0.3168    0.0000 C   0  0  0  0  0  0  0  0  0  0  0  0
   -0.0071    0.2883    0.0000 C   0  0  0  0  0  0  0  0  0  0  0  0
   -0.2183    1.0858    0.0000 C   0  0  0  0  0  0  0  0  0  0  0  0
   -0.9735    1.4179    0.0000 C   0  0  0  0  0  0  0  0  0  0  0  0
   -1.7040    1.0346    0.0000 C   0  0  0  0  0  0  0  0  0  0  0  0
   -1.8598    0.2244    0.0000 C   0  0  0  0  0  0  0  0  0  0  0  0
   -2.6573    0.0132    0.0000 O   0  0  0  0  0  0  0  0  0  0  0  0
   -2.3664    1.5264    0.0000 O   0  0  0  0  0  0  0  0  0  0  0  0
   -3.1235    1.1987    0.0000 C   0  0  0  0  0  0  0  0  0  0  0  0
  1  2  2  0
  2  3  1  0
  2  5  1  0
  3  4  1  0
  6  5  1  6
  6  7  1  0
  6  9  1  0
  7  8  2  0
  7 23  1  0
  8 27  1  0
  9 10  1  0
 10 11  1  0
 11 12  1  0
 11 22  2  0
 12 13  2  0
 13 14  1  0
 13 20  1  0
 14 15  2  0
 14 18  1  0
 15 16  1  0
 15 22  1  0
 16 17  1  0
 18 19  1  0
 20 21  1  0
 22 23  1  0
 23 24  2  0
 24 25  1  0
 25 26  2  0
 26 27  1  0
 26 29  1  0
 27 28  2  0
 29 30  1  0
M  END
>  <DRUGBANK_ID>  (1) 
DB07574

>  <COMMON_NAME>  (1) 
2-MERCAPTO-N-[1,2,3,10-TETRAMETHOXY-9-OXO-5,6,7,9-TETRAHYDRO-BENZO[A]HEPTALEN-7-YL]ACETAMIDE

$$$$
