PPX
     RDKit          2D

 28 30  0  0  0  0  0  0  0  0999 V2000
   -1.9286   -1.0365    0.0000 N   0  0  0  0  0  0  0  0  0  0  0  0
   -1.1440   -0.7816    0.0000 C   0  0  0  0  0  0  0  0  0  0  0  0
   -0.5309   -1.3336    0.0000 C   0  0  0  0  0  0  0  0  0  0  0  0
   -0.7025   -2.1406    0.0000 C   0  0  0  0  0  0  0  0  0  0  0  0
   -0.0894   -2.6926    0.0000 C   0  0  0  0  0  0  0  0  0  0  0  0
   -1.4871   -2.3955    0.0000 C   0  0  0  0  0  0  0  0  0  0  0  0
   -0.2609   -3.4996    0.0000 C   0  0  0  0  0  0  0  0  0  0  0  0
   -1.6586   -3.2025    0.0000 C   0  0  0  0  0  0  0  0  0  0  0  0
   -1.0455   -3.7545    0.0000 C   0  0  0  0  0  0  0  0  0  0  0  0
   -0.9725    0.0254    0.0000 C   0  0  0  0  0  0  0  0  0  0  0  0
   -0.1879    0.2803    0.0000 O   0  0  0  0  0  0  0  0  0  0  0  0
   -1.5856    0.5774    0.0000 N   0  0  0  0  0  0  0  0  0  0  0  0
   -2.3926    0.4059    0.0000 C   0  0  0  0  0  0  0  0  0  0  0  0
   -1.4994    1.3979    0.0000 C   0  0  0  0  0  0  0  0  0  0  0  0
   -2.2530    1.7335    0.0000 C   0  0  0  0  0  0  0  0  0  0  0  0
   -2.8051    1.1204    0.0000 C   0  0  0  0  0  0  0  0  0  0  0  0
   -0.7849    1.8104    0.0000 C   0  0  0  0  0  0  0  0  0  0  0  0
   -0.7849    2.6354    0.0000 O   0  0  0  0  0  0  0  0  0  0  0  0
   -0.0704    1.3979    0.0000 N   0  0  0  0  0  0  0  0  0  0  0  0
    0.6441    1.8104    0.0000 C   0  0  0  0  0  0  0  0  0  0  0  0
    1.3585    1.3979    0.0000 C   0  0  0  0  0  0  0  0  0  0  0  0
    2.0730    1.8104    0.0000 N   0  0  0  0  0  0  0  0  0  0  0  0
    2.7875    1.3979    0.0000 C   0  0  0  0  0  0  0  0  0  0  0  0
    3.5019    1.8104    0.0000 C   0  0  0  0  0  0  0  0  0  0  0  0
    4.2164    1.3979    0.0000 C   0  0  0  0  0  0  0  0  0  0  0  0
    4.2164    0.5729    0.0000 N   0  0  0  0  0  0  0  0  0  0  0  0
    3.5019    0.1604    0.0000 C   0  0  0  0  0  0  0  0  0  0  0  0
    2.7875    0.5729    0.0000 C   0  0  0  0  0  0  0  0  0  0  0  0
  2  1  1  1
  2  3  1  0
  2 10  1  0
  3  4  1  0
  4  5  2  0
  4  6  1  0
  5  7  1  0
  6  8  2  0
  7  9  2  0
  8  9  1  0
 10 11  2  0
 10 12  1  0
 12 13  1  0
 12 14  1  0
 13 16  1  0
 14 15  1  0
 14 17  1  1
 15 16  1  0
 17 18  2  0
 17 19  1  0
 19 20  1  0
 20 21  1  0
 21 22  1  0
 22 23  1  0
 23 24  2  0
 23 28  1  0
 24 25  1  0
 25 26  2  0
 26 27  1  0
 27 28  2  0
M  END
>  <DRUGBANK_ID>  (1) 
DB08422

>  <COMMON_NAME>  (1) 
[PHENYLALANINYL-PROLINYL]-[2-(PYRIDIN-4-YLAMINO)-ETHYL]-AMINE

$$$$
