
     RDKit          2D

 19 21  0  0  0  0  0  0  0  0999 V2000
    0.0217    0.8513    0.0000 O   0  0  0  0  0  0  0  0  0  0  0  0
    1.9572   -0.0494    0.0000 O   0  0  0  0  0  0  0  0  0  0  0  0
    1.9603    1.7454    0.0000 O   0  0  0  0  0  0  0  0  0  0  0  0
    0.8074    2.9151    0.0000 O   0  0  0  0  0  0  0  0  0  0  0  0
   -1.2458   -2.9151    0.0000 O   0  0  0  0  0  0  0  0  0  0  0  0
    0.2492   -1.9290    0.0000 N   0  0  0  0  0  0  0  0  0  0  0  0
   -1.2458   -0.4400    0.0000 N   0  0  0  0  0  0  0  0  0  0  0  0
   -1.9603   -1.6776    0.0000 N   0  0  0  0  0  0  0  0  0  0  0  0
    0.5055    0.1829    0.0000 C   0  0  0  0  0  0  0  0  0  0  0  0
    1.2906    0.4365    0.0000 C   0  0  0  0  0  0  0  0  0  0  0  0
    1.2920    1.2616    0.0000 C   0  0  0  0  0  0  0  0  0  0  0  0
    0.5078    1.5180    0.0000 C   0  0  0  0  0  0  0  0  0  0  0  0
    0.2492   -0.6012    0.0000 C   0  0  0  0  0  0  0  0  0  0  0  0
    0.2542    2.3031    0.0000 C   0  0  0  0  0  0  0  0  0  0  0  0
   -0.5314   -0.8526    0.0000 C   0  0  0  0  0  0  0  0  0  0  0  0
    0.7307   -1.2650    0.0000 C   0  0  0  0  0  0  0  0  0  0  0  0
   -0.5314   -1.6776    0.0000 C   0  0  0  0  0  0  0  0  0  0  0  0
   -1.2458   -2.0901    0.0000 C   0  0  0  0  0  0  0  0  0  0  0  0
   -1.9603   -0.8526    0.0000 C   0  0  0  0  0  0  0  0  0  0  0  0
  1  9  1  0
  1 12  1  0
  4 14  1  0
  5 18  2  0
  6 16  1  0
  6 17  1  0
  7 15  1  0
  7 19  1  0
  8 18  1  0
  8 19  2  0
  9 10  1  0
  9 13  1  6
 10  2  1  1
 10 11  1  0
 11  3  1  1
 11 12  1  0
 12 14  1  6
 13 15  1  0
 13 16  2  0
 15 17  2  0
 17 18  1  0
M  END
>  <DRUGBANK_ID>  (1) 
DB02796

>  <SECONDARY_ACCESSION_NUMBERS>  (1) 
EXPT00357

>  <COMMON_NAME>  (1) 
9-deazainosine

>  <CAS_NUMBER>  (1) 
89458-19-5

$$$$
