CT1
     RDKit          2D

 22 22  0  0  0  0  0  0  0  0999 V2000
   -4.5718   -0.7655    0.0000 C   0  0  0  0  0  0  0  0  0  0  0  0
   -3.9773   -0.1934    0.0000 C   0  0  0  0  0  0  0  0  0  0  0  0
   -3.1847   -0.4223    0.0000 C   0  0  0  0  0  0  0  0  0  0  0  0
   -2.5902    0.1498    0.0000 C   0  0  0  0  0  0  0  0  0  0  0  0
   -0.8068   -1.1087    0.0000 O   0  0  0  0  0  0  0  0  0  0  0  0
   -1.2031    0.4930    0.0000 N   0  0  0  0  0  0  0  0  0  0  0  0
   -0.4105    0.2642    0.0000 C   0  0  0  0  0  0  0  0  0  0  0  0
   -0.2123   -0.5367    0.0000 O   0  0  0  0  0  0  0  0  0  0  0  0
    0.1840    0.8362    0.0000 O   0  0  0  0  0  0  0  0  0  0  0  0
    0.9766    0.6074    0.0000 C   0  0  0  0  0  0  0  0  0  0  0  0
    1.5711    1.1794    0.0000 C   0  0  0  0  0  0  0  0  0  0  0  0
    2.3637    0.9506    0.0000 C   0  0  0  0  0  0  0  0  0  0  0  0
    2.9582    1.5227    0.0000 C   0  0  0  0  0  0  0  0  0  0  0  0
    3.7508    1.2938    0.0000 C   0  0  0  0  0  0  0  0  0  0  0  0
    3.9490    0.4930    0.0000 C   0  0  0  0  0  0  0  0  0  0  0  0
    3.3545   -0.0790    0.0000 C   0  0  0  0  0  0  0  0  0  0  0  0
    2.5619    0.1498    0.0000 C   0  0  0  0  0  0  0  0  0  0  0  0
    1.1748   -0.1934    0.0000 C   0  0  0  0  0  0  0  0  0  0  0  0
    1.9674   -0.4223    0.0000 C   0  0  0  0  0  0  0  0  0  0  0  0
    0.5803   -0.7655    0.0000 C   0  0  0  0  0  0  0  0  0  0  0  0
   -1.5994   -0.8799    0.0000 C   0  0  0  0  0  0  0  0  0  0  0  0
   -1.7976   -0.0790    0.0000 C   0  0  0  0  0  0  0  0  0  0  0  0
  1  2  1  0
  2  3  1  0
  3  4  1  0
 22  4  1  6
  5 21  2  0
  6  7  1  0
  7  8  2  0
  7  9  1  0
 10  9  1  0
 10 11  1  6
 10 18  1  0
 11 12  1  0
 12 13  2  0
 12 17  1  0
 13 14  1  0
 14 15  2  0
 15 16  1  0
 16 17  2  0
 18 19  1  0
 18 20  1  0
 21 22  1  0
 22  6  1  0
M  END
>  <DRUGBANK_ID>  (1) 
DB07592

>  <COMMON_NAME>  (1) 
(2R)-3-Methyl-1-phenyl-2-butanyl [(2S)-1-oxo-2-hexanyl]carbamate

$$$$
