
     RDKit          2D

  5  4  0  0  0  0  0  0  0  0999 V2000
   -0.1914   -0.7145    0.0000 C   0  0  0  0  0  0  0  0  0  0  0  0
    0.5230   -1.1270    0.0000 C   0  0  0  0  0  0  0  0  0  0  0  0
    1.2375   -0.7145    0.0000 C   0  0  0  0  0  0  0  0  0  0  0  0
    1.9520   -1.1270    0.0000 C   0  0  0  0  0  0  0  0  0  0  0  0
    2.6666   -0.7145    0.0000 Cl  0  0  0  0  0  0  0  0  0  0  0  0
  2  1  1  0
  3  2  1  0
  4  3  1  0
  5  4  1  0
M  END
>  <DRUGBANK_ID>  (1) 
DB11534

>  <COMMON_NAME>  (1) 
Butyl chloride

>  <CAS_NUMBER>  (1) 
109-69-3

>  <UNII>  (1) 
ZP7R667SGD

>  <SYNONYMS>  (1) 
n-Butyl chloride; n-Propylcarbinyl chloride

$$$$
