
     RDKit          2D

 31 33  0  0  0  0  0  0  0  0999 V2000
    2.3094    0.5175    0.0000 C   0  0  0  0  0  0  0  0  0  0  0  0
    2.1661   -0.2949    0.0000 N   0  0  0  0  0  0  0  0  0  0  0  0
    2.7982   -0.8253    0.0000 C   0  0  0  0  0  0  0  0  0  0  0  0
    3.5734   -0.5431    0.0000 C   0  0  0  0  0  0  0  0  0  0  0  0
    3.7167    0.2693    0.0000 C   0  0  0  0  0  0  0  0  0  0  0  0
    3.0847    0.7996    0.0000 C   0  0  0  0  0  0  0  0  0  0  0  0
   -1.1805    1.8728    0.0000 C   0  0  0  0  0  0  0  0  0  0  0  0
   -1.1805    1.0478    0.0000 C   0  0  0  0  0  0  0  0  0  0  0  0
   -0.4660    0.6353    0.0000 C   0  0  0  0  0  0  0  0  0  0  0  0
    0.2484    1.0478    0.0000 C   0  0  0  0  0  0  0  0  0  0  0  0
    0.2484    1.8728    0.0000 N   0  0  0  0  0  0  0  0  0  0  0  0
   -0.4660    2.2853    0.0000 S   0  0  0  0  0  0  0  0  0  0  0  0
   -2.6095    1.8728    0.0000 C   0  0  0  0  0  0  0  0  0  0  0  0
   -2.6095    1.0478    0.0000 C   0  0  0  0  0  0  0  0  0  0  0  0
   -1.8950    0.6353    0.0000 C   0  0  0  0  0  0  0  0  0  0  0  0
   -1.8950    2.2853    0.0000 C   0  0  0  0  0  0  0  0  0  0  0  0
   -0.9963    2.9173    0.0000 O   0  0  0  0  0  0  0  0  0  0  0  0
    0.0642    2.9174    0.0000 O   0  0  0  0  0  0  0  0  0  0  0  0
    0.9629    2.2853    0.0000 C   0  0  0  0  0  0  0  0  0  0  0  0
    0.9629    0.6353    0.0000 C   0  0  0  0  0  0  0  0  0  0  0  0
    1.6774    1.0478    0.0000 N   0  0  0  0  0  0  0  0  0  0  0  0
    0.9629   -0.1897    0.0000 O   0  0  0  0  0  0  0  0  0  0  0  0
   -0.4660   -0.1897    0.0000 O   0  0  0  0  0  0  0  0  0  0  0  0
   -1.2412   -0.4719    0.0000 C   0  0  0  0  0  0  0  0  0  0  0  0
   -1.3845   -1.2844    0.0000 O   0  0  0  0  0  0  0  0  0  0  0  0
   -2.1970   -1.4276    0.0000 C   0  0  0  0  0  0  0  0  0  0  0  0
   -2.4792   -2.2029    0.0000 O   0  0  0  0  0  0  0  0  0  0  0  0
   -3.3042   -2.2029    0.0000 C   0  0  0  0  0  0  0  0  0  0  0  0
   -3.7167   -2.9174    0.0000 C   0  0  0  0  0  0  0  0  0  0  0  0
   -2.7273   -0.7956    0.0000 O   0  0  0  0  0  0  0  0  0  0  0  0
   -1.6837   -0.1006    0.0000 C   0  0  0  0  0  0  0  0  0  0  0  0
  1  2  2  0
  2  3  1  0
  3  4  2  0
  4  5  1  0
  5  6  2  0
  6  1  1  0
  7 16  2  0
  7 12  1  0
  7  8  1  0
  8  9  1  0
  9 10  2  0
  9 23  1  0
 10 20  1  0
 10 11  1  0
 11 19  1  0
 11 12  1  0
 12 17  2  0
 12 18  2  0
 13 14  2  0
 14 15  1  0
 15  8  2  0
 16 13  1  0
 20 21  1  0
 20 22  2  0
 21  1  1  0
 23 24  1  0
 24 25  1  0
 24 31  1  0
 25 26  1  0
 26 27  1  0
 26 30  2  0
 27 28  1  0
 28 29  1  0
M  END
>  <DRUGBANK_ID>  (1) 
DB16877

>  <COMMON_NAME>  (1) 
Ampiroxicam

>  <CAS_NUMBER>  (1) 
99464-64-9

>  <UNII>  (1) 
0PV32JZB1J

>  <SYNONYMS>  (1) 
Ampiroxicam

$$$$
