IHH
     RDKit          2D

 29 33  0  0  0  0  0  0  0  0999 V2000
   -2.0939    0.5476    0.0000 C   0  0  0  0  0  0  0  0  0  0  0  0
   -2.0939    1.3726    0.0000 C   0  0  0  0  0  0  0  0  0  0  0  0
   -1.3794    1.7851    0.0000 C   0  0  0  0  0  0  0  0  0  0  0  0
   -1.3794    0.1351    0.0000 C   0  0  0  0  0  0  0  0  0  0  0  0
   -0.6649    0.5476    0.0000 C   0  0  0  0  0  0  0  0  0  0  0  0
   -0.6649    1.3726    0.0000 C   0  0  0  0  0  0  0  0  0  0  0  0
    0.7640    1.3726    0.0000 C   0  0  0  0  0  0  0  0  0  0  0  0
    0.0495    0.1351    0.0000 C   0  0  0  0  0  0  0  0  0  0  0  0
    2.1930    1.3726    0.0000 C   0  0  0  0  0  0  0  0  0  0  0  0
    2.9074    1.7851    0.0000 C   0  0  0  0  0  0  0  0  0  0  0  0
    3.6219    1.3726    0.0000 C   0  0  0  0  0  0  0  0  0  0  0  0
    3.6219    0.5476    0.0000 C   0  0  0  0  0  0  0  0  0  0  0  0
   -3.5448   -1.6293    0.0000 C   0  0  0  0  0  0  0  0  0  0  0  0
   -3.4586   -0.8088    0.0000 C   0  0  0  0  0  0  0  0  0  0  0  0
   -2.7911   -1.2937    0.0000 C   0  0  0  0  0  0  0  0  0  0  0  0
   -1.9706   -1.3800    0.0000 C   0  0  0  0  0  0  0  0  0  0  0  0
   -1.4186   -0.7669    0.0000 C   0  0  0  0  0  0  0  0  0  0  0  0
   -1.5581   -2.0945    0.0000 N   0  0  0  0  0  0  0  0  0  0  0  0
   -0.7512   -1.9229    0.0000 N   0  0  0  0  0  0  0  0  0  0  0  0
   -0.6649   -1.1024    0.0000 C   0  0  0  0  0  0  0  0  0  0  0  0
    0.0495   -0.6899    0.0000 N   0  0  0  0  0  0  0  0  0  0  0  0
    0.7640    0.5476    0.0000 N   0  0  0  0  0  0  0  0  0  0  0  0
    0.0495    1.7851    0.0000 N   0  0  0  0  0  0  0  0  0  0  0  0
    1.4785    1.7851    0.0000 N   0  0  0  0  0  0  0  0  0  0  0  0
    2.1930    0.5476    0.0000 C   0  0  0  0  0  0  0  0  0  0  0  0
    2.9074    0.1351    0.0000 C   0  0  0  0  0  0  0  0  0  0  0  0
    4.3364    0.1351    0.0000 C   0  0  0  0  0  0  0  0  0  0  0  0
    5.0508    0.5476    0.0000 C   0  0  0  0  0  0  0  0  0  0  0  0
    5.7653    0.9601    0.0000 N   0  0  0  0  0  0  0  0  0  0  0  0
  1  2  2  0
  1  4  1  0
  2  3  1  0
  3  6  2  0
  4  5  2  0
  5  6  1  0
  5  8  1  0
  6 23  1  0
  7 22  1  0
  7 23  2  0
  7 24  1  0
  8 21  1  0
  8 22  2  0
  9 10  2  0
  9 24  1  0
  9 25  1  0
 10 11  1  0
 11 12  2  0
 12 26  1  0
 12 27  1  0
 13 14  1  0
 13 15  1  0
 14 15  1  0
 15 16  1  0
 16 17  2  0
 16 18  1  0
 17 20  1  0
 18 19  1  0
 19 20  2  0
 20 21  1  0
 25 26  2  0
 27 28  1  0
 28 29  3  0
M  END
>  <DRUGBANK_ID>  (1) 
DB07966

>  <COMMON_NAME>  (1) 
[4-({4-[(5-cyclopropyl-1H-pyrazol-3-yl)amino]quinazolin-2-yl}amino)phenyl]acetonitrile

$$$$
