
     RDKit          2D

 30 33  0  0  0  0  0  0  0  0999 V2000
    0.8057   -2.6946    0.0000 N   0  0  0  0  0  0  0  0  0  0  0  0
    0.3931   -3.4091    0.0000 N   0  0  0  0  0  0  0  0  0  0  0  0
   -0.4318   -3.4091    0.0000 C   0  0  0  0  0  0  0  0  0  0  0  0
   -0.8443   -2.6946    0.0000 N   0  0  0  0  0  0  0  0  0  0  0  0
   -0.4318   -1.9801    0.0000 C   0  0  0  0  0  0  0  0  0  0  0  0
    0.3932   -1.9801    0.0000 C   0  0  0  0  0  0  0  0  0  0  0  0
    0.9452   -1.3671    0.0000 C   0  0  0  0  0  0  0  0  0  0  0  0
    1.6988   -1.7026    0.0000 C   0  0  0  0  0  0  0  0  0  0  0  0
    1.6126   -2.5231    0.0000 C   0  0  0  0  0  0  0  0  0  0  0  0
    2.4133   -1.2901    0.0000 C   0  0  0  0  0  0  0  0  0  0  0  0
    2.4133   -0.4651    0.0000 O   0  0  0  0  0  0  0  0  0  0  0  0
    3.1278   -1.7026    0.0000 N   0  0  0  0  0  0  0  0  0  0  0  0
    3.8423   -1.2901    0.0000 C   0  0  0  0  0  0  0  0  0  0  0  0
    4.5568   -1.7027    0.0000 C   0  0  0  0  0  0  0  0  0  0  0  0
    5.2712   -1.2902    0.0000 C   0  0  0  0  0  0  0  0  0  0  0  0
    0.7736   -0.5601    0.0000 C   0  0  0  0  0  0  0  0  0  0  0  0
   -0.8443   -1.2657    0.0000 N   0  0  0  0  0  0  0  0  0  0  0  0
   -1.6693   -1.2657    0.0000 C   0  0  0  0  0  0  0  0  0  0  0  0
   -2.0818   -1.9802    0.0000 C   0  0  0  0  0  0  0  0  0  0  0  0
   -2.9067   -1.9801    0.0000 C   0  0  0  0  0  0  0  0  0  0  0  0
   -3.3192   -1.2657    0.0000 C   0  0  0  0  0  0  0  0  0  0  0  0
   -2.9068   -0.5512    0.0000 C   0  0  0  0  0  0  0  0  0  0  0  0
   -2.0818   -0.5512    0.0000 C   0  0  0  0  0  0  0  0  0  0  0  0
   -3.3193    0.1631    0.0000 C   0  0  0  0  0  0  0  0  0  0  0  0
   -2.9068    0.8776    0.0000 O   0  0  0  0  0  0  0  0  0  0  0  0
   -4.1442    0.1632    0.0000 N   0  0  0  0  0  0  0  0  0  0  0  0
   -4.5567    0.8776    0.0000 C   0  0  0  0  0  0  0  0  0  0  0  0
   -4.5568    1.7027    0.0000 C   0  0  0  0  0  0  0  0  0  0  0  0
   -5.2712    1.2902    0.0000 C   0  0  0  0  0  0  0  0  0  0  0  0
   -1.6693   -2.6946    0.0000 C   0  0  0  0  0  0  0  0  0  0  0  0
  1  2  1  0
  3  2  2  0
  3  4  1  0
  5  4  2  0
  5 17  1  0
  5  6  1  0
  6  1  1  0
  6  7  2  0
  7  8  1  0
  8  9  2  0
  9  1  1  0
 10  8  1  0
 10 11  2  0
 10 12  1  0
 13 12  1  0
 13 14  1  0
 14 15  1  0
 16  7  1  0
 18 17  1  0
 18 23  1  0
 18 19  2  0
 19 20  1  0
 19 30  1  0
 20 21  2  0
 21 22  1  0
 22 24  1  0
 22 23  2  0
 24 26  1  0
 24 25  2  0
 27 26  1  0
 27 29  1  0
 27 28  1  0
 28 29  1  0
M  END
>  <DRUGBANK_ID>  (1) 
DB12696

>  <COMMON_NAME>  (1) 
BMS-582949

>  <CAS_NUMBER>  (1) 
623152-17-0

>  <UNII>  (1) 
CR743OME9E

$$$$
