
     RDKit          2D

 35 36  0  0  1  0  0  0  0  0999 V2000
   -7.4876   -6.4019    0.0000 C   0  0  0  0  0  0  0  0  0  0  0  0
   -7.3161   -5.5949    0.0000 C   0  0  0  0  0  0  0  0  0  0  0  0
   -7.9292   -5.0429    0.0000 C   0  0  0  0  0  0  0  0  0  0  0  0
   -6.5315   -5.3400    0.0000 C   0  0  0  0  0  0  0  0  0  0  0  0
   -5.9184   -5.8920    0.0000 C   0  0  0  0  0  0  0  0  0  0  0  0
   -6.0899   -6.6990    0.0000 N   0  0  0  0  0  0  0  0  0  0  0  0
   -6.8745   -6.9539    0.0000 C   0  0  0  0  0  0  0  0  0  0  0  0
   -7.6950   -6.8677    0.0000 O   0  0  0  0  0  0  0  0  0  0  0  0
   -7.0461   -7.7609    0.0000 C   0  0  0  0  0  0  0  0  0  0  0  0
   -6.4330   -8.3129    0.0000 C   0  0  0  0  0  0  0  0  0  0  0  0
   -6.6045   -9.1199    0.0000 C   0  0  0  0  0  0  0  0  0  0  0  0
   -7.3891   -9.3748    0.0000 C   0  0  0  0  0  0  0  0  0  0  0  0
   -8.0022   -8.8228    0.0000 C   0  0  0  0  0  0  0  0  0  0  0  0
   -7.8307   -8.0158    0.0000 C   0  0  0  0  0  0  0  0  0  0  0  0
   -7.5606  -10.1818    0.0000 N   0  0  0  0  0  0  0  0  0  0  0  0
   -8.3453  -10.4367    0.0000 O   0  0  0  0  0  0  0  0  0  0  0  0
   -6.9476  -10.7338    0.0000 O   0  0  0  0  0  0  0  0  0  0  0  0
   -5.1338   -5.6370    0.0000 C   0  0  0  0  0  0  0  0  0  0  0  0
   -4.5207   -6.1891    0.0000 O   0  0  0  0  0  0  0  0  0  0  0  0
   -4.9622   -4.8301    0.0000 N   0  0  0  0  0  0  0  0  0  0  0  0
   -5.5143   -4.2170    0.0000 C   0  0  0  0  0  0  0  0  0  0  0  0
   -5.1018   -3.5025    0.0000 C   0  0  0  0  0  0  0  0  0  0  0  0
   -4.2948   -3.6740    0.0000 C   0  0  0  0  0  0  0  0  0  0  0  0
   -4.2086   -4.4945    0.0000 C   0  0  0  0  0  0  0  0  0  0  0  0
   -3.4941   -4.9070    0.0000 C   0  0  0  0  0  0  0  0  0  0  0  0
   -3.4941   -5.7320    0.0000 O   0  0  0  0  0  0  0  0  0  0  0  0
   -2.7796   -4.4945    0.0000 N   0  0  0  0  0  0  0  0  0  0  0  0
   -2.0652   -4.9070    0.0000 C   0  0  0  0  0  0  0  0  0  0  0  0
   -1.3507   -4.4945    0.0000 C   0  0  0  0  0  0  0  0  0  0  0  0
   -0.6362   -4.9070    0.0000 C   0  0  0  0  0  0  0  0  0  0  0  0
    0.0783   -4.4945    0.0000 C   0  0  0  0  0  0  0  0  0  0  0  0
    0.7927   -4.9070    0.0000 N   0  0  0  0  0  0  0  0  0  0  0  0
    1.5072   -4.4945    0.0000 C   0  0  0  0  0  0  0  0  0  0  0  0
    1.5072   -3.6695    0.0000 N   0  0  0  0  0  0  0  0  0  0  0  0
    2.2217   -4.9070    0.0000 N   0  0  0  0  0  0  0  0  0  0  0  0
  1  2  1  0
  2  3  1  0
  2  4  1  0
  5  4  1  1
  5  6  1  0
  5 18  1  0
  6  7  1  0
  7  8  2  0
  7  9  1  0
  9 10  2  0
  9 14  1  0
 10 11  1  0
 11 12  2  0
 12 13  1  0
 12 15  1  0
 13 14  2  0
 15 16  1  0
 15 17  2  0
 18 19  2  0
 18 20  1  0
 20 21  1  0
 20 24  1  0
 21 22  1  0
 22 23  1  0
 23 24  1  0
 24 25  1  1
 25 26  2  0
 25 27  1  0
 27 28  1  0
 28 29  1  0
 29 30  1  0
 30 31  1  0
 31 32  1  0
 32 33  2  3
 33 34  1  0
 33 35  1  0
M  CHG  2  15   1  16  -1
M  END
>  <DRUGBANK_ID>  (1) 
DB04771

>  <COMMON_NAME>  (1) 
1-GUANIDINO-4-(N-NITRO-BENZOYLAMINO-L-LEUCYL-L-PROLYLAMINO)BUTANE

$$$$
