GTC
     RDKit          2D

 15 16  0  0  0  0  0  0  0  0999 V2000
    0.4038   -0.2813    0.0000 C   0  0  0  0  0  0  0  0  0  0  0  0
    0.5532   -1.7024    0.0000 C   0  0  0  0  0  0  0  0  0  0  0  0
    1.2243   -0.1950    0.0000 C   0  0  0  0  0  0  0  0  0  0  0  0
    1.7092   -0.8625    0.0000 C   0  0  0  0  0  0  0  0  0  0  0  0
   -1.1610    1.1708    0.0000 C   0  0  0  0  0  0  0  0  0  0  0  0
    2.3804    0.6449    0.0000 O   0  0  0  0  0  0  0  0  0  0  0  0
    1.5599    0.5586    0.0000 C   0  0  0  0  0  0  0  0  0  0  0  0
    1.0750    1.2261    0.0000 O   0  0  0  0  0  0  0  0  0  0  0  0
    1.3737   -1.6161    0.0000 C   0  0  0  0  0  0  0  0  0  0  0  0
    0.0683   -1.0349    0.0000 C   0  0  0  0  0  0  0  0  0  0  0  0
   -0.0811    0.3862    0.0000 C   0  0  0  0  0  0  0  0  0  0  0  0
    0.1739    1.1708    0.0000 N   0  0  0  0  0  0  0  0  0  0  0  0
   -0.4936    1.6557    0.0000 N   0  0  0  0  0  0  0  0  0  0  0  0
   -0.9061    0.3862    0.0000 N   0  0  0  0  0  0  0  0  0  0  0  0
   -1.9456    1.4257    0.0000 S   0  0  0  0  0  0  0  0  0  0  0  0
  1 11  1  6
  1  3  1  0
  2 10  1  0
  2  9  1  0
  3  7  1  6
  4  3  1  0
  5 15  2  0
  6  7  2  0
  7  8  1  0
  9  4  1  0
 10  1  1  0
 11 14  1  0
 12 11  2  0
 12 13  1  0
 13  5  1  0
 14  5  1  0
M  END
>  <DRUGBANK_ID>  (1) 
DB07850

>  <COMMON_NAME>  (1) 
(1R,2S)-2-(5-thioxo-4,5-dihydro-1H-1,2,4-triazol-3-yl)cyclohexanecarboxylic acid

$$$$
