AB3
     RDKit          2D

 21 23  0  0  0  0  0  0  0  0999 V2000
   -0.4921    2.7222    0.0000 C   0  0  0  0  0  0  0  0  0  0  0  0
   -0.2371    1.9376    0.0000 C   0  0  0  0  0  0  0  0  0  0  0  0
   -1.0218    1.6827    0.0000 C   0  0  0  0  0  0  0  0  0  0  0  0
    0.5475    2.1926    0.0000 C   0  0  0  0  0  0  0  0  0  0  0  0
    0.0178    1.1530    0.0000 N   0  0  0  0  0  0  0  0  0  0  0  0
   -0.4671    0.4856    0.0000 N   0  0  0  0  0  0  0  0  0  0  0  0
    0.8024    0.8981    0.0000 C   0  0  0  0  0  0  0  0  0  0  0  0
    1.5169    1.3106    0.0000 N   0  0  0  0  0  0  0  0  0  0  0  0
    2.2314    0.8981    0.0000 C   0  0  0  0  0  0  0  0  0  0  0  0
    2.2314    0.0731    0.0000 N   0  0  0  0  0  0  0  0  0  0  0  0
    1.5169   -0.3394    0.0000 C   0  0  0  0  0  0  0  0  0  0  0  0
    1.5169   -1.1644    0.0000 N   0  0  0  0  0  0  0  0  0  0  0  0
    0.8024    0.0731    0.0000 C   0  0  0  0  0  0  0  0  0  0  0  0
    0.0178   -0.1819    0.0000 C   0  0  0  0  0  0  0  0  0  0  0  0
   -0.2371   -0.9665    0.0000 C   0  0  0  0  0  0  0  0  0  0  0  0
    0.3149   -1.5796    0.0000 C   0  0  0  0  0  0  0  0  0  0  0  0
   -1.0441   -1.1380    0.0000 C   0  0  0  0  0  0  0  0  0  0  0  0
   -1.2990   -1.9226    0.0000 C   0  0  0  0  0  0  0  0  0  0  0  0
   -0.7470   -2.5357    0.0000 C   0  0  0  0  0  0  0  0  0  0  0  0
    0.0600   -2.3642    0.0000 C   0  0  0  0  0  0  0  0  0  0  0  0
    0.6120   -2.9773    0.0000 O   0  0  0  0  0  0  0  0  0  0  0  0
  1  2  1  0
  2  3  1  0
  2  4  1  0
  2  5  1  0
  5  6  1  0
  5  7  1  0
  6 14  2  0
  7  8  2  0
  7 13  1  0
  8  9  1  0
  9 10  2  0
 10 11  1  0
 11 12  1  0
 11 13  2  0
 13 14  1  0
 14 15  1  0
 15 16  2  0
 15 17  1  0
 16 20  1  0
 17 18  2  0
 18 19  1  0
 19 20  2  0
 20 21  1  0
M  END
>  <DRUGBANK_ID>  (1) 
DB04463

>  <SECONDARY_ACCESSION_NUMBERS>  (1) 
EXPT00389

>  <COMMON_NAME>  (1) 
3-(4-Amino-1-Tert-Butyl-1h-Pyrazolo[3,4-D]Pyrimidin-3-Yl)Phenol

$$$$
