
     RDKit          2D

 21 20  0  0  0  0  0  0  0  0999 V2000
   -3.5724   -0.8238    0.0000 O   0  0  0  0  0  0  0  0  0  0  0  0
   -2.8573   -0.4119    0.0000 C   0  0  0  0  0  0  0  0  0  0  0  0
   -2.1423   -0.8238    0.0000 C   0  0  0  0  0  0  0  0  0  0  0  0
   -2.1423   -1.6476    0.0000 O   0  0  0  0  0  0  0  0  0  0  0  0
   -1.4276   -0.4119    0.0000 C   0  0  0  0  0  0  0  0  0  0  0  0
   -1.4276    0.4119    0.0000 O   0  0  0  0  0  0  0  0  0  0  0  0
   -0.7125   -0.8238    0.0000 C   0  0  0  0  0  0  0  0  0  0  0  0
   -0.0022   -0.4119    0.0000 C   0  0  0  0  0  0  0  0  0  0  0  0
    0.7127   -0.8238    0.0000 C   0  0  0  0  0  0  0  0  0  0  0  0
    1.4276   -0.4119    0.0000 C   0  0  0  0  0  0  0  0  0  0  0  0
    2.1425   -0.8238    0.0000 C   0  0  0  0  0  0  0  0  0  0  0  0
    2.8575   -0.4119    0.0000 C   0  0  0  0  0  0  0  0  0  0  0  0
    3.5724   -0.8238    0.0000 O   0  0  0  0  0  0  0  0  0  0  0  0
    2.8575    0.4119    0.0000 O   0  0  0  0  0  0  0  0  0  0  0  0
    2.1425   -1.6476    0.0000 O   0  0  0  0  0  0  0  0  0  0  0  0
    0.7127   -1.6476    0.0000 O   0  0  0  0  0  0  0  0  0  0  0  0
   -0.0022    0.4119    0.0000 N   0  0  0  0  0  0  0  0  0  0  0  0
    0.7127    0.8238    0.0000 C   0  0  0  0  0  0  0  0  0  0  0  0
    1.4276    0.4119    0.0000 C   0  0  0  0  0  0  0  0  0  0  0  0
    0.7127    1.6476    0.0000 O   0  0  0  0  0  0  0  0  0  0  0  0
   -0.7125   -1.6476    0.0000 O   0  0  0  0  0  0  0  0  0  0  0  0
  1  2  1  0
  2  3  1  0
  3  4  1  6
  3  5  1  0
  5  6  1  1
  5  7  1  0
  7  8  1  0
  7 21  1  1
  8  9  1  0
  8 17  1  6
  9 10  1  0
  9 16  1  6
 10 11  1  0
 11 12  1  0
 11 15  2  0
 12 13  1  0
 12 14  2  0
 17 18  1  0
 18 19  1  0
 18 20  2  0
M  END
>  <DRUGBANK_ID>  (1) 
DB11797

>  <COMMON_NAME>  (1) 
Aceneuramic acid

>  <CAS_NUMBER>  (1) 
131-48-6

>  <UNII>  (1) 
GZP2782OP0

>  <SYNONYMS>  (1) 
Aceneuramic acid; Acidium aceneuramicum; Acido aceneuramico

$$$$
