
     RDKit          2D

 24 24  0  0  0  0  0  0  0  0999 V2000
   -0.2461    1.3936    0.0000 C   0  0  0  0  0  0  0  0  0  0  0  0
   -0.2199    0.6024    0.0000 O   0  0  0  0  0  0  0  0  0  0  0  0
    0.4661    1.8007    0.0000 C   0  0  0  0  0  0  0  0  0  0  0  0
   -0.9488    1.8499    0.0000 C   0  0  0  0  0  0  0  0  0  0  0  0
   -0.2626   -0.3068    0.0000 C   0  0  0  0  0  0  0  0  0  0  0  0
    1.1818    1.3903    0.0000 C   0  0  0  0  0  0  0  0  0  0  0  0
    0.4727    2.6476    0.0000 O   0  0  0  0  0  0  0  0  0  0  0  0
   -1.6611    1.4395    0.0000 C   0  0  0  0  0  0  0  0  0  0  0  0
   -0.9389    2.6805    0.0000 O   0  0  0  0  0  0  0  0  0  0  0  0
   -0.9488   -0.6745    0.0000 O   0  0  0  0  0  0  0  0  0  0  0  0
    0.4727   -0.7567    0.0000 C   0  0  0  0  0  0  0  0  0  0  0  0
    1.9138    1.8072    0.0000 C   0  0  0  0  0  0  0  0  0  0  0  0
    1.1916    0.7074    0.0000 O   0  0  0  0  0  0  0  0  0  0  0  0
   -2.4030    1.8564    0.0000 O   0  0  0  0  0  0  0  0  0  0  0  0
   -0.9652   -1.5183    0.0000 C   0  0  0  0  0  0  0  0  0  0  0  0
    0.4531   -1.6037    0.0000 C   0  0  0  0  0  0  0  0  0  0  0  0
    1.1653   -0.4021    0.0000 O   0  0  0  0  0  0  0  0  0  0  0  0
    2.4030    1.5708    0.0000 O   0  0  0  0  0  0  0  0  0  0  0  0
    1.9073    2.6543    0.0000 O   0  0  0  0  0  0  0  0  0  0  0  0
   -0.2758   -1.9746    0.0000 C   0  0  0  0  0  0  0  0  0  0  0  0
   -1.4345   -1.9977    0.0000 C   0  0  0  0  0  0  0  0  0  0  0  0
    1.0505   -1.9877    0.0000 O   0  0  0  0  0  0  0  0  0  0  0  0
   -0.2922   -2.6805    0.0000 O   0  0  0  0  0  0  0  0  0  0  0  0
   -2.0747   -1.6791    0.0000 O   0  0  0  0  0  0  0  0  0  0  0  0
  1  2  1  6
  1  3  1  0
  1  4  1  0
  3  6  1  0
  3  7  1  6
  4  8  1  0
  4  9  1  1
  5  2  1  1
  5 10  1  0
  5 11  1  0
  6 12  1  0
  6 13  1  6
  8 14  1  0
 10 15  1  0
 11 16  1  0
 11 17  1  6
 12 18  1  0
 12 19  2  0
 15 20  1  0
 15 21  1  1
 16 22  1  1
 16 20  1  0
 20 23  1  1
 21 24  1  0
M  END
>  <DRUGBANK_ID>  (1) 
DB16621

>  <COMMON_NAME>  (1) 
Lactobionic acid

>  <CAS_NUMBER>  (1) 
96-82-2

>  <UNII>  (1) 
65R938S4DV

>  <SYNONYMS>  (1) 
Lactobionate

$$$$
