
     RDKit          2D

 34 38  0  0  0  0  0  0  0  0999 V2000
   10.4970    4.4104    0.0000 F   0  0  0  0  0  0  0  0  0  0  0  0
   10.4970    3.5854    0.0000 C   0  0  0  0  0  0  0  0  0  0  0  0
   11.2115    3.1729    0.0000 C   0  0  0  0  0  0  0  0  0  0  0  0
   11.2115    2.3479    0.0000 C   0  0  0  0  0  0  0  0  0  0  0  0
   10.4970    1.9354    0.0000 C   0  0  0  0  0  0  0  0  0  0  0  0
   10.4970    1.1104    0.0000 C   0  0  0  0  0  0  0  0  0  0  0  0
   11.2115    0.6979    0.0000 C   0  0  0  0  0  0  0  0  0  0  0  0
   11.9259    1.1104    0.0000 N   0  0  0  0  0  0  0  0  0  0  0  0
   12.6404    0.6979    0.0000 N   0  0  0  0  0  0  0  0  0  0  0  0
   12.6404   -0.1271    0.0000 C   0  0  0  0  0  0  0  0  0  0  0  0
   13.3549   -0.5396    0.0000 O   0  0  0  0  0  0  0  0  0  0  0  0
   11.9259   -0.5396    0.0000 C   0  0  0  0  0  0  0  0  0  0  0  0
   11.9259   -1.3646    0.0000 C   0  0  0  0  0  0  0  0  0  0  0  0
   11.2115   -1.7771    0.0000 C   0  0  0  0  0  0  0  0  0  0  0  0
   10.4970   -1.3646    0.0000 C   0  0  0  0  0  0  0  0  0  0  0  0
   10.4970   -0.5396    0.0000 C   0  0  0  0  0  0  0  0  0  0  0  0
   11.2115   -0.1271    0.0000 C   0  0  0  0  0  0  0  0  0  0  0  0
    9.7825    2.3479    0.0000 C   0  0  0  0  0  0  0  0  0  0  0  0
    9.7825    3.1729    0.0000 C   0  0  0  0  0  0  0  0  0  0  0  0
    9.0681    3.5854    0.0000 C   0  0  0  0  0  0  0  0  0  0  0  0
    9.0681    4.4104    0.0000 O   0  0  0  0  0  0  0  0  0  0  0  0
    8.3536    3.1729    0.0000 N   0  0  0  0  0  0  0  0  0  0  0  0
    8.3536    2.3479    0.0000 C   0  0  0  0  0  0  0  0  0  0  0  0
    7.6391    1.9354    0.0000 C   0  0  0  0  0  0  0  0  0  0  0  0
    6.9246    2.3479    0.0000 N   0  0  0  0  0  0  0  0  0  0  0  0
    6.1400    2.0930    0.0000 N   0  0  0  0  0  0  0  0  0  0  0  0
    5.6551    2.7604    0.0000 C   0  0  0  0  0  0  0  0  0  0  0  0
    6.1400    3.4279    0.0000 N   0  0  0  0  0  0  0  0  0  0  0  0
    6.9246    3.1729    0.0000 C   0  0  0  0  0  0  0  0  0  0  0  0
    7.6391    3.5854    0.0000 C   0  0  0  0  0  0  0  0  0  0  0  0
    4.8301    2.7604    0.0000 C   0  0  0  0  0  0  0  0  0  0  0  0
    4.0051    2.7604    0.0000 F   0  0  0  0  0  0  0  0  0  0  0  0
    4.8301    3.5854    0.0000 F   0  0  0  0  0  0  0  0  0  0  0  0
    4.8301    1.9354    0.0000 F   0  0  0  0  0  0  0  0  0  0  0  0
  1  2  1  0
  2  3  2  0
  2 19  1  0
  3  4  1  0
  4  5  2  0
  5  6  1  0
  5 18  1  0
  6  7  1  0
  7  8  2  0
  7 17  1  0
  8  9  1  0
  9 10  1  0
 10 11  2  0
 10 12  1  0
 12 13  1  0
 12 17  2  0
 13 14  2  0
 14 15  1  0
 15 16  2  0
 16 17  1  0
 18 19  2  0
 19 20  1  0
 20 21  2  0
 20 22  1  0
 22 23  1  0
 22 30  1  0
 23 24  1  0
 24 25  1  0
 25 26  1  0
 25 29  1  0
 26 27  2  0
 27 28  1  0
 27 31  1  0
 28 29  2  0
 29 30  1  0
 31 32  1  0
 31 33  1  0
 31 34  1  0
M  END
>  <DRUGBANK_ID>  (1) 
DB15637

>  <COMMON_NAME>  (1) 
Fluzoparib

>  <CAS_NUMBER>  (1) 
1358715-18-0

>  <UNII>  (1) 
TWF0ML1CK8

$$$$
