
     RDKit          2D

  4  3  0  0  0  0  0  0  0  0999 V2000
    0.2062    0.0000    0.0000 N   0  0  0  0  0  0  0  0  0  0  0  0
    0.6187    0.7145    0.0000 O   0  0  0  0  0  0  0  0  0  0  0  0
    0.6187   -0.7145    0.0000 O   0  0  0  0  0  0  0  0  0  0  0  0
   -0.6187    0.0000    0.0000 O   0  0  0  0  0  0  0  0  0  0  0  0
  2  1  1  0
  3  1  1  0
  4  1  2  0
M  CHG  3   1   1   2  -1   3  -1
M  END
>  <DRUGBANK_ID>  (1) 
DB14049

>  <COMMON_NAME>  (1) 
Nitrate

>  <CAS_NUMBER>  (1) 
14797-55-8

>  <UNII>  (1) 
T93E9Y2844

>  <SYNONYMS>  (1) 
Nitrate ion; Nitrates

$$$$
