
     RDKit          2D

 15 16  0  0  0  0  0  0  0  0999 V2000
   -0.7145    1.0313    0.0000 C   0  0  0  0  0  0  0  0  0  0  0  0
    0.0000    0.6187    0.0000 C   0  0  0  0  0  0  0  0  0  0  0  0
    0.0000   -0.2062    0.0000 C   0  0  0  0  0  0  0  0  0  0  0  0
   -0.7145   -0.6187    0.0000 N   0  0  0  0  0  0  0  0  0  0  0  0
   -1.4290   -0.2062    0.0000 C   0  0  0  0  0  0  0  0  0  0  0  0
   -1.4290    0.6187    0.0000 N   0  0  0  0  0  0  0  0  0  0  0  0
   -0.7145    1.8563    0.0000 O   0  0  0  0  0  0  0  0  0  0  0  0
    0.7145    1.0313    0.0000 Br  0  0  0  0  0  0  0  0  0  0  0  0
    0.7145   -0.6187    0.0000 C   0  0  0  0  0  0  0  0  0  0  0  0
    1.4290   -0.2062    0.0000 C   0  0  0  0  0  0  0  0  0  0  0  0
    2.1435   -0.6187    0.0000 C   0  0  0  0  0  0  0  0  0  0  0  0
    2.1435   -1.4438    0.0000 C   0  0  0  0  0  0  0  0  0  0  0  0
    1.4290   -1.8563    0.0000 C   0  0  0  0  0  0  0  0  0  0  0  0
    0.7145   -1.4438    0.0000 C   0  0  0  0  0  0  0  0  0  0  0  0
   -2.1436   -0.6187    0.0000 N   0  0  0  0  0  0  0  0  0  0  0  0
  1  2  1  0
  1  6  1  0
  1  7  2  0
  2  8  1  0
  2  3  2  0
  3  9  1  0
  3  4  1  0
  4  5  1  0
  5  6  2  0
  5 15  1  0
  9 10  2  0
 10 11  1  0
 11 12  2  0
 12 13  1  0
 13 14  2  0
 14  9  1  0
M  END
>  <DRUGBANK_ID>  (1) 
DB04168

>  <SECONDARY_ACCESSION_NUMBERS>  (1) 
EXPT00347

>  <COMMON_NAME>  (1) 
Bropirimine

>  <CAS_NUMBER>  (1) 
56741-95-8

>  <UNII>  (1) 
J57CTF25XJ

>  <SYNONYMS>  (1) 
Bropirimina; Bropirimine; Bropiriminum

$$$$
