NOX
     RDKit          2D

 24 25  0  0  0  0  0  0  0  0999 V2000
   -2.5671   -1.3398    0.0000 N   0  0  0  0  0  0  0  0  0  0  0  0
   -2.9544   -2.0682    0.0000 C   0  0  0  0  0  0  0  0  0  0  0  0
   -3.7789   -2.0970    0.0000 C   0  0  0  0  0  0  0  0  0  0  0  0
   -4.2161   -1.3974    0.0000 C   0  0  0  0  0  0  0  0  0  0  0  0
   -3.8288   -0.6690    0.0000 C   0  0  0  0  0  0  0  0  0  0  0  0
   -3.0043   -0.6402    0.0000 C   0  0  0  0  0  0  0  0  0  0  0  0
   -1.8256   -1.7015    0.0000 O   0  0  0  0  0  0  0  0  0  0  0  0
   -1.8526   -0.9273    0.0000 C   0  0  0  0  0  0  0  0  0  0  0  0
   -1.8526   -0.1023    0.0000 C   0  0  0  0  0  0  0  0  0  0  0  0
   -1.1381    0.3102    0.0000 C   0  0  0  0  0  0  0  0  0  0  0  0
   -1.1381    1.1352    0.0000 C   0  0  0  0  0  0  0  0  0  0  0  0
   -0.4237    1.5477    0.0000 C   0  0  0  0  0  0  0  0  0  0  0  0
    0.2908    1.1352    0.0000 C   0  0  0  0  0  0  0  0  0  0  0  0
    0.2908    0.3102    0.0000 C   0  0  0  0  0  0  0  0  0  0  0  0
   -0.4237   -0.1023    0.0000 C   0  0  0  0  0  0  0  0  0  0  0  0
    1.0053    1.5477    0.0000 N   0  0  0  0  0  0  0  0  0  0  0  0
    1.7198    1.1352    0.0000 C   0  0  0  0  0  0  0  0  0  0  0  0
    1.7198    0.3102    0.0000 O   0  0  0  0  0  0  0  0  0  0  0  0
    2.4342    1.5477    0.0000 C   0  0  0  0  0  0  0  0  0  0  0  0
    3.1487    1.1352    0.0000 C   0  0  0  0  0  0  0  0  0  0  0  0
    3.8632    1.5477    0.0000 C   0  0  0  0  0  0  0  0  0  0  0  0
    4.5776    1.1352    0.0000 C   0  0  0  0  0  0  0  0  0  0  0  0
    5.2921    1.5477    0.0000 O   0  0  0  0  0  0  0  0  0  0  0  0
    4.5776    0.3102    0.0000 O   0  0  0  0  0  0  0  0  0  0  0  0
  1  2  1  0
  1  6  1  0
  1  7  1  0
  1  8  1  0
  2  3  1  0
  3  4  1  0
  4  5  1  0
  5  6  1  0
  8  9  1  0
  9 10  1  0
 10 11  2  0
 10 15  1  0
 11 12  1  0
 12 13  2  0
 13 14  1  0
 13 16  1  0
 14 15  2  0
 16 17  1  0
 17 18  2  0
 17 19  1  0
 19 20  1  0
 20 21  1  0
 21 22  1  0
 22 23  1  0
 22 24  2  0
M  CHG  2   1   1   7  -1
M  END
>  <DRUGBANK_ID>  (1) 
DB08289

>  <COMMON_NAME>  (1) 
N-(PARA-GLUTARAMIDOPHENYL-ETHYL)-PIPERIDINIUM-N-OXIDE

$$$$
