
     RDKit          2D

 31 32  0  0  0  0  0  0  0  0999 V2000
   11.8440    1.7605    0.0000 C   0  0  0  0  0  0  0  0  0  0  0  0
   11.0190    3.1895    0.0000 C   0  0  0  0  0  0  0  0  0  0  0  0
   15.1144    7.4250    0.0000 C   0  0  0  0  0  0  0  0  0  0  0  0
   13.4644    7.4250    0.0000 C   0  0  0  0  0  0  0  0  0  0  0  0
   12.8605    4.9500    0.0000 C   0  0  0  0  0  0  0  0  0  0  0  0
   11.4315    0.0000    0.0000 C   0  0  0  0  0  0  0  0  0  0  0  0
   10.0026    0.0000    0.0000 C   0  0  0  0  0  0  0  0  0  0  0  0
   15.7184    9.9000    0.0000 C   0  0  0  0  0  0  0  0  0  0  0  0
   16.4328    8.6625    0.0000 C   0  0  0  0  0  0  0  0  0  0  0  0
   11.4315    0.8250    0.0000 C   0  0  0  0  0  0  0  0  0  0  0  0
   10.0026    0.8250    0.0000 C   0  0  0  0  0  0  0  0  0  0  0  0
   15.0039    9.4875    0.0000 C   0  0  0  0  0  0  0  0  0  0  0  0
   15.7184    8.2500    0.0000 C   0  0  0  0  0  0  0  0  0  0  0  0
   12.8605    4.1250    0.0000 C   0  0  0  0  0  0  0  0  0  0  0  0
   13.5749    5.3625    0.0000 C   0  0  0  0  0  0  0  0  0  0  0  0
   10.7171   -0.4125    0.0000 C   0  0  0  0  0  0  0  0  0  0  0  0
   16.4328    9.4875    0.0000 C   0  0  0  0  0  0  0  0  0  0  0  0
   10.7171    1.2375    0.0000 C   0  0  0  0  0  0  0  0  0  0  0  0
   15.0039    8.6625    0.0000 C   0  0  0  0  0  0  0  0  0  0  0  0
   12.1460    2.8875    0.0000 C   0  0  0  0  0  0  0  0  0  0  0  0
   14.2894    6.6000    0.0000 C   0  0  0  0  0  0  0  0  0  0  0  0
   11.4315    2.4750    0.0000 C   0  0  0  0  0  0  0  0  0  0  0  0
   14.2894    7.4250    0.0000 C   0  0  0  0  0  0  0  0  0  0  0  0
   10.7171   -1.2375    0.0000 Cl  0  0  0  0  0  0  0  0  0  0  0  0
   17.1473    9.9000    0.0000 Cl  0  0  0  0  0  0  0  0  0  0  0  0
   12.8605    2.4750    0.0000 O   0  0  0  0  0  0  0  0  0  0  0  0
   15.0039    6.1875    0.0000 O   0  0  0  0  0  0  0  0  0  0  0  0
   12.1460    3.7125    0.0000 O   0  0  0  0  0  0  0  0  0  0  0  0
   13.5749    6.1875    0.0000 O   0  0  0  0  0  0  0  0  0  0  0  0
   10.7171    2.0625    0.0000 O   0  0  0  0  0  0  0  0  0  0  0  0
   14.2894    8.2500    0.0000 O   0  0  0  0  0  0  0  0  0  0  0  0
 10  6  2  0
 11  7  1  0
 12  8  2  0
 13  9  1  0
 14  5  1  0
 15  5  1  0
 16  6  1  0
 16  7  2  0
 17  8  1  0
 17  9  2  0
 18 10  1  0
 18 11  2  0
 19 12  1  0
 19 13  2  0
 22  1  1  0
 22  2  1  0
 22 20  1  0
 23  3  1  0
 23  4  1  0
 23 21  1  0
 24 16  1  0
 25 17  1  0
 26 20  2  0
 27 21  2  0
 28 14  1  0
 28 20  1  0
 29 15  1  0
 29 21  1  0
 30 18  1  0
 30 22  1  0
 31 19  1  0
 31 23  1  0
M  END
>  <DRUGBANK_ID>  (1) 
DB13433

>  <COMMON_NAME>  (1) 
Simfibrate

>  <CAS_NUMBER>  (1) 
14929-11-4

>  <UNII>  (1) 
L2R75RQX26

>  <SYNONYMS>  (1) 
Simfibrate

$$$$
