
     RDKit          2D

 21 23  0  0  0  0  0  0  0  0999 V2000
   -3.2366   -1.2285    0.0000 C   0  0  0  0  0  0  0  0  0  0  0  0
   -3.9510   -1.6410    0.0000 C   0  0  0  0  0  0  0  0  0  0  0  0
   -3.9510   -2.4661    0.0000 C   0  0  0  0  0  0  0  0  0  0  0  0
   -3.2366   -2.8786    0.0000 C   0  0  0  0  0  0  0  0  0  0  0  0
   -2.5221   -2.4661    0.0000 C   0  0  0  0  0  0  0  0  0  0  0  0
   -2.5221   -1.6410    0.0000 C   0  0  0  0  0  0  0  0  0  0  0  0
   -3.2366   -0.4035    0.0000 C   0  0  0  0  0  0  0  0  0  0  0  0
   -2.5222    0.0090    0.0000 N   0  0  0  0  0  0  0  0  0  0  0  0
   -2.5222    0.8340    0.0000 C   0  0  0  0  0  0  0  0  0  0  0  0
   -1.8077   -0.4034    0.0000 C   0  0  0  0  0  0  0  0  0  0  0  0
   -1.0932    0.0090    0.0000 C   0  0  0  0  0  0  0  0  0  0  0  0
   -0.3787   -0.4034    0.0000 N   0  0  0  0  0  0  0  0  0  0  0  0
   -0.2924   -1.2239    0.0000 C   0  0  0  0  0  0  0  0  0  0  0  0
    0.5144   -1.3954    0.0000 C   0  0  0  0  0  0  0  0  0  0  0  0
    0.9269   -0.6809    0.0000 C   0  0  0  0  0  0  0  0  0  0  0  0
    0.3749   -0.0679    0.0000 C   0  0  0  0  0  0  0  0  0  0  0  0
   -1.8078    1.2464    0.0000 C   0  0  0  0  0  0  0  0  0  0  0  0
   -1.8078    2.0715    0.0000 C   0  0  0  0  0  0  0  0  0  0  0  0
   -2.5221    2.4841    0.0000 C   0  0  0  0  0  0  0  0  0  0  0  0
   -3.2367    2.0716    0.0000 C   0  0  0  0  0  0  0  0  0  0  0  0
   -3.2367    1.2465    0.0000 C   0  0  0  0  0  0  0  0  0  0  0  0
  1  2  2  0
  1  7  1  0
  2  3  1  0
  3  4  2  0
  4  5  1  0
  5  6  2  0
  6  1  1  0
  7  8  1  0
  8  9  1  0
  8 10  1  0
  9 17  2  0
 10 11  1  0
 11 12  1  0
 12 13  1  0
 12 16  1  0
 13 14  1  0
 14 15  1  0
 15 16  1  0
 17 18  1  0
 18 19  2  0
 19 20  1  0
 20 21  2  0
 21  9  1  0
M  END
>  <DRUGBANK_ID>  (1) 
DB13479

>  <COMMON_NAME>  (1) 
Histapyrrodine

>  <CAS_NUMBER>  (1) 
493-80-1

>  <UNII>  (1) 
0FYM61NG4D

>  <SYNONYMS>  (1) 
Histapyrrodine

$$$$
