
     RDKit          2D

 22 25  0  0  1  0  0  0  0  0999 V2000
    0.8648    0.5073    0.0000 C   0  0  0  0  0  0  0  0  0  0  0  0
    1.4044   -0.7010    0.0000 C   0  0  0  0  0  0  0  0  0  0  0  0
    0.6896   -0.2813    0.0000 C   0  0  0  0  0  0  0  0  0  0  0  0
   -0.0207   -0.7010    0.0000 C   0  0  0  0  0  0  0  0  0  0  0  0
   -0.0207   -1.5220    0.0000 C   0  0  0  0  0  0  0  0  0  0  0  0
    1.6858    0.5903    0.0000 C   0  0  0  0  0  0  0  0  0  0  0  0
    0.6896   -1.9418    0.0000 O   0  0  0  0  0  0  0  0  0  0  0  0
   -0.7264   -1.9418    0.0000 C   0  0  0  0  0  0  0  0  0  0  0  0
    0.3805    1.1715    0.0000 C   0  0  0  0  0  0  0  0  0  0  0  0
    2.0225   -0.1522    0.0000 C   0  0  0  0  0  0  0  0  0  0  0  0
    2.0225    1.3422    0.0000 C   0  0  0  0  0  0  0  0  0  0  0  0
   -0.7264   -0.2813    0.0000 C   0  0  0  0  0  0  0  0  0  0  0  0
    0.7079    1.9325    0.0000 C   0  0  0  0  0  0  0  0  0  0  0  0
    1.4044   -1.5220    0.0000 C   0  0  0  0  0  0  0  0  0  0  0  0
    1.5382    2.0110    0.0000 C   0  0  0  0  0  0  0  0  0  0  0  0
   -1.4460   -1.5220    0.0000 C   0  0  0  0  0  0  0  0  0  0  0  0
   -1.4460   -0.7010    0.0000 C   0  0  0  0  0  0  0  0  0  0  0  0
    2.1609   -1.0423    0.0000 O   0  0  0  0  0  0  0  0  0  0  0  0
   -0.7264   -2.7628    0.0000 O   0  0  0  0  0  0  0  0  0  0  0  0
    0.2329    2.5967    0.0000 O   0  0  0  0  0  0  0  0  0  0  0  0
    1.8750    2.7628    0.0000 O   0  0  0  0  0  0  0  0  0  0  0  0
   -2.1609   -1.9418    0.0000 O   0  0  0  0  0  0  0  0  0  0  0  0
  2  3  1  0
  2 18  1  6
  3  1  1  1
  4  3  1  0
  5  4  2  0
  6  1  2  0
  7  5  1  0
  8  5  1  0
  9  1  1  0
 10  6  1  0
 10  2  1  0
 11  6  1  0
 12  4  1  0
 13  9  2  0
 14  2  1  0
 14  7  1  0
 15 13  1  0
 15 11  2  0
 16  8  2  0
 16 17  1  0
 17 12  2  0
 19  8  1  0
 20 13  1  0
 21 15  1  0
 22 16  1  0
M  END
>  <DRUGBANK_ID>  (1) 
DB16871

>  <COMMON_NAME>  (1) 
Hematoxylin

>  <CAS_NUMBER>  (1) 
517-28-2

>  <UNII>  (1) 
YKM8PY2Z55

>  <SYNONYMS>  (1) 
Haematoxylin; Hydroxybrasilin; Hydroxybrazilin

$$$$
