
     RDKit          2D

 36 38  0  0  0  0  0  0  0  0999 V2000
    0.4078   -2.1359    0.0000 C   0  0  0  0  0  0  0  0  0  0  0  0
    0.4078   -1.3109    0.0000 N   0  0  0  0  0  0  0  0  0  0  0  0
   -0.3067   -0.8984    0.0000 C   0  0  0  0  0  0  0  0  0  0  0  0
   -0.3067   -0.0734    0.0000 C   0  0  0  0  0  0  0  0  0  0  0  0
    0.4078    0.3391    0.0000 C   0  0  0  0  0  0  0  0  0  0  0  0
    0.4078    1.1641    0.0000 O   0  0  0  0  0  0  0  0  0  0  0  0
    1.1223   -0.0734    0.0000 N   0  0  0  0  0  0  0  0  0  0  0  0
    1.1223   -0.8984    0.0000 C   0  0  0  0  0  0  0  0  0  0  0  0
    1.8367   -1.3109    0.0000 O   0  0  0  0  0  0  0  0  0  0  0  0
    1.8367    0.3391    0.0000 C   0  0  0  0  0  0  0  0  0  0  0  0
   -1.0913    0.1815    0.0000 N   0  0  0  0  0  0  0  0  0  0  0  0
   -1.5762   -0.4859    0.0000 C   0  0  0  0  0  0  0  0  0  0  0  0
   -1.0913   -1.1534    0.0000 N   0  0  0  0  0  0  0  0  0  0  0  0
   -1.3462    0.9661    0.0000 C   0  0  0  0  0  0  0  0  0  0  0  0
   -0.7942    1.5792    0.0000 C   0  0  0  0  0  0  0  0  0  0  0  0
   -1.0492    2.3639    0.0000 O   0  0  0  0  0  0  0  0  0  0  0  0
    0.0128    1.4077    0.0000 O   0  0  0  0  0  0  0  0  0  0  0  0
    4.1939   -0.6513    0.0000 C   0  0  0  0  0  0  0  0  0  0  0  0
    4.9083   -0.2388    0.0000 N   0  0  0  0  0  0  0  0  0  0  0  0
    4.9083    0.5862    0.0000 C   0  0  0  0  0  0  0  0  0  0  0  0
    5.6228   -0.6513    0.0000 C   0  0  0  0  0  0  0  0  0  0  0  0
    6.3373   -0.2388    0.0000 C   0  0  0  0  0  0  0  0  0  0  0  0
    7.0518   -0.6513    0.0000 O   0  0  0  0  0  0  0  0  0  0  0  0
    7.7662   -0.2388    0.0000 C   0  0  0  0  0  0  0  0  0  0  0  0
    8.4807   -0.6513    0.0000 C   0  0  0  0  0  0  0  0  0  0  0  0
    9.1952   -0.2388    0.0000 C   0  0  0  0  0  0  0  0  0  0  0  0
    9.9096   -0.6513    0.0000 C   0  0  0  0  0  0  0  0  0  0  0  0
    9.9096   -1.4763    0.0000 C   0  0  0  0  0  0  0  0  0  0  0  0
    9.1952   -1.8888    0.0000 C   0  0  0  0  0  0  0  0  0  0  0  0
    8.4807   -1.4763    0.0000 C   0  0  0  0  0  0  0  0  0  0  0  0
    7.7662    0.5862    0.0000 C   0  0  0  0  0  0  0  0  0  0  0  0
    7.0518    0.9987    0.0000 C   0  0  0  0  0  0  0  0  0  0  0  0
    7.0518    1.8237    0.0000 C   0  0  0  0  0  0  0  0  0  0  0  0
    7.7662    2.2362    0.0000 C   0  0  0  0  0  0  0  0  0  0  0  0
    8.4807    1.8237    0.0000 C   0  0  0  0  0  0  0  0  0  0  0  0
    8.4807    0.9987    0.0000 C   0  0  0  0  0  0  0  0  0  0  0  0
  1  2  1  0
  2  3  1  0
  2  8  1  0
  3  4  2  0
  3 13  1  0
  4  5  1  0
  4 11  1  0
  5  6  2  0
  5  7  1  0
  7  8  1  0
  7 10  1  0
  8  9  2  0
 11 12  1  0
 11 14  1  0
 12 13  2  0
 14 15  1  0
 15 16  2  0
 15 17  1  0
 18 19  1  0
 19 20  1  0
 19 21  1  0
 21 22  1  0
 22 23  1  0
 23 24  1  0
 24 25  1  0
 24 31  1  0
 25 26  2  0
 25 30  1  0
 26 27  1  0
 27 28  2  0
 28 29  1  0
 29 30  2  0
 31 32  2  0
 31 36  1  0
 32 33  1  0
 33 34  2  0
 34 35  1  0
 35 36  2  0
M  END
>  <DRUGBANK_ID>  (1) 
DB13636

>  <COMMON_NAME>  (1) 
Etanautine

>  <CAS_NUMBER>  (1) 
857401-00-4

>  <UNII>  (1) 
97H5S09M4T

$$$$
