
     RDKit          2D

 11 10  0  0  0  0  0  0  0  0999 V2000
    0.0000    0.7004    0.0000 P   0  0  0  0  0  0  0  0  0  0  0  0
    0.0000    1.5254    0.0000 O   0  0  0  0  0  0  0  0  0  0  0  0
   -0.7144    0.2879    0.0000 O   0  0  0  0  0  0  0  0  0  0  0  0
    0.7145    0.2879    0.0000 O   0  0  0  0  0  0  0  0  0  0  0  0
   -0.2134   -0.0964    0.0000 O   0  0  0  0  0  0  0  0  0  0  0  0
    1.4290    0.7004    0.0000 C   0  0  0  0  0  0  0  0  0  0  0  0
    2.1433    0.2879    0.0000 C   0  0  0  0  0  0  0  0  0  0  0  0
   -1.4288    0.7004    0.0000 C   0  0  0  0  0  0  0  0  0  0  0  0
   -2.1433    0.2879    0.0000 C   0  0  0  0  0  0  0  0  0  0  0  0
    0.1990   -0.8109    0.0000 C   0  0  0  0  0  0  0  0  0  0  0  0
   -0.2134   -1.5254    0.0000 C   0  0  0  0  0  0  0  0  0  0  0  0
  1  2  2  0
  1  3  1  0
  1  4  1  0
  1  5  1  0
  3  8  1  0
  4  6  1  0
  5 10  1  0
  6  7  1  0
  8  9  1  0
 10 11  1  0
M  END
>  <DRUGBANK_ID>  (1) 
DB03347

>  <SECONDARY_ACCESSION_NUMBERS>  (1) 
EXPT03038

>  <COMMON_NAME>  (1) 
Triethyl phosphate

>  <CAS_NUMBER>  (1) 
78-40-0

>  <UNII>  (1) 
QIH4K96K7J

>  <SYNONYMS>  (1) 
Ethyl phosphate; o-Phosphoric acid triethyl ester; TEP; Triethoxyphosphine oxide; Triethylphosphate; Tris(ethyl) phosphate

$$$$
