
     RDKit          2D

 16 15  0  0  1  0  0  0  0  0999 V2000
   -0.0000   -2.8579    0.0000 C   0  0  0  0  0  0  0  0  0  0  0  0
   -0.8250   -2.8579    0.0000 C   0  0  0  0  0  0  0  0  0  0  0  0
    1.6500   -4.2868    0.0000 C   0  0  0  0  0  0  0  0  0  0  0  0
    2.4750   -4.2868    0.0000 C   0  0  0  0  0  0  0  0  0  0  0  0
    1.6500   -2.8579    0.0000 C   0  0  0  0  0  0  0  0  0  0  0  0
   -0.0000   -4.2868    0.0000 C   0  0  0  0  0  0  0  0  0  0  0  0
    1.2375   -3.5724    0.0000 C   0  0  0  0  0  0  0  0  0  0  0  0
    0.4125   -3.5724    0.0000 C   0  0  0  0  0  0  0  0  0  0  0  0
   -1.2375   -2.1434    0.0000 C   0  0  0  0  0  0  0  0  0  0  0  0
    1.2375   -2.1434    0.0000 C   0  0  0  0  0  0  0  0  0  0  0  0
    2.8875   -5.0013    0.0000 N   0  0  0  0  0  0  0  0  0  0  0  0
    0.4125   -5.0013    0.0000 N   0  0  0  0  0  0  0  0  0  0  0  0
   -2.0625   -2.1434    0.0000 O   0  0  0  0  0  0  0  0  0  0  0  0
   -0.8250   -1.4289    0.0000 O   0  0  0  0  0  0  0  0  0  0  0  0
    0.4125   -2.1434    0.0000 O   0  0  0  0  0  0  0  0  0  0  0  0
    1.6500   -1.4289    0.0000 O   0  0  0  0  0  0  0  0  0  0  0  0
  2  1  1  0
  4  3  1  0
  7  3  1  1
  7  5  1  0
  8  1  1  1
  8  6  1  0
  8  7  1  0
  9  2  1  0
 10  5  1  0
 11  4  1  0
 12  6  1  0
 13  9  2  0
 14  9  1  0
 15 10  2  0
 16 10  1  0
M  END
>  <DRUGBANK_ID>  (1) 
DB02878

>  <SECONDARY_ACCESSION_NUMBERS>  (1) 
EXPT02503

>  <COMMON_NAME>  (1) 
3-(2-Aminoethyl)-4-(Aminomethyl)Heptanedioic Acid

$$$$
