
     RDKit          2D

 36 38  0  0  0  0  0  0  0  0999 V2000
    0.0000    1.8281    0.0000 P   0  0  0  0  0  0  0  0  0  0  0  0
    0.0000    1.0031    0.0000 C   0  0  0  0  0  0  0  0  0  0  0  0
   -0.7144    0.5906    0.0000 O   0  0  0  0  0  0  0  0  0  0  0  0
   -0.7144   -0.2343    0.0000 C   0  0  0  0  0  0  0  0  0  0  0  0
   -1.4289   -0.6468    0.0000 C   0  0  0  0  0  0  0  0  0  0  0  0
   -0.7144   -1.0593    0.0000 C   0  0  0  0  0  0  0  0  0  0  0  0
    0.0000    0.1781    0.0000 C   0  0  0  0  0  0  0  0  0  0  0  0
    2.0201   -0.5119    0.0000 N   0  0  0  0  0  0  0  0  0  0  0  0
    1.4681    0.1011    0.0000 C   0  0  0  0  0  0  0  0  0  0  0  0
    0.7144   -0.2343    0.0000 N   0  0  0  0  0  0  0  0  0  0  0  0
    0.8006   -1.0548    0.0000 C   0  0  0  0  0  0  0  0  0  0  0  0
    0.2486   -1.6679    0.0000 N   0  0  0  0  0  0  0  0  0  0  0  0
    0.5035   -2.4525    0.0000 C   0  0  0  0  0  0  0  0  0  0  0  0
    1.3105   -2.6240    0.0000 N   0  0  0  0  0  0  0  0  0  0  0  0
    1.8625   -2.0110    0.0000 C   0  0  0  0  0  0  0  0  0  0  0  0
    1.6076   -1.2263    0.0000 C   0  0  0  0  0  0  0  0  0  0  0  0
   -0.0484   -3.0656    0.0000 N   0  0  0  0  0  0  0  0  0  0  0  0
   -1.4289    1.8281    0.0000 C   0  0  0  0  0  0  0  0  0  0  0  0
   -0.7144    2.2406    0.0000 O   0  0  0  0  0  0  0  0  0  0  0  0
    1.4289    1.8281    0.0000 C   0  0  0  0  0  0  0  0  0  0  0  0
    0.7144    2.2406    0.0000 O   0  0  0  0  0  0  0  0  0  0  0  0
   -2.8579    1.8281    0.0000 C   0  0  0  0  0  0  0  0  0  0  0  0
   -3.5723    2.2406    0.0000 C   0  0  0  0  0  0  0  0  0  0  0  0
   -3.5723    3.0656    0.0000 C   0  0  0  0  0  0  0  0  0  0  0  0
   -2.8579    1.0031    0.0000 O   0  0  0  0  0  0  0  0  0  0  0  0
   -2.1434    2.2406    0.0000 O   0  0  0  0  0  0  0  0  0  0  0  0
   -4.2868    2.6531    0.0000 C   0  0  0  0  0  0  0  0  0  0  0  0
   -4.2868    1.8281    0.0000 C   0  0  0  0  0  0  0  0  0  0  0  0
    2.8578    1.8281    0.0000 C   0  0  0  0  0  0  0  0  0  0  0  0
    3.5723    2.2406    0.0000 C   0  0  0  0  0  0  0  0  0  0  0  0
    4.2868    1.8281    0.0000 C   0  0  0  0  0  0  0  0  0  0  0  0
    2.8578    1.0031    0.0000 O   0  0  0  0  0  0  0  0  0  0  0  0
    2.1433    2.2406    0.0000 O   0  0  0  0  0  0  0  0  0  0  0  0
    4.2868    2.6531    0.0000 C   0  0  0  0  0  0  0  0  0  0  0  0
    3.5723    3.0656    0.0000 C   0  0  0  0  0  0  0  0  0  0  0  0
    0.0000    2.6548    0.0000 O   0  0  0  0  0  0  0  0  0  0  0  0
  1  2  1  0
  1 19  1  0
  1 21  1  0
  1 36  2  0
  2  3  1  0
  3  4  1  0
  4  5  1  0
  4  6  1  0
  4  7  1  0
  5  6  1  0
  7 10  1  0
  8  9  2  0
  8 16  1  0
  9 10  1  0
 10 11  1  0
 11 12  1  0
 11 16  2  0
 12 13  2  0
 13 14  1  0
 13 17  1  0
 14 15  2  0
 15 16  1  0
 18 19  1  0
 18 26  1  0
 20 21  1  0
 20 33  1  0
 22 23  1  0
 22 25  2  0
 22 26  1  0
 23 24  1  0
 23 27  1  0
 23 28  1  0
 29 30  1  0
 29 32  2  0
 29 33  1  0
 30 31  1  0
 30 34  1  0
 30 35  1  0
M  END
>  <DRUGBANK_ID>  (1) 
DB05020

>  <COMMON_NAME>  (1) 
Besifovir dipivoxil

>  <CAS_NUMBER>  (1) 
441785-26-8

>  <UNII>  (1) 
S9I9P4J8IU

$$$$
