HDT
     RDKit          2D

 26 29  0  0  0  0  0  0  0  0999 V2000
   -0.8341    1.5462    0.0000 C   0  0  0  0  0  0  0  0  0  0  0  0
    1.7772   -2.0188    0.0000 N   0  0  0  0  0  0  0  0  0  0  0  0
    2.4917   -1.6063    0.0000 C   0  0  0  0  0  0  0  0  0  0  0  0
    1.7772   -2.8438    0.0000 C   0  0  0  0  0  0  0  0  0  0  0  0
    2.4917   -3.2563    0.0000 C   0  0  0  0  0  0  0  0  0  0  0  0
    3.2061   -2.8438    0.0000 C   0  0  0  0  0  0  0  0  0  0  0  0
    3.2061   -2.0188    0.0000 C   0  0  0  0  0  0  0  0  0  0  0  0
    1.2897   -0.3661    0.0000 C   0  0  0  0  0  0  0  0  0  0  0  0
    0.7376   -0.9792    0.0000 C   0  0  0  0  0  0  0  0  0  0  0  0
    0.9926   -1.7639    0.0000 C   0  0  0  0  0  0  0  0  0  0  0  0
    0.5077   -2.4313    0.0000 C   0  0  0  0  0  0  0  0  0  0  0  0
    1.0347    0.4185    0.0000 C   0  0  0  0  0  0  0  0  0  0  0  0
   -1.3862    0.9331    0.0000 C   0  0  0  0  0  0  0  0  0  0  0  0
   -0.3243   -0.0231    0.0000 C   0  0  0  0  0  0  0  0  0  0  0  0
   -0.0693   -0.8077    0.0000 N   0  0  0  0  0  0  0  0  0  0  0  0
   -2.1932    1.1046    0.0000 C   0  0  0  0  0  0  0  0  0  0  0  0
   -2.4481    1.8892    0.0000 C   0  0  0  0  0  0  0  0  0  0  0  0
   -1.8961    2.5023    0.0000 C   0  0  0  0  0  0  0  0  0  0  0  0
   -2.4059    4.0715    0.0000 O   0  0  0  0  0  0  0  0  0  0  0  0
   -2.1510    3.2869    0.0000 S   0  0  0  0  0  0  0  0  0  0  0  0
   -1.3664    3.5419    0.0000 O   0  0  0  0  0  0  0  0  0  0  0  0
   -2.9356    3.0320    0.0000 N   0  0  0  0  0  0  0  0  0  0  0  0
   -1.0891    2.3308    0.0000 C   0  0  0  0  0  0  0  0  0  0  0  0
   -1.1312    0.1484    0.0000 N   0  0  0  0  0  0  0  0  0  0  0  0
    0.2278    0.5900    0.0000 N   0  0  0  0  0  0  0  0  0  0  0  0
    0.9926   -3.0987    0.0000 N   0  0  0  0  0  0  0  0  0  0  0  0
  1 13  2  0
  1 23  1  0
  2  3  1  0
  2  4  1  0
  2 10  1  0
  3  7  2  0
  4  5  1  0
  4 26  2  0
  5  6  2  0
  6  7  1  0
  8  9  2  0
  8 12  1  0
  9 10  1  0
  9 15  1  0
 10 11  2  0
 11 26  1  0
 12 25  2  0
 13 16  1  0
 13 24  1  0
 14 15  2  0
 14 24  1  0
 14 25  1  0
 16 17  2  0
 17 18  1  0
 18 20  1  0
 18 23  2  0
 19 20  2  0
 20 21  2  0
 20 22  1  0
M  END
>  <DRUGBANK_ID>  (1) 
DB02197

>  <SECONDARY_ACCESSION_NUMBERS>  (1) 
EXPT01717

>  <COMMON_NAME>  (1) 
4-[(4-Imidazo[1,2-a]Pyridin-3-Ylpyrimidin-2-Yl)Amino]Benzenesulfonamide

>  <UNII>  (1) 
K0O97QF441

$$$$
