
     RDKit          2D

 34 37  0  0  0  0  0  0  0  0999 V2000
   -1.0447   -1.8006    0.0000 C   0  0  0  0  0  0  0  0  0  0  0  0
   -0.3345   -1.3837    0.0000 C   0  0  0  0  0  0  0  0  0  0  0  0
    1.0721   -0.5498    0.0000 C   0  0  0  0  0  0  0  0  0  0  0  0
   -1.0309   -2.6255    0.0000 C   0  0  0  0  0  0  0  0  0  0  0  0
    1.0859   -1.3837    0.0000 C   0  0  0  0  0  0  0  0  0  0  0  0
    0.3848   -1.8006    0.0000 C   0  0  0  0  0  0  0  0  0  0  0  0
   -0.3345   -0.5498    0.0000 C   0  0  0  0  0  0  0  0  0  0  0  0
    1.8556   -0.2978    0.0000 C   0  0  0  0  0  0  0  0  0  0  0  0
   -1.7503   -1.3837    0.0000 C   0  0  0  0  0  0  0  0  0  0  0  0
    0.3710   -0.1375    0.0000 C   0  0  0  0  0  0  0  0  0  0  0  0
    1.8694   -1.6357    0.0000 C   0  0  0  0  0  0  0  0  0  0  0  0
    2.3458   -0.9622    0.0000 C   0  0  0  0  0  0  0  0  0  0  0  0
    0.3848   -2.6255    0.0000 C   0  0  0  0  0  0  0  0  0  0  0  0
   -0.3298   -3.0469    0.0000 C   0  0  0  0  0  0  0  0  0  0  0  0
   -1.7457   -3.0469    0.0000 C   0  0  0  0  0  0  0  0  0  0  0  0
    1.7457    2.2543    0.0000 C   0  0  0  0  0  0  0  0  0  0  0  0
   -2.4742   -1.8006    0.0000 C   0  0  0  0  0  0  0  0  0  0  0  0
    1.8419    0.5911    0.0000 C   0  0  0  0  0  0  0  0  0  0  0  0
   -2.4650   -2.6255    0.0000 C   0  0  0  0  0  0  0  0  0  0  0  0
    1.6998    3.0699    0.0000 C   0  0  0  0  0  0  0  0  0  0  0  0
    2.4833    1.8832    0.0000 O   0  0  0  0  0  0  0  0  0  0  0  0
   -0.3298   -2.0893    0.0000 F   0  0  0  0  0  0  0  0  0  0  0  0
    1.0721    1.7915    0.0000 O   0  0  0  0  0  0  0  0  0  0  0  0
    2.5292    1.0584    0.0000 C   0  0  0  0  0  0  0  0  0  0  0  0
    1.1271    0.9942    0.0000 O   0  0  0  0  0  0  0  0  0  0  0  0
   -3.1753   -3.0469    0.0000 O   0  0  0  0  0  0  0  0  0  0  0  0
   -1.0905   -0.8110    0.0000 C   0  0  0  0  0  0  0  0  0  0  0  0
    1.0401    0.3024    0.0000 C   0  0  0  0  0  0  0  0  0  0  0  0
   -1.0447   -0.1375    0.0000 O   0  0  0  0  0  0  0  0  0  0  0  0
   -0.3298   -3.8762    0.0000 F   0  0  0  0  0  0  0  0  0  0  0  0
    3.1753   -0.9622    0.0000 C   0  0  0  0  0  0  0  0  0  0  0  0
    1.6769    3.8762    0.0000 C   0  0  0  0  0  0  0  0  0  0  0  0
    0.8660    3.0515    0.0000 C   0  0  0  0  0  0  0  0  0  0  0  0
    2.5017    3.0927    0.0000 C   0  0  0  0  0  0  0  0  0  0  0  0
  1 27  1  1
  2  1  1  0
  2 22  1  6
  3 10  1  0
  3 28  1  1
  4  1  1  0
  5  6  1  0
  5  3  1  0
  6  2  1  0
  6 13  1  6
  7  2  1  0
  7 29  1  1
  8  3  1  0
  8 18  1  1
  8 12  1  0
  9  1  1  0
 10  7  1  0
  5 11  1  1
 12 11  1  0
 12 31  1  6
 13 14  1  0
 14  4  1  0
 14 30  1  6
 15  4  2  0
 15 19  1  0
 16 21  1  0
 17  9  2  0
 19 17  1  0
 20 16  1  0
 21 24  1  0
 23 16  2  0
 24 18  1  0
 25 18  2  0
 26 19  2  0
 32 20  1  0
 33 20  1  0
 34 20  1  0
M  END
>  <DRUGBANK_ID>  (1) 
DB14664

>  <SECONDARY_ACCESSION_NUMBERS>  (1) 
DBSALT001924

>  <COMMON_NAME>  (1) 
Difluocortolone pivalate

>  <CAS_NUMBER>  (1) 
15845-96-2

>  <UNII>  (1) 
ZR05N78276

>  <SYNONYMS>  (1) 
Diflucortolone pivalate

$$$$
