ISF
     RDKit          2D

 19 20  0  0  0  0  0  0  0  0999 V2000
    0.5557    2.5693    0.0000 S   0  0  0  0  0  0  0  0  0  0  0  0
    0.3008    1.7846    0.0000 C   0  0  0  0  0  0  0  0  0  0  0  0
   -0.5242    1.7846    0.0000 C   0  0  0  0  0  0  0  0  0  0  0  0
   -0.7791    2.5693    0.0000 C   0  0  0  0  0  0  0  0  0  0  0  0
   -0.1117    3.0542    0.0000 C   0  0  0  0  0  0  0  0  0  0  0  0
   -0.1117    3.8792    0.0000 I   0  0  0  0  0  0  0  0  0  0  0  0
    0.7857    1.1172    0.0000 C   0  0  0  0  0  0  0  0  0  0  0  0
    1.6062    1.2034    0.0000 O   0  0  0  0  0  0  0  0  0  0  0  0
    0.4502    0.3635    0.0000 C   0  0  0  0  0  0  0  0  0  0  0  0
    0.9351   -0.3039    0.0000 C   0  0  0  0  0  0  0  0  0  0  0  0
    0.5995   -1.0576    0.0000 C   0  0  0  0  0  0  0  0  0  0  0  0
   -0.2209   -1.1438    0.0000 C   0  0  0  0  0  0  0  0  0  0  0  0
   -0.7059   -0.4764    0.0000 C   0  0  0  0  0  0  0  0  0  0  0  0
   -0.3703    0.2773    0.0000 C   0  0  0  0  0  0  0  0  0  0  0  0
   -0.5565   -1.8975    0.0000 C   0  0  0  0  0  0  0  0  0  0  0  0
   -0.0716   -2.5649    0.0000 C   0  0  0  0  0  0  0  0  0  0  0  0
   -1.3770   -1.9837    0.0000 C   0  0  0  0  0  0  0  0  0  0  0  0
   -1.7125   -2.7374    0.0000 O   0  0  0  0  0  0  0  0  0  0  0  0
   -1.8619   -1.3163    0.0000 O   0  0  0  0  0  0  0  0  0  0  0  0
  1  2  1  0
  1  5  1  0
  2  3  2  0
  2  7  1  0
  3  4  1  0
  4  5  2  0
  5  6  1  0
  7  8  2  0
  7  9  1  0
  9 10  2  0
  9 14  1  0
 10 11  1  0
 11 12  2  0
 12 13  1  0
 12 15  1  0
 13 14  2  0
 15 16  1  6
 15 17  1  0
 17 18  2  0
 17 19  1  0
M  END
>  <DRUGBANK_ID>  (1) 
DB03752

>  <SECONDARY_ACCESSION_NUMBERS>  (1) 
EXPT01934

>  <COMMON_NAME>  (1) 
P-(2'-Iodo-5'-Thenoyl)Hydrotropic Acid

$$$$
