330
     RDKit          2D

 31 35  0  0  0  0  0  0  0  0999 V2000
   -0.3136   -3.5230    0.0000 C   0  0  0  0  0  0  0  0  0  0  0  0
    0.4451   -3.1989    0.0000 C   0  0  0  0  0  0  0  0  0  0  0  0
    0.5438   -2.3798    0.0000 C   0  0  0  0  0  0  0  0  0  0  0  0
   -0.1162   -1.8848    0.0000 C   0  0  0  0  0  0  0  0  0  0  0  0
    0.1507   -1.1042    0.0000 C   0  0  0  0  0  0  0  0  0  0  0  0
    1.2186   -1.9051    0.0000 C   0  0  0  0  0  0  0  0  0  0  0  0
    1.1051   -3.6939    0.0000 C   0  0  0  0  0  0  0  0  0  0  0  0
    1.0064   -4.5130    0.0000 C   0  0  0  0  0  0  0  0  0  0  0  0
    1.6664   -5.0080    0.0000 C   0  0  0  0  0  0  0  0  0  0  0  0
    2.4251   -4.6839    0.0000 C   0  0  0  0  0  0  0  0  0  0  0  0
    2.5238   -3.8649    0.0000 C   0  0  0  0  0  0  0  0  0  0  0  0
    1.8638   -3.3699    0.0000 C   0  0  0  0  0  0  0  0  0  0  0  0
   -0.8749   -2.2089    0.0000 C   0  0  0  0  0  0  0  0  0  0  0  0
   -0.9736   -3.0279    0.0000 C   0  0  0  0  0  0  0  0  0  0  0  0
   -1.6233   -1.8619    0.0000 C   0  0  0  0  0  0  0  0  0  0  0  0
   -2.1846   -2.4665    0.0000 C   0  0  0  0  0  0  0  0  0  0  0  0
   -1.8663   -1.0735    0.0000 C   0  0  0  0  0  0  0  0  0  0  0  0
   -2.9889   -2.2828    0.0000 C   0  0  0  0  0  0  0  0  0  0  0  0
   -2.6706   -0.8897    0.0000 C   0  0  0  0  0  0  0  0  0  0  0  0
   -3.2319   -1.4943    0.0000 C   0  0  0  0  0  0  0  0  0  0  0  0
   -2.1300   -3.9357    0.0000 C   0  0  0  0  0  0  0  0  0  0  0  0
   -2.9517   -4.0094    0.0000 C   0  0  0  0  0  0  0  0  0  0  0  0
   -3.2987   -4.7579    0.0000 C   0  0  0  0  0  0  0  0  0  0  0  0
   -0.3241   -0.4294    0.0000 O   0  0  0  0  0  0  0  0  0  0  0  0
    0.9756   -1.1167    0.0000 N   0  0  0  0  0  0  0  0  0  0  0  0
    1.9992   -2.1719    0.0000 O   0  0  0  0  0  0  0  0  0  0  0  0
   -2.9136   -0.1013    0.0000 O   0  0  0  0  0  0  0  0  0  0  0  0
    0.2477   -4.8371    0.0000 O   0  0  0  0  0  0  0  0  0  0  0  0
    0.1490   -5.6561    0.0000 C   0  0  0  0  0  0  0  0  0  0  0  0
   -1.7830   -3.1872    0.0000 N   0  0  0  0  0  0  0  0  0  0  0  0
   -4.1204   -4.8317    0.0000 O   0  0  0  0  0  0  0  0  0  0  0  0
  1 14  2  0
  1  2  1  0
  2  3  2  0
  2  7  1  0
  3  4  1  0
  3  6  1  0
  4 13  2  0
  4  5  1  0
  5 24  2  0
  5 25  1  0
  6 25  1  0
  6 26  2  0
  7 12  1  0
  7  8  2  0
  8 28  1  0
  8  9  1  0
  9 10  2  0
 10 11  1  0
 11 12  2  0
 13 15  1  0
 13 14  1  0
 14 30  1  0
 15 16  2  0
 15 17  1  0
 16 18  1  0
 16 30  1  0
 17 19  2  0
 18 20  2  0
 19 20  1  0
 19 27  1  0
 21 22  1  0
 21 30  1  0
 22 23  1  0
 23 31  1  0
 28 29  1  0
M  END
>  <DRUGBANK_ID>  (1) 
DB07006

>  <COMMON_NAME>  (1) 
9-HYDROXY-6-(3-HYDROXYPROPYL)-4-(2-METHOXYPHENYL)PYRROLO[3,4-C]CARBAZOLE-1,3(2H,6H)-DIONE

$$$$
