
     RDKit          2D

 28 31  0  0  0  0  0  0  0  0999 V2000
   -3.1965   -1.4437    0.0000 N   0  0  0  0  0  0  0  0  0  0  0  0
   -2.4820   -1.0312    0.0000 C   0  0  0  0  0  0  0  0  0  0  0  0
   -2.4820   -0.2062    0.0000 N   0  0  0  0  0  0  0  0  0  0  0  0
   -1.7675    0.2062    0.0000 C   0  0  0  0  0  0  0  0  0  0  0  0
   -1.7675    1.0312    0.0000 C   0  0  0  0  0  0  0  0  0  0  0  0
   -2.4820    1.4437    0.0000 C   0  0  0  0  0  0  0  0  0  0  0  0
   -2.4820    2.2687    0.0000 C   0  0  0  0  0  0  0  0  0  0  0  0
   -1.7675    2.6812    0.0000 N   0  0  0  0  0  0  0  0  0  0  0  0
   -1.0532    2.2687    0.0000 C   0  0  0  0  0  0  0  0  0  0  0  0
   -1.0532    1.4437    0.0000 C   0  0  0  0  0  0  0  0  0  0  0  0
   -1.7675   -1.4437    0.0000 C   0  0  0  0  0  0  0  0  0  0  0  0
   -1.7675   -2.2687    0.0000 C   0  0  0  0  0  0  0  0  0  0  0  0
   -2.4820   -2.6812    0.0000 C   0  0  0  0  0  0  0  0  0  0  0  0
   -3.1965   -2.2687    0.0000 C   0  0  0  0  0  0  0  0  0  0  0  0
   -1.0532   -1.0312    0.0000 C   0  0  0  0  0  0  0  0  0  0  0  0
   -0.3386   -1.4437    0.0000 N   0  0  0  0  0  0  0  0  0  0  0  0
    0.3758   -1.0312    0.0000 C   0  0  0  0  0  0  0  0  0  0  0  0
    0.3758   -0.2062    0.0000 C   0  0  0  0  0  0  0  0  0  0  0  0
    1.0902    0.2062    0.0000 C   0  0  0  0  0  0  0  0  0  0  0  0
    1.8047   -0.2062    0.0000 C   0  0  0  0  0  0  0  0  0  0  0  0
    1.8047   -1.0312    0.0000 C   0  0  0  0  0  0  0  0  0  0  0  0
    1.0902   -1.4437    0.0000 C   0  0  0  0  0  0  0  0  0  0  0  0
    2.5893   -1.2861    0.0000 N   0  0  0  0  0  0  0  0  0  0  0  0
    3.0743   -0.6187    0.0000 C   0  0  0  0  0  0  0  0  0  0  0  0
    2.5893    0.0486    0.0000 C   0  0  0  0  0  0  0  0  0  0  0  0
    2.4263    0.8574    0.0000 C   0  0  0  0  0  0  0  0  0  0  0  0
    3.1966    0.6071    0.0000 C   0  0  0  0  0  0  0  0  0  0  0  0
   -1.0532   -0.2062    0.0000 O   0  0  0  0  0  0  0  0  0  0  0  0
  2  1  2  0
  3  2  1  0
  4  3  1  0
  5  4  1  0
  6  5  2  0
  7  6  1  0
  8  7  2  0
  9  8  1  0
 10  5  1  0
 10  9  2  0
 11  2  1  0
 12 11  2  0
 13 12  1  0
 14  1  1  0
 14 13  2  0
 15 11  1  0
 16 15  1  0
 17 16  1  0
 18 17  2  0
 19 18  1  0
 20 19  2  0
 21 20  1  0
 22 17  1  0
 22 21  2  0
 23 21  1  0
 24 23  1  0
 25 20  1  0
 25 24  1  0
 26 25  1  0
 27 25  1  0
 28 15  2  0
M  END
>  <DRUGBANK_ID>  (1) 
DB05575

>  <COMMON_NAME>  (1) 
Motesanib

>  <CAS_NUMBER>  (1) 
453562-69-1

>  <UNII>  (1) 
U1JK633AYI

>  <SYNONYMS>  (1) 
Motesanib

$$$$
