S27
     RDKit          2D

 26 27  0  0  0  0  0  0  0  0999 V2000
   -1.2892   -0.8238    0.0000 C   0  0  0  0  0  0  0  0  0  0  0  0
   -1.2892   -1.6488    0.0000 C   0  0  0  0  0  0  0  0  0  0  0  0
   -2.0037   -2.0613    0.0000 C   0  0  0  0  0  0  0  0  0  0  0  0
   -2.7181   -1.6488    0.0000 C   0  0  0  0  0  0  0  0  0  0  0  0
   -2.7181   -0.8238    0.0000 C   0  0  0  0  0  0  0  0  0  0  0  0
   -2.0037   -0.4113    0.0000 C   0  0  0  0  0  0  0  0  0  0  0  0
   -0.5747   -0.4113    0.0000 P   0  0  0  0  0  0  0  0  0  0  0  0
   -0.1622   -1.1258    0.0000 O   0  0  0  0  0  0  0  0  0  0  0  0
   -0.9872    0.3032    0.0000 C   0  0  0  0  0  0  0  0  0  0  0  0
    0.1397    0.0012    0.0000 N   0  0  0  0  0  0  0  0  0  0  0  0
    0.8542   -0.4113    0.0000 C   0  0  0  0  0  0  0  0  0  0  0  0
    0.8542   -1.2363    0.0000 C   0  0  0  0  0  0  0  0  0  0  0  0
    1.5687   -1.6488    0.0000 C   0  0  0  0  0  0  0  0  0  0  0  0
    1.5687   -2.4738    0.0000 C   0  0  0  0  0  0  0  0  0  0  0  0
    0.8542   -2.8863    0.0000 C   0  0  0  0  0  0  0  0  0  0  0  0
    0.1397   -2.4738    0.0000 C   0  0  0  0  0  0  0  0  0  0  0  0
    0.1397   -1.6488    0.0000 C   0  0  0  0  0  0  0  0  0  0  0  0
    0.1397    0.8262    0.0000 C   0  0  0  0  0  0  0  0  0  0  0  0
   -0.5747    1.2387    0.0000 C   0  0  0  0  0  0  0  0  0  0  0  0
   -0.5747    2.0637    0.0000 N   0  0  0  0  0  0  0  0  0  0  0  0
   -1.2892    2.4762    0.0000 O   0  0  0  0  0  0  0  0  0  0  0  0
   -1.2892    0.8262    0.0000 O   0  0  0  0  0  0  0  0  0  0  0  0
    0.8542    1.2387    0.0000 C   0  0  0  0  0  0  0  0  0  0  0  0
    0.8542    2.0637    0.0000 C   0  0  0  0  0  0  0  0  0  0  0  0
    0.1397    2.4762    0.0000 C   0  0  0  0  0  0  0  0  0  0  0  0
    1.5687    2.4762    0.0000 C   0  0  0  0  0  0  0  0  0  0  0  0
  1  2  2  0
  1  6  1  0
  1  7  1  0
  2  3  1  0
  3  4  2  0
  4  5  1  0
  5  6  2  0
  7  8  2  0
  7  9  1  0
  7 10  1  0
 10 11  1  0
 11 12  1  0
 12 13  2  0
 12 17  1  0
 13 14  1  0
 14 15  2  0
 15 16  1  0
 16 17  2  0
 18 10  1  0
 18 19  1  0
 18 23  1  1
 19 20  1  0
 19 22  2  0
 20 21  1  0
 23 24  1  0
 24 25  1  0
 24 26  1  0
M  END
>  <DRUGBANK_ID>  (1) 
DB08507

>  <COMMON_NAME>  (1) 
N-[[2-METHYL-4-HYDROXYCARBAMOYL]BUT-4-YL-N]-BENZYL-P-[PHENYL]-P-[METHYL]PHOSPHINAMID

$$$$
