
     RDKit          2D

 35 40  0  0  1  0  0  0  0  0999 V2000
    3.6826    0.2174    0.0000 C   0  0  0  0  0  0  0  0  0  0  0  0
    4.3340   -0.2889    0.0000 C   0  0  0  0  0  0  0  0  0  0  0  0
    5.0168    0.1741    0.0000 C   0  0  0  0  0  0  0  0  0  0  0  0
    4.7875    0.9666    0.0000 C   0  0  0  0  0  0  0  0  0  0  0  0
    5.2939    1.6179    0.0000 C   0  0  0  0  0  0  0  0  0  0  0  0
    4.9830    2.3821    0.0000 O   0  0  0  0  0  0  0  0  0  0  0  0
    6.1111    1.5050    0.0000 N   0  0  0  0  0  0  0  0  0  0  0  0
    6.6175    2.1564    0.0000 C   0  0  0  0  0  0  0  0  0  0  0  0
    7.4347    2.0435    0.0000 C   0  0  0  0  0  0  0  0  0  0  0  0
    7.8238    1.3160    0.0000 N   0  0  0  0  0  0  0  0  0  0  0  0
    8.6359    1.4612    0.0000 C   0  0  0  0  0  0  0  0  0  0  0  0
    8.7487    2.2785    0.0000 C   0  0  0  0  0  0  0  0  0  0  0  0
    8.0064    2.6383    0.0000 N   0  0  0  0  0  0  0  0  0  0  0  0
    9.5129    2.5894    0.0000 C   0  0  0  0  0  0  0  0  0  0  0  0
   10.1643    2.0830    0.0000 C   0  0  0  0  0  0  0  0  0  0  0  0
   10.0514    1.2658    0.0000 C   0  0  0  0  0  0  0  0  0  0  0  0
    9.2872    0.9549    0.0000 N   0  0  0  0  0  0  0  0  0  0  0  0
    3.9629    0.9934    0.0000 C   0  0  0  0  0  0  0  0  0  0  0  0
    4.3228    1.7357    0.0000 C   0  0  0  0  0  0  0  0  0  0  0  0
    3.4311    1.6241    0.0000 C   0  0  0  0  0  0  0  0  0  0  0  0
    2.6190    1.4789    0.0000 C   0  0  0  0  0  0  0  0  0  0  0  0
    2.3387    0.7029    0.0000 C   0  0  0  0  0  0  0  0  0  0  0  0
    2.8705    0.0722    0.0000 C   0  0  0  0  0  0  0  0  0  0  0  0
    2.5902   -0.7037    0.0000 C   0  0  0  0  0  0  0  0  0  0  0  0
    1.7781   -0.8489    0.0000 C   0  0  0  0  0  0  0  0  0  0  0  0
    1.2463   -0.2182    0.0000 C   0  0  0  0  0  0  0  0  0  0  0  0
    0.4342   -0.3634    0.0000 N   0  0  0  0  0  0  0  0  0  0  0  0
    0.1539   -1.1393    0.0000 C   0  0  0  0  0  0  0  0  0  0  0  0
   -0.0976    0.2673    0.0000 C   0  0  0  0  0  0  0  0  0  0  0  0
   -0.9098    0.1221    0.0000 O   0  0  0  0  0  0  0  0  0  0  0  0
    0.1827    1.0432    0.0000 C   0  0  0  0  0  0  0  0  0  0  0  0
   -0.3492    1.6739    0.0000 F   0  0  0  0  0  0  0  0  0  0  0  0
    0.9948    1.1884    0.0000 C   0  0  0  0  0  0  0  0  0  0  0  0
    1.5266    0.5577    0.0000 C   0  0  0  0  0  0  0  0  0  0  0  0
    1.8069    1.3336    0.0000 C   0  0  0  0  0  0  0  0  0  0  0  0
  1  2  1  1
  1 18  1  0
  1 23  1  0
  2  3  1  0
  4  3  1  0
  4  5  1  1
  5  6  2  0
  5  7  1  0
  7  8  1  0
  8  9  1  0
  9 10  2  0
  9 13  1  0
 10 11  1  0
 11 12  2  0
 11 17  1  0
 12 13  1  0
 12 14  1  0
 14 15  2  0
 15 16  1  0
 16 17  2  0
 18  4  1  0
 18 19  1  1
 18 20  1  0
 20 21  1  0
 22 21  1  1
 22 34  1  0
 23 22  1  0
 23 24  1  6
 24 25  1  0
 26 25  1  1
 26 27  1  0
 27 28  1  0
 27 29  1  0
 29 30  2  0
 29 31  1  0
 31 32  1  0
 31 33  2  0
 34 33  1  0
 34 26  1  0
 34 35  1  1
M  END
>  <DRUGBANK_ID>  (1) 
DB16244

>  <COMMON_NAME>  (1) 
MK-0773

>  <CAS_NUMBER>  (1) 
606101-58-0

>  <UNII>  (1) 
5730VNW22X

$$$$
