F25
     RDKit          2D

 32 36  0  0  0  0  0  0  0  0999 V2000
   -1.0286    0.0174    0.0000 O   0  0  0  0  0  0  0  0  0  0  0  0
   -0.5437   -0.6500    0.0000 C   0  0  0  0  0  0  0  0  0  0  0  0
   -0.7986   -1.4347    0.0000 N   0  0  0  0  0  0  0  0  0  0  0  0
   -1.5833   -1.6896    0.0000 C   0  0  0  0  0  0  0  0  0  0  0  0
   -2.1963   -1.1376    0.0000 C   0  0  0  0  0  0  0  0  0  0  0  0
   -2.9810   -1.3925    0.0000 C   0  0  0  0  0  0  0  0  0  0  0  0
   -3.5941   -0.8405    0.0000 C   0  0  0  0  0  0  0  0  0  0  0  0
   -3.4225   -0.0335    0.0000 C   0  0  0  0  0  0  0  0  0  0  0  0
   -4.0356    0.5185    0.0000 F   0  0  0  0  0  0  0  0  0  0  0  0
   -2.6379    0.2214    0.0000 C   0  0  0  0  0  0  0  0  0  0  0  0
   -2.0248   -0.3306    0.0000 C   0  0  0  0  0  0  0  0  0  0  0  0
   -0.1312   -1.9196    0.0000 C   0  0  0  0  0  0  0  0  0  0  0  0
    0.5362   -1.4347    0.0000 C   0  0  0  0  0  0  0  0  0  0  0  0
    1.3612   -1.4347    0.0000 C   0  0  0  0  0  0  0  0  0  0  0  0
    1.6162   -0.6500    0.0000 N   0  0  0  0  0  0  0  0  0  0  0  0
    2.4412   -0.6500    0.0000 C   0  0  0  0  0  0  0  0  0  0  0  0
    2.6961   -1.4347    0.0000 C   0  0  0  0  0  0  0  0  0  0  0  0
    2.0287   -1.9196    0.0000 C   0  0  0  0  0  0  0  0  0  0  0  0
    0.9487   -0.1651    0.0000 C   0  0  0  0  0  0  0  0  0  0  0  0
    0.9487    0.6599    0.0000 C   0  0  0  0  0  0  0  0  0  0  0  0
    0.2343    1.0724    0.0000 C   0  0  0  0  0  0  0  0  0  0  0  0
    0.2343    1.8974    0.0000 C   0  0  0  0  0  0  0  0  0  0  0  0
    0.9487    2.3099    0.0000 C   0  0  0  0  0  0  0  0  0  0  0  0
    1.6632    1.8974    0.0000 C   0  0  0  0  0  0  0  0  0  0  0  0
    1.6632    1.0724    0.0000 C   0  0  0  0  0  0  0  0  0  0  0  0
    0.9487    3.1349    0.0000 C   0  0  0  0  0  0  0  0  0  0  0  0
    0.2343    3.5474    0.0000 N   0  0  0  0  0  0  0  0  0  0  0  0
    1.6632    3.5474    0.0000 N   0  0  0  0  0  0  0  0  0  0  0  0
    0.2813   -0.6500    0.0000 C   0  0  0  0  0  0  0  0  0  0  0  0
   -0.1312   -2.7446    0.0000 C   0  0  0  0  0  0  0  0  0  0  0  0
    0.5833   -3.1571    0.0000 F   0  0  0  0  0  0  0  0  0  0  0  0
   -0.8457   -3.1571    0.0000 F   0  0  0  0  0  0  0  0  0  0  0  0
  1  2  2  0
  2  3  1  0
 29  2  1  6
  3  4  1  0
  3 12  1  0
  4  5  1  0
  5  6  2  0
  5 11  1  0
  6  7  1  0
  7  8  2  0
  8  9  1  0
  8 10  1  0
 10 11  2  0
 13 12  1  6
 12 30  1  1
 13 14  1  0
 13 29  1  0
 14 15  1  0
 14 18  1  1
 15 16  1  0
 15 19  1  0
 16 17  1  0
 17 18  1  0
 19 20  1  6
 19 29  1  0
 20 21  2  0
 20 25  1  0
 21 22  1  0
 22 23  2  0
 23 24  1  0
 23 26  1  0
 24 25  2  0
 26 27  1  0
 26 28  1  0
 30 31  1  0
 30 32  1  0
M  END
>  <DRUGBANK_ID>  (1) 
DB07741

>  <COMMON_NAME>  (1) 
4-(1R,3AS,4R,8AS,8BR)-[1-DIFLUOROMETHYL-2-(4-FLUOROBENZYL)-3-OXODECAHYDROPYRROLO[3,4-A]PYRROLIZIN-4-YL]BENZAMIDINE

$$$$
