YPA
     RDKit          2D

 30 33  0  0  0  0  0  0  0  0999 V2000
    3.8204    2.9639    0.0000 C   0  0  0  0  0  0  0  0  0  0  0  0
    3.0135    3.1354    0.0000 C   0  0  0  0  0  0  0  0  0  0  0  0
    2.4614    2.5223    0.0000 C   0  0  0  0  0  0  0  0  0  0  0  0
    2.7164    1.7377    0.0000 C   0  0  0  0  0  0  0  0  0  0  0  0
    3.5233    1.5662    0.0000 C   0  0  0  0  0  0  0  0  0  0  0  0
    4.0754    2.1793    0.0000 C   0  0  0  0  0  0  0  0  0  0  0  0
    1.6364    2.5223    0.0000 C   0  0  0  0  0  0  0  0  0  0  0  0
    1.3815    1.7377    0.0000 C   0  0  0  0  0  0  0  0  0  0  0  0
    2.0489    1.2528    0.0000 N   0  0  0  0  0  0  0  0  0  0  0  0
    1.0844    3.1354    0.0000 C   0  0  0  0  0  0  0  0  0  0  0  0
    0.2774    2.9639    0.0000 C   0  0  0  0  0  0  0  0  0  0  0  0
    0.0225    2.1793    0.0000 C   0  0  0  0  0  0  0  0  0  0  0  0
    0.5745    1.5662    0.0000 C   0  0  0  0  0  0  0  0  0  0  0  0
    2.0489    0.4278    0.0000 C   0  0  0  0  0  0  0  0  0  0  0  0
    1.3345    0.0153    0.0000 C   0  0  0  0  0  0  0  0  0  0  0  0
    1.3345   -0.8097    0.0000 O   0  0  0  0  0  0  0  0  0  0  0  0
    0.6200   -1.2222    0.0000 C   0  0  0  0  0  0  0  0  0  0  0  0
    0.6200   -2.0472    0.0000 C   0  0  0  0  0  0  0  0  0  0  0  0
   -0.0945   -2.4597    0.0000 C   0  0  0  0  0  0  0  0  0  0  0  0
   -0.8090   -2.0472    0.0000 C   0  0  0  0  0  0  0  0  0  0  0  0
   -0.8090   -1.2222    0.0000 C   0  0  0  0  0  0  0  0  0  0  0  0
   -0.0945   -0.8097    0.0000 C   0  0  0  0  0  0  0  0  0  0  0  0
   -1.5234   -2.4597    0.0000 C   0  0  0  0  0  0  0  0  0  0  0  0
   -2.2379   -2.0472    0.0000 C   0  0  0  0  0  0  0  0  0  0  0  0
   -2.2379   -1.2222    0.0000 C   0  0  0  0  0  0  0  0  0  0  0  0
   -2.9524   -0.8097    0.0000 O   0  0  0  0  0  0  0  0  0  0  0  0
   -1.5234   -0.8097    0.0000 O   0  0  0  0  0  0  0  0  0  0  0  0
   -2.9524   -2.4597    0.0000 O   0  0  0  0  0  0  0  0  0  0  0  0
   -3.6668   -2.0472    0.0000 C   0  0  0  0  0  0  0  0  0  0  0  0
   -4.3813   -2.4597    0.0000 C   0  0  0  0  0  0  0  0  0  0  0  0
  1  2  2  0
  1  6  1  0
  2  3  1  0
  3  4  2  0
  3  7  1  0
  4  5  1  0
  4  9  1  0
  5  6  2  0
  7  8  2  0
  7 10  1  0
  8  9  1  0
  8 13  1  0
  9 14  1  0
 10 11  2  0
 11 12  1  0
 12 13  2  0
 14 15  1  0
 15 16  1  0
 16 17  1  0
 17 18  2  0
 17 22  1  0
 18 19  1  0
 19 20  2  0
 20 21  1  0
 20 23  1  0
 21 22  2  0
 24 23  1  6
 24 25  1  0
 24 28  1  0
 25 26  1  0
 25 27  2  0
 28 29  1  0
 29 30  1  0
M  END
>  <DRUGBANK_ID>  (1) 
DB04270

>  <SECONDARY_ACCESSION_NUMBERS>  (1) 
EXPT03276

>  <COMMON_NAME>  (1) 
(S)-3-(4-(2-Carbazol-9-Yl-Ethoxy)-Phenyl)-2-Ethoxy-Propionic Acid

$$$$
