
     RDKit          2D

 25 28  0  0  0  0  0  0  0  0999 V2000
    3.9992    0.1853    0.0000 C   0  0  0  0  0  0  0  0  0  0  0  0
    2.5800    1.0270    0.0000 N   0  0  0  0  0  0  0  0  0  0  0  0
    3.2993    1.4312    0.0000 N   0  0  0  0  0  0  0  0  0  0  0  0
    4.0089    1.0104    0.0000 C   0  0  0  0  0  0  0  0  0  0  0  0
    4.7281    1.4144    0.0000 O   0  0  0  0  0  0  0  0  0  0  0  0
    2.5704    0.2020    0.0000 C   0  0  0  0  0  0  0  0  0  0  0  0
    1.8512   -0.2021    0.0000 C   0  0  0  0  0  0  0  0  0  0  0  0
    1.1223   -1.4312    0.0000 C   0  0  0  0  0  0  0  0  0  0  0  0
    1.8416   -1.0270    0.0000 C   0  0  0  0  0  0  0  0  0  0  0  0
    1.1416    0.2187    0.0000 C   0  0  0  0  0  0  0  0  0  0  0  0
    0.4223   -0.1854    0.0000 C   0  0  0  0  0  0  0  0  0  0  0  0
    0.4127   -1.0103    0.0000 C   0  0  0  0  0  0  0  0  0  0  0  0
   -0.3747   -1.2561    0.0000 N   0  0  0  0  0  0  0  0  0  0  0  0
   -0.3592    0.0786    0.0000 N   0  0  0  0  0  0  0  0  0  0  0  0
   -0.8518   -0.5830    0.0000 C   0  0  0  0  0  0  0  0  0  0  0  0
   -1.6768   -0.5734    0.0000 C   0  0  0  0  0  0  0  0  0  0  0  0
   -2.9225   -1.2734    0.0000 C   0  0  0  0  0  0  0  0  0  0  0  0
   -2.0976   -1.2830    0.0000 C   0  0  0  0  0  0  0  0  0  0  0  0
   -2.0809    0.1458    0.0000 C   0  0  0  0  0  0  0  0  0  0  0  0
   -2.9058    0.1554    0.0000 C   0  0  0  0  0  0  0  0  0  0  0  0
   -3.3266   -0.5542    0.0000 C   0  0  0  0  0  0  0  0  0  0  0  0
   -4.1516   -0.5445    0.0000 O   0  0  0  0  0  0  0  0  0  0  0  0
   -4.7281    0.0455    0.0000 C   0  0  0  0  0  0  0  0  0  0  0  0
    3.2800   -0.2187    0.0000 C   0  0  0  0  0  0  0  0  0  0  0  0
    3.2800   -1.0437    0.0000 C   0  0  0  0  0  0  0  0  0  0  0  0
  1  4  1  0
  2  6  2  0
  3  2  1  0
  4  3  1  0
  4  5  2  0
  6  7  1  0
  7 10  2  0
  8  9  2  0
  8 12  1  0
  9  7  1  0
 10 11  1  0
 11 14  1  0
 12 11  2  0
 13 12  1  0
 13 15  1  0
 14 15  2  0
 15 16  1  0
 16 19  2  0
 17 18  2  0
 17 21  1  0
 18 16  1  0
 19 20  1  0
 20 21  2  0
 21 22  1  0
 22 23  1  0
 24  1  1  0
 24  6  1  0
 24 25  1  0
M  END
>  <DRUGBANK_ID>  (1) 
DB11450

>  <COMMON_NAME>  (1) 
Pimobendan

>  <CAS_NUMBER>  (1) 
74150-27-9

>  <UNII>  (1) 
34AP3BBP9T

>  <SYNONYMS>  (1) 
dl-Pimobendan; Pimobendan; Pimobendane; Pimobendanum

$$$$
