
     RDKit          2D

 36 38  0  0  1  0  0  0  0  0999 V2000
    5.0352    1.6103    0.0000 C   0  0  0  0  0  0  0  0  0  0  0  0
    5.5201    0.9429    0.0000 C   0  0  0  0  0  0  0  0  0  0  0  0
    6.3406    1.0291    0.0000 C   0  0  0  0  0  0  0  0  0  0  0  0
    5.1846    0.1892    0.0000 O   0  0  0  0  0  0  0  0  0  0  0  0
    5.6695   -0.4783    0.0000 C   0  0  0  0  0  0  0  0  0  0  0  0
    6.4900   -0.3920    0.0000 O   0  0  0  0  0  0  0  0  0  0  0  0
    5.3339   -1.2319    0.0000 C   0  0  0  0  0  0  0  0  0  0  0  0
    4.5135   -1.3182    0.0000 C   0  0  0  0  0  0  0  0  0  0  0  0
    5.8189   -1.8994    0.0000 N   0  0  0  0  0  0  0  0  0  0  0  0
    5.4833   -2.6531    0.0000 P   0  0  0  0  0  0  0  0  0  0  0  0
    4.7296   -2.3175    0.0000 O   0  0  0  0  0  0  0  0  0  0  0  0
    5.1477   -3.4067    0.0000 O   0  0  0  0  0  0  0  0  0  0  0  0
    4.3273   -3.4930    0.0000 C   0  0  0  0  0  0  0  0  0  0  0  0
    3.8423   -2.8255    0.0000 C   0  0  0  0  0  0  0  0  0  0  0  0
    3.0173   -2.8255    0.0000 O   0  0  0  0  0  0  0  0  0  0  0  0
    2.7624   -2.0409    0.0000 C   0  0  0  0  0  0  0  0  0  0  0  0
    1.9778   -1.7860    0.0000 N   0  0  0  0  0  0  0  0  0  0  0  0
    1.3647   -2.3380    0.0000 C   0  0  0  0  0  0  0  0  0  0  0  0
    0.5801   -2.0831    0.0000 C   0  0  0  0  0  0  0  0  0  0  0  0
    0.4085   -1.2761    0.0000 C   0  0  0  0  0  0  0  0  0  0  0  0
   -0.3761   -1.0211    0.0000 O   0  0  0  0  0  0  0  0  0  0  0  0
    1.0216   -0.7241    0.0000 N   0  0  0  0  0  0  0  0  0  0  0  0
    1.8062   -0.9790    0.0000 C   0  0  0  0  0  0  0  0  0  0  0  0
    2.4193   -0.4270    0.0000 O   0  0  0  0  0  0  0  0  0  0  0  0
    3.4298   -1.5560    0.0000 C   0  0  0  0  0  0  0  0  0  0  0  0
    2.8778   -0.9429    0.0000 C   0  0  0  0  0  0  0  0  0  0  0  0
    3.9819   -0.9429    0.0000 Cl  0  0  0  0  0  0  0  0  0  0  0  0
    4.0973   -2.0409    0.0000 C   0  0  0  0  0  0  0  0  0  0  0  0
    4.8819   -1.7860    0.0000 O   0  0  0  0  0  0  0  0  0  0  0  0
    6.2370   -2.9886    0.0000 O   0  0  0  0  0  0  0  0  0  0  0  0
    6.3232   -3.8091    0.0000 C   0  0  0  0  0  0  0  0  0  0  0  0
    7.0769   -4.1446    0.0000 C   0  0  0  0  0  0  0  0  0  0  0  0
    7.1631   -4.9651    0.0000 C   0  0  0  0  0  0  0  0  0  0  0  0
    6.4957   -5.4501    0.0000 C   0  0  0  0  0  0  0  0  0  0  0  0
    5.7420   -5.1145    0.0000 C   0  0  0  0  0  0  0  0  0  0  0  0
    5.6558   -4.2940    0.0000 C   0  0  0  0  0  0  0  0  0  0  0  0
  1  2  1  0
  2  3  1  0
  2  4  1  0
  4  5  1  0
  5  6  2  0
  7  5  1  0
  7  8  1  6
  7  9  1  0
 10  9  1  0
 10 11  2  0
 10 12  1  0
 10 30  1  0
 12 13  1  0
 14 13  1  1
 14 15  1  0
 16 15  1  0
 16 17  1  1
 17 18  1  0
 17 23  1  0
 18 19  2  0
 19 20  1  0
 20 21  2  0
 20 22  1  0
 22 23  1  0
 23 24  2  0
 25 16  1  0
 25 26  1  1
 25 27  1  0
 25 28  1  0
 28 14  1  0
 28 29  1  6
 30 31  1  0
 31 32  2  0
 31 36  1  0
 32 33  1  0
 33 34  2  0
 34 35  1  0
 35 36  2  0
M  END
>  <DRUGBANK_ID>  (1) 
DB15206

>  <COMMON_NAME>  (1) 
Uprifosbuvir

>  <CAS_NUMBER>  (1) 
1496551-77-9

>  <UNII>  (1) 
JW31KPS26S

>  <SYNONYMS>  (1) 
Uprifosbuvir

$$$$
