W01
     RDKit          2D

 24 26  0  0  0  0  0  0  0  0999 V2000
   -3.6469    0.2765    0.0000 O   0  0  0  0  0  0  0  0  0  0  0  0
   -4.1989    0.8896    0.0000 N   0  0  0  0  0  0  0  0  0  0  0  0
   -3.7864    1.6041    0.0000 C   0  0  0  0  0  0  0  0  0  0  0  0
   -4.1220    2.3578    0.0000 C   0  0  0  0  0  0  0  0  0  0  0  0
   -2.9795    1.4326    0.0000 C   0  0  0  0  0  0  0  0  0  0  0  0
   -2.8932    0.6121    0.0000 C   0  0  0  0  0  0  0  0  0  0  0  0
   -2.1788    0.1996    0.0000 C   0  0  0  0  0  0  0  0  0  0  0  0
   -1.4643    0.6121    0.0000 C   0  0  0  0  0  0  0  0  0  0  0  0
   -0.7498    0.1996    0.0000 C   0  0  0  0  0  0  0  0  0  0  0  0
   -0.0354    0.6121    0.0000 O   0  0  0  0  0  0  0  0  0  0  0  0
    0.6791    0.1996    0.0000 C   0  0  0  0  0  0  0  0  0  0  0  0
    1.3936    0.6121    0.0000 C   0  0  0  0  0  0  0  0  0  0  0  0
    1.3936    1.4371    0.0000 C   0  0  0  0  0  0  0  0  0  0  0  0
    2.1081    0.1996    0.0000 C   0  0  0  0  0  0  0  0  0  0  0  0
    2.1081   -0.6254    0.0000 C   0  0  0  0  0  0  0  0  0  0  0  0
    1.3936   -1.0379    0.0000 C   0  0  0  0  0  0  0  0  0  0  0  0
    0.6791   -0.6254    0.0000 C   0  0  0  0  0  0  0  0  0  0  0  0
   -0.0354   -1.0379    0.0000 C   0  0  0  0  0  0  0  0  0  0  0  0
    2.8225   -1.0379    0.0000 C   0  0  0  0  0  0  0  0  0  0  0  0
    3.5762   -0.7023    0.0000 N   0  0  0  0  0  0  0  0  0  0  0  0
    2.9088   -1.8584    0.0000 N   0  0  0  0  0  0  0  0  0  0  0  0
    3.7157   -2.0299    0.0000 N   0  0  0  0  0  0  0  0  0  0  0  0
    4.0513   -2.7836    0.0000 C   0  0  0  0  0  0  0  0  0  0  0  0
    4.1282   -1.3154    0.0000 N   0  0  0  0  0  0  0  0  0  0  0  0
  1  2  1  0
  1  6  1  0
  2  3  2  0
  3  4  1  0
  3  5  1  0
  5  6  2  0
  6  7  1  0
  7  8  1  0
  8  9  1  0
  9 10  1  0
 10 11  1  0
 11 12  2  0
 11 17  1  0
 12 13  1  0
 12 14  1  0
 14 15  2  0
 15 16  1  0
 15 19  1  0
 16 17  2  0
 17 18  1  0
 19 20  1  0
 19 21  2  0
 20 24  2  0
 21 22  1  0
 22 23  1  0
 22 24  1  0
M  END
>  <DRUGBANK_ID>  (1) 
DB08713

>  <COMMON_NAME>  (1) 
2,6-DIMETHYL-1-(3-[3-METHYL-5-ISOXAZOLYL]-PROPANYL)-4-[2N-METHYL-2H-TETRAZOL-5-YL]-PHENOL

$$$$
