
     RDKit          2D

 15 16  0  0  0  0  0  0  0  0999 V2000
   -2.2557   -1.2646    0.0000 O   0  0  0  0  0  0  0  0  0  0  0  0
   -1.5411   -0.8522    0.0000 C   0  0  0  0  0  0  0  0  0  0  0  0
   -0.8266   -1.2646    0.0000 O   0  0  0  0  0  0  0  0  0  0  0  0
   -1.5411   -0.0271    0.0000 C   0  0  0  0  0  0  0  0  0  0  0  0
   -2.2557    0.3853    0.0000 N   0  0  0  0  0  0  0  0  0  0  0  0
   -0.8266    0.3853    0.0000 C   0  0  0  0  0  0  0  0  0  0  0  0
   -0.1121   -0.0271    0.0000 C   0  0  0  0  0  0  0  0  0  0  0  0
   -0.0258   -0.8476    0.0000 C   0  0  0  0  0  0  0  0  0  0  0  0
    0.7811   -1.0192    0.0000 N   0  0  0  0  0  0  0  0  0  0  0  0
    1.1936   -0.3046    0.0000 C   0  0  0  0  0  0  0  0  0  0  0  0
    0.6416    0.3084    0.0000 C   0  0  0  0  0  0  0  0  0  0  0  0
    0.8965    1.0930    0.0000 C   0  0  0  0  0  0  0  0  0  0  0  0
    1.7036    1.2646    0.0000 C   0  0  0  0  0  0  0  0  0  0  0  0
    2.2557    0.6516    0.0000 C   0  0  0  0  0  0  0  0  0  0  0  0
    2.0007   -0.1331    0.0000 N   0  0  0  0  0  0  0  0  0  0  0  0
  2  1  1  0
  2  3  2  0
  4  2  1  0
  4  5  1  1
  4  6  1  0
  6  7  1  0
  7  8  2  0
  7 11  1  0
  8  9  1  0
 10  9  1  0
 10 15  1  0
 11 10  2  0
 11 12  1  0
 12 13  2  0
 13 14  1  0
 15 14  2  0
M  END
>  <DRUGBANK_ID>  (1) 
DB04206

>  <SECONDARY_ACCESSION_NUMBERS>  (1) 
EXPT03111

>  <COMMON_NAME>  (1) 
7-Aza-L-tryptophan

>  <CAS_NUMBER>  (1) 
49758-35-2

>  <UNII>  (1) 
72B59WRT3H

>  <SYNONYMS>  (1) 
L-7-azatryptophan

$$$$
