
     RDKit          2D

 26 27  0  0  1  0  0  0  0  0999 V2000
    0.8212    3.6509    0.0000 C   0  0  0  0  0  0  0  0  0  0  0  0
    0.1067    3.2384    0.0000 O   0  0  0  0  0  0  0  0  0  0  0  0
   -0.6078    3.6509    0.0000 C   0  0  0  0  0  0  0  0  0  0  0  0
   -1.3222    3.2384    0.0000 C   0  0  0  0  0  0  0  0  0  0  0  0
   -1.3222    2.4134    0.0000 O   0  0  0  0  0  0  0  0  0  0  0  0
   -2.0367    2.0009    0.0000 C   0  0  0  0  0  0  0  0  0  0  0  0
   -2.0367    3.6509    0.0000 C   0  0  0  0  0  0  0  0  0  0  0  0
   -2.0367    4.4759    0.0000 C   0  0  0  0  0  0  0  0  0  0  0  0
   -1.3222    4.8884    0.0000 C   0  0  0  0  0  0  0  0  0  0  0  0
   -1.3222    5.7134    0.0000 C   0  0  0  0  0  0  0  0  0  0  0  0
   -0.6078    6.1259    0.0000 C   0  0  0  0  0  0  0  0  0  0  0  0
   -0.6078    6.9509    0.0000 C   0  0  0  0  0  0  0  0  0  0  0  0
    0.1067    7.3634    0.0000 F   0  0  0  0  0  0  0  0  0  0  0  0
   -0.6078    4.4759    0.0000 C   0  0  0  0  0  0  0  0  0  0  0  0
   -2.7512    3.2384    0.0000 C   0  0  0  0  0  0  0  0  0  0  0  0
   -3.4656    3.6509    0.0000 O   0  0  0  0  0  0  0  0  0  0  0  0
   -2.7512    2.4134    0.0000 N   0  0  0  0  0  0  0  0  0  0  0  0
   -3.4656    2.0009    0.0000 C   0  0  0  0  0  0  0  0  0  0  0  0
   -3.4656    1.1759    0.0000 C   0  0  0  0  0  0  0  0  0  0  0  0
   -2.7982    0.6910    0.0000 C   0  0  0  0  0  0  0  0  0  0  0  0
   -3.0531   -0.0937    0.0000 C   0  0  0  0  0  0  0  0  0  0  0  0
   -3.8781   -0.0937    0.0000 C   0  0  0  0  0  0  0  0  0  0  0  0
   -4.1331    0.6910    0.0000 N   0  0  0  0  0  0  0  0  0  0  0  0
   -4.9177    0.9459    0.0000 C   0  0  0  0  0  0  0  0  0  0  0  0
   -5.5308    0.3939    0.0000 C   0  0  0  0  0  0  0  0  0  0  0  0
   -5.3593   -0.4131    0.0000 C   0  0  0  0  0  0  0  0  0  0  0  0
  1  2  1  0
  2  3  1  0
  3  4  2  0
  3 14  1  0
  4  5  1  0
  4  7  1  0
  5  6  1  0
  7  8  2  0
  7 15  1  0
  8  9  1  0
  9 10  1  0
  9 14  2  0
 10 11  1  0
 11 12  1  0
 12 13  1  0
 15 16  2  0
 15 17  1  0
 17 18  1  0
 19 18  1  6
 19 20  1  0
 19 23  1  0
 20 21  1  0
 21 22  1  0
 22 23  1  0
 23 24  1  0
 24 25  1  0
 25 26  2  0
M  END
>  <DRUGBANK_ID>  (1) 
DB15167

>  <COMMON_NAME>  (1) 
Fallypride

>  <CAS_NUMBER>  (1) 
166173-78-0

>  <UNII>  (1) 
G9FWZ369GX

$$$$
