
     RDKit          2D

 14 16  0  0  0  0  0  0  0  0999 V2000
    5.0013    1.2375    0.0000 C   0  0  0  0  0  0  0  0  0  0  0  0
    0.7145    1.2375    0.0000 C   0  0  0  0  0  0  0  0  0  0  0  0
    5.0013    2.0625    0.0000 C   0  0  0  0  0  0  0  0  0  0  0  0
    0.7145    2.0625    0.0000 C   0  0  0  0  0  0  0  0  0  0  0  0
    4.2868    0.8250    0.0000 C   0  0  0  0  0  0  0  0  0  0  0  0
    1.4289    0.8250    0.0000 C   0  0  0  0  0  0  0  0  0  0  0  0
    4.2868    2.4750    0.0000 C   0  0  0  0  0  0  0  0  0  0  0  0
    1.4289    2.4750    0.0000 C   0  0  0  0  0  0  0  0  0  0  0  0
    3.5724    1.2375    0.0000 C   0  0  0  0  0  0  0  0  0  0  0  0
    2.1434    1.2375    0.0000 C   0  0  0  0  0  0  0  0  0  0  0  0
    3.5724    2.0625    0.0000 C   0  0  0  0  0  0  0  0  0  0  0  0
    2.1434    2.0625    0.0000 C   0  0  0  0  0  0  0  0  0  0  0  0
    2.8579    0.8250    0.0000 N   0  0  0  0  0  0  0  0  0  0  0  0
    2.8579    2.4750    0.0000 S   0  0  0  0  0  0  0  0  0  0  0  0
  3  1  2  0
  4  2  2  0
  5  1  1  0
  6  2  1  0
  7  3  1  0
  8  4  1  0
  9  5  2  0
 10  6  2  0
 11  7  2  0
 11  9  1  0
 12  8  2  0
 12 10  1  0
 13  9  1  0
 13 10  1  0
 14 11  1  0
 14 12  1  0
M  END
>  <DRUGBANK_ID>  (1) 
DB11447

>  <COMMON_NAME>  (1) 
Phenothiazine

>  <CAS_NUMBER>  (1) 
92-84-2

>  <UNII>  (1) 
GS9EX7QNU6

>  <SYNONYMS>  (1) 
10H-phenothiazine; dibenzo-1,4-thiazine; Fenotiazina; Phenothiazine; Phenothiazinum; Thiodiphenylamin

$$$$
