
     RDKit          2D

 24 26  0  0  0  0  0  0  0  0999 V2000
    0.1475    2.3870    0.0000 C   0  0  0  0  0  0  0  0  0  0  0  0
   -0.6594    2.5585    0.0000 N   0  0  0  0  0  0  0  0  0  0  0  0
   -1.0718    1.8440    0.0000 C   0  0  0  0  0  0  0  0  0  0  0  0
   -0.5198    1.2309    0.0000 C   0  0  0  0  0  0  0  0  0  0  0  0
    0.2338    1.5665    0.0000 N   0  0  0  0  0  0  0  0  0  0  0  0
   -1.8923    1.7578    0.0000 C   0  0  0  0  0  0  0  0  0  0  0  0
   -2.2279    1.0040    0.0000 O   0  0  0  0  0  0  0  0  0  0  0  0
   -2.3773    2.4252    0.0000 N   0  0  0  0  0  0  0  0  0  0  0  0
    0.9482    1.1540    0.0000 C   0  0  0  0  0  0  0  0  0  0  0  0
    1.6628    1.5665    0.0000 C   0  0  0  0  0  0  0  0  0  0  0  0
    1.6628    2.3914    0.0000 C   0  0  0  0  0  0  0  0  0  0  0  0
    0.9482    0.3290    0.0000 C   0  0  0  0  0  0  0  0  0  0  0  0
    0.2338   -0.0834    0.0000 C   0  0  0  0  0  0  0  0  0  0  0  0
    0.2338   -0.9084    0.0000 C   0  0  0  0  0  0  0  0  0  0  0  0
    0.9482   -1.3210    0.0000 C   0  0  0  0  0  0  0  0  0  0  0  0
    0.9482   -2.1460    0.0000 C   0  0  0  0  0  0  0  0  0  0  0  0
    0.2338   -2.5585    0.0000 C   0  0  0  0  0  0  0  0  0  0  0  0
   -0.4805   -2.1460    0.0000 C   0  0  0  0  0  0  0  0  0  0  0  0
   -1.1950   -2.5585    0.0000 C   0  0  0  0  0  0  0  0  0  0  0  0
   -1.9095   -2.1460    0.0000 C   0  0  0  0  0  0  0  0  0  0  0  0
   -1.9095   -1.3210    0.0000 C   0  0  0  0  0  0  0  0  0  0  0  0
   -1.1950   -0.9084    0.0000 C   0  0  0  0  0  0  0  0  0  0  0  0
   -0.4805   -1.3210    0.0000 C   0  0  0  0  0  0  0  0  0  0  0  0
    2.3773    1.1540    0.0000 O   0  0  0  0  0  0  0  0  0  0  0  0
  1  2  2  0
  1  5  1  0
  2  3  1  0
  3  4  2  0
  3  6  1  0
  4  5  1  0
  5  9  1  0
  6  7  2  0
  6  8  1  0
  9 10  1  0
  9 12  1  1
 10 11  1  6
 10 24  1  0
 12 13  1  0
 13 14  1  0
 14 15  2  0
 14 23  1  0
 15 16  1  0
 16 17  2  0
 17 18  1  0
 18 19  1  0
 18 23  2  0
 19 20  2  0
 20 21  1  0
 21 22  2  0
 22 23  1  0
M  END
>  <DRUGBANK_ID>  (1) 
DB03220

>  <SECONDARY_ACCESSION_NUMBERS>  (1) 
EXPT01485

>  <COMMON_NAME>  (1) 
FR-234938

>  <CAS_NUMBER>  (1) 
256461-79-7

>  <UNII>  (1) 
10302WQ21V

$$$$
