I5S
     RDKit          2D

 28 30  0  0  0  0  0  0  0  0999 V2000
   -6.2990   -1.2297    0.0000 Cl  0  0  0  0  0  0  0  0  0  0  0  0
   -5.5845   -0.8172    0.0000 C   0  0  0  0  0  0  0  0  0  0  0  0
   -5.5845    0.0078    0.0000 C   0  0  0  0  0  0  0  0  0  0  0  0
   -4.8700    0.4203    0.0000 C   0  0  0  0  0  0  0  0  0  0  0  0
   -4.1556    0.0078    0.0000 C   0  0  0  0  0  0  0  0  0  0  0  0
   -3.4411    0.4203    0.0000 C   0  0  0  0  0  0  0  0  0  0  0  0
   -2.7266    0.0078    0.0000 O   0  0  0  0  0  0  0  0  0  0  0  0
   -2.0122    0.4203    0.0000 C   0  0  0  0  0  0  0  0  0  0  0  0
   -1.2977    0.0078    0.0000 C   0  0  0  0  0  0  0  0  0  0  0  0
   -0.5832    0.4203    0.0000 N   0  0  0  0  0  0  0  0  0  0  0  0
    0.1313    0.0078    0.0000 C   0  0  0  0  0  0  0  0  0  0  0  0
    0.8457    0.4203    0.0000 C   0  0  0  0  0  0  0  0  0  0  0  0
    1.5602    0.0078    0.0000 N   0  0  0  0  0  0  0  0  0  0  0  0
    2.2747    0.4203    0.0000 S   0  0  0  0  0  0  0  0  0  0  0  0
    2.6872   -0.2941    0.0000 O   0  0  0  0  0  0  0  0  0  0  0  0
    1.8622    1.1348    0.0000 O   0  0  0  0  0  0  0  0  0  0  0  0
    2.9891    0.8328    0.0000 C   0  0  0  0  0  0  0  0  0  0  0  0
    2.9891    1.6578    0.0000 C   0  0  0  0  0  0  0  0  0  0  0  0
    3.7036    2.0703    0.0000 C   0  0  0  0  0  0  0  0  0  0  0  0
    4.4181    1.6578    0.0000 C   0  0  0  0  0  0  0  0  0  0  0  0
    4.4181    0.8328    0.0000 C   0  0  0  0  0  0  0  0  0  0  0  0
    5.1326    0.4203    0.0000 C   0  0  0  0  0  0  0  0  0  0  0  0
    5.1326   -0.4047    0.0000 N   0  0  0  0  0  0  0  0  0  0  0  0
    4.4181   -0.8172    0.0000 C   0  0  0  0  0  0  0  0  0  0  0  0
    3.7036   -0.4047    0.0000 C   0  0  0  0  0  0  0  0  0  0  0  0
    3.7036    0.4203    0.0000 C   0  0  0  0  0  0  0  0  0  0  0  0
   -4.1556   -0.8172    0.0000 C   0  0  0  0  0  0  0  0  0  0  0  0
   -4.8700   -1.2297    0.0000 C   0  0  0  0  0  0  0  0  0  0  0  0
  1  2  1  0
  2  3  2  0
  2 28  1  0
  3  4  1  0
  4  5  2  0
  5  6  1  0
  5 27  1  0
  6  7  1  0
  7  8  1  0
  8  9  1  0
  9 10  1  0
 10 11  1  0
 11 12  1  0
 12 13  1  0
 13 14  1  0
 14 15  2  0
 14 16  2  0
 14 17  1  0
 17 18  2  0
 17 26  1  0
 18 19  1  0
 19 20  2  0
 20 21  1  0
 21 22  1  0
 21 26  2  0
 22 23  2  0
 23 24  1  0
 24 25  2  0
 25 26  1  0
 27 28  2  0
M  END
>  <DRUGBANK_ID>  (1) 
DB07947

>  <COMMON_NAME>  (1) 
ISOQUINOLINE-5-SULFONIC ACID (2-(2-(4-CHLOROBENZYLOXY)ETHYLAMINO)ETHYL)AMIDE

$$$$
