492
     RDKit          2D

 12 13  0  0  0  0  0  0  0  0999 V2000
   -1.4181    2.1558    0.0000 N   0  0  0  0  0  0  0  0  0  0  0  0
   -0.7036    1.7433    0.0000 C   0  0  0  0  0  0  0  0  0  0  0  0
   -0.7036    0.9183    0.0000 C   0  0  0  0  0  0  0  0  0  0  0  0
   -0.0362    0.4333    0.0000 S   0  0  0  0  0  0  0  0  0  0  0  0
   -0.2911   -0.3513    0.0000 C   0  0  0  0  0  0  0  0  0  0  0  0
   -1.1161   -0.3513    0.0000 C   0  0  0  0  0  0  0  0  0  0  0  0
   -1.3710    0.4333    0.0000 C   0  0  0  0  0  0  0  0  0  0  0  0
    0.1938   -1.0187    0.0000 C   0  0  0  0  0  0  0  0  0  0  0  0
   -0.0611   -1.8033    0.0000 S   0  0  0  0  0  0  0  0  0  0  0  0
    0.6063   -2.2883    0.0000 C   0  0  0  0  0  0  0  0  0  0  0  0
    1.2738   -1.8033    0.0000 C   0  0  0  0  0  0  0  0  0  0  0  0
    1.0188   -1.0187    0.0000 C   0  0  0  0  0  0  0  0  0  0  0  0
  2  1  1  0
  3  2  1  0
  3  4  1  0
  5  4  1  0
  5  8  1  0
  6  5  2  0
  6  7  1  0
  7  3  2  0
  8 12  2  0
  9  8  1  0
  9 10  1  0
 10 11  2  0
 11 12  1  0
M  END
>  <DRUGBANK_ID>  (1) 
DB07094

>  <COMMON_NAME>  (1) 
1-(2,2'-bithiophen-5-yl)methanamine

$$$$
