
     RDKit          2D

 31 36  0  0  0  0  0  0  0  0999 V2000
    4.1481    3.6283    0.0000 C   0  0  0  0  0  0  0  0  0  0  0  0
    3.4625    3.1693    0.0000 O   0  0  0  0  0  0  0  0  0  0  0  0
    3.5173    2.3461    0.0000 C   0  0  0  0  0  0  0  0  0  0  0  0
    4.2575    1.9819    0.0000 C   0  0  0  0  0  0  0  0  0  0  0  0
    4.3123    1.1588    0.0000 C   0  0  0  0  0  0  0  0  0  0  0  0
    3.6268    0.6998    0.0000 C   0  0  0  0  0  0  0  0  0  0  0  0
    2.8865    1.0639    0.0000 C   0  0  0  0  0  0  0  0  0  0  0  0
    2.8317    1.8871    0.0000 C   0  0  0  0  0  0  0  0  0  0  0  0
    2.0319    2.0894    0.0000 C   0  0  0  0  0  0  0  0  0  0  0  0
    1.5924    1.3913    0.0000 C   0  0  0  0  0  0  0  0  0  0  0  0
    2.1205    0.7575    0.0000 N   0  0  0  0  0  0  0  0  0  0  0  0
    0.7680    1.4229    0.0000 C   0  0  0  0  0  0  0  0  0  0  0  0
    0.3831    2.1527    0.0000 C   0  0  0  0  0  0  0  0  0  0  0  0
   -0.4298    2.0122    0.0000 C   0  0  0  0  0  0  0  0  0  0  0  0
   -0.5474    1.1956    0.0000 C   0  0  0  0  0  0  0  0  0  0  0  0
    0.1929    0.8314    0.0000 C   0  0  0  0  0  0  0  0  0  0  0  0
    0.8227    2.8508    0.0000 C   0  0  0  0  0  0  0  0  0  0  0  0
    1.6471    2.8192    0.0000 C   0  0  0  0  0  0  0  0  0  0  0  0
    1.9319    3.5935    0.0000 C   0  0  0  0  0  0  0  0  0  0  0  0
    2.7257    3.8182    0.0000 O   0  0  0  0  0  0  0  0  0  0  0  0
    1.2835    4.1036    0.0000 N   0  0  0  0  0  0  0  0  0  0  0  0
    1.3152    4.9280    0.0000 C   0  0  0  0  0  0  0  0  0  0  0  0
    2.0449    5.3128    0.0000 N   0  0  0  0  0  0  0  0  0  0  0  0
    2.0765    6.1372    0.0000 C   0  0  0  0  0  0  0  0  0  0  0  0
    2.8063    6.5220    0.0000 C   0  0  0  0  0  0  0  0  0  0  0  0
    3.5044    6.0825    0.0000 N   0  0  0  0  0  0  0  0  0  0  0  0
    4.2341    6.4673    0.0000 C   0  0  0  0  0  0  0  0  0  0  0  0
    3.4728    5.2581    0.0000 C   0  0  0  0  0  0  0  0  0  0  0  0
    2.7430    4.8733    0.0000 C   0  0  0  0  0  0  0  0  0  0  0  0
    0.5980    3.6446    0.0000 C   0  0  0  0  0  0  0  0  0  0  0  0
   -0.1763    3.9294    0.0000 O   0  0  0  0  0  0  0  0  0  0  0  0
  1  2  1  0
  2  3  1  0
  3  4  2  0
  3  8  1  0
  4  5  1  0
  5  6  2  0
  6  7  1  0
  7  8  2  0
  7 11  1  0
  8  9  1  0
  9 10  2  0
  9 18  1  0
 10 11  1  0
 10 12  1  0
 12 13  2  0
 12 16  1  0
 13 14  1  0
 13 17  1  0
 14 15  1  0
 15 16  1  0
 17 18  2  0
 17 30  1  0
 18 19  1  0
 19 20  2  0
 19 21  1  0
 21 22  1  0
 21 30  1  0
 22 23  1  0
 23 24  1  0
 23 29  1  0
 24 25  1  0
 25 26  1  0
 26 27  1  0
 26 28  1  0
 28 29  1  0
 30 31  2  0
M  END
>  <DRUGBANK_ID>  (1) 
DB14882

>  <COMMON_NAME>  (1) 
CEP-9722

>  <CAS_NUMBER>  (1) 
916574-83-9

>  <UNII>  (1) 
B68083E4YG

$$$$
