
     RDKit          2D

 32 35  0  0  1  0  0  0  0  0999 V2000
   -8.9239   -0.0996    0.0000 C   0  0  0  0  0  0  0  0  0  0  0  0
   -8.1702    0.2360    0.0000 C   0  0  0  0  0  0  0  0  0  0  0  0
   -8.0840    1.0565    0.0000 C   0  0  0  0  0  0  0  0  0  0  0  0
   -7.3303    1.3920    0.0000 C   0  0  0  0  0  0  0  0  0  0  0  0
   -6.6629    0.9071    0.0000 C   0  0  0  0  0  0  0  0  0  0  0  0
   -6.7491    0.0866    0.0000 C   0  0  0  0  0  0  0  0  0  0  0  0
   -7.5028   -0.2489    0.0000 C   0  0  0  0  0  0  0  0  0  0  0  0
   -5.9092    1.2427    0.0000 C   0  0  0  0  0  0  0  0  0  0  0  0
   -5.1555    1.5782    0.0000 C   0  0  0  0  0  0  0  0  0  0  0  0
   -4.4019    1.9138    0.0000 C   0  0  0  0  0  0  0  0  0  0  0  0
   -4.2303    2.7208    0.0000 C   0  0  0  0  0  0  0  0  0  0  0  0
   -3.4099    2.8070    0.0000 C   0  0  0  0  0  0  0  0  0  0  0  0
   -3.0743    2.0533    0.0000 C   0  0  0  0  0  0  0  0  0  0  0  0
   -3.6874    1.5013    0.0000 S   0  0  0  0  0  0  0  0  0  0  0  0
   -2.2673    1.8818    0.0000 S   0  0  0  0  0  0  0  0  0  0  0  0
   -2.4389    1.0748    0.0000 O   0  0  0  0  0  0  0  0  0  0  0  0
   -2.0958    2.6888    0.0000 O   0  0  0  0  0  0  0  0  0  0  0  0
   -1.4604    1.7103    0.0000 N   0  0  0  0  0  0  0  0  0  0  0  0
   -1.2054    0.9256    0.0000 C   0  0  0  0  0  0  0  0  0  0  0  0
   -0.3984    0.7541    0.0000 C   0  0  0  0  0  0  0  0  0  0  0  0
   -0.1435   -0.0305    0.0000 C   0  0  0  0  0  0  0  0  0  0  0  0
   -0.6284   -0.6979    0.0000 C   0  0  0  0  0  0  0  0  0  0  0  0
   -0.1435   -1.3654    0.0000 N   0  0  0  0  0  0  0  0  0  0  0  0
    0.6411   -1.1104    0.0000 C   0  0  0  0  0  0  0  0  0  0  0  0
    0.6411   -0.2854    0.0000 C   0  0  0  0  0  0  0  0  0  0  0  0
    1.3556    0.1271    0.0000 C   0  0  0  0  0  0  0  0  0  0  0  0
    2.0701   -0.2854    0.0000 C   0  0  0  0  0  0  0  0  0  0  0  0
    2.0701   -1.1104    0.0000 C   0  0  0  0  0  0  0  0  0  0  0  0
    1.3556   -1.5229    0.0000 C   0  0  0  0  0  0  0  0  0  0  0  0
   -1.7575    0.3126    0.0000 C   0  0  0  0  0  0  0  0  0  0  0  0
   -1.5025   -0.4721    0.0000 O   0  0  0  0  0  0  0  0  0  0  0  0
   -2.5644    0.4841    0.0000 O   0  0  0  0  0  0  0  0  0  0  0  0
  1  2  1  0
  2  3  2  0
  2  7  1  0
  3  4  1  0
  4  5  2  0
  5  6  1  0
  5  8  1  0
  6  7  2  0
  8  9  3  0
  9 10  1  0
 10 11  2  0
 10 14  1  0
 11 12  1  0
 12 13  2  0
 13 14  1  0
 13 15  1  0
 15 16  2  0
 15 17  2  0
 15 18  1  0
 19 18  1  0
 19 20  1  6
 19 30  1  0
 20 21  1  0
 21 22  2  0
 21 25  1  0
 22 23  1  0
 23 24  1  0
 24 25  2  0
 24 29  1  0
 25 26  1  0
 26 27  2  0
 27 28  1  0
 28 29  2  0
 30 31  2  0
 30 32  1  0
M  END
>  <DRUGBANK_ID>  (1) 
DB12149

>  <COMMON_NAME>  (1) 
S-3304

>  <CAS_NUMBER>  (1) 
203640-27-1

>  <UNII>  (1) 
BK459F050X

$$$$
