
     RDKit          2D

 13 12  0  0  0  0  0  0  0  0999 V2000
   -0.7206    0.0000    0.0000 C   0  0  0  0  0  0  0  0  0  0  0  0
    0.0000    0.4017    0.0000 C   0  0  0  0  0  0  0  0  0  0  0  0
   -0.7331   -0.8249    0.0000 C   0  0  0  0  0  0  0  0  0  0  0  0
   -1.4260    0.4233    0.0000 C   0  0  0  0  0  0  0  0  0  0  0  0
    1.4415    0.3710    0.0000 C   0  0  0  0  0  0  0  0  0  0  0  0
    0.7053   -0.0214    0.0000 C   0  0  0  0  0  0  0  0  0  0  0  0
   -1.4538   -1.2268    0.0000 O   0  0  0  0  0  0  0  0  0  0  0  0
   -2.1468    0.0215    0.0000 O   0  0  0  0  0  0  0  0  0  0  0  0
    2.1468   -0.0521    0.0000 O   0  0  0  0  0  0  0  0  0  0  0  0
    0.7053   -0.8555    0.0000 N   0  0  0  0  0  0  0  0  0  0  0  0
   -0.0247   -1.2482    0.0000 O   0  0  0  0  0  0  0  0  0  0  0  0
   -1.4108    1.2482    0.0000 O   0  0  0  0  0  0  0  0  0  0  0  0
    1.4415    1.2054    0.0000 O   0  0  0  0  0  0  0  0  0  0  0  0
  2  1  1  0
  3  1  1  0
  4  1  1  0
  6  2  1  0
  6  5  1  0
  6 10  1  1
  7  3  1  0
  8  4  1  0
  9  5  1  0
 11  3  2  0
 12  4  2  0
 13  5  2  0
M  END
>  <DRUGBANK_ID>  (1) 
DB03847

>  <SECONDARY_ACCESSION_NUMBERS>  (1) 
EXPT00902

>  <COMMON_NAME>  (1) 
gamma-carboxy-L-glutamic acid

>  <CAS_NUMBER>  (1) 
53861-57-7

>  <UNII>  (1) 
16FQV4RZKL

>  <SYNONYMS>  (1) 
(3S)-3-amino-1,1,3-propanetricarboxylic acid; gamma-carboxy-glutamic acid; gamma-Carboxyglutamic acid; Î³-carboxy-L-glutamic acid

$$$$
