
     RDKit          2D

 34 37  0  0  0  0  0  0  0  0999 V2000
    1.9905    2.6092    0.0000 N   0  0  0  0  0  0  0  0  0  0  0  0
    1.2035    2.8591    0.0000 C   0  0  0  0  0  0  0  0  0  0  0  0
    1.3888    1.0803    0.0000 C   0  0  0  0  0  0  0  0  0  0  0  0
    2.4787    3.2716    0.0000 C   0  0  0  0  0  0  0  0  0  0  0  0
    1.2035    3.6916    0.0000 C   0  0  0  0  0  0  0  0  0  0  0  0
    0.4806    2.4391    0.0000 N   0  0  0  0  0  0  0  0  0  0  0  0
    1.1390    0.3084    0.0000 C   0  0  0  0  0  0  0  0  0  0  0  0
    0.7076    1.5723    0.0000 O   0  0  0  0  0  0  0  0  0  0  0  0
    1.9943    3.9489    0.0000 N   0  0  0  0  0  0  0  0  0  0  0  0
    0.4806    4.1042    0.0000 C   0  0  0  0  0  0  0  0  0  0  0  0
   -0.2307    2.8591    0.0000 C   0  0  0  0  0  0  0  0  0  0  0  0
    0.3140    0.3084    0.0000 C   0  0  0  0  0  0  0  0  0  0  0  0
    1.6273   -0.3538    0.0000 O   0  0  0  0  0  0  0  0  0  0  0  0
    0.0491    1.0956    0.0000 C   0  0  0  0  0  0  0  0  0  0  0  0
   -0.2307    3.6916    0.0000 N   0  0  0  0  0  0  0  0  0  0  0  0
    0.4806    4.9254    0.0000 N   0  0  0  0  0  0  0  0  0  0  0  0
   -0.1589   -0.3615    0.0000 N   0  0  0  0  0  0  0  0  0  0  0  0
   -0.7379    1.3453    0.0000 C   0  0  0  0  0  0  0  0  0  0  0  0
    1.1921    5.3417    0.0000 C   0  0  0  0  0  0  0  0  0  0  0  0
   -0.2346    5.3341    0.0000 C   0  0  0  0  0  0  0  0  0  0  0  0
    0.1854   -1.1070    0.0000 C   0  0  0  0  0  0  0  0  0  0  0  0
   -1.3434    0.7890    0.0000 O   0  0  0  0  0  0  0  0  0  0  0  0
   -0.2913   -1.7805    0.0000 C   0  0  0  0  0  0  0  0  0  0  0  0
    0.9763   -1.1107    0.0000 O   0  0  0  0  0  0  0  0  0  0  0  0
    0.0530   -2.5260    0.0000 C   0  0  0  0  0  0  0  0  0  0  0  0
   -1.0634   -1.7691    0.0000 N   0  0  0  0  0  0  0  0  0  0  0  0
   -0.4238   -3.1997    0.0000 C   0  0  0  0  0  0  0  0  0  0  0  0
   -1.2488   -3.1997    0.0000 C   0  0  0  0  0  0  0  0  0  0  0  0
   -0.0151   -3.9074    0.0000 C   0  0  0  0  0  0  0  0  0  0  0  0
   -1.6650   -3.9112    0.0000 C   0  0  0  0  0  0  0  0  0  0  0  0
   -0.4200   -4.6226    0.0000 C   0  0  0  0  0  0  0  0  0  0  0  0
   -1.2450   -4.6226    0.0000 C   0  0  0  0  0  0  0  0  0  0  0  0
   -1.6537   -5.3380    0.0000 O   0  0  0  0  0  0  0  0  0  0  0  0
   -2.4787   -5.3417    0.0000 C   0  0  0  0  0  0  0  0  0  0  0  0
  1  2  1  0
  1  4  1  0
  2  5  2  0
  2  6  1  0
  3  1  1  1
  3  7  1  0
  3  8  1  0
  4  9  2  0
  5 10  1  0
  5  9  1  0
  6 11  2  0
  7 12  1  0
  7 13  1  6
  8 14  1  0
 10 15  2  0
 10 16  1  0
 11 15  1  0
 12 17  1  6
 12 14  1  0
 14 18  1  1
 16 19  1  0
 16 20  1  0
 17 21  1  0
 18 22  1  0
 21 23  1  0
 21 24  2  0
 23 25  1  0
 23 26  1  6
 25 27  1  0
 27 28  2  0
 27 29  1  0
 28 30  1  0
 29 31  2  0
 30 32  2  0
 31 32  1  0
 32 33  1  0
 33 34  1  0
M  END
>  <DRUGBANK_ID>  (1) 
DB08437

>  <COMMON_NAME>  (1) 
Puromycin

>  <CAS_NUMBER>  (1) 
53-79-2

>  <UNII>  (1) 
4A6ZS6Q2CL

>  <SYNONYMS>  (1) 
puromicina; Puromycin

$$$$
