OFL
     RDKit          2D

 20 21  0  0  0  0  0  0  0  0999 V2000
   -1.6718    1.2959    0.0000 C   0  0  0  0  0  0  0  0  0  0  0  0
   -0.9573    0.8834    0.0000 C   0  0  0  0  0  0  0  0  0  0  0  0
   -0.9573    0.0584    0.0000 C   0  0  0  0  0  0  0  0  0  0  0  0
   -1.6718   -0.3541    0.0000 C   0  0  0  0  0  0  0  0  0  0  0  0
   -2.3863    0.0584    0.0000 C   0  0  0  0  0  0  0  0  0  0  0  0
   -2.3863    0.8834    0.0000 C   0  0  0  0  0  0  0  0  0  0  0  0
   -1.6718   -1.1791    0.0000 C   0  0  0  0  0  0  0  0  0  0  0  0
   -0.2428   -0.3541    0.0000 N   0  0  0  0  0  0  0  0  0  0  0  0
    1.1861    1.2959    0.0000 C   0  0  0  0  0  0  0  0  0  0  0  0
    1.9006    0.8834    0.0000 C   0  0  0  0  0  0  0  0  0  0  0  0
    1.9006    0.0584    0.0000 C   0  0  0  0  0  0  0  0  0  0  0  0
    1.1861   -0.3541    0.0000 C   0  0  0  0  0  0  0  0  0  0  0  0
    0.4716    0.0584    0.0000 C   0  0  0  0  0  0  0  0  0  0  0  0
    0.4716    0.8834    0.0000 C   0  0  0  0  0  0  0  0  0  0  0  0
    1.1861   -1.1791    0.0000 C   0  0  0  0  0  0  0  0  0  0  0  0
    0.4716   -1.5916    0.0000 O   0  0  0  0  0  0  0  0  0  0  0  0
    1.9006   -1.5916    0.0000 O   0  0  0  0  0  0  0  0  0  0  0  0
   -1.6718   -2.0041    0.0000 F   0  0  0  0  0  0  0  0  0  0  0  0
   -2.4968   -1.1791    0.0000 F   0  0  0  0  0  0  0  0  0  0  0  0
   -0.8468   -1.1791    0.0000 F   0  0  0  0  0  0  0  0  0  0  0  0
  1  2  2  0
  1  6  1  0
  2  3  1  0
  3  4  2  0
  3  8  1  0
  4  5  1  0
  4  7  1  0
  5  6  2  0
  7 18  1  0
  7 19  1  0
  7 20  1  0
  8 13  1  0
  9 10  2  0
  9 14  1  0
 10 11  1  0
 11 12  2  0
 12 13  1  0
 12 15  1  0
 13 14  2  0
 15 16  1  0
 15 17  2  0
M  END
>  <DRUGBANK_ID>  (1) 
DB02179

>  <SECONDARY_ACCESSION_NUMBERS>  (1) 
EXPT02421

>  <COMMON_NAME>  (1) 
O-Trifluoromethylphenyl Anthranilic Acid

$$$$
