
     RDKit          2D

 27 29  0  0  0  0  0  0  0  0999 V2000
   -1.8411   -3.2232    0.0000 C   0  0  0  0  0  0  0  0  0  0  0  0
   -1.8411   -2.3982    0.0000 O   0  0  0  0  0  0  0  0  0  0  0  0
   -1.1267   -1.9857    0.0000 C   0  0  0  0  0  0  0  0  0  0  0  0
   -1.1267   -1.1607    0.0000 C   0  0  0  0  0  0  0  0  0  0  0  0
   -0.4122   -0.7482    0.0000 C   0  0  0  0  0  0  0  0  0  0  0  0
    0.3023   -1.1607    0.0000 C   0  0  0  0  0  0  0  0  0  0  0  0
    0.3023   -1.9857    0.0000 C   0  0  0  0  0  0  0  0  0  0  0  0
   -0.4122   -2.3982    0.0000 C   0  0  0  0  0  0  0  0  0  0  0  0
   -0.4122   -3.2232    0.0000 C   0  0  0  0  0  0  0  0  0  0  0  0
    0.2552   -3.7081    0.0000 C   0  0  0  0  0  0  0  0  0  0  0  0
    0.0003   -4.4928    0.0000 C   0  0  0  0  0  0  0  0  0  0  0  0
   -0.8247   -4.4928    0.0000 N   0  0  0  0  0  0  0  0  0  0  0  0
   -1.0796   -3.7081    0.0000 N   0  0  0  0  0  0  0  0  0  0  0  0
    0.4852   -5.1602    0.0000 N   0  0  0  0  0  0  0  0  0  0  0  0
    0.1497   -5.9139    0.0000 C   0  0  0  0  0  0  0  0  0  0  0  0
    0.6346   -6.5813    0.0000 C   0  0  0  0  0  0  0  0  0  0  0  0
    0.2990   -7.3350    0.0000 N   0  0  0  0  0  0  0  0  0  0  0  0
   -0.5214   -7.4212    0.0000 C   0  0  0  0  0  0  0  0  0  0  0  0
   -1.0064   -6.7538    0.0000 C   0  0  0  0  0  0  0  0  0  0  0  0
   -0.6708   -6.0001    0.0000 N   0  0  0  0  0  0  0  0  0  0  0  0
   -0.8570   -8.1749    0.0000 C   0  0  0  0  0  0  0  0  0  0  0  0
   -1.1926   -8.9286    0.0000 N   0  0  0  0  0  0  0  0  0  0  0  0
    1.0167   -2.3982    0.0000 O   0  0  0  0  0  0  0  0  0  0  0  0
    1.0167   -3.2232    0.0000 C   0  0  0  0  0  0  0  0  0  0  0  0
    1.7312   -3.6357    0.0000 C   0  0  0  0  0  0  0  0  0  0  0  0
    2.4457   -3.2232    0.0000 C   0  0  0  0  0  0  0  0  0  0  0  0
    2.4457   -2.3982    0.0000 N   0  0  0  0  0  0  0  0  0  0  0  0
  1  2  1  0
  2  3  1  0
  3  4  2  0
  3  8  1  0
  4  5  1  0
  5  6  2  0
  6  7  1  0
  7  8  2  0
  7 23  1  0
  8  9  1  0
  9 10  2  0
  9 13  1  0
 10 11  1  0
 11 12  2  0
 11 14  1  0
 12 13  1  0
 14 15  1  0
 15 16  2  0
 15 20  1  0
 16 17  1  0
 17 18  2  0
 18 19  1  0
 18 21  1  0
 19 20  2  0
 21 22  3  0
 23 24  1  0
 24 25  1  0
 25 26  1  0
 26 27  1  0
M  END
>  <DRUGBANK_ID>  (1) 
DB12008

>  <COMMON_NAME>  (1) 
Prexasertib

>  <CAS_NUMBER>  (1) 
1234015-52-1

>  <UNII>  (1) 
820NH671E6

>  <SYNONYMS>  (1) 
Prexasertib

$$$$
