MOY
     RDKit          2D

 24 26  0  0  0  0  0  0  0  0999 V2000
    1.9518   -1.5293    0.0000 S   0  0  0  0  0  0  0  0  0  0  0  0
   -0.9060    0.9457    0.0000 O   0  0  0  0  0  0  0  0  0  0  0  0
   -0.9060    2.5957    0.0000 O   0  0  0  0  0  0  0  0  0  0  0  0
    1.2374   -0.2918    0.0000 N   0  0  0  0  0  0  0  0  0  0  0  0
    0.5229   -1.5293    0.0000 N   0  0  0  0  0  0  0  0  0  0  0  0
    1.2374   -1.1168    0.0000 C   0  0  0  0  0  0  0  0  0  0  0  0
   -0.1916   -1.1168    0.0000 C   0  0  0  0  0  0  0  0  0  0  0  0
   -0.1916   -0.2918    0.0000 C   0  0  0  0  0  0  0  0  0  0  0  0
    0.5229    0.1207    0.0000 C   0  0  0  0  0  0  0  0  0  0  0  0
    0.5229   -2.3543    0.0000 C   0  0  0  0  0  0  0  0  0  0  0  0
   -0.9060   -1.5293    0.0000 C   0  0  0  0  0  0  0  0  0  0  0  0
   -0.9060    0.1207    0.0000 C   0  0  0  0  0  0  0  0  0  0  0  0
   -1.6205   -0.2918    0.0000 C   0  0  0  0  0  0  0  0  0  0  0  0
   -2.3350    0.1207    0.0000 C   0  0  0  0  0  0  0  0  0  0  0  0
   -3.0494   -0.2918    0.0000 C   0  0  0  0  0  0  0  0  0  0  0  0
   -3.0494   -1.1168    0.0000 C   0  0  0  0  0  0  0  0  0  0  0  0
   -2.3350   -1.5293    0.0000 C   0  0  0  0  0  0  0  0  0  0  0  0
   -1.6205   -1.1168    0.0000 C   0  0  0  0  0  0  0  0  0  0  0  0
    0.5229    0.9457    0.0000 C   0  0  0  0  0  0  0  0  0  0  0  0
   -0.1916    1.3582    0.0000 C   0  0  0  0  0  0  0  0  0  0  0  0
   -0.1916    2.1832    0.0000 C   0  0  0  0  0  0  0  0  0  0  0  0
    0.5229    2.5957    0.0000 C   0  0  0  0  0  0  0  0  0  0  0  0
    1.2374    2.1832    0.0000 C   0  0  0  0  0  0  0  0  0  0  0  0
    1.2374    1.3582    0.0000 C   0  0  0  0  0  0  0  0  0  0  0  0
  1  6  2  0
  2 12  2  0
  3 21  1  0
  4  6  1  0
  4  9  1  0
  5  7  1  0
  5  6  1  0
  5 10  1  0
  7 11  1  0
  7  8  2  0
  8 12  1  0
  8  9  1  0
  9 19  1  1
 12 13  1  0
 13 18  1  0
 13 14  2  0
 14 15  1  0
 15 16  2  0
 16 17  1  0
 17 18  2  0
 19 20  2  0
 19 24  1  0
 20 21  1  0
 21 22  2  0
 22 23  1  0
 23 24  2  0
M  END
>  <DRUGBANK_ID>  (1) 
DB08198

>  <COMMON_NAME>  (1) 
[(4R)-4-(3-HYDROXYPHENYL)-1,6-DIMETHYL-2-THIOXO-1,2,3,4-TETRAHYDROPYRIMIDIN-5-YL](PHENYL)METHANONE

$$$$
