
     RDKit          2D

 14 14  0  0  0  0  0  0  0  0999 V2000
   16.8663   -9.1650    0.0000 O   0  0  0  0  0  0  0  0  0  0  0  0
   18.2953   -9.9900    0.0000 O   0  0  0  0  0  0  0  0  0  0  0  0
   19.7242   -5.0399    0.0000 O   0  0  0  0  0  0  0  0  0  0  0  0
   18.2953   -5.0399    0.0000 O   0  0  0  0  0  0  0  0  0  0  0  0
   18.2953   -7.5150    0.0000 C   0  0  0  0  0  0  0  0  0  0  0  0
   17.5809   -8.7525    0.0000 C   0  0  0  0  0  0  0  0  0  0  0  0
   17.5809   -7.9275    0.0000 C   0  0  0  0  0  0  0  0  0  0  0  0
   19.0098   -7.9275    0.0000 C   0  0  0  0  0  0  0  0  0  0  0  0
   18.2953   -9.1650    0.0000 C   0  0  0  0  0  0  0  0  0  0  0  0
   19.0098   -8.7525    0.0000 C   0  0  0  0  0  0  0  0  0  0  0  0
   18.2953   -6.6900    0.0000 C   0  0  0  0  0  0  0  0  0  0  0  0
   19.0098   -6.2775    0.0000 C   0  0  0  0  0  0  0  0  0  0  0  0
   16.1518   -8.7525    0.0000 C   0  0  0  0  0  0  0  0  0  0  0  0
   19.0098   -5.4524    0.0000 C   0  0  0  0  0  0  0  0  0  0  0  0
  1  6  1  0
  1 13  1  0
  2  9  1  0
  3 14  1  0
  4 14  2  0
  5  7  2  0
  5  8  1  0
  5 11  1  0
  6  7  1  0
  6  9  2  0
  8 10  2  0
  9 10  1  0
 11 12  2  0
 12 14  1  0
M  END
>  <DRUGBANK_ID>  (1) 
DB07767

>  <COMMON_NAME>  (1) 
Ferulic acid

>  <CAS_NUMBER>  (1) 
1135-24-6

>  <UNII>  (1) 
AVM951ZWST

$$$$
