CXM
     RDKit          2D

 12 11  0  0  0  0  0  0  0  0999 V2000
    1.3524    0.5508    0.0000 N   0  0  0  0  0  0  0  0  0  0  0  0
    0.6378    0.1383    0.0000 C   0  0  0  0  0  0  0  0  0  0  0  0
   -0.0767    0.5508    0.0000 C   0  0  0  0  0  0  0  0  0  0  0  0
   -0.7912    0.1383    0.0000 C   0  0  0  0  0  0  0  0  0  0  0  0
   -1.5057    0.5508    0.0000 S   0  0  0  0  0  0  0  0  0  0  0  0
   -2.2203    0.1383    0.0000 C   0  0  0  0  0  0  0  0  0  0  0  0
    0.6378   -0.6868    0.0000 C   0  0  0  0  0  0  0  0  0  0  0  0
   -0.0767   -1.0993    0.0000 O   0  0  0  0  0  0  0  0  0  0  0  0
    2.0669    0.1383    0.0000 C   0  0  0  0  0  0  0  0  0  0  0  0
    2.7814    0.5508    0.0000 O   0  0  0  0  0  0  0  0  0  0  0  0
    2.0669   -0.6868    0.0000 O   0  0  0  0  0  0  0  0  0  0  0  0
    1.3524   -1.0993    0.0000 O   0  0  0  0  0  0  0  0  0  0  0  0
  1  9  1  0
  2  1  1  0
  2  3  1  6
  2  7  1  0
  3  4  1  0
  4  5  1  0
  5  6  1  0
  7  8  2  0
  7 12  1  0
  9 10  2  0
  9 11  1  0
M  END
>  <DRUGBANK_ID>  (1) 
DB02899

>  <SECONDARY_ACCESSION_NUMBERS>  (1) 
EXPT01067

>  <COMMON_NAME>  (1) 
N-Carboxymethionine

$$$$
