
     RDKit          2D

 42 47  0  0  1  0  0  0  0  0999 V2000
   -5.3293   -5.0873    0.0000 C   0  0  0  0  0  0  0  0  0  0  0  0
   -5.0471   -4.3120    0.0000 C   0  0  0  0  0  0  0  0  0  0  0  0
   -4.2347   -4.1688    0.0000 C   0  0  0  0  0  0  0  0  0  0  0  0
   -3.7044   -4.8007    0.0000 C   0  0  0  0  0  0  0  0  0  0  0  0
   -3.9866   -5.5760    0.0000 C   0  0  0  0  0  0  0  0  0  0  0  0
   -4.7990   -5.7192    0.0000 C   0  0  0  0  0  0  0  0  0  0  0  0
   -5.0812   -6.4945    0.0000 N   0  0  0  0  0  0  0  0  0  0  0  0
   -4.6198   -7.1784    0.0000 C   0  0  0  0  0  0  0  0  0  0  0  0
   -5.1278   -7.8286    0.0000 C   0  0  0  0  0  0  0  0  0  0  0  0
   -5.9030   -7.5464    0.0000 O   0  0  0  0  0  0  0  0  0  0  0  0
   -5.8742   -6.7219    0.0000 C   0  0  0  0  0  0  0  0  0  0  0  0
   -6.5243   -6.2140    0.0000 O   0  0  0  0  0  0  0  0  0  0  0  0
   -4.9004   -8.6216    0.0000 C   0  0  0  0  0  0  0  0  0  0  0  0
   -5.4735   -9.2151    0.0000 O   0  0  0  0  0  0  0  0  0  0  0  0
   -2.8919   -4.6575    0.0000 F   0  0  0  0  0  0  0  0  0  0  0  0
   -3.9525   -3.3935    0.0000 O   0  0  0  0  0  0  0  0  0  0  0  0
   -3.1401   -3.2502    0.0000 C   0  0  0  0  0  0  0  0  0  0  0  0
   -2.8579   -2.4750    0.0000 C   0  0  0  0  0  0  0  0  0  0  0  0
   -2.8579   -1.6500    0.0000 C   0  0  0  0  0  0  0  0  0  0  0  0
   -2.1434   -1.2375    0.0000 C   0  0  0  0  0  0  0  0  0  0  0  0
   -1.4289   -1.6500    0.0000 N   0  0  0  0  0  0  0  0  0  0  0  0
   -1.4289   -2.4750    0.0000 C   0  0  0  0  0  0  0  0  0  0  0  0
   -2.1434   -2.8875    0.0000 C   0  0  0  0  0  0  0  0  0  0  0  0
   -0.7145   -1.2375    0.0000 C   0  0  0  0  0  0  0  0  0  0  0  0
    0.0000   -1.6500    0.0000 C   0  0  0  0  0  0  0  0  0  0  0  0
    0.7145   -1.2375    0.0000 C   0  0  0  0  0  0  0  0  0  0  0  0
    0.7145   -0.4125    0.0000 C   0  0  0  0  0  0  0  0  0  0  0  0
    0.0000   -0.0000    0.0000 C   0  0  0  0  0  0  0  0  0  0  0  0
   -0.7145   -0.4125    0.0000 C   0  0  0  0  0  0  0  0  0  0  0  0
   -1.4289    0.0000    0.0000 F   0  0  0  0  0  0  0  0  0  0  0  0
    1.4289   -0.0000    0.0000 C   0  0  0  0  0  0  0  0  0  0  0  0
    1.4289    0.8250    0.0000 O   0  0  0  0  0  0  0  0  0  0  0  0
    2.1434   -0.4125    0.0000 C   0  0  0  0  0  0  0  0  0  0  0  0
    2.1434   -1.2375    0.0000 C   0  0  0  0  0  0  0  0  0  0  0  0
    1.4289   -1.6500    0.0000 N   0  0  0  0  0  0  0  0  0  0  0  0
    1.4289   -2.4750    0.0000 C   0  0  0  0  0  0  0  0  0  0  0  0
    1.8414   -3.1895    0.0000 C   0  0  0  0  0  0  0  0  0  0  0  0
    1.0164   -3.1895    0.0000 C   0  0  0  0  0  0  0  0  0  0  0  0
    2.8579   -0.0000    0.0000 C   0  0  0  0  0  0  0  0  0  0  0  0
    2.8579    0.8250    0.0000 O   0  0  0  0  0  0  0  0  0  0  0  0
    3.5724   -0.4125    0.0000 O   0  0  0  0  0  0  0  0  0  0  0  0
   -3.6704   -2.3317    0.0000 O   0  0  0  0  0  0  0  0  0  0  0  0
  1  2  2  0
  1  6  1  0
  2  3  1  0
  3  4  2  0
  3 16  1  0
  4  5  1  0
  4 15  1  0
  5  6  2  0
  6  7  1  0
  7  8  1  0
  7 11  1  0
  8  9  1  0
  9 10  1  0
  9 13  1  6
 10 11  1  0
 11 12  2  0
 13 14  1  0
 16 17  1  0
 17 18  1  0
 18 19  1  0
 18 23  1  0
 18 42  1  0
 19 20  1  0
 20 21  1  0
 21 22  1  0
 21 24  1  0
 22 23  1  0
 24 25  2  0
 24 29  1  0
 25 26  1  0
 26 27  2  0
 26 35  1  0
 27 28  1  0
 27 31  1  0
 28 29  2  0
 29 30  1  0
 31 32  2  0
 31 33  1  0
 33 34  2  0
 33 39  1  0
 34 35  1  0
 35 36  1  0
 36 37  1  0
 36 38  1  0
 37 38  1  0
 39 40  2  0
 39 41  1  0
M  END
>  <DRUGBANK_ID>  (1) 
DB11847

>  <COMMON_NAME>  (1) 
Cadazolid

>  <CAS_NUMBER>  (1) 
1025097-10-2

>  <UNII>  (1) 
2OEA2UN10Y

>  <SYNONYMS>  (1) 
Cadazolid

$$$$
