
     RDKit          2D

  1  0  0  0  0  0  0  0  0  0999 V2000
    0.0000    0.0000    0.0000 Gd  0  0  0  0  0 15  0  0  0  0  0  0
M  END
>  <DRUGBANK_ID>  (1) 
DB12091

>  <COMMON_NAME>  (1) 
Gadolinium

>  <CAS_NUMBER>  (1) 
7440-54-2

>  <UNII>  (1) 
AU0V1LM3JT

>  <SYNONYMS>  (1) 
gadolinio

$$$$
