NOR
     RDKit          2D

 17 17  0  0  0  0  0  0  0  0999 V2000
   -0.1794   -0.7970    0.0000 N   0  0  0  0  0  0  0  0  0  0  0  0
   -0.1794    0.0280    0.0000 C   0  0  0  0  0  0  0  0  0  0  0  0
   -0.8939    0.4405    0.0000 C   0  0  0  0  0  0  0  0  0  0  0  0
   -1.6083    0.0280    0.0000 C   0  0  0  0  0  0  0  0  0  0  0  0
   -1.6083   -0.7970    0.0000 C   0  0  0  0  0  0  0  0  0  0  0  0
   -2.3228    0.4405    0.0000 C   0  0  0  0  0  0  0  0  0  0  0  0
   -2.3228   -1.2095    0.0000 C   0  0  0  0  0  0  0  0  0  0  0  0
   -3.0373    0.0280    0.0000 C   0  0  0  0  0  0  0  0  0  0  0  0
   -3.0373   -0.7970    0.0000 C   0  0  0  0  0  0  0  0  0  0  0  0
    0.5351    0.4405    0.0000 C   0  0  0  0  0  0  0  0  0  0  0  0
    0.5351    1.2655    0.0000 O   0  0  0  0  0  0  0  0  0  0  0  0
    1.2495    0.0280    0.0000 C   0  0  0  0  0  0  0  0  0  0  0  0
    1.2495   -0.7970    0.0000 O   0  0  0  0  0  0  0  0  0  0  0  0
    1.9640    0.4405    0.0000 O   0  0  0  0  0  0  0  0  0  0  0  0
    2.6785    0.0280    0.0000 C   0  0  0  0  0  0  0  0  0  0  0  0
    3.3930    0.4405    0.0000 C   0  0  0  0  0  0  0  0  0  0  0  0
    2.6785   -0.7970    0.0000 C   0  0  0  0  0  0  0  0  0  0  0  0
  2  1  1  1
  2  3  1  0
  2 10  1  0
  3  4  1  0
  4  5  1  0
  4  6  1  0
  5  7  1  0
  6  8  1  0
  7  9  1  0
  8  9  1  0
 10 11  1  1
 10 12  1  0
 12 13  2  0
 12 14  1  0
 14 15  1  0
 15 16  1  0
 15 17  1  0
M  END
>  <DRUGBANK_ID>  (1) 
DB08288

>  <COMMON_NAME>  (1) 
CYCLOHEXYL-NORSTATINE

$$$$
