
     RDKit          2D

 31 36  0  0  1  0  0  0  0  0999 V2000
    3.2819    0.0000    0.0000 C   0  0  0  0  0  0  0  0  0  0  0  0
    3.9964   -0.4125    0.0000 C   0  0  0  0  0  0  0  0  0  0  0  0
    4.7109    0.0000    0.0000 C   0  0  0  0  0  0  0  0  0  0  0  0
    4.7109    0.8250    0.0000 C   0  0  0  0  0  0  0  0  0  0  0  0
    3.9964    1.2375    0.0000 C   0  0  0  0  0  0  0  0  0  0  0  0
    3.2819    0.8250    0.0000 C   0  0  0  0  0  0  0  0  0  0  0  0
    4.1679    2.0445    0.0000 C   0  0  0  0  0  0  0  0  0  0  0  0
    4.3394    2.8514    0.0000 C   0  0  0  0  0  0  0  0  0  0  0  0
    3.6250    3.2639    0.0000 O   0  0  0  0  0  0  0  0  0  0  0  0
    3.0119    2.7119    0.0000 C   0  0  0  0  0  0  0  0  0  0  0  0
    3.3474    1.9582    0.0000 C   0  0  0  0  0  0  0  0  0  0  0  0
    2.8625    1.2908    0.0000 C   0  0  0  0  0  0  0  0  0  0  0  0
    2.0420    1.3770    0.0000 C   0  0  0  0  0  0  0  0  0  0  0  0
    1.7065    2.1307    0.0000 C   0  0  0  0  0  0  0  0  0  0  0  0
    2.1914    2.7981    0.0000 C   0  0  0  0  0  0  0  0  0  0  0  0
    0.8860    2.0445    0.0000 O   0  0  0  0  0  0  0  0  0  0  0  0
    0.7145    1.2375    0.0000 C   0  0  0  0  0  0  0  0  0  0  0  0
    1.4289    0.8250    0.0000 O   0  0  0  0  0  0  0  0  0  0  0  0
    4.9884    2.1307    0.0000 C   0  0  0  0  0  0  0  0  0  0  0  0
    5.4009    2.8452    0.0000 O   0  0  0  0  0  0  0  0  0  0  0  0
    5.3240    1.3770    0.0000 N   0  0  0  0  0  0  0  0  0  0  0  0
    6.1309    1.2055    0.0000 C   0  0  0  0  0  0  0  0  0  0  0  0
    6.6830    1.8186    0.0000 C   0  0  0  0  0  0  0  0  0  0  0  0
    6.5114    2.6256    0.0000 C   0  0  0  0  0  0  0  0  0  0  0  0
    7.2259    3.0381    0.0000 C   0  0  0  0  0  0  0  0  0  0  0  0
    7.8390    2.4860    0.0000 C   0  0  0  0  0  0  0  0  0  0  0  0
    7.5034    1.7324    0.0000 O   0  0  0  0  0  0  0  0  0  0  0  0
    8.6460    2.6576    0.0000 C   0  0  0  0  0  0  0  0  0  0  0  0
    9.4529    2.8291    0.0000 F   0  0  0  0  0  0  0  0  0  0  0  0
    8.8175    1.8506    0.0000 F   0  0  0  0  0  0  0  0  0  0  0  0
    8.4744    3.4645    0.0000 F   0  0  0  0  0  0  0  0  0  0  0  0
  1  2  2  0
  1  6  1  0
  2  3  1  0
  3  4  2  0
  4  5  1  0
  4 21  1  0
  5  6  2  0
  7  5  1  0
  7  8  1  6
  7 11  1  0
  7 19  1  0
  8  9  1  0
  9 10  1  0
 10 11  2  0
 10 15  1  0
 11 12  1  0
 12 13  2  0
 13 14  1  0
 13 18  1  0
 14 15  2  0
 14 16  1  0
 16 17  1  0
 17 18  1  0
 19 20  2  0
 19 21  1  0
 21 22  1  0
 22 23  1  0
 23 24  2  0
 23 27  1  0
 24 25  1  0
 25 26  2  0
 26 27  1  0
 26 28  1  0
 28 29  1  0
 28 30  1  0
 28 31  1  0
M  END
>  <DRUGBANK_ID>  (1) 
DB11769

>  <COMMON_NAME>  (1) 
Funapide

>  <CAS_NUMBER>  (1) 
1259933-16-8

>  <UNII>  (1) 
A5595LHJ2L

>  <SYNONYMS>  (1) 
Funapide

$$$$
