
     RDKit          2D

 30 33  0  0  0  0  0  0  0  0999 V2000
   -2.7392    1.1791    0.0000 N   0  0  0  0  0  0  0  0  0  0  0  0
   -2.0262    1.5940    0.0000 C   0  0  0  0  0  0  0  0  0  0  0  0
   -1.3103    1.1849    0.0000 C   0  0  0  0  0  0  0  0  0  0  0  0
   -0.5972    1.5999    0.0000 C   0  0  0  0  0  0  0  0  0  0  0  0
    0.1186    1.1907    0.0000 N   0  0  0  0  0  0  0  0  0  0  0  0
    0.1204    0.3652    0.0000 C   0  0  0  0  0  0  0  0  0  0  0  0
    0.8321   -0.0437    0.0000 C   0  0  0  0  0  0  0  0  0  0  0  0
    1.5468    0.3681    0.0000 C   0  0  0  0  0  0  0  0  0  0  0  0
    1.5451    1.1937    0.0000 C   0  0  0  0  0  0  0  0  0  0  0  0
    0.8287    1.6073    0.0000 C   0  0  0  0  0  0  0  0  0  0  0  0
   -4.3053   -0.9919    0.0000 C   0  0  0  0  0  0  0  0  0  0  0  0
   -3.8948   -1.7062    0.0000 C   0  0  0  0  0  0  0  0  0  0  0  0
   -3.0692   -1.7077    0.0000 C   0  0  0  0  0  0  0  0  0  0  0  0
   -2.6561   -0.9893    0.0000 C   0  0  0  0  0  0  0  0  0  0  0  0
   -3.0670   -0.2788    0.0000 C   0  0  0  0  0  0  0  0  0  0  0  0
   -3.8902   -0.2781    0.0000 C   0  0  0  0  0  0  0  0  0  0  0  0
   -4.4086    0.3685    0.0000 S   0  0  0  0  0  0  0  0  0  0  0  0
   -2.5512    0.3699    0.0000 C   0  0  0  0  0  0  0  0  0  0  0  0
   -4.2300    1.1748    0.0000 C   0  0  0  0  0  0  0  0  0  0  0  0
   -3.4855    1.5324    0.0000 C   0  0  0  0  0  0  0  0  0  0  0  0
   -2.0291    2.4210    0.0000 O   0  0  0  0  0  0  0  0  0  0  0  0
    2.2654   -0.0363    0.0000 C   0  0  0  0  0  0  0  0  0  0  0  0
    2.9784    0.3786    0.0000 C   0  0  0  0  0  0  0  0  0  0  0  0
    2.9735    1.2053    0.0000 C   0  0  0  0  0  0  0  0  0  0  0  0
    3.6964   -0.0275    0.0000 C   0  0  0  0  0  0  0  0  0  0  0  0
    4.4086    0.3920    0.0000 C   0  0  0  0  0  0  0  0  0  0  0  0
    4.3983    1.2218    0.0000 C   0  0  0  0  0  0  0  0  0  0  0  0
    3.6797    1.6243    0.0000 C   0  0  0  0  0  0  0  0  0  0  0  0
   -2.6573   -2.4210    0.0000 O   0  0  0  0  0  0  0  0  0  0  0  0
   -1.8333   -2.4210    0.0000 C   0  0  0  0  0  0  0  0  0  0  0  0
  1 20  1  0
  1  2  1  0
  2 21  2  0
  2  3  1  0
  3  4  1  0
  4  5  1  0
  5 10  1  0
  5  6  1  0
  6  7  1  0
  7  8  1  0
  8  9  1  0
  8 22  1  0
  9 10  1  0
 11 12  2  0
 12 13  1  0
 13 29  1  0
 13 14  2  0
 14 15  1  0
 15 16  2  0
 15 18  1  0
 16 17  1  0
 16 11  1  0
 17 19  1  0
 18  1  1  0
 19 20  1  0
 22 23  1  0
 23 25  1  0
 24 23  2  0
 25 26  2  0
 26 27  1  0
 27 28  2  0
 28 24  1  0
 29 30  1  0
M  END
>  <DRUGBANK_ID>  (1) 
DB02929

>  <SECONDARY_ACCESSION_NUMBERS>  (1) 
EXPT01958

>  <COMMON_NAME>  (1) 
K201 free base

>  <CAS_NUMBER>  (1) 
145903-06-6

>  <UNII>  (1) 
EBY0ENK2GQ

$$$$
