
     RDKit          2D

 17 17  0  0  1  0  0  0  0  0999 V2000
    1.4289    0.8250    0.0000 C   0  0  0  0  0  0  0  0  0  0  0  0
    0.7145   -0.4125    0.0000 C   0  0  0  0  0  0  0  0  0  0  0  0
    0.7145    2.0625    0.0000 C   0  0  0  0  0  0  0  0  0  0  0  0
    0.7145    1.2375    0.0000 C   0  0  0  0  0  0  0  0  0  0  0  0
    0.0000    0.0000    0.0000 C   0  0  0  0  0  0  0  0  0  0  0  0
    0.0000    0.8250    0.0000 C   0  0  0  0  0  0  0  0  0  0  0  0
    2.2534   -0.0288    0.0000 C   0  0  0  0  0  0  0  0  0  0  0  0
    1.4289   -0.0000    0.0000 C   0  0  0  0  0  0  0  0  0  0  0  0
   -0.7145   -0.4125    0.0000 O   0  0  0  0  0  0  0  0  0  0  0  0
   -0.7145    1.2375    0.0000 O   0  0  0  0  0  0  0  0  0  0  0  0
    2.6906    0.6708    0.0000 O   0  0  0  0  0  0  0  0  0  0  0  0
    2.6408   -0.7572    0.0000 O   0  0  0  0  0  0  0  0  0  0  0  0
    1.8661   -0.6996    0.0000 O   0  0  0  0  0  0  0  0  0  0  0  0
   -0.7145    2.8875    0.0000 O   0  0  0  0  0  0  0  0  0  0  0  0
    0.4125    3.1895    0.0000 O   0  0  0  0  0  0  0  0  0  0  0  0
   -0.4125    1.7605    0.0000 O   0  0  0  0  0  0  0  0  0  0  0  0
    0.0000    2.4750    0.0000 P   0  0  0  0  0  0  0  0  0  0  0  0
  4  1  1  0
  4  3  1  1
  5  2  1  0
  5  9  1  1
  6  4  1  0
  6  5  1  0
  6 10  1  6
  8  1  1  0
  8  2  1  0
  8  7  1  0
  8 13  1  6
 11  7  2  0
 12  7  1  0
 17  3  1  0
 17 14  1  0
 17 15  1  0
 17 16  2  0
M  END
>  <DRUGBANK_ID>  (1) 
DB02592

>  <SECONDARY_ACCESSION_NUMBERS>  (1) 
EXPT01018

>  <COMMON_NAME>  (1) 
Carbaphosphonate

$$$$
