BN5
     RDKit          2D

 29 30  0  0  0  0  0  0  0  0999 V2000
   -5.2631   -0.1596    0.0000 C   0  0  0  0  0  0  0  0  0  0  0  0
   -4.5486    0.2529    0.0000 C   0  0  0  0  0  0  0  0  0  0  0  0
   -3.8342   -0.1596    0.0000 C   0  0  0  0  0  0  0  0  0  0  0  0
   -3.8342   -0.9846    0.0000 C   0  0  0  0  0  0  0  0  0  0  0  0
   -3.1197   -1.3971    0.0000 Cl  0  0  0  0  0  0  0  0  0  0  0  0
   -4.5486   -1.3971    0.0000 C   0  0  0  0  0  0  0  0  0  0  0  0
   -5.2631   -0.9846    0.0000 C   0  0  0  0  0  0  0  0  0  0  0  0
   -2.4052   -0.1596    0.0000 N   0  0  0  0  0  0  0  0  0  0  0  0
   -3.1197    0.2529    0.0000 C   0  0  0  0  0  0  0  0  0  0  0  0
   -3.1197    1.0779    0.0000 O   0  0  0  0  0  0  0  0  0  0  0  0
   -0.9763   -0.1596    0.0000 N   0  0  0  0  0  0  0  0  0  0  0  0
   -0.2618    0.2529    0.0000 C   0  0  0  0  0  0  0  0  0  0  0  0
   -0.2618    1.0779    0.0000 C   0  0  0  0  0  0  0  0  0  0  0  0
    0.4527    1.4904    0.0000 C   0  0  0  0  0  0  0  0  0  0  0  0
    0.4527   -0.9846    0.0000 C   0  0  0  0  0  0  0  0  0  0  0  0
    1.1671    1.0779    0.0000 C   0  0  0  0  0  0  0  0  0  0  0  0
    1.8816   -0.1596    0.0000 O   0  0  0  0  0  0  0  0  0  0  0  0
    2.5961    0.2529    0.0000 C   0  0  0  0  0  0  0  0  0  0  0  0
    3.3105   -0.1596    0.0000 C   0  0  0  0  0  0  0  0  0  0  0  0
    4.0250    0.2529    0.0000 C   0  0  0  0  0  0  0  0  0  0  0  0
    4.7395   -0.1596    0.0000 C   0  0  0  0  0  0  0  0  0  0  0  0
    5.4539    0.2529    0.0000 C   0  0  0  0  0  0  0  0  0  0  0  0
    6.1684   -0.1596    0.0000 O   0  0  0  0  0  0  0  0  0  0  0  0
    5.4539    1.0779    0.0000 O   0  0  0  0  0  0  0  0  0  0  0  0
    1.1671    0.2529    0.0000 C   0  0  0  0  0  0  0  0  0  0  0  0
    0.4527   -0.1596    0.0000 C   0  0  0  0  0  0  0  0  0  0  0  0
   -1.6908    0.2529    0.0000 C   0  0  0  0  0  0  0  0  0  0  0  0
   -1.6908    1.0779    0.0000 O   0  0  0  0  0  0  0  0  0  0  0  0
   -5.9776   -1.3971    0.0000 Cl  0  0  0  0  0  0  0  0  0  0  0  0
  1  2  2  0
  1  7  1  0
  2  3  1  0
  3  4  2  0
  3  9  1  0
  4  5  1  0
  4  6  1  0
  6  7  2  0
  7 29  1  0
  8  9  1  0
  8 27  1  0
  9 10  2  0
 11 12  1  0
 11 27  1  0
 12 13  2  0
 12 26  1  0
 13 14  1  0
 14 16  2  0
 15 26  1  0
 16 25  1  0
 17 18  1  0
 17 25  1  0
 18 19  1  0
 19 20  1  0
 20 21  1  0
 21 22  1  0
 22 23  1  0
 22 24  2  0
 25 26  2  0
 27 28  2  0
M  END
>  <DRUGBANK_ID>  (1) 
DB04645

>  <COMMON_NAME>  (1) 
5-{3-[3-(2,4-DICHLORO-BENZOYL)-UREIDO]-2-METHYL-PHENOXY}-PENTANOIC ACID

$$$$
