
     RDKit          2D

  8  7  0  0  0  0  0  0  0  0999 V2000
    1.0717    0.2062    0.0000 C   0  0  0  0  0  0  0  0  0  0  0  0
    1.0717    1.0313    0.0000 O   0  0  0  0  0  0  0  0  0  0  0  0
    0.3572   -0.2062    0.0000 C   0  0  0  0  0  0  0  0  0  0  0  0
    0.3572   -1.0313    0.0000 N   0  0  0  0  0  0  0  0  0  0  0  0
   -0.3572    0.2062    0.0000 C   0  0  0  0  0  0  0  0  0  0  0  0
    1.7864   -0.2062    0.0000 O   0  0  0  0  0  0  0  0  0  0  0  0
   -1.0717   -0.2063    0.0000 C   0  0  0  0  0  0  0  0  0  0  0  0
   -1.7864    0.2061    0.0000 S   0  0  0  0  0  0  0  0  0  0  0  0
  1  2  2  0
  1  3  1  0
  3  4  1  1
  3  5  1  0
  6  1  1  0
  7  5  1  0
  8  7  1  0
M  END
>  <DRUGBANK_ID>  (1) 
DB04422

>  <SECONDARY_ACCESSION_NUMBERS>  (1) 
EXPT01710

>  <COMMON_NAME>  (1) 
Homocysteine

>  <CAS_NUMBER>  (1) 
6027-13-0

>  <UNII>  (1) 
0LVT1QZ0BA

>  <SYNONYMS>  (1) 
L-2-amino-4-mercaptobutyric acid; L-Homocysteine

$$$$
