IDA
     RDKit          2D

 20 21  0  0  0  0  0  0  0  0999 V2000
   -3.9580   -0.3762    0.0000 N   0  0  0  0  0  0  0  0  0  0  0  0
   -3.1330   -0.3762    0.0000 C   0  0  0  0  0  0  0  0  0  0  0  0
   -2.7205   -1.0906    0.0000 O   0  0  0  0  0  0  0  0  0  0  0  0
   -2.7205    0.3383    0.0000 C   0  0  0  0  0  0  0  0  0  0  0  0
   -1.8955    0.3383    0.0000 C   0  0  0  0  0  0  0  0  0  0  0  0
   -1.4106   -0.3291    0.0000 N   0  0  0  0  0  0  0  0  0  0  0  0
   -0.6259   -0.0742    0.0000 C   0  0  0  0  0  0  0  0  0  0  0  0
   -0.6259    0.7508    0.0000 C   0  0  0  0  0  0  0  0  0  0  0  0
   -1.4106    1.0057    0.0000 C   0  0  0  0  0  0  0  0  0  0  0  0
    0.0885    1.1633    0.0000 C   0  0  0  0  0  0  0  0  0  0  0  0
    0.8030    0.7508    0.0000 C   0  0  0  0  0  0  0  0  0  0  0  0
    1.5175    1.1633    0.0000 C   0  0  0  0  0  0  0  0  0  0  0  0
    2.2320    0.7508    0.0000 C   0  0  0  0  0  0  0  0  0  0  0  0
    2.9464    1.1633    0.0000 C   0  0  0  0  0  0  0  0  0  0  0  0
    0.8030   -0.0742    0.0000 C   0  0  0  0  0  0  0  0  0  0  0  0
    0.0885   -0.4867    0.0000 C   0  0  0  0  0  0  0  0  0  0  0  0
    0.0885   -1.3117    0.0000 C   0  0  0  0  0  0  0  0  0  0  0  0
    0.8030   -1.7242    0.0000 C   0  0  0  0  0  0  0  0  0  0  0  0
    1.5175   -1.3117    0.0000 O   0  0  0  0  0  0  0  0  0  0  0  0
    0.8030   -2.5492    0.0000 O   0  0  0  0  0  0  0  0  0  0  0  0
  1  2  1  0
  2  3  2  0
  2  4  1  0
  4  5  1  0
  5  6  1  0
  5  9  2  0
  6  7  1  0
  7  8  2  0
  7 16  1  0
  8  9  1  0
  8 10  1  0
 10 11  2  0
 11 12  1  0
 11 15  1  0
 12 13  1  0
 13 14  1  0
 15 16  2  0
 16 17  1  0
 17 18  1  0
 18 19  2  0
 18 20  1  0
M  END
>  <DRUGBANK_ID>  (1) 
DB07958

>  <COMMON_NAME>  (1) 
(2-CARBAMOYLMETHYL-5-PROPYL-OCTAHYDRO-INDOL-7-YL)ACETIC ACID

$$$$
