TRW
     RDKit          2D

 23 25  0  0  0  0  0  0  0  0999 V2000
   -3.1381   -1.4052    0.0000 N   0  0  0  0  0  0  0  0  0  0  0  0
   -2.5861   -2.0183    0.0000 C   0  0  0  0  0  0  0  0  0  0  0  0
   -1.7791   -1.8467    0.0000 C   0  0  0  0  0  0  0  0  0  0  0  0
   -1.5242   -1.0621    0.0000 C   0  0  0  0  0  0  0  0  0  0  0  0
   -0.7395   -0.8072    0.0000 C   0  0  0  0  0  0  0  0  0  0  0  0
   -0.7395    0.0178    0.0000 C   0  0  0  0  0  0  0  0  0  0  0  0
   -0.0251   -1.2197    0.0000 C   0  0  0  0  0  0  0  0  0  0  0  0
   -2.0091   -0.3947    0.0000 C   0  0  0  0  0  0  0  0  0  0  0  0
   -1.5242    0.2728    0.0000 N   0  0  0  0  0  0  0  0  0  0  0  0
   -0.0251    0.4303    0.0000 C   0  0  0  0  0  0  0  0  0  0  0  0
    0.6894   -0.8072    0.0000 C   0  0  0  0  0  0  0  0  0  0  0  0
    0.6894    0.0178    0.0000 C   0  0  0  0  0  0  0  0  0  0  0  0
    1.4039    0.4303    0.0000 N   0  0  0  0  0  0  0  0  0  0  0  0
   -0.0251    1.2553    0.0000 O   0  0  0  0  0  0  0  0  0  0  0  0
   -2.8410   -2.8029    0.0000 C   0  0  0  0  0  0  0  0  0  0  0  0
   -3.6480   -2.9744    0.0000 O   0  0  0  0  0  0  0  0  0  0  0  0
    1.4039    1.2553    0.0000 N   0  0  0  0  0  0  0  0  0  0  0  0
    2.1184    1.6678    0.0000 C   0  0  0  0  0  0  0  0  0  0  0  0
    2.1184    2.4928    0.0000 C   0  0  0  0  0  0  0  0  0  0  0  0
    2.8328    2.9053    0.0000 C   0  0  0  0  0  0  0  0  0  0  0  0
    3.5473    2.4928    0.0000 C   0  0  0  0  0  0  0  0  0  0  0  0
    3.5473    1.6678    0.0000 C   0  0  0  0  0  0  0  0  0  0  0  0
    2.8328    1.2553    0.0000 C   0  0  0  0  0  0  0  0  0  0  0  0
  2  1  1  1
  2  3  1  0
  2 15  1  0
  3  4  1  0
  4  5  1  0
  4  8  2  0
  5  6  2  0
  5  7  1  0
  6  9  1  0
  6 10  1  0
  7 11  2  0
  8  9  1  0
 10 12  2  0
 10 14  1  0
 11 12  1  0
 12 13  1  0
 13 17  1  0
 15 16  2  0
 17 18  1  0
 18 19  2  0
 18 23  1  0
 19 20  1  0
 20 21  2  0
 21 22  1  0
 22 23  2  0
M  END
>  <DRUGBANK_ID>  (1) 
DB08646

>  <COMMON_NAME>  (1) 
TRW3-(2-AMINO-3-HYDROXY-PROPYL)-6-(N'-CYCLOHEXYL-HYDRAZINO)OCTAHYDRO-INDOL-7-OL

$$$$
