0AY
     RDKit          2D

 14 13  0  0  0  0  0  0  0  0999 V2000
    0.3748   -1.2502    0.0000 N   0  0  0  0  0  0  0  0  0  0  0  0
    0.1047   -0.4707    0.0000 C   0  0  0  0  0  0  0  0  0  0  0  0
    0.6448    0.1530    0.0000 C   0  0  0  0  0  0  0  0  0  0  0  0
    1.4550   -0.0029    0.0000 C   0  0  0  0  0  0  0  0  0  0  0  0
    1.9951    0.6207    0.0000 C   0  0  0  0  0  0  0  0  0  0  0  0
    2.8052    0.4648    0.0000 C   0  0  0  0  0  0  0  0  0  0  0  0
    3.3453    1.0884    0.0000 N   0  0  0  0  0  0  0  0  0  0  0  0
   -0.7054   -0.3147    0.0000 B   0  0  0  0  0  0  0  0  0  0  0  0
   -1.2455   -0.9384    0.0000 O   0  0  0  0  0  0  0  0  0  0  0  0
   -2.0556   -0.7825    0.0000 C   0  0  0  0  0  0  0  0  0  0  0  0
   -2.5957   -1.4061    0.0000 C   0  0  0  0  0  0  0  0  0  0  0  0
   -0.9754    0.4648    0.0000 O   0  0  0  0  0  0  0  0  0  0  0  0
   -1.7856    0.6207    0.0000 C   0  0  0  0  0  0  0  0  0  0  0  0
   -2.0556    1.4003    0.0000 C   0  0  0  0  0  0  0  0  0  0  0  0
  2  1  1  6
  2  8  1  0
  3  2  1  0
  4  3  1  0
  5  4  1  0
  6  5  1  0
  7  6  1  0
  8 12  1  0
  8  9  1  0
  9 10  1  0
 10 11  1  0
 12 13  1  0
 14 13  1  0
M  END
>  <DRUGBANK_ID>  (1) 
DB06840

>  <COMMON_NAME>  (1) 
diethyl [(1R)-1,5-diaminopentyl]boronate

$$$$
