
     RDKit          2D

 33 38  0  0  0  0  0  0  0  0999 V2000
   -4.3621   -0.4345    0.0000 C   0  0  0  0  0  0  0  0  0  0  0  0
   -4.5336   -1.2414    0.0000 C   0  0  0  0  0  0  0  0  0  0  0  0
   -4.7051   -2.0484    0.0000 C   0  0  0  0  0  0  0  0  0  0  0  0
   -5.5121   -1.8769    0.0000 O   0  0  0  0  0  0  0  0  0  0  0  0
   -5.3406   -1.0699    0.0000 C   0  0  0  0  0  0  0  0  0  0  0  0
   -3.7266   -1.4130    0.0000 C   0  0  0  0  0  0  0  0  0  0  0  0
   -3.1746   -0.7999    0.0000 O   0  0  0  0  0  0  0  0  0  0  0  0
   -2.3676   -0.9714    0.0000 C   0  0  0  0  0  0  0  0  0  0  0  0
   -1.8156   -0.3583    0.0000 C   0  0  0  0  0  0  0  0  0  0  0  0
   -1.0086   -0.5298    0.0000 C   0  0  0  0  0  0  0  0  0  0  0  0
   -0.7537   -1.3144    0.0000 C   0  0  0  0  0  0  0  0  0  0  0  0
   -1.3057   -1.9275    0.0000 C   0  0  0  0  0  0  0  0  0  0  0  0
   -2.1127   -1.7560    0.0000 C   0  0  0  0  0  0  0  0  0  0  0  0
   -0.8932   -2.6420    0.0000 N   0  0  0  0  0  0  0  0  0  0  0  0
   -0.0862   -2.4705    0.0000 C   0  0  0  0  0  0  0  0  0  0  0  0
    0.0000   -1.6500    0.0000 N   0  0  0  0  0  0  0  0  0  0  0  0
    0.7145   -1.2375    0.0000 C   0  0  0  0  0  0  0  0  0  0  0  0
    0.7145   -0.4125    0.0000 C   0  0  0  0  0  0  0  0  0  0  0  0
    1.4289    0.0000    0.0000 C   0  0  0  0  0  0  0  0  0  0  0  0
    2.1434   -0.4125    0.0000 C   0  0  0  0  0  0  0  0  0  0  0  0
    2.8579    0.0000    0.0000 C   0  0  0  0  0  0  0  0  0  0  0  0
    3.5724   -0.4125    0.0000 C   0  0  0  0  0  0  0  0  0  0  0  0
    3.5724   -1.2375    0.0000 C   0  0  0  0  0  0  0  0  0  0  0  0
    2.8579   -1.6500    0.0000 C   0  0  0  0  0  0  0  0  0  0  0  0
    2.1434   -1.2375    0.0000 C   0  0  0  0  0  0  0  0  0  0  0  0
    1.4289   -1.6500    0.0000 N   0  0  0  0  0  0  0  0  0  0  0  0
    2.8579   -2.4750    0.0000 N   0  0  0  0  0  0  0  0  0  0  0  0
    3.5724   -2.8875    0.0000 C   0  0  0  0  0  0  0  0  0  0  0  0
    3.5724   -3.7125    0.0000 C   0  0  0  0  0  0  0  0  0  0  0  0
    2.8579   -4.1250    0.0000 C   0  0  0  0  0  0  0  0  0  0  0  0
    2.1434   -3.7125    0.0000 C   0  0  0  0  0  0  0  0  0  0  0  0
    2.1434   -2.8875    0.0000 C   0  0  0  0  0  0  0  0  0  0  0  0
    2.8579   -4.9500    0.0000 N   0  0  0  0  0  0  0  0  0  0  0  0
  1  2  1  0
  2  3  1  0
  2  5  1  0
  2  6  1  0
  3  4  1  0
  4  5  1  0
  6  7  1  0
  7  8  1  0
  8  9  2  0
  8 13  1  0
  9 10  1  0
 10 11  2  0
 11 12  1  0
 11 16  1  0
 12 13  2  0
 12 14  1  0
 14 15  2  0
 15 16  1  0
 16 17  1  0
 17 18  2  0
 17 26  1  0
 18 19  1  0
 19 20  2  0
 20 21  1  0
 20 25  1  0
 21 22  2  0
 22 23  1  0
 23 24  2  0
 24 25  1  0
 24 27  1  0
 25 26  2  0
 27 28  1  0
 27 32  1  0
 28 29  1  0
 29 30  1  0
 30 31  1  0
 30 33  1  0
 31 32  1  0
M  END
>  <DRUGBANK_ID>  (1) 
DB11832

>  <COMMON_NAME>  (1) 
Crenolanib

>  <CAS_NUMBER>  (1) 
670220-88-9

>  <UNII>  (1) 
LQF7I567TQ

>  <SYNONYMS>  (1) 
Crenolanib

$$$$
