
     RDKit          2D

 34 37  0  0  0  0  0  0  0  0999 V2000
   12.7871    1.5229    0.0000 C   0  0  0  0  0  0  0  0  0  0  0  0
   12.0726    1.1104    0.0000 N   0  0  0  0  0  0  0  0  0  0  0  0
   12.0726    0.2854    0.0000 C   0  0  0  0  0  0  0  0  0  0  0  0
   11.3582    1.5229    0.0000 C   0  0  0  0  0  0  0  0  0  0  0  0
   10.6437    1.1104    0.0000 C   0  0  0  0  0  0  0  0  0  0  0  0
    9.9292    1.5229    0.0000 N   0  0  0  0  0  0  0  0  0  0  0  0
    9.2148    1.1104    0.0000 S   0  0  0  0  0  0  0  0  0  0  0  0
    8.8023    1.8249    0.0000 O   0  0  0  0  0  0  0  0  0  0  0  0
    9.6273    0.3960    0.0000 O   0  0  0  0  0  0  0  0  0  0  0  0
    8.5003    0.6979    0.0000 C   0  0  0  0  0  0  0  0  0  0  0  0
    7.7858    1.1104    0.0000 C   0  0  0  0  0  0  0  0  0  0  0  0
    7.0714    0.6979    0.0000 C   0  0  0  0  0  0  0  0  0  0  0  0
    6.3569    1.1104    0.0000 C   0  0  0  0  0  0  0  0  0  0  0  0
    5.6424    0.6979    0.0000 N   0  0  0  0  0  0  0  0  0  0  0  0
    4.9279    1.1104    0.0000 C   0  0  0  0  0  0  0  0  0  0  0  0
    4.2135    0.6979    0.0000 N   0  0  0  0  0  0  0  0  0  0  0  0
    3.4990    1.1104    0.0000 C   0  0  0  0  0  0  0  0  0  0  0  0
    2.7845    0.6979    0.0000 O   0  0  0  0  0  0  0  0  0  0  0  0
    2.0701    1.1104    0.0000 C   0  0  0  0  0  0  0  0  0  0  0  0
    1.3556    0.6979    0.0000 C   0  0  0  0  0  0  0  0  0  0  0  0
    0.6411    1.1104    0.0000 C   0  0  0  0  0  0  0  0  0  0  0  0
    0.6411    1.9354    0.0000 C   0  0  0  0  0  0  0  0  0  0  0  0
   -0.1435    2.1904    0.0000 N   0  0  0  0  0  0  0  0  0  0  0  0
   -0.6284    1.5229    0.0000 C   0  0  0  0  0  0  0  0  0  0  0  0
   -1.4534    1.5229    0.0000 C   0  0  0  0  0  0  0  0  0  0  0  0
   -0.1435    0.8555    0.0000 C   0  0  0  0  0  0  0  0  0  0  0  0
    1.3556    2.3479    0.0000 C   0  0  0  0  0  0  0  0  0  0  0  0
    2.0701    1.9354    0.0000 C   0  0  0  0  0  0  0  0  0  0  0  0
    3.4990    1.9354    0.0000 C   0  0  0  0  0  0  0  0  0  0  0  0
    4.2135    2.3479    0.0000 C   0  0  0  0  0  0  0  0  0  0  0  0
    4.9279    1.9354    0.0000 N   0  0  0  0  0  0  0  0  0  0  0  0
    6.3569    1.9354    0.0000 C   0  0  0  0  0  0  0  0  0  0  0  0
    7.0714    2.3479    0.0000 C   0  0  0  0  0  0  0  0  0  0  0  0
    7.7858    1.9354    0.0000 C   0  0  0  0  0  0  0  0  0  0  0  0
  1  2  1  0
  2  3  1  0
  2  4  1  0
  4  5  1  0
  5  6  1  0
  6  7  1  0
  7  8  2  0
  7  9  2  0
  7 10  1  0
 10 11  1  0
 11 12  2  0
 11 34  1  0
 12 13  1  0
 13 14  1  0
 13 32  2  0
 14 15  1  0
 15 16  2  0
 15 31  1  0
 16 17  1  0
 17 18  1  0
 17 29  2  0
 18 19  1  0
 19 20  2  0
 19 28  1  0
 20 21  1  0
 21 22  2  0
 21 26  1  0
 22 23  1  0
 22 27  1  0
 23 24  1  0
 24 25  1  0
 24 26  2  0
 27 28  2  0
 29 30  1  0
 30 31  2  0
 32 33  1  0
 33 34  2  0
M  END
>  <DRUGBANK_ID>  (1) 
DB15106

>  <COMMON_NAME>  (1) 
Surufatinib

>  <CAS_NUMBER>  (1) 
1308672-74-3

>  <UNII>  (1) 
B2K5L1L8S9

>  <SYNONYMS>  (1) 
SULFATINIB; Surufatinib

$$$$
