W35
     RDKit          2D

 23 25  0  0  0  0  0  0  0  0999 V2000
   -4.2513    0.1049    0.0000 O   0  0  0  0  0  0  0  0  0  0  0  0
   -4.8033    0.7180    0.0000 N   0  0  0  0  0  0  0  0  0  0  0  0
   -4.3908    1.4324    0.0000 C   0  0  0  0  0  0  0  0  0  0  0  0
   -4.7264    2.1861    0.0000 C   0  0  0  0  0  0  0  0  0  0  0  0
   -3.5838    1.2609    0.0000 C   0  0  0  0  0  0  0  0  0  0  0  0
   -3.4976    0.4404    0.0000 C   0  0  0  0  0  0  0  0  0  0  0  0
   -2.7831    0.0279    0.0000 C   0  0  0  0  0  0  0  0  0  0  0  0
   -2.0686    0.4404    0.0000 C   0  0  0  0  0  0  0  0  0  0  0  0
   -1.3542    0.0279    0.0000 C   0  0  0  0  0  0  0  0  0  0  0  0
   -0.6397    0.4404    0.0000 C   0  0  0  0  0  0  0  0  0  0  0  0
    0.0748    0.0279    0.0000 C   0  0  0  0  0  0  0  0  0  0  0  0
    0.7892    0.4404    0.0000 O   0  0  0  0  0  0  0  0  0  0  0  0
    1.5037    0.0279    0.0000 C   0  0  0  0  0  0  0  0  0  0  0  0
    2.2182    0.4404    0.0000 C   0  0  0  0  0  0  0  0  0  0  0  0
    2.9326    0.0279    0.0000 C   0  0  0  0  0  0  0  0  0  0  0  0
    2.9326   -0.7971    0.0000 C   0  0  0  0  0  0  0  0  0  0  0  0
    2.2182   -1.2096    0.0000 C   0  0  0  0  0  0  0  0  0  0  0  0
    1.5037   -0.7971    0.0000 C   0  0  0  0  0  0  0  0  0  0  0  0
    3.6471   -1.2096    0.0000 C   0  0  0  0  0  0  0  0  0  0  0  0
    4.4008   -0.8740    0.0000 N   0  0  0  0  0  0  0  0  0  0  0  0
    4.9528   -1.4871    0.0000 C   0  0  0  0  0  0  0  0  0  0  0  0
    4.5403   -2.2016    0.0000 C   0  0  0  0  0  0  0  0  0  0  0  0
    3.7334   -2.0301    0.0000 O   0  0  0  0  0  0  0  0  0  0  0  0
  1  2  1  0
  1  6  1  0
  2  3  2  0
  3  4  1  0
  3  5  1  0
  5  6  2  0
  6  7  1  0
  7  8  1  0
  8  9  1  0
  9 10  1  0
 10 11  1  0
 11 12  1  0
 12 13  1  0
 13 14  2  0
 13 18  1  0
 14 15  1  0
 15 16  2  0
 16 17  1  0
 16 19  1  0
 17 18  2  0
 19 20  2  0
 19 23  1  0
 20 21  1  0
 21 22  1  0
 22 23  1  0
M  END
>  <DRUGBANK_ID>  (1) 
DB08720

>  <COMMON_NAME>  (1) 
5-(5-(4-(4,5-dihydro-2-oxazoly)phenoxy)pentyl)-3-methyl osoxazole

>  <UNII>  (1) 
APD6GOX5WK

$$$$
