D1G
     RDKit          2D

 15 16  0  0  0  0  0  0  0  0999 V2000
    0.3888    1.3093    0.0000 C   0  0  0  0  0  0  0  0  0  0  0  0
   -0.3257    1.7218    0.0000 C   0  0  0  0  0  0  0  0  0  0  0  0
   -0.3257    2.5468    0.0000 C   0  0  0  0  0  0  0  0  0  0  0  0
    0.3888    2.9593    0.0000 C   0  0  0  0  0  0  0  0  0  0  0  0
    1.1032    2.5468    0.0000 N   0  0  0  0  0  0  0  0  0  0  0  0
    1.1032    1.7218    0.0000 C   0  0  0  0  0  0  0  0  0  0  0  0
    0.3888    0.4843    0.0000 C   0  0  0  0  0  0  0  0  0  0  0  0
    1.0562   -0.0006    0.0000 C   0  0  0  0  0  0  0  0  0  0  0  0
    0.8013   -0.7852    0.0000 C   0  0  0  0  0  0  0  0  0  0  0  0
   -0.0237   -0.7852    0.0000 C   0  0  0  0  0  0  0  0  0  0  0  0
   -0.2787   -0.0006    0.0000 O   0  0  0  0  0  0  0  0  0  0  0  0
   -0.5087   -1.4527    0.0000 C   0  0  0  0  0  0  0  0  0  0  0  0
   -1.3291   -1.3664    0.0000 N   0  0  0  0  0  0  0  0  0  0  0  0
   -1.8141   -2.0339    0.0000 C   0  0  0  0  0  0  0  0  0  0  0  0
   -1.6647   -0.6128    0.0000 C   0  0  0  0  0  0  0  0  0  0  0  0
  1  2  2  0
  1  6  1  0
  1  7  1  0
  2  3  1  0
  3  4  2  0
  4  5  1  0
  5  6  2  0
  7  8  2  0
  7 11  1  0
  8  9  1  0
  9 10  2  0
 10 11  1  0
 10 12  1  0
 12 13  1  0
 13 14  1  0
 13 15  1  0
M  END
>  <DRUGBANK_ID>  (1) 
DB07609

>  <COMMON_NAME>  (1) 
N,N-DIMETHYL(5-(PYRIDIN-3-YL)FURAN-2-YL)METHANAMINE

$$$$
