
     RDKit          2D

 23 20  0  0  0  0  0  0  0  0999 V2000
    0.6674    0.2169    0.0000 C   0  0  0  0  0  0  0  0  0  0  0  0
   -0.0000    0.7018    0.0000 C   0  0  0  0  0  0  0  0  0  0  0  0
   -0.4125   -0.5678    0.0000 C   0  0  0  0  0  0  0  0  0  0  0  0
    0.4125   -0.5678    0.0000 N   0  0  0  0  0  0  0  0  0  0  0  0
   -0.6674    0.2169    0.0000 N   0  0  0  0  0  0  0  0  0  0  0  0
    4.1237    0.2169    0.0000 C   0  0  0  0  0  0  0  0  0  0  0  0
    3.4563    0.7018    0.0000 C   0  0  0  0  0  0  0  0  0  0  0  0
    3.0438   -0.5678    0.0000 C   0  0  0  0  0  0  0  0  0  0  0  0
    3.8688   -0.5678    0.0000 N   0  0  0  0  0  0  0  0  0  0  0  0
    2.7889    0.2169    0.0000 N   0  0  0  0  0  0  0  0  0  0  0  0
    7.5801    0.2169    0.0000 C   0  0  0  0  0  0  0  0  0  0  0  0
    6.9126    0.7018    0.0000 C   0  0  0  0  0  0  0  0  0  0  0  0
    6.5001   -0.5678    0.0000 C   0  0  0  0  0  0  0  0  0  0  0  0
    7.3251   -0.5678    0.0000 N   0  0  0  0  0  0  0  0  0  0  0  0
    6.2452    0.2169    0.0000 N   0  0  0  0  0  0  0  0  0  0  0  0
    0.6674   -2.7027    0.0000 C   0  0  0  0  0  0  0  0  0  0  0  0
   -0.0000   -2.2178    0.0000 C   0  0  0  0  0  0  0  0  0  0  0  0
   -0.4125   -3.4873    0.0000 C   0  0  0  0  0  0  0  0  0  0  0  0
    0.4125   -3.4873    0.0000 N   0  0  0  0  0  0  0  0  0  0  0  0
   -0.6674   -2.7027    0.0000 N   0  0  0  0  0  0  0  0  0  0  0  0
    3.0246   -2.9195    0.0000 Cu  0  0  0  0  0 15  0  0  0  0  0  0
    5.2639   -2.9195    0.0000 O   0  0  0  0  0  0  0  0  0  0  0  0
    0.0000   -5.1373    0.0000 O   0  0  0  0  0  0  0  0  0  0  0  0
  2  1  2  0
  4  1  1  0
  4  3  2  0
  5  2  1  0
  5  3  1  0
  7  6  2  0
  9  6  1  0
  9  8  2  0
 10  7  1  0
 10  8  1  0
 12 11  2  0
 14 11  1  0
 14 13  2  0
 15 12  1  0
 15 13  1  0
 17 16  2  0
 19 16  1  0
 19 18  2  0
 20 17  1  0
 20 18  1  0
M  CHG  5   5  -1  10  -1  15  -1  20  -1  21   4
M  END
>  <DRUGBANK_ID>  (1) 
DB03840

>  <SECONDARY_ACCESSION_NUMBERS>  (1) 
EXPT01866

>  <COMMON_NAME>  (1) 
Tetra(Imidazole)Diaquacopper (Ii)

$$$$
