
     RDKit          2D

  7  6  0  0  0  0  0  0  0  0999 V2000
   -0.3546    0.0000    0.0000 C   0  0  0  0  0  0  0  0  0  0  0  0
    0.3592    0.4126    0.0000 C   0  0  0  0  0  0  0  0  0  0  0  0
    0.3592    1.2379    0.0000 O   0  0  0  0  0  0  0  0  0  0  0  0
    1.0733    0.0000    0.0000 N   0  0  0  0  0  0  0  0  0  0  0  0
   -1.0687    0.4126    0.0000 N   0  0  0  0  0  0  0  0  0  0  0  0
   -0.3546   -0.8253    0.0000 C   0  0  0  0  0  0  0  0  0  0  0  0
   -1.0733   -1.2379    0.0000 S   0  0  0  0  0  0  0  0  0  0  0  0
  1  6  1  0
  2  1  1  0
  3  2  2  0
  4  2  1  0
  1  5  1  6
  7  6  1  0
M  END
>  <DRUGBANK_ID>  (1) 
DB03275

>  <SECONDARY_ACCESSION_NUMBERS>  (1) 
EXPT01073

>  <COMMON_NAME>  (1) 
Cysteinamide

>  <CAS_NUMBER>  (1) 
74401-72-2

>  <UNII>  (1) 
055X467671

>  <SYNONYMS>  (1) 
2-amino-3-mercapto-propionamide; L-Cysteinamide

$$$$
