
     RDKit          2D

 15 15  0  0  0  0  0  0  0  0999 V2000
    0.0000    0.6188    0.0000 O   0  0  0  0  0  0  0  0  0  0  0  0
   -0.7144    0.2063    0.0000 C   0  0  0  0  0  0  0  0  0  0  0  0
   -0.7144   -0.6186    0.0000 C   0  0  0  0  0  0  0  0  0  0  0  0
    0.0000   -1.0312    0.0000 C   0  0  0  0  0  0  0  0  0  0  0  0
    0.7144   -0.6186    0.0000 C   0  0  0  0  0  0  0  0  0  0  0  0
    0.7144    0.2063    0.0000 C   0  0  0  0  0  0  0  0  0  0  0  0
    1.4289    0.6188    0.0000 S   0  0  0  0  0  0  0  0  0  0  0  0
    0.0000   -1.8563    0.0000 O   0  0  0  0  0  0  0  0  0  0  0  0
   -1.4289   -1.0312    0.0000 O   0  0  0  0  0  0  0  0  0  0  0  0
   -1.4289    0.6188    0.0000 C   0  0  0  0  0  0  0  0  0  0  0  0
    1.4289   -1.0312    0.0000 O   0  0  0  0  0  0  0  0  0  0  0  0
   -2.1433    0.2063    0.0000 O   0  0  0  0  0  0  0  0  0  0  0  0
    1.4289    1.4438    0.0000 C   0  0  0  0  0  0  0  0  0  0  0  0
    2.1433    1.8563    0.0000 C   0  0  0  0  0  0  0  0  0  0  0  0
    0.7144    1.8563    0.0000 C   0  0  0  0  0  0  0  0  0  0  0  0
  1  2  1  0
  1  6  1  0
  2  3  1  0
  2 10  1  1
  3  4  1  0
  3  9  1  1
  4  5  1  0
  4  8  1  1
  5  6  1  0
  5 11  1  6
  6  7  1  1
  7 13  1  0
 10 12  1  0
 13 14  1  0
 13 15  1  0
M  END
>  <DRUGBANK_ID>  (1) 
DB01862

>  <SECONDARY_ACCESSION_NUMBERS>  (1) 
EXPT01924

>  <COMMON_NAME>  (1) 
Isopropyl beta-D-thiogalactopyranoside

>  <CAS_NUMBER>  (1) 
367-93-1

>  <UNII>  (1) 
X73VV2246B

>  <SYNONYMS>  (1) 
IPTG; isopropyl thiogalactoside; isopropyl β-D-1-thiogalactopyranoside; isopropyl β-D-thiogalactopyranoside; isopropyl β-D-thiogalactoside; isopropyl-β-D-thiogalactopyranoside; isopropyl-β-D-thiogalactoside

$$$$
