
     RDKit          2D

 30 34  0  0  0  0  0  0  0  0999 V2000
    1.1270    2.5559    0.0000 O   0  0  0  0  0  0  0  0  0  0  0  0
    1.5395    1.8414    0.0000 C   0  0  0  0  0  0  0  0  0  0  0  0
    2.3645    1.8414    0.0000 N   0  0  0  0  0  0  0  0  0  0  0  0
    2.7770    1.1270    0.0000 C   0  0  0  0  0  0  0  0  0  0  0  0
    3.6020    1.1270    0.0000 C   0  0  0  0  0  0  0  0  0  0  0  0
    4.0145    0.4125    0.0000 C   0  0  0  0  0  0  0  0  0  0  0  0
    4.8395    0.4125    0.0000 C   0  0  0  0  0  0  0  0  0  0  0  0
    5.2520   -0.3020    0.0000 N   0  0  0  0  0  0  0  0  0  0  0  0
    6.0770   -0.3020    0.0000 C   0  0  0  0  0  0  0  0  0  0  0  0
    6.4895   -1.0164    0.0000 C   0  0  0  0  0  0  0  0  0  0  0  0
    6.0770   -1.7309    0.0000 N   0  0  0  0  0  0  0  0  0  0  0  0
    5.2520   -1.7309    0.0000 C   0  0  0  0  0  0  0  0  0  0  0  0
    4.8395   -1.0164    0.0000 C   0  0  0  0  0  0  0  0  0  0  0  0
    6.4895   -2.4454    0.0000 C   0  0  0  0  0  0  0  0  0  0  0  0
    7.3145   -2.4454    0.0000 C   0  0  0  0  0  0  0  0  0  0  0  0
    7.7270   -3.1599    0.0000 C   0  0  0  0  0  0  0  0  0  0  0  0
    7.3145   -3.8743    0.0000 C   0  0  0  0  0  0  0  0  0  0  0  0
    6.4895   -3.8743    0.0000 C   0  0  0  0  0  0  0  0  0  0  0  0
    6.0770   -3.1599    0.0000 N   0  0  0  0  0  0  0  0  0  0  0  0
    7.7270   -4.5888    0.0000 C   0  0  0  0  0  0  0  0  0  0  0  0
    8.1395   -5.3033    0.0000 N   0  0  0  0  0  0  0  0  0  0  0  0
    3.6020   -0.3020    0.0000 C   0  0  0  0  0  0  0  0  0  0  0  0
    2.7770   -0.3020    0.0000 C   0  0  0  0  0  0  0  0  0  0  0  0
    2.3645    0.4125    0.0000 C   0  0  0  0  0  0  0  0  0  0  0  0
    1.5395    0.4125    0.0000 C   0  0  0  0  0  0  0  0  0  0  0  0
    1.1270   -0.3020    0.0000 N   0  0  0  0  0  0  0  0  0  0  0  0
    0.3020   -0.3020    0.0000 C   0  0  0  0  0  0  0  0  0  0  0  0
   -0.1105    0.4125    0.0000 C   0  0  0  0  0  0  0  0  0  0  0  0
    0.3020    1.1270    0.0000 C   0  0  0  0  0  0  0  0  0  0  0  0
    1.1270    1.1270    0.0000 C   0  0  0  0  0  0  0  0  0  0  0  0
  1  2  2  0
  2  3  1  0
  2 30  1  0
  3  4  1  0
  4  5  2  0
  4 24  1  0
  5  6  1  0
  6  7  1  0
  6 22  2  0
  7  8  1  0
  8  9  1  0
  8 13  1  0
  9 10  1  0
 10 11  1  0
 11 12  1  0
 11 14  1  0
 12 13  1  0
 14 15  2  0
 14 19  1  0
 15 16  1  0
 16 17  2  0
 17 18  1  0
 17 20  1  0
 18 19  2  0
 20 21  3  0
 22 23  1  0
 23 24  2  0
 24 25  1  0
 25 26  1  0
 25 30  2  0
 26 27  1  0
 27 28  1  0
 28 29  1  0
 29 30  1  0
M  END
>  <DRUGBANK_ID>  (1) 
DB18110

>  <COMMON_NAME>  (1) 
Nesuparib

>  <CAS_NUMBER>  (1) 
2055357-64-5

>  <UNII>  (1) 
U6N7333GDW

>  <SYNONYMS>  (1) 
6-(4-((5-oxo-1,2,3,4,5,6-hexahydrobenzo(h)(1,6)naphthyridin-8-yl)methyl)piperazin-1-yl)nicotinonitrile

$$$$
