HLE
     RDKit          2D

 13 12  0  0  0  0  0  0  0  0999 V2000
   -2.2647    0.4449    0.0000 N   0  0  0  0  0  0  0  0  0  0  0  0
   -2.9792    0.0324    0.0000 O   0  0  0  0  0  0  0  0  0  0  0  0
   -0.1213    0.0324    0.0000 C   0  0  0  0  0  0  0  0  0  0  0  0
    0.5932    0.4449    0.0000 C   0  0  0  0  0  0  0  0  0  0  0  0
    1.3077    0.0324    0.0000 C   0  0  0  0  0  0  0  0  0  0  0  0
    2.0221    0.4449    0.0000 C   0  0  0  0  0  0  0  0  0  0  0  0
    1.3077   -0.7926    0.0000 C   0  0  0  0  0  0  0  0  0  0  0  0
   -0.1213   -0.7926    0.0000 C   0  0  0  0  0  0  0  0  0  0  0  0
   -0.8357   -1.2051    0.0000 O   0  0  0  0  0  0  0  0  0  0  0  0
   -0.8357    0.4449    0.0000 C   0  0  0  0  0  0  0  0  0  0  0  0
   -0.8357    1.2699    0.0000 O   0  0  0  0  0  0  0  0  0  0  0  0
   -1.5502    0.0324    0.0000 C   0  0  0  0  0  0  0  0  0  0  0  0
   -1.5502   -0.7926    0.0000 O   0  0  0  0  0  0  0  0  0  0  0  0
  1  2  1  0
  1 12  1  0
  3  4  1  1
  3  8  1  0
  3 10  1  0
  4  5  1  0
  5  6  1  0
  5  7  1  0
  8  9  2  0
 10 11  1  1
 10 12  1  0
 12 13  2  0
M  END
>  <DRUGBANK_ID>  (1) 
DB07900

>  <COMMON_NAME>  (1) 
3-FORMYL-2-HYDROXY-5-METHYL-HEXANOIC ACID HYDROXYAMIDE

$$$$
