
     RDKit          2D

  7  6  0  0  0  0  0  0  0  0999 V2000
   -0.1914    0.7145    0.0000 N   0  0  0  0  0  0  0  0  0  0  0  0
    0.5230    1.1270    0.0000 C   0  0  0  0  0  0  0  0  0  0  0  0
    1.2375    0.7145    0.0000 C   0  0  0  0  0  0  0  0  0  0  0  0
    1.9520    1.1270    0.0000 C   0  0  0  0  0  0  0  0  0  0  0  0
    2.6664    0.7145    0.0000 C   0  0  0  0  0  0  0  0  0  0  0  0
    3.3809    1.1270    0.0000 O   0  0  0  0  0  0  0  0  0  0  0  0
    2.6664   -0.1105    0.0000 O   0  0  0  0  0  0  0  0  0  0  0  0
  1  2  1  0
  2  3  1  0
  3  4  1  0
  4  5  1  0
  5  6  1  0
  5  7  2  0
M  END
>  <DRUGBANK_ID>  (1) 
DB02530

>  <SECONDARY_ACCESSION_NUMBERS>  (1) 
EXPT00402; DB08850

>  <COMMON_NAME>  (1) 
gamma-Aminobutyric acid

>  <CAS_NUMBER>  (1) 
56-12-2

>  <UNII>  (1) 
2ACZ6IPC6I

>  <SYNONYMS>  (1) 
4-aminobutanoic acid; 4-aminobutyric acid; 4Abu; GABA; gamma-Aminobutyric acid; piperidic acid; piperidinic acid; γ-amino-n-butyric acid; γ-aminobutanoic acid; γ-Aminobuttersäure; γ-aminobutyric acid; ω-aminobutyric acid

$$$$
