
     RDKit          2D

 26 30  0  0  0  0  0  0  0  0999 V2000
    1.3807   -4.6280    0.0000 O   0  0  0  0  0  0  0  0  0  0  0  0
    1.1258   -3.8434    0.0000 C   0  0  0  0  0  0  0  0  0  0  0  0
    0.3188   -3.6718    0.0000 C   0  0  0  0  0  0  0  0  0  0  0  0
    0.0639   -2.8872    0.0000 C   0  0  0  0  0  0  0  0  0  0  0  0
    0.6159   -2.2741    0.0000 C   0  0  0  0  0  0  0  0  0  0  0  0
    1.4229   -2.4457    0.0000 C   0  0  0  0  0  0  0  0  0  0  0  0
    1.6778   -3.2303    0.0000 C   0  0  0  0  0  0  0  0  0  0  0  0
    1.9749   -1.8326    0.0000 C   0  0  0  0  0  0  0  0  0  0  0  0
    1.7200   -1.0479    0.0000 N   0  0  0  0  0  0  0  0  0  0  0  0
    2.2720   -0.4349    0.0000 C   0  0  0  0  0  0  0  0  0  0  0  0
    2.0171    0.3498    0.0000 N   0  0  0  0  0  0  0  0  0  0  0  0
    1.2101    0.5213    0.0000 C   0  0  0  0  0  0  0  0  0  0  0  0
    0.9552    1.3059    0.0000 C   0  0  0  0  0  0  0  0  0  0  0  0
    1.5072    1.9190    0.0000 O   0  0  0  0  0  0  0  0  0  0  0  0
    2.3142    1.7475    0.0000 C   0  0  0  0  0  0  0  0  0  0  0  0
    2.5691    0.9629    0.0000 C   0  0  0  0  0  0  0  0  0  0  0  0
    3.0790   -0.6064    0.0000 C   0  0  0  0  0  0  0  0  0  0  0  0
    3.7464   -0.1215    0.0000 O   0  0  0  0  0  0  0  0  0  0  0  0
    4.4139   -0.6064    0.0000 C   0  0  0  0  0  0  0  0  0  0  0  0
    5.2208   -0.4349    0.0000 N   0  0  0  0  0  0  0  0  0  0  0  0
    5.7729   -1.0479    0.0000 C   0  0  0  0  0  0  0  0  0  0  0  0
    5.5179   -1.8326    0.0000 C   0  0  0  0  0  0  0  0  0  0  0  0
    4.7110   -2.0041    0.0000 C   0  0  0  0  0  0  0  0  0  0  0  0
    4.1589   -1.3910    0.0000 C   0  0  0  0  0  0  0  0  0  0  0  0
    3.3339   -1.3910    0.0000 C   0  0  0  0  0  0  0  0  0  0  0  0
    2.7819   -2.0041    0.0000 N   0  0  0  0  0  0  0  0  0  0  0  0
  1  2  1  0
  2  3  2  0
  2  7  1  0
  3  4  1  0
  4  5  2  0
  5  6  1  0
  6  7  2  0
  6  8  1  0
  8  9  2  0
  8 26  1  0
  9 10  1  0
 10 11  1  0
 10 17  2  0
 11 12  1  0
 11 16  1  0
 12 13  1  0
 13 14  1  0
 14 15  1  0
 15 16  1  0
 17 18  1  0
 17 25  1  0
 18 19  1  0
 19 20  1  0
 19 24  2  0
 20 21  2  0
 21 22  1  0
 22 23  2  0
 23 24  1  0
 24 25  1  0
 25 26  2  0
M  END
>  <DRUGBANK_ID>  (1) 
DB17046

>  <COMMON_NAME>  (1) 
PI-103

>  <CAS_NUMBER>  (1) 
371935-74-9

>  <UNII>  (1) 
YQX02F616F

>  <SYNONYMS>  (1) 
Phenol, 3-(4-(4-morpholinyl)pyrido(3',2':4,5)furo(3,2-d)pyrimidin-2-yl)-

$$$$
