
     RDKit          2D

  1  0  0  0  0  0  0  0  0  0999 V2000
    0.0000    0.0000    0.0000 Al  0  0  0  0  0 15  0  0  0  0  0  0
M  CHG  1   1   3
M  END
>  <DRUGBANK_ID>  (1) 
DB14519

>  <COMMON_NAME>  (1) 
Aluminum cation

>  <CAS_NUMBER>  (1) 
22537-23-1

>  <UNII>  (1) 
3XHB1D032B

>  <SYNONYMS>  (1) 
Aluminium, ion (Al3+); Aluminum(3+); Aluminum(III); Aluminum(III) ion; Alumunum ion

$$$$
