
     RDKit          2D

  9  8  0  0  0  0  0  0  0  0999 V2000
    1.4289    1.0312    0.0000 O   0  0  0  0  0  0  0  0  0  0  0  0
    1.4289    0.2062    0.0000 C   0  0  0  0  0  0  0  0  0  0  0  0
    2.1434   -0.2062    0.0000 O   0  0  0  0  0  0  0  0  0  0  0  0
    0.7144   -0.2062    0.0000 C   0  0  0  0  0  0  0  0  0  0  0  0
    0.7144   -1.0312    0.0000 N   0  0  0  0  0  0  0  0  0  0  0  0
    0.0000    0.2062    0.0000 C   0  0  0  0  0  0  0  0  0  0  0  0
   -0.7144   -0.2062    0.0000 C   0  0  0  0  0  0  0  0  0  0  0  0
   -1.4289    0.2062    0.0000 S   0  0  0  0  0  0  0  0  0  0  0  0
   -2.1434   -0.2062    0.0000 C   0  0  0  0  0  0  0  0  0  0  0  0
  2  1  2  0
  3  2  1  0
  4  2  1  0
  4  5  1  0
  6  4  1  0
  7  6  1  0
  8  7  1  0
  9  8  1  0
M  END
>  <DRUGBANK_ID>  (1) 
DB13972

>  <COMMON_NAME>  (1) 
Racemethionine

>  <CAS_NUMBER>  (1) 
59-51-8

>  <UNII>  (1) 
73JWT2K6T3

>  <SYNONYMS>  (1) 
(+-)-Methionine; DL-Methionine; DL-Methioninum; metionina; Racemethionine

$$$$
