
     RDKit          2D

 34 37  0  0  0  0  0  0  0  0999 V2000
    0.1398   -2.6774    0.0000 C   0  0  0  0  0  0  0  0  0  0  0  0
    0.8777   -2.2704    0.0000 C   0  0  0  0  0  0  0  0  0  0  0  0
   -0.5217   -2.2704    0.0000 C   0  0  0  0  0  0  0  0  0  0  0  0
    0.1398   -3.4866    0.0000 C   0  0  0  0  0  0  0  0  0  0  0  0
    0.8777   -1.4967    0.0000 C   0  0  0  0  0  0  0  0  0  0  0  0
    2.2926   -2.2704    0.0000 C   0  0  0  0  0  0  0  0  0  0  0  0
   -1.2596   -2.6774    0.0000 C   0  0  0  0  0  0  0  0  0  0  0  0
   -0.5217   -1.4967    0.0000 C   0  0  0  0  0  0  0  0  0  0  0  0
   -0.5217   -3.8938    0.0000 C   0  0  0  0  0  0  0  0  0  0  0  0
    1.5750   -1.0898    0.0000 C   0  0  0  0  0  0  0  0  0  0  0  0
    0.1398   -1.0898    0.0000 C   0  0  0  0  0  0  0  0  0  0  0  0
    0.8777   -0.5094    0.0000 C   0  0  0  0  0  0  0  0  0  0  0  0
    2.2926   -1.4967    0.0000 C   0  0  0  0  0  0  0  0  0  0  0  0
   -1.2596   -3.4866    0.0000 C   0  0  0  0  0  0  0  0  0  0  0  0
   -1.9873   -2.2704    0.0000 C   0  0  0  0  0  0  0  0  0  0  0  0
   -1.3257   -1.8632    0.0000 C   0  0  0  0  0  0  0  0  0  0  0  0
   -1.3000   -0.9726    0.0000 O   0  0  0  0  0  0  0  0  0  0  0  0
   -0.5114   -4.6673    0.0000 F   0  0  0  0  0  0  0  0  0  0  0  0
    1.5699   -0.2648    0.0000 C   0  0  0  0  0  0  0  0  0  0  0  0
    3.4224   -1.3491    0.0000 C   0  0  0  0  0  0  0  0  0  0  0  0
   -1.9873   -3.8938    0.0000 C   0  0  0  0  0  0  0  0  0  0  0  0
   -2.7048   -2.6774    0.0000 C   0  0  0  0  0  0  0  0  0  0  0  0
    0.8527    0.1432    0.0000 C   0  0  0  0  0  0  0  0  0  0  0  0
    2.2816    0.1522    0.0000 O   0  0  0  0  0  0  0  0  0  0  0  0
   -2.7048   -3.4866    0.0000 C   0  0  0  0  0  0  0  0  0  0  0  0
    0.8476    0.9681    0.0000 O   0  0  0  0  0  0  0  0  0  0  0  0
   -3.4224   -3.9039    0.0000 O   0  0  0  0  0  0  0  0  0  0  0  0
    0.1305    1.3762    0.0000 C   0  0  0  0  0  0  0  0  0  0  0  0
    0.1254    2.2013    0.0000 C   0  0  0  0  0  0  0  0  0  0  0  0
   -0.5811    0.9593    0.0000 O   0  0  0  0  0  0  0  0  0  0  0  0
   -0.5914    2.6092    0.0000 C   0  0  0  0  0  0  0  0  0  0  0  0
   -0.5966    3.4343    0.0000 C   0  0  0  0  0  0  0  0  0  0  0  0
   -1.3137    3.8422    0.0000 C   0  0  0  0  0  0  0  0  0  0  0  0
   -1.3188    4.6673    0.0000 C   0  0  0  0  0  0  0  0  0  0  0  0
  1  2  1  0
  1  3  1  0
  1  4  1  6
  2  5  1  0
  2  6  1  1
  3  7  1  0
  3  8  1  1
  4  9  1  0
  5 10  1  0
  5 11  1  0
  5 12  1  1
  6 13  1  0
  7 14  1  0
  7 15  1  0
  7 16  1  1
  8 17  1  1
  8 11  1  0
  9 18  1  6
  9 14  1  0
 10 19  1  1
 10 13  1  0
 13 20  1  6
 14 21  2  0
 15 22  2  0
 19 23  1  0
 19 24  2  0
 21 25  1  0
 22 25  1  0
 23 26  1  0
 25 27  2  0
 26 28  1  0
 28 29  1  0
 28 30  2  0
 29 31  1  0
 31 32  1  0
 32 33  1  0
 33 34  1  0
M  END
>  <DRUGBANK_ID>  (1) 
DB15821

>  <COMMON_NAME>  (1) 
Fluocortolone caproate

>  <CAS_NUMBER>  (1) 
303-40-2

>  <UNII>  (1) 
90893P8662

>  <SYNONYMS>  (1) 
Fluocortolone 21-caproate; Fluocortolone 21-hexanoate; Fluocortolone caproate; Fluocortolone hexanoate

$$$$
