
     RDKit          2D

 31 34  0  0  1  0  0  0  0  0999 V2000
    0.8838   -2.1500    0.0000 C   0  0  0  0  0  0  0  0  0  0  0  0
    1.1387   -1.3654    0.0000 N   0  0  0  0  0  0  0  0  0  0  0  0
    0.6538   -0.6979    0.0000 C   0  0  0  0  0  0  0  0  0  0  0  0
   -0.1712   -0.6979    0.0000 O   0  0  0  0  0  0  0  0  0  0  0  0
    1.1387   -0.0305    0.0000 O   0  0  0  0  0  0  0  0  0  0  0  0
    1.9233   -0.2854    0.0000 C   0  0  0  0  0  0  0  0  0  0  0  0
    2.6378    0.1271    0.0000 C   0  0  0  0  0  0  0  0  0  0  0  0
    3.3523   -0.2854    0.0000 C   0  0  0  0  0  0  0  0  0  0  0  0
    3.3523   -1.1104    0.0000 C   0  0  0  0  0  0  0  0  0  0  0  0
    2.6378   -1.5229    0.0000 C   0  0  0  0  0  0  0  0  0  0  0  0
    1.9233   -1.1104    0.0000 C   0  0  0  0  0  0  0  0  0  0  0  0
    4.0668   -1.5229    0.0000 C   0  0  0  0  0  0  0  0  0  0  0  0
    4.7812   -1.1104    0.0000 C   0  0  0  0  0  0  0  0  0  0  0  0
    5.4957   -1.5229    0.0000 C   0  0  0  0  0  0  0  0  0  0  0  0
    5.4957   -2.3479    0.0000 C   0  0  0  0  0  0  0  0  0  0  0  0
    6.2102   -2.7604    0.0000 C   0  0  0  0  0  0  0  0  0  0  0  0
    6.9246   -2.3479    0.0000 C   0  0  0  0  0  0  0  0  0  0  0  0
    7.6391   -2.7604    0.0000 N   0  0  0  0  0  0  0  0  0  0  0  0
    8.3536   -2.3479    0.0000 C   0  0  0  0  0  0  0  0  0  0  0  0
    8.3536   -1.5229    0.0000 O   0  0  0  0  0  0  0  0  0  0  0  0
    9.0681   -2.7604    0.0000 C   0  0  0  0  0  0  0  0  0  0  0  0
    9.7497   -2.2957    0.0000 C   0  0  0  0  0  0  0  0  0  0  0  0
   10.5380   -2.5389    0.0000 N   0  0  0  0  0  0  0  0  0  0  0  0
   10.8395   -3.3068    0.0000 C   0  0  0  0  0  0  0  0  0  0  0  0
   10.4270   -4.0213    0.0000 C   0  0  0  0  0  0  0  0  0  0  0  0
    9.6112   -4.1443    0.0000 C   0  0  0  0  0  0  0  0  0  0  0  0
    9.0064   -3.5831    0.0000 O   0  0  0  0  0  0  0  0  0  0  0  0
    6.9246   -1.5229    0.0000 C   0  0  0  0  0  0  0  0  0  0  0  0
    6.9246   -0.6979    0.0000 N   0  0  0  0  0  0  0  0  0  0  0  0
    4.7812   -2.7604    0.0000 C   0  0  0  0  0  0  0  0  0  0  0  0
    4.0668   -2.3479    0.0000 C   0  0  0  0  0  0  0  0  0  0  0  0
  1  2  1  0
  2  3  1  0
  2 11  1  0
  3  4  2  0
  3  5  1  0
  5  6  1  0
  6  7  1  0
  6 11  2  0
  7  8  2  0
  8  9  1  0
  9 10  2  0
  9 12  1  0
 10 11  1  0
 12 13  2  0
 12 31  1  0
 13 14  1  0
 14 15  2  0
 15 16  1  0
 15 30  1  0
 17 16  1  1
 17 18  1  0
 17 28  1  0
 18 19  1  0
 19 20  2  0
 21 19  1  6
 21 22  1  0
 21 27  1  0
 22 23  1  0
 23 24  1  0
 24 25  1  0
 25 26  1  0
 26 27  1  0
 28 29  3  0
 30 31  2  0
M  END
>  <DRUGBANK_ID>  (1) 
DB15638

>  <COMMON_NAME>  (1) 
Brensocatib

>  <CAS_NUMBER>  (1) 
1802148-05-5

>  <UNII>  (1) 
25CG88L0BB

>  <SYNONYMS>  (1) 
(S)-N-((S)-1-Cyano-2-(4-(3-methyl-2-oxo-2,3-dihydrobenzo-(d)oxazol-5-yl)phenyl)ethyl)-1,4-oxazepane-2-carboxamide; Brensocatib

$$$$
