
     RDKit          2D

 34 36  0  0  0  0  0  0  0  0999 V2000
   -0.6929    0.7090    0.0000 C   0  0  0  0  0  0  0  0  0  0  0  0
    0.0284    0.3089    0.0000 C   0  0  0  0  0  0  0  0  0  0  0  0
    0.7357    0.7337    0.0000 C   0  0  0  0  0  0  0  0  0  0  0  0
    0.7215    1.5586    0.0000 C   0  0  0  0  0  0  0  0  0  0  0  0
    0.0000    1.9587    0.0000 O   0  0  0  0  0  0  0  0  0  0  0  0
   -0.7072    1.5339    0.0000 C   0  0  0  0  0  0  0  0  0  0  0  0
   -1.4286    1.9340    0.0000 C   0  0  0  0  0  0  0  0  0  0  0  0
   -2.1359    1.5093    0.0000 C   0  0  0  0  0  0  0  0  0  0  0  0
   -2.1218    0.6844    0.0000 C   0  0  0  0  0  0  0  0  0  0  0  0
   -1.4002    0.2843    0.0000 C   0  0  0  0  0  0  0  0  0  0  0  0
    1.4571    0.3336    0.0000 C   0  0  0  0  0  0  0  0  0  0  0  0
    2.1645    0.7584    0.0000 C   0  0  0  0  0  0  0  0  0  0  0  0
    2.1502    1.5832    0.0000 C   0  0  0  0  0  0  0  0  0  0  0  0
    1.4288    1.9834    0.0000 C   0  0  0  0  0  0  0  0  0  0  0  0
    2.8859    0.3582    0.0000 C   0  0  0  0  0  0  0  0  0  0  0  0
   -2.8289    0.2596    0.0000 C   0  0  0  0  0  0  0  0  0  0  0  0
   -2.8575    1.9094    0.0000 N   0  0  0  0  0  0  0  0  0  0  0  0
   -3.5647    1.4847    0.0000 C   0  0  0  0  0  0  0  0  0  0  0  0
   -4.2862    1.8848    0.0000 C   0  0  0  0  0  0  0  0  0  0  0  0
    2.8575    2.0080    0.0000 N   0  0  0  0  0  0  0  0  0  0  0  0
    3.5790    1.6079    0.0000 C   0  0  0  0  0  0  0  0  0  0  0  0
    4.2862    2.0327    0.0000 C   0  0  0  0  0  0  0  0  0  0  0  0
    0.0284   -1.4001    0.0000 C   0  0  0  0  0  0  0  0  0  0  0  0
    0.0569   -3.0500    0.0000 C   0  0  0  0  0  0  0  0  0  0  0  0
    0.7641   -2.6252    0.0000 C   0  0  0  0  0  0  0  0  0  0  0  0
    0.7498   -1.8003    0.0000 C   0  0  0  0  0  0  0  0  0  0  0  0
   -0.6787   -1.8249    0.0000 C   0  0  0  0  0  0  0  0  0  0  0  0
   -0.6645   -2.6498    0.0000 C   0  0  0  0  0  0  0  0  0  0  0  0
   -1.4002   -1.4248    0.0000 C   0  0  0  0  0  0  0  0  0  0  0  0
   -2.1075   -1.8496    0.0000 O   0  0  0  0  0  0  0  0  0  0  0  0
   -2.8289   -1.4495    0.0000 C   0  0  0  0  0  0  0  0  0  0  0  0
   -1.4144   -0.5999    0.0000 O   0  0  0  0  0  0  0  0  0  0  0  0
   -0.0435    3.0500    0.0000 Cl  0  0  0  0  0  0  0  0  0  0  0  0
   -3.5361   -1.8743    0.0000 C   0  0  0  0  0  0  0  0  0  0  0  0
  1  2  1  0
  1  6  2  0
  1 10  1  0
  2  3  2  0
  2 23  1  0
  3  4  1  0
  4  5  2  0
  5  6  1  0
  6  7  1  0
  7  8  2  0
  8  9  1  0
  8 17  1  0
  9 10  2  0
  9 16  1  0
 11  3  1  0
 11 12  2  0
 12 13  1  0
 12 15  1  0
 13 14  2  0
 13 20  1  0
 14  4  1  0
 17 18  1  0
 18 19  1  0
 20 21  1  0
 21 22  1  0
 23 27  1  0
 24 25  2  0
 24 28  1  0
 25 26  1  0
 26 23  2  0
 27 28  2  0
 27 29  1  0
 29 30  1  0
 29 32  2  0
 30 31  1  0
 31 34  1  0
M  CHG  2   5   1  33  -1
M  END
>  <DRUGBANK_ID>  (1) 
DB03825

>  <SECONDARY_ACCESSION_NUMBERS>  (1) 
EXPT02782

>  <COMMON_NAME>  (1) 
Rhodamine 6G

>  <CAS_NUMBER>  (1) 
989-38-8

>  <UNII>  (1) 
037VRW83CF

>  <SYNONYMS>  (1) 
Basic red 1; Calcozine rhodamine 6GX; CI basic red 1; R6G

$$$$
