
     RDKit          2D

 27 29  0  0  1  0  0  0  0  0999 V2000
   11.9596  -15.9477    0.0000 C   0  0  0  0  0  0  0  0  0  0  0  0
    7.5924  -17.7030    0.0000 C   0  0  0  0  0  0  0  0  0  0  0  0
    8.7812  -15.2456    0.0000 C   0  0  0  0  0  0  0  0  0  0  0  0
   11.1819  -16.2230    0.0000 C   0  0  0  0  0  0  0  0  0  0  0  0
    7.7221  -16.0581    0.0000 C   0  0  0  0  0  0  0  0  0  0  0  0
   10.9475  -17.0140    0.0000 C   0  0  0  0  0  0  0  0  0  0  0  0
   10.1227  -17.0354    0.0000 C   0  0  0  0  0  0  0  0  0  0  0  0
    6.9774  -16.4131    0.0000 C   0  0  0  0  0  0  0  0  0  0  0  0
    8.4019  -16.5255    0.0000 C   0  0  0  0  0  0  0  0  0  0  0  0
    9.8475  -16.2578    0.0000 C   0  0  0  0  0  0  0  0  0  0  0  0
    6.2976  -15.9458    0.0000 N   0  0  0  0  0  0  0  0  0  0  0  0
    6.9126  -17.2356    0.0000 N   0  0  0  0  0  0  0  0  0  0  0  0
    8.3371  -17.3479    0.0000 N   0  0  0  0  0  0  0  0  0  0  0  0
    7.9565  -15.2671    0.0000 N   0  0  0  0  0  0  0  0  0  0  0  0
    9.0565  -16.0234    0.0000 N   0  0  0  0  0  0  0  0  0  0  0  0
   11.4496  -17.6686    0.0000 O   0  0  0  0  0  0  0  0  0  0  0  0
    9.6554  -17.7153    0.0000 O   0  0  0  0  0  0  0  0  0  0  0  0
   13.6399  -16.9860    0.0000 O   0  0  0  0  0  0  0  0  0  0  0  0
   13.0893  -15.4306    0.0000 O   0  0  0  0  0  0  0  0  0  0  0  0
   15.1039  -15.2723    0.0000 O   0  0  0  0  0  0  0  0  0  0  0  0
   13.4816  -14.9714    0.0000 O   0  0  0  0  0  0  0  0  0  0  0  0
   14.4432  -14.3107    0.0000 O   0  0  0  0  0  0  0  0  0  0  0  0
   12.5869  -16.4835    0.0000 O   0  0  0  0  0  0  0  0  0  0  0  0
   10.5021  -15.7556    0.0000 O   0  0  0  0  0  0  0  0  0  0  0  0
   14.1422  -15.9330    0.0000 O   0  0  0  0  0  0  0  0  0  0  0  0
   13.3646  -16.2083    0.0000 P   0  0  0  0  0  0  0  0  0  0  0  0
   14.2927  -15.1218    0.0000 S   0  0  0  0  0  0  0  0  0  0  0  0
  1 23  1  0
  2 13  2  0
  2 12  1  0
  3 15  1  0
  3 14  2  0
  4  1  1  6
  4  6  1  0
  4 24  1  0
  5  8  1  0
  5  9  2  0
  5 14  1  0
  6  7  1  0
  6 16  1  1
  7 10  1  0
  7 17  1  1
  8 11  1  0
  8 12  2  0
  9 13  1  0
  9 15  1  0
 10 15  1  6
 10 24  1  0
 18 26  1  0
 19 26  2  0
 20 27  1  0
 21 27  2  0
 22 27  2  0
 23 26  1  0
 25 26  1  0
 25 27  1  0
M  END
>  <DRUGBANK_ID>  (1) 
DB03708

>  <SECONDARY_ACCESSION_NUMBERS>  (1) 
EXPT00441

>  <COMMON_NAME>  (1) 
Adenosine 5'-phosphosulfate

>  <CAS_NUMBER>  (1) 
485-84-7

>  <UNII>  (1) 
U98POO8KQU

>  <SYNONYMS>  (1) 
5'-adenylyl sulfate; adenosine phosphosulfate; Adenosine-5'-phosphosulfate; Adenylylsulfate; APS

$$$$
