
     RDKit          2D

 24 26  0  0  0  0  0  0  0  0999 V2000
    2.1678   -0.1682    0.0000 S   0  0  0  0  0  0  0  0  0  0  0  0
    1.6786    0.4171    0.0000 C   0  0  0  0  0  0  0  0  0  0  0  0
    0.8640    0.4171    0.0000 C   0  0  0  0  0  0  0  0  0  0  0  0
    0.4228    1.1581    0.0000 C   0  0  0  0  0  0  0  0  0  0  0  0
   -0.5104    1.1581    0.0000 C   0  0  0  0  0  0  0  0  0  0  0  0
   -1.2430    0.6971    0.0000 N   0  0  0  0  0  0  0  0  0  0  0  0
   -1.2430   -0.3464    0.0000 N   0  0  0  0  0  0  0  0  0  0  0  0
   -1.9189   -0.7961    0.0000 C   0  0  0  0  0  0  0  0  0  0  0  0
   -1.9189   -1.5682    0.0000 C   0  0  0  0  0  0  0  0  0  0  0  0
   -2.6147   -1.9868    0.0000 C   0  0  0  0  0  0  0  0  0  0  0  0
   -3.2935   -1.5570    0.0000 C   0  0  0  0  0  0  0  0  0  0  0  0
   -3.2935   -0.7452    0.0000 C   0  0  0  0  0  0  0  0  0  0  0  0
   -2.6373   -0.3464    0.0000 C   0  0  0  0  0  0  0  0  0  0  0  0
   -0.5387   -1.5682    0.0000 C   0  0  0  0  0  0  0  0  0  0  0  0
   -0.5387   -0.8046    0.0000 C   0  0  0  0  0  0  0  0  0  0  0  0
    0.1994   -0.3464    0.0000 C   0  0  0  0  0  0  0  0  0  0  0  0
   -0.5104    1.9868    0.0000 O   0  0  0  0  0  0  0  0  0  0  0  0
    0.8102    1.8822    0.0000 C   0  0  0  0  0  0  0  0  0  0  0  0
    1.6503    1.8822    0.0000 C   0  0  0  0  0  0  0  0  0  0  0  0
    2.0999    1.1581    0.0000 C   0  0  0  0  0  0  0  0  0  0  0  0
    3.2935    1.1581    0.0000 Cl  0  0  0  0  0  0  0  0  0  0  0  0
    1.5513   -0.5755    0.0000 O   0  0  0  0  0  0  0  0  0  0  0  0
    2.7477    0.1965    0.0000 O   0  0  0  0  0  0  0  0  0  0  0  0
    2.6430   -0.7679    0.0000 N   0  0  0  0  0  0  0  0  0  0  0  0
  2  1  1  0
  3  2  2  0
  4  3  1  0
  5  4  1  0
  6  5  1  0
  7  6  1  0
  8  7  1  0
  9  8  1  0
 10  9  2  0
 11 10  1  0
 11 12  2  0
 12 13  1  0
 13  8  2  0
 14  9  1  0
 14 15  1  0
 15  7  1  0
 15 16  1  1
 17  5  2  0
 18  4  2  0
 18 19  1  0
 19 20  2  0
 20  2  1  0
 21 20  1  0
 22  1  2  0
 23  1  2  0
 24  1  1  0
M  END
>  <DRUGBANK_ID>  (1) 
DB07467

>  <COMMON_NAME>  (1) 
(S)-Indapamide

>  <CAS_NUMBER>  (1) 
77083-53-5

>  <UNII>  (1) 
GDV888123I

>  <SYNONYMS>  (1) 
(+)-Indapamide; 3-(Aminosulfonyl)-4-chloro-N-((2S)-2,3-dihydro-2-methyl-1H-indol-1-yl)benzamide

$$$$
