
     RDKit          2D

 14 15  0  0  0  0  0  0  0  0999 V2000
   -0.9362   -0.4680    0.0000 C   0  0  0  0  0  0  0  0  0  0  0  0
   -1.3499   -1.1819    0.0000 C   0  0  0  0  0  0  0  0  0  0  0  0
   -1.3499    0.2456    0.0000 C   0  0  0  0  0  0  0  0  0  0  0  0
   -2.1724   -1.1819    0.0000 C   0  0  0  0  0  0  0  0  0  0  0  0
   -2.1724    0.2456    0.0000 C   0  0  0  0  0  0  0  0  0  0  0  0
   -2.5863   -0.4680    0.0000 C   0  0  0  0  0  0  0  0  0  0  0  0
   -0.1137   -0.4680    0.0000 C   0  0  0  0  0  0  0  0  0  0  0  0
    1.8724    0.3594    0.0000 C   0  0  0  0  0  0  0  0  0  0  0  0
    1.1586   -0.8819    0.0000 C   0  0  0  0  0  0  0  0  0  0  0  0
    1.1586   -0.0543    0.0000 C   0  0  0  0  0  0  0  0  0  0  0  0
    0.3723   -1.1353    0.0000 N   0  0  0  0  0  0  0  0  0  0  0  0
    0.3723    0.1990    0.0000 N   0  0  0  0  0  0  0  0  0  0  0  0
    1.8724    1.1819    0.0000 O   0  0  0  0  0  0  0  0  0  0  0  0
    2.5863   -0.0543    0.0000 O   0  0  0  0  0  0  0  0  0  0  0  0
  1  2  2  0
  1  3  1  0
  1  7  1  0
  2  4  1  0
  3  5  2  0
  4  6  2  0
  5  6  1  0
  7 12  2  0
  7 11  1  0
  8 10  1  0
  8 13  1  0
  8 14  2  0
  9 10  2  0
  9 11  1  0
 10 12  1  0
M  END
>  <DRUGBANK_ID>  (1) 
DB07803

>  <COMMON_NAME>  (1) 
2-phenyl-1H-imidazole-4-carboxylic acid

>  <CAS_NUMBER>  (1) 
77498-98-7

>  <UNII>  (1) 
HGH57KDY8T

$$$$
