D01
     RDKit          2D

 31 35  0  0  0  0  0  0  0  0999 V2000
   -1.0334   -2.1603    0.0000 N   0  0  0  0  0  0  0  0  0  0  0  0
   -1.6465   -2.7124    0.0000 C   0  0  0  0  0  0  0  0  0  0  0  0
   -1.6465   -3.5374    0.0000 C   0  0  0  0  0  0  0  0  0  0  0  0
   -2.3609   -3.9499    0.0000 C   0  0  0  0  0  0  0  0  0  0  0  0
   -3.0754   -3.5374    0.0000 C   0  0  0  0  0  0  0  0  0  0  0  0
   -3.7899   -3.9499    0.0000 Cl  0  0  0  0  0  0  0  0  0  0  0  0
   -3.0754   -2.7124    0.0000 C   0  0  0  0  0  0  0  0  0  0  0  0
   -2.3609   -2.2999    0.0000 C   0  0  0  0  0  0  0  0  0  0  0  0
   -2.1894   -1.4929    0.0000 C   0  0  0  0  0  0  0  0  0  0  0  0
   -1.3689   -1.4067    0.0000 C   0  0  0  0  0  0  0  0  0  0  0  0
   -0.9564   -0.6922    0.0000 S   0  0  0  0  0  0  0  0  0  0  0  0
   -0.2420   -1.1047    0.0000 O   0  0  0  0  0  0  0  0  0  0  0  0
   -1.6709   -0.2797    0.0000 O   0  0  0  0  0  0  0  0  0  0  0  0
   -0.5439    0.0223    0.0000 N   0  0  0  0  0  0  0  0  0  0  0  0
   -0.9564    0.7367    0.0000 C   0  0  0  0  0  0  0  0  0  0  0  0
   -0.5439    1.4512    0.0000 C   0  0  0  0  0  0  0  0  0  0  0  0
    0.2811    1.4512    0.0000 N   0  0  0  0  0  0  0  0  0  0  0  0
    0.6936    2.1657    0.0000 C   0  0  0  0  0  0  0  0  0  0  0  0
    0.2811    2.8802    0.0000 O   0  0  0  0  0  0  0  0  0  0  0  0
    1.5186    2.1657    0.0000 C   0  0  0  0  0  0  0  0  0  0  0  0
    2.0035    1.4983    0.0000 C   0  0  0  0  0  0  0  0  0  0  0  0
    2.7881    1.7532    0.0000 C   0  0  0  0  0  0  0  0  0  0  0  0
    2.7881    2.5782    0.0000 C   0  0  0  0  0  0  0  0  0  0  0  0
    2.0035    2.8331    0.0000 S   0  0  0  0  0  0  0  0  0  0  0  0
    3.5026    2.9907    0.0000 C   0  0  0  0  0  0  0  0  0  0  0  0
    4.2171    2.5782    0.0000 C   0  0  0  0  0  0  0  0  0  0  0  0
    4.2171    1.7532    0.0000 C   0  0  0  0  0  0  0  0  0  0  0  0
    3.5026    1.3407    0.0000 N   0  0  0  0  0  0  0  0  0  0  0  0
    3.5026    0.5157    0.0000 O   0  0  0  0  0  0  0  0  0  0  0  0
    0.6936    0.7367    0.0000 C   0  0  0  0  0  0  0  0  0  0  0  0
    0.2811    0.0223    0.0000 C   0  0  0  0  0  0  0  0  0  0  0  0
  1  2  1  0
  1 10  1  0
  2  3  2  0
  2  8  1  0
  3  4  1  0
  4  5  2  0
  5  6  1  0
  5  7  1  0
  7  8  2  0
  8  9  1  0
  9 10  2  0
 10 11  1  0
 11 12  2  0
 11 13  2  0
 11 14  1  0
 14 15  1  0
 14 31  1  0
 15 16  1  0
 16 17  1  0
 17 18  1  0
 17 30  1  0
 18 19  2  0
 18 20  1  0
 20 21  2  0
 20 24  1  0
 21 22  1  0
 22 23  2  0
 22 28  1  0
 23 24  1  0
 23 25  1  0
 25 26  2  0
 26 27  1  0
 27 28  2  0
 28 29  1  0
 30 31  1  0
M  CHG  2  28   1  29  -1
M  END
>  <DRUGBANK_ID>  (1) 
DB07605

>  <COMMON_NAME>  (1) 
2-({4-[(5-CHLORO-1H-INDOL-2-YL)SULFONYL]PIPERAZIN-1-YL}CARBONYL)THIENO[3,2-B]PYRIDINE 4-OXIDE

$$$$
