WR1
     RDKit          2D

 29 30  0  0  0  0  0  0  0  0999 V2000
   -2.7638   -0.3707    0.0000 O   0  0  0  0  0  0  0  0  0  0  0  0
   -2.7638    0.4543    0.0000 C   0  0  0  0  0  0  0  0  0  0  0  0
   -3.4783    0.8668    0.0000 O   0  0  0  0  0  0  0  0  0  0  0  0
   -4.1928    0.4543    0.0000 C   0  0  0  0  0  0  0  0  0  0  0  0
   -4.9073    0.8668    0.0000 C   0  0  0  0  0  0  0  0  0  0  0  0
   -5.6217    0.4543    0.0000 C   0  0  0  0  0  0  0  0  0  0  0  0
   -6.3362    0.8668    0.0000 C   0  0  0  0  0  0  0  0  0  0  0  0
   -6.3362    1.6918    0.0000 C   0  0  0  0  0  0  0  0  0  0  0  0
   -5.6217    2.1043    0.0000 C   0  0  0  0  0  0  0  0  0  0  0  0
   -4.9073    1.6918    0.0000 C   0  0  0  0  0  0  0  0  0  0  0  0
   -2.0494    0.8668    0.0000 N   0  0  0  0  0  0  0  0  0  0  0  0
   -1.3349    0.4543    0.0000 C   0  0  0  0  0  0  0  0  0  0  0  0
   -1.3349   -0.3707    0.0000 C   0  0  0  0  0  0  0  0  0  0  0  0
   -0.6204   -0.7832    0.0000 C   0  0  0  0  0  0  0  0  0  0  0  0
   -0.6204   -1.6082    0.0000 C   0  0  0  0  0  0  0  0  0  0  0  0
    0.0940   -2.0207    0.0000 C   0  0  0  0  0  0  0  0  0  0  0  0
    0.8085   -1.6082    0.0000 C   0  0  0  0  0  0  0  0  0  0  0  0
    0.8085   -0.7832    0.0000 C   0  0  0  0  0  0  0  0  0  0  0  0
    0.0940   -0.3707    0.0000 C   0  0  0  0  0  0  0  0  0  0  0  0
   -0.6204    0.8668    0.0000 C   0  0  0  0  0  0  0  0  0  0  0  0
   -0.6204    1.6918    0.0000 O   0  0  0  0  0  0  0  0  0  0  0  0
    0.0940    0.4543    0.0000 N   0  0  0  0  0  0  0  0  0  0  0  0
    0.8085    0.8668    0.0000 C   0  0  0  0  0  0  0  0  0  0  0  0
    0.8085    1.6918    0.0000 C   0  0  0  0  0  0  0  0  0  0  0  0
    1.5230    0.4543    0.0000 C   0  0  0  0  0  0  0  0  0  0  0  0
    1.5230   -0.3707    0.0000 O   0  0  0  0  0  0  0  0  0  0  0  0
    2.2375    0.8668    0.0000 C   0  0  0  0  0  0  0  0  0  0  0  0
    2.9519    0.4543    0.0000 C   0  0  0  0  0  0  0  0  0  0  0  0
    3.6664    0.8668    0.0000 O   0  0  0  0  0  0  0  0  0  0  0  0
  1  2  2  0
  2  3  1  0
  2 11  1  0
  3  4  1  0
  4  5  1  0
  5  6  2  0
  5 10  1  0
  6  7  1  0
  7  8  2  0
  8  9  1  0
  9 10  2  0
 12 11  1  0
 12 20  1  0
 12 13  1  6
 13 14  1  0
 14 19  1  0
 14 15  2  0
 15 16  1  0
 16 17  2  0
 17 18  1  0
 18 19  2  0
 20 21  2  0
 20 22  1  0
 22 23  1  0
 23 25  1  0
 23 24  1  6
 25 27  1  0
 25 26  2  0
 27 28  1  0
 28 29  1  0
M  END
>  <DRUGBANK_ID>  (1) 
DB08732

>  <COMMON_NAME>  (1) 
NALPHA-[(BENZYLOXY)CARBONYL]-N-[(1R)-4-HYDROXY-1-METHYL-2-OXOBUTYL]-L-PHENYLALANINAMIDE

$$$$
