
     RDKit          2D

 20 21  0  0  0  0  0  0  0  0999 V2000
    0.7143    0.8251    0.0000 C   0  0  0  0  0  0  0  0  0  0  0  0
    1.4288    0.4127    0.0000 C   0  0  0  0  0  0  0  0  0  0  0  0
    0.7141    1.6501    0.0000 C   0  0  0  0  0  0  0  0  0  0  0  0
    1.4285    2.0626    0.0000 C   0  0  0  0  0  0  0  0  0  0  0  0
    2.1432    0.8253    0.0000 C   0  0  0  0  0  0  0  0  0  0  0  0
    2.1432    1.6503    0.0000 C   0  0  0  0  0  0  0  0  0  0  0  0
    2.8576    2.0629    0.0000 O   0  0  0  0  0  0  0  0  0  0  0  0
    0.0000    0.4124    0.0000 C   0  0  0  0  0  0  0  0  0  0  0  0
    0.0000   -0.4125    0.0000 C   0  0  0  0  0  0  0  0  0  0  0  0
    0.7145   -0.8247    0.0000 C   0  0  0  0  0  0  0  0  0  0  0  0
    1.4289   -0.4121    0.0000 C   0  0  0  0  0  0  0  0  0  0  0  0
   -0.7144   -0.8250    0.0000 C   0  0  0  0  0  0  0  0  0  0  0  0
   -0.7146    0.8248    0.0000 C   0  0  0  0  0  0  0  0  0  0  0  0
   -1.4290    0.4122    0.0000 C   0  0  0  0  0  0  0  0  0  0  0  0
   -2.1432   -1.6503    0.0000 C   0  0  0  0  0  0  0  0  0  0  0  0
   -1.4285   -2.0627    0.0000 C   0  0  0  0  0  0  0  0  0  0  0  0
   -2.1432   -0.8253    0.0000 C   0  0  0  0  0  0  0  0  0  0  0  0
   -1.4288   -0.4127    0.0000 C   0  0  0  0  0  0  0  0  0  0  0  0
   -0.7141   -1.6500    0.0000 C   0  0  0  0  0  0  0  0  0  0  0  0
   -2.8576   -2.0629    0.0000 O   0  0  0  0  0  0  0  0  0  0  0  0
  2  1  2  0
  3  1  1  0
  4  3  2  0
  5  2  1  0
  5  6  2  0
  6  4  1  0
  7  6  1  0
  8  1  1  0
  9  8  2  0
 10  9  1  0
 11 10  1  0
 12  9  1  0
 12 18  1  0
 13  8  1  0
 14 13  1  0
 16 15  2  0
 17 15  1  0
 18 17  2  0
 19 16  1  0
 19 12  2  0
 20 15  1  0
M  END
>  <DRUGBANK_ID>  (1) 
DB00255

>  <SECONDARY_ACCESSION_NUMBERS>  (1) 
APRD00920; EXPT01164

>  <COMMON_NAME>  (1) 
Diethylstilbestrol

>  <CAS_NUMBER>  (1) 
56-53-1

>  <UNII>  (1) 
731DCA35BT

>  <SYNONYMS>  (1) 
(E)-3,4-bis(4-hydroxyphenyl)-3-hexene; (E)-4,4'-(1,2-diethyl-1,2-ethenediyl)bisphenol; 4,4'-dihydroxy-α,β-diethylstilbene; DES; Diethylstilbestrol; Diéthylstilbestrol; Diethylstilbestrolum; Dietilestilbestrol; Stilboestrol; trans-4,4'-(1,2-diethyl-1,2-ethenediyl)bisphenol; trans-Diethylstilbesterol; trans-Diethylstilbestrol; trans-Diethylstilboesterol; α,α'-diethyl-(E)-4,4'-stilbenediol

$$$$
