
     RDKit          2D

 34 39  0  0  0  0  0  0  0  0999 V2000
   -0.7145   -1.2375    0.0000 O   0  0  0  0  0  0  0  0  0  0  0  0
    0.0000   -1.6500    0.0000 C   0  0  0  0  0  0  0  0  0  0  0  0
    0.0000   -2.4750    0.0000 N   0  0  0  0  0  0  0  0  0  0  0  0
   -0.7145   -2.8875    0.0000 C   0  0  0  0  0  0  0  0  0  0  0  0
   -0.7145   -3.7125    0.0000 C   0  0  0  0  0  0  0  0  0  0  0  0
   -1.4289   -4.1250    0.0000 C   0  0  0  0  0  0  0  0  0  0  0  0
   -2.1434   -3.7125    0.0000 C   0  0  0  0  0  0  0  0  0  0  0  0
   -2.1434   -2.8875    0.0000 C   0  0  0  0  0  0  0  0  0  0  0  0
   -1.4289   -2.4750    0.0000 C   0  0  0  0  0  0  0  0  0  0  0  0
    0.0000   -4.1250    0.0000 C   0  0  0  0  0  0  0  0  0  0  0  0
    0.7537   -3.7894    0.0000 C   0  0  0  0  0  0  0  0  0  0  0  0
    1.3057   -4.4025    0.0000 N   0  0  0  0  0  0  0  0  0  0  0  0
    2.1127   -4.5741    0.0000 C   0  0  0  0  0  0  0  0  0  0  0  0
    2.7258   -4.0220    0.0000 C   0  0  0  0  0  0  0  0  0  0  0  0
    3.5104   -4.2770    0.0000 N   0  0  0  0  0  0  0  0  0  0  0  0
    4.1235   -3.7249    0.0000 C   0  0  0  0  0  0  0  0  0  0  0  0
    4.9081   -3.9799    0.0000 C   0  0  0  0  0  0  0  0  0  0  0  0
    5.0796   -4.7868    0.0000 N   0  0  0  0  0  0  0  0  0  0  0  0
    4.4665   -5.3389    0.0000 C   0  0  0  0  0  0  0  0  0  0  0  0
    3.6819   -5.0839    0.0000 C   0  0  0  0  0  0  0  0  0  0  0  0
    2.1989   -5.3945    0.0000 C   0  0  0  0  0  0  0  0  0  0  0  0
    1.4452   -5.7301    0.0000 S   0  0  0  0  0  0  0  0  0  0  0  0
    0.8932   -5.1170    0.0000 C   0  0  0  0  0  0  0  0  0  0  0  0
    0.0862   -4.9455    0.0000 N   0  0  0  0  0  0  0  0  0  0  0  0
    0.7145   -1.2375    0.0000 C   0  0  0  0  0  0  0  0  0  0  0  0
    0.7145   -0.4125    0.0000 C   0  0  0  0  0  0  0  0  0  0  0  0
    1.4289    0.0000    0.0000 N   0  0  0  0  0  0  0  0  0  0  0  0
    2.1434   -0.4125    0.0000 C   0  0  0  0  0  0  0  0  0  0  0  0
    2.8579    0.0000    0.0000 C   0  0  0  0  0  0  0  0  0  0  0  0
    3.5724   -0.4125    0.0000 C   0  0  0  0  0  0  0  0  0  0  0  0
    3.5724   -1.2375    0.0000 C   0  0  0  0  0  0  0  0  0  0  0  0
    2.8579   -1.6500    0.0000 C   0  0  0  0  0  0  0  0  0  0  0  0
    2.1434   -1.2375    0.0000 C   0  0  0  0  0  0  0  0  0  0  0  0
    1.4289   -1.6500    0.0000 N   0  0  0  0  0  0  0  0  0  0  0  0
  1  2  2  0
  2  3  1  0
  2 25  1  0
  3  4  1  0
  4  5  1  0
  4  9  2  0
  5  6  2  0
  5 10  1  0
  6  7  1  0
  7  8  2  0
  8  9  1  0
 10 11  2  0
 10 24  1  0
 11 12  1  0
 12 13  1  0
 12 23  1  0
 13 14  1  0
 13 21  2  0
 14 15  1  0
 15 16  1  0
 15 20  1  0
 16 17  1  0
 17 18  1  0
 18 19  1  0
 19 20  1  0
 21 22  1  0
 22 23  1  0
 23 24  2  0
 25 26  2  0
 25 34  1  0
 26 27  1  0
 27 28  2  0
 28 29  1  0
 28 33  1  0
 29 30  2  0
 30 31  1  0
 31 32  2  0
 32 33  1  0
 33 34  2  0
M  END
>  <DRUGBANK_ID>  (1) 
DB17057

>  <COMMON_NAME>  (1) 
SRT-1720

>  <CAS_NUMBER>  (1) 
925434-55-5

>  <UNII>  (1) 
DX3FHY76FZ

>  <SYNONYMS>  (1) 
2-quinoxalinecarboxamide, n-(2-(3-(1-piperazinylmethyl)imidazo(2,1-b)thiazol-6-yl)phenyl)-; N-(2-(3-(1-piperazinylmethyl)imidazo(2,1-b)thiazol-6-yl)phenyl)-2-quinoxalinecarboxamide

$$$$
