
     RDKit          2D

 17 19  0  0  0  0  0  0  0  0999 V2000
   -0.0113   -0.5556    0.0000 C   0  0  0  0  0  0  0  0  0  0  0  0
   -0.0113   -1.3806    0.0000 C   0  0  0  0  0  0  0  0  0  0  0  0
   -0.7259   -0.1431    0.0000 C   0  0  0  0  0  0  0  0  0  0  0  0
   -0.7259   -1.7931    0.0000 C   0  0  0  0  0  0  0  0  0  0  0  0
   -1.4403   -0.5556    0.0000 C   0  0  0  0  0  0  0  0  0  0  0  0
   -1.4403   -1.3806    0.0000 C   0  0  0  0  0  0  0  0  0  0  0  0
    1.4176   -0.5556    0.0000 C   0  0  0  0  0  0  0  0  0  0  0  0
    1.4176   -1.3806    0.0000 C   0  0  0  0  0  0  0  0  0  0  0  0
    0.7029   -0.1431    0.0000 C   0  0  0  0  0  0  0  0  0  0  0  0
    0.7029   -1.7931    0.0000 O   0  0  0  0  0  0  0  0  0  0  0  0
    0.0352    0.3411    0.0000 N   0  0  0  0  0  0  0  0  0  0  0  0
    0.2893    1.1260    0.0000 C   0  0  0  0  0  0  0  0  0  0  0  0
    1.3699    0.3422    0.0000 C   0  0  0  0  0  0  0  0  0  0  0  0
    1.1144    1.1267    0.0000 N   0  0  0  0  0  0  0  0  0  0  0  0
   -0.1960    1.7930    0.0000 O   0  0  0  0  0  0  0  0  0  0  0  0
    2.1549    0.0880    0.0000 O   0  0  0  0  0  0  0  0  0  0  0  0
   -2.1549   -0.1431    0.0000 F   0  0  0  0  0  0  0  0  0  0  0  0
  2 10  1  0
  2  1  1  0
  3  1  2  0
  4  2  2  0
  5  3  1  0
  5 17  1  0
  6  4  1  0
  6  5  2  0
  8  7  1  0
  9  7  1  1
  9  1  1  0
  9 11  1  0
  9 13  1  0
 10  8  1  0
 12 11  1  0
 12 15  2  0
 13 16  2  0
 14 12  1  0
 14 13  1  0
M  END
>  <DRUGBANK_ID>  (1) 
DB02712

>  <SECONDARY_ACCESSION_NUMBERS>  (1) 
EXPT03309

>  <COMMON_NAME>  (1) 
Sorbinil

>  <CAS_NUMBER>  (1) 
68367-52-2

>  <UNII>  (1) 
G4186B906P

>  <SYNONYMS>  (1) 
Sorbinil; sorbinilo; Sorbinilum

$$$$
