
     RDKit          2D

 27 30  0  0  0  0  0  0  0  0999 V2000
    5.2402   -2.2223    0.0000 O   0  0  0  0  0  0  0  0  0  0  0  0
    3.0206   -0.6915    0.0000 O   0  0  0  0  0  0  0  0  0  0  0  0
    6.5930    1.3710    0.0000 N   0  0  0  0  0  0  0  0  0  0  0  0
    4.4496   -0.6915    0.0000 N   0  0  0  0  0  0  0  0  0  0  0  0
    4.1476   -3.1986    0.0000 N   0  0  0  0  0  0  0  0  0  0  0  0
    5.1640    0.5460    0.0000 C   0  0  0  0  0  0  0  0  0  0  0  0
    5.1640    1.3710    0.0000 C   0  0  0  0  0  0  0  0  0  0  0  0
    5.8785    0.1335    0.0000 C   0  0  0  0  0  0  0  0  0  0  0  0
    5.8785    1.7835    0.0000 C   0  0  0  0  0  0  0  0  0  0  0  0
    6.5930    0.5460    0.0000 C   0  0  0  0  0  0  0  0  0  0  0  0
    4.4496    0.1335    0.0000 C   0  0  0  0  0  0  0  0  0  0  0  0
    7.3074    1.7835    0.0000 C   0  0  0  0  0  0  0  0  0  0  0  0
    7.3074    2.6085    0.0000 C   0  0  0  0  0  0  0  0  0  0  0  0
    3.7351   -1.9290    0.0000 C   0  0  0  0  0  0  0  0  0  0  0  0
    3.7351   -1.1040    0.0000 C   0  0  0  0  0  0  0  0  0  0  0  0
    4.4025   -2.4140    0.0000 C   0  0  0  0  0  0  0  0  0  0  0  0
    4.7126   -3.8460    0.0000 C   0  0  0  0  0  0  0  0  0  0  0  0
    8.0219    3.0210    0.0000 C   0  0  0  0  0  0  0  0  0  0  0  0
    3.0676   -2.4140    0.0000 C   0  0  0  0  0  0  0  0  0  0  0  0
    3.3226   -3.1986    0.0000 C   0  0  0  0  0  0  0  0  0  0  0  0
    5.5546   -3.6738    0.0000 C   0  0  0  0  0  0  0  0  0  0  0  0
    5.8201   -2.8565    0.0000 C   0  0  0  0  0  0  0  0  0  0  0  0
    2.2299   -2.2223    0.0000 C   0  0  0  0  0  0  0  0  0  0  0  0
    2.7575   -3.8460    0.0000 C   0  0  0  0  0  0  0  0  0  0  0  0
    8.0219    3.8460    0.0000 C   0  0  0  0  0  0  0  0  0  0  0  0
    1.6500   -2.8565    0.0000 C   0  0  0  0  0  0  0  0  0  0  0  0
    1.9156   -3.6738    0.0000 C   0  0  0  0  0  0  0  0  0  0  0  0
  1 16  1  0
  1 22  1  0
  2 15  2  0
  3  9  1  0
  3 10  1  0
  3 12  1  0
  4 11  1  0
  4 15  1  0
  5 16  1  0
  5 17  1  0
  5 20  1  0
  6  7  1  0
  6  8  1  0
  6 11  1  0
  7  9  1  0
  8 10  1  0
 12 13  1  0
 13 18  1  0
 14 15  1  0
 14 16  2  0
 14 19  1  0
 17 21  1  0
 18 25  1  0
 19 20  2  0
 19 23  1  0
 20 24  1  0
 21 22  1  0
 23 26  2  0
 24 27  2  0
 26 27  1  0
M  END
>  <DRUGBANK_ID>  (1) 
DB04873

>  <COMMON_NAME>  (1) 
Piboserod

>  <CAS_NUMBER>  (1) 
152811-62-6

>  <UNII>  (1) 
4UQ3S81B25

>  <SYNONYMS>  (1) 
Piboserod

$$$$
