
     RDKit          2D

 17 18  0  0  0  0  0  0  0  0999 V2000
    0.9427    1.3294    0.0000 O   0  0  0  0  0  0  0  0  0  0  0  0
   -0.3922    1.3294    0.0000 O   0  0  0  0  0  0  0  0  0  0  0  0
    0.8370    3.5352    0.0000 O   0  0  0  0  0  0  0  0  0  0  0  0
    0.2752   -2.4557    0.0000 N   0  0  0  0  0  0  0  0  0  0  0  0
   -0.4392   -3.6933    0.0000 N   0  0  0  0  0  0  0  0  0  0  0  0
   -1.1538   -2.4557    0.0000 N   0  0  0  0  0  0  0  0  0  0  0  0
    0.6877    2.1140    0.0000 C   0  0  0  0  0  0  0  0  0  0  0  0
   -0.1372    2.1140    0.0000 C   0  0  0  0  0  0  0  0  0  0  0  0
    1.1727    2.7815    0.0000 C   0  0  0  0  0  0  0  0  0  0  0  0
    0.2752    0.0193    0.0000 C   0  0  0  0  0  0  0  0  0  0  0  0
    0.9897   -0.3931    0.0000 C   0  0  0  0  0  0  0  0  0  0  0  0
   -0.4392   -0.3931    0.0000 C   0  0  0  0  0  0  0  0  0  0  0  0
    0.9897   -1.2181    0.0000 C   0  0  0  0  0  0  0  0  0  0  0  0
   -0.4392   -1.2181    0.0000 C   0  0  0  0  0  0  0  0  0  0  0  0
    0.2752   -1.6307    0.0000 C   0  0  0  0  0  0  0  0  0  0  0  0
   -0.4392   -2.8682    0.0000 C   0  0  0  0  0  0  0  0  0  0  0  0
    0.2752    0.8444    0.0000 B   0  0  0  0  0  0  0  0  0  0  0  0
  1  7  1  0
  1 17  1  0
  2  8  1  0
  2 17  1  0
  3  9  1  0
  4 15  1  0
  4 16  2  3
  5 16  1  0
  6 16  1  0
  7  8  1  0
  7  9  1  1
 10 11  2  0
 10 12  1  0
 10 17  1  0
 11 13  1  0
 12 14  2  0
 13 15  2  0
 14 15  1  0
M  END
>  <DRUGBANK_ID>  (1) 
DB07077

>  <COMMON_NAME>  (1) 
(R)-1-(4-(4-(Hydroxymethyl)-1,3,2-dioxaborolan-2-YL)phenyl)guanidine

$$$$
