MUH
     RDKit          2D

 33 36  0  0  0  0  0  0  0  0999 V2000
    4.3178   -1.2454    0.0000 C   0  0  0  0  0  0  0  0  0  0  0  0
    3.6033   -1.6579    0.0000 C   0  0  0  0  0  0  0  0  0  0  0  0
    3.6033   -2.4829    0.0000 C   0  0  0  0  0  0  0  0  0  0  0  0
    4.3178   -2.8954    0.0000 C   0  0  0  0  0  0  0  0  0  0  0  0
    5.0323   -2.4829    0.0000 C   0  0  0  0  0  0  0  0  0  0  0  0
    5.0323   -1.6579    0.0000 C   0  0  0  0  0  0  0  0  0  0  0  0
    4.3178   -3.7204    0.0000 C   0  0  0  0  0  0  0  0  0  0  0  0
    4.3178   -0.4204    0.0000 N   0  0  0  0  0  0  0  0  0  0  0  0
    5.0323   -0.0079    0.0000 C   0  0  0  0  0  0  0  0  0  0  0  0
    4.3178    1.2296    0.0000 C   0  0  0  0  0  0  0  0  0  0  0  0
    5.0323    0.8171    0.0000 C   0  0  0  0  0  0  0  0  0  0  0  0
    5.7468    1.2296    0.0000 C   0  0  0  0  0  0  0  0  0  0  0  0
    5.7468    2.0546    0.0000 C   0  0  0  0  0  0  0  0  0  0  0  0
    5.0323    2.4671    0.0000 C   0  0  0  0  0  0  0  0  0  0  0  0
    4.3178    2.0546    0.0000 C   0  0  0  0  0  0  0  0  0  0  0  0
    6.4612    2.4671    0.0000 C   0  0  0  0  0  0  0  0  0  0  0  0
    7.1757    2.8796    0.0000 F   0  0  0  0  0  0  0  0  0  0  0  0
    6.0487    3.1816    0.0000 F   0  0  0  0  0  0  0  0  0  0  0  0
    6.8737    1.7526    0.0000 F   0  0  0  0  0  0  0  0  0  0  0  0
    2.8889   -2.8954    0.0000 N   0  0  0  0  0  0  0  0  0  0  0  0
    2.1744   -4.1329    0.0000 C   0  0  0  0  0  0  0  0  0  0  0  0
    2.1744   -4.9579    0.0000 C   0  0  0  0  0  0  0  0  0  0  0  0
    2.8889   -5.3704    0.0000 C   0  0  0  0  0  0  0  0  0  0  0  0
    3.6033   -4.9579    0.0000 C   0  0  0  0  0  0  0  0  0  0  0  0
    3.6033   -4.1329    0.0000 N   0  0  0  0  0  0  0  0  0  0  0  0
    2.8889   -3.7204    0.0000 C   0  0  0  0  0  0  0  0  0  0  0  0
    1.4599   -2.8954    0.0000 C   0  0  0  0  0  0  0  0  0  0  0  0
    0.7455   -2.4829    0.0000 C   0  0  0  0  0  0  0  0  0  0  0  0
    0.0310   -2.8954    0.0000 N   0  0  0  0  0  0  0  0  0  0  0  0
    0.0310   -3.7204    0.0000 C   0  0  0  0  0  0  0  0  0  0  0  0
    0.7455   -4.1329    0.0000 N   0  0  0  0  0  0  0  0  0  0  0  0
    1.4599   -3.7204    0.0000 C   0  0  0  0  0  0  0  0  0  0  0  0
    5.7468   -0.4204    0.0000 O   0  0  0  0  0  0  0  0  0  0  0  0
  1  8  1  0
  1  6  1  0
  1  2  2  0
  2  3  1  0
  3  4  2  0
  3 20  1  0
  4  5  1  0
  4  7  1  0
  5  6  2  0
  8  9  1  0
  9 11  1  0
  9 33  2  0
 10 15  2  0
 10 11  1  0
 11 12  2  0
 12 13  1  0
 13 14  2  0
 13 16  1  0
 14 15  1  0
 16 17  1  0
 16 18  1  0
 16 19  1  0
 20 26  1  0
 21 26  1  0
 21 32  1  0
 21 22  2  0
 22 23  1  0
 23 24  2  0
 24 25  1  0
 25 26  2  0
 27 32  2  0
 27 28  1  0
 28 29  2  0
 29 30  1  0
 30 31  2  0
 31 32  1  0
M  END
>  <DRUGBANK_ID>  (1) 
DB08221

>  <COMMON_NAME>  (1) 
N-{4-METHYL-3-[(3-PYRIMIDIN-4-YLPYRIDIN-2-YL)AMINO]PHENYL}-3-(TRIFLUOROMETHYL)BENZAMIDE

$$$$
