
     RDKit          2D

  8  6  0  0  0  0  0  0  0  0999 V2000
    2.1434    0.4125    0.0000 C   0  0  0  0  0  0  0  0  0  0  0  0
    1.4289    0.0000    0.0000 C   0  0  0  0  0  0  0  0  0  0  0  0
    2.8579    0.0000    0.0000 C   0  0  0  0  0  0  0  0  0  0  0  0
    0.7145    0.4125    0.0000 C   0  0  0  0  0  0  0  0  0  0  0  0
    3.5724    0.4125    0.0000 O   0  0  0  0  0  0  0  0  0  0  0  0
    0.7145    1.2375    0.0000 O   0  0  0  0  0  0  0  0  0  0  0  0
    0.0000    0.0000    0.0000 O   0  0  0  0  0  0  0  0  0  0  0  0
   -0.7145   -0.4125    0.0000 Na  0  0  0  0  0 15  0  0  0  0  0  0
  2  1  1  0
  3  1  1  0
  4  2  1  0
  5  3  1  0
  6  4  2  0
  7  4  1  0
M  CHG  2   7  -1   8   1
M  END
>  <DRUGBANK_ID>  (1) 
DB09072

>  <COMMON_NAME>  (1) 
Sodium oxybate

>  <CAS_NUMBER>  (1) 
502-85-2

>  <UNII>  (1) 
7G33012534

>  <SYNONYMS>  (1) 
Oxybate sodium; Sodium oxybate

$$$$
