LUG
     RDKit          2D

 26 28  0  0  0  0  0  0  0  0999 V2000
   -2.0544    2.9625    0.0000 F   0  0  0  0  0  0  0  0  0  0  0  0
   -2.0544    2.1375    0.0000 C   0  0  0  0  0  0  0  0  0  0  0  0
   -1.3399    1.7250    0.0000 C   0  0  0  0  0  0  0  0  0  0  0  0
   -0.6254    2.1375    0.0000 F   0  0  0  0  0  0  0  0  0  0  0  0
   -2.7688    1.7250    0.0000 C   0  0  0  0  0  0  0  0  0  0  0  0
   -2.7688    0.9000    0.0000 C   0  0  0  0  0  0  0  0  0  0  0  0
   -2.0544    0.4875    0.0000 C   0  0  0  0  0  0  0  0  0  0  0  0
   -2.0544   -0.3375    0.0000 C   0  0  0  0  0  0  0  0  0  0  0  0
   -2.7218   -0.8225    0.0000 N   0  0  0  0  0  0  0  0  0  0  0  0
   -2.4669   -1.6071    0.0000 N   0  0  0  0  0  0  0  0  0  0  0  0
   -1.6419   -1.6071    0.0000 C   0  0  0  0  0  0  0  0  0  0  0  0
   -1.1569   -2.2745    0.0000 N   0  0  0  0  0  0  0  0  0  0  0  0
   -1.4925   -3.0282    0.0000 C   0  0  0  0  0  0  0  0  0  0  0  0
   -1.0076   -3.6956    0.0000 C   0  0  0  0  0  0  0  0  0  0  0  0
   -1.3431   -4.4493    0.0000 N   0  0  0  0  0  0  0  0  0  0  0  0
   -1.3869   -0.8225    0.0000 O   0  0  0  0  0  0  0  0  0  0  0  0
   -1.3399    0.9000    0.0000 C   0  0  0  0  0  0  0  0  0  0  0  0
   -0.6254    0.4875    0.0000 N   0  0  0  0  0  0  0  0  0  0  0  0
    0.0890    0.9000    0.0000 C   0  0  0  0  0  0  0  0  0  0  0  0
    0.0890    1.7250    0.0000 C   0  0  0  0  0  0  0  0  0  0  0  0
    0.8035    2.1375    0.0000 C   0  0  0  0  0  0  0  0  0  0  0  0
    1.5180    1.7250    0.0000 C   0  0  0  0  0  0  0  0  0  0  0  0
    2.2325    2.1375    0.0000 I   0  0  0  0  0  0  0  0  0  0  0  0
    1.5180    0.9000    0.0000 C   0  0  0  0  0  0  0  0  0  0  0  0
    0.8035    0.4875    0.0000 C   0  0  0  0  0  0  0  0  0  0  0  0
    0.8035   -0.3375    0.0000 F   0  0  0  0  0  0  0  0  0  0  0  0
  1  2  1  0
  2  3  2  0
  2  5  1  0
  3  4  1  0
  3 17  1  0
  5  6  2  0
  6  7  1  0
  7  8  1  0
  7 17  2  0
  8  9  2  0
  8 16  1  0
  9 10  1  0
 10 11  2  0
 11 12  1  0
 11 16  1  0
 12 13  1  0
 13 14  1  0
 14 15  1  0
 17 18  1  0
 18 19  1  0
 19 20  2  0
 19 25  1  0
 20 21  1  0
 21 22  2  0
 22 23  1  0
 22 24  1  0
 24 25  2  0
 25 26  1  0
M  END
>  <DRUGBANK_ID>  (1) 
DB08130

>  <COMMON_NAME>  (1) 
N-(5-{3,4-difluoro-2-[(2-fluoro-4-iodophenyl)amino]phenyl}-1,3,4-oxadiazol-2-yl)ethane-1,2-diamine

$$$$
