C8C
     RDKit          2D

 19 21  0  0  0  0  0  0  0  0999 V2000
   41.1222   26.5873    0.0000 N   0  0  0  0  0  0  0  0  0  0  0  0
   40.4078   26.9998    0.0000 C   0  0  0  0  0  0  0  0  0  0  0  0
   39.6933   28.2373    0.0000 C   0  0  0  0  0  0  0  0  0  0  0  0
   38.9788   27.8248    0.0000 C   0  0  0  0  0  0  0  0  0  0  0  0
   38.9788   26.9998    0.0000 C   0  0  0  0  0  0  0  0  0  0  0  0
   38.2644   26.5873    0.0000 C   0  0  0  0  0  0  0  0  0  0  0  0
   38.2644   25.7623    0.0000 C   0  0  0  0  0  0  0  0  0  0  0  0
   37.5499   25.3498    0.0000 C   0  0  0  0  0  0  0  0  0  0  0  0
   37.5499   24.5248    0.0000 C   0  0  0  0  0  0  0  0  0  0  0  0
   36.8354   24.1123    0.0000 C   0  0  0  0  0  0  0  0  0  0  0  0
   36.1209   24.5248    0.0000 C   0  0  0  0  0  0  0  0  0  0  0  0
   35.3363   24.2698    0.0000 C   0  0  0  0  0  0  0  0  0  0  0  0
   34.8514   24.9373    0.0000 C   0  0  0  0  0  0  0  0  0  0  0  0
   35.3363   25.6047    0.0000 N   0  0  0  0  0  0  0  0  0  0  0  0
   36.1209   25.3498    0.0000 C   0  0  0  0  0  0  0  0  0  0  0  0
   36.8354   25.7623    0.0000 C   0  0  0  0  0  0  0  0  0  0  0  0
   39.6933   26.5873    0.0000 N   0  0  0  0  0  0  0  0  0  0  0  0
   40.4078   27.8248    0.0000 N   0  0  0  0  0  0  0  0  0  0  0  0
   39.6933   29.0623    0.0000 O   0  0  0  0  0  0  0  0  0  0  0  0
  1  2  1  0
  2 17  2  0
  2 18  1  0
  3  4  1  0
  3 18  1  0
  3 19  2  0
  4  5  2  0
  5  6  1  0
  5 17  1  0
  6  7  1  0
  7  8  1  0
  8  9  2  0
  8 16  1  0
  9 10  1  0
 10 11  2  0
 11 12  1  0
 11 15  1  0
 12 13  2  0
 13 14  1  0
 14 15  1  0
 15 16  2  0
M  END
>  <DRUGBANK_ID>  (1) 
DB07535

>  <COMMON_NAME>  (1) 
2-amino-6-[2-(1H-indol-6-yl)ethyl]pyrimidin-4(3H)-one

>  <UNII>  (1) 
O6FBI5EK8D

$$$$
