
     RDKit          2D

 27 27  0  0  1  0  0  0  0  0999 V2000
    5.9503   -8.4756    0.0000 C   0  0  0  0  0  0  0  0  0  0  0  0
    5.3558   -7.9036    0.0000 C   0  0  0  0  0  0  0  0  0  0  0  0
    4.5631   -8.1324    0.0000 C   0  0  0  0  0  0  0  0  0  0  0  0
    5.5539   -7.1028    0.0000 C   0  0  0  0  0  0  0  0  0  0  0  0
    4.9595   -6.5307    0.0000 O   0  0  0  0  0  0  0  0  0  0  0  0
    4.1668   -6.7595    0.0000 C   0  0  0  0  0  0  0  0  0  0  0  0
    3.9687   -7.5604    0.0000 O   0  0  0  0  0  0  0  0  0  0  0  0
    3.5724   -6.1875    0.0000 C   0  0  0  0  0  0  0  0  0  0  0  0
    2.7797   -6.4163    0.0000 C   0  0  0  0  0  0  0  0  0  0  0  0
    3.7705   -5.3867    0.0000 C   0  0  0  0  0  0  0  0  0  0  0  0
    6.3466   -6.8739    0.0000 O   0  0  0  0  0  0  0  0  0  0  0  0
    6.9411   -7.4460    0.0000 C   0  0  0  0  0  0  0  0  0  0  0  0
    6.7429   -8.2468    0.0000 O   0  0  0  0  0  0  0  0  0  0  0  0
    7.7337   -7.2172    0.0000 N   0  0  0  0  0  0  0  0  0  0  0  0
    8.3282   -7.7892    0.0000 C   0  0  0  0  0  0  0  0  0  0  0  0
    9.1208   -7.5604    0.0000 C   0  0  0  0  0  0  0  0  0  0  0  0
    9.3190   -6.7595    0.0000 C   0  0  0  0  0  0  0  0  0  0  0  0
    8.7245   -6.1875    0.0000 C   0  0  0  0  0  0  0  0  0  0  0  0
    7.9318   -6.4163    0.0000 O   0  0  0  0  0  0  0  0  0  0  0  0
    8.9226   -5.3867    0.0000 O   0  0  0  0  0  0  0  0  0  0  0  0
    9.7153   -8.1324    0.0000 C   0  0  0  0  0  0  0  0  0  0  0  0
   10.5079   -7.9036    0.0000 C   0  0  0  0  0  0  0  0  0  0  0  0
   11.1024   -8.4756    0.0000 C   0  0  0  0  0  0  0  0  0  0  0  0
   10.9042   -9.2765    0.0000 C   0  0  0  0  0  0  0  0  0  0  0  0
   10.1116   -9.5053    0.0000 C   0  0  0  0  0  0  0  0  0  0  0  0
    9.5171   -8.9333    0.0000 C   0  0  0  0  0  0  0  0  0  0  0  0
   11.4987   -9.8485    0.0000 Cl  0  0  0  0  0  0  0  0  0  0  0  0
  1  2  1  0
  2  3  1  0
  2  4  1  0
  4  5  1  1
  4 11  1  0
  5  6  1  0
  6  7  2  0
  6  8  1  0
  8  9  1  0
  8 10  1  0
 11 12  1  0
 12 13  2  0
 12 14  1  0
 14 15  1  0
 16 15  1  6
 16 17  1  0
 16 21  1  0
 17 18  1  0
 18 19  2  0
 18 20  1  0
 21 22  2  0
 21 26  1  0
 22 23  1  0
 23 24  2  0
 24 25  1  0
 24 27  1  0
 25 26  2  0
M  END
>  <DRUGBANK_ID>  (1) 
DB08892

>  <SECONDARY_ACCESSION_NUMBERS>  (1) 
DB05031

>  <COMMON_NAME>  (1) 
Arbaclofen Placarbil

>  <CAS_NUMBER>  (1) 
847353-30-4

>  <UNII>  (1) 
W89H91R7VX

>  <SYNONYMS>  (1) 
Arbaclofen Placarbil; XP19986

$$$$
