263
     RDKit          2D

 18 19  0  0  0  0  0  0  0  0999 V2000
    2.4751    0.6631    0.0000 S   0  0  0  0  0  0  0  0  0  0  0  0
    3.2758    2.7212    0.0000 O   0  0  0  0  0  0  0  0  0  0  0  0
    1.6500    0.6631    0.0000 O   0  0  0  0  0  0  0  0  0  0  0  0
    3.3001    0.6631    0.0000 O   0  0  0  0  0  0  0  0  0  0  0  0
    2.4751    1.4882    0.0000 N   0  0  0  0  0  0  0  0  0  0  0  0
    4.0828    2.8927    0.0000 N   0  0  0  0  0  0  0  0  0  0  0  0
    2.4751   -2.6369    0.0000 N   0  0  0  0  0  0  0  0  0  0  0  0
    2.4751   -0.1619    0.0000 C   0  0  0  0  0  0  0  0  0  0  0  0
    3.1895    1.9007    0.0000 C   0  0  0  0  0  0  0  0  0  0  0  0
    3.9433    1.5651    0.0000 C   0  0  0  0  0  0  0  0  0  0  0  0
    4.4953    2.1782    0.0000 C   0  0  0  0  0  0  0  0  0  0  0  0
    1.7606   -0.5744    0.0000 C   0  0  0  0  0  0  0  0  0  0  0  0
    3.1895   -0.5744    0.0000 C   0  0  0  0  0  0  0  0  0  0  0  0
    4.1148    0.7581    0.0000 C   0  0  0  0  0  0  0  0  0  0  0  0
    1.7606   -1.3994    0.0000 C   0  0  0  0  0  0  0  0  0  0  0  0
    3.1895   -1.3994    0.0000 C   0  0  0  0  0  0  0  0  0  0  0  0
    2.4751   -1.8119    0.0000 C   0  0  0  0  0  0  0  0  0  0  0  0
    5.3158    2.0920    0.0000 C   0  0  0  0  0  0  0  0  0  0  0  0
  1  3  2  0
  1  4  2  0
  1  5  1  0
  1  8  1  0
  2  6  1  0
  2  9  1  0
  5  9  1  0
  6 11  2  0
  7 17  1  0
  8 12  2  0
  8 13  1  0
  9 10  2  0
 10 11  1  0
 10 14  1  0
 11 18  1  0
 12 15  1  0
 13 16  2  0
 15 17  2  0
 16 17  1  0
M  END
>  <DRUGBANK_ID>  (1) 
DB00263

>  <SECONDARY_ACCESSION_NUMBERS>  (1) 
APRD00595

>  <COMMON_NAME>  (1) 
Sulfisoxazole

>  <CAS_NUMBER>  (1) 
127-69-5

>  <UNII>  (1) 
740T4C525W

>  <SYNONYMS>  (1) 
3,4-Dimethyl-5-sulfanilamidoisoxazole; 3,4-Dimethyl-5-sulfonamidoisoxazole; 3,4-Dimethyl-5-sulphanilamidoisoxazole; 3,4-Dimethyl-5-sulphonamidoisoxazole; 3,4-Dimethylisoxazole-5-sulfanilamide; 3,4-Dimethylisoxazole-5-sulphanilamide; 4-Amino-N-(3,4-dimethyl-5-isoxazolyl)benzenesulfonamide; 4-Amino-N-(3,4-dimethyl-5-isoxazolyl)benzenesulphonamide; 5-(4-Aminophenylsulfonamido)-3,4-dimethylisoxazole; 5-(p-Aminobenzenesulfonamido)-3,4-dimethylisoxazole; 5-(p-Aminobenzenesulphonamido)-3,4-dimethylisoxazole; 5-Sulfanilamido-3,4-dimethylisoxazole; 5-Sulphanilamido-3,4-dimethyl-isoxazole; N'-(3,4)Dimethylisoxazol-5-yl-sulphanilamide; N1-(3,4-dimethyl-5-isoxazolyl)sulfanilamide; N1-(3,4-dimethyl-5-isoxazolyl)sulphanilamide; Sulfadimethylisoxazole; Sulfafurazol; Sulfafurazole; Sulfafurazolum; Sulfaisoxazole; Sulfasoxazole; Sulfisonazole; Sulfisoxasole; Sulfisoxazol; Sulfisoxazole; Sulfofurazole; Sulphadimethylisoxazole; Sulphafurazol; Sulphafurazole; Sulphaisoxazole; Sulphisoxazol; Sulphofurazole

$$$$
