APQ
     RDKit          2D

 18 19  0  0  0  0  0  0  0  0999 V2000
   -1.8569    0.1229    0.0000 C   0  0  0  0  0  0  0  0  0  0  0  0
   -2.5713   -0.2896    0.0000 C   0  0  0  0  0  0  0  0  0  0  0  0
   -3.2858    0.1229    0.0000 C   0  0  0  0  0  0  0  0  0  0  0  0
   -1.1424   -0.2896    0.0000 S   0  0  0  0  0  0  0  0  0  0  0  0
   -0.4279    0.1229    0.0000 C   0  0  0  0  0  0  0  0  0  0  0  0
    0.2866   -0.2896    0.0000 C   0  0  0  0  0  0  0  0  0  0  0  0
    1.0010    0.1229    0.0000 C   0  0  0  0  0  0  0  0  0  0  0  0
    1.0010    0.9479    0.0000 N   0  0  0  0  0  0  0  0  0  0  0  0
    1.7155    1.3604    0.0000 C   0  0  0  0  0  0  0  0  0  0  0  0
    2.4300    0.9479    0.0000 N   0  0  0  0  0  0  0  0  0  0  0  0
    2.4300    0.1229    0.0000 C   0  0  0  0  0  0  0  0  0  0  0  0
    3.1444   -0.2896    0.0000 O   0  0  0  0  0  0  0  0  0  0  0  0
    1.7155   -0.2896    0.0000 C   0  0  0  0  0  0  0  0  0  0  0  0
    1.7155   -1.1146    0.0000 C   0  0  0  0  0  0  0  0  0  0  0  0
    1.0010   -1.5271    0.0000 C   0  0  0  0  0  0  0  0  0  0  0  0
    1.0010   -2.3521    0.0000 N   0  0  0  0  0  0  0  0  0  0  0  0
    0.2866   -1.1146    0.0000 C   0  0  0  0  0  0  0  0  0  0  0  0
    1.7155    2.1854    0.0000 N   0  0  0  0  0  0  0  0  0  0  0  0
  1  2  1  0
  1  4  1  0
  2  3  1  0
  4  5  1  0
  5  6  1  0
  6  7  2  0
  6 17  1  0
  7  8  1  0
  7 13  1  0
  8  9  2  0
  9 10  1  0
  9 18  1  0
 10 11  1  0
 11 12  2  0
 11 13  1  0
 13 14  2  0
 14 15  1  0
 15 16  1  0
 15 17  2  0
M  END
>  <DRUGBANK_ID>  (1) 
DB02599

>  <SECONDARY_ACCESSION_NUMBERS>  (1) 
EXPT00543

>  <COMMON_NAME>  (1) 
2,6-Diamino-8-Propylsulfanylmethyl-3h-Quinazoline-4-One

$$$$
