
     RDKit          2D

 19 18  0  0  0  0  0  0  0  0999 V2000
    9.2368   -2.0329    0.0000 C   0  0  0  0  0  0  0  0  0  0  0  0
    9.2368   -2.8579    0.0000 N   0  0  0  0  0  0  0  0  0  0  0  0
    8.5224   -3.2704    0.0000 C   0  0  0  0  0  0  0  0  0  0  0  0
    7.8079   -2.8579    0.0000 C   0  0  0  0  0  0  0  0  0  0  0  0
    7.0934   -3.2704    0.0000 O   0  0  0  0  0  0  0  0  0  0  0  0
    6.3789   -2.8579    0.0000 P   0  0  0  0  0  0  0  0  0  0  0  0
    5.9664   -3.5724    0.0000 O   0  0  0  0  0  0  0  0  0  0  0  0
    6.7914   -2.1434    0.0000 O   0  0  0  0  0  0  0  0  0  0  0  0
    5.6645   -2.4454    0.0000 O   0  0  0  0  0  0  0  0  0  0  0  0
    4.9500   -2.8579    0.0000 P   0  0  0  0  0  0  0  0  0  0  0  0
    4.2355   -3.2704    0.0000 O   0  0  0  0  0  0  0  0  0  0  0  0
    5.3625   -3.5724    0.0000 O   0  0  0  0  0  0  0  0  0  0  0  0
    4.5375   -2.1434    0.0000 O   0  0  0  0  0  0  0  0  0  0  0  0
    9.9513   -3.2704    0.0000 C   0  0  0  0  0  0  0  0  0  0  0  0
   10.6658   -2.8579    0.0000 C   0  0  0  0  0  0  0  0  0  0  0  0
   11.3802   -3.2704    0.0000 C   0  0  0  0  0  0  0  0  0  0  0  0
   12.0947   -2.8579    0.0000 C   0  0  0  0  0  0  0  0  0  0  0  0
   12.0947   -2.0329    0.0000 C   0  0  0  0  0  0  0  0  0  0  0  0
   12.8092   -3.2704    0.0000 C   0  0  0  0  0  0  0  0  0  0  0  0
  1  2  1  0
  2  3  1  0
  2 14  1  0
  3  4  1  0
  4  5  1  0
  6  5  1  0
  6  7  1  6
  6  8  2  0
  6  9  1  0
  9 10  1  0
 10 11  1  0
 10 12  1  0
 10 13  2  0
 14 15  1  0
 15 16  1  0
 16 17  2  3
 17 18  1  0
 17 19  1  0
M  CHG  3   7  -1  11  -1  12  -1
M  END
>  <DRUGBANK_ID>  (1) 
DB02369

>  <SECONDARY_ACCESSION_NUMBERS>  (1) 
EXPT00160

>  <COMMON_NAME>  (1) 
3-Aza-2,3-Dihydrogeranyl Diphosphate

$$$$
