
     RDKit          2D

 28 29  0  0  0  0  0  0  0  0999 V2000
   -5.7168    0.6198    0.0000 C   0  0  0  0  0  0  0  0  0  0  0  0
   -5.7168   -0.2065    0.0000 C   0  0  0  0  0  0  0  0  0  0  0  0
   -5.0021   -0.6196    0.0000 C   0  0  0  0  0  0  0  0  0  0  0  0
   -4.2887   -0.2065    0.0000 C   0  0  0  0  0  0  0  0  0  0  0  0
   -4.2887    0.6198    0.0000 C   0  0  0  0  0  0  0  0  0  0  0  0
   -5.0021    1.0315    0.0000 C   0  0  0  0  0  0  0  0  0  0  0  0
   -3.5739   -0.6196    0.0000 O   0  0  0  0  0  0  0  0  0  0  0  0
   -2.8604   -0.2065    0.0000 C   0  0  0  0  0  0  0  0  0  0  0  0
   -2.8604    0.6198    0.0000 C   0  0  0  0  0  0  0  0  0  0  0  0
   -3.5739    1.0315    0.0000 C   0  0  0  0  0  0  0  0  0  0  0  0
   -2.1457   -0.6184    0.0000 C   0  0  0  0  0  0  0  0  0  0  0  0
   -1.4309   -0.2065    0.0000 C   0  0  0  0  0  0  0  0  0  0  0  0
   -0.7161   -0.6184    0.0000 C   0  0  0  0  0  0  0  0  0  0  0  0
   -0.0012   -0.2065    0.0000 C   0  0  0  0  0  0  0  0  0  0  0  0
    0.7134   -0.6184    0.0000 C   0  0  0  0  0  0  0  0  0  0  0  0
    1.4282   -0.2065    0.0000 C   0  0  0  0  0  0  0  0  0  0  0  0
    2.1429   -0.6184    0.0000 C   0  0  0  0  0  0  0  0  0  0  0  0
    2.8578   -0.2065    0.0000 C   0  0  0  0  0  0  0  0  0  0  0  0
    3.5726   -0.6184    0.0000 C   0  0  0  0  0  0  0  0  0  0  0  0
    4.2874   -0.2065    0.0000 C   0  0  0  0  0  0  0  0  0  0  0  0
    5.0022   -0.6184    0.0000 C   0  0  0  0  0  0  0  0  0  0  0  0
    5.7169   -0.2065    0.0000 C   0  0  0  0  0  0  0  0  0  0  0  0
    6.4317   -0.6184    0.0000 C   0  0  0  0  0  0  0  0  0  0  0  0
   -0.0012    0.6198    0.0000 C   0  0  0  0  0  0  0  0  0  0  0  0
    2.8578    0.6198    0.0000 C   0  0  0  0  0  0  0  0  0  0  0  0
    5.7169    0.6198    0.0000 C   0  0  0  0  0  0  0  0  0  0  0  0
   -2.8604   -1.0329    0.0000 C   0  0  0  0  0  0  0  0  0  0  0  0
   -6.4317    1.0329    0.0000 O   0  0  0  0  0  0  0  0  0  0  0  0
  1  2  2  0
  1  6  1  0
  1 28  1  0
  2  3  1  0
  3  4  2  0
  4  5  1  0
  4  7  1  0
  5  6  2  0
  5 10  1  0
  7  8  1  0
  8  9  1  0
  8 11  1  0
  8 27  1  0
  9 10  1  0
 11 12  1  0
 12 13  1  0
 13 14  2  0
 14 15  1  0
 14 24  1  0
 15 16  1  0
 16 17  1  0
 17 18  2  0
 18 19  1  0
 18 25  1  0
 19 20  1  0
 20 21  1  0
 21 22  2  3
 22 23  1  0
 22 26  1  0
M  END
>  <DRUGBANK_ID>  (1) 
DB12647

>  <COMMON_NAME>  (1) 
Tocotrienol

>  <CAS_NUMBER>  (1) 
6829-55-6

>  <UNII>  (1) 
0867I0N41V

$$$$
