ML2
     RDKit          2D

 18 19  0  0  0  0  0  0  0  0999 V2000
   -0.6764   -0.6727    0.0000 C   0  0  0  0  0  0  0  0  0  0  0  0
   -1.8959   -0.1297    0.0000 C   0  0  0  0  0  0  0  0  0  0  0  0
   -2.7029    0.0418    0.0000 C   0  0  0  0  0  0  0  0  0  0  0  0
   -2.9578    0.8264    0.0000 C   0  0  0  0  0  0  0  0  0  0  0  0
   -3.4677    2.3957    0.0000 C   0  0  0  0  0  0  0  0  0  0  0  0
   -0.5902    0.1478    0.0000 C   0  0  0  0  0  0  0  0  0  0  0  0
    0.1243    0.5603    0.0000 C   0  0  0  0  0  0  0  0  0  0  0  0
    1.5532    0.5603    0.0000 N   0  0  0  0  0  0  0  0  0  0  0  0
    2.2677    0.1478    0.0000 C   0  0  0  0  0  0  0  0  0  0  0  0
    2.9822    0.5603    0.0000 C   0  0  0  0  0  0  0  0  0  0  0  0
   -0.0633   -1.2247    0.0000 I   0  0  0  0  0  0  0  0  0  0  0  0
   -1.4834   -0.8442    0.0000 N   0  0  0  0  0  0  0  0  0  0  0  0
   -2.4058    1.4395    0.0000 C   0  0  0  0  0  0  0  0  0  0  0  0
   -2.6607    2.2241    0.0000 O   0  0  0  0  0  0  0  0  0  0  0  0
   -1.5988    1.2680    0.0000 C   0  0  0  0  0  0  0  0  0  0  0  0
   -1.3439    0.4834    0.0000 C   0  0  0  0  0  0  0  0  0  0  0  0
    0.8387    0.1478    0.0000 C   0  0  0  0  0  0  0  0  0  0  0  0
    2.2677   -0.6772    0.0000 O   0  0  0  0  0  0  0  0  0  0  0  0
  1 12  1  0
  2  3  2  0
  4  3  1  0
  6  1  2  0
  6 16  1  0
  7 17  1  0
  7  6  1  0
  8 17  1  0
  9  8  1  0
  9 18  2  0
 10  9  1  0
 11  1  1  0
 12  2  1  0
 13  4  2  0
 14 13  1  0
 14  5  1  0
 15 16  2  0
 15 13  1  0
 16  2  1  0
M  END
>  <DRUGBANK_ID>  (1) 
DB08190

>  <COMMON_NAME>  (1) 
N-[2-(2-iodo-5-methoxy-1H-indol-3-yl)ethyl]acetamide

>  <UNII>  (1) 
2Q5TZ5754A

$$$$
