
     RDKit          2D

  9  8  0  0  0  0  0  0  0  0999 V2000
    1.7143   -0.2571    0.0000 C   0  0  0  0  0  0  0  0  0  0  0  0
    0.9821    0.1722    0.0000 C   0  0  0  0  0  0  0  0  0  0  0  0
    0.3123   -0.2223    0.0000 S   0  0  0  0  0  0  0  0  0  0  0  0
   -0.4185    0.2070    0.0000 S   0  0  0  0  0  0  0  0  0  0  0  0
   -1.1708   -0.1854    0.0000 C   0  0  0  0  0  0  0  0  0  0  0  0
   -1.8204    0.2419    0.0000 C   0  0  0  0  0  0  0  0  0  0  0  0
    0.3123   -1.0474    0.0000 O   0  0  0  0  0  0  0  0  0  0  0  0
   -2.5514   -0.1406    0.0000 C   0  0  0  0  0  0  0  0  0  0  0  0
    2.4352    0.1441    0.0000 C   0  0  0  0  0  0  0  0  0  0  0  0
  1  2  1  0
  1  9  2  0
  2  3  1  0
  3  4  1  0
  3  7  2  0
  4  5  1  0
  5  6  1  0
  6  8  2  0
M  END
>  <DRUGBANK_ID>  (1) 
DB11780

>  <COMMON_NAME>  (1) 
Allicin

>  <CAS_NUMBER>  (1) 
539-86-6

>  <UNII>  (1) 
3C39BY17Y6

$$$$
