
     RDKit          2D

 33 37  0  0  0  0  0  0  0  0999 V2000
   -2.1434   -1.8562    0.0000 C   0  0  0  0  0  0  0  0  0  0  0  0
   -5.0012    1.4437    0.0000 C   0  0  0  0  0  0  0  0  0  0  0  0
   -5.0012    0.6187    0.0000 C   0  0  0  0  0  0  0  0  0  0  0  0
   -4.2868    1.8562    0.0000 C   0  0  0  0  0  0  0  0  0  0  0  0
    2.1434   -1.0312    0.0000 C   0  0  0  0  0  0  0  0  0  0  0  0
    1.4289    0.2062    0.0000 C   0  0  0  0  0  0  0  0  0  0  0  0
    2.8578   -0.6187    0.0000 C   0  0  0  0  0  0  0  0  0  0  0  0
    2.1434    0.6187    0.0000 C   0  0  0  0  0  0  0  0  0  0  0  0
    4.2868    0.2062    0.0000 C   0  0  0  0  0  0  0  0  0  0  0  0
    3.5723    1.4437    0.0000 C   0  0  0  0  0  0  0  0  0  0  0  0
    5.0012    0.6187    0.0000 C   0  0  0  0  0  0  0  0  0  0  0  0
    4.2868    1.8562    0.0000 C   0  0  0  0  0  0  0  0  0  0  0  0
   -2.1434    0.6187    0.0000 C   0  0  0  0  0  0  0  0  0  0  0  0
   -0.7144    0.6187    0.0000 C   0  0  0  0  0  0  0  0  0  0  0  0
   -1.4289    0.2062    0.0000 C   0  0  0  0  0  0  0  0  0  0  0  0
    1.4289   -0.6187    0.0000 C   0  0  0  0  0  0  0  0  0  0  0  0
    2.8578    0.2062    0.0000 C   0  0  0  0  0  0  0  0  0  0  0  0
   -2.8578    0.2062    0.0000 C   0  0  0  0  0  0  0  0  0  0  0  0
   -4.2868    0.2062    0.0000 C   0  0  0  0  0  0  0  0  0  0  0  0
   -3.5723    1.4437    0.0000 C   0  0  0  0  0  0  0  0  0  0  0  0
   -3.5723    0.6187    0.0000 C   0  0  0  0  0  0  0  0  0  0  0  0
   -1.4289   -0.6187    0.0000 C   0  0  0  0  0  0  0  0  0  0  0  0
   -2.8578   -0.6187    0.0000 C   0  0  0  0  0  0  0  0  0  0  0  0
    0.0000   -0.6187    0.0000 C   0  0  0  0  0  0  0  0  0  0  0  0
   -4.2868   -0.6187    0.0000 Cl  0  0  0  0  0  0  0  0  0  0  0  0
   -2.8578    1.8562    0.0000 Cl  0  0  0  0  0  0  0  0  0  0  0  0
    0.0000    0.2062    0.0000 N   0  0  0  0  0  0  0  0  0  0  0  0
    0.7144   -1.0312    0.0000 N   0  0  0  0  0  0  0  0  0  0  0  0
   -0.7144   -1.0312    0.0000 N   0  0  0  0  0  0  0  0  0  0  0  0
   -2.1434   -1.0312    0.0000 N   0  0  0  0  0  0  0  0  0  0  0  0
    3.5723    0.6187    0.0000 N   0  0  0  0  0  0  0  0  0  0  0  0
   -3.5723   -1.0312    0.0000 O   0  0  0  0  0  0  0  0  0  0  0  0
    5.0012    1.4437    0.0000 O   0  0  0  0  0  0  0  0  0  0  0  0
  3  2  2  0
  4  2  1  0
  7  5  2  0
  8  6  1  0
 11  9  1  0
 12 10  1  0
 15 13  1  0
 15 14  2  0
 16  5  1  0
 16  6  2  0
 17  7  1  0
 17  8  2  0
 18 13  2  0
 19  3  1  0
 20  4  2  0
 21 18  1  0
 21 19  2  0
 21 20  1  0
 22 15  1  0
 23 18  1  0
 25 19  1  0
 26 20  1  0
 27 14  1  0
 27 24  1  0
 28 16  1  0
 28 24  2  3
 29 22  2  0
 29 24  1  0
 30  1  1  0
 30 22  1  0
 30 23  1  0
 31  9  1  0
 31 10  1  0
 31 17  1  0
 32 23  2  0
 33 11  1  0
 33 12  1  0
M  END
>  <DRUGBANK_ID>  (1) 
DB17041

>  <COMMON_NAME>  (1) 
PD-173952

>  <CAS_NUMBER>  (1) 
305820-75-1

>  <UNII>  (1) 
85GA4ESY8J

$$$$
