DR4
     RDKit          2D

 24 24  0  0  0  0  0  0  0  0999 V2000
   -5.9724    0.1051    0.0000 C   0  0  0  0  0  0  0  0  0  0  0  0
   -5.2579    0.5176    0.0000 O   0  0  0  0  0  0  0  0  0  0  0  0
   -4.5433    0.1051    0.0000 C   0  0  0  0  0  0  0  0  0  0  0  0
   -4.5433   -0.7200    0.0000 O   0  0  0  0  0  0  0  0  0  0  0  0
   -3.8289    0.5176    0.0000 C   0  0  0  0  0  0  0  0  0  0  0  0
   -3.1143    0.1051    0.0000 C   0  0  0  0  0  0  0  0  0  0  0  0
   -2.3998    0.5176    0.0000 C   0  0  0  0  0  0  0  0  0  0  0  0
   -1.6852    0.1051    0.0000 C   0  0  0  0  0  0  0  0  0  0  0  0
   -0.9708    0.5176    0.0000 C   0  0  0  0  0  0  0  0  0  0  0  0
   -0.2562    0.1051    0.0000 C   0  0  0  0  0  0  0  0  0  0  0  0
    0.4583    0.5176    0.0000 C   0  0  0  0  0  0  0  0  0  0  0  0
    1.1728    0.1051    0.0000 C   0  0  0  0  0  0  0  0  0  0  0  0
    1.8873    0.5176    0.0000 O   0  0  0  0  0  0  0  0  0  0  0  0
    2.6019    0.1051    0.0000 C   0  0  0  0  0  0  0  0  0  0  0  0
    3.3164    0.5176    0.0000 O   0  0  0  0  0  0  0  0  0  0  0  0
    4.0309    0.1051    0.0000 C   0  0  0  0  0  0  0  0  0  0  0  0
    4.7455    0.5176    0.0000 C   0  0  0  0  0  0  0  0  0  0  0  0
    4.7455    1.3427    0.0000 O   0  0  0  0  0  0  0  0  0  0  0  0
    4.0309   -0.7200    0.0000 C   0  0  0  0  0  0  0  0  0  0  0  0
    4.7455   -1.1325    0.0000 O   0  0  0  0  0  0  0  0  0  0  0  0
    3.3164   -1.1325    0.0000 C   0  0  0  0  0  0  0  0  0  0  0  0
    3.3164   -1.9575    0.0000 O   0  0  0  0  0  0  0  0  0  0  0  0
    2.6019   -0.7200    0.0000 C   0  0  0  0  0  0  0  0  0  0  0  0
    1.8873   -1.1325    0.0000 O   0  0  0  0  0  0  0  0  0  0  0  0
  1  2  1  0
  2  3  1  0
  3  4  2  0
  3  5  1  0
  5  6  1  0
  6  7  1  0
  7  8  1  0
  8  9  1  0
  9 10  1  0
 10 11  1  0
 11 12  1  0
 12 13  1  0
 14 13  1  6
 14 15  1  0
 14 23  1  0
 15 16  1  0
 16 17  1  6
 16 19  1  0
 17 18  1  0
 19 20  1  6
 19 21  1  0
 21 22  1  6
 21 23  1  0
 23 24  1  1
M  END
>  <DRUGBANK_ID>  (1) 
DB04680

>  <COMMON_NAME>  (1) 
GALACTOSE GREASE

$$$$
