
     RDKit          2D

 30 34  0  0  0  0  0  0  0  0999 V2000
    5.4957   -3.9979    0.0000 O   0  0  0  0  0  0  0  0  0  0  0  0
    5.4957   -4.8229    0.0000 N   0  0  0  0  0  0  0  0  0  0  0  0
    4.7812   -5.2354    0.0000 C   0  0  0  0  0  0  0  0  0  0  0  0
    4.0668   -4.8229    0.0000 C   0  0  0  0  0  0  0  0  0  0  0  0
    3.3523   -5.2354    0.0000 C   0  0  0  0  0  0  0  0  0  0  0  0
    3.3523   -6.0604    0.0000 O   0  0  0  0  0  0  0  0  0  0  0  0
    4.0668   -6.4729    0.0000 C   0  0  0  0  0  0  0  0  0  0  0  0
    4.7812   -6.0604    0.0000 C   0  0  0  0  0  0  0  0  0  0  0  0
    5.4957   -6.4729    0.0000 C   0  0  0  0  0  0  0  0  0  0  0  0
    5.4957   -7.2979    0.0000 C   0  0  0  0  0  0  0  0  0  0  0  0
    6.2102   -7.7104    0.0000 C   0  0  0  0  0  0  0  0  0  0  0  0
    6.2102   -8.5354    0.0000 C   0  0  0  0  0  0  0  0  0  0  0  0
    6.9246   -8.9479    0.0000 C   0  0  0  0  0  0  0  0  0  0  0  0
    6.9246   -9.7729    0.0000 N   0  0  0  0  0  0  0  0  0  0  0  0
    7.6391  -10.1854    0.0000 C   0  0  0  0  0  0  0  0  0  0  0  0
    7.6391  -11.0104    0.0000 C   0  0  0  0  0  0  0  0  0  0  0  0
    6.9246  -11.4229    0.0000 O   0  0  0  0  0  0  0  0  0  0  0  0
    6.2102  -11.0104    0.0000 C   0  0  0  0  0  0  0  0  0  0  0  0
    6.2102  -10.1854    0.0000 C   0  0  0  0  0  0  0  0  0  0  0  0
    4.7812   -7.7104    0.0000 C   0  0  0  0  0  0  0  0  0  0  0  0
    4.0668   -7.2979    0.0000 C   0  0  0  0  0  0  0  0  0  0  0  0
    2.6378   -4.8229    0.0000 C   0  0  0  0  0  0  0  0  0  0  0  0
    1.9233   -5.2354    0.0000 C   0  0  0  0  0  0  0  0  0  0  0  0
    1.2089   -4.8229    0.0000 C   0  0  0  0  0  0  0  0  0  0  0  0
    1.2089   -3.9979    0.0000 C   0  0  0  0  0  0  0  0  0  0  0  0
    0.4243   -3.7430    0.0000 C   0  0  0  0  0  0  0  0  0  0  0  0
   -0.0607   -4.4104    0.0000 C   0  0  0  0  0  0  0  0  0  0  0  0
    0.4243   -5.0779    0.0000 S   0  0  0  0  0  0  0  0  0  0  0  0
    1.9233   -3.5854    0.0000 C   0  0  0  0  0  0  0  0  0  0  0  0
    2.6378   -3.9979    0.0000 N   0  0  0  0  0  0  0  0  0  0  0  0
  1  2  1  0
  2  3  2  0
  3  4  1  0
  3  8  1  0
  4  5  2  0
  5  6  1  0
  5 22  1  0
  6  7  1  0
  7  8  2  0
  7 21  1  0
  8  9  1  0
  9 10  2  0
 10 11  1  0
 10 20  1  0
 11 12  1  0
 12 13  1  0
 13 14  1  0
 14 15  1  0
 14 19  1  0
 15 16  1  0
 16 17  1  0
 17 18  1  0
 18 19  1  0
 20 21  2  0
 22 23  2  0
 22 30  1  0
 23 24  1  0
 24 25  2  0
 24 28  1  0
 25 26  1  0
 25 29  1  0
 26 27  2  0
 27 28  1  0
 29 30  2  0
M  END
>  <DRUGBANK_ID>  (1) 
DB15292

>  <COMMON_NAME>  (1) 
Foliglurax

>  <CAS_NUMBER>  (1) 
1883329-53-0

>  <UNII>  (1) 
FR50CP1D6W

>  <SYNONYMS>  (1) 
Foliglurax

$$$$
