
     RDKit          2D

 32 34  0  0  0  0  0  0  0  0999 V2000
    2.8998    2.2213    0.0000 C   0  0  0  0  0  0  0  0  0  0  0  0
    2.1673    0.9944    0.0000 N   0  0  0  0  0  0  0  0  0  0  0  0
    2.8877    1.3964    0.0000 C   0  0  0  0  0  0  0  0  0  0  0  0
    3.5961    0.9735    0.0000 C   0  0  0  0  0  0  0  0  0  0  0  0
    4.3166    1.3755    0.0000 C   0  0  0  0  0  0  0  0  0  0  0  0
    5.0249    0.9525    0.0000 C   0  0  0  0  0  0  0  0  0  0  0  0
    5.7454    1.3546    0.0000 O   0  0  0  0  0  0  0  0  0  0  0  0
    5.0128    0.1277    0.0000 O   0  0  0  0  0  0  0  0  0  0  0  0
    2.1915    2.6443    0.0000 O   0  0  0  0  0  0  0  0  0  0  0  0
    3.6202    2.6234    0.0000 O   0  0  0  0  0  0  0  0  0  0  0  0
    2.1552    0.1696    0.0000 C   0  0  0  0  0  0  0  0  0  0  0  0
    1.4348   -0.2324    0.0000 C   0  0  0  0  0  0  0  0  0  0  0  0
    1.4227   -1.0572    0.0000 C   0  0  0  0  0  0  0  0  0  0  0  0
    0.7022   -1.4593    0.0000 C   0  0  0  0  0  0  0  0  0  0  0  0
   -0.0060   -1.0363    0.0000 C   0  0  0  0  0  0  0  0  0  0  0  0
    0.0060   -0.2115    0.0000 C   0  0  0  0  0  0  0  0  0  0  0  0
    0.7264    0.1905    0.0000 C   0  0  0  0  0  0  0  0  0  0  0  0
    2.8636   -0.2533    0.0000 O   0  0  0  0  0  0  0  0  0  0  0  0
   -0.7264   -1.4383    0.0000 C   0  0  0  0  0  0  0  0  0  0  0  0
   -1.4348   -1.0154    0.0000 C   0  0  0  0  0  0  0  0  0  0  0  0
   -5.0249   -2.2004    0.0000 C   0  0  0  0  0  0  0  0  0  0  0  0
   -4.3166   -2.6234    0.0000 N   0  0  0  0  0  0  0  0  0  0  0  0
   -3.5961   -2.2213    0.0000 C   0  0  0  0  0  0  0  0  0  0  0  0
   -3.5840   -1.3965    0.0000 C   0  0  0  0  0  0  0  0  0  0  0  0
   -4.2924   -0.9735    0.0000 C   0  0  0  0  0  0  0  0  0  0  0  0
   -5.0128   -1.3756    0.0000 N   0  0  0  0  0  0  0  0  0  0  0  0
   -2.8636   -0.9944    0.0000 C   0  0  0  0  0  0  0  0  0  0  0  0
   -2.1552   -1.4174    0.0000 C   0  0  0  0  0  0  0  0  0  0  0  0
   -2.1673   -2.2423    0.0000 C   0  0  0  0  0  0  0  0  0  0  0  0
   -2.8877   -2.6443    0.0000 N   0  0  0  0  0  0  0  0  0  0  0  0
   -4.2803   -0.1486    0.0000 O   0  0  0  0  0  0  0  0  0  0  0  0
   -5.7454   -2.6024    0.0000 N   0  0  0  0  0  0  0  0  0  0  0  0
  1  3  1  0
  1  9  2  0
  1 10  1  0
  2 11  1  0
  3  2  1  0
  3  4  1  6
  4  5  1  0
  5  6  1  0
  6  7  2  0
  6  8  1  0
 11 12  1  0
 11 18  2  0
 12 13  2  0
 12 17  1  0
 13 14  1  0
 14 15  2  0
 15 16  1  0
 15 19  1  0
 16 17  2  0
 19 20  1  0
 21 22  1  0
 21 26  2  0
 21 32  1  0
 22 23  1  0
 23 24  2  0
 23 30  1  0
 24 25  1  0
 24 27  1  0
 25 26  1  0
 25 31  2  0
 27 28  1  0
 28 29  1  0
 28 20  1  1
 29 30  1  0
M  END
>  <DRUGBANK_ID>  (1) 
DB12769

>  <COMMON_NAME>  (1) 
Lometrexol

>  <CAS_NUMBER>  (1) 
106400-81-1

>  <UNII>  (1) 
6P3AVY8A7Q

>  <SYNONYMS>  (1) 
Lometrexol; Lometrexolum

$$$$
