D55
     RDKit          2D

 27 28  0  0  0  0  0  0  0  0999 V2000
   13.8810    7.4877    0.0000 C   0  0  0  0  0  0  0  0  0  0  0  0
   14.5954    7.9002    0.0000 C   0  0  0  0  0  0  0  0  0  0  0  0
   10.3086    5.4252    0.0000 C   0  0  0  0  0  0  0  0  0  0  0  0
    9.5941    5.0127    0.0000 C   0  0  0  0  0  0  0  0  0  0  0  0
   12.4520    6.6627    0.0000 C   0  0  0  0  0  0  0  0  0  0  0  0
   11.7376    6.2502    0.0000 C   0  0  0  0  0  0  0  0  0  0  0  0
   11.7376    5.4252    0.0000 C   0  0  0  0  0  0  0  0  0  0  0  0
   12.4520    5.0127    0.0000 C   0  0  0  0  0  0  0  0  0  0  0  0
   13.1665    5.4252    0.0000 C   0  0  0  0  0  0  0  0  0  0  0  0
   13.8810    5.0127    0.0000 N   0  0  0  0  0  0  0  0  0  0  0  0
   14.5954    5.4252    0.0000 C   0  0  0  0  0  0  0  0  0  0  0  0
   14.5954    6.2502    0.0000 O   0  0  0  0  0  0  0  0  0  0  0  0
   15.3099    5.0127    0.0000 C   0  0  0  0  0  0  0  0  0  0  0  0
   16.0244    5.4252    0.0000 C   0  0  0  0  0  0  0  0  0  0  0  0
   16.7389    5.0127    0.0000 C   0  0  0  0  0  0  0  0  0  0  0  0
   17.4533    5.4252    0.0000 C   0  0  0  0  0  0  0  0  0  0  0  0
   16.7389    4.1877    0.0000 C   0  0  0  0  0  0  0  0  0  0  0  0
   17.4533    3.7752    0.0000 O   0  0  0  0  0  0  0  0  0  0  0  0
   18.1678    4.1877    0.0000 C   0  0  0  0  0  0  0  0  0  0  0  0
   18.8823    3.7752    0.0000 C   0  0  0  0  0  0  0  0  0  0  0  0
   19.5967    4.1877    0.0000 N   0  0  0  0  0  0  0  0  0  0  0  0
   16.0244    3.7752    0.0000 C   0  0  0  0  0  0  0  0  0  0  0  0
   16.0244    2.9502    0.0000 C   0  0  0  0  0  0  0  0  0  0  0  0
   11.0231    5.0127    0.0000 O   0  0  0  0  0  0  0  0  0  0  0  0
   15.3099    4.1877    0.0000 C   0  0  0  0  0  0  0  0  0  0  0  0
   13.8810    6.6627    0.0000 O   0  0  0  0  0  0  0  0  0  0  0  0
   13.1665    6.2502    0.0000 C   0  0  0  0  0  0  0  0  0  0  0  0
  1 26  1  0
  2  1  1  0
  3  4  1  0
  3 24  1  0
  5 27  2  0
  6  5  1  0
  7  6  2  0
  7  8  1  0
  7 24  1  0
  9 10  1  0
  9  8  2  0
 10 11  1  0
 11 12  2  0
 11 13  1  0
 13 14  2  0
 13 25  1  0
 14 15  1  0
 15 16  1  0
 15 17  2  0
 17 18  1  0
 17 22  1  0
 18 19  1  0
 19 20  1  0
 20 21  1  0
 22 23  1  0
 22 25  2  0
 27  9  1  0
 27 26  1  0
M  END
>  <DRUGBANK_ID>  (1) 
DB07625

>  <COMMON_NAME>  (1) 
4-(2-aminoethoxy)-N-(2,5-diethoxyphenyl)-3,5-dimethylbenzamide

$$$$
