SOX
     RDKit          2D

 24 26  0  0  0  0  0  0  0  0999 V2000
   -0.9005    0.8478    0.0000 O   0  0  0  0  0  0  0  0  0  0  0  0
   -0.3171    0.2644    0.0000 C   0  0  0  0  0  0  0  0  0  0  0  0
    0.5079    0.2644    0.0000 N   0  0  0  0  0  0  0  0  0  0  0  0
    1.2925    0.5193    0.0000 C   0  0  0  0  0  0  0  0  0  0  0  0
    1.5475    1.3040    0.0000 C   0  0  0  0  0  0  0  0  0  0  0  0
    2.3544    1.4755    0.0000 O   0  0  0  0  0  0  0  0  0  0  0  0
    0.9954    1.9171    0.0000 O   0  0  0  0  0  0  0  0  0  0  0  0
    1.7774   -0.1481    0.0000 C   0  0  0  0  0  0  0  0  0  0  0  0
    2.3905    0.4039    0.0000 C   0  0  0  0  0  0  0  0  0  0  0  0
    2.3905   -0.7001    0.0000 C   0  0  0  0  0  0  0  0  0  0  0  0
    1.2925   -0.8155    0.0000 S   0  0  0  0  0  0  0  0  0  0  0  0
    0.5079   -0.5606    0.0000 C   0  0  0  0  0  0  0  0  0  0  0  0
   -0.3171   -0.5606    0.0000 C   0  0  0  0  0  0  0  0  0  0  0  0
   -0.9005   -1.1440    0.0000 N   0  0  0  0  0  0  0  0  0  0  0  0
   -1.6974   -0.9304    0.0000 C   0  0  0  0  0  0  0  0  0  0  0  0
   -1.9109   -0.1335    0.0000 O   0  0  0  0  0  0  0  0  0  0  0  0
   -2.2807   -1.5138    0.0000 C   0  0  0  0  0  0  0  0  0  0  0  0
   -3.0776   -1.3003    0.0000 C   0  0  0  0  0  0  0  0  0  0  0  0
   -3.6610   -1.8836    0.0000 C   0  0  0  0  0  0  0  0  0  0  0  0
   -4.4579   -1.6701    0.0000 C   0  0  0  0  0  0  0  0  0  0  0  0
   -4.6714   -0.8732    0.0000 C   0  0  0  0  0  0  0  0  0  0  0  0
   -4.0880   -0.2899    0.0000 C   0  0  0  0  0  0  0  0  0  0  0  0
   -3.2911   -0.5034    0.0000 C   0  0  0  0  0  0  0  0  0  0  0  0
    1.5475   -1.6002    0.0000 O   0  0  0  0  0  0  0  0  0  0  0  0
  1  2  2  0
  2 13  1  0
  3  2  1  0
  3  4  1  0
 12  3  1  6
  4  5  1  1
  4  8  1  0
  5  6  2  0
  5  7  1  0
  8  9  1  0
  8 10  1  0
  8 11  1  0
 11 12  1  0
 11 24  1  6
 12 13  1  0
 13 14  1  6
 14 15  1  0
 15 16  2  0
 15 17  1  0
 17 18  1  0
 18 19  2  0
 18 23  1  0
 19 20  1  0
 20 21  2  0
 21 22  1  0
 22 23  2  0
M  END
>  <DRUGBANK_ID>  (1) 
DB08559

>  <COMMON_NAME>  (1) 
N-[(2S,4S,6R)-2-(dihydroxymethyl)-4-hydroxy-3,3-dimethyl-7-oxo-4lambda~4~-thia-1-azabicyclo[3.2.0]hept-6-yl]-2-phenylacetamide

$$$$
