
     RDKit          2D

 23 26  0  0  0  0  0  0  0  0999 V2000
   -2.5644    0.4841    0.0000 C   0  0  0  0  0  0  0  0  0  0  0  0
   -2.8194    1.2687    0.0000 C   0  0  0  0  0  0  0  0  0  0  0  0
   -2.2673    1.8818    0.0000 C   0  0  0  0  0  0  0  0  0  0  0  0
   -1.4604    1.7103    0.0000 N   0  0  0  0  0  0  0  0  0  0  0  0
   -1.2054    0.9256    0.0000 C   0  0  0  0  0  0  0  0  0  0  0  0
   -1.7575    0.3126    0.0000 C   0  0  0  0  0  0  0  0  0  0  0  0
   -0.3984    0.7541    0.0000 C   0  0  0  0  0  0  0  0  0  0  0  0
    0.1536    1.3672    0.0000 O   0  0  0  0  0  0  0  0  0  0  0  0
   -0.1435   -0.0305    0.0000 C   0  0  0  0  0  0  0  0  0  0  0  0
   -0.6284   -0.6979    0.0000 C   0  0  0  0  0  0  0  0  0  0  0  0
   -0.1435   -1.3654    0.0000 N   0  0  0  0  0  0  0  0  0  0  0  0
    0.6411   -1.1104    0.0000 N   0  0  0  0  0  0  0  0  0  0  0  0
    0.6411   -0.2854    0.0000 C   0  0  0  0  0  0  0  0  0  0  0  0
    1.3556    0.1271    0.0000 N   0  0  0  0  0  0  0  0  0  0  0  0
    2.0701   -0.2854    0.0000 C   0  0  0  0  0  0  0  0  0  0  0  0
    2.0701   -1.1104    0.0000 C   0  0  0  0  0  0  0  0  0  0  0  0
    1.3556   -1.5229    0.0000 C   0  0  0  0  0  0  0  0  0  0  0  0
    1.3556   -2.3479    0.0000 C   0  0  0  0  0  0  0  0  0  0  0  0
    2.0701   -2.7604    0.0000 C   0  0  0  0  0  0  0  0  0  0  0  0
    2.0701   -3.5854    0.0000 C   0  0  0  0  0  0  0  0  0  0  0  0
    1.3556   -3.9979    0.0000 N   0  0  0  0  0  0  0  0  0  0  0  0
    0.6411   -3.5854    0.0000 C   0  0  0  0  0  0  0  0  0  0  0  0
    0.6411   -2.7604    0.0000 C   0  0  0  0  0  0  0  0  0  0  0  0
  1  2  2  0
  1  6  1  0
  2  3  1  0
  3  4  2  0
  4  5  1  0
  5  6  2  0
  5  7  1  0
  7  8  2  0
  7  9  1  0
  9 10  1  0
  9 13  2  0
 10 11  2  0
 11 12  1  0
 12 13  1  0
 12 17  1  0
 13 14  1  0
 14 15  2  0
 15 16  1  0
 16 17  2  0
 17 18  1  0
 18 19  2  0
 18 23  1  0
 19 20  1  0
 20 21  2  0
 21 22  1  0
 22 23  2  0
M  END
>  <DRUGBANK_ID>  (1) 
DB06529

>  <COMMON_NAME>  (1) 
Ocinaplon

>  <CAS_NUMBER>  (1) 
96604-21-6

>  <UNII>  (1) 
2H6KVC5E76

>  <SYNONYMS>  (1) 
Ocinaplon

$$$$
