PIC
     RDKit          2D

 20 21  0  0  0  0  0  0  0  0999 V2000
   -1.5936   -0.7036    0.0000 C   0  0  0  0  0  0  0  0  0  0  0  0
   -0.8792   -0.2911    0.0000 C   0  0  0  0  0  0  0  0  0  0  0  0
   -0.8792    0.5339    0.0000 C   0  0  0  0  0  0  0  0  0  0  0  0
    1.9787    0.5339    0.0000 C   0  0  0  0  0  0  0  0  0  0  0  0
    1.9787   -0.2911    0.0000 C   0  0  0  0  0  0  0  0  0  0  0  0
    1.2643   -0.7036    0.0000 C   0  0  0  0  0  0  0  0  0  0  0  0
    0.5498   -0.2911    0.0000 C   0  0  0  0  0  0  0  0  0  0  0  0
   -0.1647   -0.7036    0.0000 C   0  0  0  0  0  0  0  0  0  0  0  0
    2.6932    0.9464    0.0000 C   0  0  0  0  0  0  0  0  0  0  0  0
   -0.1647    0.9464    0.0000 C   0  0  0  0  0  0  0  0  0  0  0  0
    0.5498    0.5339    0.0000 C   0  0  0  0  0  0  0  0  0  0  0  0
    1.2643    0.9464    0.0000 C   0  0  0  0  0  0  0  0  0  0  0  0
    2.6932    1.7714    0.0000 O   0  0  0  0  0  0  0  0  0  0  0  0
    3.4077    0.5339    0.0000 O   0  0  0  0  0  0  0  0  0  0  0  0
   -2.0061    0.0109    0.0000 F   0  0  0  0  0  0  0  0  0  0  0  0
   -1.1811   -1.4180    0.0000 F   0  0  0  0  0  0  0  0  0  0  0  0
   -2.3081   -1.1161    0.0000 P   0  0  0  0  0  0  0  0  0  0  0  0
   -3.0226   -1.5286    0.0000 O   0  0  0  0  0  0  0  0  0  0  0  0
   -2.7206   -0.4016    0.0000 O   0  0  0  0  0  0  0  0  0  0  0  0
   -1.8956   -1.8305    0.0000 O   0  0  0  0  0  0  0  0  0  0  0  0
  1  2  1  0
  1 15  1  0
  1 16  1  0
  1 17  1  0
  2  3  2  0
  2  8  1  0
  3 10  1  0
  4  5  1  0
  4  9  1  0
  4 12  2  0
  5  6  2  0
  6  7  1  0
  7  8  2  0
  7 11  1  0
  9 13  1  0
  9 14  2  0
 10 11  2  0
 11 12  1  0
 17 18  1  0
 17 19  1  0
 17 20  2  0
M  END
>  <DRUGBANK_ID>  (1) 
DB08397

>  <COMMON_NAME>  (1) 
6-(DIFLUORO-PHOSPHONO-METHYL)-NAPHTHALENE-2-CARBOXYLIC ACID

$$$$
