3IP
     RDKit          2D

 15 16  0  0  0  0  0  0  0  0999 V2000
    1.7338    0.9818    0.0000 N   0  0  0  0  0  0  0  0  0  0  0  0
    1.7338    0.1568    0.0000 C   0  0  0  0  0  0  0  0  0  0  0  0
    2.4483   -0.2557    0.0000 N   0  0  0  0  0  0  0  0  0  0  0  0
    2.4483   -1.0807    0.0000 C   0  0  0  0  0  0  0  0  0  0  0  0
    1.7338   -1.4932    0.0000 C   0  0  0  0  0  0  0  0  0  0  0  0
    1.0194   -1.0807    0.0000 C   0  0  0  0  0  0  0  0  0  0  0  0
    1.0194   -0.2557    0.0000 C   0  0  0  0  0  0  0  0  0  0  0  0
    0.3049    0.1568    0.0000 O   0  0  0  0  0  0  0  0  0  0  0  0
   -0.4096   -0.2557    0.0000 C   0  0  0  0  0  0  0  0  0  0  0  0
   -1.1240    0.1568    0.0000 C   0  0  0  0  0  0  0  0  0  0  0  0
   -1.8385   -0.2557    0.0000 C   0  0  0  0  0  0  0  0  0  0  0  0
   -2.5530    0.1568    0.0000 C   0  0  0  0  0  0  0  0  0  0  0  0
   -2.5530    0.9818    0.0000 C   0  0  0  0  0  0  0  0  0  0  0  0
   -1.8385    1.3943    0.0000 C   0  0  0  0  0  0  0  0  0  0  0  0
   -1.1240    0.9818    0.0000 C   0  0  0  0  0  0  0  0  0  0  0  0
  1  2  1  0
  2  3  2  0
  2  7  1  0
  3  4  1  0
  4  5  2  0
  5  6  1  0
  6  7  2  0
  7  8  1  0
  8  9  1  0
  9 10  1  0
 10 11  2  0
 10 15  1  0
 11 12  1  0
 12 13  2  0
 13 14  1  0
 14 15  2  0
M  END
>  <DRUGBANK_ID>  (1) 
DB02352

>  <SECONDARY_ACCESSION_NUMBERS>  (1) 
EXPT00176

>  <COMMON_NAME>  (1) 
3-(Benzyloxy)Pyridin-2-Amine

>  <UNII>  (1) 
IYW7T7718Z

$$$$
