
     RDKit          2D

 26 27  0  0  0  0  0  0  0  0999 V2000
    2.8852   -0.0779    0.0000 S   0  0  0  0  0  0  0  0  0  0  0  0
   -2.1722   -1.2928    0.0000 O   0  0  0  0  0  0  0  0  0  0  0  0
   -2.8867    0.7697    0.0000 O   0  0  0  0  0  0  0  0  0  0  0  0
   -2.8867   -0.0552    0.0000 O   0  0  0  0  0  0  0  0  0  0  0  0
    3.6012    0.3318    0.0000 O   0  0  0  0  0  0  0  0  0  0  0  0
    2.4754    0.6381    0.0000 O   0  0  0  0  0  0  0  0  0  0  0  0
    3.2949   -0.7939    0.0000 O   0  0  0  0  0  0  0  0  0  0  0  0
   -1.4577   -0.0552    0.0000 N   0  0  0  0  0  0  0  0  0  0  0  0
   -2.1722    2.0072    0.0000 N   0  0  0  0  0  0  0  0  0  0  0  0
    2.1690   -0.4876    0.0000 N   0  0  0  0  0  0  0  0  0  0  0  0
   -1.4577    0.7697    0.0000 C   0  0  0  0  0  0  0  0  0  0  0  0
   -0.7432    1.1822    0.0000 C   0  0  0  0  0  0  0  0  0  0  0  0
   -0.7432   -0.4677    0.0000 C   0  0  0  0  0  0  0  0  0  0  0  0
   -0.0288    0.7697    0.0000 C   0  0  0  0  0  0  0  0  0  0  0  0
   -0.0288   -0.0552    0.0000 C   0  0  0  0  0  0  0  0  0  0  0  0
   -2.1722    1.1822    0.0000 C   0  0  0  0  0  0  0  0  0  0  0  0
    0.7087   -0.4963    0.0000 C   0  0  0  0  0  0  0  0  0  0  0  0
   -2.1722   -0.4677    0.0000 C   0  0  0  0  0  0  0  0  0  0  0  0
    0.7087    1.2108    0.0000 C   0  0  0  0  0  0  0  0  0  0  0  0
   -2.8867   -1.7053    0.0000 C   0  0  0  0  0  0  0  0  0  0  0  0
    1.4561   -0.0724    0.0000 C   0  0  0  0  0  0  0  0  0  0  0  0
    1.4561    0.7869    0.0000 C   0  0  0  0  0  0  0  0  0  0  0  0
   -3.2992   -0.9908    0.0000 C   0  0  0  0  0  0  0  0  0  0  0  0
   -2.4742   -2.4197    0.0000 C   0  0  0  0  0  0  0  0  0  0  0  0
   -3.6012   -2.1178    0.0000 C   0  0  0  0  0  0  0  0  0  0  0  0
   -2.8867    2.4197    0.0000 C   0  0  0  0  0  0  0  0  0  0  0  0
  1  5  1  0
  1  6  2  0
  1  7  2  0
  1 10  1  0
  2 18  1  0
  2 20  1  0
  3 16  2  0
  4 18  2  0
  8 11  1  0
  8 13  1  0
  8 18  1  0
  9 16  1  0
  9 26  1  0
 10 21  1  0
 11 12  1  0
 11 16  1  1
 12 14  1  0
 13 15  1  0
 14 15  2  0
 14 19  1  0
 15 17  1  0
 17 21  2  0
 19 22  2  0
 20 23  1  0
 20 24  1  0
 20 25  1  0
 21 22  1  0
M  END
>  <DRUGBANK_ID>  (1) 
DB07719

>  <COMMON_NAME>  (1) 
[(3R)-3-(Methylcarbamoyl)-2-{[(2-methyl-2-propanyl)oxy]carbonyl}-1,2,3,4-tetrahydro-7-isoquinolinyl]sulfamic acid

$$$$
