U03
     RDKit          2D

 23 25  0  0  0  0  0  0  0  0999 V2000
   -0.4331   -0.0441    0.0000 C   0  0  0  0  0  0  0  0  0  0  0  0
   -0.4331   -0.8691    0.0000 C   0  0  0  0  0  0  0  0  0  0  0  0
    0.9958   -0.8691    0.0000 C   0  0  0  0  0  0  0  0  0  0  0  0
    0.9958   -0.0441    0.0000 C   0  0  0  0  0  0  0  0  0  0  0  0
    0.2814    0.3684    0.0000 C   0  0  0  0  0  0  0  0  0  0  0  0
   -1.8621   -0.0441    0.0000 C   0  0  0  0  0  0  0  0  0  0  0  0
   -1.8621   -0.8691    0.0000 C   0  0  0  0  0  0  0  0  0  0  0  0
   -2.5765   -1.2816    0.0000 C   0  0  0  0  0  0  0  0  0  0  0  0
   -3.2910   -0.8691    0.0000 C   0  0  0  0  0  0  0  0  0  0  0  0
   -3.2910   -0.0441    0.0000 C   0  0  0  0  0  0  0  0  0  0  0  0
   -2.5765    0.3684    0.0000 C   0  0  0  0  0  0  0  0  0  0  0  0
   -1.1476    0.3684    0.0000 C   0  0  0  0  0  0  0  0  0  0  0  0
   -1.1476    1.1934    0.0000 C   0  0  0  0  0  0  0  0  0  0  0  0
   -1.8621    1.6059    0.0000 C   0  0  0  0  0  0  0  0  0  0  0  0
    1.7103   -1.2816    0.0000 C   0  0  0  0  0  0  0  0  0  0  0  0
    2.4248   -0.8691    0.0000 C   0  0  0  0  0  0  0  0  0  0  0  0
    2.4248   -0.0441    0.0000 C   0  0  0  0  0  0  0  0  0  0  0  0
    1.7103    0.3684    0.0000 C   0  0  0  0  0  0  0  0  0  0  0  0
    3.8537   -0.8691    0.0000 C   0  0  0  0  0  0  0  0  0  0  0  0
   -1.1476   -1.2816    0.0000 O   0  0  0  0  0  0  0  0  0  0  0  0
    0.2814   -1.2816    0.0000 O   0  0  0  0  0  0  0  0  0  0  0  0
    0.2814    1.1934    0.0000 O   0  0  0  0  0  0  0  0  0  0  0  0
    3.1392   -1.2816    0.0000 O   0  0  0  0  0  0  0  0  0  0  0  0
  1  2  1  0
  1  5  2  0
  1 12  1  0
  2 20  2  0
  2 21  1  0
  3  4  2  0
  3 15  1  0
  3 21  1  0
  4  5  1  0
  4 18  1  0
  5 22  1  0
  6  7  2  0
  6 11  1  0
  6 12  1  0
  7  8  1  0
  8  9  2  0
  9 10  1  0
 10 11  2  0
 12 13  1  6
 13 14  1  0
 15 16  2  0
 16 17  1  0
 16 23  1  0
 17 18  2  0
 19 23  1  0
M  END
>  <DRUGBANK_ID>  (1) 
DB08663

>  <COMMON_NAME>  (1) 
4-HYDROXY-7-METHOXY-3-(1-PHENYL-PROPYL)-CHROMEN-2-ONE

$$$$
