
     RDKit          2D

 14 13  0  0  0  0  0  0  0  0999 V2000
   -0.4125    5.0013    0.0000 C   0  0  0  0  0  0  0  0  0  0  0  0
   -0.0000    4.2868    0.0000 C   0  0  0  0  0  0  0  0  0  0  0  0
    0.8250    4.2868    0.0000 C   0  0  0  0  0  0  0  0  0  0  0  0
    1.2375    3.5724    0.0000 C   0  0  0  0  0  0  0  0  0  0  0  0
    0.8250    2.8579    0.0000 C   0  0  0  0  0  0  0  0  0  0  0  0
    1.2375    2.1434    0.0000 C   0  0  0  0  0  0  0  0  0  0  0  0
    0.8250    1.4289    0.0000 C   0  0  0  0  0  0  0  0  0  0  0  0
    2.0625    3.5724    0.0000 C   0  0  0  0  0  0  0  0  0  0  0  0
    2.4750    4.2868    0.0000 O   0  0  0  0  0  0  0  0  0  0  0  0
    2.4750    2.8579    0.0000 N   0  0  0  0  0  0  0  0  0  0  0  0
    3.3000    2.8579    0.0000 C   0  0  0  0  0  0  0  0  0  0  0  0
    3.7125    2.1434    0.0000 C   0  0  0  0  0  0  0  0  0  0  0  0
    4.5375    2.1434    0.0000 O   0  0  0  0  0  0  0  0  0  0  0  0
    3.3000    1.4289    0.0000 N   0  0  0  0  0  0  0  0  0  0  0  0
  1  2  1  0
  2  3  1  0
  3  4  1  0
  4  5  1  0
  4  8  1  0
  5  6  1  0
  6  7  1  0
  8  9  2  0
  8 10  1  0
 10 11  1  0
 11 12  1  0
 12 13  2  0
 12 14  1  0
M  END
>  <DRUGBANK_ID>  (1) 
DB06657

>  <COMMON_NAME>  (1) 
Valrocemide

>  <CAS_NUMBER>  (1) 
92262-58-3

>  <UNII>  (1) 
1C7GO6OW7L

>  <SYNONYMS>  (1) 
N-Valproylglycinamide; Valrocemide

$$$$
