K2C
     RDKit          2D

 24 29  0  0  0  0  0  0  0  0999 V2000
    0.7194    1.5626    0.0000 C   0  0  0  0  0  0  0  0  0  0  0  0
    0.0519    2.0475    0.0000 N   0  0  0  0  0  0  0  0  0  0  0  0
    0.4644    0.7779    0.0000 C   0  0  0  0  0  0  0  0  0  0  0  0
    0.8769    0.0635    0.0000 C   0  0  0  0  0  0  0  0  0  0  0  0
    0.4644   -0.6510    0.0000 C   0  0  0  0  0  0  0  0  0  0  0  0
    1.0165   -1.2641    0.0000 N   0  0  0  0  0  0  0  0  0  0  0  0
    1.7701   -0.9285    0.0000 C   0  0  0  0  0  0  0  0  0  0  0  0
    1.6839   -0.1081    0.0000 C   0  0  0  0  0  0  0  0  0  0  0  0
    2.3514    0.3769    0.0000 C   0  0  0  0  0  0  0  0  0  0  0  0
    3.1050    0.0413    0.0000 C   0  0  0  0  0  0  0  0  0  0  0  0
    3.1913   -0.7792    0.0000 C   0  0  0  0  0  0  0  0  0  0  0  0
    2.5238   -1.2641    0.0000 C   0  0  0  0  0  0  0  0  0  0  0  0
   -1.4001    1.8175    0.0000 O   0  0  0  0  0  0  0  0  0  0  0  0
   -0.6155    1.5626    0.0000 C   0  0  0  0  0  0  0  0  0  0  0  0
   -0.3606    0.7779    0.0000 C   0  0  0  0  0  0  0  0  0  0  0  0
   -0.7731    0.0635    0.0000 C   0  0  0  0  0  0  0  0  0  0  0  0
   -0.3606   -0.6510    0.0000 C   0  0  0  0  0  0  0  0  0  0  0  0
   -0.9126   -1.2641    0.0000 N   0  0  0  0  0  0  0  0  0  0  0  0
   -1.6663   -0.9285    0.0000 C   0  0  0  0  0  0  0  0  0  0  0  0
   -1.5800   -0.1081    0.0000 C   0  0  0  0  0  0  0  0  0  0  0  0
   -2.2475    0.3769    0.0000 C   0  0  0  0  0  0  0  0  0  0  0  0
   -3.0011    0.0413    0.0000 C   0  0  0  0  0  0  0  0  0  0  0  0
   -3.0874   -0.7792    0.0000 C   0  0  0  0  0  0  0  0  0  0  0  0
   -2.4199   -1.2641    0.0000 C   0  0  0  0  0  0  0  0  0  0  0  0
  1  3  1  0
  2  1  1  0
  3  4  2  0
  4  5  1  0
  4  8  1  0
  5  6  1  0
  6  7  1  0
  7 12  2  0
  8  9  2  0
  8  7  1  0
  9 10  1  0
 10 11  2  0
 12 11  1  0
 13 14  2  0
 14  2  1  0
 14 15  1  0
 15 16  2  0
 15  3  1  0
 16 17  1  0
 17  5  2  0
 18 17  1  0
 19 18  1  0
 20 19  2  0
 20 16  1  0
 21 20  1  0
 22 21  2  0
 22 23  1  0
 23 24  2  0
 24 19  1  0
M  END
>  <DRUGBANK_ID>  (1) 
DB08036

>  <COMMON_NAME>  (1) 
6,7,12,13-tetrahydro-5H-indolo[2,3-a]pyrrolo[3,4-c]carbazol-5-one

>  <UNII>  (1) 
HAJ5XS5HPF

$$$$
