CT2
     RDKit          2D

 23 24  0  0  0  0  0  0  0  0999 V2000
   -4.4929   -0.0293    0.0000 C   0  0  0  0  0  0  0  0  0  0  0  0
   -3.7784   -0.4418    0.0000 C   0  0  0  0  0  0  0  0  0  0  0  0
   -3.0640   -0.0293    0.0000 C   0  0  0  0  0  0  0  0  0  0  0  0
   -2.3495   -0.4418    0.0000 C   0  0  0  0  0  0  0  0  0  0  0  0
   -1.6350   -0.0293    0.0000 C   0  0  0  0  0  0  0  0  0  0  0  0
   -0.9205   -0.4418    0.0000 N   0  0  0  0  0  0  0  0  0  0  0  0
   -0.2061   -0.0293    0.0000 C   0  0  0  0  0  0  0  0  0  0  0  0
   -0.2061    0.7957    0.0000 O   0  0  0  0  0  0  0  0  0  0  0  0
    0.5084   -0.4418    0.0000 O   0  0  0  0  0  0  0  0  0  0  0  0
    1.2229   -0.0293    0.0000 C   0  0  0  0  0  0  0  0  0  0  0  0
    1.5584   -0.7829    0.0000 C   0  0  0  0  0  0  0  0  0  0  0  0
    2.3789   -0.8692    0.0000 C   0  0  0  0  0  0  0  0  0  0  0  0
    2.8638   -0.2017    0.0000 C   0  0  0  0  0  0  0  0  0  0  0  0
    3.6843   -0.2880    0.0000 C   0  0  0  0  0  0  0  0  0  0  0  0
    4.0199   -1.0416    0.0000 C   0  0  0  0  0  0  0  0  0  0  0  0
    3.5349   -1.7091    0.0000 C   0  0  0  0  0  0  0  0  0  0  0  0
    2.7145   -1.6228    0.0000 C   0  0  0  0  0  0  0  0  0  0  0  0
    0.7379    0.6382    0.0000 C   0  0  0  0  0  0  0  0  0  0  0  0
    1.2229    1.3056    0.0000 C   0  0  0  0  0  0  0  0  0  0  0  0
    2.0075    1.0507    0.0000 C   0  0  0  0  0  0  0  0  0  0  0  0
    2.0075    0.2257    0.0000 C   0  0  0  0  0  0  0  0  0  0  0  0
   -1.6350    0.7957    0.0000 C   0  0  0  0  0  0  0  0  0  0  0  0
   -0.9205    1.2082    0.0000 O   0  0  0  0  0  0  0  0  0  0  0  0
  1  2  1  0
  2  3  1  0
  3  4  1  0
  5  4  1  1
  5  6  1  0
  5 22  1  0
  6  7  1  0
  7  8  2  0
  7  9  1  0
  9 10  1  0
 10 11  1  0
 10 18  1  0
 10 21  1  0
 11 12  1  0
 12 13  2  0
 12 17  1  0
 13 14  1  0
 14 15  2  0
 15 16  1  0
 16 17  2  0
 18 19  1  0
 19 20  1  0
 20 21  1  0
 22 23  2  0
M  END
>  <DRUGBANK_ID>  (1) 
DB07593

>  <COMMON_NAME>  (1) 
1-(PHENYLMETHYL)CYCLOPENTYL[(1S)-1-FORMYLPENTYL]CARBAMATE

$$$$
