
     RDKit          2D

 30 33  0  0  0  0  0  0  0  0999 V2000
   -5.0013    6.1875    0.0000 C   0  0  0  0  0  0  0  0  0  0  0  0
   -7.8592    8.6625    0.0000 C   0  0  0  0  0  0  0  0  0  0  0  0
   -5.7158    4.9500    0.0000 C   0  0  0  0  0  0  0  0  0  0  0  0
   -8.5737    8.2500    0.0000 C   0  0  0  0  0  0  0  0  0  0  0  0
   -6.4302    4.5375    0.0000 C   0  0  0  0  0  0  0  0  0  0  0  0
   -7.1447    8.2500    0.0000 C   0  0  0  0  0  0  0  0  0  0  0  0
   -5.7158    5.7750    0.0000 C   0  0  0  0  0  0  0  0  0  0  0  0
   -8.5737    7.4250    0.0000 C   0  0  0  0  0  0  0  0  0  0  0  0
   -7.1447    4.9500    0.0000 C   0  0  0  0  0  0  0  0  0  0  0  0
   -2.1434    7.0125    0.0000 C   0  0  0  0  0  0  0  0  0  0  0  0
   -2.8579    5.7750    0.0000 C   0  0  0  0  0  0  0  0  0  0  0  0
   -2.8579    7.4250    0.0000 C   0  0  0  0  0  0  0  0  0  0  0  0
   -3.5724    6.1875    0.0000 C   0  0  0  0  0  0  0  0  0  0  0  0
   -1.4289    5.7750    0.0000 C   0  0  0  0  0  0  0  0  0  0  0  0
    1.4289    5.7750    0.0000 C   0  0  0  0  0  0  0  0  0  0  0  0
   -0.7145    6.1875    0.0000 C   0  0  0  0  0  0  0  0  0  0  0  0
    0.7145    6.1875    0.0000 C   0  0  0  0  0  0  0  0  0  0  0  0
   -4.2868    7.4250    0.0000 C   0  0  0  0  0  0  0  0  0  0  0  0
   -5.7158    7.4250    0.0000 C   0  0  0  0  0  0  0  0  0  0  0  0
   -5.0013    7.0125    0.0000 C   0  0  0  0  0  0  0  0  0  0  0  0
   -7.1447    7.4250    0.0000 C   0  0  0  0  0  0  0  0  0  0  0  0
   -6.4302    6.1875    0.0000 C   0  0  0  0  0  0  0  0  0  0  0  0
   -7.8592    7.0125    0.0000 C   0  0  0  0  0  0  0  0  0  0  0  0
   -7.1447    5.7750    0.0000 C   0  0  0  0  0  0  0  0  0  0  0  0
   -2.1434    6.1875    0.0000 N   0  0  0  0  0  0  0  0  0  0  0  0
   -3.5724    7.0125    0.0000 N   0  0  0  0  0  0  0  0  0  0  0  0
   -6.4302    7.0125    0.0000 N   0  0  0  0  0  0  0  0  0  0  0  0
    2.1434    6.1875    0.0000 O   0  0  0  0  0  0  0  0  0  0  0  0
    0.0000    5.7750    0.0000 O   0  0  0  0  0  0  0  0  0  0  0  0
   -7.8592    6.1875    0.0000 S   0  0  0  0  0  0  0  0  0  0  0  0
  4  2  2  0
  5  3  2  0
  6  2  1  0
  7  3  1  0
  8  4  1  0
  9  5  1  0
 12 10  1  0
 13 11  1  0
 16 14  1  0
 17 15  1  0
 20  1  1  0
 20 18  1  0
 20 19  1  0
 21  6  2  0
 22  7  2  0
 23  8  2  0
 23 21  1  0
 24  9  2  0
 24 22  1  0
 25 10  1  0
 25 11  1  0
 25 14  1  0
 26 12  1  0
 26 13  1  0
 26 18  1  0
 27 19  1  0
 27 21  1  0
 27 22  1  0
 28 15  1  0
 29 16  1  0
 29 17  1  0
 30 23  1  0
 30 24  1  0
M  END
>  <DRUGBANK_ID>  (1) 
DB13784

>  <COMMON_NAME>  (1) 
Dixyrazine

>  <CAS_NUMBER>  (1) 
2470-73-7

>  <UNII>  (1) 
7H368W3AYC

$$$$
