
     RDKit          2D

 32 35  0  0  0  0  0  0  0  0999 V2000
   -0.2228   -2.7691    0.0000 C   0  0  0  0  0  0  0  0  0  0  0  0
   -0.2228   -1.9441    0.0000 O   0  0  0  0  0  0  0  0  0  0  0  0
    0.4917   -1.5316    0.0000 C   0  0  0  0  0  0  0  0  0  0  0  0
    0.4917   -0.7066    0.0000 C   0  0  0  0  0  0  0  0  0  0  0  0
    1.2062   -0.2941    0.0000 C   0  0  0  0  0  0  0  0  0  0  0  0
    1.9206   -0.7066    0.0000 C   0  0  0  0  0  0  0  0  0  0  0  0
    2.5656   -0.1923    0.0000 C   0  0  0  0  0  0  0  0  0  0  0  0
    3.3700   -0.3758    0.0000 C   0  0  0  0  0  0  0  0  0  0  0  0
    3.7279   -1.1191    0.0000 N   0  0  0  0  0  0  0  0  0  0  0  0
    4.5529   -1.1191    0.0000 C   0  0  0  0  0  0  0  0  0  0  0  0
    3.3700   -1.8624    0.0000 C   0  0  0  0  0  0  0  0  0  0  0  0
    2.5656   -2.0460    0.0000 C   0  0  0  0  0  0  0  0  0  0  0  0
    1.9206   -1.5316    0.0000 C   0  0  0  0  0  0  0  0  0  0  0  0
    1.2062   -1.9441    0.0000 C   0  0  0  0  0  0  0  0  0  0  0  0
   -0.2228   -0.2941    0.0000 S   0  0  0  0  0  0  0  0  0  0  0  0
    0.1897    0.4203    0.0000 O   0  0  0  0  0  0  0  0  0  0  0  0
   -0.6353   -1.0086    0.0000 O   0  0  0  0  0  0  0  0  0  0  0  0
   -0.9373    0.1184    0.0000 C   0  0  0  0  0  0  0  0  0  0  0  0
   -1.6517   -0.2941    0.0000 C   0  0  0  0  0  0  0  0  0  0  0  0
   -2.3662    0.1184    0.0000 C   0  0  0  0  0  0  0  0  0  0  0  0
   -2.3662    0.9434    0.0000 C   0  0  0  0  0  0  0  0  0  0  0  0
   -3.0807    1.3559    0.0000 O   0  0  0  0  0  0  0  0  0  0  0  0
   -3.7951    0.9434    0.0000 C   0  0  0  0  0  0  0  0  0  0  0  0
   -4.5096    1.3559    0.0000 C   0  0  0  0  0  0  0  0  0  0  0  0
   -5.2241    0.9434    0.0000 C   0  0  0  0  0  0  0  0  0  0  0  0
   -5.9386    1.3559    0.0000 C   0  0  0  0  0  0  0  0  0  0  0  0
   -5.9386    2.1809    0.0000 C   0  0  0  0  0  0  0  0  0  0  0  0
   -6.6530    2.5934    0.0000 Cl  0  0  0  0  0  0  0  0  0  0  0  0
   -5.2241    2.5934    0.0000 C   0  0  0  0  0  0  0  0  0  0  0  0
   -4.5096    2.1809    0.0000 C   0  0  0  0  0  0  0  0  0  0  0  0
   -1.6517    1.3559    0.0000 C   0  0  0  0  0  0  0  0  0  0  0  0
   -0.9373    0.9434    0.0000 C   0  0  0  0  0  0  0  0  0  0  0  0
  1  2  1  0
  2  3  1  0
  3  4  2  0
  3 14  1  0
  4  5  1  0
  4 15  1  0
  5  6  2  0
  6  7  1  0
  6 13  1  0
  7  8  1  0
  8  9  1  0
  9 10  1  0
  9 11  1  0
 11 12  1  0
 12 13  1  0
 13 14  2  0
 15 16  2  0
 15 17  2  0
 15 18  1  0
 18 19  2  0
 18 32  1  0
 19 20  1  0
 20 21  2  0
 21 22  1  0
 21 31  1  0
 22 23  1  0
 23 24  1  0
 24 25  2  0
 24 30  1  0
 25 26  1  0
 26 27  2  0
 27 28  1  0
 27 29  1  0
 29 30  2  0
 31 32  2  0
M  END
>  <DRUGBANK_ID>  (1) 
DB16042

>  <COMMON_NAME>  (1) 
SB-773812

>  <CAS_NUMBER>  (1) 
630407-66-8

>  <UNII>  (1) 
ZNP5SNF9FY

$$$$
