
     RDKit          2D

 23 25  0  0  1  0  0  0  0  0999 V2000
    0.3194   -1.9658    0.0000 C   0  0  0  0  0  0  0  0  0  0  0  0
    0.9514   -2.4961    0.0000 O   0  0  0  0  0  0  0  0  0  0  0  0
    0.8081   -3.3086    0.0000 C   0  0  0  0  0  0  0  0  0  0  0  0
    0.0329   -3.5908    0.0000 O   0  0  0  0  0  0  0  0  0  0  0  0
    1.4401   -3.8389    0.0000 C   0  0  0  0  0  0  0  0  0  0  0  0
    1.8526   -4.5534    0.0000 C   0  0  0  0  0  0  0  0  0  0  0  0
    1.0276   -4.5534    0.0000 C   0  0  0  0  0  0  0  0  0  0  0  0
    2.0721   -3.3086    0.0000 O   0  0  0  0  0  0  0  0  0  0  0  0
    2.8473   -3.5908    0.0000 C   0  0  0  0  0  0  0  0  0  0  0  0
    2.9906   -4.4032    0.0000 O   0  0  0  0  0  0  0  0  0  0  0  0
    3.4793   -3.0605    0.0000 C   0  0  0  0  0  0  0  0  0  0  0  0
    3.4218   -2.2375    0.0000 C   0  0  0  0  0  0  0  0  0  0  0  0
    4.1867   -1.9284    0.0000 N   0  0  0  0  0  0  0  0  0  0  0  0
    4.7170   -2.5604    0.0000 C   0  0  0  0  0  0  0  0  0  0  0  0
    4.2798   -3.2601    0.0000 N   0  0  0  0  0  0  0  0  0  0  0  0
    4.5889   -4.0250    0.0000 C   0  0  0  0  0  0  0  0  0  0  0  0
    4.0809   -4.6751    0.0000 C   0  0  0  0  0  0  0  0  0  0  0  0
    5.4058   -4.1398    0.0000 C   0  0  0  0  0  0  0  0  0  0  0  0
    5.9138   -3.4897    0.0000 C   0  0  0  0  0  0  0  0  0  0  0  0
    6.7307   -3.6045    0.0000 C   0  0  0  0  0  0  0  0  0  0  0  0
    7.0398   -4.3694    0.0000 C   0  0  0  0  0  0  0  0  0  0  0  0
    6.5319   -5.0196    0.0000 C   0  0  0  0  0  0  0  0  0  0  0  0
    5.7149   -4.9047    0.0000 C   0  0  0  0  0  0  0  0  0  0  0  0
  1  2  1  0
  2  3  1  0
  3  4  2  0
  3  5  1  0
  5  6  1  0
  5  7  1  0
  5  8  1  0
  6  7  1  0
  8  9  1  0
  9 10  2  0
  9 11  1  0
 11 12  2  0
 11 15  1  0
 12 13  1  0
 13 14  2  0
 14 15  1  0
 16 15  1  0
 16 17  1  1
 16 18  1  0
 18 19  2  0
 18 23  1  0
 19 20  1  0
 20 21  2  0
 21 22  1  0
 22 23  2  0
M  END
>  <DRUGBANK_ID>  (1) 
DB15411

>  <COMMON_NAME>  (1) 
ABP-700

>  <CAS_NUMBER>  (1) 
1446482-29-6

>  <UNII>  (1) 
LZ0835OW2M

$$$$
