
     RDKit          2D

 34 37  0  0  0  0  0  0  0  0999 V2000
    4.2135   -0.1271    0.0000 C   0  0  0  0  0  0  0  0  0  0  0  0
    3.4990   -0.5396    0.0000 C   0  0  0  0  0  0  0  0  0  0  0  0
    3.4990   -1.3646    0.0000 C   0  0  0  0  0  0  0  0  0  0  0  0
    2.7845   -0.1271    0.0000 C   0  0  0  0  0  0  0  0  0  0  0  0
    2.7845    0.6979    0.0000 N   0  0  0  0  0  0  0  0  0  0  0  0
    2.0701    1.1104    0.0000 C   0  0  0  0  0  0  0  0  0  0  0  0
    1.3556    0.6979    0.0000 C   0  0  0  0  0  0  0  0  0  0  0  0
    0.6411    1.1104    0.0000 C   0  0  0  0  0  0  0  0  0  0  0  0
    0.6411    1.9354    0.0000 C   0  0  0  0  0  0  0  0  0  0  0  0
   -0.1435    2.1904    0.0000 C   0  0  0  0  0  0  0  0  0  0  0  0
   -0.6284    1.5229    0.0000 C   0  0  0  0  0  0  0  0  0  0  0  0
   -0.1435    0.8555    0.0000 C   0  0  0  0  0  0  0  0  0  0  0  0
    1.3556    2.3479    0.0000 C   0  0  0  0  0  0  0  0  0  0  0  0
    2.0701    1.9354    0.0000 C   0  0  0  0  0  0  0  0  0  0  0  0
    2.7845    2.3479    0.0000 O   0  0  0  0  0  0  0  0  0  0  0  0
    2.7845    3.1729    0.0000 C   0  0  0  0  0  0  0  0  0  0  0  0
    3.4990    3.5854    0.0000 C   0  0  0  0  0  0  0  0  0  0  0  0
    4.2135    3.1729    0.0000 C   0  0  0  0  0  0  0  0  0  0  0  0
    4.9279    3.5854    0.0000 C   0  0  0  0  0  0  0  0  0  0  0  0
    4.9279    4.4104    0.0000 C   0  0  0  0  0  0  0  0  0  0  0  0
    4.2135    4.8229    0.0000 C   0  0  0  0  0  0  0  0  0  0  0  0
    3.4990    4.4104    0.0000 C   0  0  0  0  0  0  0  0  0  0  0  0
    2.7845    4.8229    0.0000 C   0  0  0  0  0  0  0  0  0  0  0  0
    5.6424    4.8229    0.0000 C   0  0  0  0  0  0  0  0  0  0  0  0
    6.3569    4.4104    0.0000 O   0  0  0  0  0  0  0  0  0  0  0  0
    5.6424    5.6479    0.0000 O   0  0  0  0  0  0  0  0  0  0  0  0
    3.4990    1.1104    0.0000 S   0  0  0  0  0  0  0  0  0  0  0  0
    3.9115    0.3960    0.0000 O   0  0  0  0  0  0  0  0  0  0  0  0
    3.0865    1.8249    0.0000 O   0  0  0  0  0  0  0  0  0  0  0  0
    4.2135    1.5229    0.0000 C   0  0  0  0  0  0  0  0  0  0  0  0
    4.9671    1.1874    0.0000 N   0  0  0  0  0  0  0  0  0  0  0  0
    5.5192    1.8005    0.0000 C   0  0  0  0  0  0  0  0  0  0  0  0
    5.1067    2.5150    0.0000 C   0  0  0  0  0  0  0  0  0  0  0  0
    4.2997    2.3434    0.0000 S   0  0  0  0  0  0  0  0  0  0  0  0
  1  2  1  0
  2  3  1  0
  2  4  1  0
  4  5  1  0
  5  6  1  0
  5 27  1  0
  6  7  2  0
  6 14  1  0
  7  8  1  0
  8  9  2  0
  8 12  1  0
  9 10  1  0
  9 13  1  0
 10 11  1  0
 11 12  1  0
 13 14  2  0
 14 15  1  0
 15 16  1  0
 16 17  1  0
 17 18  2  0
 17 22  1  0
 18 19  1  0
 19 20  2  0
 20 21  1  0
 20 24  1  0
 21 22  2  0
 22 23  1  0
 24 25  1  0
 24 26  2  0
 27 28  2  0
 27 29  2  0
 27 30  1  0
 30 31  2  0
 30 34  1  0
 31 32  1  0
 32 33  2  0
 33 34  1  0
M  END
>  <DRUGBANK_ID>  (1) 
DB15325

>  <COMMON_NAME>  (1) 
ONO-8539

>  <CAS_NUMBER>  (1) 
459842-29-6

>  <UNII>  (1) 
94W010PZ1Z

$$$$
