
     RDKit          2D

 16 17  0  0  0  0  0  0  0  0999 V2000
    2.0818    1.0988    0.0000 C   0  0  0  0  0  0  0  0  0  0  0  0
    2.0818    0.2738    0.0000 C   0  0  0  0  0  0  0  0  0  0  0  0
    1.3673   -0.1387    0.0000 C   0  0  0  0  0  0  0  0  0  0  0  0
    0.6529    0.2738    0.0000 C   0  0  0  0  0  0  0  0  0  0  0  0
    0.6529    1.0988    0.0000 C   0  0  0  0  0  0  0  0  0  0  0  0
    1.3673    1.5113    0.0000 C   0  0  0  0  0  0  0  0  0  0  0  0
    2.7963    1.5113    0.0000 O   0  0  0  0  0  0  0  0  0  0  0  0
   -0.0616   -0.1387    0.0000 N   0  0  0  0  0  0  0  0  0  0  0  0
   -0.7761    0.2738    0.0000 N   0  0  0  0  0  0  0  0  0  0  0  0
   -2.3838   -1.1308    0.0000 N   0  0  0  0  0  0  0  0  0  0  0  0
   -2.7963   -0.4163    0.0000 N   0  0  0  0  0  0  0  0  0  0  0  0
   -2.2442    0.1968    0.0000 C   0  0  0  0  0  0  0  0  0  0  0  0
   -1.4906   -0.1387    0.0000 C   0  0  0  0  0  0  0  0  0  0  0  0
   -1.5768   -0.9592    0.0000 C   0  0  0  0  0  0  0  0  0  0  0  0
   -0.9637   -1.5113    0.0000 N   0  0  0  0  0  0  0  0  0  0  0  0
   -2.4158    1.0038    0.0000 N   0  0  0  0  0  0  0  0  0  0  0  0
  1  2  2  0
  1  6  1  0
  1  7  1  0
  2  3  1  0
  3  4  2  0
  4  5  1  0
  4  8  1  0
  5  6  2  0
  8  9  2  0
  9 13  1  0
 10 11  1  0
 10 14  1  0
 11 12  2  0
 12 13  1  0
 12 16  1  0
 13 14  2  0
 14 15  1  0
M  END
>  <DRUGBANK_ID>  (1) 
DB07731

>  <COMMON_NAME>  (1) 
CAN-508

>  <CAS_NUMBER>  (1) 
140651-18-9

>  <UNII>  (1) 
ZG0O47K626

$$$$
