
     RDKit          2D

 41 44  0  0  1  0  0  0  0  0999 V2000
    1.6119   -3.1745    0.0000 C   0  0  0  0  0  0  0  0  0  0  0  0
    1.1270   -2.5070    0.0000 C   0  0  0  0  0  0  0  0  0  0  0  0
    0.3020   -2.5070    0.0000 C   0  0  0  0  0  0  0  0  0  0  0  0
    0.0470   -1.7224    0.0000 N   0  0  0  0  0  0  0  0  0  0  0  0
   -0.7376   -1.4675    0.0000 C   0  0  0  0  0  0  0  0  0  0  0  0
   -1.3507   -2.0195    0.0000 N   0  0  0  0  0  0  0  0  0  0  0  0
   -2.1353   -1.7646    0.0000 C   0  0  0  0  0  0  0  0  0  0  0  0
   -2.3068   -0.9576    0.0000 C   0  0  0  0  0  0  0  0  0  0  0  0
   -1.6937   -0.4056    0.0000 C   0  0  0  0  0  0  0  0  0  0  0  0
   -0.9091   -0.6605    0.0000 C   0  0  0  0  0  0  0  0  0  0  0  0
   -0.2960   -0.1085    0.0000 C   0  0  0  0  0  0  0  0  0  0  0  0
   -0.4675    0.6985    0.0000 O   0  0  0  0  0  0  0  0  0  0  0  0
    0.4886   -0.3634    0.0000 N   0  0  0  0  0  0  0  0  0  0  0  0
    1.1017    0.1886    0.0000 S   0  0  0  0  0  0  0  0  0  0  0  0
    0.5497    0.8017    0.0000 O   0  0  0  0  0  0  0  0  0  0  0  0
    1.6537   -0.4245    0.0000 O   0  0  0  0  0  0  0  0  0  0  0  0
    1.7148    0.7406    0.0000 C   0  0  0  0  0  0  0  0  0  0  0  0
    1.6286    1.5611    0.0000 C   0  0  0  0  0  0  0  0  0  0  0  0
    2.3822    1.8967    0.0000 N   0  0  0  0  0  0  0  0  0  0  0  0
    2.5538    2.7037    0.0000 C   0  0  0  0  0  0  0  0  0  0  0  0
    2.9343    1.2836    0.0000 N   0  0  0  0  0  0  0  0  0  0  0  0
    2.5218    0.5691    0.0000 C   0  0  0  0  0  0  0  0  0  0  0  0
    2.8573   -0.1846    0.0000 C   0  0  0  0  0  0  0  0  0  0  0  0
   -2.7484   -2.3166    0.0000 N   0  0  0  0  0  0  0  0  0  0  0  0
   -2.6622   -3.1371    0.0000 C   0  0  0  0  0  0  0  0  0  0  0  0
   -3.4158   -3.4726    0.0000 C   0  0  0  0  0  0  0  0  0  0  0  0
   -3.9679   -2.8596    0.0000 C   0  0  0  0  0  0  0  0  0  0  0  0
   -4.7884   -2.9458    0.0000 O   0  0  0  0  0  0  0  0  0  0  0  0
   -5.2733   -2.2784    0.0000 C   0  0  0  0  0  0  0  0  0  0  0  0
   -6.0938   -2.3646    0.0000 C   0  0  0  0  0  0  0  0  0  0  0  0
   -6.1800   -1.5441    0.0000 C   0  0  0  0  0  0  0  0  0  0  0  0
   -6.0075   -3.1851    0.0000 C   0  0  0  0  0  0  0  0  0  0  0  0
   -6.9142   -2.4508    0.0000 C   0  0  0  0  0  0  0  0  0  0  0  0
   -7.7347   -2.5371    0.0000 F   0  0  0  0  0  0  0  0  0  0  0  0
   -7.0005   -1.6303    0.0000 F   0  0  0  0  0  0  0  0  0  0  0  0
   -6.8280   -3.2713    0.0000 F   0  0  0  0  0  0  0  0  0  0  0  0
   -3.5554   -2.1451    0.0000 N   0  0  0  0  0  0  0  0  0  0  0  0
    0.7145   -1.2375    0.0000 C   0  0  0  0  0  0  0  0  0  0  0  0
    0.1624   -0.6244    0.0000 C   0  0  0  0  0  0  0  0  0  0  0  0
    1.2665   -0.6244    0.0000 C   0  0  0  0  0  0  0  0  0  0  0  0
    1.3819   -1.7224    0.0000 C   0  0  0  0  0  0  0  0  0  0  0  0
  2  1  1  6
  2  3  1  0
  2 41  1  0
  3  4  1  0
  4  5  1  0
  4 38  1  0
  5  6  2  0
  5 10  1  0
  6  7  1  0
  7  8  2  0
  7 24  1  0
  8  9  1  0
  9 10  2  0
 10 11  1  0
 11 12  2  0
 11 13  1  0
 13 14  1  0
 14 15  2  0
 14 16  2  0
 14 17  1  0
 17 18  2  0
 17 22  1  0
 18 19  1  0
 19 20  1  0
 19 21  1  0
 21 22  2  0
 22 23  1  0
 24 25  1  0
 24 37  1  0
 25 26  2  0
 26 27  1  0
 27 28  1  0
 27 37  2  0
 28 29  1  0
 29 30  1  0
 30 31  1  0
 30 32  1  0
 30 33  1  0
 33 34  1  0
 33 35  1  0
 33 36  1  0
 38 39  1  0
 38 40  1  0
 38 41  1  0
M  END
>  <DRUGBANK_ID>  (1) 
DB15444

>  <COMMON_NAME>  (1) 
Elexacaftor

>  <CAS_NUMBER>  (1) 
2216712-66-0

>  <UNII>  (1) 
RRN67GMB0V

>  <SYNONYMS>  (1) 
Elexacaftor

$$$$
