1084
     RDKit          2D

 22 24  0  0  1  0  0  0  0  0999 V2000
    3.8213    1.1875    0.0000 O   0  0  0  0  0  0  0  0  0  0  0  0
    5.1662   -1.6589    0.0000 N   0  0  0  0  0  0  0  0  0  0  0  0
    6.9735   -2.0714    0.0000 N   0  0  0  0  0  0  0  0  0  0  0  0
    3.8597   -0.9950    0.0000 N   0  0  0  0  0  0  0  0  0  0  0  0
    3.8597   -2.3228    0.0000 N   0  0  0  0  0  0  0  0  0  0  0  0
    5.5242   -0.9155    0.0000 C   0  0  0  0  0  0  0  0  0  0  0  0
    5.5242   -2.4022    0.0000 C   0  0  0  0  0  0  0  0  0  0  0  0
    6.3285   -0.7320    0.0000 C   0  0  0  0  0  0  0  0  0  0  0  0
    6.3285   -2.5858    0.0000 C   0  0  0  0  0  0  0  0  0  0  0  0
    6.9735   -1.2464    0.0000 C   0  0  0  0  0  0  0  0  0  0  0  0
    4.3412   -1.6589    0.0000 C   0  0  0  0  0  0  0  0  0  0  0  0
    3.0791   -1.2464    0.0000 C   0  0  0  0  0  0  0  0  0  0  0  0
    4.1159   -0.2108    0.0000 C   0  0  0  0  0  0  0  0  0  0  0  0
    3.0791   -2.0714    0.0000 C   0  0  0  0  0  0  0  0  0  0  0  0
    7.7168   -2.4293    0.0000 C   0  0  0  0  0  0  0  0  0  0  0  0
    3.5650    0.4034    0.0000 C   0  0  0  0  0  0  0  0  0  0  0  0
    2.3645   -0.8338    0.0000 C   0  0  0  0  0  0  0  0  0  0  0  0
    2.3645   -2.4839    0.0000 C   0  0  0  0  0  0  0  0  0  0  0  0
    1.6500   -1.2464    0.0000 C   0  0  0  0  0  0  0  0  0  0  0  0
    1.6500   -2.0714    0.0000 C   0  0  0  0  0  0  0  0  0  0  0  0
    3.2703    1.8016    0.0000 C   0  0  0  0  0  0  0  0  0  0  0  0
    3.5266    2.5858    0.0000 C   0  0  0  0  0  0  0  0  0  0  0  0
  1 16  1  0
  1 21  1  0
  2  6  1  0
  2  7  1  0
  2 11  1  0
  3  9  1  0
  3 10  1  0
  3 15  1  0
  4 11  1  0
  4 12  1  0
  4 13  1  0
  5 11  2  0
  5 14  1  0
  6  8  1  0
  7  9  1  0
  8 10  1  0
 12 14  2  0
 12 17  1  0
 13 16  1  0
 14 18  1  0
 17 19  2  0
 18 20  2  0
 19 20  1  0
 21 22  1  0
M  END
>  <DRUGBANK_ID>  (1) 
DB01084

>  <SECONDARY_ACCESSION_NUMBERS>  (1) 
APRD00946

>  <COMMON_NAME>  (1) 
Emedastine

>  <CAS_NUMBER>  (1) 
87233-61-2

>  <UNII>  (1) 
9J1H7Y9OJV

>  <SYNONYMS>  (1) 
1-(2-Ethoxy-ethyl)-2-(4-methyl-[1,4]diazepan-1-yl)-1H-benzoimidazole; 1-(2-ethoxyethyl)-2-(hexahydro-4-methyl-1H-1,4-diazepin-1-yl)benzimidazole; 1-[2-(ethoxy)ethyl]-2-(4-methyl-1-homopiperazinyl)benzimidazole; Emedastina; Emedastine; Emedastinum

$$$$
