6CP
     RDKit          2D

 25 28  0  0  0  0  0  0  0  0999 V2000
    0.1175    1.4721    0.0000 C   0  0  0  0  0  0  0  0  0  0  0  0
   -2.5810    1.0596    0.0000 C   0  0  0  0  0  0  0  0  0  0  0  0
   -1.3115   -1.0029    0.0000 C   0  0  0  0  0  0  0  0  0  0  0  0
   -1.3115   -1.8279    0.0000 C   0  0  0  0  0  0  0  0  0  0  0  0
   -0.5970   -2.2404    0.0000 C   0  0  0  0  0  0  0  0  0  0  0  0
   -0.5970   -3.0654    0.0000 C   0  0  0  0  0  0  0  0  0  0  0  0
   -1.3115   -3.4779    0.0000 C   0  0  0  0  0  0  0  0  0  0  0  0
   -2.0259   -3.0654    0.0000 C   0  0  0  0  0  0  0  0  0  0  0  0
   -2.0259   -2.2404    0.0000 C   0  0  0  0  0  0  0  0  0  0  0  0
    0.1175    3.9471    0.0000 C   0  0  0  0  0  0  0  0  0  0  0  0
    0.8320    4.3596    0.0000 C   0  0  0  0  0  0  0  0  0  0  0  0
    1.5464    3.9471    0.0000 C   0  0  0  0  0  0  0  0  0  0  0  0
    1.5464    3.1221    0.0000 C   0  0  0  0  0  0  0  0  0  0  0  0
    0.1175    0.6471    0.0000 N   0  0  0  0  0  0  0  0  0  0  0  0
   -0.5970    0.2346    0.0000 C   0  0  0  0  0  0  0  0  0  0  0  0
   -0.5970   -0.5904    0.0000 O   0  0  0  0  0  0  0  0  0  0  0  0
   -1.3115    0.6471    0.0000 C   0  0  0  0  0  0  0  0  0  0  0  0
   -2.0961    0.3922    0.0000 N   0  0  0  0  0  0  0  0  0  0  0  0
   -2.0961    1.7271    0.0000 N   0  0  0  0  0  0  0  0  0  0  0  0
   -1.3115    1.4721    0.0000 C   0  0  0  0  0  0  0  0  0  0  0  0
   -0.5970    1.8846    0.0000 N   0  0  0  0  0  0  0  0  0  0  0  0
    0.8320    1.8846    0.0000 N   0  0  0  0  0  0  0  0  0  0  0  0
    0.8320    2.7096    0.0000 C   0  0  0  0  0  0  0  0  0  0  0  0
    0.1175    3.1221    0.0000 C   0  0  0  0  0  0  0  0  0  0  0  0
   -0.5970    4.3596    0.0000 Cl  0  0  0  0  0  0  0  0  0  0  0  0
  1 14  2  0
  1 21  1  0
  1 22  1  0
  2 18  1  0
  2 19  2  0
  3  4  1  0
  3 16  1  0
  4  5  1  0
  4  9  1  0
  5  6  1  0
  6  7  1  0
  7  8  1  0
  8  9  1  0
 10 11  2  0
 10 24  1  0
 10 25  1  0
 11 12  1  0
 12 13  2  0
 13 23  1  0
 14 15  1  0
 15 16  1  0
 15 17  2  0
 17 18  1  0
 17 20  1  0
 19 20  1  0
 20 21  2  0
 22 23  1  0
 23 24  2  0
M  END
>  <DRUGBANK_ID>  (1) 
DB07203

>  <COMMON_NAME>  (1) 
6-CYCLOHEXYLMETHOXY-2-(3'-CHLOROANILINO) PURINE

$$$$
