
     RDKit          2D

 11 11  0  0  0  0  0  0  0  0999 V2000
   -0.0616    0.2897    0.0000 C   0  0  0  0  0  0  0  0  0  0  0  0
    0.6529   -0.1227    0.0000 C   0  0  0  0  0  0  0  0  0  0  0  0
    1.3673    0.2897    0.0000 C   0  0  0  0  0  0  0  0  0  0  0  0
    2.0820   -0.1227    0.0000 O   0  0  0  0  0  0  0  0  0  0  0  0
    1.3673    1.1148    0.0000 O   0  0  0  0  0  0  0  0  0  0  0  0
    0.6529   -0.9478    0.0000 N   0  0  0  0  0  0  0  0  0  0  0  0
   -0.7761   -0.1227    0.0000 C   0  0  0  0  0  0  0  0  0  0  0  0
   -0.8623   -0.9432    0.0000 C   0  0  0  0  0  0  0  0  0  0  0  0
   -1.6694   -1.1148    0.0000 C   0  0  0  0  0  0  0  0  0  0  0  0
   -2.0820   -0.4002    0.0000 C   0  0  0  0  0  0  0  0  0  0  0  0
   -1.5299    0.2128    0.0000 S   0  0  0  0  0  0  0  0  0  0  0  0
  1  2  1  0
  1  7  1  0
  2  3  1  0
  2  6  1  1
  3  4  1  0
  3  5  2  0
  7  8  2  0
  7 11  1  0
  8  9  1  0
  9 10  2  0
 11 10  1  0
M  END
>  <DRUGBANK_ID>  (1) 
DB03673

>  <SECONDARY_ACCESSION_NUMBERS>  (1) 
EXPT03063

>  <COMMON_NAME>  (1) 
beta-2-Thienyl-L-alanine

>  <CAS_NUMBER>  (1) 
22951-96-8

>  <UNII>  (1) 
2EMW41BM77

>  <SYNONYMS>  (1) 
beta-(2-Thienyl)-L-alanine; L-3-(2-thienyl)alanine

$$$$
