1442
     RDKit          2D

 15 16  0  0  1  0  0  0  0  0999 V2000
    6.4461   -1.0269    0.0000 O   0  0  0  0  0  0  0  0  0  0  0  0
    6.4461    0.3009    0.0000 O   0  0  0  0  0  0  0  0  0  0  0  0
    4.9509    1.2870    0.0000 O   0  0  0  0  0  0  0  0  0  0  0  0
    2.0930   -1.1880    0.0000 N   0  0  0  0  0  0  0  0  0  0  0  0
    3.5220   -1.1880    0.0000 C   0  0  0  0  0  0  0  0  0  0  0  0
    2.8075   -0.7755    0.0000 C   0  0  0  0  0  0  0  0  0  0  0  0
    4.2365   -0.7755    0.0000 C   0  0  0  0  0  0  0  0  0  0  0  0
    4.9509   -1.1880    0.0000 C   0  0  0  0  0  0  0  0  0  0  0  0
    5.6655   -0.7755    0.0000 C   0  0  0  0  0  0  0  0  0  0  0  0
    4.2365    0.0495    0.0000 C   0  0  0  0  0  0  0  0  0  0  0  0
    5.6655    0.0495    0.0000 C   0  0  0  0  0  0  0  0  0  0  0  0
    4.9509    0.4620    0.0000 C   0  0  0  0  0  0  0  0  0  0  0  0
    2.8075    0.0495    0.0000 C   0  0  0  0  0  0  0  0  0  0  0  0
    6.9276   -0.3630    0.0000 C   0  0  0  0  0  0  0  0  0  0  0  0
    4.2365    1.6995    0.0000 C   0  0  0  0  0  0  0  0  0  0  0  0
  1  9  1  0
  1 14  1  0
  2 11  1  0
  2 14  1  0
  3 12  1  0
  3 15  1  0
  4  6  1  0
  5  6  1  0
  5  7  1  0
  6 13  1  0
  7  8  1  0
  7 10  2  0
  8  9  2  0
  9 11  1  0
 10 12  1  0
 11 12  2  0
M  END
>  <DRUGBANK_ID>  (1) 
DB01442

>  <COMMON_NAME>  (1) 
MMDA

>  <CAS_NUMBER>  (1) 
13674-05-0

>  <UNII>  (1) 
RG7FY73ZAA

>  <SYNONYMS>  (1) 
(+-)-MMDA; 3-Methoxy-4,5-methylenedioxyphenylisopropylamine; 3-Methoxy-alpha-methyl-4,5-methylenedioxyphenethylamine; 3-methoxy-methylenedioxyamphetamine; 5-Methoxy-3,4-methylenedioxyamphetamine

$$$$
