
     RDKit          2D

 35 38  0  0  0  0  0  0  0  0999 V2000
   -1.2957   -3.2236    0.0000 C   0  0  0  0  0  0  0  0  0  0  0  0
   -1.7082   -2.5091    0.0000 C   0  0  0  0  0  0  0  0  0  0  0  0
   -2.5332   -2.5091    0.0000 C   0  0  0  0  0  0  0  0  0  0  0  0
   -1.2957   -1.7947    0.0000 C   0  0  0  0  0  0  0  0  0  0  0  0
   -0.4752   -1.7084    0.0000 C   0  0  0  0  0  0  0  0  0  0  0  0
    0.0768   -2.3215    0.0000 C   0  0  0  0  0  0  0  0  0  0  0  0
    0.8838   -2.1500    0.0000 C   0  0  0  0  0  0  0  0  0  0  0  0
    1.1387   -1.3654    0.0000 C   0  0  0  0  0  0  0  0  0  0  0  0
    0.6538   -0.6979    0.0000 N   0  0  0  0  0  0  0  0  0  0  0  0
    1.1387   -0.0305    0.0000 O   0  0  0  0  0  0  0  0  0  0  0  0
    1.9233   -0.2854    0.0000 C   0  0  0  0  0  0  0  0  0  0  0  0
    2.6378    0.1271    0.0000 C   0  0  0  0  0  0  0  0  0  0  0  0
    3.3523   -0.2854    0.0000 C   0  0  0  0  0  0  0  0  0  0  0  0
    4.0668    0.1271    0.0000 O   0  0  0  0  0  0  0  0  0  0  0  0
    4.7812   -0.2854    0.0000 C   0  0  0  0  0  0  0  0  0  0  0  0
    5.4957    0.1271    0.0000 C   0  0  0  0  0  0  0  0  0  0  0  0
    6.2102   -0.2854    0.0000 O   0  0  0  0  0  0  0  0  0  0  0  0
    5.4957    0.9521    0.0000 O   0  0  0  0  0  0  0  0  0  0  0  0
    3.3523   -1.1104    0.0000 C   0  0  0  0  0  0  0  0  0  0  0  0
    4.0668   -1.5229    0.0000 C   0  0  0  0  0  0  0  0  0  0  0  0
    2.6378   -1.5229    0.0000 C   0  0  0  0  0  0  0  0  0  0  0  0
    1.9233   -1.1104    0.0000 C   0  0  0  0  0  0  0  0  0  0  0  0
   -0.3037   -0.9015    0.0000 S   0  0  0  0  0  0  0  0  0  0  0  0
   -1.0182   -0.4890    0.0000 C   0  0  0  0  0  0  0  0  0  0  0  0
   -1.6313   -1.0410    0.0000 N   0  0  0  0  0  0  0  0  0  0  0  0
   -1.1044    0.3315    0.0000 C   0  0  0  0  0  0  0  0  0  0  0  0
   -1.8581    0.6671    0.0000 C   0  0  0  0  0  0  0  0  0  0  0  0
   -1.9443    1.4876    0.0000 C   0  0  0  0  0  0  0  0  0  0  0  0
   -1.2769    1.9725    0.0000 C   0  0  0  0  0  0  0  0  0  0  0  0
   -0.5232    1.6369    0.0000 C   0  0  0  0  0  0  0  0  0  0  0  0
   -0.4370    0.8164    0.0000 C   0  0  0  0  0  0  0  0  0  0  0  0
   -1.3631    2.7930    0.0000 C   0  0  0  0  0  0  0  0  0  0  0  0
   -1.4493    3.6134    0.0000 F   0  0  0  0  0  0  0  0  0  0  0  0
   -0.5426    2.8792    0.0000 F   0  0  0  0  0  0  0  0  0  0  0  0
   -2.1836    2.7067    0.0000 F   0  0  0  0  0  0  0  0  0  0  0  0
  1  2  1  0
  2  3  1  0
  2  4  1  0
  4  5  2  0
  4 25  1  0
  5  6  1  0
  5 23  1  0
  6  7  1  0
  7  8  1  0
  8  9  2  0
  8 22  1  0
  9 10  1  0
 10 11  1  0
 11 12  1  0
 11 22  2  0
 12 13  2  0
 13 14  1  0
 13 19  1  0
 14 15  1  0
 15 16  1  0
 16 17  1  0
 16 18  2  0
 19 20  1  0
 19 21  2  0
 21 22  1  0
 23 24  1  0
 24 25  2  0
 24 26  1  0
 26 27  2  0
 26 31  1  0
 27 28  1  0
 28 29  2  0
 29 30  1  0
 29 32  1  0
 30 31  2  0
 32 33  1  0
 32 34  1  0
 32 35  1  0
M  END
>  <DRUGBANK_ID>  (1) 
DB16169

>  <COMMON_NAME>  (1) 
Fonadelpar

>  <CAS_NUMBER>  (1) 
515138-06-4

>  <UNII>  (1) 
FK5ZAD810Z

>  <SYNONYMS>  (1) 
Fonadelpar

$$$$
