709
     RDKit          2D

 24 26  0  0  0  0  0  0  0  0999 V2000
    0.0923   -2.0319    0.0000 C   0  0  0  0  0  0  0  0  0  0  0  0
   -0.6221   -2.4444    0.0000 C   0  0  0  0  0  0  0  0  0  0  0  0
   -1.3366   -2.0319    0.0000 C   0  0  0  0  0  0  0  0  0  0  0  0
   -1.3366   -1.2069    0.0000 C   0  0  0  0  0  0  0  0  0  0  0  0
   -0.6221   -0.7944    0.0000 C   0  0  0  0  0  0  0  0  0  0  0  0
    0.0923   -1.2069    0.0000 C   0  0  0  0  0  0  0  0  0  0  0  0
    0.8068   -0.7944    0.0000 C   0  0  0  0  0  0  0  0  0  0  0  0
    1.5213   -1.2069    0.0000 C   0  0  0  0  0  0  0  0  0  0  0  0
    1.5213   -2.0319    0.0000 C   0  0  0  0  0  0  0  0  0  0  0  0
    0.8068   -2.4444    0.0000 C   0  0  0  0  0  0  0  0  0  0  0  0
   -2.0511   -0.7944    0.0000 C   0  0  0  0  0  0  0  0  0  0  0  0
   -2.7655   -1.2069    0.0000 N   0  0  0  0  0  0  0  0  0  0  0  0
   -2.0511    0.0306    0.0000 N   0  0  0  0  0  0  0  0  0  0  0  0
    0.8068    0.0306    0.0000 N   0  0  0  0  0  0  0  0  0  0  0  0
    0.0923    0.4431    0.0000 C   0  0  0  0  0  0  0  0  0  0  0  0
    0.0923    1.2681    0.0000 C   0  0  0  0  0  0  0  0  0  0  0  0
   -0.6221    0.0306    0.0000 O   0  0  0  0  0  0  0  0  0  0  0  0
   -0.6221    1.6806    0.0000 C   0  0  0  0  0  0  0  0  0  0  0  0
   -0.6221    2.5056    0.0000 C   0  0  0  0  0  0  0  0  0  0  0  0
    0.0923    2.9181    0.0000 C   0  0  0  0  0  0  0  0  0  0  0  0
    0.8068    2.5056    0.0000 C   0  0  0  0  0  0  0  0  0  0  0  0
    0.8068    1.6806    0.0000 C   0  0  0  0  0  0  0  0  0  0  0  0
    1.5213    1.2681    0.0000 C   0  0  0  0  0  0  0  0  0  0  0  0
    1.5213    2.9181    0.0000 O   0  0  0  0  0  0  0  0  0  0  0  0
  1  2  2  0
  1  6  1  0
  1 10  1  0
  2  3  1  0
  3  4  2  0
  4  5  1  0
  4 11  1  0
  5  6  2  0
  6  7  1  0
  7  8  2  0
  7 14  1  0
  8  9  1  0
  9 10  2  0
 11 12  1  0
 11 13  2  0
 14 15  1  0
 15 16  1  0
 15 17  2  0
 16 18  2  0
 16 22  1  0
 18 19  1  0
 19 20  2  0
 20 21  1  0
 21 22  2  0
 21 24  1  0
 22 23  1  0
M  END
>  <DRUGBANK_ID>  (1) 
DB07212

>  <COMMON_NAME>  (1) 
N-(7-CARBAMIMIDOYL-NAPHTHALEN-1-YL)-3-HYDROXY-2-METHYL-BENZAMIDE

$$$$
