
     RDKit          2D

 11 12  0  0  0  0  0  0  0  0999 V2000
   -1.7052   -1.2363    0.0000 N   0  0  0  0  0  0  0  0  0  0  0  0
   -0.9925   -0.8236    0.0000 C   0  0  0  0  0  0  0  0  0  0  0  0
   -0.2762   -1.2363    0.0000 N   0  0  0  0  0  0  0  0  0  0  0  0
    0.4366   -0.8236    0.0000 C   0  0  0  0  0  0  0  0  0  0  0  0
    1.2209   -1.0794    0.0000 C   0  0  0  0  0  0  0  0  0  0  0  0
    1.7052   -0.4109    0.0000 C   0  0  0  0  0  0  0  0  0  0  0  0
    1.2209    0.2541    0.0000 N   0  0  0  0  0  0  0  0  0  0  0  0
    0.4366    0.0017    0.0000 C   0  0  0  0  0  0  0  0  0  0  0  0
   -0.2762    0.4109    0.0000 C   0  0  0  0  0  0  0  0  0  0  0  0
   -0.2762    1.2363    0.0000 O   0  0  0  0  0  0  0  0  0  0  0  0
   -0.9925    0.0017    0.0000 N   0  0  0  0  0  0  0  0  0  0  0  0
  1  2  1  0
  2  3  2  0
  2 11  1  0
  3  4  1  0
  4  5  1  0
  4  8  2  0
  5  6  2  0
  6  7  1  0
  7  8  1  0
  8  9  1  0
  9 10  2  0
  9 11  1  0
M  END
>  <DRUGBANK_ID>  (1) 
DB04356

>  <SECONDARY_ACCESSION_NUMBERS>  (1) 
EXPT00356

>  <COMMON_NAME>  (1) 
9-Deazaguanine

>  <CAS_NUMBER>  (1) 
65996-58-9

>  <UNII>  (1) 
H2O1DD3CAN

$$$$
