SC9
     RDKit          2D

 24 27  0  0  0  0  0  0  0  0999 V2000
   -1.6218    1.4825    0.0000 C   0  0  0  0  0  0  0  0  0  0  0  0
   -0.8372    1.2276    0.0000 N   0  0  0  0  0  0  0  0  0  0  0  0
   -0.8372    0.4026    0.0000 C   0  0  0  0  0  0  0  0  0  0  0  0
   -1.6218    0.1477    0.0000 N   0  0  0  0  0  0  0  0  0  0  0  0
   -2.1067    0.8151    0.0000 C   0  0  0  0  0  0  0  0  0  0  0  0
   -0.1227    1.6401    0.0000 C   0  0  0  0  0  0  0  0  0  0  0  0
    0.5918    1.2276    0.0000 C   0  0  0  0  0  0  0  0  0  0  0  0
    0.5918    0.4026    0.0000 N   0  0  0  0  0  0  0  0  0  0  0  0
   -0.1227   -0.0099    0.0000 C   0  0  0  0  0  0  0  0  0  0  0  0
   -0.1227   -0.8349    0.0000 N   0  0  0  0  0  0  0  0  0  0  0  0
   -0.8372   -1.2474    0.0000 C   0  0  0  0  0  0  0  0  0  0  0  0
   -0.8372   -2.0724    0.0000 C   0  0  0  0  0  0  0  0  0  0  0  0
   -1.5516   -2.4849    0.0000 C   0  0  0  0  0  0  0  0  0  0  0  0
   -1.5516   -3.3099    0.0000 C   0  0  0  0  0  0  0  0  0  0  0  0
   -0.8372   -3.7224    0.0000 C   0  0  0  0  0  0  0  0  0  0  0  0
   -0.1227   -3.3099    0.0000 N   0  0  0  0  0  0  0  0  0  0  0  0
   -0.1227   -2.4849    0.0000 C   0  0  0  0  0  0  0  0  0  0  0  0
    1.3063    1.6401    0.0000 C   0  0  0  0  0  0  0  0  0  0  0  0
    2.0207    1.2276    0.0000 C   0  0  0  0  0  0  0  0  0  0  0  0
    2.7352    1.6401    0.0000 C   0  0  0  0  0  0  0  0  0  0  0  0
    2.7352    2.4651    0.0000 C   0  0  0  0  0  0  0  0  0  0  0  0
    2.0207    2.8776    0.0000 C   0  0  0  0  0  0  0  0  0  0  0  0
    1.3063    2.4651    0.0000 C   0  0  0  0  0  0  0  0  0  0  0  0
    2.0207    0.4026    0.0000 F   0  0  0  0  0  0  0  0  0  0  0  0
  1  5  2  0
  1  2  1  0
  2  6  1  0
  2  3  1  0
  3  9  1  0
  4  3  2  0
  5  4  1  0
  6  7  2  0
  7 18  1  0
  7  8  1  0
  9  8  2  0
  9 10  1  0
 10 11  1  0
 12 11  1  0
 13 12  2  0
 14 13  1  0
 15 14  2  0
 15 16  1  0
 16 17  2  0
 17 12  1  0
 18 23  2  0
 19 20  2  0
 19 18  1  0
 20 21  1  0
 21 22  2  0
 23 22  1  0
 24 19  1  0
M  END
>  <DRUGBANK_ID>  (1) 
DB08532

>  <COMMON_NAME>  (1) 
6-(2-fluorophenyl)-N-(pyridin-3-ylmethyl)imidazo[1,2-a]pyrazin-8-amine

$$$$
