
     RDKit          2D

 36 39  0  0  1  0  0  0  0  0999 V2000
   -4.2624    1.6923    0.0000 C   0  0  0  0  0  0  0  0  0  0  0  0
   -3.5479    1.2798    0.0000 C   0  0  0  0  0  0  0  0  0  0  0  0
   -3.5479    0.4548    0.0000 C   0  0  0  0  0  0  0  0  0  0  0  0
   -2.8334    0.0423    0.0000 O   0  0  0  0  0  0  0  0  0  0  0  0
   -2.8334   -0.7827    0.0000 C   0  0  0  0  0  0  0  0  0  0  0  0
   -2.1190   -1.1952    0.0000 C   0  0  0  0  0  0  0  0  0  0  0  0
   -2.1190   -2.0202    0.0000 C   0  0  0  0  0  0  0  0  0  0  0  0
   -1.4045   -2.4327    0.0000 C   0  0  0  0  0  0  0  0  0  0  0  0
   -0.6900   -2.0202    0.0000 N   0  0  0  0  0  0  0  0  0  0  0  0
    0.0244   -2.4327    0.0000 C   0  0  0  0  0  0  0  0  0  0  0  0
    0.7389   -2.0202    0.0000 C   0  0  0  0  0  0  0  0  0  0  0  0
    1.4534   -2.4327    0.0000 C   0  0  0  0  0  0  0  0  0  0  0  0
    2.1678   -2.0202    0.0000 O   0  0  0  0  0  0  0  0  0  0  0  0
    2.8823   -2.4327    0.0000 C   0  0  0  0  0  0  0  0  0  0  0  0
    3.5968   -2.0202    0.0000 C   0  0  0  0  0  0  0  0  0  0  0  0
    4.3113   -2.4327    0.0000 C   0  0  0  0  0  0  0  0  0  0  0  0
    4.3113   -3.2577    0.0000 C   0  0  0  0  0  0  0  0  0  0  0  0
    5.0257   -3.6702    0.0000 O   0  0  0  0  0  0  0  0  0  0  0  0
    5.7402   -3.2577    0.0000 C   0  0  0  0  0  0  0  0  0  0  0  0
    3.5968   -3.6702    0.0000 C   0  0  0  0  0  0  0  0  0  0  0  0
    2.8823   -3.2577    0.0000 C   0  0  0  0  0  0  0  0  0  0  0  0
   -0.6900   -1.1952    0.0000 C   0  0  0  0  0  0  0  0  0  0  0  0
   -0.0226   -0.7103    0.0000 N   0  0  0  0  0  0  0  0  0  0  0  0
   -0.2775    0.0744    0.0000 C   0  0  0  0  0  0  0  0  0  0  0  0
   -1.1025    0.0744    0.0000 C   0  0  0  0  0  0  0  0  0  0  0  0
   -1.3575   -0.7103    0.0000 O   0  0  0  0  0  0  0  0  0  0  0  0
   -1.5150    0.7888    0.0000 C   0  0  0  0  0  0  0  0  0  0  0  0
   -1.1025    1.5033    0.0000 C   0  0  0  0  0  0  0  0  0  0  0  0
   -0.2775    1.5033    0.0000 C   0  0  0  0  0  0  0  0  0  0  0  0
    0.1350    0.7888    0.0000 C   0  0  0  0  0  0  0  0  0  0  0  0
   -2.8334   -2.4327    0.0000 C   0  0  0  0  0  0  0  0  0  0  0  0
   -3.5479   -2.0202    0.0000 C   0  0  0  0  0  0  0  0  0  0  0  0
   -3.5479   -1.1952    0.0000 C   0  0  0  0  0  0  0  0  0  0  0  0
   -4.2624    0.0423    0.0000 C   0  0  0  0  0  0  0  0  0  0  0  0
   -4.2624   -0.7827    0.0000 O   0  0  0  0  0  0  0  0  0  0  0  0
   -4.9769    0.4548    0.0000 O   0  0  0  0  0  0  0  0  0  0  0  0
  1  2  1  0
  3  2  1  1
  3  4  1  0
  3 34  1  0
  4  5  1  0
  5  6  2  0
  5 33  1  0
  6  7  1  0
  7  8  1  0
  7 31  2  0
  8  9  1  0
  9 10  1  0
  9 22  1  0
 10 11  1  0
 11 12  1  0
 12 13  1  0
 13 14  1  0
 14 15  2  0
 14 21  1  0
 15 16  1  0
 16 17  2  0
 17 18  1  0
 17 20  1  0
 18 19  1  0
 20 21  2  0
 22 23  2  0
 22 26  1  0
 23 24  1  0
 24 25  2  0
 24 30  1  0
 25 26  1  0
 25 27  1  0
 27 28  2  0
 28 29  1  0
 29 30  2  0
 31 32  1  0
 32 33  2  0
 34 35  1  0
 34 36  2  0
M  END
>  <DRUGBANK_ID>  (1) 
DB15212

>  <COMMON_NAME>  (1) 
Pemafibrate

>  <CAS_NUMBER>  (1) 
848259-27-8

>  <UNII>  (1) 
17VGG92R23

>  <SYNONYMS>  (1) 
Pemafibrate

$$$$
