
     RDKit          2D

 42 47  0  0  0  0  0  0  0  0999 V2000
    0.1536    1.3672    0.0000 C   0  0  0  0  0  0  0  0  0  0  0  0
   -0.3984    0.7541    0.0000 C   0  0  0  0  0  0  0  0  0  0  0  0
   -0.1435   -0.0305    0.0000 N   0  0  0  0  0  0  0  0  0  0  0  0
   -0.6284   -0.6979    0.0000 C   0  0  0  0  0  0  0  0  0  0  0  0
   -0.1435   -1.3654    0.0000 N   0  0  0  0  0  0  0  0  0  0  0  0
    0.6411   -1.1104    0.0000 C   0  0  0  0  0  0  0  0  0  0  0  0
    0.6411   -0.2854    0.0000 C   0  0  0  0  0  0  0  0  0  0  0  0
    1.3556    0.1271    0.0000 C   0  0  0  0  0  0  0  0  0  0  0  0
    2.0701   -0.2854    0.0000 C   0  0  0  0  0  0  0  0  0  0  0  0
    2.7845    0.1271    0.0000 O   0  0  0  0  0  0  0  0  0  0  0  0
    3.4990   -0.2854    0.0000 C   0  0  0  0  0  0  0  0  0  0  0  0
    4.2135    0.1271    0.0000 C   0  0  0  0  0  0  0  0  0  0  0  0
    4.9279   -0.2854    0.0000 C   0  0  0  0  0  0  0  0  0  0  0  0
    5.6424    0.1271    0.0000 N   0  0  0  0  0  0  0  0  0  0  0  0
    6.3569   -0.2854    0.0000 C   0  0  0  0  0  0  0  0  0  0  0  0
    6.3569   -1.1104    0.0000 O   0  0  0  0  0  0  0  0  0  0  0  0
    7.0714    0.1271    0.0000 C   0  0  0  0  0  0  0  0  0  0  0  0
    7.0714    0.9521    0.0000 C   0  0  0  0  0  0  0  0  0  0  0  0
    7.7858    1.3646    0.0000 C   0  0  0  0  0  0  0  0  0  0  0  0
    8.5003    0.9521    0.0000 C   0  0  0  0  0  0  0  0  0  0  0  0
    9.2148    1.3646    0.0000 O   0  0  0  0  0  0  0  0  0  0  0  0
    9.9292    0.9521    0.0000 C   0  0  0  0  0  0  0  0  0  0  0  0
   10.6437    1.3646    0.0000 C   0  0  0  0  0  0  0  0  0  0  0  0
   11.3582    0.9521    0.0000 N   0  0  0  0  0  0  0  0  0  0  0  0
   12.0726    1.3646    0.0000 C   0  0  0  0  0  0  0  0  0  0  0  0
   12.7871    0.9521    0.0000 C   0  0  0  0  0  0  0  0  0  0  0  0
   12.7871    0.1271    0.0000 O   0  0  0  0  0  0  0  0  0  0  0  0
   12.0726   -0.2854    0.0000 C   0  0  0  0  0  0  0  0  0  0  0  0
   11.3582    0.1271    0.0000 C   0  0  0  0  0  0  0  0  0  0  0  0
    8.5003    0.1271    0.0000 C   0  0  0  0  0  0  0  0  0  0  0  0
    7.7858   -0.2854    0.0000 C   0  0  0  0  0  0  0  0  0  0  0  0
    4.9279   -1.1104    0.0000 C   0  0  0  0  0  0  0  0  0  0  0  0
    4.2135   -1.5229    0.0000 C   0  0  0  0  0  0  0  0  0  0  0  0
    3.4990   -1.1104    0.0000 C   0  0  0  0  0  0  0  0  0  0  0  0
    2.0701   -1.1104    0.0000 N   0  0  0  0  0  0  0  0  0  0  0  0
    1.3556   -1.5229    0.0000 C   0  0  0  0  0  0  0  0  0  0  0  0
   -1.4534   -0.6979    0.0000 C   0  0  0  0  0  0  0  0  0  0  0  0
   -1.9384   -1.3654    0.0000 N   0  0  0  0  0  0  0  0  0  0  0  0
   -2.7230   -1.1104    0.0000 O   0  0  0  0  0  0  0  0  0  0  0  0
   -2.7230   -0.2854    0.0000 N   0  0  0  0  0  0  0  0  0  0  0  0
   -1.9384   -0.0305    0.0000 C   0  0  0  0  0  0  0  0  0  0  0  0
   -1.6834    0.7541    0.0000 N   0  0  0  0  0  0  0  0  0  0  0  0
  1  2  1  0
  2  3  1  0
  3  4  1  0
  3  7  1  0
  4  5  2  0
  4 37  1  0
  5  6  1  0
  6  7  2  0
  6 36  1  0
  7  8  1  0
  8  9  2  0
  9 10  1  0
  9 35  1  0
 10 11  1  0
 11 12  2  0
 11 34  1  0
 12 13  1  0
 13 14  1  0
 13 32  2  0
 14 15  1  0
 15 16  2  0
 15 17  1  0
 17 18  2  0
 17 31  1  0
 18 19  1  0
 19 20  2  0
 20 21  1  0
 20 30  1  0
 21 22  1  0
 22 23  1  0
 23 24  1  0
 24 25  1  0
 24 29  1  0
 25 26  1  0
 26 27  1  0
 27 28  1  0
 28 29  1  0
 30 31  2  0
 32 33  1  0
 33 34  2  0
 35 36  2  0
 37 38  2  0
 37 41  1  0
 38 39  1  0
 39 40  1  0
 40 41  2  0
 41 42  1  0
M  END
>  <DRUGBANK_ID>  (1) 
DB17030

>  <COMMON_NAME>  (1) 
GSK-269962A

>  <CAS_NUMBER>  (1) 
850664-21-0

>  <UNII>  (1) 
F89KMM7TE2

>  <SYNONYMS>  (1) 
Benzamide, n-(3-((2-(4-amino-1,2,5-oxadiazol-3-yl)-1-ethyl-1h-imidazo(4,5-c)pyridin-6-yl)oxy)phenyl)-4-(2-(4-morpholinyl)ethoxy)-; N-(3-((2-(4-amino-1,2,5-oxadiazol-3-yl)-1-ethyl-1h-imidazo(4,5-c)pyridin-6-yl)oxy)phenyl)-4-(2-(4-morpholinyl)ethoxy)benzamide

$$$$
