SHM
     RDKit          2D

 17 18  0  0  0  0  0  0  0  0999 V2000
   -2.2016   -0.5131    0.0000 C   0  0  0  0  0  0  0  0  0  0  0  0
   -1.6496    0.1000    0.0000 C   0  0  0  0  0  0  0  0  0  0  0  0
   -2.0621    0.8144    0.0000 N   0  0  0  0  0  0  0  0  0  0  0  0
   -2.8690    0.6429    0.0000 C   0  0  0  0  0  0  0  0  0  0  0  0
   -2.9553   -0.1776    0.0000 N   0  0  0  0  0  0  0  0  0  0  0  0
   -0.8959   -0.2356    0.0000 C   0  0  0  0  0  0  0  0  0  0  0  0
   -0.9821   -1.0561    0.0000 S   0  0  0  0  0  0  0  0  0  0  0  0
   -1.7891   -1.2276    0.0000 C   0  0  0  0  0  0  0  0  0  0  0  0
   -0.1814    0.1769    0.0000 C   0  0  0  0  0  0  0  0  0  0  0  0
    0.5331   -0.2356    0.0000 C   0  0  0  0  0  0  0  0  0  0  0  0
    1.2475    0.1769    0.0000 C   0  0  0  0  0  0  0  0  0  0  0  0
    1.9620   -0.2356    0.0000 C   0  0  0  0  0  0  0  0  0  0  0  0
    2.6765    0.1769    0.0000 C   0  0  0  0  0  0  0  0  0  0  0  0
    3.3909   -0.2356    0.0000 C   0  0  0  0  0  0  0  0  0  0  0  0
    4.1054    0.1769    0.0000 O   0  0  0  0  0  0  0  0  0  0  0  0
    3.3909   -1.0606    0.0000 O   0  0  0  0  0  0  0  0  0  0  0  0
   -3.4821    1.1949    0.0000 O   0  0  0  0  0  0  0  0  0  0  0  0
  1  2  1  0
  1  5  1  0
  1  8  1  6
  2  3  1  6
  2  6  1  0
  3  4  1  0
  4  5  1  0
  4 17  2  0
  6  7  1  0
  6  9  1  6
  7  8  1  0
  9 10  1  0
 10 11  1  0
 11 12  1  0
 12 13  1  0
 13 14  1  0
 14 15  2  0
 14 16  1  0
M  END
>  <DRUGBANK_ID>  (1) 
DB03112

>  <SECONDARY_ACCESSION_NUMBERS>  (1) 
EXPT02904

>  <COMMON_NAME>  (1) 
6-(2-Oxo-Hexahydro-Thieno[3,4-D]Imidazol-4-Yl)-Hexanoic Acid

$$$$
