
     RDKit          2D

  8  8  0  0  0  0  0  0  0  0999 V2000
   -0.0022    0.6604    0.0000 N   0  0  0  0  0  0  0  0  0  0  0  0
    0.6674    0.1734    0.0000 C   0  0  0  0  0  0  0  0  0  0  0  0
    0.4104   -0.6111    0.0000 C   0  0  0  0  0  0  0  0  0  0  0  0
    0.8943   -1.2787    0.0000 N   0  0  0  0  0  0  0  0  0  0  0  0
   -0.4150   -0.6111    0.0000 C   0  0  0  0  0  0  0  0  0  0  0  0
   -0.6676    0.1734    0.0000 C   0  0  0  0  0  0  0  0  0  0  0  0
    1.4518    0.4272    0.0000 O   0  0  0  0  0  0  0  0  0  0  0  0
   -1.4518    0.4280    0.0000 O   0  0  0  0  0  0  0  0  0  0  0  0
  1  2  1  0
  1  6  1  0
  2  3  1  0
  2  7  2  0
  3  4  1  1
  3  5  1  0
  5  6  1  0
  6  8  2  0
M  END
>  <DRUGBANK_ID>  (1) 
DB03487

>  <SECONDARY_ACCESSION_NUMBERS>  (1) 
EXPT02930

>  <COMMON_NAME>  (1) 
(S)-Aspartimide

>  <CAS_NUMBER>  (1) 
73537-92-5

>  <SYNONYMS>  (1) 
3-aminosuccinimide

$$$$
