
     RDKit          2D

 11 11  0  0  0  0  0  0  0  0999 V2000
   -0.3585    0.0151    0.0000 C   0  0  0  0  0  0  0  0  0  0  0  0
   -0.3585    0.8287    0.0000 C   0  0  0  0  0  0  0  0  0  0  0  0
   -1.0743   -0.3951    0.0000 O   0  0  0  0  0  0  0  0  0  0  0  0
    0.3594   -0.3951    0.0000 C   0  0  0  0  0  0  0  0  0  0  0  0
    0.3594    1.2367    0.0000 N   0  0  0  0  0  0  0  0  0  0  0  0
   -1.0929    1.2204    0.0000 C   0  0  0  0  0  0  0  0  0  0  0  0
    1.0751    0.0151    0.0000 C   0  0  0  0  0  0  0  0  0  0  0  0
    0.3594   -1.2367    0.0000 O   0  0  0  0  0  0  0  0  0  0  0  0
    1.0751    0.8287    0.0000 C   0  0  0  0  0  0  0  0  0  0  0  0
    1.7931   -0.4185    0.0000 O   0  0  0  0  0  0  0  0  0  0  0  0
   -1.7931    0.7840    0.0000 O   0  0  0  0  0  0  0  0  0  0  0  0
  1  2  1  0
  1  3  1  6
  1  4  1  0
  2  5  1  0
  2  6  1  1
  4  7  1  0
  4  8  1  1
  5  9  1  0
  6 11  1  0
  7 10  1  6
  7  9  1  0
M  END
>  <DRUGBANK_ID>  (1) 
DB03206

>  <SECONDARY_ACCESSION_NUMBERS>  (1) 
EXPT01227; EXPT02374; EXPT01236

>  <COMMON_NAME>  (1) 
Duvoglustat

>  <CAS_NUMBER>  (1) 
19130-96-2

>  <UNII>  (1) 
FZ56898FLE

>  <SYNONYMS>  (1) 
(+)-1-Deoxynojirimycin; 1 deoxynojirimycin; 1-deoxy-nojirimycin; 1-deoxynojirimycin; 1,5-deoxy-1,5-imino-D-mannitol; 1,5-dideoxy-1,5-imino-D-glucitol; 5-amino-1,5-dideoxy-D-glucopyranose; D-1-deoxynojirimycin; Deoxynojirimycin; DNJ; Duvoglustat

$$$$
