
     RDKit          2D

 21 20  0  0  0  0  0  0  0  0999 V2000
    4.1539   -0.9908    0.0000 C   0  0  0  0  0  0  0  0  0  0  0  0
    3.4394    0.2467    0.0000 N   0  0  0  0  0  0  0  0  0  0  0  0
    3.4394   -0.5783    0.0000 C   0  0  0  0  0  0  0  0  0  0  0  0
    2.7250   -0.9908    0.0000 C   0  0  0  0  0  0  0  0  0  0  0  0
    2.0105   -0.5783    0.0000 C   0  0  0  0  0  0  0  0  0  0  0  0
    1.2960   -0.9908    0.0000 C   0  0  0  0  0  0  0  0  0  0  0  0
    0.5815   -0.5783    0.0000 N   0  0  0  0  0  0  0  0  0  0  0  0
   -0.1329   -0.9908    0.0000 C   0  0  0  0  0  0  0  0  0  0  0  0
   -0.1329   -1.8158    0.0000 N   0  0  0  0  0  0  0  0  0  0  0  0
   -0.8474   -0.5783    0.0000 N   0  0  0  0  0  0  0  0  0  0  0  0
    4.1539   -1.8158    0.0000 O   0  0  0  0  0  0  0  0  0  0  0  0
    4.8684   -0.5783    0.0000 O   0  0  0  0  0  0  0  0  0  0  0  0
   -2.1063    0.9183    0.0000 C   0  0  0  0  0  0  0  0  0  0  0  0
   -3.4163    1.5858    0.0000 N   0  0  0  0  0  0  0  0  0  0  0  0
   -2.9313    0.9183    0.0000 C   0  0  0  0  0  0  0  0  0  0  0  0
   -3.4163    0.2509    0.0000 C   0  0  0  0  0  0  0  0  0  0  0  0
   -4.2009    0.5058    0.0000 C   0  0  0  0  0  0  0  0  0  0  0  0
   -4.2009    1.3308    0.0000 C   0  0  0  0  0  0  0  0  0  0  0  0
   -1.6938    0.2038    0.0000 O   0  0  0  0  0  0  0  0  0  0  0  0
   -1.6938    1.6328    0.0000 O   0  0  0  0  0  0  0  0  0  0  0  0
   -4.8684    1.8158    0.0000 O   0  0  0  0  0  0  0  0  0  0  0  0
  1 11  2  0
  1 12  1  0
  1  3  1  0
  3  2  1  6
  3  4  1  0
  4  5  1  0
  5  6  1  0
  6  7  1  0
  7  8  1  0
  8  9  2  0
  8 10  1  0
 13 19  2  0
 13 20  1  0
 14 15  1  0
 14 18  1  0
 15 13  1  6
 15 16  1  0
 16 17  1  0
 17 18  1  0
 18 21  2  0
M  END
>  <DRUGBANK_ID>  (1) 
DB16025

>  <COMMON_NAME>  (1) 
Arginine PCA

>  <CAS_NUMBER>  (1) 
56265-06-6

>  <UNII>  (1) 
808T94CEU6

>  <SYNONYMS>  (1) 
Arginine pidolate; Arginine pyroglutamate; L-arginine L-2-pyrrolidone-5-carboxylate

$$$$
