
     RDKit          2D

 23 25  0  0  0  0  0  0  0  0999 V2000
   -3.5288   -0.4403    0.0000 Cl  0  0  0  0  0  0  0  0  0  0  0  0
    0.7017   -1.2654    0.0000 O   0  0  0  0  0  0  0  0  0  0  0  0
    1.9155    2.4154    0.0000 O   0  0  0  0  0  0  0  0  0  0  0  0
    1.0709   -0.2002    0.0000 N   0  0  0  0  0  0  0  0  0  0  0  0
   -0.6047   -1.9293    0.0000 N   0  0  0  0  0  0  0  0  0  0  0  0
    2.9757    1.4575    0.0000 N   0  0  0  0  0  0  0  0  0  0  0  0
    0.4588    0.3528    0.0000 C   0  0  0  0  0  0  0  0  0  0  0  0
    0.7956    1.1059    0.0000 C   0  0  0  0  0  0  0  0  0  0  0  0
    1.6160    1.0183    0.0000 C   0  0  0  0  0  0  0  0  0  0  0  0
    1.7861    0.2110    0.0000 C   0  0  0  0  0  0  0  0  0  0  0  0
   -0.6047   -0.6015    0.0000 C   0  0  0  0  0  0  0  0  0  0  0  0
   -0.3484    0.1827    0.0000 C   0  0  0  0  0  0  0  0  0  0  0  0
   -1.3854   -0.8529    0.0000 C   0  0  0  0  0  0  0  0  0  0  0  0
   -1.3854   -1.6779    0.0000 C   0  0  0  0  0  0  0  0  0  0  0  0
   -0.1232   -1.2654    0.0000 C   0  0  0  0  0  0  0  0  0  0  0  0
    0.3844    1.8211    0.0000 C   0  0  0  0  0  0  0  0  0  0  0  0
    2.5392   -0.1258    0.0000 C   0  0  0  0  0  0  0  0  0  0  0  0
    2.1690    1.6304    0.0000 C   0  0  0  0  0  0  0  0  0  0  0  0
   -2.0998   -0.4403    0.0000 C   0  0  0  0  0  0  0  0  0  0  0  0
   -2.0998   -2.0904    0.0000 C   0  0  0  0  0  0  0  0  0  0  0  0
   -2.8144   -0.8529    0.0000 C   0  0  0  0  0  0  0  0  0  0  0  0
   -2.8144   -1.6779    0.0000 C   0  0  0  0  0  0  0  0  0  0  0  0
    3.5288    2.0696    0.0000 C   0  0  0  0  0  0  0  0  0  0  0  0
  1 21  1  0
  2 15  2  0
  3 18  2  0
  4  7  1  0
  4 10  1  0
  5 14  1  0
  5 15  1  0
  6 18  1  0
  6 23  1  0
  7  8  2  0
  7 12  1  0
  8  9  1  0
  8 16  1  0
  9 10  2  0
  9 18  1  0
 10 17  1  0
 11 12  2  0
 11 13  1  0
 11 15  1  0
 13 14  2  0
 13 19  1  0
 14 20  1  0
 19 21  2  0
 20 22  2  0
 21 22  1  0
M  END
>  <DRUGBANK_ID>  (1) 
DB07180

>  <COMMON_NAME>  (1) 
5-[(Z)-(5-Chloro-2-oxo-1,2-dihydro-3H-indol-3-ylidene)methyl]-N,2,4-trimethyl-1H-pyrrole-3-carboxamide

$$$$
