
     RDKit          2D

 29 33  0  0  0  0  0  0  0  0999 V2000
    1.8691    1.4098    0.0000 C   0  0  0  0  0  0  0  0  0  0  0  0
    2.5830    0.9965    0.0000 S   0  0  0  0  0  0  0  0  0  0  0  0
    3.1969    1.5477    0.0000 N   0  0  0  0  0  0  0  0  0  0  0  0
    2.8622    2.3019    0.0000 C   0  0  0  0  0  0  0  0  0  0  0  0
    2.0416    2.2166    0.0000 N   0  0  0  0  0  0  0  0  0  0  0  0
   -2.5942   -0.0473    0.0000 C   0  0  0  0  0  0  0  0  0  0  0  0
   -1.8802   -0.4607    0.0000 C   0  0  0  0  0  0  0  0  0  0  0  0
   -2.4216    0.7594    0.0000 C   0  0  0  0  0  0  0  0  0  0  0  0
   -1.6011    0.8447    0.0000 C   0  0  0  0  0  0  0  0  0  0  0  0
   -1.2642    0.0913    0.0000 C   0  0  0  0  0  0  0  0  0  0  0  0
   -0.4435    0.1789    0.0000 C   0  0  0  0  0  0  0  0  0  0  0  0
   -0.2732    0.9864    0.0000 N   0  0  0  0  0  0  0  0  0  0  0  0
   -0.9886    1.3979    0.0000 C   0  0  0  0  0  0  0  0  0  0  0  0
    0.4372    1.4079    0.0000 C   0  0  0  0  0  0  0  0  0  0  0  0
    1.1512    0.9946    0.0000 N   0  0  0  0  0  0  0  0  0  0  0  0
    0.4331    2.2346    0.0000 O   0  0  0  0  0  0  0  0  0  0  0  0
    3.0719    3.1073    0.0000 O   0  0  0  0  0  0  0  0  0  0  0  0
    3.8986    3.1073    0.0000 C   0  0  0  0  0  0  0  0  0  0  0  0
   -3.1766   -1.4606    0.0000 C   0  0  0  0  0  0  0  0  0  0  0  0
   -3.8937   -1.8679    0.0000 N   0  0  0  0  0  0  0  0  0  0  0  0
   -3.8986   -2.6908    0.0000 C   0  0  0  0  0  0  0  0  0  0  0  0
   -3.1870   -3.1073    0.0000 N   0  0  0  0  0  0  0  0  0  0  0  0
   -2.4677   -1.8735    0.0000 C   0  0  0  0  0  0  0  0  0  0  0  0
   -2.4659   -2.6954    0.0000 C   0  0  0  0  0  0  0  0  0  0  0  0
   -1.6837   -2.9477    0.0000 N   0  0  0  0  0  0  0  0  0  0  0  0
   -1.2020   -2.2816    0.0000 C   0  0  0  0  0  0  0  0  0  0  0  0
   -1.6866   -1.6178    0.0000 C   0  0  0  0  0  0  0  0  0  0  0  0
   -3.1827   -0.6337    0.0000 N   0  0  0  0  0  0  0  0  0  0  0  0
   -3.7714   -0.0450    0.0000 C   0  0  0  0  0  0  0  0  0  0  0  0
  1  2  1  0
  2  3  1  0
  3  4  2  0
  4 17  1  0
  4  5  1  0
  5  1  2  0
  6  7  1  0
  6 28  1  6
 10  7  1  1
  8  6  1  0
  9  8  1  1
  9 10  1  0
 10 11  1  0
 11 12  1  0
 12 13  1  0
 12 14  1  0
 13  9  1  0
 14 15  1  0
 14 16  2  0
 15  1  1  0
 17 18  1  0
 19 20  2  0
 19 28  1  0
 20 21  1  0
 21 22  2  0
 22 24  1  0
 23 19  1  0
 23 24  2  0
 24 25  1  0
 25 26  1  0
 26 27  2  0
 27 23  1  0
 28 29  1  0
M  END
>  <DRUGBANK_ID>  (1) 
DB16756

>  <COMMON_NAME>  (1) 
Ivarmacitinib

>  <CAS_NUMBER>  (1) 
1445987-21-2

>  <UNII>  (1) 
K6K4B9Z5TV

>  <SYNONYMS>  (1) 
Ivarmacitinib

$$$$
