
     RDKit          2D

  5  4  0  0  0  0  0  0  0  0999 V2000
    0.8250    1.4289    0.0000 O   0  0  0  0  0  0  0  0  0  0  0  0
    1.2375    0.7145    0.0000 C   0  0  0  0  0  0  0  0  0  0  0  0
    0.8250    0.0000    0.0000 C   0  0  0  0  0  0  0  0  0  0  0  0
    1.2375   -0.7145    0.0000 Br  0  0  0  0  0  0  0  0  0  0  0  0
    0.0000    0.0000    0.0000 C   0  0  0  0  0  0  0  0  0  0  0  0
  1  2  1  0
  2  3  1  0
  3  4  1  0
  3  5  2  0
M  END
>  <DRUGBANK_ID>  (1) 
DB04320

>  <SECONDARY_ACCESSION_NUMBERS>  (1) 
EXPT00755

>  <COMMON_NAME>  (1) 
2-Bromo-2-Propene-1-Ol

$$$$
