
     RDKit          2D

 23 26  0  0  0  0  0  0  0  0999 V2000
    5.6480   -3.0852    0.0000 C   0  0  0  0  0  0  0  0  0  0  0  0
    1.4837    0.8510    0.0000 C   0  0  0  0  0  0  0  0  0  0  0  0
    1.6673    1.6553    0.0000 C   0  0  0  0  0  0  0  0  0  0  0  0
    2.0884    0.2898    0.0000 C   0  0  0  0  0  0  0  0  0  0  0  0
    2.4556    1.8985    0.0000 C   0  0  0  0  0  0  0  0  0  0  0  0
    5.9401    1.6553    0.0000 C   0  0  0  0  0  0  0  0  0  0  0  0
    5.1517    1.8985    0.0000 C   0  0  0  0  0  0  0  0  0  0  0  0
    5.7548   -1.6603    0.0000 C   0  0  0  0  0  0  0  0  0  0  0  0
    4.4673   -2.2803    0.0000 C   0  0  0  0  0  0  0  0  0  0  0  0
    5.3968   -0.9170    0.0000 C   0  0  0  0  0  0  0  0  0  0  0  0
    4.1094   -1.5370    0.0000 C   0  0  0  0  0  0  0  0  0  0  0  0
    5.5189    0.2898    0.0000 C   0  0  0  0  0  0  0  0  0  0  0  0
    6.1237    0.8510    0.0000 C   0  0  0  0  0  0  0  0  0  0  0  0
    4.7305    0.5330    0.0000 C   0  0  0  0  0  0  0  0  0  0  0  0
    2.8768    0.5330    0.0000 C   0  0  0  0  0  0  0  0  0  0  0  0
    4.5470    1.3373    0.0000 C   0  0  0  0  0  0  0  0  0  0  0  0
    3.0604    1.3373    0.0000 C   0  0  0  0  0  0  0  0  0  0  0  0
    4.2162   -0.1120    0.0000 C   0  0  0  0  0  0  0  0  0  0  0  0
    6.9120    0.6078    0.0000 Cl  0  0  0  0  0  0  0  0  0  0  0  0
    3.3912   -0.1120    0.0000 N   0  0  0  0  0  0  0  0  0  0  0  0
    5.2900   -2.3419    0.0000 N   0  0  0  0  0  0  0  0  0  0  0  0
    4.5741   -0.8553    0.0000 N   0  0  0  0  0  0  0  0  0  0  0  0
    3.8037    1.6953    0.0000 S   0  0  0  0  0  0  0  0  0  0  0  0
  3  2  2  0
  4  2  1  0
  5  3  1  0
  7  6  1  0
 10  8  1  0
 11  9  1  0
 13  6  2  0
 13 12  1  0
 14 12  2  0
 15  4  2  0
 16  7  2  0
 16 14  1  0
 17  5  2  0
 17 15  1  0
 18 14  1  0
 19 13  1  0
 20 15  1  0
 20 18  2  0
 21  1  1  0
 21  8  1  0
 21  9  1  0
 22 10  1  0
 22 11  1  0
 22 18  1  0
 23 16  1  0
 23 17  1  0
M  END
>  <DRUGBANK_ID>  (1) 
DB13256

>  <COMMON_NAME>  (1) 
Clothiapine

>  <CAS_NUMBER>  (1) 
2058-52-8

>  <UNII>  (1) 
Z05HCY0X1T

>  <SYNONYMS>  (1) 
Clothiapine; Clotiapina; Clotiapine

$$$$
