
     RDKit          2D

 15 15  0  0  0  0  0  0  0  0999 V2000
   -1.0716    0.2062    0.0000 C   0  0  0  0  0  0  0  0  0  0  0  0
   -0.3571   -0.2062    0.0000 C   0  0  0  0  0  0  0  0  0  0  0  0
    0.3572    0.2062    0.0000 C   0  0  0  0  0  0  0  0  0  0  0  0
    1.0717   -0.2062    0.0000 N   0  0  0  0  0  0  0  0  0  0  0  0
    1.7862    0.2062    0.0000 C   0  0  0  0  0  0  0  0  0  0  0  0
    2.5006   -0.2062    0.0000 N   0  0  0  0  0  0  0  0  0  0  0  0
   -1.7861    1.4437    0.0000 C   0  0  0  0  0  0  0  0  0  0  0  0
   -2.5006    1.0312    0.0000 C   0  0  0  0  0  0  0  0  0  0  0  0
   -2.5006    0.2062    0.0000 C   0  0  0  0  0  0  0  0  0  0  0  0
   -1.7861   -0.2062    0.0000 C   0  0  0  0  0  0  0  0  0  0  0  0
   -1.0716    1.0312    0.0000 C   0  0  0  0  0  0  0  0  0  0  0  0
   -0.3571   -1.0312    0.0000 C   0  0  0  0  0  0  0  0  0  0  0  0
   -1.0716   -1.4437    0.0000 C   0  0  0  0  0  0  0  0  0  0  0  0
    0.3572    1.0312    0.0000 O   0  0  0  0  0  0  0  0  0  0  0  0
    1.7862    1.0312    0.0000 O   0  0  0  0  0  0  0  0  0  0  0  0
  1 11  2  0
  1  2  1  0
  2  3  1  0
  2 12  1  0
  3  4  1  0
  3 14  2  0
  4  5  1  0
  5  6  1  0
  5 15  2  0
  7  8  2  0
  8  9  1  0
  9 10  2  0
 10  1  1  0
 11  7  1  0
 12 13  1  0
M  END
>  <DRUGBANK_ID>  (1) 
DB13362

>  <COMMON_NAME>  (1) 
Pheneturide

>  <CAS_NUMBER>  (1) 
90-49-3

>  <UNII>  (1) 
878CEJ4HGX

>  <SYNONYMS>  (1) 
Ethylphenacemide; Feneturida; Pheneturide; Pheneturidum; Phenylethylacetyluree

$$$$
