
     RDKit          2D

  9  8  0  0  0  0  0  0  0  0999 V2000
   -1.0801    0.2152    0.0000 C   0  0  0  0  0  0  0  0  0  0  0  0
   -0.3686   -0.2178    0.0000 C   0  0  0  0  0  0  0  0  0  0  0  0
   -1.0801    1.0376    0.0000 O   0  0  0  0  0  0  0  0  0  0  0  0
   -0.3686   -1.0376    0.0000 O   0  0  0  0  0  0  0  0  0  0  0  0
    0.3351    0.1946    0.0000 C   0  0  0  0  0  0  0  0  0  0  0  0
   -1.7865   -0.1946    0.0000 O   0  0  0  0  0  0  0  0  0  0  0  0
    1.0466   -0.2101    0.0000 C   0  0  0  0  0  0  0  0  0  0  0  0
    0.3351    1.0196    0.0000 C   0  0  0  0  0  0  0  0  0  0  0  0
    1.7865    0.1765    0.0000 C   0  0  0  0  0  0  0  0  0  0  0  0
  2  1  1  0
  3  1  2  0
  4  2  2  0
  5  2  1  0
  5  8  1  1
  6  1  1  0
  7  5  1  0
  9  7  1  0
M  END
>  <DRUGBANK_ID>  (1) 
DB15833

>  <COMMON_NAME>  (1) 
alpha-Keto-isoleucine

>  <CAS_NUMBER>  (1) 
24809-08-3

>  <UNII>  (1) 
XQL9PAO004

>  <SYNONYMS>  (1) 
L-2-Keto-3-methylvalerate

$$$$
