2S2
     RDKit          2D

 17 18  0  0  0  0  0  0  0  0999 V2000
   -0.1868   -1.3664    0.0000 O   0  0  0  0  0  0  0  0  0  0  0  0
   -0.5993   -0.6519    0.0000 C   0  0  0  0  0  0  0  0  0  0  0  0
   -1.4243   -0.6519    0.0000 O   0  0  0  0  0  0  0  0  0  0  0  0
   -0.1868    0.0626    0.0000 C   0  0  0  0  0  0  0  0  0  0  0  0
    0.6382    0.0626    0.0000 C   0  0  0  0  0  0  0  0  0  0  0  0
    1.0507   -0.6519    0.0000 C   0  0  0  0  0  0  0  0  0  0  0  0
    1.8757   -0.6519    0.0000 C   0  0  0  0  0  0  0  0  0  0  0  0
    2.2882   -1.3664    0.0000 C   0  0  0  0  0  0  0  0  0  0  0  0
   -0.5993    0.7770    0.0000 C   0  0  0  0  0  0  0  0  0  0  0  0
   -1.4198    0.8633    0.0000 C   0  0  0  0  0  0  0  0  0  0  0  0
   -2.0329    0.3112    0.0000 C   0  0  0  0  0  0  0  0  0  0  0  0
   -2.8175    0.5662    0.0000 C   0  0  0  0  0  0  0  0  0  0  0  0
   -2.9891    1.3732    0.0000 C   0  0  0  0  0  0  0  0  0  0  0  0
   -2.3760    1.9252    0.0000 C   0  0  0  0  0  0  0  0  0  0  0  0
   -1.5913    1.6702    0.0000 C   0  0  0  0  0  0  0  0  0  0  0  0
   -0.8769    2.0827    0.0000 N   0  0  0  0  0  0  0  0  0  0  0  0
   -0.2638    1.5307    0.0000 C   0  0  0  0  0  0  0  0  0  0  0  0
  2  1  1  0
  3  2  2  0
  4  2  1  0
  4  9  1  0
  4  5  1  6
  6  5  1  0
  7  6  1  0
  8  7  1  0
  9 10  1  0
 10 11  2  0
 11 12  1  0
 13 12  2  0
 14 13  1  0
 15 10  1  0
 15 14  2  0
 16 15  1  0
 17  9  2  0
 17 16  1  0
M  END
>  <DRUGBANK_ID>  (1) 
DB06980

>  <COMMON_NAME>  (1) 
(2S)-2-(1H-indol-3-yl)hexanoic acid

$$$$
