
     RDKit          2D

 21 24  0  0  1  0  0  0  0  0999 V2000
   -0.6313    0.4816    0.0000 C   0  0  0  0  0  0  0  0  0  0  0  0
   -0.6313   -0.3341    0.0000 C   0  0  0  0  0  0  0  0  0  0  0  0
   -1.3456    0.0852    0.0000 C   0  0  0  0  0  0  0  0  0  0  0  0
   -2.0645   -0.3341    0.0000 C   0  0  0  0  0  0  0  0  0  0  0  0
   -2.0645   -1.1591    0.0000 C   0  0  0  0  0  0  0  0  0  0  0  0
   -2.7743   -1.5691    0.0000 O   0  0  0  0  0  0  0  0  0  0  0  0
   -1.3456   -1.5692    0.0000 C   0  0  0  0  0  0  0  0  0  0  0  0
   -0.6313   -1.1591    0.0000 C   0  0  0  0  0  0  0  0  0  0  0  0
    0.0783   -1.5692    0.0000 C   0  0  0  0  0  0  0  0  0  0  0  0
    0.7926   -1.1591    0.0000 C   0  0  0  0  0  0  0  0  0  0  0  0
    0.7926   -0.3341    0.0000 C   0  0  0  0  0  0  0  0  0  0  0  0
    1.5024    0.0852    0.0000 C   0  0  0  0  0  0  0  0  0  0  0  0
    1.5024    0.8963    0.0000 C   0  0  0  0  0  0  0  0  0  0  0  0
    1.5024    1.7213    0.0000 C   0  0  0  0  0  0  0  0  0  0  0  0
    0.7926    1.3203    0.0000 C   0  0  0  0  0  0  0  0  0  0  0  0
    0.0783    0.8963    0.0000 C   0  0  0  0  0  0  0  0  0  0  0  0
    0.0783    0.0852    0.0000 C   0  0  0  0  0  0  0  0  0  0  0  0
    2.2951    1.1544    0.0000 C   0  0  0  0  0  0  0  0  0  0  0  0
    2.2951    1.9792    0.0000 O   0  0  0  0  0  0  0  0  0  0  0  0
    2.7743    0.4955    0.0000 C   0  0  0  0  0  0  0  0  0  0  0  0
    2.2951   -0.1774    0.0000 C   0  0  0  0  0  0  0  0  0  0  0  0
  2  1  1  1
  3  2  1  0
  4  3  1  0
  5  4  1  0
  5  6  1  6
  5  7  1  0
  8  7  1  1
  8  2  1  0
  9  8  1  0
 10  9  1  0
 11 10  1  6
 11 17  1  0
 12 11  1  0
 13 12  1  0
 13 14  1  1
 13 15  1  0
 15 16  1  0
 17 16  1  1
 17  2  1  0
 18 13  1  0
 18 19  1  1
 18 20  1  0
 20 21  1  0
 12 21  1  1
M  END
>  <DRUGBANK_ID>  (1) 
DB01530

>  <COMMON_NAME>  (1) 
5alpha-androstane-3alpha,17beta-diol

>  <CAS_NUMBER>  (1) 
1852-53-5

>  <UNII>  (1) 
J34MX0M30Y

>  <SYNONYMS>  (1) 
17beta-dihydroandrosterone; 3alpha-androstanediol; 3alpha,17beta-dihydroxy-5alpha-androstane; 3α,17β-dihydroxy-5α-androstane; Dihydroandrosterone; hombreol

$$$$
