
     RDKit          2D

 23 25  0  0  0  0  0  0  0  0999 V2000
    2.4762   -0.7191    0.0000 C   0  0  0  0  0  0  0  0  0  0  0  0
    1.7617   -1.1316    0.0000 O   0  0  0  0  0  0  0  0  0  0  0  0
    1.0472   -0.7191    0.0000 C   0  0  0  0  0  0  0  0  0  0  0  0
    0.3327   -1.1316    0.0000 C   0  0  0  0  0  0  0  0  0  0  0  0
   -0.3816   -0.7191    0.0000 C   0  0  0  0  0  0  0  0  0  0  0  0
   -0.3816    0.1058    0.0000 C   0  0  0  0  0  0  0  0  0  0  0  0
    0.3327    0.5184    0.0000 C   0  0  0  0  0  0  0  0  0  0  0  0
    1.0472    0.1058    0.0000 C   0  0  0  0  0  0  0  0  0  0  0  0
   -1.1663    0.3608    0.0000 N   0  0  0  0  0  0  0  0  0  0  0  0
   -1.6512   -0.3066    0.0000 C   0  0  0  0  0  0  0  0  0  0  0  0
   -1.1663   -0.9740    0.0000 C   0  0  0  0  0  0  0  0  0  0  0  0
   -1.4212   -1.7586    0.0000 C   0  0  0  0  0  0  0  0  0  0  0  0
   -0.8692   -2.3717    0.0000 C   0  0  0  0  0  0  0  0  0  0  0  0
   -0.0622   -2.2001    0.0000 O   0  0  0  0  0  0  0  0  0  0  0  0
   -1.1241   -3.1563    0.0000 O   0  0  0  0  0  0  0  0  0  0  0  0
   -2.4762   -0.3066    0.0000 C   0  0  0  0  0  0  0  0  0  0  0  0
   -1.4212    1.1455    0.0000 C   0  0  0  0  0  0  0  0  0  0  0  0
   -0.8692    1.7586    0.0000 C   0  0  0  0  0  0  0  0  0  0  0  0
   -1.1241    2.5432    0.0000 C   0  0  0  0  0  0  0  0  0  0  0  0
   -0.5721    3.1563    0.0000 C   0  0  0  0  0  0  0  0  0  0  0  0
    0.2348    2.9848    0.0000 C   0  0  0  0  0  0  0  0  0  0  0  0
    0.4897    2.2002    0.0000 C   0  0  0  0  0  0  0  0  0  0  0  0
   -0.0622    1.5871    0.0000 C   0  0  0  0  0  0  0  0  0  0  0  0
  1  2  1  0
  3  2  1  0
  3  4  2  0
  3  8  1  0
  4  5  1  0
  5  6  2  0
  6  7  1  0
  6  9  1  0
  7  8  2  0
 10  9  1  0
 10 11  2  0
 10 16  1  0
 11  5  1  0
 11 12  1  0
 12 13  1  0
 13 14  1  0
 13 15  2  0
 17  9  1  0
 17 18  1  0
 18 19  2  0
 18 23  1  0
 19 20  1  0
 20 21  2  0
 21 22  1  0
 22 23  2  0
M  END
>  <DRUGBANK_ID>  (1) 
DB03121

>  <SECONDARY_ACCESSION_NUMBERS>  (1) 
EXPT01810

>  <COMMON_NAME>  (1) 
(1-Benzyl-5-methoxy-2-methyl-1H-indol-3-yl)acetic acid

>  <CAS_NUMBER>  (1) 
59283-35-1

>  <UNII>  (1) 
5JSR5TT2JJ

$$$$
