
     RDKit          2D

  4  0  0  0  0  0  0  0  0  0999 V2000
    0.4125    0.0000    0.0000 Fe  0  0  0  0  0 15  0  0  0  0  0  0
   -0.4125    0.0000    0.0000 O   0  0  0  0  0  0  0  0  0  0  0  0
    2.7696    0.0000    0.0000 O   0  0  0  0  0  0  0  0  0  0  0  0
    0.0000   -1.6500    0.0000 O   0  0  0  0  0  0  0  0  0  0  0  0
M  CHG  4   1   3   2  -1   3  -1   4  -1
M  END
>  <DRUGBANK_ID>  (1) 
DB13423

>  <COMMON_NAME>  (1) 
Ferric hydroxide

>  <CAS_NUMBER>  (1) 
1309-33-7

>  <UNII>  (1) 
2UA751211N

$$$$
