
     RDKit          2D

 38 41  0  0  1  0  0  0  0  0999 V2000
   11.5613  -12.7979    0.0000 N   0  0  0  0  0  0  0  0  0  0  0  0
   12.1444  -13.3816    0.0000 C   0  0  0  0  0  0  0  0  0  0  0  0
   12.9414  -13.1685    0.0000 N   0  0  0  0  0  0  0  0  0  0  0  0
   13.1554  -12.3717    0.0000 C   0  0  0  0  0  0  0  0  0  0  0  0
   12.5723  -11.7880    0.0000 C   0  0  0  0  0  0  0  0  0  0  0  0
   11.7753  -12.0012    0.0000 C   0  0  0  0  0  0  0  0  0  0  0  0
   13.8906  -11.9976    0.0000 N   0  0  0  0  0  0  0  0  0  0  0  0
   13.7620  -11.1826    0.0000 C   0  0  0  0  0  0  0  0  0  0  0  0
   12.9472  -11.0532    0.0000 N   0  0  0  0  0  0  0  0  0  0  0  0
   14.6255  -12.3725    0.0000 C   0  0  0  0  0  0  0  0  0  0  0  0
   14.7541  -13.1874    0.0000 C   0  0  0  0  0  0  0  0  0  0  0  0
   15.5689  -13.3168    0.0000 C   0  0  0  0  0  0  0  0  0  0  0  0
   15.9438  -12.5820    0.0000 C   0  0  0  0  0  0  0  0  0  0  0  0
   15.3608  -11.9983    0.0000 O   0  0  0  0  0  0  0  0  0  0  0  0
   16.7588  -12.4533    0.0000 C   0  0  0  0  0  0  0  0  0  0  0  0
   17.2776  -13.0947    0.0000 O   0  0  0  0  0  0  0  0  0  0  0  0
   18.0925  -12.9661    0.0000 P   0  0  0  0  0  0  0  0  0  0  0  0
   18.6114  -13.6075    0.0000 O   0  0  0  0  0  0  0  0  0  0  0  0
   19.4263  -13.4789    0.0000 P   0  0  0  0  0  0  0  0  0  0  0  0
   19.7223  -12.7088    0.0000 O   0  0  0  0  0  0  0  0  0  0  0  0
   19.9452  -14.1202    0.0000 O   0  0  0  0  0  0  0  0  0  0  0  0
   20.7601  -13.9916    0.0000 C   0  0  0  0  0  0  0  0  0  0  0  0
   18.3885  -12.1960    0.0000 O   0  0  0  0  0  0  0  0  0  0  0  0
   17.5737  -12.3247    0.0000 O   0  0  0  0  0  0  0  0  0  0  0  0
   18.9074  -12.8375    0.0000 O   0  0  0  0  0  0  0  0  0  0  0  0
   21.2789  -14.6330    0.0000 C   0  0  0  0  0  0  0  0  0  0  0  0
   22.0939  -14.5044    0.0000 C   0  0  0  0  0  0  0  0  0  0  0  0
   22.3899  -13.7344    0.0000 C   0  0  0  0  0  0  0  0  0  0  0  0
   21.8710  -13.0929    0.0000 C   0  0  0  0  0  0  0  0  0  0  0  0
   21.0561  -13.2216    0.0000 O   0  0  0  0  0  0  0  0  0  0  0  0
   23.2048  -13.6057    0.0000 O   0  0  0  0  0  0  0  0  0  0  0  0
   22.1671  -12.3229    0.0000 C   0  0  0  0  0  0  0  0  0  0  0  0
   22.6127  -15.1458    0.0000 O   0  0  0  0  0  0  0  0  0  0  0  0
   20.9829  -15.4031    0.0000 O   0  0  0  0  0  0  0  0  0  0  0  0
   11.1922  -11.4175    0.0000 O   0  0  0  0  0  0  0  0  0  0  0  0
   11.9305  -14.1784    0.0000 N   0  0  0  0  0  0  0  0  0  0  0  0
   14.1705  -13.7705    0.0000 O   0  0  0  0  0  0  0  0  0  0  0  0
   15.9431  -14.0521    0.0000 O   0  0  0  0  0  0  0  0  0  0  0  0
  1  2  2  0
  2  3  1  0
  2 36  1  0
  3  4  1  0
  4  5  2  0
  4  7  1  0
  5  6  1  0
  6  1  1  0
  6 35  2  0
  7  8  1  0
  8  9  2  0
  9  5  1  0
 10  7  1  6
 10 11  1  0
 11 12  1  0
 11 37  1  1
 12 13  1  0
 12 38  1  1
 13 14  1  0
 13 15  1  6
 14 10  1  0
 15 16  1  0
 16 17  1  0
 17 18  1  0
 17 23  1  0
 17 24  2  0
 18 19  1  0
 19 20  1  0
 19 21  1  0
 19 25  2  0
 22 21  1  1
 22 26  1  0
 26 27  1  0
 26 34  1  6
 27 28  1  0
 27 33  1  6
 28 29  1  0
 28 31  1  1
 29 30  1  0
 29 32  1  6
 30 22  1  0
M  END
>  <DRUGBANK_ID>  (1) 
DB02547

>  <SECONDARY_ACCESSION_NUMBERS>  (1) 
EXPT01574

>  <COMMON_NAME>  (1) 
Guanosine-5'-Diphosphate-Rhamnose

$$$$
