
     RDKit          2D

 42 47  0  0  1  0  0  0  0  0999 V2000
    1.8816    3.8755    0.0000 C   0  0  0  0  0  0  0  0  0  0  0  0
    2.1365    3.0908    0.0000 C   0  0  0  0  0  0  0  0  0  0  0  0
    1.5845    2.4778    0.0000 C   0  0  0  0  0  0  0  0  0  0  0  0
    2.9435    2.9193    0.0000 O   0  0  0  0  0  0  0  0  0  0  0  0
    3.1984    2.1347    0.0000 C   0  0  0  0  0  0  0  0  0  0  0  0
    4.0054    1.9632    0.0000 C   0  0  0  0  0  0  0  0  0  0  0  0
    4.5574    2.5763    0.0000 F   0  0  0  0  0  0  0  0  0  0  0  0
    4.2603    1.1785    0.0000 C   0  0  0  0  0  0  0  0  0  0  0  0
    3.7083    0.5655    0.0000 C   0  0  0  0  0  0  0  0  0  0  0  0
    2.9013    0.7370    0.0000 C   0  0  0  0  0  0  0  0  0  0  0  0
    2.6464    1.5216    0.0000 C   0  0  0  0  0  0  0  0  0  0  0  0
    3.9633   -0.2192    0.0000 C   0  0  0  0  0  0  0  0  0  0  0  0
    3.4783   -0.8866    0.0000 N   0  0  0  0  0  0  0  0  0  0  0  0
    3.9633   -1.5540    0.0000 N   0  0  0  0  0  0  0  0  0  0  0  0
    3.7083   -2.3387    0.0000 C   0  0  0  0  0  0  0  0  0  0  0  0
    4.2603   -2.9518    0.0000 C   0  0  0  0  0  0  0  0  0  0  0  0
    2.9013   -2.5102    0.0000 C   0  0  0  0  0  0  0  0  0  0  0  0
    2.6464   -3.2948    0.0000 C   0  0  0  0  0  0  0  0  0  0  0  0
    3.1984   -3.9079    0.0000 C   0  0  0  0  0  0  0  0  0  0  0  0
    4.0054   -3.7364    0.0000 C   0  0  0  0  0  0  0  0  0  0  0  0
    4.5574   -4.3495    0.0000 C   0  0  0  0  0  0  0  0  0  0  0  0
    4.3025   -5.1341    0.0000 C   0  0  0  0  0  0  0  0  0  0  0  0
    3.4955   -5.3056    0.0000 C   0  0  0  0  0  0  0  0  0  0  0  0
    3.2406   -6.0902    0.0000 F   0  0  0  0  0  0  0  0  0  0  0  0
    2.9435   -4.6925    0.0000 C   0  0  0  0  0  0  0  0  0  0  0  0
    1.8394   -3.4663    0.0000 C   0  0  0  0  0  0  0  0  0  0  0  0
    1.5845   -4.2510    0.0000 O   0  0  0  0  0  0  0  0  0  0  0  0
    1.2874   -2.8532    0.0000 C   0  0  0  0  0  0  0  0  0  0  0  0
    0.4804   -3.0248    0.0000 C   0  0  0  0  0  0  0  0  0  0  0  0
   -0.0716   -2.4117    0.0000 C   0  0  0  0  0  0  0  0  0  0  0  0
   -0.8786   -2.5832    0.0000 F   0  0  0  0  0  0  0  0  0  0  0  0
    0.1833   -1.6271    0.0000 C   0  0  0  0  0  0  0  0  0  0  0  0
    0.9903   -1.4555    0.0000 C   0  0  0  0  0  0  0  0  0  0  0  0
    1.5423   -2.0686    0.0000 C   0  0  0  0  0  0  0  0  0  0  0  0
    2.3493   -1.8971    0.0000 O   0  0  0  0  0  0  0  0  0  0  0  0
    4.7479   -1.2991    0.0000 C   0  0  0  0  0  0  0  0  0  0  0  0
    4.7479   -0.4741    0.0000 C   0  0  0  0  0  0  0  0  0  0  0  0
    5.4623   -0.0616    0.0000 C   0  0  0  0  0  0  0  0  0  0  0  0
    5.4623    0.7634    0.0000 N   0  0  0  0  0  0  0  0  0  0  0  0
    6.1768   -0.4741    0.0000 N   0  0  0  0  0  0  0  0  0  0  0  0
    6.1768   -1.2991    0.0000 C   0  0  0  0  0  0  0  0  0  0  0  0
    5.4623   -1.7116    0.0000 N   0  0  0  0  0  0  0  0  0  0  0  0
  1  2  1  0
  2  3  1  0
  2  4  1  0
  4  5  1  0
  5  6  2  0
  5 11  1  0
  6  7  1  0
  6  8  1  0
  8  9  2  0
  9 10  1  0
  9 12  1  0
 10 11  2  0
 12 13  2  0
 12 37  1  0
 13 14  1  0
 14 36  1  0
 15 14  1  0
 15 16  1  1
 15 17  1  0
 17 18  2  0
 17 35  1  0
 18 19  1  0
 18 26  1  0
 19 20  2  0
 19 25  1  0
 20 21  1  0
 21 22  2  0
 22 23  1  0
 23 24  1  0
 23 25  2  0
 26 27  2  0
 26 28  1  0
 28 29  2  0
 28 34  1  0
 29 30  1  0
 30 31  1  0
 30 32  2  0
 32 33  1  0
 33 34  2  0
 34 35  1  0
 36 37  2  0
 36 42  1  0
 37 38  1  0
 38 39  1  0
 38 40  2  0
 40 41  1  0
 41 42  2  0
M  END
>  <DRUGBANK_ID>  (1) 
DB14989

>  <COMMON_NAME>  (1) 
Umbralisib

>  <CAS_NUMBER>  (1) 
1532533-67-7

>  <UNII>  (1) 
38073MQB2A

>  <SYNONYMS>  (1) 
Umbralisib

$$$$
