Pregnenolone.mol
     RDKit          2D

 16 16  0  0  0  0  0  0  0  0999 V2000
    1.1026   -1.6660    0.0000 N   0  0  0  0  0  0  0  0  0  0  0  0
    0.2776   -1.6660    0.0000 C   0  0  0  0  0  0  0  0  0  0  0  0
    0.0227   -0.8814    0.0000 C   0  0  0  0  0  0  0  0  0  0  0  0
    0.6901   -0.3965    0.0000 C   0  0  0  0  0  0  0  0  0  0  0  0
    1.3576   -0.8814    0.0000 C   0  0  0  0  0  0  0  0  0  0  0  0
   -2.1422   -0.9963    0.0000 C   0  0  0  0  0  0  0  0  0  0  0  0
   -1.3453   -1.2098    0.0000 C   0  0  0  0  0  0  0  0  0  0  0  0
   -0.7619   -0.6265    0.0000 C   0  0  0  0  0  0  0  0  0  0  0  0
   -2.7255   -1.5797    0.0000 O   0  0  0  0  0  0  0  0  0  0  0  0
   -2.3557   -0.1994    0.0000 O   0  0  0  0  0  0  0  0  0  0  0  0
    0.6901    0.4285    0.0000 C   0  0  0  0  0  0  0  0  0  0  0  0
   -0.0243    0.8410    0.0000 C   0  0  0  0  0  0  0  0  0  0  0  0
   -0.0243    1.6660    0.0000 O   0  0  0  0  0  0  0  0  0  0  0  0
   -0.7388    0.4285    0.0000 O   0  0  0  0  0  0  0  0  0  0  0  0
    2.1422   -0.6265    0.0000 C   0  0  0  0  0  0  0  0  0  0  0  0
    2.7255   -1.2098    0.0000 N   0  0  0  0  0  0  0  0  0  0  0  0
  1  2  1  0
  1  5  1  0
  2  3  2  0
  3  4  1  0
  3  8  1  0
  4  5  2  0
  4 11  1  0
  5 15  1  0
  6  7  1  0
  6  9  2  0
  6 10  1  0
  7  8  1  0
 11 12  1  0
 12 13  2  0
 12 14  1  0
 15 16  1  0
M  END
>  <DRUGBANK_ID>  (1) 
DB02272

>  <SECONDARY_ACCESSION_NUMBERS>  (1) 
EXPT02507

>  <COMMON_NAME>  (1) 
Porphobilinogen

>  <CAS_NUMBER>  (1) 
487-90-1

>  <UNII>  (1) 
74KHC72QXK

>  <SYNONYMS>  (1) 
5-(Aminomethyl)-4-(carboxymethyl)-1H-pyrrole-3-propionic acid; Porphobilinogen

$$$$
