
     RDKit          2D

 22 25  0  0  1  0  0  0  0  0999 V2000
    1.2751   -0.5107    0.0000 C   0  0  0  0  0  0  0  0  0  0  0  0
    0.9948   -1.2866    0.0000 C   0  0  0  0  0  0  0  0  0  0  0  0
    0.1827   -1.4318    0.0000 C   0  0  0  0  0  0  0  0  0  0  0  0
   -0.0976   -2.2077    0.0000 C   0  0  0  0  0  0  0  0  0  0  0  0
   -0.9098   -2.3529    0.0000 O   0  0  0  0  0  0  0  0  0  0  0  0
    0.4342   -2.8384    0.0000 C   0  0  0  0  0  0  0  0  0  0  0  0
    1.2463   -2.6932    0.0000 C   0  0  0  0  0  0  0  0  0  0  0  0
    1.5266   -1.9173    0.0000 C   0  0  0  0  0  0  0  0  0  0  0  0
    2.3387   -1.7721    0.0000 C   0  0  0  0  0  0  0  0  0  0  0  0
    2.6190   -0.9961    0.0000 C   0  0  0  0  0  0  0  0  0  0  0  0
    3.4311   -0.8509    0.0000 C   0  0  0  0  0  0  0  0  0  0  0  0
    3.9629   -1.4816    0.0000 C   0  0  0  0  0  0  0  0  0  0  0  0
    3.6826   -2.2576    0.0000 C   0  0  0  0  0  0  0  0  0  0  0  0
    2.8705   -2.4028    0.0000 C   0  0  0  0  0  0  0  0  0  0  0  0
    2.5902   -3.1787    0.0000 C   0  0  0  0  0  0  0  0  0  0  0  0
    1.7781   -3.3239    0.0000 C   0  0  0  0  0  0  0  0  0  0  0  0
    4.3340   -2.7639    0.0000 C   0  0  0  0  0  0  0  0  0  0  0  0
    5.0168   -2.3009    0.0000 C   0  0  0  0  0  0  0  0  0  0  0  0
    4.7875   -1.5084    0.0000 C   0  0  0  0  0  0  0  0  0  0  0  0
    5.2939   -0.8571    0.0000 O   0  0  0  0  0  0  0  0  0  0  0  0
    4.3228   -0.7393    0.0000 C   0  0  0  0  0  0  0  0  0  0  0  0
    1.8069   -1.1414    0.0000 C   0  0  0  0  0  0  0  0  0  0  0  0
  1  2  1  0
  2  3  2  0
  2  8  1  0
  3  4  1  0
  4  5  2  0
  4  6  1  0
  6  7  2  0
  7  8  1  0
  7 16  1  0
  8  9  1  0
  8 22  1  1
  9 10  1  1
  9 14  1  0
 10 11  1  0
 11 12  1  0
 12 13  1  0
 12 19  1  0
 12 21  1  1
 13 14  1  0
 13 17  1  1
 14 15  1  6
 15 16  1  0
 17 18  1  0
 18 19  1  0
 19 20  2  0
M  END
>  <DRUGBANK_ID>  (1) 
DB12194

>  <COMMON_NAME>  (1) 
Atamestane

>  <CAS_NUMBER>  (1) 
96301-34-7

>  <UNII>  (1) 
62GA3K28B6

>  <SYNONYMS>  (1) 
Atamestane

$$$$
