1536
     RDKit          2D

 21 24  0  0  1  0  0  0  0  0999 V2000
    7.1353    1.7956    0.0000 O   0  0  0  0  0  0  0  0  0  0  0  0
    1.6498   -1.7578    0.0000 O   0  0  0  0  0  0  0  0  0  0  0  0
    5.3842   -0.4772    0.0000 C   0  0  0  0  0  0  0  0  0  0  0  0
    4.6697   -0.0648    0.0000 C   0  0  0  0  0  0  0  0  0  0  0  0
    6.0985   -0.0648    0.0000 C   0  0  0  0  0  0  0  0  0  0  0  0
    6.0985    0.7601    0.0000 C   0  0  0  0  0  0  0  0  0  0  0  0
    3.9191   -0.4829    0.0000 C   0  0  0  0  0  0  0  0  0  0  0  0
    4.6697    0.7601    0.0000 C   0  0  0  0  0  0  0  0  0  0  0  0
    5.3842    1.1725    0.0000 C   0  0  0  0  0  0  0  0  0  0  0  0
    5.3974   -1.3363    0.0000 C   0  0  0  0  0  0  0  0  0  0  0  0
    6.8790   -0.3162    0.0000 C   0  0  0  0  0  0  0  0  0  0  0  0
    3.9125   -1.3421    0.0000 C   0  0  0  0  0  0  0  0  0  0  0  0
    6.8790    1.0115    0.0000 C   0  0  0  0  0  0  0  0  0  0  0  0
    4.6566   -1.7717    0.0000 C   0  0  0  0  0  0  0  0  0  0  0  0
    7.3604    0.3477    0.0000 C   0  0  0  0  0  0  0  0  0  0  0  0
    3.1546   -0.0176    0.0000 C   0  0  0  0  0  0  0  0  0  0  0  0
    6.0985    1.5850    0.0000 C   0  0  0  0  0  0  0  0  0  0  0  0
    3.9254    0.3420    0.0000 C   0  0  0  0  0  0  0  0  0  0  0  0
    2.3726   -0.4531    0.0000 C   0  0  0  0  0  0  0  0  0  0  0  0
    3.1409   -1.7956    0.0000 C   0  0  0  0  0  0  0  0  0  0  0  0
    2.3657   -1.3480    0.0000 C   0  0  0  0  0  0  0  0  0  0  0  0
  1 13  2  0
  2 21  2  0
  3  4  1  0
  3  5  1  0
  3 10  1  6
  4  7  1  0
  4  8  1  1
  5  6  1  0
  5 11  1  1
  6  9  1  0
  6 13  1  0
  6 17  1  1
  7 12  1  0
  7 16  1  0
  7 18  1  1
  8  9  1  0
 10 14  1  0
 11 15  1  0
 12 14  1  0
 12 20  2  0
 13 15  1  0
 16 19  1  0
 19 21  1  0
 20 21  1  0
M  END
>  <DRUGBANK_ID>  (1) 
DB01536

>  <SECONDARY_ACCESSION_NUMBERS>  (1) 
EXPT00569; DB07386

>  <COMMON_NAME>  (1) 
Androstenedione

>  <CAS_NUMBER>  (1) 
63-05-8

>  <UNII>  (1) 
409J2J96VR

>  <SYNONYMS>  (1) 
4-Androstene-3,17-dione; 4-Androstenedione; Androst-4-ene-3,17-dione; Androstenedione; delta-4-Androstenedione

$$$$
