K44
     RDKit          2D

 17 19  0  0  0  0  0  0  0  0999 V2000
    3.5391   -0.1802    0.0000 C   0  0  0  0  0  0  0  0  0  0  0  0
    3.2997   -0.9697    0.0000 C   0  0  0  0  0  0  0  0  0  0  0  0
    2.4963   -1.1571    0.0000 C   0  0  0  0  0  0  0  0  0  0  0  0
    2.9751    0.4219    0.0000 C   0  0  0  0  0  0  0  0  0  0  0  0
    1.4948    0.7061    0.0000 N   0  0  0  0  0  0  0  0  0  0  0  0
    2.1717    0.2345    0.0000 C   0  0  0  0  0  0  0  0  0  0  0  0
    1.9323   -0.5550    0.0000 C   0  0  0  0  0  0  0  0  0  0  0  0
    1.1074   -0.5713    0.0000 N   0  0  0  0  0  0  0  0  0  0  0  0
    0.8371    0.2082    0.0000 C   0  0  0  0  0  0  0  0  0  0  0  0
    0.0122    0.1919    0.0000 N   0  0  0  0  0  0  0  0  0  0  0  0
   -0.4857    0.8496    0.0000 C   0  0  0  0  0  0  0  0  0  0  0  0
    0.4497   -1.0693    0.0000 C   0  0  0  0  0  0  0  0  0  0  0  0
   -0.2272   -0.5976    0.0000 C   0  0  0  0  0  0  0  0  0  0  0  0
    3.2146    1.2114    0.0000 Br  0  0  0  0  0  0  0  0  0  0  0  0
    4.3426    0.0072    0.0000 Br  0  0  0  0  0  0  0  0  0  0  0  0
    3.8637   -1.5718    0.0000 Br  0  0  0  0  0  0  0  0  0  0  0  0
    2.2569   -1.9466    0.0000 Br  0  0  0  0  0  0  0  0  0  0  0  0
  1  2  2  0
  1  4  1  0
  1 15  1  0
  2  3  1  0
  2 16  1  0
  3  7  2  0
  3 17  1  0
  4  6  2  0
  4 14  1  0
  5  6  1  0
  5  9  2  0
  6  7  1  0
  7  8  1  0
  8  9  1  0
  8 12  1  0
  9 10  1  0
 10 11  1  0
 10 13  1  0
 12 13  1  0
M  END
>  <DRUGBANK_ID>  (1) 
DB04721

>  <COMMON_NAME>  (1) 
N1,N2-ETHYLENE-2-METHYLAMINO-4,5,6,7-TETRABROMO-BENZIMIDAZOLE

$$$$
