
     RDKit          2D

 29 31  0  0  1  0  0  0  0  0999 V2000
   -0.4599    6.1891    0.0000 C   0  0  0  0  0  0  0  0  0  0  0  0
   -1.1743    5.7766    0.0000 C   0  0  0  0  0  0  0  0  0  0  0  0
    0.2546    5.7766    0.0000 C   0  0  0  0  0  0  0  0  0  0  0  0
   -1.8888    6.1891    0.0000 C   0  0  0  0  0  0  0  0  0  0  0  0
   -2.6033    4.9516    0.0000 C   0  0  0  0  0  0  0  0  0  0  0  0
    0.9691    6.1891    0.0000 C   0  0  0  0  0  0  0  0  0  0  0  0
   -3.3177    4.5391    0.0000 C   0  0  0  0  0  0  0  0  0  0  0  0
   -4.0322    5.7766    0.0000 C   0  0  0  0  0  0  0  0  0  0  0  0
   -8.0061    8.2989    0.0000 C   0  0  0  0  0  0  0  0  0  0  0  0
   -7.2854    5.6659    0.0000 C   0  0  0  0  0  0  0  0  0  0  0  0
   -2.6033    5.7766    0.0000 C   0  0  0  0  0  0  0  0  0  0  0  0
   -4.7467    6.1891    0.0000 C   0  0  0  0  0  0  0  0  0  0  0  0
   -8.1786    6.6580    0.0000 C   0  0  0  0  0  0  0  0  0  0  0  0
   -4.8329    7.0096    0.0000 C   0  0  0  0  0  0  0  0  0  0  0  0
   -5.6399    7.1811    0.0000 C   0  0  0  0  0  0  0  0  0  0  0  0
   -8.8460    7.1429    0.0000 C   0  0  0  0  0  0  0  0  0  0  0  0
   -7.4249    6.9935    0.0000 C   0  0  0  0  0  0  0  0  0  0  0  0
   -6.0524    6.4667    0.0000 C   0  0  0  0  0  0  0  0  0  0  0  0
    1.6836    5.7766    0.0000 N   0  0  0  0  0  0  0  0  0  0  0  0
   -3.3177    3.7141    0.0000 N   0  0  0  0  0  0  0  0  0  0  0  0
   -9.5997    6.8073    0.0000 N   0  0  0  0  0  0  0  0  0  0  0  0
   -8.7598    7.9634    0.0000 N   0  0  0  0  0  0  0  0  0  0  0  0
   -7.3387    7.8140    0.0000 N   0  0  0  0  0  0  0  0  0  0  0  0
   -8.0923    5.8375    0.0000 N   0  0  0  0  0  0  0  0  0  0  0  0
   -6.8729    6.3804    0.0000 N   0  0  0  0  0  0  0  0  0  0  0  0
   -4.2198    7.5616    0.0000 O   0  0  0  0  0  0  0  0  0  0  0  0
   -5.9754    7.9348    0.0000 O   0  0  0  0  0  0  0  0  0  0  0  0
   -5.5004    5.8536    0.0000 O   0  0  0  0  0  0  0  0  0  0  0  0
   -3.3177    6.1891    0.0000 S   0  0  0  0  0  0  0  0  0  0  0  0
  2  1  1  0
  3  1  1  0
  4  2  1  0
  5  7  1  0
  6  3  1  0
 11  4  1  0
 11  5  2  3
 12  8  1  1
 14 12  1  0
 14 26  1  6
 15 14  1  0
 15 27  1  6
 16 13  2  0
 17 13  1  0
 18 15  1  0
 18 25  1  1
 19  6  1  0
 20  7  1  0
 21 16  1  0
 22  9  2  0
 22 16  1  0
 23  9  1  0
 23 17  2  0
 24 10  2  0
 24 13  1  0
 25 10  1  0
 25 17  1  0
 28 12  1  0
 28 18  1  0
 29  8  1  0
 29 11  1  0
M  END
>  <DRUGBANK_ID>  (1) 
DB02844

>  <SECONDARY_ACCESSION_NUMBERS>  (1) 
EXPT00386

>  <COMMON_NAME>  (1) 
S-Adenosyl-1,8-Diamino-3-Thiooctane

>  <CAS_NUMBER>  (1) 
76426-40-9

$$$$
