239
     RDKit          2D

 24 26  0  0  0  0  0  0  0  0999 V2000
   -4.6514    0.8799    0.0000 N   0  0  0  0  0  0  0  0  0  0  0  0
   -3.9369    1.2924    0.0000 C   0  0  0  0  0  0  0  0  0  0  0  0
   -3.9369    2.1174    0.0000 N   0  0  0  0  0  0  0  0  0  0  0  0
   -3.2224    0.8799    0.0000 C   0  0  0  0  0  0  0  0  0  0  0  0
   -2.5080    1.2924    0.0000 C   0  0  0  0  0  0  0  0  0  0  0  0
   -1.7935    0.8799    0.0000 C   0  0  0  0  0  0  0  0  0  0  0  0
   -1.0790    1.2924    0.0000 C   0  0  0  0  0  0  0  0  0  0  0  0
   -0.3646    0.8799    0.0000 C   0  0  0  0  0  0  0  0  0  0  0  0
   -0.3646    0.0549    0.0000 C   0  0  0  0  0  0  0  0  0  0  0  0
   -1.0790   -0.3576    0.0000 C   0  0  0  0  0  0  0  0  0  0  0  0
   -1.7935    0.0549    0.0000 C   0  0  0  0  0  0  0  0  0  0  0  0
   -2.5080   -0.3576    0.0000 C   0  0  0  0  0  0  0  0  0  0  0  0
   -3.2224    0.0549    0.0000 C   0  0  0  0  0  0  0  0  0  0  0  0
    0.3499   -0.3576    0.0000 C   0  0  0  0  0  0  0  0  0  0  0  0
    0.3499   -1.1826    0.0000 O   0  0  0  0  0  0  0  0  0  0  0  0
    1.0644    0.0549    0.0000 N   0  0  0  0  0  0  0  0  0  0  0  0
    1.7789   -0.3576    0.0000 C   0  0  0  0  0  0  0  0  0  0  0  0
    2.4933    0.0549    0.0000 C   0  0  0  0  0  0  0  0  0  0  0  0
    3.2078   -0.3576    0.0000 C   0  0  0  0  0  0  0  0  0  0  0  0
    3.2078   -1.1826    0.0000 C   0  0  0  0  0  0  0  0  0  0  0  0
    2.4933   -1.5951    0.0000 C   0  0  0  0  0  0  0  0  0  0  0  0
    1.7789   -1.1826    0.0000 C   0  0  0  0  0  0  0  0  0  0  0  0
    3.9223   -1.5951    0.0000 C   0  0  0  0  0  0  0  0  0  0  0  0
    4.6367   -1.1826    0.0000 N   0  0  0  0  0  0  0  0  0  0  0  0
  1  2  2  0
  2  3  1  0
  2  4  1  0
  4  5  2  0
  4 13  1  0
  5  6  1  0
  6  7  2  0
  6 11  1  0
  7  8  1  0
  8  9  2  0
  9 10  1  0
  9 14  1  0
 10 11  2  0
 11 12  1  0
 12 13  2  0
 14 15  2  0
 14 16  1  0
 16 17  1  0
 17 18  2  0
 17 22  1  0
 18 19  1  0
 19 20  2  0
 20 21  1  0
 20 23  1  0
 21 22  2  0
 23 24  1  0
M  END
>  <DRUGBANK_ID>  (1) 
DB02398

>  <SECONDARY_ACCESSION_NUMBERS>  (1) 
EXPT00091

>  <COMMON_NAME>  (1) 
6-[N-(4-(Aminomethyl)Phenyl)Carbamyl]-2-Naphthalenecarboxamidine

$$$$
