
     RDKit          2D

 36 38  0  0  0  0  0  0  0  0999 V2000
   -0.1282   -0.6484    0.0000 C   0  0  0  0  0  0  0  0  0  0  0  0
   -0.9433   -0.9006    0.0000 C   0  0  0  0  0  0  0  0  0  0  0  0
   -0.9433   -1.7306    0.0000 C   0  0  0  0  0  0  0  0  0  0  0  0
   -1.6567   -2.1285    0.0000 C   0  0  0  0  0  0  0  0  0  0  0  0
   -1.6567   -2.9535    0.0000 C   0  0  0  0  0  0  0  0  0  0  0  0
   -2.3702   -3.3662    0.0000 C   0  0  0  0  0  0  0  0  0  0  0  0
   -3.0789   -2.9486    0.0000 C   0  0  0  0  0  0  0  0  0  0  0  0
   -3.0789   -2.1236    0.0000 C   0  0  0  0  0  0  0  0  0  0  0  0
   -2.3654   -1.7159    0.0000 C   0  0  0  0  0  0  0  0  0  0  0  0
   -2.3654   -0.8764    0.0000 C   0  0  0  0  0  0  0  0  0  0  0  0
   -1.6325   -0.4783    0.0000 C   0  0  0  0  0  0  0  0  0  0  0  0
   -3.0788   -0.4688    0.0000 O   0  0  0  0  0  0  0  0  0  0  0  0
   -3.7971   -1.7014    0.0000 C   0  0  0  0  0  0  0  0  0  0  0  0
   -4.5057   -2.1236    0.0000 C   0  0  0  0  0  0  0  0  0  0  0  0
   -4.5057   -2.9486    0.0000 C   0  0  0  0  0  0  0  0  0  0  0  0
   -5.2239   -3.3613    0.0000 O   0  0  0  0  0  0  0  0  0  0  0  0
   -3.7971   -3.3562    0.0000 C   0  0  0  0  0  0  0  0  0  0  0  0
   -3.0789   -1.3035    0.0000 C   0  0  0  0  0  0  0  0  0  0  0  0
   -0.1524   -1.9926    0.0000 C   0  0  0  0  0  0  0  0  0  0  0  0
    0.3474   -1.3278    0.0000 C   0  0  0  0  0  0  0  0  0  0  0  0
    1.1386   -1.0803    0.0000 O   0  0  0  0  0  0  0  0  0  0  0  0
    1.1386   -0.2599    0.0000 C   0  0  0  0  0  0  0  0  0  0  0  0
    0.3619    0.0018    0.0000 O   0  0  0  0  0  0  0  0  0  0  0  0
    1.9587   -0.2599    0.0000 C   0  0  0  0  0  0  0  0  0  0  0  0
    1.5461    0.4580    0.0000 C   0  0  0  0  0  0  0  0  0  0  0  0
   -0.9433   -0.0755    0.0000 C   0  0  0  0  0  0  0  0  0  0  0  0
   -0.1282    0.1715    0.0000 C   0  0  0  0  0  0  0  0  0  0  0  0
   -0.8559    0.5793    0.0000 O   0  0  0  0  0  0  0  0  0  0  0  0
    0.5756    0.5793    0.0000 C   0  0  0  0  0  0  0  0  0  0  0  0
    0.5756    1.4046    0.0000 O   0  0  0  0  0  0  0  0  0  0  0  0
    1.7088    2.0583    0.0000 P   0  0  0  0  0  0  0  0  0  0  0  0
    1.7088    3.3662    0.0000 O   0  0  0  0  0  0  0  0  0  0  0  0
    0.5756    2.7122    0.0000 O   0  0  0  0  0  0  0  0  0  0  0  0
    2.9696    2.3999    0.0000 O   0  0  0  0  0  0  0  0  0  0  0  0
    4.9544    2.9305    0.0000 Na  0  0  0  0  0 15  0  0  0  0  0  0
   -0.0528    4.1880    0.0000 Na  0  0  0  0  0 15  0  0  0  0  0  0
  1 23  1  0
  1 27  1  1
  2 26  1  1
  2  1  1  0
  3  2  1  0
  3 19  1  1
  4  3  1  0
  4  9  1  0
  4  5  1  6
  6  5  1  0
  7  6  1  0
  7  8  1  0
  8  9  1  0
  8 18  1  1
  9 10  1  1
 10 11  1  0
 10 12  1  1
 11  2  1  0
 13  8  1  0
 14 13  2  0
 15 14  1  0
 16 15  2  0
 17 15  1  0
 17  7  2  0
 20 19  1  6
 20  1  1  0
 20 21  1  0
 21 22  1  0
 22 23  1  0
 24 22  1  0
 25 22  1  0
 28 27  2  0
 29 27  1  0
 30 29  1  0
 30 31  1  0
 31 32  2  0
 31 33  1  0
 31 34  1  0
M  CHG  4  33  -1  34  -1  35   1  36   1
M  END
>  <DRUGBANK_ID>  (1) 
DB15835

>  <COMMON_NAME>  (1) 
Desonide sodium phosphate

>  <CAS_NUMBER>  (1) 
94087-98-6

>  <UNII>  (1) 
36H4OGY275

$$$$
