
     RDKit          2D

 32 36  0  0  0  0  0  0  0  0999 V2000
   -3.4096   -2.0953    0.0000 C   0  0  0  0  0  0  0  0  0  0  0  0
   -3.4096   -2.9205    0.0000 C   0  0  0  0  0  0  0  0  0  0  0  0
   -2.6933   -3.3330    0.0000 C   0  0  0  0  0  0  0  0  0  0  0  0
   -1.9813   -2.9205    0.0000 C   0  0  0  0  0  0  0  0  0  0  0  0
   -1.9813   -2.0953    0.0000 C   0  0  0  0  0  0  0  0  0  0  0  0
   -2.6933   -1.6828    0.0000 C   0  0  0  0  0  0  0  0  0  0  0  0
   -1.2665   -1.6833    0.0000 C   0  0  0  0  0  0  0  0  0  0  0  0
   -0.5522   -2.0963    0.0000 C   0  0  0  0  0  0  0  0  0  0  0  0
   -1.2658   -0.8583    0.0000 N   0  0  0  0  0  0  0  0  0  0  0  0
   -0.5562   -2.9204    0.0000 C   0  0  0  0  0  0  0  0  0  0  0  0
    0.1579   -3.3334    0.0000 C   0  0  0  0  0  0  0  0  0  0  0  0
    0.8728   -2.9214    0.0000 C   0  0  0  0  0  0  0  0  0  0  0  0
    0.8734   -2.0963    0.0000 C   0  0  0  0  0  0  0  0  0  0  0  0
    0.1592   -1.6832    0.0000 C   0  0  0  0  0  0  0  0  0  0  0  0
   -0.5505   -0.4484    0.0000 C   0  0  0  0  0  0  0  0  0  0  0  0
   -0.5499    0.3765    0.0000 C   0  0  0  0  0  0  0  0  0  0  0  0
   -1.2641    0.7897    0.0000 N   0  0  0  0  0  0  0  0  0  0  0  0
   -1.9790    0.3776    0.0000 C   0  0  0  0  0  0  0  0  0  0  0  0
   -1.9795   -0.4473    0.0000 C   0  0  0  0  0  0  0  0  0  0  0  0
   -1.2634    1.6147    0.0000 C   0  0  0  0  0  0  0  0  0  0  0  0
   -0.5486    2.0267    0.0000 C   0  0  0  0  0  0  0  0  0  0  0  0
    0.1659    1.6133    0.0000 C   0  0  0  0  0  0  0  0  0  0  0  0
    0.8887    2.0302    0.0000 N   0  0  0  0  0  0  0  0  0  0  0  0
    0.8887    2.8545    0.0000 C   0  0  0  0  0  0  0  0  0  0  0  0
    1.6727    1.7754    0.0000 C   0  0  0  0  0  0  0  0  0  0  0  0
    2.1574    2.4423    0.0000 C   0  0  0  0  0  0  0  0  0  0  0  0
    1.6727    3.1094    0.0000 N   0  0  0  0  0  0  0  0  0  0  0  0
    0.2293    3.3334    0.0000 O   0  0  0  0  0  0  0  0  0  0  0  0
    2.9888    2.4425    0.0000 C   0  0  0  0  0  0  0  0  0  0  0  0
    3.4096    1.7144    0.0000 C   0  0  0  0  0  0  0  0  0  0  0  0
    2.9992    1.0029    0.0000 C   0  0  0  0  0  0  0  0  0  0  0  0
    2.1648    1.0023    0.0000 C   0  0  0  0  0  0  0  0  0  0  0  0
  1  2  2  0
  2  3  1  0
  3  4  2  0
  4  5  1  0
  5  6  2  0
  5  7  1  0
  6  1  1  0
  7  8  1  0
  7  9  1  0
  8 10  2  0
  9 15  1  0
 10 11  1  0
 11 12  2  0
 12 13  1  0
 13 14  2  0
 14  8  1  0
 15 16  1  0
 16 17  1  0
 17 18  1  0
 17 20  1  0
 18 19  1  0
 19  9  1  0
 20 21  1  0
 21 22  1  0
 22 23  1  0
 23 24  1  0
 23 25  1  0
 24 27  1  0
 24 28  2  0
 25 26  2  0
 26 27  1  0
 26 29  1  0
 29 30  2  0
 30 31  1  0
 31 32  2  0
 32 25  1  0
M  END
>  <DRUGBANK_ID>  (1) 
DB12877

>  <COMMON_NAME>  (1) 
Oxatomide

>  <CAS_NUMBER>  (1) 
60607-34-3

>  <UNII>  (1) 
J31IL9Z2EE

>  <SYNONYMS>  (1) 
Oxatomida; Oxatomide; Oxatomidum

$$$$
