
     RDKit          2D

 39 43  0  0  0  0  0  0  0  0999 V2000
   -1.0976    0.2405    0.0000 C   0  0  0  0  0  0  0  0  0  0  0  0
   -0.3114    0.0361    0.0000 O   0  0  0  0  0  0  0  0  0  0  0  0
   -1.7041   -0.3280    0.0000 N   0  0  0  0  0  0  0  0  0  0  0  0
   -1.2757    1.0646    0.0000 N   0  0  0  0  0  0  0  0  0  0  0  0
   -3.1694   -0.5619    0.0000 N   0  0  0  0  0  0  0  0  0  0  0  0
   -3.8186   -0.0807    0.0000 N   0  0  0  0  0  0  0  0  0  0  0  0
   -2.7705    0.7037    0.0000 C   0  0  0  0  0  0  0  0  0  0  0  0
   -3.5633    0.7037    0.0000 C   0  0  0  0  0  0  0  0  0  0  0  0
   -2.4887   -0.0725    0.0000 C   0  0  0  0  0  0  0  0  0  0  0  0
   -4.0791    1.3597    0.0000 C   0  0  0  0  0  0  0  0  0  0  0  0
   -2.4425   -1.8130    0.0000 C   0  0  0  0  0  0  0  0  0  0  0  0
   -3.1447   -1.3812    0.0000 C   0  0  0  0  0  0  0  0  0  0  0  0
   -3.8748   -1.8179    0.0000 C   0  0  0  0  0  0  0  0  0  0  0  0
   -3.8501   -2.6370    0.0000 C   0  0  0  0  0  0  0  0  0  0  0  0
   -3.1216   -3.0441    0.0000 C   0  0  0  0  0  0  0  0  0  0  0  0
   -2.4179   -2.6321    0.0000 C   0  0  0  0  0  0  0  0  0  0  0  0
   -3.1232   -3.8880    0.0000 C   0  0  0  0  0  0  0  0  0  0  0  0
    0.0642    1.3794    0.0000 C   0  0  0  0  0  0  0  0  0  0  0  0
    0.6707    1.9480    0.0000 C   0  0  0  0  0  0  0  0  0  0  0  0
    0.2686    0.5801    0.0000 C   0  0  0  0  0  0  0  0  0  0  0  0
    1.4552    1.6926    0.0000 C   0  0  0  0  0  0  0  0  0  0  0  0
    0.5174    2.7458    0.0000 C   0  0  0  0  0  0  0  0  0  0  0  0
   -0.6956    1.6085    0.0000 C   0  0  0  0  0  0  0  0  0  0  0  0
   -0.8735    2.4326    0.0000 C   0  0  0  0  0  0  0  0  0  0  0  0
   -0.2422    2.9748    0.0000 C   0  0  0  0  0  0  0  0  0  0  0  0
    1.6596    0.8932    0.0000 C   0  0  0  0  0  0  0  0  0  0  0  0
    1.0531    0.3246    0.0000 C   0  0  0  0  0  0  0  0  0  0  0  0
    1.1487    3.2880    0.0000 O   0  0  0  0  0  0  0  0  0  0  0  0
    1.9333    3.0325    0.0000 C   0  0  0  0  0  0  0  0  0  0  0  0
    2.5134    3.5763    0.0000 C   0  0  0  0  0  0  0  0  0  0  0  0
    3.3243    3.3456    0.0000 N   0  0  0  0  0  0  0  0  0  0  0  0
    4.8934    2.8348    0.0000 O   0  0  0  0  0  0  0  0  0  0  0  0
    3.9555    3.8880    0.0000 C   0  0  0  0  0  0  0  0  0  0  0  0
    3.5024    2.5216    0.0000 C   0  0  0  0  0  0  0  0  0  0  0  0
    4.2868    2.2662    0.0000 C   0  0  0  0  0  0  0  0  0  0  0  0
    4.7136    3.6077    0.0000 C   0  0  0  0  0  0  0  0  0  0  0  0
   -3.7735    2.1233    0.0000 C   0  0  0  0  0  0  0  0  0  0  0  0
   -4.8934    1.2426    0.0000 C   0  0  0  0  0  0  0  0  0  0  0  0
   -4.6608    1.9413    0.0000 C   0  0  0  0  0  0  0  0  0  0  0  0
  2  1  2  0
  3  1  1  0
  4  1  1  0
  6  5  1  0
  8  6  2  0
  8  7  1  0
  9  3  1  0
  9  5  1  0
  9  7  2  0
 10  8  1  0
 10 37  1  0
 10 38  1  0
 10 39  1  0
 12  5  1  0
 12 11  2  0
 13 12  1  0
 14 13  2  0
 15 14  1  0
 16 11  1  0
 16 15  2  0
 17 15  1  0
 19 18  1  0
 20 18  2  0
 21 19  2  0
 22 19  1  0
 23  4  1  0
 23 18  1  0
 24 23  2  0
 25 22  2  0
 25 24  1  0
 26 21  1  0
 27 20  1  0
 27 26  2  0
 28 22  1  0
 29 28  1  0
 30 29  1  0
 31 30  1  0
 33 31  1  0
 34 31  1  0
 35 32  1  0
 35 34  1  0
 36 32  1  0
 36 33  1  0
M  END
>  <DRUGBANK_ID>  (1) 
DB03044

>  <SECONDARY_ACCESSION_NUMBERS>  (1) 
EXPT00616

>  <COMMON_NAME>  (1) 
Doramapimod

>  <CAS_NUMBER>  (1) 
285983-48-4

>  <UNII>  (1) 
HO1A8B3YVV

>  <SYNONYMS>  (1) 
Doramapimod

$$$$
