C4F
     RDKit          2D

 18 20  0  0  0  0  0  0  0  0999 V2000
   -2.3408   -2.2827    0.0000 C   0  0  0  0  0  0  0  0  0  0  0  0
   -1.5339   -2.1111    0.0000 O   0  0  0  0  0  0  0  0  0  0  0  0
   -1.2789   -1.3265    0.0000 C   0  0  0  0  0  0  0  0  0  0  0  0
   -1.8309   -0.7134    0.0000 C   0  0  0  0  0  0  0  0  0  0  0  0
   -1.5760    0.0712    0.0000 C   0  0  0  0  0  0  0  0  0  0  0  0
   -0.7690    0.2427    0.0000 C   0  0  0  0  0  0  0  0  0  0  0  0
   -0.4719   -1.1550    0.0000 C   0  0  0  0  0  0  0  0  0  0  0  0
   -0.2170   -0.3704    0.0000 C   0  0  0  0  0  0  0  0  0  0  0  0
    0.5900   -0.1988    0.0000 C   0  0  0  0  0  0  0  0  0  0  0  0
    0.8449    0.5858    0.0000 C   0  0  0  0  0  0  0  0  0  0  0  0
    1.6295    0.8407    0.0000 C   0  0  0  0  0  0  0  0  0  0  0  0
    0.3600    1.2532    0.0000 C   0  0  0  0  0  0  0  0  0  0  0  0
    0.8449    1.9207    0.0000 N   0  0  0  0  0  0  0  0  0  0  0  0
    1.6295    1.6657    0.0000 C   0  0  0  0  0  0  0  0  0  0  0  0
    2.3440    2.0782    0.0000 N   0  0  0  0  0  0  0  0  0  0  0  0
    3.0585    1.6657    0.0000 C   0  0  0  0  0  0  0  0  0  0  0  0
    3.0585    0.8407    0.0000 C   0  0  0  0  0  0  0  0  0  0  0  0
    2.3440    0.4282    0.0000 C   0  0  0  0  0  0  0  0  0  0  0  0
  1  2  1  0
  2  3  1  0
  3  4  2  0
  3  7  1  0
  4  5  1  0
  5  6  2  0
  6  8  1  0
  7  8  2  0
  8  9  1  0
  9 10  1  0
 10 11  1  0
 10 12  2  0
 11 14  2  0
 11 18  1  0
 12 13  1  0
 13 14  1  0
 14 15  1  0
 15 16  2  0
 16 17  1  0
 17 18  2  0
M  END
>  <DRUGBANK_ID>  (1) 
DB07525

>  <COMMON_NAME>  (1) 
3-(3-methoxybenzyl)-1H-pyrrolo[2,3-b]pyridine

$$$$
