MHC
     RDKit          2D

 18 20  0  0  0  0  0  0  0  0999 V2000
    2.9936   -1.7464    0.0000 S   0  0  0  0  0  0  0  0  0  0  0  0
    2.7386   -0.9618    0.0000 C   0  0  0  0  0  0  0  0  0  0  0  0
    1.9317   -0.7902    0.0000 C   0  0  0  0  0  0  0  0  0  0  0  0
    1.6767   -0.0056    0.0000 C   0  0  0  0  0  0  0  0  0  0  0  0
    2.2288    0.6075    0.0000 O   0  0  0  0  0  0  0  0  0  0  0  0
    0.8698    0.1659    0.0000 N   0  0  0  0  0  0  0  0  0  0  0  0
    0.6148    0.9505    0.0000 C   0  0  0  0  0  0  0  0  0  0  0  0
   -0.1921    1.1221    0.0000 C   0  0  0  0  0  0  0  0  0  0  0  0
   -0.7442    0.5090    0.0000 C   0  0  0  0  0  0  0  0  0  0  0  0
   -0.4892   -0.2756    0.0000 C   0  0  0  0  0  0  0  0  0  0  0  0
    0.3177   -0.4472    0.0000 C   0  0  0  0  0  0  0  0  0  0  0  0
   -1.1567   -0.7606    0.0000 N   0  0  0  0  0  0  0  0  0  0  0  0
   -1.5692    0.5090    0.0000 C   0  0  0  0  0  0  0  0  0  0  0  0
   -1.8241   -0.2756    0.0000 C   0  0  0  0  0  0  0  0  0  0  0  0
   -2.6311   -0.4472    0.0000 C   0  0  0  0  0  0  0  0  0  0  0  0
   -2.1212    1.1221    0.0000 C   0  0  0  0  0  0  0  0  0  0  0  0
   -2.9282    0.9505    0.0000 C   0  0  0  0  0  0  0  0  0  0  0  0
   -3.1831    0.1659    0.0000 C   0  0  0  0  0  0  0  0  0  0  0  0
  1  2  1  0
  2  3  1  0
  3  4  1  0
  4  5  2  0
  4  6  1  0
  6  7  1  0
  6 11  1  0
  7  8  1  0
  8  9  1  0
  9 10  2  0
  9 13  1  0
 10 11  1  0
 10 12  1  0
 12 14  1  0
 13 14  2  0
 13 16  1  0
 14 15  1  0
 15 18  2  0
 16 17  2  0
 17 18  1  0
M  END
>  <DRUGBANK_ID>  (1) 
DB03372

>  <SECONDARY_ACCESSION_NUMBERS>  (1) 
EXPT02171

>  <COMMON_NAME>  (1) 
3-Mercapto-1-(1,3,4,9-Tetrahydro-B-Carbolin-2-Yl)-Propan-1-One

$$$$
