JEN
     RDKit          2D

 21 23  0  0  0  0  0  0  0  0999 V2000
   -0.7263    4.4727    0.0000 C   0  0  0  0  0  0  0  0  0  0  0  0
   -0.0118    4.0602    0.0000 O   0  0  0  0  0  0  0  0  0  0  0  0
   -0.0118    3.2352    0.0000 C   0  0  0  0  0  0  0  0  0  0  0  0
    0.7027    2.8227    0.0000 N   0  0  0  0  0  0  0  0  0  0  0  0
    0.7027    1.9977    0.0000 N   0  0  0  0  0  0  0  0  0  0  0  0
   -0.0118    1.5852    0.0000 C   0  0  0  0  0  0  0  0  0  0  0  0
   -0.7263    1.9977    0.0000 C   0  0  0  0  0  0  0  0  0  0  0  0
   -0.7263    2.8227    0.0000 C   0  0  0  0  0  0  0  0  0  0  0  0
   -0.0118    0.7602    0.0000 N   0  0  0  0  0  0  0  0  0  0  0  0
    0.7027    0.3477    0.0000 C   0  0  0  0  0  0  0  0  0  0  0  0
    0.7027   -0.4773    0.0000 C   0  0  0  0  0  0  0  0  0  0  0  0
   -0.0118   -0.8898    0.0000 N   0  0  0  0  0  0  0  0  0  0  0  0
   -0.7263   -0.4773    0.0000 C   0  0  0  0  0  0  0  0  0  0  0  0
   -0.7263    0.3477    0.0000 C   0  0  0  0  0  0  0  0  0  0  0  0
   -0.0118   -1.7148    0.0000 C   0  0  0  0  0  0  0  0  0  0  0  0
    0.7027   -2.1273    0.0000 C   0  0  0  0  0  0  0  0  0  0  0  0
    0.7027   -2.9523    0.0000 C   0  0  0  0  0  0  0  0  0  0  0  0
   -0.0118   -3.3648    0.0000 C   0  0  0  0  0  0  0  0  0  0  0  0
   -0.7263   -2.9523    0.0000 C   0  0  0  0  0  0  0  0  0  0  0  0
   -0.7263   -2.1273    0.0000 C   0  0  0  0  0  0  0  0  0  0  0  0
    1.4171   -3.3648    0.0000 C   0  0  0  0  0  0  0  0  0  0  0  0
  1  2  1  0
  2  3  1  0
  3  4  2  0
  3  8  1  0
  4  5  1  0
  5  6  2  0
  6  7  1  0
  6  9  1  0
  7  8  2  0
  9 10  1  0
  9 14  1  0
 10 11  1  0
 11 12  1  0
 12 13  1  0
 12 15  1  0
 13 14  1  0
 15 16  2  0
 15 20  1  0
 16 17  1  0
 17 18  2  0
 17 21  1  0
 18 19  1  0
 19 20  2  0
M  END
>  <DRUGBANK_ID>  (1) 
DB08017

>  <COMMON_NAME>  (1) 
3-METHOXY-6-[4-(3-METHYLPHENYL)-1-PIPERAZINYL]PYRIDAZINE

>  <UNII>  (1) 
HK76HE61AQ

$$$$
