
     RDKit          2D

 30 32  0  0  1  0  0  0  0  0999 V2000
    4.6185   -2.0568    0.0000 O   0  0  0  0  0  0  0  0  0  0  0  0
    5.2224   -2.0568    0.0000 O   0  0  0  0  0  0  0  0  0  0  0  0
    4.2060    0.3077    0.0000 O   0  0  0  0  0  0  0  0  0  0  0  0
    5.6350    1.1327    0.0000 O   0  0  0  0  0  0  0  0  0  0  0  0
    7.0640    1.1327    0.0000 O   0  0  0  0  0  0  0  0  0  0  0  0
    6.3495    4.0203    0.0000 O   0  0  0  0  0  0  0  0  0  0  0  0
    6.3495    2.3703    0.0000 N   0  0  0  0  0  0  0  0  0  0  0  0
    7.7784    4.0203    0.0000 N   0  0  0  0  0  0  0  0  0  0  0  0
    4.9205   -0.9298    0.0000 C   0  0  0  0  0  0  0  0  0  0  0  0
    5.6350   -1.3423    0.0000 C   0  0  0  0  0  0  0  0  0  0  0  0
    4.2060   -1.3423    0.0000 C   0  0  0  0  0  0  0  0  0  0  0  0
    3.7935   -2.0568    0.0000 C   0  0  0  0  0  0  0  0  0  0  0  0
    4.9205   -0.1048    0.0000 C   0  0  0  0  0  0  0  0  0  0  0  0
    6.0475   -2.0568    0.0000 C   0  0  0  0  0  0  0  0  0  0  0  0
    6.3495   -0.9298    0.0000 C   0  0  0  0  0  0  0  0  0  0  0  0
    5.6350    0.3077    0.0000 C   0  0  0  0  0  0  0  0  0  0  0  0
    6.3495   -0.1048    0.0000 C   0  0  0  0  0  0  0  0  0  0  0  0
    3.4916   -0.9298    0.0000 C   0  0  0  0  0  0  0  0  0  0  0  0
    3.0791   -2.4693    0.0000 C   0  0  0  0  0  0  0  0  0  0  0  0
    3.0791   -3.2943    0.0000 C   0  0  0  0  0  0  0  0  0  0  0  0
    4.2060    1.1327    0.0000 C   0  0  0  0  0  0  0  0  0  0  0  0
    6.3495    1.5453    0.0000 C   0  0  0  0  0  0  0  0  0  0  0  0
    2.3645   -3.7068    0.0000 C   0  0  0  0  0  0  0  0  0  0  0  0
    2.3645   -4.5318    0.0000 C   0  0  0  0  0  0  0  0  0  0  0  0
    1.6500   -3.2943    0.0000 C   0  0  0  0  0  0  0  0  0  0  0  0
    7.0640    2.7828    0.0000 C   0  0  0  0  0  0  0  0  0  0  0  0
    7.7784    2.3703    0.0000 C   0  0  0  0  0  0  0  0  0  0  0  0
    7.0640    3.6078    0.0000 C   0  0  0  0  0  0  0  0  0  0  0  0
    7.7784    1.5453    0.0000 C   0  0  0  0  0  0  0  0  0  0  0  0
    8.4929    2.7828    0.0000 C   0  0  0  0  0  0  0  0  0  0  0  0
  1 11  1  0
  1 12  1  0
  2 14  1  0
  3 21  1  0
  4 22  1  0
  5 22  2  0
  6 28  2  0
  7 22  1  0
  8 28  1  0
  9 10  1  1
  9 11  1  0
  9 13  1  0
 10  2  1  0
 10 14  1  6
 10 15  1  0
 11 12  1  0
 11 18  1  6
 12 19  1  6
 13  3  1  6
 13 16  1  0
 15 17  1  0
 16  4  1  6
 16 17  1  0
 19 20  1  0
 20 23  2  3
 23 24  1  0
 23 25  1  0
 26  7  1  1
 26 27  1  0
 26 28  1  0
 27 29  1  0
 27 30  1  0
M  END
>  <DRUGBANK_ID>  (1) 
DB05864

>  <COMMON_NAME>  (1) 
PPI-2458

>  <UNII>  (1) 
NA0Y2SRR29

$$$$
