F19
     RDKit          2D

 21 22  0  0  0  0  0  0  0  0999 V2000
   -1.7849   -1.2813    0.0000 C   0  0  0  0  0  0  0  0  0  0  0  0
   -1.0705   -0.8688    0.0000 C   0  0  0  0  0  0  0  0  0  0  0  0
   -1.0705   -0.0437    0.0000 C   0  0  0  0  0  0  0  0  0  0  0  0
   -1.7849    0.3688    0.0000 C   0  0  0  0  0  0  0  0  0  0  0  0
   -2.4995   -0.0437    0.0000 C   0  0  0  0  0  0  0  0  0  0  0  0
   -2.4995   -0.8688    0.0000 C   0  0  0  0  0  0  0  0  0  0  0  0
   -3.2140   -1.2813    0.0000 C   0  0  0  0  0  0  0  0  0  0  0  0
   -3.9285   -0.8688    0.0000 C   0  0  0  0  0  0  0  0  0  0  0  0
   -3.9285   -0.0437    0.0000 C   0  0  0  0  0  0  0  0  0  0  0  0
   -3.2140    0.3688    0.0000 C   0  0  0  0  0  0  0  0  0  0  0  0
   -0.3559    0.3688    0.0000 S   0  0  0  0  0  0  0  0  0  0  0  0
    0.0566   -0.3457    0.0000 O   0  0  0  0  0  0  0  0  0  0  0  0
   -0.7685    1.0833    0.0000 O   0  0  0  0  0  0  0  0  0  0  0  0
    1.7876    0.7814    0.0000 C   0  0  0  0  0  0  0  0  0  0  0  0
    2.5022    0.3688    0.0000 O   0  0  0  0  0  0  0  0  0  0  0  0
    1.0732    0.3688    0.0000 C   0  0  0  0  0  0  0  0  0  0  0  0
    0.3586    0.7814    0.0000 N   0  0  0  0  0  0  0  0  0  0  0  0
    3.9312    1.1939    0.0000 O   0  0  0  0  0  0  0  0  0  0  0  0
    3.6293    0.0668    0.0000 O   0  0  0  0  0  0  0  0  0  0  0  0
    3.2167    0.7814    0.0000 P   0  0  0  0  0  0  0  0  0  0  0  0
    2.8042    1.4958    0.0000 O   0  0  0  0  0  0  0  0  0  0  0  0
  1  2  2  0
  1  6  1  0
  2  3  1  0
  3  4  2  0
  3 11  1  0
  4  5  1  0
  5  6  2  0
  5 10  1  0
  6  7  1  0
  7  8  2  0
  8  9  1  0
  9 10  2  0
 11 12  2  0
 11 13  2  0
 11 17  1  0
 14 15  1  0
 14 16  1  0
 15 20  1  0
 16 17  1  0
 18 20  2  0
 19 20  1  0
 20 21  1  0
M  END
>  <DRUGBANK_ID>  (1) 
DB07732

>  <COMMON_NAME>  (1) 
2-[(2-NAPHTHYLSULFONYL)AMINO]ETHYL DIHYDROGEN PHOSPHATE

$$$$
