C28
     RDKit          2D

 32 34  0  0  0  0  0  0  0  0999 V2000
    3.6552   -2.2338    0.0000 C   0  0  0  0  0  0  0  0  0  0  0  0
    2.9408   -0.9963    0.0000 C   0  0  0  0  0  0  0  0  0  0  0  0
    2.2263   -1.4088    0.0000 C   0  0  0  0  0  0  0  0  0  0  0  0
    2.2263   -2.2338    0.0000 C   0  0  0  0  0  0  0  0  0  0  0  0
    2.9408   -2.6463    0.0000 C   0  0  0  0  0  0  0  0  0  0  0  0
    3.6552   -1.4088    0.0000 C   0  0  0  0  0  0  0  0  0  0  0  0
    1.5118   -0.9963    0.0000 C   0  0  0  0  0  0  0  0  0  0  0  0
    4.3697   -2.6463    0.0000 F   0  0  0  0  0  0  0  0  0  0  0  0
    0.7973   -1.4088    0.0000 N   0  0  0  0  0  0  0  0  0  0  0  0
    1.5118   -0.1713    0.0000 C   0  0  0  0  0  0  0  0  0  0  0  0
    0.0829   -0.9963    0.0000 C   0  0  0  0  0  0  0  0  0  0  0  0
    0.0829   -0.1713    0.0000 C   0  0  0  0  0  0  0  0  0  0  0  0
   -0.6316   -1.4088    0.0000 C   0  0  0  0  0  0  0  0  0  0  0  0
   -1.3461   -0.9963    0.0000 S   0  0  0  0  0  0  0  0  0  0  0  0
   -2.0605   -0.5838    0.0000 N   0  0  0  0  0  0  0  0  0  0  0  0
   -0.6316    0.2412    0.0000 N   0  0  0  0  0  0  0  0  0  0  0  0
    0.7973    0.2412    0.0000 O   0  0  0  0  0  0  0  0  0  0  0  0
   -0.6316    1.0662    0.0000 C   0  0  0  0  0  0  0  0  0  0  0  0
   -0.3494    1.8414    0.0000 C   0  0  0  0  0  0  0  0  0  0  0  0
    0.1809    1.2094    0.0000 C   0  0  0  0  0  0  0  0  0  0  0  0
   -0.9336   -0.2819    0.0000 O   0  0  0  0  0  0  0  0  0  0  0  0
    1.5118    0.6537    0.0000 F   0  0  0  0  0  0  0  0  0  0  0  0
    2.3368   -0.1713    0.0000 F   0  0  0  0  0  0  0  0  0  0  0  0
    0.6868   -0.1713    0.0000 F   0  0  0  0  0  0  0  0  0  0  0  0
   -1.7586   -1.7108    0.0000 O   0  0  0  0  0  0  0  0  0  0  0  0
   -2.7750   -0.9963    0.0000 C   0  0  0  0  0  0  0  0  0  0  0  0
   -3.4895   -0.5838    0.0000 C   0  0  0  0  0  0  0  0  0  0  0  0
   -3.4895    0.2412    0.0000 O   0  0  0  0  0  0  0  0  0  0  0  0
   -2.7750    0.6537    0.0000 C   0  0  0  0  0  0  0  0  0  0  0  0
   -2.0605    0.2412    0.0000 C   0  0  0  0  0  0  0  0  0  0  0  0
   -1.7262    1.9847    0.0000 N   0  0  0  0  0  0  0  0  0  0  0  0
   -1.4441    1.2094    0.0000 C   0  0  0  0  0  0  0  0  0  0  0  0
  1  5  2  0
  1  6  1  0
  1  8  1  0
  2  3  1  0
  2  6  2  0
  3  4  2  0
  3  7  1  0
  4  5  1  0
  7  9  1  6
  7 10  1  0
 10 22  1  0
 10 23  1  0
 10 24  1  0
 11  9  1  0
 11 12  1  0
 11 13  1  1
 12 16  1  0
 12 17  2  0
 13 14  1  0
 14 15  1  0
 14 21  2  0
 14 25  2  0
 15 26  1  0
 15 30  1  0
 16 18  1  0
 18 19  1  0
 18 20  1  0
 18 32  1  0
 19 20  1  0
 26 27  1  0
 27 28  1  0
 28 29  1  0
 29 30  1  0
 31 32  1  0
M  END
>  <DRUGBANK_ID>  (1) 
DB07520

>  <COMMON_NAME>  (1) 
N-[1-(AMINOMETHYL)CYCLOPROPYL]-3-(MORPHOLIN-4-YLSULFONYL)-N~2~-[(1S)-2,2,2-TRIFLUORO-1-(4-FLUOROPHENYL)ETHYL]-L-ALANINAMIDE

$$$$
