3LP
     RDKit          2D

 25 28  0  0  0  0  0  0  0  0999 V2000
    0.0871   -0.6289    0.0000 O   0  0  0  0  0  0  0  0  0  0  0  0
    0.8016   -0.2164    0.0000 C   0  0  0  0  0  0  0  0  0  0  0  0
    0.8016    0.6086    0.0000 C   0  0  0  0  0  0  0  0  0  0  0  0
    0.0871    1.0211    0.0000 N   0  0  0  0  0  0  0  0  0  0  0  0
    0.0871    1.8461    0.0000 C   0  0  0  0  0  0  0  0  0  0  0  0
    0.8016    2.2586    0.0000 C   0  0  0  0  0  0  0  0  0  0  0  0
    0.8016    3.0836    0.0000 C   0  0  0  0  0  0  0  0  0  0  0  0
    0.0871    3.4961    0.0000 C   0  0  0  0  0  0  0  0  0  0  0  0
   -0.6273    3.0836    0.0000 C   0  0  0  0  0  0  0  0  0  0  0  0
   -0.6273    2.2586    0.0000 C   0  0  0  0  0  0  0  0  0  0  0  0
    1.5161   -0.6289    0.0000 C   0  0  0  0  0  0  0  0  0  0  0  0
    1.5161   -1.4539    0.0000 N   0  0  0  0  0  0  0  0  0  0  0  0
    2.1835   -1.9388    0.0000 C   0  0  0  0  0  0  0  0  0  0  0  0
    2.9905   -1.7673    0.0000 C   0  0  0  0  0  0  0  0  0  0  0  0
    3.5425   -2.3804    0.0000 C   0  0  0  0  0  0  0  0  0  0  0  0
    3.2876   -3.1650    0.0000 C   0  0  0  0  0  0  0  0  0  0  0  0
    3.8396   -3.7781    0.0000 C   0  0  0  0  0  0  0  0  0  0  0  0
    2.4806   -3.3365    0.0000 C   0  0  0  0  0  0  0  0  0  0  0  0
    1.9286   -2.7234    0.0000 C   0  0  0  0  0  0  0  0  0  0  0  0
    1.1036   -2.7234    0.0000 C   0  0  0  0  0  0  0  0  0  0  0  0
    0.8487   -1.9388    0.0000 C   0  0  0  0  0  0  0  0  0  0  0  0
    0.5516   -3.3365    0.0000 C   0  0  0  0  0  0  0  0  0  0  0  0
   -0.2554   -3.1650    0.0000 C   0  0  0  0  0  0  0  0  0  0  0  0
   -0.5104   -2.3804    0.0000 C   0  0  0  0  0  0  0  0  0  0  0  0
    0.0417   -1.7673    0.0000 C   0  0  0  0  0  0  0  0  0  0  0  0
  2  1  1  1
  2 11  1  0
  2  3  1  0
  3  4  1  0
  4  5  1  0
  5 10  1  0
  5  6  1  0
  6  7  1  0
  7  8  1  0
  8  9  1  0
  9 10  1  0
 11 12  1  0
 12 21  1  0
 12 13  1  0
 13 14  2  0
 13 19  1  0
 14 15  1  0
 15 16  2  0
 16 17  1  0
 16 18  1  0
 18 19  2  0
 19 20  1  0
 20 22  1  0
 20 21  2  0
 21 25  1  0
 22 23  1  0
 23 24  1  0
 24 25  1  0
M  END
>  <DRUGBANK_ID>  (1) 
DB07061

>  <COMMON_NAME>  (1) 
1-(CYCLOHEXYLAMINO)-3-(6-METHYL-3,4-DIHYDRO-1H-CARBAZOL-9(2H)-YL)PROPAN-2-OL

$$$$
