
     RDKit          2D

 23 25  0  0  1  0  0  0  0  0999 V2000
    6.1340    3.6800    0.0000 I   0  0  0  0  0  0  0  0  0  0  0  0
    1.6500   -3.1256    0.0000 F   0  0  0  0  0  0  0  0  0  0  0  0
    6.2178   -2.8730    0.0000 O   0  0  0  0  0  0  0  0  0  0  0  0
    4.8201   -3.1701    0.0000 O   0  0  0  0  0  0  0  0  0  0  0  0
    6.1340    0.8220    0.0000 N   0  0  0  0  0  0  0  0  0  0  0  0
    6.5282   -0.7855    0.0000 C   0  0  0  0  0  0  0  0  0  0  0  0
    6.7417    0.0114    0.0000 C   0  0  0  0  0  0  0  0  0  0  0  0
    5.2616   -1.8111    0.0000 C   0  0  0  0  0  0  0  0  0  0  0  0
    4.5080   -1.4755    0.0000 C   0  0  0  0  0  0  0  0  0  0  0  0
    4.5942   -0.6551    0.0000 C   0  0  0  0  0  0  0  0  0  0  0  0
    8.0396   -1.4115    0.0000 C   0  0  0  0  0  0  0  0  0  0  0  0
    8.2532   -0.6146    0.0000 C   0  0  0  0  0  0  0  0  0  0  0  0
    5.7215    1.5366    0.0000 C   0  0  0  0  0  0  0  0  0  0  0  0
    3.7935   -1.8881    0.0000 C   0  0  0  0  0  0  0  0  0  0  0  0
    5.4332   -2.6181    0.0000 C   0  0  0  0  0  0  0  0  0  0  0  0
    6.1340    2.2511    0.0000 C   0  0  0  0  0  0  0  0  0  0  0  0
    3.7935   -2.7131    0.0000 C   0  0  0  0  0  0  0  0  0  0  0  0
    3.0791   -1.4755    0.0000 C   0  0  0  0  0  0  0  0  0  0  0  0
    3.0791   -3.1256    0.0000 C   0  0  0  0  0  0  0  0  0  0  0  0
    2.3645   -1.8881    0.0000 C   0  0  0  0  0  0  0  0  0  0  0  0
    5.7215    2.9655    0.0000 C   0  0  0  0  0  0  0  0  0  0  0  0
    2.3645   -2.7131    0.0000 C   0  0  0  0  0  0  0  0  0  0  0  0
    6.3894   -3.6800    0.0000 C   0  0  0  0  0  0  0  0  0  0  0  0
  1 21  1  0
  2 22  1  0
  3 15  1  0
  3 23  1  0
  4 15  2  0
  5  6  1  0
  5  7  1  0
  5 13  1  0
  6  8  1  0
  6 11  1  6
  7 10  1  1
  7 12  1  0
  8  9  1  0
  8 15  1  1
  9 10  1  0
  9 14  1  1
 11 12  1  0
 13 16  1  0
 14 17  2  0
 14 18  1  0
 16 21  2  0
 17 19  1  0
 18 20  2  0
 19 22  2  0
 20 22  1  0
M  END
>  <DRUGBANK_ID>  (1) 
DB04947

>  <COMMON_NAME>  (1) 
Altropane

>  <CAS_NUMBER>  (1) 
180468-34-2

>  <UNII>  (1) 
1Q4092099O

$$$$
