
     RDKit          2D

 23 23  0  0  0  0  0  0  0  0999 V2000
    0.3572   -0.8250    0.0000 O   0  0  0  0  0  0  0  0  0  0  0  0
    1.0717    1.2375    0.0000 O   0  0  0  0  0  0  0  0  0  0  0  0
    1.7861   -0.8250    0.0000 O   0  0  0  0  0  0  0  0  0  0  0  0
   -1.0717   -2.4750    0.0000 O   0  0  0  0  0  0  0  0  0  0  0  0
    3.2151    0.0000    0.0000 O   0  0  0  0  0  0  0  0  0  0  0  0
    0.3572   -2.4750    0.0000 O   0  0  0  0  0  0  0  0  0  0  0  0
   -1.7861    1.2375    0.0000 O   0  0  0  0  0  0  0  0  0  0  0  0
   -0.3572    1.2375    0.0000 N   0  0  0  0  0  0  0  0  0  0  0  0
   -1.7861    0.4125    0.0000 N   0  0  0  0  0  0  0  0  0  0  0  0
   -3.2151    0.4125    0.0000 N   0  0  0  0  0  0  0  0  0  0  0  0
   -2.5006   -0.8250    0.0000 N   0  0  0  0  0  0  0  0  0  0  0  0
   -0.3572    0.4125    0.0000 C   0  0  0  0  0  0  0  0  0  0  0  0
    0.3572    0.0000    0.0000 C   0  0  0  0  0  0  0  0  0  0  0  0
   -1.0717    0.0000    0.0000 C   0  0  0  0  0  0  0  0  0  0  0  0
   -1.0717   -0.8250    0.0000 C   0  0  0  0  0  0  0  0  0  0  0  0
    1.0717    0.4125    0.0000 C   0  0  0  0  0  0  0  0  0  0  0  0
   -0.3572   -1.2375    0.0000 C   0  0  0  0  0  0  0  0  0  0  0  0
    1.7861    0.0000    0.0000 C   0  0  0  0  0  0  0  0  0  0  0  0
   -0.3572   -2.0625    0.0000 C   0  0  0  0  0  0  0  0  0  0  0  0
    2.5006    0.4125    0.0000 C   0  0  0  0  0  0  0  0  0  0  0  0
   -1.0717    1.6500    0.0000 C   0  0  0  0  0  0  0  0  0  0  0  0
   -2.5006    0.0000    0.0000 C   0  0  0  0  0  0  0  0  0  0  0  0
   -1.0717    2.4750    0.0000 C   0  0  0  0  0  0  0  0  0  0  0  0
 13  1  1  6
  1 17  1  0
  4 19  1  0
  5 20  1  0
  6 19  2  0
  7 21  2  0
  8 21  1  0
  9 22  2  3
 10 22  1  0
 11 22  1  0
 12  8  1  1
 12 13  1  0
 12 14  1  0
 13 16  1  0
 14  9  1  6
 14 15  1  0
 15 17  1  0
 16  2  1  6
 16 18  1  0
 17 19  1  1
 18  3  1  1
 18 20  1  0
 21 23  1  0
M  END
>  <DRUGBANK_ID>  (1) 
DB03420

>  <SECONDARY_ACCESSION_NUMBERS>  (1) 
EXPT01624

>  <COMMON_NAME>  (1) 
2,4-deoxy-4-guanidino-5-N-acetyl-neuraminic acid

>  <SYNONYMS>  (1) 
(2R,4S,5R,6R)-5-Acetamido-4-(diaminomethylideneamino)-6-[(1R,2R)-1,2,3-trihydroxypropyl]oxane-2-carboxylic acid

$$$$
