
     RDKit          2D

 39 42  0  0  0  0  0  0  0  0999 V2000
    0.0000   -1.8562    0.0000 O   0  0  0  0  0  0  0  0  0  0  0  0
    1.4289   -1.8562    0.0000 O   0  0  0  0  0  0  0  0  0  0  0  0
    0.0000   -4.3313    0.0000 O   0  0  0  0  0  0  0  0  0  0  0  0
   -1.4289   -3.5063    0.0000 O   0  0  0  0  0  0  0  0  0  0  0  0
    1.4289   -3.5063    0.0000 O   0  0  0  0  0  0  0  0  0  0  0  0
    1.4289    3.9188    0.0000 O   0  0  0  0  0  0  0  0  0  0  0  0
   -3.5724    2.6813    0.0000 O   0  0  0  0  0  0  0  0  0  0  0  0
   -1.4289   -1.0312    0.0000 O   0  0  0  0  0  0  0  0  0  0  0  0
   -0.7145    0.2062    0.0000 O   0  0  0  0  0  0  0  0  0  0  0  0
    2.8579    1.4437    0.0000 O   0  0  0  0  0  0  0  0  0  0  0  0
    3.5724    0.2062    0.0000 O   0  0  0  0  0  0  0  0  0  0  0  0
    0.0000    3.0938    0.0000 N   0  0  0  0  0  0  0  0  0  0  0  0
   -2.1434    1.8562    0.0000 N   0  0  0  0  0  0  0  0  0  0  0  0
    0.0000    1.4437    0.0000 N   0  0  0  0  0  0  0  0  0  0  0  0
    2.8579    0.6187    0.0000 N   0  0  0  0  0  0  0  0  0  0  0  0
    0.0000   -3.5063    0.0000 C   0  0  0  0  0  0  0  0  0  0  0  0
   -0.7145   -3.0938    0.0000 C   0  0  0  0  0  0  0  0  0  0  0  0
   -0.7145    1.8562    0.0000 C   0  0  0  0  0  0  0  0  0  0  0  0
    0.7145   -3.0938    0.0000 C   0  0  0  0  0  0  0  0  0  0  0  0
   -0.7145   -2.2687    0.0000 C   0  0  0  0  0  0  0  0  0  0  0  0
   -0.7145    2.6813    0.0000 C   0  0  0  0  0  0  0  0  0  0  0  0
   -1.4289    1.4437    0.0000 C   0  0  0  0  0  0  0  0  0  0  0  0
    0.7145   -2.2687    0.0000 C   0  0  0  0  0  0  0  0  0  0  0  0
    0.0000    3.9188    0.0000 C   0  0  0  0  0  0  0  0  0  0  0  0
    0.7145    2.6813    0.0000 C   0  0  0  0  0  0  0  0  0  0  0  0
   -2.1434    2.6813    0.0000 C   0  0  0  0  0  0  0  0  0  0  0  0
   -2.8579    1.4437    0.0000 C   0  0  0  0  0  0  0  0  0  0  0  0
   -1.4289   -1.8562    0.0000 C   0  0  0  0  0  0  0  0  0  0  0  0
    0.7145    4.3313    0.0000 C   0  0  0  0  0  0  0  0  0  0  0  0
    1.4289    3.0938    0.0000 C   0  0  0  0  0  0  0  0  0  0  0  0
   -2.8579    3.0938    0.0000 C   0  0  0  0  0  0  0  0  0  0  0  0
   -3.5724    1.8562    0.0000 C   0  0  0  0  0  0  0  0  0  0  0  0
    0.0000    0.6187    0.0000 C   0  0  0  0  0  0  0  0  0  0  0  0
    1.4289   -1.0312    0.0000 C   0  0  0  0  0  0  0  0  0  0  0  0
    0.7145    0.2062    0.0000 C   0  0  0  0  0  0  0  0  0  0  0  0
    0.7145   -0.6187    0.0000 C   0  0  0  0  0  0  0  0  0  0  0  0
    2.1434   -0.6187    0.0000 C   0  0  0  0  0  0  0  0  0  0  0  0
    1.4289    0.6187    0.0000 C   0  0  0  0  0  0  0  0  0  0  0  0
    2.1434    0.2062    0.0000 C   0  0  0  0  0  0  0  0  0  0  0  0
  1 20  1  0
  1 23  1  0
  2 34  1  0
  6 29  1  0
  6 30  1  0
  7 31  1  0
  7 32  1  0
  8 28  1  0
  9 33  2  0
 10 15  1  0
 11 15  2  0
 12 21  1  0
 12 24  1  0
 12 25  1  0
 13 22  1  0
 13 26  1  0
 13 27  1  0
 14 18  1  0
 14 33  1  0
 15 39  1  0
 16  3  1  1
 16 17  1  0
 16 19  1  0
 17  4  1  1
 17 20  1  0
 18 21  1  0
 18 22  1  0
 19  5  1  6
 19 23  1  0
 20 28  1  1
 23  2  1  6
 24 29  1  0
 25 30  1  0
 26 31  1  0
 27 32  1  0
 33 35  1  0
 34 36  2  0
 34 37  1  0
 35 36  1  0
 35 38  2  0
 37 39  2  0
 38 39  1  0
M  CHG  2  10  -1  15   1
M  END
>  <DRUGBANK_ID>  (1) 
DB04040

>  <SECONDARY_ACCESSION_NUMBERS>  (1) 
EXPT00072

>  <COMMON_NAME>  (1) 
N-[1,3-Di(4-morpholinyl)-2-propanyl]-3-(Î±-D-galactopyranosyloxy)-5-nitrobenzamide

$$$$
