
     RDKit          2D

 15 16  0  0  0  0  0  0  0  0999 V2000
    0.0000   -0.7698    0.0000 C   0  0  0  0  0  0  0  0  0  0  0  0
    0.7145   -0.3572    0.0000 C   0  0  0  0  0  0  0  0  0  0  0  0
   -1.4290   -0.7698    0.0000 C   0  0  0  0  0  0  0  0  0  0  0  0
   -2.1435   -0.3572    0.0000 C   0  0  0  0  0  0  0  0  0  0  0  0
   -2.1435    0.4677    0.0000 C   0  0  0  0  0  0  0  0  0  0  0  0
   -1.4290    0.8803    0.0000 C   0  0  0  0  0  0  0  0  0  0  0  0
   -0.7145    0.4677    0.0000 C   0  0  0  0  0  0  0  0  0  0  0  0
    0.0000    0.8803    0.0000 C   0  0  0  0  0  0  0  0  0  0  0  0
    0.7145    0.4677    0.0000 C   0  0  0  0  0  0  0  0  0  0  0  0
   -0.7145   -0.3572    0.0000 C   0  0  0  0  0  0  0  0  0  0  0  0
   -1.4290   -1.5948    0.0000 N   0  0  0  0  0  0  0  0  0  0  0  0
    1.4290    0.8803    0.0000 S   0  0  0  0  0  0  0  0  0  0  0  0
    1.8415    0.1657    0.0000 O   0  0  0  0  0  0  0  0  0  0  0  0
    1.0165    1.5948    0.0000 O   0  0  0  0  0  0  0  0  0  0  0  0
    2.1435    1.2928    0.0000 O   0  0  0  0  0  0  0  0  0  0  0  0
  1 10  2  0
  2  1  1  0
  3  4  2  0
  3 10  1  0
  4  5  1  0
  5  6  2  0
  6  7  1  0
  7  8  2  0
  7 10  1  0
  8  9  1  0
  9  2  2  0
  9 12  1  0
 11  3  1  0
 12 13  2  0
 12 14  2  0
 12 15  1  0
M  END
>  <DRUGBANK_ID>  (1) 
DB08238

>  <COMMON_NAME>  (1) 
5-aminonaphthalene-2-sulfonic acid

>  <CAS_NUMBER>  (1) 
119-79-9

>  <UNII>  (1) 
59G56TB11B

>  <SYNONYMS>  (1) 
1-naphthylamine-6-sulfonic acid; 1,6-Cleve's acid; 5-aminonaphthalene-2-sulphonic acid; 5-naphthylamine-2-sulfonic acid; Cleve's β-acid; α-naphthylamine-6-sulfonic acid

$$$$
