
     RDKit          2D

 11 11  0  0  0  0  0  0  0  0999 V2000
   -0.3572   -1.2374    0.0000 N   0  0  0  0  0  0  0  0  0  0  0  0
   -1.0716   -0.8250    0.0000 C   0  0  0  0  0  0  0  0  0  0  0  0
   -1.0716    0.0000    0.0000 C   0  0  0  0  0  0  0  0  0  0  0  0
   -0.3572    0.4125    0.0000 N   0  0  0  0  0  0  0  0  0  0  0  0
    0.3572    0.0000    0.0000 C   0  0  0  0  0  0  0  0  0  0  0  0
    0.3572   -0.8250    0.0000 C   0  0  0  0  0  0  0  0  0  0  0  0
    1.0717   -1.2374    0.0000 O   0  0  0  0  0  0  0  0  0  0  0  0
    1.0717    0.4125    0.0000 C   0  0  0  0  0  0  0  0  0  0  0  0
    1.7861    0.0000    0.0000 N   0  0  0  0  0  0  0  0  0  0  0  0
    1.0717    1.2374    0.0000 O   0  0  0  0  0  0  0  0  0  0  0  0
   -1.7861    0.4125    0.0000 F   0  0  0  0  0  0  0  0  0  0  0  0
  1  2  2  0
  1  6  1  0
  2  3  1  0
  3  4  2  0
  3 11  1  0
  4  5  1  0
  5  6  2  0
  5  8  1  0
  6  7  1  0
  8  9  1  0
  8 10  2  0
M  END
>  <DRUGBANK_ID>  (1) 
DB12466

>  <SECONDARY_ACCESSION_NUMBERS>  (1) 
DB06046; DB15625

>  <COMMON_NAME>  (1) 
Favipiravir

>  <CAS_NUMBER>  (1) 
259793-96-9

>  <UNII>  (1) 
EW5GL2X7E0

>  <SYNONYMS>  (1) 
Fapilavir; Favilavir; Favipiravir

$$$$
