
     RDKit          2D

 34 36  0  0  0  0  0  0  0  0999 V2000
   -4.1250   -0.3572    0.0000 F   0  0  0  0  0  0  0  0  0  0  0  0
   -0.4125    0.3572    0.0000 O   0  0  0  0  0  0  0  0  0  0  0  0
    1.6500    1.0716    0.0000 O   0  0  0  0  0  0  0  0  0  0  0  0
   -1.6500    1.0716    0.0000 O   0  0  0  0  0  0  0  0  0  0  0  0
    1.6500   -0.3571    0.0000 O   0  0  0  0  0  0  0  0  0  0  0  0
   -2.0625   -1.0717    0.0000 O   0  0  0  0  0  0  0  0  0  0  0  0
    0.8249    2.5006    0.0000 O   0  0  0  0  0  0  0  0  0  0  0  0
   -0.8250    2.5006    0.0000 O   0  0  0  0  0  0  0  0  0  0  0  0
    3.3000    1.0716    0.0000 O   0  0  0  0  0  0  0  0  0  0  0  0
   -3.3000    1.0715    0.0000 O   0  0  0  0  0  0  0  0  0  0  0  0
    4.1250   -0.3571    0.0000 O   0  0  0  0  0  0  0  0  0  0  0  0
    3.3000   -1.7861    0.0000 O   0  0  0  0  0  0  0  0  0  0  0  0
    0.4125   -1.0717    0.0000 O   0  0  0  0  0  0  0  0  0  0  0  0
   -3.3000   -1.7862    0.0000 O   0  0  0  0  0  0  0  0  0  0  0  0
   -0.4124   -1.0717    0.0000 O   0  0  0  0  0  0  0  0  0  0  0  0
    2.0625   -2.5006    0.0000 O   0  0  0  0  0  0  0  0  0  0  0  0
    0.8249    1.0716    0.0000 C   0  0  0  0  0  0  0  0  0  0  0  0
    0.4124    1.7861    0.0000 C   0  0  0  0  0  0  0  0  0  0  0  0
   -0.4125    1.7861    0.0000 C   0  0  0  0  0  0  0  0  0  0  0  0
    0.4125    0.3572    0.0000 C   0  0  0  0  0  0  0  0  0  0  0  0
   -0.8250    1.0716    0.0000 C   0  0  0  0  0  0  0  0  0  0  0  0
   -2.0625    0.3571    0.0000 C   0  0  0  0  0  0  0  0  0  0  0  0
    2.0625    0.3572    0.0000 C   0  0  0  0  0  0  0  0  0  0  0  0
    2.8875    0.3572    0.0000 C   0  0  0  0  0  0  0  0  0  0  0  0
   -2.8875    0.3571    0.0000 C   0  0  0  0  0  0  0  0  0  0  0  0
   -1.6500   -0.3572    0.0000 C   0  0  0  0  0  0  0  0  0  0  0  0
    3.3000   -0.3571    0.0000 C   0  0  0  0  0  0  0  0  0  0  0  0
    2.8875   -1.0716    0.0000 C   0  0  0  0  0  0  0  0  0  0  0  0
    2.0625   -1.0716    0.0000 C   0  0  0  0  0  0  0  0  0  0  0  0
   -3.3000   -0.3572    0.0000 C   0  0  0  0  0  0  0  0  0  0  0  0
    0.8250   -0.3571    0.0000 C   0  0  0  0  0  0  0  0  0  0  0  0
   -2.8875   -1.0717    0.0000 C   0  0  0  0  0  0  0  0  0  0  0  0
   -0.8250   -0.3572    0.0000 C   0  0  0  0  0  0  0  0  0  0  0  0
    1.6500   -1.7862    0.0000 C   0  0  0  0  0  0  0  0  0  0  0  0
 30  1  1  6
  2 20  1  0
  2 21  1  0
  5 23  1  0
  5 29  1  0
  6 26  1  0
  6 32  1  0
 13 31  1  0
 15 33  1  0
 16 34  1  0
 17  3  1  6
 17 18  1  0
 17 20  1  0
 18  7  1  1
 18 19  1  0
 19  8  1  6
 19 21  1  0
 20 31  1  1
 21  4  1  1
 22  4  1  6
 22 25  1  0
 22 26  1  0
 23  3  1  1
 23 24  1  0
 24  9  1  6
 24 27  1  0
 25 10  1  1
 25 30  1  0
 26 33  1  1
 27 11  1  1
 27 28  1  0
 28 12  1  6
 28 29  1  0
 29 34  1  1
 30 32  1  0
 32 14  1  6
M  END
>  <DRUGBANK_ID>  (1) 
DB01633

>  <SECONDARY_ACCESSION_NUMBERS>  (1) 
EXPT01406

>  <COMMON_NAME>  (1) 
Deoxy-2-fluoro-beta-D-cellotrioside

>  <SYNONYMS>  (1) 
β-D-Glucopyranosyl-(1->4)-β-D-glucopyranosyl-(1->4)-2-deoxy-2-fluoro-α-D-glucopyranose

$$$$
