NCW
     RDKit          2D

 22 23  0  0  0  0  0  0  0  0999 V2000
    0.9435    0.5631    0.0000 S   0  0  0  0  0  0  0  0  0  0  0  0
    0.5348   -0.1765    0.0000 C   0  0  0  0  0  0  0  0  0  0  0  0
    0.9566   -0.9233    0.0000 N   0  0  0  0  0  0  0  0  0  0  0  0
    1.5170   -1.3630    0.0000 C   0  0  0  0  0  0  0  0  0  0  0  0
    2.4456   -1.3476    0.0000 C   0  0  0  0  0  0  0  0  0  0  0  0
    3.0928   -0.7829    0.0000 O   0  0  0  0  0  0  0  0  0  0  0  0
    2.5837   -2.1647    0.0000 C   0  0  0  0  0  0  0  0  0  0  0  0
    3.0159   -2.8913    0.0000 O   0  0  0  0  0  0  0  0  0  0  0  0
    2.0677   -1.7361    0.0000 C   0  0  0  0  0  0  0  0  0  0  0  0
    2.0477   -0.8120    0.0000 O   0  0  0  0  0  0  0  0  0  0  0  0
    1.1966   -2.0714    0.0000 C   0  0  0  0  0  0  0  0  0  0  0  0
    0.5765   -2.4482    0.0000 O   0  0  0  0  0  0  0  0  0  0  0  0
    1.0963   -1.7361    0.0000 C   0  0  0  0  0  0  0  0  0  0  0  0
   -0.3048   -0.2262    0.0000 N   0  0  0  0  0  0  0  0  0  0  0  0
   -0.7256    0.4876    0.0000 C   0  0  0  0  0  0  0  0  0  0  0  0
   -1.5488    0.4661    0.0000 C   0  0  0  0  0  0  0  0  0  0  0  0
   -1.9635    1.1826    0.0000 C   0  0  0  0  0  0  0  0  0  0  0  0
   -2.7887    1.1729    0.0000 C   0  0  0  0  0  0  0  0  0  0  0  0
   -3.2250    1.8720    0.0000 C   0  0  0  0  0  0  0  0  0  0  0  0
   -4.0576    1.8878    0.0000 C   0  0  0  0  0  0  0  0  0  0  0  0
   -4.4878    2.5888    0.0000 C   0  0  0  0  0  0  0  0  0  0  0  0
   -5.3122    2.5667    0.0000 C   0  0  0  0  0  0  0  0  0  0  0  0
  1  2  2  0
  2  3  1  0
  2 14  1  0
  3  4  1  0
  3 13  1  0
  4  5  1  0
  4 11  1  6
  5  6  1  1
  5  7  1  0
  7  8  1  6
  7  9  1  0
  9 10  1  6
  9 13  1  0
 11 12  1  0
 13 12  1  1
 14 15  1  0
 15 16  1  0
 16 17  1  0
 17 18  1  0
 18 19  1  0
 19 20  1  0
 20 21  1  0
 21 22  1  0
M  END
>  <DRUGBANK_ID>  (1) 
DB08260

>  <COMMON_NAME>  (1) 
(1S,2R,3S,4R,5R)-2,3,4-trihydroxy-N-octyl-6-oxa-8-azabicyclo[3.2.1]octane-8-carbothioamide

$$$$
