
     RDKit          2D

 17 16  0  0  0  0  0  0  0  0999 V2000
    1.2964   -0.2041    0.0000 C   0  0  0  0  0  0  0  0  0  0  0  0
    0.4714   -0.2041    0.0000 N   0  0  0  0  0  0  0  0  0  0  0  0
    0.4714    0.6209    0.0000 C   0  0  0  0  0  0  0  0  0  0  0  0
    0.4714   -1.0291    0.0000 C   0  0  0  0  0  0  0  0  0  0  0  0
   -0.3536   -0.2041    0.0000 C   0  0  0  0  0  0  0  0  0  0  0  0
   -0.7661    0.5103    0.0000 C   0  0  0  0  0  0  0  0  0  0  0  0
   -1.5911    0.5103    0.0000 O   0  0  0  0  0  0  0  0  0  0  0  0
    5.3256   -1.0725    0.0000 C   0  0  0  0  0  0  0  0  0  0  0  0
    4.6111   -1.4850    0.0000 C   0  0  0  0  0  0  0  0  0  0  0  0
    3.8966   -1.0725    0.0000 C   0  0  0  0  0  0  0  0  0  0  0  0
    3.8966   -0.2475    0.0000 C   0  0  0  0  0  0  0  0  0  0  0  0
    4.6111    0.1650    0.0000 C   0  0  0  0  0  0  0  0  0  0  0  0
    5.3256   -0.2475    0.0000 C   0  0  0  0  0  0  0  0  0  0  0  0
    4.6111    0.9900    0.0000 C   0  0  0  0  0  0  0  0  0  0  0  0
    3.8966    1.4025    0.0000 O   0  0  0  0  0  0  0  0  0  0  0  0
    5.3256    1.4025    0.0000 O   0  0  0  0  0  0  0  0  0  0  0  0
    3.1821    0.1650    0.0000 O   0  0  0  0  0  0  0  0  0  0  0  0
  1  2  1  0
  2  3  1  0
  2  4  1  0
  2  5  1  0
  5  6  1  0
  6  7  1  0
  8  9  2  0
  8 13  1  0
  9 10  1  0
 10 11  2  0
 11 12  1  0
 11 17  1  0
 12 13  2  0
 12 14  1  0
 14 15  2  0
 14 16  1  0
M  CHG  2   2   1  16  -1
M  END
>  <DRUGBANK_ID>  (1) 
DB14006

>  <SECONDARY_ACCESSION_NUMBERS>  (1) 
DBSALT001576

>  <COMMON_NAME>  (1) 
Choline salicylate

>  <CAS_NUMBER>  (1) 
2016-36-6

>  <UNII>  (1) 
KD510K1IQW

>  <SYNONYMS>  (1) 
Choline salicylate

$$$$
