
     RDKit          2D

 24 25  0  0  0  0  0  0  0  0999 V2000
   -0.4976    0.3324    0.0000 C   0  0  0  0  0  0  0  0  0  0  0  0
   -0.4976   -0.4925    0.0000 C   0  0  0  0  0  0  0  0  0  0  0  0
   -1.2121    0.7449    0.0000 C   0  0  0  0  0  0  0  0  0  0  0  0
    0.2167    0.7449    0.0000 C   0  0  0  0  0  0  0  0  0  0  0  0
   -1.2121   -0.9050    0.0000 C   0  0  0  0  0  0  0  0  0  0  0  0
    0.2167   -0.9050    0.0000 O   0  0  0  0  0  0  0  0  0  0  0  0
   -1.9266    0.3324    0.0000 C   0  0  0  0  0  0  0  0  0  0  0  0
    0.9312    0.3324    0.0000 N   0  0  0  0  0  0  0  0  0  0  0  0
    0.2167    1.5699    0.0000 O   0  0  0  0  0  0  0  0  0  0  0  0
   -1.9266   -0.4925    0.0000 C   0  0  0  0  0  0  0  0  0  0  0  0
    0.2167   -1.7300    0.0000 C   0  0  0  0  0  0  0  0  0  0  0  0
   -2.6410    0.7449    0.0000 S   0  0  0  0  0  0  0  0  0  0  0  0
    1.6457    0.7449    0.0000 C   0  0  0  0  0  0  0  0  0  0  0  0
   -3.3555    1.1574    0.0000 C   0  0  0  0  0  0  0  0  0  0  0  0
   -3.0535    0.0304    0.0000 O   0  0  0  0  0  0  0  0  0  0  0  0
   -2.2285    1.4594    0.0000 O   0  0  0  0  0  0  0  0  0  0  0  0
    2.3602    0.3324    0.0000 C   0  0  0  0  0  0  0  0  0  0  0  0
   -4.0700    0.7449    0.0000 C   0  0  0  0  0  0  0  0  0  0  0  0
    3.1138    0.6680    0.0000 N   0  0  0  0  0  0  0  0  0  0  0  0
    2.4464   -0.4880    0.0000 C   0  0  0  0  0  0  0  0  0  0  0  0
    3.6659    0.0549    0.0000 C   0  0  0  0  0  0  0  0  0  0  0  0
    3.2854    1.4749    0.0000 C   0  0  0  0  0  0  0  0  0  0  0  0
    3.2534   -0.6595    0.0000 C   0  0  0  0  0  0  0  0  0  0  0  0
    4.0700    1.7300    0.0000 C   0  0  0  0  0  0  0  0  0  0  0  0
  1  2  2  0
  1  3  1  0
  1  4  1  0
  2  5  1  0
  2  6  1  0
  3  7  2  0
  4  8  1  0
  4  9  2  0
  5 10  2  0
  6 11  1  0
  7 12  1  0
  7 10  1  0
  8 13  1  0
 12 14  1  0
 12 15  2  0
 12 16  2  0
 13 17  1  0
 14 18  1  0
 17 19  1  0
 17 20  1  0
 19 21  1  0
 19 22  1  0
 20 23  1  0
 21 23  1  0
 22 24  1  0
M  END
>  <DRUGBANK_ID>  (1) 
DB13273

>  <COMMON_NAME>  (1) 
Sultopride

>  <CAS_NUMBER>  (1) 
53583-79-2

>  <UNII>  (1) 
AA0G3TW31W

>  <SYNONYMS>  (1) 
Sultopride; Sultopridum; Sultroprida

$$$$
