216
     RDKit          2D

 30 32  0  0  0  0  0  0  0  0999 V2000
   -1.2509   -1.1250    0.0000 O   0  0  0  0  0  0  0  0  0  0  0  0
    1.6099    0.8255    0.0000 O   0  0  0  0  0  0  0  0  0  0  0  0
    0.4803    1.8735    0.0000 O   0  0  0  0  0  0  0  0  0  0  0  0
    0.0986   -0.7634    0.0000 N   0  0  0  0  0  0  0  0  0  0  0  0
   -0.9911    0.2478    0.0000 N   0  0  0  0  0  0  0  0  0  0  0  0
   -0.6897   -0.5202    0.0000 C   0  0  0  0  0  0  0  0  0  0  0  0
    0.7803   -0.2986    0.0000 C   0  0  0  0  0  0  0  0  0  0  0  0
    0.8419    0.5241    0.0000 C   0  0  0  0  0  0  0  0  0  0  0  0
    0.2371    1.0852    0.0000 C   0  0  0  0  0  0  0  0  0  0  0  0
   -0.5786    0.9622    0.0000 C   0  0  0  0  0  0  0  0  0  0  0  0
    0.2216   -1.5792    0.0000 C   0  0  0  0  0  0  0  0  0  0  0  0
   -0.4234   -2.0935    0.0000 C   0  0  0  0  0  0  0  0  0  0  0  0
   -1.1914   -1.7921    0.0000 C   0  0  0  0  0  0  0  0  0  0  0  0
    1.4947   -0.7111    0.0000 C   0  0  0  0  0  0  0  0  0  0  0  0
    1.4947   -1.5361    0.0000 C   0  0  0  0  0  0  0  0  0  0  0  0
    2.2092   -1.9486    0.0000 C   0  0  0  0  0  0  0  0  0  0  0  0
    2.2092   -2.7736    0.0000 C   0  0  0  0  0  0  0  0  0  0  0  0
    1.4947   -3.1861    0.0000 C   0  0  0  0  0  0  0  0  0  0  0  0
    0.7803   -2.7736    0.0000 C   0  0  0  0  0  0  0  0  0  0  0  0
    0.7803   -1.9486    0.0000 C   0  0  0  0  0  0  0  0  0  0  0  0
   -1.0434    1.6439    0.0000 C   0  0  0  0  0  0  0  0  0  0  0  0
   -0.6854    2.3872    0.0000 C   0  0  0  0  0  0  0  0  0  0  0  0
   -1.1502    3.0688    0.0000 C   0  0  0  0  0  0  0  0  0  0  0  0
   -0.7922    3.8121    0.0000 C   0  0  0  0  0  0  0  0  0  0  0  0
    0.0305    3.8738    0.0000 C   0  0  0  0  0  0  0  0  0  0  0  0
    0.4952    3.1921    0.0000 C   0  0  0  0  0  0  0  0  0  0  0  0
    0.1373    2.4488    0.0000 C   0  0  0  0  0  0  0  0  0  0  0  0
   -1.8138    0.3094    0.0000 C   0  0  0  0  0  0  0  0  0  0  0  0
   -2.2786   -0.3722    0.0000 C   0  0  0  0  0  0  0  0  0  0  0  0
   -1.9206   -1.1155    0.0000 C   0  0  0  0  0  0  0  0  0  0  0  0
  1  6  2  0
  4  6  1  0
  4  7  1  0
  4 11  1  0
  5  6  1  0
  5 10  1  0
  5 28  1  0
  7  8  1  0
  7 14  1  1
  8  2  1  1
  8  9  1  0
  9  3  1  6
  9 10  1  0
 10 21  1  6
 11 12  1  0
 12 13  2  0
 14 15  1  0
 15 16  2  0
 15 20  1  0
 16 17  1  0
 17 18  2  0
 18 19  1  0
 19 20  2  0
 21 22  1  0
 22 23  2  0
 22 27  1  0
 23 24  1  0
 24 25  2  0
 25 26  1  0
 26 27  2  0
 28 29  1  0
 29 30  2  0
M  END
>  <DRUGBANK_ID>  (1) 
DB06910

>  <COMMON_NAME>  (1) 
[4-R-(4-ALPHA,6-BETA,7-BETA]-HEXAHYDRO-5,6-DI(HYDROXY)-1,3-DI(ALLYL)-4,7-BISPHENYLMETHYL)-2H-1,3-DIAZEPINONE

$$$$
