
     RDKit          2D

 32 35  0  0  0  0  0  0  0  0999 V2000
    1.8721    4.6732    0.0000 C   0  0  0  0  0  0  0  0  0  0  0  0
    1.1576    4.2607    0.0000 C   0  0  0  0  0  0  0  0  0  0  0  0
    1.1576    3.4357    0.0000 C   0  0  0  0  0  0  0  0  0  0  0  0
    0.4431    3.0232    0.0000 C   0  0  0  0  0  0  0  0  0  0  0  0
    0.4431    2.1982    0.0000 C   0  0  0  0  0  0  0  0  0  0  0  0
   -0.2712    1.7857    0.0000 N   0  0  0  0  0  0  0  0  0  0  0  0
   -0.2712    0.9607    0.0000 C   0  0  0  0  0  0  0  0  0  0  0  0
    0.3961    0.4758    0.0000 C   0  0  0  0  0  0  0  0  0  0  0  0
    1.1807    0.7307    0.0000 C   0  0  0  0  0  0  0  0  0  0  0  0
    1.7938    0.1787    0.0000 N   0  0  0  0  0  0  0  0  0  0  0  0
    1.3523    1.5377    0.0000 O   0  0  0  0  0  0  0  0  0  0  0  0
    0.1412   -0.3087    0.0000 C   0  0  0  0  0  0  0  0  0  0  0  0
    0.6261   -0.9762    0.0000 N   0  0  0  0  0  0  0  0  0  0  0  0
    0.2905   -1.7299    0.0000 C   0  0  0  0  0  0  0  0  0  0  0  0
    0.7755   -2.3972    0.0000 C   0  0  0  0  0  0  0  0  0  0  0  0
    0.4399   -3.1509    0.0000 C   0  0  0  0  0  0  0  0  0  0  0  0
   -0.3805   -3.2372    0.0000 C   0  0  0  0  0  0  0  0  0  0  0  0
   -0.8654   -2.5697    0.0000 C   0  0  0  0  0  0  0  0  0  0  0  0
   -0.5299   -1.8160    0.0000 C   0  0  0  0  0  0  0  0  0  0  0  0
   -0.7161   -3.9908    0.0000 N   0  0  0  0  0  0  0  0  0  0  0  0
   -0.2311   -4.6583    0.0000 C   0  0  0  0  0  0  0  0  0  0  0  0
   -0.5667   -5.4120    0.0000 C   0  0  0  0  0  0  0  0  0  0  0  0
   -1.3872   -5.4982    0.0000 O   0  0  0  0  0  0  0  0  0  0  0  0
   -1.8721   -4.8308    0.0000 C   0  0  0  0  0  0  0  0  0  0  0  0
   -1.5365   -4.0771    0.0000 C   0  0  0  0  0  0  0  0  0  0  0  0
   -0.6837   -0.3087    0.0000 N   0  0  0  0  0  0  0  0  0  0  0  0
   -0.9387    0.4758    0.0000 N   0  0  0  0  0  0  0  0  0  0  0  0
   -0.2712    3.4357    0.0000 C   0  0  0  0  0  0  0  0  0  0  0  0
   -0.2712    4.2607    0.0000 C   0  0  0  0  0  0  0  0  0  0  0  0
   -0.9857    4.6732    0.0000 C   0  0  0  0  0  0  0  0  0  0  0  0
    0.4431    4.6732    0.0000 C   0  0  0  0  0  0  0  0  0  0  0  0
    0.4431    5.4982    0.0000 O   0  0  0  0  0  0  0  0  0  0  0  0
  1  2  1  0
  2  3  2  0
  2 31  1  0
  3  4  1  0
  4  5  1  0
  4 28  2  0
  5  6  1  0
  6  7  1  0
  7  8  2  0
  7 27  1  0
  8  9  1  0
  8 12  1  0
  9 10  1  0
  9 11  2  0
 12 13  1  0
 12 26  2  0
 13 14  1  0
 14 15  2  0
 14 19  1  0
 15 16  1  0
 16 17  2  0
 17 18  1  0
 17 20  1  0
 18 19  2  0
 20 21  1  0
 20 25  1  0
 21 22  1  0
 22 23  1  0
 23 24  1  0
 24 25  1  0
 26 27  1  0
 28 29  1  0
 29 30  1  0
 29 31  2  0
 31 32  1  0
M  END
>  <DRUGBANK_ID>  (1) 
DB18063

>  <COMMON_NAME>  (1) 
MG-S-2525

>  <UNII>  (1) 
I45A327R6A

>  <SYNONYMS>  (1) 
5-(3,5-Dimethyl-4-hydroxybenzylamino)-3-(4-morpholin-4-yl-phenylamino)-1H-pyrazole-4-carboxylic acid amide

$$$$
