OLU
     RDKit          2D

 16 18  0  0  0  0  0  0  0  0999 V2000
   -3.0500    0.9924    0.0000 O   0  0  0  0  0  0  0  0  0  0  0  0
   -2.3826    0.5075    0.0000 C   0  0  0  0  0  0  0  0  0  0  0  0
   -1.5979    0.7624    0.0000 N   0  0  0  0  0  0  0  0  0  0  0  0
   -1.1130    0.0950    0.0000 C   0  0  0  0  0  0  0  0  0  0  0  0
   -1.5979   -0.5725    0.0000 S   0  0  0  0  0  0  0  0  0  0  0  0
   -2.3826   -0.3175    0.0000 C   0  0  0  0  0  0  0  0  0  0  0  0
   -0.2880    0.0950    0.0000 C   0  0  0  0  0  0  0  0  0  0  0  0
    0.1969    0.7624    0.0000 S   0  0  0  0  0  0  0  0  0  0  0  0
    0.9815    0.5075    0.0000 C   0  0  0  0  0  0  0  0  0  0  0  0
    1.6960    0.9200    0.0000 C   0  0  0  0  0  0  0  0  0  0  0  0
    0.9815   -0.3175    0.0000 C   0  0  0  0  0  0  0  0  0  0  0  0
    0.1969   -0.5725    0.0000 N   0  0  0  0  0  0  0  0  0  0  0  0
    1.6960   -0.7300    0.0000 C   0  0  0  0  0  0  0  0  0  0  0  0
    2.4105   -0.3175    0.0000 C   0  0  0  0  0  0  0  0  0  0  0  0
    2.4105    0.5075    0.0000 C   0  0  0  0  0  0  0  0  0  0  0  0
    3.1249    0.9200    0.0000 O   0  0  0  0  0  0  0  0  0  0  0  0
  1  2  2  0
  2  3  1  0
  2  6  1  0
  3  4  2  0
  4  5  1  0
  4  7  1  0
  5  6  1  0
  7  8  1  0
  7 12  2  0
  8  9  1  0
  9 10  2  0
  9 11  1  0
 10 15  1  0
 11 12  1  0
 11 13  2  0
 13 14  1  0
 14 15  2  0
 15 16  1  0
M  END
>  <DRUGBANK_ID>  (1) 
DB08326

>  <COMMON_NAME>  (1) 
2-(6-HYDROXY-1,3-BENZOTHIAZOL-2-YL)-1,3-THIAZOL-4(5H)-ONE

>  <UNII>  (1) 
8T3Z7X2Y9G

$$$$
