
     RDKit          2D

 21 22  0  0  0  0  0  0  0  0999 V2000
    0.7145    3.7125    0.0000 C   0  0  0  0  0  0  0  0  0  0  0  0
    2.8579    2.4750    0.0000 C   0  0  0  0  0  0  0  0  0  0  0  0
   -1.4289    3.3000    0.0000 C   0  0  0  0  0  0  0  0  0  0  0  0
   -1.4289    2.4750    0.0000 C   0  0  0  0  0  0  0  0  0  0  0  0
    2.8579    3.3000    0.0000 C   0  0  0  0  0  0  0  0  0  0  0  0
    2.1434    2.0625    0.0000 C   0  0  0  0  0  0  0  0  0  0  0  0
   -0.7145    3.7125    0.0000 C   0  0  0  0  0  0  0  0  0  0  0  0
    1.4289    3.3000    0.0000 C   0  0  0  0  0  0  0  0  0  0  0  0
   -0.7145    2.0625    0.0000 C   0  0  0  0  0  0  0  0  0  0  0  0
    2.1434    3.7125    0.0000 C   0  0  0  0  0  0  0  0  0  0  0  0
    1.4289    2.4750    0.0000 C   0  0  0  0  0  0  0  0  0  0  0  0
   -0.0000    2.4750    0.0000 C   0  0  0  0  0  0  0  0  0  0  0  0
   -0.7145    1.2375    0.0000 C   0  0  0  0  0  0  0  0  0  0  0  0
    2.1434    4.5375    0.0000 C   0  0  0  0  0  0  0  0  0  0  0  0
    2.1434    5.3625    0.0000 F   0  0  0  0  0  0  0  0  0  0  0  0
    2.9684    4.5375    0.0000 F   0  0  0  0  0  0  0  0  0  0  0  0
    1.3184    4.5375    0.0000 F   0  0  0  0  0  0  0  0  0  0  0  0
   -0.0000    3.3000    0.0000 N   0  0  0  0  0  0  0  0  0  0  0  0
    0.7145    2.0625    0.0000 N   0  0  0  0  0  0  0  0  0  0  0  0
   -1.4289    0.8250    0.0000 O   0  0  0  0  0  0  0  0  0  0  0  0
   -0.0000    0.8250    0.0000 O   0  0  0  0  0  0  0  0  0  0  0  0
  4  3  2  0
  5  2  2  0
  6  2  1  0
  7  3  1  0
  8  1  1  0
  9  4  1  0
 10  5  1  0
 10  8  2  0
 11  6  2  0
 11  8  1  0
 12  9  2  0
 13  9  1  0
 14 10  1  0
 15 14  1  0
 16 14  1  0
 17 14  1  0
 18  7  2  0
 18 12  1  0
 19 11  1  0
 19 12  1  0
 20 13  2  0
 21 13  1  0
M  END
>  <DRUGBANK_ID>  (1) 
DB11518

>  <COMMON_NAME>  (1) 
Flunixin

>  <CAS_NUMBER>  (1) 
38677-85-9

>  <UNII>  (1) 
356IB1O400

>  <SYNONYMS>  (1) 
2-((2-methyl-3-(trifluoromethyl)phenyl)amino)-3-pyridinecarboxylic acid; Flunixin; Flunixine; Flunixino; Flunixinum

$$$$
