
     RDKit          2D

 20 23  0  0  1  0  0  0  0  0999 V2000
    4.5141   -0.9039    0.0000 C   0  0  0  0  0  0  0  0  0  0  0  0
    1.2462    0.2211    0.0000 C   0  0  0  0  0  0  0  0  0  0  0  0
    5.4880    2.2551    0.0000 C   0  0  0  0  0  0  0  0  0  0  0  0
    3.1064   -0.8804    0.0000 C   0  0  0  0  0  0  0  0  0  0  0  0
    2.5429   -0.2609    0.0000 C   0  0  0  0  0  0  0  0  0  0  0  0
    4.7995    0.4092    0.0000 C   0  0  0  0  0  0  0  0  0  0  0  0
    5.2883    1.0982    0.0000 C   0  0  0  0  0  0  0  0  0  0  0  0
    3.8256   -0.4493    0.0000 C   0  0  0  0  0  0  0  0  0  0  0  0
    1.8064    0.8267    0.0000 C   0  0  0  0  0  0  0  0  0  0  0  0
    3.9421    0.3980    0.0000 C   0  0  0  0  0  0  0  0  0  0  0  0
    2.6391    0.5940    0.0000 C   0  0  0  0  0  0  0  0  0  0  0  0
    1.5179    1.6168    0.0000 C   0  0  0  0  0  0  0  0  0  0  0  0
    3.0379    1.8038    0.0000 C   0  0  0  0  0  0  0  0  0  0  0  0
    4.8026    1.7960    0.0000 C   0  0  0  0  0  0  0  0  0  0  0  0
    3.3814    1.0934    0.0000 C   0  0  0  0  0  0  0  0  0  0  0  0
    0.7354    1.8782    0.0000 O   0  0  0  0  0  0  0  0  0  0  0  0
    2.2230    2.0744    0.0000 O   0  0  0  0  0  0  0  0  0  0  0  0
    3.9705    1.5831    0.0000 O   0  0  0  0  0  0  0  0  0  0  0  0
    4.3462    2.5046    0.0000 O   0  0  0  0  0  0  0  0  0  0  0  0
    3.6200    2.0443    0.0000 O   0  0  0  0  0  0  0  0  0  0  0  0
  5  4  1  0
  7  6  1  0
  8  1  1  6
  8  4  1  0
  9  2  1  1
 10  6  1  1
 10  8  1  0
 11  5  1  1
 11  9  1  0
 12  9  1  0
 14  3  1  1
 14  7  1  0
 15 10  1  0
 15 11  1  0
 15 13  1  0
 15 20  1  6
 16 12  2  0
 17 12  1  0
 13 17  1  6
 18 13  1  0
 18 14  1  0
 19 14  1  0
 20 19  1  0
M  END
>  <DRUGBANK_ID>  (1) 
DB13132

>  <COMMON_NAME>  (1) 
Artemisinin

>  <CAS_NUMBER>  (1) 
63968-64-9

>  <UNII>  (1) 
9RMU91N5K2

>  <SYNONYMS>  (1) 
Artemisinin; artemisinina

$$$$
