
     RDKit          2D

 26 29  0  0  1  0  0  0  0  0999 V2000
    5.0556    3.4435    0.0000 Br  0  0  0  0  0  0  0  0  0  0  0  0
    6.4846    0.9685    0.0000 F   0  0  0  0  0  0  0  0  0  0  0  0
    5.1536   -0.9508    0.0000 O   0  0  0  0  0  0  0  0  0  0  0  0
    5.0591   -2.3006    0.0000 O   0  0  0  0  0  0  0  0  0  0  0  0
    2.7292   -3.4435    0.0000 O   0  0  0  0  0  0  0  0  0  0  0  0
    3.6267    0.9685    0.0000 O   0  0  0  0  0  0  0  0  0  0  0  0
    2.9121   -1.0941    0.0000 N   0  0  0  0  0  0  0  0  0  0  0  0
    4.3412   -0.2690    0.0000 N   0  0  0  0  0  0  0  0  0  0  0  0
    4.0392   -2.7761    0.0000 N   0  0  0  0  0  0  0  0  0  0  0  0
    3.6267   -1.5066    0.0000 C   0  0  0  0  0  0  0  0  0  0  0  0
    2.9592   -1.9915    0.0000 C   0  0  0  0  0  0  0  0  0  0  0  0
    4.3412   -1.0941    0.0000 C   0  0  0  0  0  0  0  0  0  0  0  0
    4.2941   -1.9915    0.0000 C   0  0  0  0  0  0  0  0  0  0  0  0
    2.9121   -0.2690    0.0000 C   0  0  0  0  0  0  0  0  0  0  0  0
    3.2142   -2.7761    0.0000 C   0  0  0  0  0  0  0  0  0  0  0  0
    3.6267    0.1435    0.0000 C   0  0  0  0  0  0  0  0  0  0  0  0
    2.1315   -1.3454    0.0000 C   0  0  0  0  0  0  0  0  0  0  0  0
    5.0556    0.1435    0.0000 C   0  0  0  0  0  0  0  0  0  0  0  0
    2.1315   -0.0176    0.0000 C   0  0  0  0  0  0  0  0  0  0  0  0
    1.6500   -0.6815    0.0000 C   0  0  0  0  0  0  0  0  0  0  0  0
    5.0556    0.9685    0.0000 C   0  0  0  0  0  0  0  0  0  0  0  0
    5.7701    1.3810    0.0000 C   0  0  0  0  0  0  0  0  0  0  0  0
    4.3412    1.3810    0.0000 C   0  0  0  0  0  0  0  0  0  0  0  0
    5.7701    2.2060    0.0000 C   0  0  0  0  0  0  0  0  0  0  0  0
    4.3412    2.2060    0.0000 C   0  0  0  0  0  0  0  0  0  0  0  0
    5.0556    2.6185    0.0000 C   0  0  0  0  0  0  0  0  0  0  0  0
  1 26  1  0
  2 22  1  0
  3 12  2  0
  4 13  2  0
  5 15  2  0
  6 16  2  0
  7 10  1  0
  7 14  1  0
  7 17  1  0
  8 12  1  0
  8 16  1  0
  8 18  1  0
  9 13  1  0
  9 15  1  0
 10 11  1  6
 10 12  1  0
 10 13  1  0
 11 15  1  0
 14 16  1  0
 14 19  2  0
 17 20  2  0
 18 21  1  0
 19 20  1  0
 21 22  2  0
 21 23  1  0
 22 24  1  0
 23 25  2  0
 24 26  2  0
 25 26  1  0
M  END
>  <DRUGBANK_ID>  (1) 
DB05327

>  <SECONDARY_ACCESSION_NUMBERS>  (1) 
DB12811

>  <COMMON_NAME>  (1) 
Ranirestat

>  <CAS_NUMBER>  (1) 
147254-64-6

>  <UNII>  (1) 
Z26P56GFTV

>  <SYNONYMS>  (1) 
Ranirestat

$$$$
