0MO
     RDKit          2D

 20 21  0  0  0  0  0  0  0  0999 V2000
    3.7234   -0.0816    0.0000 C   0  0  0  0  0  0  0  0  0  0  0  0
   -1.5798   -2.1762    0.0000 N   0  0  0  0  0  0  0  0  0  0  0  0
    0.8655   -0.0816    0.0000 O   0  0  0  0  0  0  0  0  0  0  0  0
    3.0089    0.3309    0.0000 C   0  0  0  0  0  0  0  0  0  0  0  0
   -2.6598   -1.3915    0.0000 N   0  0  0  0  0  0  0  0  0  0  0  0
    0.8655    1.5684    0.0000 O   0  0  0  0  0  0  0  0  0  0  0  0
    2.2945   -0.0816    0.0000 C   0  0  0  0  0  0  0  0  0  0  0  0
   -2.8898   -2.8436    0.0000 O   0  0  0  0  0  0  0  0  0  0  0  0
    1.5800    0.3309    0.0000 C   0  0  0  0  0  0  0  0  0  0  0  0
    0.1511    0.3309    0.0000 C   0  0  0  0  0  0  0  0  0  0  0  0
    0.1511    1.1559    0.0000 C   0  0  0  0  0  0  0  0  0  0  0  0
    0.8655    2.3934    0.0000 C   0  0  0  0  0  0  0  0  0  0  0  0
   -0.5634    1.5684    0.0000 C   0  0  0  0  0  0  0  0  0  0  0  0
   -1.2779    1.1559    0.0000 C   0  0  0  0  0  0  0  0  0  0  0  0
   -1.2779    0.3309    0.0000 C   0  0  0  0  0  0  0  0  0  0  0  0
   -1.9923   -0.0816    0.0000 C   0  0  0  0  0  0  0  0  0  0  0  0
   -1.9923   -0.9066    0.0000 C   0  0  0  0  0  0  0  0  0  0  0  0
   -1.3249   -1.3915    0.0000 C   0  0  0  0  0  0  0  0  0  0  0  0
   -2.4048   -2.1762    0.0000 C   0  0  0  0  0  0  0  0  0  0  0  0
   -0.5634   -0.0816    0.0000 C   0  0  0  0  0  0  0  0  0  0  0  0
  2 19  1  0
  3 10  1  0
  3  9  1  0
  4  1  1  0
  4  7  1  0
  5 19  1  0
  6 11  1  0
  7  9  1  0
 10 20  2  0
 11 10  1  0
 11 13  2  0
 12  6  1  0
 13 14  1  0
 14 15  2  0
 15 16  1  0
 17 16  1  6
 17  5  1  0
 17 18  1  0
 18  2  1  0
 19  8  2  0
 20 15  1  0
M  END
>  <DRUGBANK_ID>  (1) 
DB06842

>  <COMMON_NAME>  (1) 
(4R)-4-(3-butoxy-4-methoxybenzyl)imidazolidin-2-one

$$$$
