
     RDKit          2D

 31 34  0  0  0  0  0  0  0  0999 V2000
   -1.9152    0.7366    0.0000 C   0  0  0  0  0  0  0  0  0  0  0  0
   -2.6296    0.3241    0.0000 C   0  0  0  0  0  0  0  0  0  0  0  0
   -2.6296   -0.5009    0.0000 C   0  0  0  0  0  0  0  0  0  0  0  0
   -1.9152   -0.9134    0.0000 C   0  0  0  0  0  0  0  0  0  0  0  0
   -1.2007   -0.5009    0.0000 C   0  0  0  0  0  0  0  0  0  0  0  0
   -1.2007    0.3241    0.0000 C   0  0  0  0  0  0  0  0  0  0  0  0
   -3.3736    0.7071    0.0000 C   0  0  0  0  0  0  0  0  0  0  0  0
   -3.9113    0.1179    0.0000 C   0  0  0  0  0  0  0  0  0  0  0  0
   -3.5210   -0.6790    0.0000 S   0  0  0  0  0  0  0  0  0  0  0  0
   -1.9152    1.5616    0.0000 O   0  0  0  0  0  0  0  0  0  0  0  0
   -1.2007    1.9741    0.0000 C   0  0  0  0  0  0  0  0  0  0  0  0
   -0.4862    1.5616    0.0000 C   0  0  0  0  0  0  0  0  0  0  0  0
    0.2282    1.9741    0.0000 C   0  0  0  0  0  0  0  0  0  0  0  0
    1.2202    2.8673    0.0000 O   0  0  0  0  0  0  0  0  0  0  0  0
    0.3998    2.7811    0.0000 C   0  0  0  0  0  0  0  0  0  0  0  0
    0.9427    1.5616    0.0000 N   0  0  0  0  0  0  0  0  0  0  0  0
    1.5558    2.1136    0.0000 C   0  0  0  0  0  0  0  0  0  0  0  0
   -0.1523    3.3941    0.0000 C   0  0  0  0  0  0  0  0  0  0  0  0
    2.3627    1.9421    0.0000 C   0  0  0  0  0  0  0  0  0  0  0  0
    3.6002    2.6566    0.0000 C   0  0  0  0  0  0  0  0  0  0  0  0
    2.7752    2.6566    0.0000 C   0  0  0  0  0  0  0  0  0  0  0  0
    2.7752    1.2276    0.0000 C   0  0  0  0  0  0  0  0  0  0  0  0
    3.6002    1.2276    0.0000 C   0  0  0  0  0  0  0  0  0  0  0  0
    4.0127    1.9421    0.0000 C   0  0  0  0  0  0  0  0  0  0  0  0
   -1.9152   -1.7384    0.0000 C   0  0  0  0  0  0  0  0  0  0  0  0
   -1.2007   -2.1509    0.0000 C   0  0  0  0  0  0  0  0  0  0  0  0
   -1.2007   -2.9759    0.0000 O   0  0  0  0  0  0  0  0  0  0  0  0
   -0.4862   -1.7384    0.0000 C   0  0  0  0  0  0  0  0  0  0  0  0
    0.2282   -2.1509    0.0000 O   0  0  0  0  0  0  0  0  0  0  0  0
   -0.4862   -0.9134    0.0000 O   0  0  0  0  0  0  0  0  0  0  0  0
   -1.9903   -3.5593    0.0000 C   0  0  0  0  0  0  0  0  0  0  0  0
  1  2  2  0
  1  6  1  0
  1 10  1  0
  2  3  1  0
  2  7  1  0
  3  4  2  0
  3  9  1  0
  4  5  1  0
  4 25  1  0
  5  6  2  0
  7  8  2  0
  8  9  1  0
 10 11  1  0
 11 12  1  0
 12 13  1  0
 13 16  1  0
 14 15  1  0
 14 17  1  0
 15 13  2  0
 15 18  1  0
 16 17  2  0
 17 19  1  0
 19 22  2  0
 20 21  2  0
 20 24  1  0
 21 19  1  0
 22 23  1  0
 23 24  2  0
 26 25  1  1
 26 27  1  0
 26 28  1  0
 27 31  1  0
 28 29  1  0
 28 30  2  0
M  END
>  <DRUGBANK_ID>  (1) 
DB08915

>  <SECONDARY_ACCESSION_NUMBERS>  (1) 
DB08483

>  <COMMON_NAME>  (1) 
Aleglitazar

>  <CAS_NUMBER>  (1) 
475479-34-6

>  <UNII>  (1) 
41T4OAG59U

>  <SYNONYMS>  (1) 
Aleglitazar

$$$$
