
     RDKit          2D

  8  7  0  0  0  0  0  0  0  0999 V2000
    1.7605    1.8414    0.0000 C   0  0  0  0  0  0  0  0  0  0  0  0
    2.4750    1.4289    0.0000 C   0  0  0  0  0  0  0  0  0  0  0  0
    3.1895    1.8414    0.0000 C   0  0  0  0  0  0  0  0  0  0  0  0
    3.9039    1.4289    0.0000 C   0  0  0  0  0  0  0  0  0  0  0  0
    4.6184    1.8414    0.0000 C   0  0  0  0  0  0  0  0  0  0  0  0
    5.3329    1.4289    0.0000 C   0  0  0  0  0  0  0  0  0  0  0  0
    6.0474    1.8414    0.0000 C   0  0  0  0  0  0  0  0  0  0  0  0
    5.3329    0.6039    0.0000 N   0  0  0  0  0  0  0  0  0  0  0  0
  1  2  1  0
  2  3  1  0
  3  4  1  0
  4  5  1  0
  5  6  1  0
  6  7  1  0
  6  8  1  0
M  END
>  <DRUGBANK_ID>  (1) 
DB13238

>  <COMMON_NAME>  (1) 
Tuaminoheptane

>  <CAS_NUMBER>  (1) 
123-82-0

>  <UNII>  (1) 
Z0420GYD84

>  <SYNONYMS>  (1) 
1-Methylhexylamine; 2-Aminoheptane; 2-Heptanamine; 2-Heptylamine; Tuaminoheptane; Tuaminoheptano; Tuaminoheptanum

$$$$
