
     RDKit          2D

  7  6  0  0  0  0  0  0  0  0999 V2000
    1.2375    2.1434    0.0000 C   0  0  0  0  0  0  0  0  0  0  0  0
    0.8250    1.4289    0.0000 C   0  0  0  0  0  0  0  0  0  0  0  0
    0.0000    1.4289    0.0000 C   0  0  0  0  0  0  0  0  0  0  0  0
    1.2375    0.7145    0.0000 C   0  0  0  0  0  0  0  0  0  0  0  0
    0.8250    0.0000    0.0000 C   0  0  0  0  0  0  0  0  0  0  0  0
    1.2375   -0.7145    0.0000 O   0  0  0  0  0  0  0  0  0  0  0  0
    0.0000    0.0000    0.0000 O   0  0  0  0  0  0  0  0  0  0  0  0
  1  2  1  0
  2  3  1  0
  2  4  1  0
  4  5  1  0
  5  6  1  0
  5  7  2  0
M  END
>  <DRUGBANK_ID>  (1) 
DB03750

>  <SECONDARY_ACCESSION_NUMBERS>  (1) 
EXPT01947

>  <COMMON_NAME>  (1) 
Isovaleric Acid

>  <CAS_NUMBER>  (1) 
503-74-2

>  <UNII>  (1) 
1BR7X184L5

$$$$
