
     RDKit          2D

 32 36  0  0  1  0  0  0  0  0999 V2000
   -2.9134   -5.8070    0.0000 O   0  0  0  0  0  0  0  0  0  0  0  0
   -2.9134   -4.9820    0.0000 C   0  0  0  0  0  0  0  0  0  0  0  0
   -3.6279   -4.5695    0.0000 C   0  0  0  0  0  0  0  0  0  0  0  0
   -3.6279   -3.7445    0.0000 C   0  0  0  0  0  0  0  0  0  0  0  0
   -4.3423   -3.3320    0.0000 O   0  0  0  0  0  0  0  0  0  0  0  0
   -2.9134   -3.3320    0.0000 N   0  0  0  0  0  0  0  0  0  0  0  0
   -2.1597   -3.6676    0.0000 C   0  0  0  0  0  0  0  0  0  0  0  0
   -1.6077   -3.0545    0.0000 C   0  0  0  0  0  0  0  0  0  0  0  0
   -2.0202   -2.3400    0.0000 C   0  0  0  0  0  0  0  0  0  0  0  0
   -2.8272   -2.5116    0.0000 C   0  0  0  0  0  0  0  0  0  0  0  0
   -1.4681   -1.7269    0.0000 C   0  0  0  0  0  0  0  0  0  0  0  0
   -0.7145   -2.0625    0.0000 N   0  0  0  0  0  0  0  0  0  0  0  0
   -0.8007   -2.8830    0.0000 C   0  0  0  0  0  0  0  0  0  0  0  0
    0.0000   -1.6500    0.0000 S   0  0  0  0  0  0  0  0  0  0  0  0
   -0.4125   -0.9355    0.0000 O   0  0  0  0  0  0  0  0  0  0  0  0
    0.4125   -2.3645    0.0000 O   0  0  0  0  0  0  0  0  0  0  0  0
    0.7145   -1.2375    0.0000 C   0  0  0  0  0  0  0  0  0  0  0  0
    0.7145   -0.4125    0.0000 C   0  0  0  0  0  0  0  0  0  0  0  0
    1.4289    0.0000    0.0000 N   0  0  0  0  0  0  0  0  0  0  0  0
    2.1434   -0.4125    0.0000 C   0  0  0  0  0  0  0  0  0  0  0  0
    2.8579    0.0000    0.0000 O   0  0  0  0  0  0  0  0  0  0  0  0
    3.5724   -0.4125    0.0000 C   0  0  0  0  0  0  0  0  0  0  0  0
    3.5724   -1.2375    0.0000 C   0  0  0  0  0  0  0  0  0  0  0  0
    2.8579   -1.6500    0.0000 O   0  0  0  0  0  0  0  0  0  0  0  0
    2.1434   -1.2375    0.0000 C   0  0  0  0  0  0  0  0  0  0  0  0
    1.4289   -1.6500    0.0000 C   0  0  0  0  0  0  0  0  0  0  0  0
   -4.3423   -4.9820    0.0000 C   0  0  0  0  0  0  0  0  0  0  0  0
   -4.3423   -5.8070    0.0000 C   0  0  0  0  0  0  0  0  0  0  0  0
   -5.0568   -6.2195    0.0000 C   0  0  0  0  0  0  0  0  0  0  0  0
   -5.7713   -5.8070    0.0000 C   0  0  0  0  0  0  0  0  0  0  0  0
   -5.7713   -4.9820    0.0000 C   0  0  0  0  0  0  0  0  0  0  0  0
   -5.0568   -4.5695    0.0000 C   0  0  0  0  0  0  0  0  0  0  0  0
  1  2  1  0
  3  2  1  6
  3  4  1  0
  3 27  1  0
  4  5  2  0
  4  6  1  0
  6  7  1  0
  6 10  1  0
  7  8  1  0
  8  9  2  0
  8 13  1  0
  9 10  1  0
  9 11  1  0
 11 12  1  0
 12 13  1  0
 12 14  1  0
 14 15  2  0
 14 16  2  0
 14 17  1  0
 17 18  2  0
 17 26  1  0
 18 19  1  0
 19 20  2  0
 20 21  1  0
 20 25  1  0
 21 22  1  0
 22 23  1  0
 23 24  1  0
 24 25  1  0
 25 26  2  0
 27 28  2  0
 27 32  1  0
 28 29  1  0
 29 30  2  0
 30 31  1  0
 31 32  2  0
M  END
>  <DRUGBANK_ID>  (1) 
DB18176

>  <COMMON_NAME>  (1) 
Etavopivat

>  <CAS_NUMBER>  (1) 
2245053-57-8

>  <UNII>  (1) 
V4E0A9M44Q

>  <SYNONYMS>  (1) 
1-propanone, 1-(5-((2,3-dihydro-1,4-dioxino(2,3-b)pyridin-7-yl)sulfonyl)-3,4,5,6-tetrahydropyrrolo(3,4-c)pyrrol-2(1h)-yl)-3-hydroxy-2-phenyl-, (2s)-

$$$$
