DCX
     RDKit          2D

 14 13  0  0  0  0  0  0  0  0999 V2000
    3.2786   -0.4894    0.0000 C   0  0  0  0  0  0  0  0  0  0  0  0
    2.9766    0.6375    0.0000 O   0  0  0  0  0  0  0  0  0  0  0  0
    1.1351   -0.0769    0.0000 C   0  0  0  0  0  0  0  0  0  0  0  0
   -4.5811   -0.0769    0.0000 C   0  0  0  0  0  0  0  0  0  0  0  0
   -3.8666    0.3356    0.0000 C   0  0  0  0  0  0  0  0  0  0  0  0
   -3.1520   -0.0769    0.0000 C   0  0  0  0  0  0  0  0  0  0  0  0
   -2.4376    0.3356    0.0000 C   0  0  0  0  0  0  0  0  0  0  0  0
   -1.7230   -0.0769    0.0000 C   0  0  0  0  0  0  0  0  0  0  0  0
   -1.0085    0.3356    0.0000 C   0  0  0  0  0  0  0  0  0  0  0  0
   -0.2940   -0.0769    0.0000 C   0  0  0  0  0  0  0  0  0  0  0  0
    0.4205    0.3356    0.0000 C   0  0  0  0  0  0  0  0  0  0  0  0
    1.8496    0.3356    0.0000 C   0  0  0  0  0  0  0  0  0  0  0  0
    2.5641   -0.0769    0.0000 P   0  0  0  0  0  0  0  0  0  0  0  0
    2.1516   -0.7915    0.0000 C   0  0  0  0  0  0  0  0  0  0  0  0
  1 13  1  0
  2 13  2  0
  3 11  1  0
  3 12  1  0
  4  5  1  0
  5  6  1  0
  6  7  1  0
  7  8  1  0
  8  9  1  0
  9 10  1  0
 10 11  1  0
 12 13  1  0
 13 14  1  0
M  END
>  <DRUGBANK_ID>  (1) 
DB07641

>  <COMMON_NAME>  (1) 
Decyl(dimethyl)phosphine oxide

>  <CAS_NUMBER>  (1) 
2190-95-6

>  <UNII>  (1) 
BQ0G8CN4H9

$$$$
