
     RDKit          2D

 20 18  0  0  0  0  0  0  0  0999 V2000
    5.8392   -2.3838    0.0000 F   0  0  0  0  0  0  0  0  0  0  0  0
   -5.8392   -2.4696    0.0000 N   0  0  0  0  0  0  0  0  0  0  0  0
   -5.1097   -2.8549    0.0000 C   0  0  0  0  0  0  0  0  0  0  0  0
   -4.4113   -2.4156    0.0000 C   0  0  0  0  0  0  0  0  0  0  0  0
   -3.6817   -2.8009    0.0000 C   0  0  0  0  0  0  0  0  0  0  0  0
   -2.9833   -2.3616    0.0000 C   0  0  0  0  0  0  0  0  0  0  0  0
   -2.2537   -2.7469    0.0000 C   0  0  0  0  0  0  0  0  0  0  0  0
   -1.5553   -2.3076    0.0000 C   0  0  0  0  0  0  0  0  0  0  0  0
   -0.8257   -2.6929    0.0000 C   0  0  0  0  0  0  0  0  0  0  0  0
   -0.1274   -2.2537    0.0000 C   0  0  0  0  0  0  0  0  0  0  0  0
    0.6021   -2.6389    0.0000 C   0  0  0  0  0  0  0  0  0  0  0  0
    1.3005   -2.1997    0.0000 C   0  0  0  0  0  0  0  0  0  0  0  0
    1.2693   -1.3752    0.0000 C   0  0  0  0  0  0  0  0  0  0  0  0
    1.9677   -0.9360    0.0000 C   0  0  0  0  0  0  0  0  0  0  0  0
    1.9365   -0.1116    0.0000 C   0  0  0  0  0  0  0  0  0  0  0  0
    2.6349    0.3276    0.0000 C   0  0  0  0  0  0  0  0  0  0  0  0
    2.6038    1.1520    0.0000 C   0  0  0  0  0  0  0  0  0  0  0  0
    3.3021    1.5912    0.0000 C   0  0  0  0  0  0  0  0  0  0  0  0
    3.2710    2.4156    0.0000 C   0  0  0  0  0  0  0  0  0  0  0  0
    3.9694    2.8549    0.0000 C   0  0  0  0  0  0  0  0  0  0  0  0
  2  3  1  0
  3  4  1  0
  4  5  1  0
  5  6  1  0
  6  7  1  0
  7  8  1  0
  8  9  1  0
  9 10  1  0
 10 11  1  0
 11 12  2  0
 12 13  1  0
 13 14  1  0
 14 15  1  0
 15 16  1  0
 16 17  1  0
 17 18  1  0
 18 19  1  0
 19 20  1  0
M  END
>  <DRUGBANK_ID>  (1) 
DB16622

>  <COMMON_NAME>  (1) 
Dectaflur

>  <CAS_NUMBER>  (1) 
7333-84-8

>  <UNII>  (1) 
Q3B1Y93C1S

>  <SYNONYMS>  (1) 
Dectaflur; Oleylamine HF; Oleylamine hydrofluoride; Oleylaminhydrofluorid

$$$$
