
     RDKit          2D

 24 26  0  0  0  0  0  0  0  0999 V2000
   -2.3009    1.8024    0.0000 C   0  0  0  0  0  0  0  0  0  0  0  0
   -1.4758    1.8024    0.0000 C   0  0  0  0  0  0  0  0  0  0  0  0
   -0.1342   -1.1892    0.0000 C   0  0  0  0  0  0  0  0  0  0  0  0
    0.6727   -1.3607    0.0000 N   0  0  0  0  0  0  0  0  0  0  0  0
   -0.6863   -1.8024    0.0000 O   0  0  0  0  0  0  0  0  0  0  0  0
    0.9207    0.2629    0.0000 N   0  0  0  0  0  0  0  0  0  0  0  0
    1.3332    0.9773    0.0000 C   0  0  0  0  0  0  0  0  0  0  0  0
    0.9207    1.6918    0.0000 O   0  0  0  0  0  0  0  0  0  0  0  0
   -3.0154   -0.8641    0.0000 C   0  0  0  0  0  0  0  0  0  0  0  0
   -3.4279   -0.1496    0.0000 C   0  0  0  0  0  0  0  0  0  0  0  0
   -1.1738    0.6754    0.0000 C   0  0  0  0  0  0  0  0  0  0  0  0
   -1.1738   -0.1496    0.0000 C   0  0  0  0  0  0  0  0  0  0  0  0
   -0.3891    0.9303    0.0000 S   0  0  0  0  0  0  0  0  0  0  0  0
   -1.8884    1.0879    0.0000 C   0  0  0  0  0  0  0  0  0  0  0  0
   -0.3891   -0.4045    0.0000 C   0  0  0  0  0  0  0  0  0  0  0  0
   -1.8884   -0.5621    0.0000 C   0  0  0  0  0  0  0  0  0  0  0  0
    0.0957    0.2629    0.0000 C   0  0  0  0  0  0  0  0  0  0  0  0
   -2.6029    0.6754    0.0000 O   0  0  0  0  0  0  0  0  0  0  0  0
   -2.6029   -0.1496    0.0000 C   0  0  0  0  0  0  0  0  0  0  0  0
    2.1583    0.9773    0.0000 C   0  0  0  0  0  0  0  0  0  0  0  0
    2.6433    1.6448    0.0000 C   0  0  0  0  0  0  0  0  0  0  0  0
    2.6433    0.3098    0.0000 N   0  0  0  0  0  0  0  0  0  0  0  0
    3.4279    1.3898    0.0000 C   0  0  0  0  0  0  0  0  0  0  0  0
    3.4279    0.5648    0.0000 N   0  0  0  0  0  0  0  0  0  0  0  0
  1 14  1  0
  2 14  1  0
  3  4  1  0
  3  5  2  0
  3 15  1  0
  6  7  1  0
  6 17  1  0
  7  8  2  0
  7 20  1  0
  9 19  1  0
 10 19  1  0
 11 12  2  0
 11 13  1  0
 11 14  1  0
 12 15  1  0
 12 16  1  0
 13 17  1  0
 14 18  1  0
 15 17  2  0
 16 19  1  0
 18 19  1  0
 20 21  1  0
 20 22  2  0
 21 23  2  0
 22 24  1  0
 23 24  1  0
M  END
>  <DRUGBANK_ID>  (1) 
DB16835

>  <COMMON_NAME>  (1) 
GLPG-1837

>  <CAS_NUMBER>  (1) 
1654725-02-6

>  <UNII>  (1) 
MM4S7BD3DF

$$$$
