
     RDKit          2D

 25 24  0  0  1  0  0  0  0  0999 V2000
    4.2355    3.2704    0.0000 C   0  0  0  0  0  0  0  0  0  0  0  0
    4.9500    2.8579    0.0000 C   0  0  0  0  0  0  0  0  0  0  0  0
    5.6645    3.2704    0.0000 C   0  0  0  0  0  0  0  0  0  0  0  0
    6.3789    2.8579    0.0000 C   0  0  0  0  0  0  0  0  0  0  0  0
    7.0934    3.2704    0.0000 C   0  0  0  0  0  0  0  0  0  0  0  0
    7.8079    2.8579    0.0000 C   0  0  0  0  0  0  0  0  0  0  0  0
    8.5224    3.2704    0.0000 C   0  0  0  0  0  0  0  0  0  0  0  0
    9.2368    2.8579    0.0000 C   0  0  0  0  0  0  0  0  0  0  0  0
   10.6658    2.0329    0.0000 C   0  0  0  0  0  0  0  0  0  0  0  0
   11.3802    1.6204    0.0000 C   0  0  0  0  0  0  0  0  0  0  0  0
   11.3802    3.2704    0.0000 C   0  0  0  0  0  0  0  0  0  0  0  0
   14.9526    2.8579    0.0000 C   0  0  0  0  0  0  0  0  0  0  0  0
   12.0947    2.8579    0.0000 C   0  0  0  0  0  0  0  0  0  0  0  0
   14.2381    3.2704    0.0000 C   0  0  0  0  0  0  0  0  0  0  0  0
    9.9513    3.2704    0.0000 C   0  0  0  0  0  0  0  0  0  0  0  0
   12.8092    3.2704    0.0000 C   0  0  0  0  0  0  0  0  0  0  0  0
   13.5237    2.8579    0.0000 C   0  0  0  0  0  0  0  0  0  0  0  0
   10.6658    2.8579    0.0000 N   0  0  0  0  0  0  0  0  0  0  0  0
   11.3802    0.7954    0.0000 O   0  0  0  0  0  0  0  0  0  0  0  0
   15.6671    3.2704    0.0000 O   0  0  0  0  0  0  0  0  0  0  0  0
   12.0947    2.0329    0.0000 O   0  0  0  0  0  0  0  0  0  0  0  0
   14.2381    4.0954    0.0000 O   0  0  0  0  0  0  0  0  0  0  0  0
    9.9513    4.0954    0.0000 O   0  0  0  0  0  0  0  0  0  0  0  0
   12.8092    4.0954    0.0000 O   0  0  0  0  0  0  0  0  0  0  0  0
   13.5237    2.0329    0.0000 O   0  0  0  0  0  0  0  0  0  0  0  0
  2  1  1  0
  3  2  1  0
  4  3  1  0
  5  4  1  0
  6  5  1  0
  7  6  1  0
  8  7  1  0
 10  9  1  0
 13 11  1  0
 13 21  1  6
 14 12  1  0
 14 22  1  1
 15  8  1  0
 16 13  1  0
 16 24  1  1
 17 14  1  0
 17 16  1  0
 17 25  1  6
 18  9  1  0
 18 11  1  0
 18 15  1  0
 19 10  1  0
 20 12  1  0
 23 15  2  0
M  END
>  <DRUGBANK_ID>  (1) 
DB01970

>  <SECONDARY_ACCESSION_NUMBERS>  (1) 
EXPT01736

>  <COMMON_NAME>  (1) 
Hg9a-9, Nonanoyl-N-Hydroxyethylglucamide

$$$$
