
     RDKit          2D

 19 22  0  0  0  0  0  0  0  0999 V2000
    3.4623    2.3118    0.0000 C   0  0  0  0  0  0  0  0  0  0  0  0
    3.2997    1.5030    0.0000 C   0  0  0  0  0  0  0  0  0  0  0  0
    3.9189    0.9577    0.0000 C   0  0  0  0  0  0  0  0  0  0  0  0
    4.7006    1.2213    0.0000 C   0  0  0  0  0  0  0  0  0  0  0  0
    5.3198    0.6761    0.0000 C   0  0  0  0  0  0  0  0  0  0  0  0
    5.1571   -0.1327    0.0000 N   0  0  0  0  0  0  0  0  0  0  0  0
    4.3754   -0.3963    0.0000 C   0  0  0  0  0  0  0  0  0  0  0  0
    3.7562    0.1489    0.0000 C   0  0  0  0  0  0  0  0  0  0  0  0
    2.9745   -0.1146    0.0000 C   0  0  0  0  0  0  0  0  0  0  0  0
    2.8119   -0.9235    0.0000 C   0  0  0  0  0  0  0  0  0  0  0  0
    2.3553    0.4306    0.0000 C   0  0  0  0  0  0  0  0  0  0  0  0
    2.5180    1.2394    0.0000 C   0  0  0  0  0  0  0  0  0  0  0  0
    1.7990    1.6440    0.0000 N   0  0  0  0  0  0  0  0  0  0  0  0
    1.1920    1.0852    0.0000 C   0  0  0  0  0  0  0  0  0  0  0  0
    1.5359    0.3353    0.0000 C   0  0  0  0  0  0  0  0  0  0  0  0
    1.0583   -0.3374    0.0000 C   0  0  0  0  0  0  0  0  0  0  0  0
    0.2369   -0.2602    0.0000 C   0  0  0  0  0  0  0  0  0  0  0  0
   -0.1069    0.4897    0.0000 C   0  0  0  0  0  0  0  0  0  0  0  0
    0.3706    1.1624    0.0000 C   0  0  0  0  0  0  0  0  0  0  0  0
  1  2  1  0
  2  3  2  0
  2 12  1  0
  3  4  1  0
  3  8  1  0
  4  5  2  0
  5  6  1  0
  6  7  2  0
  7  8  1  0
  8  9  2  0
  9 10  1  0
  9 11  1  0
 11 12  2  0
 11 15  1  0
 12 13  1  0
 13 14  1  0
 14 15  2  0
 14 19  1  0
 15 16  1  0
 16 17  2  0
 17 18  1  0
 18 19  2  0
M  END
>  <DRUGBANK_ID>  (1) 
DB17026

>  <COMMON_NAME>  (1) 
Ellipticine

>  <CAS_NUMBER>  (1) 
519-23-3

>  <UNII>  (1) 
117VLW7484

>  <SYNONYMS>  (1) 
5,11-dimethyl-6h-pyrido(4,3-b)carbazole

$$$$
