328
     RDKit          2D

 25 27  0  0  0  0  0  0  0  0999 V2000
    2.6022    1.8443    0.0000 C   0  0  0  0  0  0  0  0  0  0  0  0
    3.3167    1.4318    0.0000 C   0  0  0  0  0  0  0  0  0  0  0  0
    3.3167    0.6068    0.0000 C   0  0  0  0  0  0  0  0  0  0  0  0
    4.0312    0.1943    0.0000 C   0  0  0  0  0  0  0  0  0  0  0  0
   -0.2557   -3.1057    0.0000 C   0  0  0  0  0  0  0  0  0  0  0  0
    0.4588    0.6068    0.0000 C   0  0  0  0  0  0  0  0  0  0  0  0
   -0.2557    1.8443    0.0000 C   0  0  0  0  0  0  0  0  0  0  0  0
   -0.9701    1.4318    0.0000 C   0  0  0  0  0  0  0  0  0  0  0  0
   -0.9701    0.6068    0.0000 C   0  0  0  0  0  0  0  0  0  0  0  0
   -0.2557    0.1943    0.0000 C   0  0  0  0  0  0  0  0  0  0  0  0
    1.1733    1.8443    0.0000 C   0  0  0  0  0  0  0  0  0  0  0  0
   -0.9701   -1.8682    0.0000 C   0  0  0  0  0  0  0  0  0  0  0  0
   -1.6846   -2.2807    0.0000 C   0  0  0  0  0  0  0  0  0  0  0  0
   -2.3991   -1.8682    0.0000 C   0  0  0  0  0  0  0  0  0  0  0  0
   -0.9701   -1.0432    0.0000 C   0  0  0  0  0  0  0  0  0  0  0  0
    4.7456   -0.2182    0.0000 N   0  0  0  0  0  0  0  0  0  0  0  0
    1.8877    1.4318    0.0000 C   0  0  0  0  0  0  0  0  0  0  0  0
    1.8877    0.6068    0.0000 C   0  0  0  0  0  0  0  0  0  0  0  0
    2.6022    0.1943    0.0000 C   0  0  0  0  0  0  0  0  0  0  0  0
   -1.6846    0.1943    0.0000 N   0  0  0  0  0  0  0  0  0  0  0  0
    0.4588    1.4318    0.0000 N   0  0  0  0  0  0  0  0  0  0  0  0
    1.1733    2.6693    0.0000 O   0  0  0  0  0  0  0  0  0  0  0  0
   -0.2557   -2.2807    0.0000 O   0  0  0  0  0  0  0  0  0  0  0  0
   -1.6846   -0.6307    0.0000 C   0  0  0  0  0  0  0  0  0  0  0  0
   -2.3991   -1.0432    0.0000 N   0  0  0  0  0  0  0  0  0  0  0  0
  1  2  2  0
  1 17  1  0
  2  3  1  0
  3  4  1  0
  3 19  2  0
  4 16  3  0
  5 23  1  0
  6 10  1  0
  6 21  1  0
  7  8  1  0
  7 21  1  0
  8  9  1  0
  9 10  1  0
  9 20  1  0
 11 17  1  0
 11 21  1  0
 11 22  2  0
 12 13  2  0
 12 15  1  0
 12 23  1  0
 13 14  1  0
 14 25  2  0
 15 24  2  0
 17 18  2  0
 18 19  1  0
 20 24  1  0
 24 25  1  0
M  END
>  <DRUGBANK_ID>  (1) 
DB07002

>  <COMMON_NAME>  (1) 
4-({4-[(4-methoxypyridin-2-yl)amino]piperidin-1-yl}carbonyl)benzonitrile

$$$$
