
     RDKit          2D

 34 38  0  0  1  0  0  0  0  0999 V2000
    5.5071    4.2233    0.0000 C   0  0  0  0  0  0  0  0  0  0  0  0
    5.6832    3.4173    0.0000 C   0  0  0  0  0  0  0  0  0  0  0  0
    6.4692    3.1668    0.0000 O   0  0  0  0  0  0  0  0  0  0  0  0
    5.0732    2.8618    0.0000 O   0  0  0  0  0  0  0  0  0  0  0  0
    5.2493    2.0558    0.0000 C   0  0  0  0  0  0  0  0  0  0  0  0
    4.7546    1.4827    0.0000 C   0  0  0  0  0  0  0  0  0  0  0  0
    3.8532    1.7508    0.0000 O   0  0  0  0  0  0  0  0  0  0  0  0
    4.8154    0.6943    0.0000 C   0  0  0  0  0  0  0  0  0  0  0  0
    4.9914   -0.1117    0.0000 C   0  0  0  0  0  0  0  0  0  0  0  0
    4.2793   -0.5282    0.0000 C   0  0  0  0  0  0  0  0  0  0  0  0
    3.6631    0.0204    0.0000 C   0  0  0  0  0  0  0  0  0  0  0  0
    3.9944    0.7759    0.0000 C   0  0  0  0  0  0  0  0  0  0  0  0
    3.5057    1.4406    0.0000 C   0  0  0  0  0  0  0  0  0  0  0  0
    2.6857    1.3498    0.0000 C   0  0  0  0  0  0  0  0  0  0  0  0
    2.3544    0.5942    0.0000 C   0  0  0  0  0  0  0  0  0  0  0  0
    2.8431   -0.0705    0.0000 C   0  0  0  0  0  0  0  0  0  0  0  0
    2.5118   -0.8260    0.0000 C   0  0  0  0  0  0  0  0  0  0  0  0
    1.6918   -0.9169    0.0000 C   0  0  0  0  0  0  0  0  0  0  0  0
    1.2031   -0.2522    0.0000 C   0  0  0  0  0  0  0  0  0  0  0  0
    0.3832   -0.3431    0.0000 C   0  0  0  0  0  0  0  0  0  0  0  0
   -0.1055    0.3216    0.0000 C   0  0  0  0  0  0  0  0  0  0  0  0
   -0.9255    0.2308    0.0000 O   0  0  0  0  0  0  0  0  0  0  0  0
    0.2258    1.0772    0.0000 C   0  0  0  0  0  0  0  0  0  0  0  0
    1.0458    1.1681    0.0000 C   0  0  0  0  0  0  0  0  0  0  0  0
    1.5345    0.5034    0.0000 C   0  0  0  0  0  0  0  0  0  0  0  0
    1.8658    1.2589    0.0000 C   0  0  0  0  0  0  0  0  0  0  0  0
    1.3605   -1.6724    0.0000 F   0  0  0  0  0  0  0  0  0  0  0  0
    2.1971    2.0145    0.0000 O   0  0  0  0  0  0  0  0  0  0  0  0
    4.4029    1.4927    0.0000 C   0  0  0  0  0  0  0  0  0  0  0  0
    5.8124   -0.1933    0.0000 O   0  0  0  0  0  0  0  0  0  0  0  0
    6.1437    0.5623    0.0000 C   0  0  0  0  0  0  0  0  0  0  0  0
    5.5275    1.1108    0.0000 O   0  0  0  0  0  0  0  0  0  0  0  0
    6.9323    0.3200    0.0000 C   0  0  0  0  0  0  0  0  0  0  0  0
    6.7594    1.1113    0.0000 C   0  0  0  0  0  0  0  0  0  0  0  0
  1  2  1  0
  2  3  2  0
  2  4  1  0
  4  5  1  0
  5  6  1  0
  6  7  2  0
  8  6  1  1
  8  9  1  0
  8 12  1  0
  8 32  1  0
  9 10  1  6
  9 30  1  0
 11 10  1  1
 11 12  1  0
 11 16  1  0
 12 13  1  0
 12 29  1  1
 13 14  1  0
 14 28  1  1
 15 14  1  1
 15 16  1  0
 15 25  1  0
 16 17  1  6
 17 18  1  0
 18 19  1  0
 18 27  1  6
 19 20  2  0
 19 25  1  0
 20 21  1  0
 21 22  2  0
 21 23  1  0
 23 24  1  0
 24 25  1  0
 25 26  1  1
 30 31  1  0
 31 32  1  0
 31 33  1  0
 31 34  1  0
M  END
>  <DRUGBANK_ID>  (1) 
DB14673

>  <SECONDARY_ACCESSION_NUMBERS>  (1) 
DBSALT002283

>  <COMMON_NAME>  (1) 
Flurandrenolide acetate

>  <CAS_NUMBER>  (1) 
2802-11-1

>  <UNII>  (1) 
0P9257GI1B

>  <SYNONYMS>  (1) 
Flurandrenolone acetate

$$$$
