
     RDKit          2D

 22 24  0  0  0  0  0  0  0  0999 V2000
    1.1740    0.4361    0.0000 S   0  0  0  0  0  0  0  0  0  0  0  0
    0.5892   -0.1392    0.0000 N   0  0  0  0  0  0  0  0  0  0  0  0
   -0.2227    0.0556    0.0000 C   0  0  0  0  0  0  0  0  0  0  0  0
   -0.7887   -0.5289    0.0000 N   0  0  0  0  0  0  0  0  0  0  0  0
   -1.6007   -0.3155    0.0000 N   0  0  0  0  0  0  0  0  0  0  0  0
   -1.9070    0.4500    0.0000 C   0  0  0  0  0  0  0  0  0  0  0  0
   -2.7330    0.3991    0.0000 C   0  0  0  0  0  0  0  0  0  0  0  0
   -3.4383    0.8351    0.0000 C   0  0  0  0  0  0  0  0  0  0  0  0
   -4.0741    0.3201    0.0000 C   0  0  0  0  0  0  0  0  0  0  0  0
   -3.7910   -0.3991    0.0000 C   0  0  0  0  0  0  0  0  0  0  0  0
   -2.9418   -0.3991    0.0000 C   0  0  0  0  0  0  0  0  0  0  0  0
   -2.2505   -0.8491    0.0000 C   0  0  0  0  0  0  0  0  0  0  0  0
   -0.4314    0.8583    0.0000 O   0  0  0  0  0  0  0  0  0  0  0  0
    1.8979    0.0277    0.0000 C   0  0  0  0  0  0  0  0  0  0  0  0
    1.8979   -0.7888    0.0000 C   0  0  0  0  0  0  0  0  0  0  0  0
    2.6263   -1.2064    0.0000 C   0  0  0  0  0  0  0  0  0  0  0  0
    3.3316   -0.7888    0.0000 C   0  0  0  0  0  0  0  0  0  0  0  0
    3.3316    0.0324    0.0000 C   0  0  0  0  0  0  0  0  0  0  0  0
    2.6078    0.4453    0.0000 C   0  0  0  0  0  0  0  0  0  0  0  0
    4.0741   -1.1972    0.0000 C   0  0  0  0  0  0  0  0  0  0  0  0
    1.6472    1.1229    0.0000 O   0  0  0  0  0  0  0  0  0  0  0  0
    0.5103    0.9651    0.0000 O   0  0  0  0  0  0  0  0  0  0  0  0
  2  1  1  0
  3  2  1  0
  4  3  1  0
  5  4  1  0
  6  5  1  0
  7  6  1  1
  7  8  1  0
  9  8  1  0
  9 10  1  0
 11 10  1  1
 11 12  1  0
 11  7  1  0
 12  5  1  0
 13  3  2  0
 14  1  1  0
 15 14  2  0
 16 15  1  0
 17 16  2  0
 17 18  1  0
 18 19  2  0
 19 14  1  0
 20 17  1  0
 21  1  2  0
 22  1  2  0
M  END
>  <DRUGBANK_ID>  (1) 
DB01120

>  <SECONDARY_ACCESSION_NUMBERS>  (1) 
APRD00460

>  <COMMON_NAME>  (1) 
Gliclazide

>  <CAS_NUMBER>  (1) 
21187-98-4

>  <UNII>  (1) 
G4PX8C4HKV

>  <SYNONYMS>  (1) 
1-(3-azabicyclo(3.3.0)oct-3-yl)-3-(p-tolylsulfonyl)urea; 1-(hexahydrocyclopenta(c)pyrrol-2(1H)-yl)-3-(p-tolylsulfonyl)urea; Gliclazida; Gliclazide; Gliclazidum

$$$$
