
     RDKit          2D

 10 10  0  0  1  0  0  0  0  0999 V2000
    1.1198    1.7274    0.0000 C   0  0  0  0  0  0  0  0  0  0  0  0
    0.5678    1.1143    0.0000 C   0  0  0  0  0  0  0  0  0  0  0  0
    0.0157    1.7274    0.0000 C   0  0  0  0  0  0  0  0  0  0  0  0
    1.2352    0.6294    0.0000 N   0  0  0  0  0  0  0  0  0  0  0  0
    0.9803   -0.1553    0.0000 C   0  0  0  0  0  0  0  0  0  0  0  0
    0.1553   -0.1553    0.0000 C   0  0  0  0  0  0  0  0  0  0  0  0
   -0.0997    0.6294    0.0000 S   0  0  0  0  0  0  0  0  0  0  0  0
    1.4652   -0.8227    0.0000 C   0  0  0  0  0  0  0  0  0  0  0  0
    2.2857   -0.7365    0.0000 O   0  0  0  0  0  0  0  0  0  0  0  0
    1.1296   -1.5764    0.0000 O   0  0  0  0  0  0  0  0  0  0  0  0
  1  2  1  0
  2  3  1  0
  2  4  1  0
  2  7  1  0
  4  5  1  0
  5  6  1  0
  5  8  1  6
  6  7  1  0
  8  9  1  0
  8 10  2  0
M  END
>  <DRUGBANK_ID>  (1) 
DB01635

>  <SECONDARY_ACCESSION_NUMBERS>  (1) 
EXPT00133

>  <COMMON_NAME>  (1) 
2,2-Dimethylthiazolidine-4-Carboxylic Acid;(Dmt)Thiazolidine

$$$$
