P2N
     RDKit          2D

 23 24  0  0  0  0  0  0  0  0999 V2000
   -0.7735   -0.9064    0.0000 C   0  0  0  0  0  0  0  0  0  0  0  0
   -1.4880   -0.4939    0.0000 C   0  0  0  0  0  0  0  0  0  0  0  0
   -2.2024   -0.9064    0.0000 C   0  0  0  0  0  0  0  0  0  0  0  0
   -2.9169   -0.4939    0.0000 C   0  0  0  0  0  0  0  0  0  0  0  0
   -2.9169    0.3311    0.0000 C   0  0  0  0  0  0  0  0  0  0  0  0
   -2.2024    0.7436    0.0000 C   0  0  0  0  0  0  0  0  0  0  0  0
   -1.4880    0.3311    0.0000 C   0  0  0  0  0  0  0  0  0  0  0  0
   -0.7735    0.7436    0.0000 C   0  0  0  0  0  0  0  0  0  0  0  0
   -0.7735    1.5686    0.0000 C   0  0  0  0  0  0  0  0  0  0  0  0
   -0.0590    1.9811    0.0000 C   0  0  0  0  0  0  0  0  0  0  0  0
    0.6555    1.5686    0.0000 C   0  0  0  0  0  0  0  0  0  0  0  0
    0.6555    0.7436    0.0000 C   0  0  0  0  0  0  0  0  0  0  0  0
    1.3699    0.3311    0.0000 C   0  0  0  0  0  0  0  0  0  0  0  0
    1.3699   -0.4939    0.0000 C   0  0  0  0  0  0  0  0  0  0  0  0
    0.6555   -0.9064    0.0000 C   0  0  0  0  0  0  0  0  0  0  0  0
    0.6555   -1.7314    0.0000 C   0  0  0  0  0  0  0  0  0  0  0  0
   -0.0590   -2.1439    0.0000 C   0  0  0  0  0  0  0  0  0  0  0  0
   -0.7735   -1.7314    0.0000 O   0  0  0  0  0  0  0  0  0  0  0  0
   -0.0590   -0.4939    0.0000 O   0  0  0  0  0  0  0  0  0  0  0  0
   -2.2024   -1.7314    0.0000 O   0  0  0  0  0  0  0  0  0  0  0  0
   -3.6314    0.7436    0.0000 O   0  0  0  0  0  0  0  0  0  0  0  0
   -2.2024    1.5686    0.0000 Cl  0  0  0  0  0  0  0  0  0  0  0  0
   -1.4880    1.9811    0.0000 O   0  0  0  0  0  0  0  0  0  0  0  0
  1  2  1  0
  1 18  1  0
  1 19  2  0
  2  3  1  0
  2  7  2  0
  3  4  2  0
  3 20  1  0
  4  5  1  0
  5  6  2  0
  5 21  1  0
  6  7  1  0
  6 22  1  0
  7  8  1  0
  8  9  1  0
  9 10  1  0
  9 23  2  0
 10 11  1  0
 11 12  1  0
 12 13  1  0
 13 14  1  0
 14 15  2  0
 15 16  1  0
 16 17  1  0
 17 18  1  0
M  END
>  <DRUGBANK_ID>  (1) 
DB08346

>  <COMMON_NAME>  (1) 
(5Z)-13-CHLORO-14,16-DIHYDROXY-3,4,7,8,9,10-HEXAHYDRO-1H-2-BENZOXACYCLOTETRADECINE-1,11(12H)-DIONE

$$$$
