505
     RDKit          2D

 23 24  0  0  1  0  0  0  0  0999 V2000
    1.9058    0.0000    0.0000 O   0  0  0  0  0  0  0  0  0  0  0  0
    4.7934   -0.7145    0.0000 N   0  0  0  0  0  0  0  0  0  0  0  0
    2.7308    0.8250    0.0000 C   0  0  0  0  0  0  0  0  0  0  0  0
    2.7308    0.0000    0.0000 C   0  0  0  0  0  0  0  0  0  0  0  0
    3.5558    0.0000    0.0000 C   0  0  0  0  0  0  0  0  0  0  0  0
    3.9683   -0.7145    0.0000 C   0  0  0  0  0  0  0  0  0  0  0  0
    3.4453    1.2375    0.0000 C   0  0  0  0  0  0  0  0  0  0  0  0
    2.0163    1.2375    0.0000 C   0  0  0  0  0  0  0  0  0  0  0  0
    3.4453    2.0625    0.0000 C   0  0  0  0  0  0  0  0  0  0  0  0
    2.0163    2.0625    0.0000 C   0  0  0  0  0  0  0  0  0  0  0  0
    2.7308    2.4751    0.0000 C   0  0  0  0  0  0  0  0  0  0  0  0
    4.7934    0.1106    0.0000 C   0  0  0  0  0  0  0  0  0  0  0  0
    4.7934   -1.5395    0.0000 C   0  0  0  0  0  0  0  0  0  0  0  0
    5.6184   -0.7145    0.0000 C   0  0  0  0  0  0  0  0  0  0  0  0
    2.7308   -0.8250    0.0000 C   0  0  0  0  0  0  0  0  0  0  0  0
    5.5078    0.5231    0.0000 C   0  0  0  0  0  0  0  0  0  0  0  0
    5.5078   -1.9520    0.0000 C   0  0  0  0  0  0  0  0  0  0  0  0
    6.0309   -1.4290    0.0000 C   0  0  0  0  0  0  0  0  0  0  0  0
    3.4453   -1.2375    0.0000 C   0  0  0  0  0  0  0  0  0  0  0  0
    2.0163   -1.2375    0.0000 C   0  0  0  0  0  0  0  0  0  0  0  0
    3.4453   -2.0625    0.0000 C   0  0  0  0  0  0  0  0  0  0  0  0
    2.0163   -2.0625    0.0000 C   0  0  0  0  0  0  0  0  0  0  0  0
    2.7308   -2.4751    0.0000 C   0  0  0  0  0  0  0  0  0  0  0  0
  1  4  1  0
  2  6  1  0
  2 12  1  0
  2 13  1  0
  2 14  1  0
  3  4  1  0
  3  7  1  0
  3  8  1  0
  4  5  1  0
  4 15  1  0
  5  6  1  0
  7  9  1  0
  8 10  1  0
  9 11  1  0
 10 11  1  0
 12 16  1  0
 13 17  1  0
 14 18  1  0
 15 19  2  0
 15 20  1  0
 19 21  1  0
 20 22  2  0
 21 23  2  0
 22 23  1  0
M  CHG  1   2   1
M  END
>  <DRUGBANK_ID>  (1) 
DB00505

>  <SECONDARY_ACCESSION_NUMBERS>  (1) 
APRD00286

>  <COMMON_NAME>  (1) 
Tridihexethyl

>  <CAS_NUMBER>  (1) 
60-49-1

>  <UNII>  (1) 
7HE50A367X

$$$$
