OA3
     RDKit          2D

 14 15  0  0  0  0  0  0  0  0999 V2000
    0.2839   -1.6553    0.0000 O   0  0  0  0  0  0  0  0  0  0  0  0
    0.2839   -0.8303    0.0000 C   0  0  0  0  0  0  0  0  0  0  0  0
   -0.4306   -0.4178    0.0000 C   0  0  0  0  0  0  0  0  0  0  0  0
   -0.4306    0.4072    0.0000 C   0  0  0  0  0  0  0  0  0  0  0  0
   -1.2431    0.2640    0.0000 C   0  0  0  0  0  0  0  0  0  0  0  0
   -0.7128    1.1825    0.0000 C   0  0  0  0  0  0  0  0  0  0  0  0
    0.2839    0.8197    0.0000 C   0  0  0  0  0  0  0  0  0  0  0  0
    0.9984    0.4072    0.0000 C   0  0  0  0  0  0  0  0  0  0  0  0
    1.7128    0.8197    0.0000 N   0  0  0  0  0  0  0  0  0  0  0  0
    2.4273    0.4072    0.0000 C   0  0  0  0  0  0  0  0  0  0  0  0
    2.4273   -0.4178    0.0000 N   0  0  0  0  0  0  0  0  0  0  0  0
    1.7128   -0.8303    0.0000 C   0  0  0  0  0  0  0  0  0  0  0  0
    0.9984   -0.4178    0.0000 C   0  0  0  0  0  0  0  0  0  0  0  0
    1.7128   -1.6553    0.0000 N   0  0  0  0  0  0  0  0  0  0  0  0
  1  2  2  0
  2  3  1  0
  2 13  1  0
  3  4  1  0
  4  5  1  0
  4  6  1  0
  4  7  1  0
  7  8  1  0
  8  9  1  0
  8 13  2  0
  9 10  2  0
 10 11  1  0
 11 12  2  0
 12 13  1  0
 12 14  1  0
M  END
>  <DRUGBANK_ID>  (1) 
DB08316

>  <COMMON_NAME>  (1) 
4-amino-7,7-dimethyl-7,8-dihydroquinazolin-5(6H)-one

>  <UNII>  (1) 
QZ3DRM9797

$$$$
