
     RDKit          2D

 22 25  0  0  1  0  0  0  0  0999 V2000
    0.6603   -0.7352    0.0000 N   0  0  0  0  0  0  0  0  0  0  0  0
    0.1821   -0.0007    0.0000 C   0  0  0  0  0  0  0  0  0  0  0  0
    0.7054    1.4523    0.0000 C   0  0  0  0  0  0  0  0  0  0  0  0
    0.7487    0.6284    0.0000 C   0  0  0  0  0  0  0  0  0  0  0  0
   -0.6949   -0.0466    0.0000 C   0  0  0  0  0  0  0  0  0  0  0  0
    0.2615   -1.5155    0.0000 C   0  0  0  0  0  0  0  0  0  0  0  0
   -0.0209    1.8406    0.0000 C   0  0  0  0  0  0  0  0  0  0  0  0
   -1.0937   -0.8271    0.0000 C   0  0  0  0  0  0  0  0  0  0  0  0
   -0.6155   -1.5615    0.0000 C   0  0  0  0  0  0  0  0  0  0  0  0
   -0.0847   -0.5876    0.0000 C   0  0  0  0  0  0  0  0  0  0  0  0
    0.6737    3.0762    0.0000 N   0  0  0  0  0  0  0  0  0  0  0  0
   -0.0368    2.6526    0.0000 C   0  0  0  0  0  0  0  0  0  0  0  0
   -1.0142   -2.3419    0.0000 C   0  0  0  0  0  0  0  0  0  0  0  0
   -0.3928   -1.0656    0.0000 C   0  0  0  0  0  0  0  0  0  0  0  0
   -0.5361   -3.0762    0.0000 C   0  0  0  0  0  0  0  0  0  0  0  0
    1.4743    0.2579    0.0000 O   0  0  0  0  0  0  0  0  0  0  0  0
    1.3963    2.6788    0.0000 C   0  0  0  0  0  0  0  0  0  0  0  0
    1.4123    1.8625    0.0000 C   0  0  0  0  0  0  0  0  0  0  0  0
   -0.7361    1.4167    0.0000 C   0  0  0  0  0  0  0  0  0  0  0  0
   -0.7681    3.0452    0.0000 C   0  0  0  0  0  0  0  0  0  0  0  0
   -1.4581    1.8053    0.0000 C   0  0  0  0  0  0  0  0  0  0  0  0
   -1.4743    2.6217    0.0000 C   0  0  0  0  0  0  0  0  0  0  0  0
  1 10  1  0
  2  1  1  0
  3  4  1  0
  4  2  1  0
  4 16  1  1
  2  5  1  1
  8  5  1  6
  6  1  1  0
  7  3  1  0
  8 14  1  0
  9  6  1  0
  9 13  1  6
  9  8  1  0
 11 17  2  0
 12  7  2  0
 12 11  1  0
 14 10  1  0
 15 13  2  0
 17 18  1  0
 18  3  2  0
 19  7  1  0
 20 12  1  0
 20 22  2  0
 21 19  2  0
 22 21  1  0
M  END
>  <DRUGBANK_ID>  (1) 
DB16831

>  <COMMON_NAME>  (1) 
Cinchonidine

>  <CAS_NUMBER>  (1) 
485-71-2

>  <UNII>  (1) 
1U622LRA8Z

>  <SYNONYMS>  (1) 
Alpha-quinidine; Cinchovatine; Quinine bisulfate impurity B; Quinine hydrochloride impurity B; Quinine sulfate impurity B

$$$$
