PFZ
     RDKit          2D

 22 23  0  0  0  0  0  0  0  0999 V2000
    0.7479    0.2489    0.0000 C   0  0  0  0  0  0  0  0  0  0  0  0
    1.5594    0.1004    0.0000 O   0  0  0  0  0  0  0  0  0  0  0  0
    0.8964    1.0604    0.0000 C   0  0  0  0  0  0  0  0  0  0  0  0
   -0.0636    0.3974    0.0000 C   0  0  0  0  0  0  0  0  0  0  0  0
    0.5994   -0.5626    0.0000 C   0  0  0  0  0  0  0  0  0  0  0  0
   -0.5980   -0.2311    0.0000 C   0  0  0  0  0  0  0  0  0  0  0  0
   -1.4095   -0.0826    0.0000 C   0  0  0  0  0  0  0  0  0  0  0  0
   -1.9439   -0.7111    0.0000 C   0  0  0  0  0  0  0  0  0  0  0  0
   -2.7554   -0.5626    0.0000 C   0  0  0  0  0  0  0  0  0  0  0  0
   -3.0326    0.2144    0.0000 C   0  0  0  0  0  0  0  0  0  0  0  0
    1.2279   -1.0970    0.0000 N   0  0  0  0  0  0  0  0  0  0  0  0
    0.2679    1.5948    0.0000 C   0  0  0  0  0  0  0  0  0  0  0  0
    0.4164    2.4063    0.0000 C   0  0  0  0  0  0  0  0  0  0  0  0
    1.1934    2.6835    0.0000 C   0  0  0  0  0  0  0  0  0  0  0  0
    1.8220    2.1491    0.0000 C   0  0  0  0  0  0  0  0  0  0  0  0
    1.6735    1.3376    0.0000 C   0  0  0  0  0  0  0  0  0  0  0  0
    1.1650   -1.9196    0.0000 C   0  0  0  0  0  0  0  0  0  0  0  0
    1.9279   -2.2336    0.0000 C   0  0  0  0  0  0  0  0  0  0  0  0
    2.4623   -1.6051    0.0000 N   0  0  0  0  0  0  0  0  0  0  0  0
    2.0297   -0.9026    0.0000 C   0  0  0  0  0  0  0  0  0  0  0  0
    2.3020    0.8032    0.0000 Cl  0  0  0  0  0  0  0  0  0  0  0  0
    1.3420    3.4950    0.0000 Cl  0  0  0  0  0  0  0  0  0  0  0  0
  1  2  1  6
  1  3  1  0
  1  4  1  0
  1  5  1  0
  3 12  2  0
  3 16  1  0
  4  6  1  0
  5 11  1  0
  6  7  1  0
  7  8  1  0
  8  9  1  0
  9 10  1  0
 11 17  1  0
 11 20  1  0
 12 13  1  0
 13 14  2  0
 14 15  1  0
 14 22  1  0
 15 16  2  0
 16 21  1  0
 17 18  2  0
 18 19  1  0
 19 20  2  0
M  END
>  <DRUGBANK_ID>  (1) 
DB02617

>  <SECONDARY_ACCESSION_NUMBERS>  (1) 
EXPT02560

>  <COMMON_NAME>  (1) 
1-(N-Imidazolyl)-2-Hydroxy-2-(2,3-Dichlorophenyl)Octane

$$$$
