422
     RDKit          2D

 29 33  0  0  0  0  0  0  0  0999 V2000
   -2.0828   -0.7614    0.0000 C   0  0  0  0  0  0  0  0  0  0  0  0
   -1.4697   -0.2093    0.0000 C   0  0  0  0  0  0  0  0  0  0  0  0
   -1.6412    0.5976    0.0000 C   0  0  0  0  0  0  0  0  0  0  0  0
   -2.4259    0.8526    0.0000 C   0  0  0  0  0  0  0  0  0  0  0  0
   -3.0390    0.3005    0.0000 C   0  0  0  0  0  0  0  0  0  0  0  0
   -2.8674   -0.5064    0.0000 C   0  0  0  0  0  0  0  0  0  0  0  0
   -1.1563    1.2651    0.0000 C   0  0  0  0  0  0  0  0  0  0  0  0
   -1.6412    1.9325    0.0000 C   0  0  0  0  0  0  0  0  0  0  0  0
   -2.4259    1.6776    0.0000 N   0  0  0  0  0  0  0  0  0  0  0  0
   -1.3863    2.7171    0.0000 C   0  0  0  0  0  0  0  0  0  0  0  0
   -0.6017    2.9721    0.0000 C   0  0  0  0  0  0  0  0  0  0  0  0
   -0.6017    3.7971    0.0000 C   0  0  0  0  0  0  0  0  0  0  0  0
   -1.3863    4.0520    0.0000 N   0  0  0  0  0  0  0  0  0  0  0  0
   -1.8712    3.3846    0.0000 N   0  0  0  0  0  0  0  0  0  0  0  0
    0.1128    2.5596    0.0000 C   0  0  0  0  0  0  0  0  0  0  0  0
    0.8273    2.9721    0.0000 C   0  0  0  0  0  0  0  0  0  0  0  0
    0.8273    3.7971    0.0000 C   0  0  0  0  0  0  0  0  0  0  0  0
    0.1128    4.2096    0.0000 C   0  0  0  0  0  0  0  0  0  0  0  0
    1.5417    4.2096    0.0000 C   0  0  0  0  0  0  0  0  0  0  0  0
   -1.9113   -1.5683    0.0000 C   0  0  0  0  0  0  0  0  0  0  0  0
   -2.5244   -2.1204    0.0000 N   0  0  0  0  0  0  0  0  0  0  0  0
   -2.3529   -2.9274    0.0000 C   0  0  0  0  0  0  0  0  0  0  0  0
   -3.3090   -1.8654    0.0000 C   0  0  0  0  0  0  0  0  0  0  0  0
   -3.9221   -2.4175    0.0000 C   0  0  0  0  0  0  0  0  0  0  0  0
   -2.9659   -3.4794    0.0000 C   0  0  0  0  0  0  0  0  0  0  0  0
   -3.7506   -3.2244    0.0000 C   0  0  0  0  0  0  0  0  0  0  0  0
   -4.3637   -3.7765    0.0000 C   0  0  0  0  0  0  0  0  0  0  0  0
   -4.1921   -4.5834    0.0000 N   0  0  0  0  0  0  0  0  0  0  0  0
    2.2562    4.6221    0.0000 N   0  0  0  0  0  0  0  0  0  0  0  0
  1  6  1  0
  1 20  1  0
  1  2  2  0
  2  3  1  0
  3  4  2  0
  3  7  1  0
  4  5  1  0
  4  9  1  0
  5  6  2  0
  7  8  2  0
  8  9  1  0
  8 10  1  0
 10 14  2  0
 10 11  1  0
 11 12  2  0
 11 15  1  0
 12 13  1  0
 12 18  1  0
 13 14  1  0
 15 16  2  0
 16 17  1  0
 17 18  2  0
 17 19  1  0
 19 29  3  0
 20 21  1  0
 21 22  1  0
 21 23  1  0
 22 25  1  0
 23 24  1  0
 24 26  1  0
 25 26  1  0
 26 27  1  0
 27 28  1  0
M  END
>  <DRUGBANK_ID>  (1) 
DB07075

>  <COMMON_NAME>  (1) 
3-(5-{[4-(AMINOMETHYL)PIPERIDIN-1-YL]METHYL}-1H-INDOL-2-YL)-1H-INDAZOLE-6-CARBONITRILE

$$$$
