
     RDKit          2D

 24 25  0  0  0  0  0  0  0  0999 V2000
    0.7528   -2.2082    0.0000 P   0  0  0  0  0  0  0  0  0  0  0  0
    2.0583   -2.7893    0.0000 P   0  0  0  0  0  0  0  0  0  0  0  0
   -2.3472   -1.6270    0.0000 F   0  0  0  0  0  0  0  0  0  0  0  0
   -0.7824   -0.1749    0.0000 O   0  0  0  0  0  0  0  0  0  0  0  0
    0.2680   -1.5407    0.0000 O   0  0  0  0  0  0  0  0  0  0  0  0
   -2.8787    1.1349    0.0000 O   0  0  0  0  0  0  0  0  0  0  0  0
    1.2378   -2.8756    0.0000 O   0  0  0  0  0  0  0  0  0  0  0  0
    1.4203   -1.7233    0.0000 O   0  0  0  0  0  0  0  0  0  0  0  0
    0.0854   -2.6930    0.0000 O   0  0  0  0  0  0  0  0  0  0  0  0
   -1.4498    3.6098    0.0000 O   0  0  0  0  0  0  0  0  0  0  0  0
    2.1445   -3.6098    0.0000 O   0  0  0  0  0  0  0  0  0  0  0  0
    2.8787   -2.7031    0.0000 O   0  0  0  0  0  0  0  0  0  0  0  0
    1.9720   -1.9689    0.0000 O   0  0  0  0  0  0  0  0  0  0  0  0
   -1.4498    1.1349    0.0000 N   0  0  0  0  0  0  0  0  0  0  0  0
   -2.1643    2.3724    0.0000 N   0  0  0  0  0  0  0  0  0  0  0  0
   -1.0373   -0.9595    0.0000 C   0  0  0  0  0  0  0  0  0  0  0  0
   -1.8623   -0.9595    0.0000 C   0  0  0  0  0  0  0  0  0  0  0  0
   -1.4498    0.3099    0.0000 C   0  0  0  0  0  0  0  0  0  0  0  0
   -2.1173   -0.1749    0.0000 C   0  0  0  0  0  0  0  0  0  0  0  0
   -0.5524   -1.6270    0.0000 C   0  0  0  0  0  0  0  0  0  0  0  0
   -2.1643    1.5474    0.0000 C   0  0  0  0  0  0  0  0  0  0  0  0
   -0.7353    1.5474    0.0000 C   0  0  0  0  0  0  0  0  0  0  0  0
   -0.7353    2.3724    0.0000 C   0  0  0  0  0  0  0  0  0  0  0  0
   -1.4498    2.7849    0.0000 C   0  0  0  0  0  0  0  0  0  0  0  0
  1  5  1  0
  1  7  1  0
  1  8  1  0
  1  9  2  0
  2  7  1  0
  2 11  1  0
  2 12  1  0
  2 13  2  0
 17  3  1  1
  4 16  1  0
  4 18  1  0
  5 20  1  0
  6 21  2  0
 10 24  2  0
 14 21  1  0
 14 22  1  0
 15 21  1  0
 15 24  1  0
 16 17  1  0
 16 20  1  6
 17 19  1  0
 18 14  1  6
 18 19  1  0
 22 23  2  0
 23 24  1  0
M  END
>  <DRUGBANK_ID>  (1) 
DB04068

>  <SECONDARY_ACCESSION_NUMBERS>  (1) 
EXPT01512

>  <COMMON_NAME>  (1) 
2',3'-dideoxy-3'-fluoro-urididine-5'-diphosphate

>  <SYNONYMS>  (1) 
FUDP

$$$$
