
     RDKit          2D

 21 24  0  0  0  0  0  0  0  0999 V2000
    2.4402    1.9024    0.0000 O   0  0  0  0  0  0  0  0  0  0  0  0
   -3.0455   -1.6509    0.0000 O   0  0  0  0  0  0  0  0  0  0  0  0
    1.4034    0.0419    0.0000 C   0  0  0  0  0  0  0  0  0  0  0  0
    1.4034    0.8668    0.0000 C   0  0  0  0  0  0  0  0  0  0  0  0
    0.6889   -0.3705    0.0000 C   0  0  0  0  0  0  0  0  0  0  0  0
   -0.0254    0.0419    0.0000 C   0  0  0  0  0  0  0  0  0  0  0  0
   -0.7761   -0.3761    0.0000 C   0  0  0  0  0  0  0  0  0  0  0  0
    0.6889    1.2794    0.0000 C   0  0  0  0  0  0  0  0  0  0  0  0
   -0.0254    0.8668    0.0000 C   0  0  0  0  0  0  0  0  0  0  0  0
    2.1839    1.1183    0.0000 C   0  0  0  0  0  0  0  0  0  0  0  0
    2.1839   -0.2093    0.0000 C   0  0  0  0  0  0  0  0  0  0  0  0
    0.7021   -1.2296    0.0000 C   0  0  0  0  0  0  0  0  0  0  0  0
    2.6653    0.4544    0.0000 C   0  0  0  0  0  0  0  0  0  0  0  0
   -0.7827   -1.2353    0.0000 C   0  0  0  0  0  0  0  0  0  0  0  0
   -0.0386   -1.6649    0.0000 C   0  0  0  0  0  0  0  0  0  0  0  0
    1.4034    1.6918    0.0000 C   0  0  0  0  0  0  0  0  0  0  0  0
   -1.5407    0.0892    0.0000 C   0  0  0  0  0  0  0  0  0  0  0  0
   -0.7697    0.4488    0.0000 C   0  0  0  0  0  0  0  0  0  0  0  0
   -2.3226   -0.3463    0.0000 C   0  0  0  0  0  0  0  0  0  0  0  0
   -1.5544   -1.6887    0.0000 C   0  0  0  0  0  0  0  0  0  0  0  0
   -2.3295   -1.2412    0.0000 C   0  0  0  0  0  0  0  0  0  0  0  0
  2 21  2  0
  3  4  1  0
  3  5  1  0
  3 11  1  1
  4  8  1  0
  4 10  1  0
  4 16  1  1
  5  6  1  0
  5 12  1  6
  6  7  1  0
  6  9  1  1
  7 14  1  0
  7 17  1  0
  7 18  1  1
  8  9  1  0
 10  1  1  1
 10 13  1  0
 11 13  1  0
 12 15  1  0
 14 15  1  0
 14 20  2  0
 17 19  1  0
 19 21  1  0
 20 21  1  0
M  END
>  <DRUGBANK_ID>  (1) 
DB00624

>  <SECONDARY_ACCESSION_NUMBERS>  (1) 
APRD00433; DB05720; DB05275

>  <COMMON_NAME>  (1) 
Testosterone

>  <CAS_NUMBER>  (1) 
58-22-0

>  <UNII>  (1) 
3XMK78S47O

>  <SYNONYMS>  (1) 
17beta-hydroxy-4-androsten-3-one; 4-androsten-17β-ol-3-one; Testosteron; Testosterona; Testosterone; Testostérone; Testosteronum; Virosterone

$$$$
