FRQ
     RDKit          2D

 29 32  0  0  0  0  0  0  0  0999 V2000
   -2.7090    2.9027    0.0000 C   0  0  0  0  0  0  0  0  0  0  0  0
   -1.9945    2.4902    0.0000 C   0  0  0  0  0  0  0  0  0  0  0  0
   -1.2800    2.9027    0.0000 C   0  0  0  0  0  0  0  0  0  0  0  0
   -1.2800    3.7277    0.0000 C   0  0  0  0  0  0  0  0  0  0  0  0
   -1.9945    4.1402    0.0000 C   0  0  0  0  0  0  0  0  0  0  0  0
   -2.7090    3.7277    0.0000 C   0  0  0  0  0  0  0  0  0  0  0  0
   -0.5656    2.4902    0.0000 N   0  0  0  0  0  0  0  0  0  0  0  0
    0.1489    2.9027    0.0000 C   0  0  0  0  0  0  0  0  0  0  0  0
    0.1489    3.7277    0.0000 N   0  0  0  0  0  0  0  0  0  0  0  0
   -0.5656    4.1402    0.0000 C   0  0  0  0  0  0  0  0  0  0  0  0
   -0.5656    4.9652    0.0000 O   0  0  0  0  0  0  0  0  0  0  0  0
    0.8634    2.4902    0.0000 O   0  0  0  0  0  0  0  0  0  0  0  0
   -0.5656    1.6652    0.0000 C   0  0  0  0  0  0  0  0  0  0  0  0
    0.1489    1.2527    0.0000 C   0  0  0  0  0  0  0  0  0  0  0  0
    0.1489    0.4277    0.0000 C   0  0  0  0  0  0  0  0  0  0  0  0
    0.8634    0.0152    0.0000 C   0  0  0  0  0  0  0  0  0  0  0  0
    0.8634   -0.8098    0.0000 N   0  0  0  0  0  0  0  0  0  0  0  0
    1.5778   -1.2223    0.0000 C   0  0  0  0  0  0  0  0  0  0  0  0
    1.5778   -2.0473    0.0000 C   0  0  0  0  0  0  0  0  0  0  0  0
    0.8634   -2.4598    0.0000 C   0  0  0  0  0  0  0  0  0  0  0  0
    0.1489   -2.0473    0.0000 C   0  0  0  0  0  0  0  0  0  0  0  0
    0.1489   -1.2223    0.0000 C   0  0  0  0  0  0  0  0  0  0  0  0
    0.8634   -3.2848    0.0000 C   0  0  0  0  0  0  0  0  0  0  0  0
    1.5778   -3.6973    0.0000 C   0  0  0  0  0  0  0  0  0  0  0  0
    1.5778   -4.5223    0.0000 C   0  0  0  0  0  0  0  0  0  0  0  0
    0.8634   -4.9348    0.0000 C   0  0  0  0  0  0  0  0  0  0  0  0
    0.1489   -4.5223    0.0000 C   0  0  0  0  0  0  0  0  0  0  0  0
    0.1489   -3.6973    0.0000 C   0  0  0  0  0  0  0  0  0  0  0  0
   -1.9945    4.9652    0.0000 F   0  0  0  0  0  0  0  0  0  0  0  0
  1  2  2  0
  1  6  1  0
  2  3  1  0
  3  4  2  0
  3  7  1  0
  4  5  1  0
  4 10  1  0
  5  6  2  0
  5 29  1  0
  7  8  1  0
  7 13  1  0
  8  9  1  0
  8 12  2  0
  9 10  1  0
 10 11  2  0
 13 14  1  0
 14 15  1  0
 15 16  1  0
 16 17  1  0
 17 18  1  0
 17 22  1  0
 18 19  1  0
 19 20  1  0
 20 21  2  0
 20 23  1  0
 21 22  1  0
 23 24  2  0
 23 28  1  0
 24 25  1  0
 25 26  2  0
 26 27  1  0
 27 28  2  0
M  END
>  <DRUGBANK_ID>  (1) 
DB07787

>  <COMMON_NAME>  (1) 
5-FLUORO-1-[4-(4-PHENYL-3,6-DIHYDROPYRIDIN-1(2H)-YL)BUTYL]QUINAZOLINE-2,4(1H,3H)-DIONE

$$$$
