
     RDKit          2D

 28 31  0  0  0  0  0  0  0  0999 V2000
   -0.8796   -0.9627    0.0000 C   0  0  0  0  0  0  0  0  0  0  0  0
   -0.8796   -0.1376    0.0000 C   0  0  0  0  0  0  0  0  0  0  0  0
   -0.1651    0.2748    0.0000 C   0  0  0  0  0  0  0  0  0  0  0  0
    0.5493   -0.1376    0.0000 C   0  0  0  0  0  0  0  0  0  0  0  0
    0.5493   -0.9627    0.0000 C   0  0  0  0  0  0  0  0  0  0  0  0
   -0.1651   -1.3752    0.0000 C   0  0  0  0  0  0  0  0  0  0  0  0
    1.3340    0.1172    0.0000 C   0  0  0  0  0  0  0  0  0  0  0  0
    1.8190   -0.5501    0.0000 N   0  0  0  0  0  0  0  0  0  0  0  0
    1.3340   -1.2177    0.0000 N   0  0  0  0  0  0  0  0  0  0  0  0
   -1.5940   -1.3752    0.0000 S   0  0  0  0  0  0  0  0  0  0  0  0
   -2.2986   -0.9684    0.0000 C   0  0  0  0  0  0  0  0  0  0  0  0
   -2.9985   -1.3724    0.0000 C   0  0  0  0  0  0  0  0  0  0  0  0
   -3.7129   -0.9598    0.0000 C   0  0  0  0  0  0  0  0  0  0  0  0
   -3.7127   -0.1348    0.0000 C   0  0  0  0  0  0  0  0  0  0  0  0
   -3.0132    0.2691    0.0000 C   0  0  0  0  0  0  0  0  0  0  0  0
   -2.2986   -0.1433    0.0000 C   0  0  0  0  0  0  0  0  0  0  0  0
   -2.9985   -2.2002    0.0000 C   0  0  0  0  0  0  0  0  0  0  0  0
   -3.7018   -2.6063    0.0000 N   0  0  0  0  0  0  0  0  0  0  0  0
   -2.2729   -2.6194    0.0000 O   0  0  0  0  0  0  0  0  0  0  0  0
    1.5890    0.9018    0.0000 C   0  0  0  0  0  0  0  0  0  0  0  0
    2.3960    1.0735    0.0000 C   0  0  0  0  0  0  0  0  0  0  0  0
    2.6510    1.8580    0.0000 C   0  0  0  0  0  0  0  0  0  0  0  0
    3.4580    2.0296    0.0000 N   0  0  0  0  0  0  0  0  0  0  0  0
    2.0987    2.4713    0.0000 C   0  0  0  0  0  0  0  0  0  0  0  0
    3.7129    2.8145    0.0000 C   0  0  0  0  0  0  0  0  0  0  0  0
    2.3538    3.2559    0.0000 C   0  0  0  0  0  0  0  0  0  0  0  0
    3.1607    3.4275    0.0000 C   0  0  0  0  0  0  0  0  0  0  0  0
   -3.7023   -3.4275    0.0000 C   0  0  0  0  0  0  0  0  0  0  0  0
  1  2  2  0
  1  6  1  0
  1 10  1  0
  2  3  1  0
  3  4  2  0
  4  5  1  0
  4  7  1  0
  5  6  2  0
  5  9  1  0
  7  8  2  0
  7 20  1  0
  8  9  1  0
 10 11  1  0
 11 12  2  0
 11 16  1  0
 12 13  1  0
 12 17  1  0
 13 14  2  0
 14 15  1  0
 15 16  2  0
 17 18  1  0
 17 19  2  0
 18 28  1  0
 20 21  2  0
 21 22  1  0
 23 22  2  0
 24 22  1  0
 25 23  1  0
 26 24  2  0
 27 25  2  0
 27 26  1  0
M  END
>  <DRUGBANK_ID>  (1) 
DB06626

>  <COMMON_NAME>  (1) 
Axitinib

>  <CAS_NUMBER>  (1) 
319460-85-0

>  <UNII>  (1) 
C9LVQ0YUXG

>  <SYNONYMS>  (1) 
Axitinib; Axitinibum; N-methyl-2-[[3-[(E)-2-pyridin-2-ylethenyl]-1H-indazol-6-yl]sulfanyl]benzamide

$$$$
