
     RDKit          2D

 41 45  0  0  1  0  0  0  0  0999 V2000
   -0.7642    4.0408    0.0000 C   0  0  0  0  0  0  0  0  0  0  0  0
   -0.7642    3.2158    0.0000 C   0  0  0  0  0  0  0  0  0  0  0  0
   -0.0497    2.8033    0.0000 C   0  0  0  0  0  0  0  0  0  0  0  0
   -0.0497    1.9783    0.0000 C   0  0  0  0  0  0  0  0  0  0  0  0
    0.6647    1.5658    0.0000 N   0  0  0  0  0  0  0  0  0  0  0  0
    0.6647    0.7408    0.0000 C   0  0  0  0  0  0  0  0  0  0  0  0
   -0.0497    0.3283    0.0000 O   0  0  0  0  0  0  0  0  0  0  0  0
    1.3791    0.3283    0.0000 N   0  0  0  0  0  0  0  0  0  0  0  0
    1.5926   -0.4685    0.0000 C   0  0  0  0  0  0  0  0  0  0  0  0
    1.1801   -1.1829    0.0000 O   0  0  0  0  0  0  0  0  0  0  0  0
    0.3551   -1.1829    0.0000 C   0  0  0  0  0  0  0  0  0  0  0  0
   -0.0573   -1.8974    0.0000 C   0  0  0  0  0  0  0  0  0  0  0  0
   -0.8823   -1.8974    0.0000 C   0  0  0  0  0  0  0  0  0  0  0  0
   -1.2948   -1.1829    0.0000 C   0  0  0  0  0  0  0  0  0  0  0  0
   -0.8823   -0.4685    0.0000 C   0  0  0  0  0  0  0  0  0  0  0  0
   -0.0573   -0.4685    0.0000 C   0  0  0  0  0  0  0  0  0  0  0  0
   -2.1198   -1.1829    0.0000 C   0  0  0  0  0  0  0  0  0  0  0  0
   -2.5323   -0.4685    0.0000 O   0  0  0  0  0  0  0  0  0  0  0  0
   -2.5323   -1.8974    0.0000 N   0  0  0  0  0  0  0  0  0  0  0  0
   -2.1198   -2.6119    0.0000 C   0  0  0  0  0  0  0  0  0  0  0  0
   -2.5323   -3.3263    0.0000 C   0  0  0  0  0  0  0  0  0  0  0  0
   -3.3573   -3.3263    0.0000 N   0  0  0  0  0  0  0  0  0  0  0  0
   -3.7698   -4.0408    0.0000 C   0  0  0  0  0  0  0  0  0  0  0  0
   -3.7698   -2.6119    0.0000 C   0  0  0  0  0  0  0  0  0  0  0  0
   -3.3573   -1.8974    0.0000 C   0  0  0  0  0  0  0  0  0  0  0  0
    2.3895   -0.2549    0.0000 C   0  0  0  0  0  0  0  0  0  0  0  0
    2.6030   -1.0518    0.0000 C   0  0  0  0  0  0  0  0  0  0  0  0
    2.0197   -1.6352    0.0000 C   0  0  0  0  0  0  0  0  0  0  0  0
    3.1864   -0.0414    0.0000 C   0  0  0  0  0  0  0  0  0  0  0  0
    3.7698   -0.6248    0.0000 C   0  0  0  0  0  0  0  0  0  0  0  0
    2.1760    0.5419    0.0000 C   0  0  0  0  0  0  0  0  0  0  0  0
    2.5885    1.2563    0.0000 O   0  0  0  0  0  0  0  0  0  0  0  0
   -0.7642    1.5658    0.0000 C   0  0  0  0  0  0  0  0  0  0  0  0
   -0.7642    0.7408    0.0000 C   0  0  0  0  0  0  0  0  0  0  0  0
   -1.4787    0.3283    0.0000 C   0  0  0  0  0  0  0  0  0  0  0  0
   -2.1932    0.7408    0.0000 C   0  0  0  0  0  0  0  0  0  0  0  0
   -2.9778    0.4859    0.0000 O   0  0  0  0  0  0  0  0  0  0  0  0
   -3.4627    1.1533    0.0000 C   0  0  0  0  0  0  0  0  0  0  0  0
   -2.9778    1.8208    0.0000 O   0  0  0  0  0  0  0  0  0  0  0  0
   -2.1932    1.5658    0.0000 C   0  0  0  0  0  0  0  0  0  0  0  0
   -1.4787    1.9783    0.0000 C   0  0  0  0  0  0  0  0  0  0  0  0
  1  2  1  0
  2  3  1  0
  4  3  1  1
  4  5  1  0
  4 33  1  0
  5  6  1  0
  6  7  2  0
  6  8  1  0
  8 31  1  0
  9  8  1  0
  9 10  1  6
  9 26  1  0
 10 11  1  0
 11 12  2  0
 11 16  1  0
 12 13  1  0
 13 14  2  0
 14 15  1  0
 14 17  1  0
 15 16  2  0
 17 18  2  0
 17 19  1  0
 19 20  1  0
 19 25  1  0
 20 21  1  0
 21 22  1  0
 22 23  1  0
 22 24  1  0
 24 25  1  0
 26 27  1  0
 26 29  1  0
 26 31  1  0
 27 28  1  0
 29 30  1  0
 31 32  2  0
 33 34  2  0
 33 41  1  0
 34 35  1  0
 35 36  2  0
 36 37  1  0
 36 40  1  0
 37 38  1  0
 38 39  1  0
 39 40  1  0
 40 41  2  0
M  END
>  <DRUGBANK_ID>  (1) 
DB18488

>  <COMMON_NAME>  (1) 
DMP-777

>  <CAS_NUMBER>  (1) 
157341-41-8

>  <UNII>  (1) 
3Q0469283P

>  <SYNONYMS>  (1) 
1-AZETIDINECARBOXAMIDE, N-((1R)-1-(1,3-BENZODIOXOL-5-YL)BUTYL)-3,3-DIETHYL-2-(4-((4-METHYL-1-PIPERAZINYL)CARBONYL)PHENOXY)-4-OXO-, (2S)-

$$$$
