
     RDKit          2D

 36 38  0  0  1  0  0  0  0  0999 V2000
   11.8009  -10.0439    0.0000 C   0  0  0  0  0  0  0  0  0  0  0  0
   11.0874   -9.6307    0.0000 O   0  0  0  0  0  0  0  0  0  0  0  0
   11.8009  -10.8647    0.0000 C   0  0  0  0  0  0  0  0  0  0  0  0
   13.1100  -11.0277    0.0000 O   0  0  0  0  0  0  0  0  0  0  0  0
   12.5059   -9.6307    0.0000 C   0  0  0  0  0  0  0  0  0  0  0  0
   10.3752  -10.0439    0.0000 C   0  0  0  0  0  0  0  0  0  0  0  0
   11.0874  -11.2885    0.0000 C   0  0  0  0  0  0  0  0  0  0  0  0
   13.9353  -11.0277    0.0000 P   0  0  0  0  0  0  0  0  0  0  0  0
   12.4878   -8.8135    0.0000 O   0  0  0  0  0  0  0  0  0  0  0  0
   13.2113  -10.0439    0.0000 O   0  0  0  0  0  0  0  0  0  0  0  0
   10.3752  -10.8647    0.0000 C   0  0  0  0  0  0  0  0  0  0  0  0
   11.0911  -12.1022    0.0000 O   0  0  0  0  0  0  0  0  0  0  0  0
   14.7491  -11.0277    0.0000 O   0  0  0  0  0  0  0  0  0  0  0  0
   13.9353  -11.9323    0.0000 O   0  0  0  0  0  0  0  0  0  0  0  0
   13.9353  -10.0763    0.0000 O   0  0  0  0  0  0  0  0  0  0  0  0
   15.5708  -11.0277    0.0000 C   0  0  0  0  0  0  0  0  0  0  0  0
   16.3486  -11.2705    0.0000 C   0  0  0  0  0  0  0  0  0  0  0  0
   17.0108  -10.7886    0.0000 O   0  0  0  0  0  0  0  0  0  0  0  0
   16.6093  -12.0483    0.0000 C   0  0  0  0  0  0  0  0  0  0  0  0
   17.6837  -11.2813    0.0000 C   0  0  0  0  0  0  0  0  0  0  0  0
   17.4417  -12.0483    0.0000 C   0  0  0  0  0  0  0  0  0  0  0  0
   16.1389  -12.7142    0.0000 O   0  0  0  0  0  0  0  0  0  0  0  0
   18.2052   -9.9094    0.0000 N   0  0  0  0  0  0  0  0  0  0  0  0
   17.9228  -12.7070    0.0000 O   0  0  0  0  0  0  0  0  0  0  0  0
   17.4883   -9.4936    0.0000 C   0  0  0  0  0  0  0  0  0  0  0  0
   18.9213   -9.5080    0.0000 C   0  0  0  0  0  0  0  0  0  0  0  0
   17.4633   -8.6720    0.0000 N   0  0  0  0  0  0  0  0  0  0  0  0
   16.7831   -9.8986    0.0000 O   0  0  0  0  0  0  0  0  0  0  0  0
   18.9213   -8.6756    0.0000 C   0  0  0  0  0  0  0  0  0  0  0  0
   18.2088   -8.2597    0.0000 C   0  0  0  0  0  0  0  0  0  0  0  0
   18.2088   -7.4416    0.0000 N   0  0  0  0  0  0  0  0  0  0  0  0
    9.6266   -9.5987    0.0000 C   0  0  0  0  0  0  0  0  0  0  0  0
    9.6297   -8.7389    0.0000 C   0  0  0  0  0  0  0  0  0  0  0  0
    8.8866   -8.3065    0.0000 O   0  0  0  0  0  0  0  0  0  0  0  0
    9.4950  -11.4645    0.0000 O   0  0  0  0  0  0  0  0  0  0  0  0
    8.8759  -10.0239    0.0000 O   0  0  0  0  0  0  0  0  0  0  0  0
  1  2  1  0
  1  3  1  0
  1  4  1  1
  1  5  1  0
  6  2  1  1
  3  7  1  0
  4  8  1  0
  5  9  1  0
  5 10  2  0
  6 11  1  0
  6 32  1  0
  7 12  1  1
  7 11  1  0
  8 13  1  0
  8 14  1  0
  8 15  2  0
 11 35  1  1
 13 16  1  0
 17 16  1  1
 17 18  1  0
 17 19  1  0
 18 20  1  0
 19 21  1  0
 19 22  1  6
 20 23  1  1
 20 21  1  0
 21 24  1  6
 23 25  1  0
 23 26  1  0
 25 27  1  0
 25 28  2  0
 26 29  2  0
 27 30  2  0
 29 30  1  0
 30 31  1  0
 32 33  1  0
 32 36  1  6
 33 34  1  0
M  END
>  <DRUGBANK_ID>  (1) 
DB04482

>  <SECONDARY_ACCESSION_NUMBERS>  (1) 
EXPT00957

>  <COMMON_NAME>  (1) 
Cmp-2-Keto-3-Deoxy-Octulosonic Acid

$$$$
