
     RDKit          2D

 11 12  0  0  0  0  0  0  0  0999 V2000
   13.7720   -7.8522    0.0000 C   0  0  0  0  0  0  0  0  0  0  0  0
   13.7720   -7.0273    0.0000 C   0  0  0  0  0  0  0  0  0  0  0  0
   13.0575   -8.2647    0.0000 C   0  0  0  0  0  0  0  0  0  0  0  0
   13.0575   -6.6148    0.0000 C   0  0  0  0  0  0  0  0  0  0  0  0
   12.3431   -7.8522    0.0000 C   0  0  0  0  0  0  0  0  0  0  0  0
   12.3431   -7.0273    0.0000 C   0  0  0  0  0  0  0  0  0  0  0  0
   15.2008   -7.0272    0.0000 N   0  0  0  0  0  0  0  0  0  0  0  0
   15.2009   -7.8521    0.0000 C   0  0  0  0  0  0  0  0  0  0  0  0
   14.4864   -8.2647    0.0000 N   0  0  0  0  0  0  0  0  0  0  0  0
   11.6200   -6.6098    0.0000 C   0  0  0  0  0  0  0  0  0  0  0  0
   11.6200   -8.2697    0.0000 C   0  0  0  0  0  0  0  0  0  0  0  0
  1  3  2  0
  1  2  1  0
  1  9  1  0
  2  4  2  0
  2  7  1  0
  3  5  1  0
  4  6  1  0
  5  6  2  0
  8  7  2  0
  9  8  1  0
 10  6  1  0
 11  5  1  0
M  END
>  <DRUGBANK_ID>  (1) 
DB02591

>  <SECONDARY_ACCESSION_NUMBERS>  (1) 
EXPT01222

>  <COMMON_NAME>  (1) 
5,6-Dimethylbenzimidazole

>  <CAS_NUMBER>  (1) 
582-60-5

>  <UNII>  (1) 
553XI1DS20

$$$$
