
     RDKit          2D

 25 25  0  0  0  0  0  0  0  0999 V2000
   -2.1434   -2.6813    0.0000 I   0  0  0  0  0  0  0  0  0  0  0  0
    0.7144   -2.6813    0.0000 I   0  0  0  0  0  0  0  0  0  0  0  0
   -1.4290    3.5063    0.0000 O   0  0  0  0  0  0  0  0  0  0  0  0
    0.7144    1.4437    0.0000 O   0  0  0  0  0  0  0  0  0  0  0  0
    0.0000    3.5063    0.0000 O   0  0  0  0  0  0  0  0  0  0  0  0
    0.7144    2.2687    0.0000 O   0  0  0  0  0  0  0  0  0  0  0  0
    1.4289    1.0312    0.0000 O   0  0  0  0  0  0  0  0  0  0  0  0
   -0.7144   -3.5063    0.0000 O   0  0  0  0  0  0  0  0  0  0  0  0
   -0.7144    1.4437    0.0000 N   0  0  0  0  0  0  0  0  0  0  0  0
    0.7144   -0.2062    0.0000 N   0  0  0  0  0  0  0  0  0  0  0  0
    0.0000    0.2062    0.0000 C   0  0  0  0  0  0  0  0  0  0  0  0
   -0.7144   -0.2062    0.0000 C   0  0  0  0  0  0  0  0  0  0  0  0
   -0.7144    2.2687    0.0000 C   0  0  0  0  0  0  0  0  0  0  0  0
    0.0000    1.0312    0.0000 C   0  0  0  0  0  0  0  0  0  0  0  0
   -1.4290    2.6813    0.0000 C   0  0  0  0  0  0  0  0  0  0  0  0
   -0.7144   -1.0312    0.0000 C   0  0  0  0  0  0  0  0  0  0  0  0
   -2.1434    2.2687    0.0000 C   0  0  0  0  0  0  0  0  0  0  0  0
    0.0000    2.6813    0.0000 C   0  0  0  0  0  0  0  0  0  0  0  0
    0.0000   -1.4437    0.0000 C   0  0  0  0  0  0  0  0  0  0  0  0
   -1.4290   -1.4437    0.0000 C   0  0  0  0  0  0  0  0  0  0  0  0
    1.4289    0.2062    0.0000 C   0  0  0  0  0  0  0  0  0  0  0  0
   -1.4290   -2.2687    0.0000 C   0  0  0  0  0  0  0  0  0  0  0  0
    0.0000   -2.2687    0.0000 C   0  0  0  0  0  0  0  0  0  0  0  0
   -0.7144   -2.6813    0.0000 C   0  0  0  0  0  0  0  0  0  0  0  0
    2.1434   -0.2062    0.0000 C   0  0  0  0  0  0  0  0  0  0  0  0
  1 22  1  0
  2 23  1  0
  4 14  2  0
  5 18  1  0
  6 18  2  0
  7 21  2  0
  8 24  1  0
  9 14  1  0
 10 21  1  0
 11 10  1  0
 11 12  1  1
 11 14  1  0
 12 16  1  0
 13  9  1  6
 13 15  1  0
 13 18  1  0
 15  3  1  0
 15 17  1  1
 16 19  2  0
 16 20  1  0
 19 23  1  0
 20 22  2  0
 21 25  1  0
 22 24  1  0
 23 24  2  0
M  END
>  <DRUGBANK_ID>  (1) 
DB04150

>  <SECONDARY_ACCESSION_NUMBERS>  (1) 
EXPT01952

>  <COMMON_NAME>  (1) 
N-alpha-Acetyl-3,5-diiodotyrosyl-D-threonine

$$$$
