628
     RDKit          2D

 22 24  0  0  1  0  0  0  0  0999 V2000
    2.5467   -2.7000    0.0000 Cl  0  0  0  0  0  0  0  0  0  0  0  0
    2.3403    2.0183    0.0000 O   0  0  0  0  0  0  0  0  0  0  0  0
    4.7038    2.0801    0.0000 O   0  0  0  0  0  0  0  0  0  0  0  0
    3.4164    2.7000    0.0000 O   0  0  0  0  0  0  0  0  0  0  0  0
    2.1838    0.6300    0.0000 N   0  0  0  0  0  0  0  0  0  0  0  0
    4.0375    0.6300    0.0000 N   0  0  0  0  0  0  0  0  0  0  0  0
    3.1106   -0.5322    0.0000 C   0  0  0  0  0  0  0  0  0  0  0  0
    3.8540   -0.1742    0.0000 C   0  0  0  0  0  0  0  0  0  0  0  0
    2.3674   -0.1742    0.0000 C   0  0  0  0  0  0  0  0  0  0  0  0
    3.5231    1.2751    0.0000 C   0  0  0  0  0  0  0  0  0  0  0  0
    4.4989   -0.6886    0.0000 C   0  0  0  0  0  0  0  0  0  0  0  0
    2.6981    1.2751    0.0000 C   0  0  0  0  0  0  0  0  0  0  0  0
    3.1881   -1.3880    0.0000 C   0  0  0  0  0  0  0  0  0  0  0  0
    1.6500   -0.6473    0.0000 C   0  0  0  0  0  0  0  0  0  0  0  0
    2.4818   -1.8776    0.0000 C   0  0  0  0  0  0  0  0  0  0  0  0
    1.7076   -1.5047    0.0000 C   0  0  0  0  0  0  0  0  0  0  0  0
    5.2669   -0.3872    0.0000 C   0  0  0  0  0  0  0  0  0  0  0  0
    4.3760   -1.5044    0.0000 C   0  0  0  0  0  0  0  0  0  0  0  0
    3.8811    2.0183    0.0000 C   0  0  0  0  0  0  0  0  0  0  0  0
    5.9120   -0.9016    0.0000 C   0  0  0  0  0  0  0  0  0  0  0  0
    5.0210   -2.0188    0.0000 C   0  0  0  0  0  0  0  0  0  0  0  0
    5.7890   -1.7174    0.0000 C   0  0  0  0  0  0  0  0  0  0  0  0
  1 15  1  0
  2 12  2  0
  3 19  1  0
  4 19  2  0
  5  9  1  0
  5 12  1  0
  6  8  2  0
  6 10  1  0
  7  8  1  0
  7  9  2  0
  7 13  1  0
  8 11  1  0
  9 14  1  0
 10 12  1  0
 10 19  1  0
 11 17  2  0
 11 18  1  0
 13 15  2  0
 14 16  2  0
 15 16  1  0
 17 20  1  0
 18 21  2  0
 20 22  2  0
 21 22  1  0
M  END
>  <DRUGBANK_ID>  (1) 
DB00628

>  <SECONDARY_ACCESSION_NUMBERS>  (1) 
APRD00881

>  <COMMON_NAME>  (1) 
Clorazepic acid

>  <CAS_NUMBER>  (1) 
23887-31-2

>  <UNII>  (1) 
D51WO0G0L4

>  <SYNONYMS>  (1) 
7-chloro-2,3-dihydro-2,2-dihydroxy-5-phenyl-1H-1,4-benzodiazepine-3-carboxylic acid; Chlorazepate; Clorazepate; Clorazepic acid

$$$$
