
     RDKit          2D

 32 33  0  0  0  0  0  0  0  0999 V2000
   -4.2283    1.0430    0.0000 C   0  0  0  0  0  0  0  0  0  0  0  0
   -3.7333    0.3417    0.0000 C   0  0  0  0  0  0  0  0  0  0  0  0
   -2.9496    0.5893    0.0000 C   0  0  0  0  0  0  0  0  0  0  0  0
   -2.9496    1.4144    0.0000 C   0  0  0  0  0  0  0  0  0  0  0  0
   -3.7333    1.7030    0.0000 C   0  0  0  0  0  0  0  0  0  0  0  0
   -2.2895    1.9094    0.0000 C   0  0  0  0  0  0  0  0  0  0  0  0
   -1.5470    1.5381    0.0000 C   0  0  0  0  0  0  0  0  0  0  0  0
   -0.7219    1.5381    0.0000 C   0  0  0  0  0  0  0  0  0  0  0  0
   -0.0205    1.9506    0.0000 C   0  0  0  0  0  0  0  0  0  0  0  0
    0.7219    1.5381    0.0000 C   0  0  0  0  0  0  0  0  0  0  0  0
    1.4232    1.9506    0.0000 C   0  0  0  0  0  0  0  0  0  0  0  0
    2.1245    1.5794    0.0000 C   0  0  0  0  0  0  0  0  0  0  0  0
    2.8258    1.9506    0.0000 O   0  0  0  0  0  0  0  0  0  0  0  0
    2.1245    0.7543    0.0000 O   0  0  0  0  0  0  0  0  0  0  0  0
    3.5271    1.5794    0.0000 C   0  0  0  0  0  0  0  0  0  0  0  0
    4.2283    1.9506    0.0000 C   0  0  0  0  0  0  0  0  0  0  0  0
    3.5271    0.7543    0.0000 C   0  0  0  0  0  0  0  0  0  0  0  0
   -2.2846    0.1019    0.0000 C   0  0  0  0  0  0  0  0  0  0  0  0
   -1.5616    0.4825    0.0000 C   0  0  0  0  0  0  0  0  0  0  0  0
   -0.8678    0.0451    0.0000 C   0  0  0  0  0  0  0  0  0  0  0  0
   -0.1535    0.4209    0.0000 C   0  0  0  0  0  0  0  0  0  0  0  0
    0.5441   -0.0192    0.0000 O   0  0  0  0  0  0  0  0  0  0  0  0
   -1.4512   -0.5382    0.0000 F   0  0  0  0  0  0  0  0  0  0  0  0
   -0.2844   -0.5382    0.0000 F   0  0  0  0  0  0  0  0  0  0  0  0
    0.5441   -0.8443    0.0000 C   0  0  0  0  0  0  0  0  0  0  0  0
   -3.9670    2.4944    0.0000 O   0  0  0  0  0  0  0  0  0  0  0  0
   -3.9969   -0.4400    0.0000 O   0  0  0  0  0  0  0  0  0  0  0  0
   -0.1703   -1.2568    0.0000 C   0  0  0  0  0  0  0  0  0  0  0  0
   -0.1703   -2.0818    0.0000 C   0  0  0  0  0  0  0  0  0  0  0  0
    0.5441   -2.4944    0.0000 C   0  0  0  0  0  0  0  0  0  0  0  0
    1.2586   -2.0818    0.0000 C   0  0  0  0  0  0  0  0  0  0  0  0
    1.2586   -1.2568    0.0000 C   0  0  0  0  0  0  0  0  0  0  0  0
  1  2  1  0
  1  5  1  0
  2  3  1  0
  2 27  1  6
  3  4  1  0
  3 18  1  1
  4  5  1  0
  4  6  1  6
  5 26  1  6
  6  7  1  0
  7  8  2  0
  8  9  1  0
  9 10  1  0
 10 11  1  0
 11 12  1  0
 12 13  1  0
 12 14  2  0
 13 15  1  0
 15 16  1  0
 15 17  1  0
 18 19  2  0
 19 20  1  0
 20 21  1  0
 20 23  1  0
 20 24  1  0
 21 22  1  0
 22 25  1  0
 25 28  2  0
 25 32  1  0
 28 29  1  0
 29 30  2  0
 30 31  1  0
 31 32  2  0
M  END
>  <DRUGBANK_ID>  (1) 
DB08819

>  <COMMON_NAME>  (1) 
Tafluprost

>  <CAS_NUMBER>  (1) 
209860-87-7

>  <UNII>  (1) 
1O6WQ6T7G3

>  <SYNONYMS>  (1) 
Tafluprost

$$$$
