
     RDKit          2D

 19 21  0  0  0  0  0  0  0  0999 V2000
   -3.4712    1.5229    0.0000 C   0  0  0  0  0  0  0  0  0  0  0  0
    3.3523    1.1104    0.0000 C   0  0  0  0  0  0  0  0  0  0  0  0
    3.3523    1.9354    0.0000 C   0  0  0  0  0  0  0  0  0  0  0  0
    2.6378    0.6979    0.0000 C   0  0  0  0  0  0  0  0  0  0  0  0
   -0.5837    2.2374    0.0000 C   0  0  0  0  0  0  0  0  0  0  0  0
   -0.5837    0.8085    0.0000 C   0  0  0  0  0  0  0  0  0  0  0  0
   -1.4087    2.2374    0.0000 C   0  0  0  0  0  0  0  0  0  0  0  0
   -1.4087    0.8085    0.0000 C   0  0  0  0  0  0  0  0  0  0  0  0
    2.6378    2.3479    0.0000 C   0  0  0  0  0  0  0  0  0  0  0  0
    1.1387    2.1904    0.0000 C   0  0  0  0  0  0  0  0  0  0  0  0
   -0.1712    1.5229    0.0000 C   0  0  0  0  0  0  0  0  0  0  0  0
   -1.8212    1.5229    0.0000 C   0  0  0  0  0  0  0  0  0  0  0  0
    0.6538    1.5229    0.0000 C   0  0  0  0  0  0  0  0  0  0  0  0
    1.9233    1.1104    0.0000 C   0  0  0  0  0  0  0  0  0  0  0  0
    1.1387    0.8555    0.0000 N   0  0  0  0  0  0  0  0  0  0  0  0
    1.9233    1.9354    0.0000 N   0  0  0  0  0  0  0  0  0  0  0  0
   -2.6462    0.6979    0.0000 O   0  0  0  0  0  0  0  0  0  0  0  0
   -2.6462    2.3479    0.0000 O   0  0  0  0  0  0  0  0  0  0  0  0
   -2.6462    1.5229    0.0000 S   0  0  0  0  0  0  0  0  0  0  0  0
  3  2  1  0
  4  2  2  0
  7  5  2  0
  8  6  1  0
  9  3  2  0
 11  5  1  0
 11  6  2  0
 12  7  1  0
 12  8  2  0
 13 10  2  0
 13 11  1  0
 14  4  1  0
 15 13  1  0
 15 14  2  0
 16  9  1  0
 16 10  1  0
 16 14  1  0
 19  1  1  0
 19 12  1  0
 19 17  2  0
 19 18  2  0
M  END
>  <DRUGBANK_ID>  (1) 
DB13593

>  <COMMON_NAME>  (1) 
Zolimidine

>  <CAS_NUMBER>  (1) 
1222-57-7

>  <UNII>  (1) 
YCF001N8QB

>  <SYNONYMS>  (1) 
Zolimidine

$$$$
