
     RDKit          2D

 31 35  0  0  0  0  0  0  0  0999 V2000
   -0.3603    2.6865    0.0000 C   0  0  0  0  0  0  0  0  0  0  0  0
    0.3541    2.2731    0.0000 C   0  0  0  0  0  0  0  0  0  0  0  0
    0.3541    1.4481    0.0000 N   0  0  0  0  0  0  0  0  0  0  0  0
    1.7829    1.4481    0.0000 C   0  0  0  0  0  0  0  0  0  0  0  0
    1.7829    2.2731    0.0000 C   0  0  0  0  0  0  0  0  0  0  0  0
    1.0664    2.6865    0.0000 C   0  0  0  0  0  0  0  0  0  0  0  0
    2.4972    2.6865    0.0000 C   0  0  0  0  0  0  0  0  0  0  0  0
    2.4972    3.5115    0.0000 C   0  0  0  0  0  0  0  0  0  0  0  0
    3.2117    3.9229    0.0000 N   0  0  0  0  0  0  0  0  0  0  0  0
    1.7829    3.9229    0.0000 O   0  0  0  0  0  0  0  0  0  0  0  0
    3.2117    2.2731    0.0000 C   0  0  0  0  0  0  0  0  0  0  0  0
    3.2117    1.4481    0.0000 C   0  0  0  0  0  0  0  0  0  0  0  0
    2.4972    1.0367    0.0000 C   0  0  0  0  0  0  0  0  0  0  0  0
   -0.3603    1.0367    0.0000 C   0  0  0  0  0  0  0  0  0  0  0  0
   -0.3603    0.2058    0.0000 N   0  0  0  0  0  0  0  0  0  0  0  0
   -1.0726   -0.2097    0.0000 C   0  0  0  0  0  0  0  0  0  0  0  0
   -1.0726   -1.0346    0.0000 N   0  0  0  0  0  0  0  0  0  0  0  0
   -0.3582   -1.4481    0.0000 C   0  0  0  0  0  0  0  0  0  0  0  0
   -0.3582   -2.2731    0.0000 C   0  0  0  0  0  0  0  0  0  0  0  0
   -1.0746   -2.6844    0.0000 C   0  0  0  0  0  0  0  0  0  0  0  0
   -1.0746   -3.5094    0.0000 C   0  0  0  0  0  0  0  0  0  0  0  0
   -0.3582   -3.9229    0.0000 C   0  0  0  0  0  0  0  0  0  0  0  0
    0.3541   -3.5094    0.0000 C   0  0  0  0  0  0  0  0  0  0  0  0
    0.3541   -2.6844    0.0000 C   0  0  0  0  0  0  0  0  0  0  0  0
   -1.7870    0.2058    0.0000 C   0  0  0  0  0  0  0  0  0  0  0  0
   -1.7870    1.0367    0.0000 C   0  0  0  0  0  0  0  0  0  0  0  0
   -1.0726    1.4523    0.0000 N   0  0  0  0  0  0  0  0  0  0  0  0
   -2.4993    1.4523    0.0000 C   0  0  0  0  0  0  0  0  0  0  0  0
   -3.2117    1.0367    0.0000 C   0  0  0  0  0  0  0  0  0  0  0  0
   -3.2117    0.2058    0.0000 O   0  0  0  0  0  0  0  0  0  0  0  0
   -2.4993   -0.2097    0.0000 C   0  0  0  0  0  0  0  0  0  0  0  0
  1  2  1  0
  2  3  1  0
  2  6  2  0
  3  4  1  0
  3 14  1  0
  4  5  2  0
  4 13  1  0
  5  7  1  0
  6  5  1  0
  7  8  1  0
  7 11  2  0
  8  9  1  0
  8 10  2  0
 12 11  1  0
 13 12  2  0
 14 15  2  0
 14 27  1  0
 15 16  1  0
 16 17  1  0
 16 25  2  0
 17 18  1  0
 18 19  1  0
 19 20  2  0
 19 24  1  0
 20 21  1  0
 21 22  2  0
 23 22  1  0
 24 23  2  0
 25 31  1  0
 26 25  1  0
 26 28  1  0
 27 26  2  0
 28 29  1  0
 29 30  1  0
 31 30  1  0
M  END
>  <DRUGBANK_ID>  (1) 
DB16874

>  <COMMON_NAME>  (1) 
CB-5083

>  <CAS_NUMBER>  (1) 
1542705-92-9

>  <UNII>  (1) 
591IV6UL6J

>  <SYNONYMS>  (1) 
1-(4-(benzylamino)-7,8-dihydro-5H-pyrano[4,3-d]pyrimidin-2-yl)-2-methyl-1H-indole-4-carboxamide; 1-(7,8-Dihydro-4-((phenylmethyl)amino)-5H-pyrano(4,3-d)pyrimidin-2-yl)-2-methyl-1H-indole-4-carboxamide

$$$$
