MYE
     RDKit          2D

 27 27  0  0  0  0  0  0  0  0999 V2000
   -4.1650   -1.3011    0.0000 C   0  0  0  0  0  0  0  0  0  0  0  0
   -3.4506   -1.7136    0.0000 C   0  0  0  0  0  0  0  0  0  0  0  0
   -2.7361   -1.3011    0.0000 C   0  0  0  0  0  0  0  0  0  0  0  0
   -2.0216   -1.7136    0.0000 C   0  0  0  0  0  0  0  0  0  0  0  0
   -1.3072   -1.3011    0.0000 N   0  0  0  0  0  0  0  0  0  0  0  0
   -0.5927   -1.7136    0.0000 C   0  0  0  0  0  0  0  0  0  0  0  0
   -0.5927   -2.5386    0.0000 O   0  0  0  0  0  0  0  0  0  0  0  0
    0.1218   -1.3011    0.0000 C   0  0  0  0  0  0  0  0  0  0  0  0
    0.1218   -0.4761    0.0000 C   0  0  0  0  0  0  0  0  0  0  0  0
   -0.5927   -0.0636    0.0000 C   0  0  0  0  0  0  0  0  0  0  0  0
   -1.3072   -0.4761    0.0000 C   0  0  0  0  0  0  0  0  0  0  0  0
   -0.5927    0.7614    0.0000 C   0  0  0  0  0  0  0  0  0  0  0  0
    0.8363   -1.7136    0.0000 N   0  0  0  0  0  0  0  0  0  0  0  0
    1.5507   -1.3011    0.0000 C   0  0  0  0  0  0  0  0  0  0  0  0
    1.5507   -0.4761    0.0000 O   0  0  0  0  0  0  0  0  0  0  0  0
    2.2652   -1.7136    0.0000 O   0  0  0  0  0  0  0  0  0  0  0  0
    2.9797   -1.3011    0.0000 C   0  0  0  0  0  0  0  0  0  0  0  0
    3.6941   -1.7136    0.0000 C   0  0  0  0  0  0  0  0  0  0  0  0
    4.4086   -1.3011    0.0000 C   0  0  0  0  0  0  0  0  0  0  0  0
    5.1231   -1.7136    0.0000 C   0  0  0  0  0  0  0  0  0  0  0  0
    5.1231   -2.5386    0.0000 C   0  0  0  0  0  0  0  0  0  0  0  0
    5.8375   -2.9511    0.0000 Br  0  0  0  0  0  0  0  0  0  0  0  0
    4.4086   -2.9511    0.0000 C   0  0  0  0  0  0  0  0  0  0  0  0
    3.6941   -2.5386    0.0000 C   0  0  0  0  0  0  0  0  0  0  0  0
   -2.0216   -2.5386    0.0000 C   0  0  0  0  0  0  0  0  0  0  0  0
   -1.3072   -2.9511    0.0000 O   0  0  0  0  0  0  0  0  0  0  0  0
   -4.8795   -1.7136    0.0000 C   0  0  0  0  0  0  0  0  0  0  0  0
  1  2  1  0
  1 27  1  0
  2  3  1  0
  4  3  1  6
  4  5  1  0
  4 25  1  0
  5  6  1  0
  6  7  2  0
  6  8  1  0
  8  9  1  6
  8 13  1  0
  9 10  1  0
 10 11  1  0
 10 12  1  0
 13 14  1  0
 14 15  2  0
 14 16  1  0
 16 17  1  0
 17 18  1  0
 18 19  2  0
 18 24  1  0
 19 20  1  0
 20 21  2  0
 21 22  1  0
 21 23  1  0
 23 24  2  0
 25 26  2  0
M  END
>  <DRUGBANK_ID>  (1) 
DB04234

>  <SECONDARY_ACCESSION_NUMBERS>  (1) 
EXPT02267

>  <COMMON_NAME>  (1) 
N2-({[(4-Bromophenyl)Methyl]Oxy}Carbonyl)-N1-[(1s)-1-Formylpentyl]-L-Leucinamide

$$$$
