
     RDKit          2D

 10  9  0  0  1  0  0  0  0  0999 V2000
   30.5669  -11.1406    0.0000 O   0  0  0  0  0  0  0  0  0  0  0  0
   27.7090  -13.6156    0.0000 O   0  0  0  0  0  0  0  0  0  0  0  0
   29.8525   -9.9031    0.0000 O   0  0  0  0  0  0  0  0  0  0  0  0
   29.1380  -13.6156    0.0000 O   0  0  0  0  0  0  0  0  0  0  0  0
   28.4235  -10.7281    0.0000 N   0  0  0  0  0  0  0  0  0  0  0  0
   29.1380  -11.1406    0.0000 C   0  0  0  0  0  0  0  0  0  0  0  0
   29.1380  -11.9656    0.0000 C   0  0  0  0  0  0  0  0  0  0  0  0
   28.4235  -12.3781    0.0000 C   0  0  0  0  0  0  0  0  0  0  0  0
   29.8525  -10.7281    0.0000 C   0  0  0  0  0  0  0  0  0  0  0  0
   28.4235  -13.2031    0.0000 C   0  0  0  0  0  0  0  0  0  0  0  0
  1  9  1  0
  2 10  1  0
  3  9  2  0
  4 10  2  0
  6  5  1  1
  6  7  1  0
  6  9  1  0
  7  8  1  0
  8 10  1  0
M  END
>  <DRUGBANK_ID>  (1) 
DB02517

>  <SECONDARY_ACCESSION_NUMBERS>  (1) 
EXPT01180

>  <COMMON_NAME>  (1) 
D-Glutamic Acid

>  <CAS_NUMBER>  (1) 
6893-26-1

>  <UNII>  (1) 
Q479989WEA

$$$$
