
     RDKit          2D

 20 21  0  0  0  0  0  0  0  0999 V2000
    1.0716    0.4124    0.0000 N   0  0  0  0  0  0  0  0  0  0  0  0
    1.7860    1.6499    0.0000 N   0  0  0  0  0  0  0  0  0  0  0  0
    1.7860    0.8249    0.0000 C   0  0  0  0  0  0  0  0  0  0  0  0
    0.3571    1.6499    0.0000 C   0  0  0  0  0  0  0  0  0  0  0  0
    0.3571    0.8249    0.0000 C   0  0  0  0  0  0  0  0  0  0  0  0
    1.0716    2.0623    0.0000 C   0  0  0  0  0  0  0  0  0  0  0  0
    2.5005    0.4124    0.0000 O   0  0  0  0  0  0  0  0  0  0  0  0
    1.0716    2.8873    0.0000 O   0  0  0  0  0  0  0  0  0  0  0  0
   -0.3572    2.0623    0.0000 C   0  0  0  0  0  0  0  0  0  0  0  0
   -1.0716    1.6499    0.0000 C   0  0  0  0  0  0  0  0  0  0  0  0
   -1.0716    0.8249    0.0000 C   0  0  0  0  0  0  0  0  0  0  0  0
   -1.7860    2.0623    0.0000 C   0  0  0  0  0  0  0  0  0  0  0  0
   -1.7860    0.4124    0.0000 C   0  0  0  0  0  0  0  0  0  0  0  0
   -2.5005    1.6499    0.0000 C   0  0  0  0  0  0  0  0  0  0  0  0
   -2.5005    0.8249    0.0000 C   0  0  0  0  0  0  0  0  0  0  0  0
    1.0716   -0.4124    0.0000 C   0  0  0  0  0  0  0  0  0  0  0  0
    0.3571   -0.8249    0.0000 O   0  0  0  0  0  0  0  0  0  0  0  0
    0.3571   -1.6499    0.0000 C   0  0  0  0  0  0  0  0  0  0  0  0
   -0.3572   -2.0623    0.0000 C   0  0  0  0  0  0  0  0  0  0  0  0
   -0.3572   -2.8873    0.0000 O   0  0  0  0  0  0  0  0  0  0  0  0
  3  1  1  0
  3  2  1  0
  5  1  1  0
  5  4  2  0
  6  2  1  0
  6  4  1  0
  7  3  2  0
  8  6  2  0
  9  4  1  0
 10  9  1  0
 11 10  2  0
 12 10  1  0
 13 11  1  0
 14 12  2  0
 15 13  2  0
 15 14  1  0
 16  1  1  0
 17 16  1  0
 18 17  1  0
 19 18  1  0
 20 19  1  0
M  END
>  <DRUGBANK_ID>  (1) 
DB07437

>  <COMMON_NAME>  (1) 
5-Benzylacyclouridine

>  <CAS_NUMBER>  (1) 
82857-69-0

>  <UNII>  (1) 
0H851I3O9D

>  <SYNONYMS>  (1) 
5-Bacu; 5-benzyl-1-(2-hydroxyethoxymethyl)uracil

$$$$
