
     RDKit          2D

 33 36  0  0  0  0  0  0  0  0999 V2000
   -2.0668   -2.1526    0.0000 O   0  0  0  0  0  0  0  0  0  0  0  0
    3.6441    2.8608    0.0000 O   0  0  0  0  0  0  0  0  0  0  0  0
    0.9659    1.5662    0.0000 O   0  0  0  0  0  0  0  0  0  0  0  0
    3.9387    1.4626    0.0000 O   0  0  0  0  0  0  0  0  0  0  0  0
   -0.5718   -4.4666    0.0000 N   0  0  0  0  0  0  0  0  0  0  0  0
    2.3242    1.1223    0.0000 N   0  0  0  0  0  0  0  0  0  0  0  0
   -2.0668   -4.6276    0.0000 N   0  0  0  0  0  0  0  0  0  0  0  0
   -2.7813   -3.3901    0.0000 N   0  0  0  0  0  0  0  0  0  0  0  0
   -3.4958   -4.6276    0.0000 N   0  0  0  0  0  0  0  0  0  0  0  0
    0.9142    3.8340    0.0000 N   0  0  0  0  0  0  0  0  0  0  0  0
    1.9078    4.7255    0.0000 N   0  0  0  0  0  0  0  0  0  0  0  0
    0.5799    4.5882    0.0000 N   0  0  0  0  0  0  0  0  0  0  0  0
    1.1940    5.1391    0.0000 N   0  0  0  0  0  0  0  0  0  0  0  0
   -0.3154   -2.3546    0.0000 C   0  0  0  0  0  0  0  0  0  0  0  0
   -0.5718   -3.1387    0.0000 C   0  0  0  0  0  0  0  0  0  0  0  0
    0.4917   -2.1845    0.0000 C   0  0  0  0  0  0  0  0  0  0  0  0
   -1.3524   -3.3901    0.0000 C   0  0  0  0  0  0  0  0  0  0  0  0
    0.7481   -1.4003    0.0000 C   0  0  0  0  0  0  0  0  0  0  0  0
    2.5805    1.9064    0.0000 C   0  0  0  0  0  0  0  0  0  0  0  0
   -1.3524   -4.2151    0.0000 C   0  0  0  0  0  0  0  0  0  0  0  0
    2.0295    2.5205    0.0000 C   0  0  0  0  0  0  0  0  0  0  0  0
   -0.0903   -3.8026    0.0000 C   0  0  0  0  0  0  0  0  0  0  0  0
    2.2858    3.3047    0.0000 C   0  0  0  0  0  0  0  0  0  0  0  0
    1.2606    0.1680    0.0000 C   0  0  0  0  0  0  0  0  0  0  0  0
    0.1970   -0.7863    0.0000 C   0  0  0  0  0  0  0  0  0  0  0  0
    1.5553   -1.2301    0.0000 C   0  0  0  0  0  0  0  0  0  0  0  0
   -2.0668   -2.9776    0.0000 C   0  0  0  0  0  0  0  0  0  0  0  0
    1.5169    0.9522    0.0000 C   0  0  0  0  0  0  0  0  0  0  0  0
    0.4534   -0.0020    0.0000 C   0  0  0  0  0  0  0  0  0  0  0  0
    1.8116   -0.4459    0.0000 C   0  0  0  0  0  0  0  0  0  0  0  0
    3.3877    2.0766    0.0000 C   0  0  0  0  0  0  0  0  0  0  0  0
   -2.7813   -4.2151    0.0000 C   0  0  0  0  0  0  0  0  0  0  0  0
    1.7348    3.9188    0.0000 C   0  0  0  0  0  0  0  0  0  0  0  0
  1 27  2  0
  2 31  1  0
  3 28  2  0
  4 31  2  0
  5 20  1  0
  5 22  1  0
  6 28  1  0
  7 20  1  0
  7 32  1  0
  8 27  1  0
  8 32  2  0
  9 32  1  0
 10 12  1  0
 10 33  2  0
 11 13  2  0
 11 33  1  0
 12 13  1  0
 14 15  1  0
 14 16  1  0
 15 17  1  0
 15 22  2  0
 16 18  1  0
 17 20  2  0
 17 27  1  0
 18 25  2  0
 18 26  1  0
 19  6  1  0
 19 21  1  1
 19 31  1  0
 21 23  1  0
 23 33  1  0
 24 28  1  0
 24 29  2  0
 24 30  1  0
 25 29  1  0
 26 30  2  0
M  END
>  <DRUGBANK_ID>  (1) 
DB03038

>  <SECONDARY_ACCESSION_NUMBERS>  (1) 
EXPT02074

>  <COMMON_NAME>  (1) 
LY341770

$$$$
