FC1
     RDKit          2D

 18 19  0  0  0  0  0  0  0  0999 V2000
   -0.2195   -0.1357    0.0000 O   0  0  0  0  0  0  0  0  0  0  0  0
   -2.3629    1.1018    0.0000 S   0  0  0  0  0  0  0  0  0  0  0  0
   -3.0774   -0.1357    0.0000 C   0  0  0  0  0  0  0  0  0  0  0  0
   -2.3629   -1.3732    0.0000 C   0  0  0  0  0  0  0  0  0  0  0  0
   -0.9340    1.1018    0.0000 C   0  0  0  0  0  0  0  0  0  0  0  0
   -1.6485   -0.1357    0.0000 C   0  0  0  0  0  0  0  0  0  0  0  0
   -0.9340    0.2768    0.0000 C   0  0  0  0  0  0  0  0  0  0  0  0
   -2.3629    0.2768    0.0000 C   0  0  0  0  0  0  0  0  0  0  0  0
   -1.6485   -0.9607    0.0000 C   0  0  0  0  0  0  0  0  0  0  0  0
   -1.6485    1.5143    0.0000 C   0  0  0  0  0  0  0  0  0  0  0  0
    3.3528    0.2768    0.0000 C   0  0  0  0  0  0  0  0  0  0  0  0
    2.6384   -0.9607    0.0000 C   0  0  0  0  0  0  0  0  0  0  0  0
    2.6384   -0.1357    0.0000 N   0  0  0  0  0  0  0  0  0  0  0  0
    0.4949    0.2768    0.0000 C   0  0  0  0  0  0  0  0  0  0  0  0
   -3.0774   -0.9607    0.0000 C   0  0  0  0  0  0  0  0  0  0  0  0
   -1.6485    2.3393    0.0000 O   0  0  0  0  0  0  0  0  0  0  0  0
    1.2094   -0.1357    0.0000 C   0  0  0  0  0  0  0  0  0  0  0  0
    1.9239    0.2768    0.0000 C   0  0  0  0  0  0  0  0  0  0  0  0
  1  7  1  0
  1 14  1  0
  2  8  1  0
  2 10  1  0
  3  8  2  0
  3 15  1  0
  4  9  1  0
  4 15  2  0
  5  7  2  0
  5 10  1  0
  6  7  1  0
  6  8  1  0
  6  9  2  0
 10 16  2  0
 11 13  1  0
 12 13  1  0
 13 18  1  0
 14 17  1  0
 17 18  1  0
M  END
>  <DRUGBANK_ID>  (1) 
DB02462

>  <SECONDARY_ACCESSION_NUMBERS>  (1) 
EXPT01399

>  <COMMON_NAME>  (1) 
Thiocoumarin

>  <UNII>  (1) 
CM773J3THB

$$$$
