
     RDKit          2D

 29 30  0  0  0  0  0  0  0  0999 V2000
    2.2760   -0.1695    0.0000 C   0  0  0  0  0  0  0  0  0  0  0  0
    2.2760    0.6554    0.0000 N   0  0  0  0  0  0  0  0  0  0  0  0
    1.6086   -0.6544    0.0000 O   0  0  0  0  0  0  0  0  0  0  0  0
    2.9435   -0.6544    0.0000 C   0  0  0  0  0  0  0  0  0  0  0  0
    2.9905    1.0679    0.0000 C   0  0  0  0  0  0  0  0  0  0  0  0
    1.5615    1.0679    0.0000 C   0  0  0  0  0  0  0  0  0  0  0  0
    1.8635   -1.4390    0.0000 C   0  0  0  0  0  0  0  0  0  0  0  0
    2.6885   -1.4390    0.0000 C   0  0  0  0  0  0  0  0  0  0  0  0
    2.9905    1.8929    0.0000 N   0  0  0  0  0  0  0  0  0  0  0  0
    3.7050    0.6554    0.0000 O   0  0  0  0  0  0  0  0  0  0  0  0
    3.1734   -2.1064    0.0000 O   0  0  0  0  0  0  0  0  0  0  0  0
    2.2760    2.3054    0.0000 C   0  0  0  0  0  0  0  0  0  0  0  0
   -3.7050   -1.8929    0.0000 O   0  0  0  0  0  0  0  0  0  0  0  0
   -2.2761   -1.8929    0.0000 O   0  0  0  0  0  0  0  0  0  0  0  0
   -0.8471   -1.8929    0.0000 O   0  0  0  0  0  0  0  0  0  0  0  0
   -2.9906   -3.1304    0.0000 O   0  0  0  0  0  0  0  0  0  0  0  0
   -2.9906   -1.4804    0.0000 O   0  0  0  0  0  0  0  0  0  0  0  0
   -1.5616   -3.1304    0.0000 O   0  0  0  0  0  0  0  0  0  0  0  0
   -1.5616   -1.4804    0.0000 O   0  0  0  0  0  0  0  0  0  0  0  0
   -0.1327   -3.1304    0.0000 O   0  0  0  0  0  0  0  0  0  0  0  0
   -0.1327   -1.4804    0.0000 O   0  0  0  0  0  0  0  0  0  0  0  0
   -2.9906   -2.3054    0.0000 P   0  0  0  0  0  0  0  0  0  0  0  0
   -1.5616   -2.3054    0.0000 P   0  0  0  0  0  0  0  0  0  0  0  0
   -0.1327   -2.3054    0.0000 P   0  0  0  0  0  0  0  0  0  0  0  0
    0.5817   -1.8929    0.0000 O   0  0  0  0  0  0  0  0  0  0  0  0
    1.3786   -2.1064    0.0000 C   0  0  0  0  0  0  0  0  0  0  0  0
    2.2760    3.1304    0.0000 O   0  0  0  0  0  0  0  0  0  0  0  0
    1.5615    1.8929    0.0000 C   0  0  0  0  0  0  0  0  0  0  0  0
    0.8470    2.3054    0.0000 C   0  0  0  0  0  0  0  0  0  0  0  0
  1  2  1  1
  1  3  1  0
  1  4  1  0
  2  5  1  0
  2  6  1  0
  3  7  1  0
  4  8  1  0
  5  9  1  0
  5 10  2  0
  6 28  2  0
  7 26  1  1
  7  8  1  0
  8 11  1  6
  9 12  1  0
 12 27  2  0
 13 22  1  0
 14 23  1  0
 15 24  1  0
 22 14  1  0
 22 16  2  0
 22 17  1  0
 23 15  1  0
 23 18  2  0
 23 19  1  0
 24 25  1  0
 24 20  2  0
 24 21  1  0
 26 25  1  0
 28 12  1  0
 28 29  1  0
M  END
>  <DRUGBANK_ID>  (1) 
DB02452

>  <SECONDARY_ACCESSION_NUMBERS>  (1) 
EXPT03131

>  <COMMON_NAME>  (1) 
Thymidine 5'-triphosphate

>  <CAS_NUMBER>  (1) 
365-08-2

>  <UNII>  (1) 
QOP4K539MU

>  <SYNONYMS>  (1) 
2'-deoxythymidine triphosphate; 5'-TTP; deoxy-TTP; dTTP; pppdT; Thymidine-5'-triphosphate

$$$$
