
     RDKit          2D

 29 30  0  0  0  0  0  0  0  0999 V2000
   -0.3571    1.8562    0.0000 S   0  0  0  0  0  0  0  0  0  0  0  0
   -0.4677   -3.5062    0.0000 F   0  0  0  0  0  0  0  0  0  0  0  0
    1.1822   -3.5062    0.0000 F   0  0  0  0  0  0  0  0  0  0  0  0
    0.3572   -4.3312    0.0000 F   0  0  0  0  0  0  0  0  0  0  0  0
   -1.1821    1.8562    0.0000 O   0  0  0  0  0  0  0  0  0  0  0  0
    0.4678    1.8562    0.0000 O   0  0  0  0  0  0  0  0  0  0  0  0
    1.1822   -2.6812    0.0000 O   0  0  0  0  0  0  0  0  0  0  0  0
    1.0717   -1.4437    0.0000 O   0  0  0  0  0  0  0  0  0  0  0  0
   -0.3571    2.6812    0.0000 N   0  0  0  0  0  0  0  0  0  0  0  0
   -0.3571   -1.4437    0.0000 N   0  0  0  0  0  0  0  0  0  0  0  0
   -0.3571    1.0312    0.0000 C   0  0  0  0  0  0  0  0  0  0  0  0
   -0.3571   -0.6187    0.0000 C   0  0  0  0  0  0  0  0  0  0  0  0
   -1.0717   -0.2062    0.0000 C   0  0  0  0  0  0  0  0  0  0  0  0
   -1.0717    3.0937    0.0000 C   0  0  0  0  0  0  0  0  0  0  0  0
   -1.0717    0.6187    0.0000 C   0  0  0  0  0  0  0  0  0  0  0  0
    0.3572   -2.6812    0.0000 C   0  0  0  0  0  0  0  0  0  0  0  0
    0.3572    3.0937    0.0000 C   0  0  0  0  0  0  0  0  0  0  0  0
    0.3572    0.6187    0.0000 C   0  0  0  0  0  0  0  0  0  0  0  0
    0.3572   -0.2062    0.0000 C   0  0  0  0  0  0  0  0  0  0  0  0
    0.3572   -1.8562    0.0000 C   0  0  0  0  0  0  0  0  0  0  0  0
   -1.7861   -0.6187    0.0000 C   0  0  0  0  0  0  0  0  0  0  0  0
   -1.0717    3.9187    0.0000 C   0  0  0  0  0  0  0  0  0  0  0  0
    0.3572   -3.5062    0.0000 C   0  0  0  0  0  0  0  0  0  0  0  0
   -0.4677   -2.6812    0.0000 C   0  0  0  0  0  0  0  0  0  0  0  0
    0.3572    3.9187    0.0000 C   0  0  0  0  0  0  0  0  0  0  0  0
    1.0717    2.6812    0.0000 C   0  0  0  0  0  0  0  0  0  0  0  0
    1.0717    4.3312    0.0000 C   0  0  0  0  0  0  0  0  0  0  0  0
    1.7861    3.0937    0.0000 C   0  0  0  0  0  0  0  0  0  0  0  0
    1.7861    3.9187    0.0000 C   0  0  0  0  0  0  0  0  0  0  0  0
  1  5  2  0
  1  6  2  0
  1  9  1  0
  1 11  1  0
  2 23  1  0
  3 23  1  0
  4 23  1  0
  8 20  2  0
  9 14  1  0
  9 17  1  0
 10 12  1  0
 10 20  1  0
 11 15  2  0
 11 18  1  0
 12 13  2  0
 12 19  1  0
 13 15  1  0
 13 21  1  0
 14 22  1  0
 16  7  1  0
 16 20  1  0
 16 23  1  0
 16 24  1  6
 17 25  2  0
 17 26  1  0
 18 19  2  0
 25 27  1  0
 26 28  2  0
 27 29  2  0
 28 29  1  0
M  END
>  <DRUGBANK_ID>  (1) 
DB08609

>  <COMMON_NAME>  (1) 
(2R)-N-{4-[Ethyl(phenyl)sulfamoyl]-2-methylphenyl}-3,3,3-trifluoro-2-hydroxy-2-methylpropanamide

$$$$
