34T
     RDKit          2D

 14 15  0  0  0  0  0  0  0  0999 V2000
    0.5642    1.5165    0.0000 S   0  0  0  0  0  0  0  0  0  0  0  0
    1.2786    1.9290    0.0000 O   0  0  0  0  0  0  0  0  0  0  0  0
   -1.5793    0.2790    0.0000 C   0  0  0  0  0  0  0  0  0  0  0  0
   -1.5793   -0.5460    0.0000 C   0  0  0  0  0  0  0  0  0  0  0  0
   -0.8648   -0.9585    0.0000 C   0  0  0  0  0  0  0  0  0  0  0  0
   -0.1503   -0.5460    0.0000 C   0  0  0  0  0  0  0  0  0  0  0  0
    0.5642   -0.9585    0.0000 C   0  0  0  0  0  0  0  0  0  0  0  0
    1.2786   -0.5460    0.0000 C   0  0  0  0  0  0  0  0  0  0  0  0
    1.2786    0.2790    0.0000 C   0  0  0  0  0  0  0  0  0  0  0  0
    0.5642    0.6915    0.0000 C   0  0  0  0  0  0  0  0  0  0  0  0
   -0.1503    0.2790    0.0000 C   0  0  0  0  0  0  0  0  0  0  0  0
   -2.2937   -0.9585    0.0000 C   0  0  0  0  0  0  0  0  0  0  0  0
   -0.8648    0.6915    0.0000 N   0  0  0  0  0  0  0  0  0  0  0  0
   -0.1503    1.9290    0.0000 O   0  0  0  0  0  0  0  0  0  0  0  0
  1 10  1  0
  1 14  2  0
  2  1  2  0
  3  4  1  0
  4 12  1  1
  5  4  1  0
  6  5  1  0
  7  6  2  0
  8  7  1  0
  9  8  2  0
  9 10  1  0
 10 11  2  0
 11  6  1  0
 11 13  1  0
 13  3  1  0
M  END
>  <DRUGBANK_ID>  (1) 
DB07016

>  <COMMON_NAME>  (1) 
(3R)-8-(dioxidosulfanyl)-3-methyl-1,2,3,4-tetrahydroquinoline

$$$$
