YML
     RDKit          2D

 17 16  0  0  0  0  0  0  0  0999 V2000
    2.4828   -0.1014    0.0000 C   0  0  0  0  0  0  0  0  0  0  0  0
   -0.3751   -0.1014    0.0000 C   0  0  0  0  0  0  0  0  0  0  0  0
   -1.0896   -0.5139    0.0000 C   0  0  0  0  0  0  0  0  0  0  0  0
    1.7683   -0.5139    0.0000 C   0  0  0  0  0  0  0  0  0  0  0  0
    1.0538   -0.1014    0.0000 C   0  0  0  0  0  0  0  0  0  0  0  0
   -1.8041   -0.1014    0.0000 C   0  0  0  0  0  0  0  0  0  0  0  0
    0.3393   -0.5139    0.0000 C   0  0  0  0  0  0  0  0  0  0  0  0
    3.1972   -0.5139    0.0000 C   0  0  0  0  0  0  0  0  0  0  0  0
   -2.5185   -0.5139    0.0000 P   0  0  0  0  0  0  0  0  0  0  0  0
   -3.2330   -0.1014    0.0000 O   0  0  0  0  0  0  0  0  0  0  0  0
   -2.5185   -1.3389    0.0000 O   0  0  0  0  0  0  0  0  0  0  0  0
   -1.0896   -1.3389    0.0000 O   0  0  0  0  0  0  0  0  0  0  0  0
   -0.3751    0.7236    0.0000 C   0  0  0  0  0  0  0  0  0  0  0  0
    0.3393   -1.3389    0.0000 O   0  0  0  0  0  0  0  0  0  0  0  0
    1.0538    0.7236    0.0000 C   0  0  0  0  0  0  0  0  0  0  0  0
    2.4828    0.7236    0.0000 C   0  0  0  0  0  0  0  0  0  0  0  0
    3.9117   -0.1014    0.0000 O   0  0  0  0  0  0  0  0  0  0  0  0
  1  4  1  0
  1  8  1  0
  1 16  1  1
  2  3  1  0
  2  7  1  0
  2 13  1  6
  3  6  1  0
  3 12  2  0
  4  5  1  0
  5  7  1  0
  5 15  1  1
  6  9  1  0
  7 14  1  6
  8 17  1  0
  9 10  1  6
  9 11  2  0
M  END
>  <DRUGBANK_ID>  (1) 
DB08759

>  <COMMON_NAME>  (1) 
[(3R,4S,5S,7R)-4,8-DIHYDROXY-3,5,7-TRIMETHYL-2-OXOOCTYL]PHOSPHONIC ACID

$$$$
