W29
     RDKit          2D

 15 16  0  0  0  0  0  0  0  0999 V2000
   -0.3280    2.2458    0.0000 O   0  0  0  0  0  0  0  0  0  0  0  0
   -0.3280    1.4208    0.0000 C   0  0  0  0  0  0  0  0  0  0  0  0
   -1.0425    1.0083    0.0000 C   0  0  0  0  0  0  0  0  0  0  0  0
   -1.7569    1.4208    0.0000 O   0  0  0  0  0  0  0  0  0  0  0  0
   -1.0425    0.1833    0.0000 C   0  0  0  0  0  0  0  0  0  0  0  0
    0.3865    1.0083    0.0000 C   0  0  0  0  0  0  0  0  0  0  0  0
    0.3865    0.1833    0.0000 C   0  0  0  0  0  0  0  0  0  0  0  0
   -0.3280   -0.2292    0.0000 C   0  0  0  0  0  0  0  0  0  0  0  0
   -0.3280   -1.0542    0.0000 C   0  0  0  0  0  0  0  0  0  0  0  0
   -0.9954   -1.5391    0.0000 S   0  0  0  0  0  0  0  0  0  0  0  0
   -0.7405   -2.3238    0.0000 C   0  0  0  0  0  0  0  0  0  0  0  0
    0.0845   -2.3238    0.0000 C   0  0  0  0  0  0  0  0  0  0  0  0
    0.3394   -1.5391    0.0000 C   0  0  0  0  0  0  0  0  0  0  0  0
    1.1241   -1.2842    0.0000 C   0  0  0  0  0  0  0  0  0  0  0  0
    1.2956   -0.4772    0.0000 C   0  0  0  0  0  0  0  0  0  0  0  0
  2  1  1  0
  2  6  2  0
  3  2  1  0
  4  3  1  0
  5  3  2  0
  5  8  1  0
  7  6  1  0
  8  7  2  0
  9  8  1  0
  9 13  2  0
 10  9  1  0
 10 11  1  0
 11 12  2  0
 12 13  1  0
 13 14  1  0
 14 15  1  0
M  END
>  <DRUGBANK_ID>  (1) 
DB08718

>  <COMMON_NAME>  (1) 
4-(3-ethylthiophen-2-yl)benzene-1,2-diol

>  <UNII>  (1) 
W1GH0R824Z

$$$$
