
     RDKit          2D

 34 35  0  0  0  0  0  0  0  0999 V2000
   -2.6692    2.2727    0.0000 C   0  0  0  0  0  0  0  0  0  0  0  0
   -2.0561    1.7206    0.0000 C   0  0  0  0  0  0  0  0  0  0  0  0
   -2.3917    0.9669    0.0000 N   0  0  0  0  0  0  0  0  0  0  0  0
   -3.2122    1.0531    0.0000 C   0  0  0  0  0  0  0  0  0  0  0  0
   -3.3837    1.8602    0.0000 C   0  0  0  0  0  0  0  0  0  0  0  0
   -3.7642    0.4400    0.0000 C   0  0  0  0  0  0  0  0  0  0  0  0
   -4.5712    0.6115    0.0000 O   0  0  0  0  0  0  0  0  0  0  0  0
   -3.5093   -0.3445    0.0000 N   0  0  0  0  0  0  0  0  0  0  0  0
   -1.9792    0.2524    0.0000 S   0  0  0  0  0  0  0  0  0  0  0  0
   -1.2647    0.6649    0.0000 C   0  0  0  0  0  0  0  0  0  0  0  0
   -1.5667   -0.4620    0.0000 O   0  0  0  0  0  0  0  0  0  0  0  0
   -2.6937   -0.1600    0.0000 O   0  0  0  0  0  0  0  0  0  0  0  0
   -1.2647    1.4899    0.0000 C   0  0  0  0  0  0  0  0  0  0  0  0
   -0.5502    1.9025    0.0000 C   0  0  0  0  0  0  0  0  0  0  0  0
    0.1641    1.4899    0.0000 C   0  0  0  0  0  0  0  0  0  0  0  0
    0.1641    0.6649    0.0000 C   0  0  0  0  0  0  0  0  0  0  0  0
   -0.5502    0.2524    0.0000 C   0  0  0  0  0  0  0  0  0  0  0  0
    0.8786    1.9025    0.0000 C   0  0  0  0  0  0  0  0  0  0  0  0
    1.5931    1.4899    0.0000 N   0  0  0  0  0  0  0  0  0  0  0  0
    2.3075    1.9025    0.0000 C   0  0  0  0  0  0  0  0  0  0  0  0
    3.0220    1.4899    0.0000 C   0  0  0  0  0  0  0  0  0  0  0  0
    3.7365    1.9025    0.0000 C   0  0  0  0  0  0  0  0  0  0  0  0
    4.4510    1.4899    0.0000 C   0  0  0  0  0  0  0  0  0  0  0  0
    0.8786    2.7274    0.0000 O   0  0  0  0  0  0  0  0  0  0  0  0
    2.3075    2.7274    0.0000 C   0  0  0  0  0  0  0  0  0  0  0  0
    3.0220    3.1399    0.0000 O   0  0  0  0  0  0  0  0  0  0  0  0
    1.5931    3.1399    0.0000 O   0  0  0  0  0  0  0  0  0  0  0  0
    4.4510    0.6649    0.0000 O   0  0  0  0  0  0  0  0  0  0  0  0
    5.1654    1.9025    0.0000 O   0  0  0  0  0  0  0  0  0  0  0  0
   -4.0613   -0.9576    0.0000 C   0  0  0  0  0  0  0  0  0  0  0  0
   -3.8063   -1.7422    0.0000 C   0  0  0  0  0  0  0  0  0  0  0  0
   -4.3584   -2.3553    0.0000 C   0  0  0  0  0  0  0  0  0  0  0  0
   -4.1034   -3.1399    0.0000 O   0  0  0  0  0  0  0  0  0  0  0  0
   -5.1654   -2.1838    0.0000 O   0  0  0  0  0  0  0  0  0  0  0  0
  1  2  1  0
  1  5  1  0
  2  3  1  0
  3  9  1  0
  4  3  1  0
  4  5  1  0
  4  6  1  1
  6  7  2  0
  6  8  1  0
 10  9  1  0
 10 13  2  0
 10 17  1  0
 11  9  2  0
 12  9  2  0
 13 14  1  0
 14 15  2  0
 15 16  1  0
 15 18  1  0
 16 17  2  0
 18 19  1  0
 18 24  2  0
 20 19  1  0
 20 21  1  6
 20 25  1  0
 21 22  1  0
 22 23  1  0
 23 28  1  0
 23 29  2  0
 25 26  2  0
 25 27  1  0
 30  8  1  0
 30 31  1  0
 31 32  1  0
 32 33  1  0
 32 34  2  0
M  END
>  <DRUGBANK_ID>  (1) 
DB03558

>  <SECONDARY_ACCESSION_NUMBERS>  (1) 
EXPT03087

>  <COMMON_NAME>  (1) 
SP-876

>  <SYNONYMS>  (1) 
1-[(4-{[(1S)-1,3-Dicarboxypropyl]carbamoyl}phenyl)sulfonyl]-D-prolyl-Î²-alanine

$$$$
