
     RDKit          2D

  5  5  0  0  0  0  0  0  0  0999 V2000
    1.2352    0.6294    0.0000 N   0  0  0  0  0  0  0  0  0  0  0  0
    0.9803   -0.1553    0.0000 C   0  0  0  0  0  0  0  0  0  0  0  0
    0.1553   -0.1553    0.0000 C   0  0  0  0  0  0  0  0  0  0  0  0
   -0.0997    0.6294    0.0000 C   0  0  0  0  0  0  0  0  0  0  0  0
    0.5678    1.1143    0.0000 N   0  0  0  0  0  0  0  0  0  0  0  0
  1  2  1  0
  1  5  1  0
  2  3  2  0
  3  4  1  0
  4  5  2  0
M  END
>  <DRUGBANK_ID>  (1) 
DB02757

>  <SECONDARY_ACCESSION_NUMBERS>  (1) 
EXPT02727

>  <COMMON_NAME>  (1) 
Pyrazole

>  <CAS_NUMBER>  (1) 
288-13-1

>  <UNII>  (1) 
3QD5KJZ7ZJ

>  <SYNONYMS>  (1) 
1,2-Diazole; 1H-Pyrazol; 1H-pyrazole

$$$$
