
     RDKit          2D

 20 22  0  0  0  0  0  0  0  0999 V2000
    1.7798    3.9841    0.0000 C   0  0  0  0  0  0  0  0  0  0  0  0
    3.9934    0.8250    0.0000 C   0  0  0  0  0  0  0  0  0  0  0  0
    1.2949    0.4125    0.0000 C   0  0  0  0  0  0  0  0  0  0  0  0
    1.5249    3.1993    0.0000 C   0  0  0  0  0  0  0  0  0  0  0  0
    2.5644    0.0000    0.0000 C   0  0  0  0  0  0  0  0  0  0  0  0
    0.7403    2.9445    0.0000 C   0  0  0  0  0  0  0  0  0  0  0  0
    0.7403    2.1195    0.0000 C   0  0  0  0  0  0  0  0  0  0  0  0
    2.5644    0.8250    0.0000 C   0  0  0  0  0  0  0  0  0  0  0  0
    3.2789   -0.4125    0.0000 C   0  0  0  0  0  0  0  0  0  0  0  0
    1.5249    1.8646    0.0000 C   0  0  0  0  0  0  0  0  0  0  0  0
    3.2789    1.2374    0.0000 N   0  0  0  0  0  0  0  0  0  0  0  0
    3.9934    0.0000    0.0000 N   0  0  0  0  0  0  0  0  0  0  0  0
    1.7798   -0.2549    0.0000 N   0  0  0  0  0  0  0  0  0  0  0  0
    1.7798    1.0799    0.0000 N   0  0  0  0  0  0  0  0  0  0  0  0
    0.0728    3.4294    0.0000 O   0  0  0  0  0  0  0  0  0  0  0  0
    0.0728    1.6346    0.0000 O   0  0  0  0  0  0  0  0  0  0  0  0
    2.5868    4.1556    0.0000 O   0  0  0  0  0  0  0  0  0  0  0  0
    2.0097    2.5320    0.0000 O   0  0  0  0  0  0  0  0  0  0  0  0
    3.2789   -1.2374    0.0000 S   0  0  0  0  0  0  0  0  0  0  0  0
    2.5252   -1.5729    0.0000 C   0  0  0  0  0  0  0  0  0  0  0  0
  4  1  1  1
  6  4  1  0
  6 15  1  6
  7  6  1  0
  7 16  1  6
  8  5  2  0
  9  5  1  0
 10  7  1  0
 10 14  1  1
 11  2  2  0
 11  8  1  0
 12  2  1  0
 12  9  2  0
 13  3  2  0
 13  5  1  0
 14  3  1  0
 14  8  1  0
 17  1  1  0
 18  4  1  0
 18 10  1  0
 19  9  1  0
 19 20  1  0
M  END
>  <DRUGBANK_ID>  (1) 
DB02896

>  <SECONDARY_ACCESSION_NUMBERS>  (1) 
EXPT02248

>  <COMMON_NAME>  (1) 
Methylthioinosine

>  <CAS_NUMBER>  (1) 
342-69-8

>  <UNII>  (1) 
Y5G39SHR0V

>  <SYNONYMS>  (1) 
6-(Methylthio)purine ribonucleoside; 6-methyl MP riboside; 6-methyl MP-riboside; 6-methyl-9-ribofuranosylpurine-6-thiol; 6-methylmercaptopurine ribonucleoside; 6-methylmercaptopurine riboside; 6-Methylmercaptopurine-riboside; 6-methylthioinosine; 6-methylthiopurine riboside; 6-MMPR; 6-S-methyl-6-thioinosine; Me6MPR; methylmercaptopurine riboside; MMPR

$$$$
