
     RDKit          2D

 31 32  0  0  1  0  0  0  0  0999 V2000
    5.0771   -5.2722    0.0000 C   0  0  0  0  0  0  0  0  0  0  0  0
    4.3626   -4.8597    0.0000 C   0  0  0  0  0  0  0  0  0  0  0  0
    3.6481   -5.2722    0.0000 C   0  0  0  0  0  0  0  0  0  0  0  0
    4.3626   -4.0347    0.0000 C   0  0  0  0  0  0  0  0  0  0  0  0
    3.6481   -3.6222    0.0000 N   0  0  0  0  0  0  0  0  0  0  0  0
    2.9337   -4.0347    0.0000 C   0  0  0  0  0  0  0  0  0  0  0  0
    2.9337   -4.8597    0.0000 O   0  0  0  0  0  0  0  0  0  0  0  0
    2.2192   -3.6222    0.0000 N   0  0  0  0  0  0  0  0  0  0  0  0
    2.2192   -2.7972    0.0000 C   0  0  0  0  0  0  0  0  0  0  0  0
    2.9337   -2.3847    0.0000 C   0  0  0  0  0  0  0  0  0  0  0  0
    3.6481   -1.9722    0.0000 C   0  0  0  0  0  0  0  0  0  0  0  0
    2.5212   -1.6702    0.0000 C   0  0  0  0  0  0  0  0  0  0  0  0
    3.3462   -3.0992    0.0000 O   0  0  0  0  0  0  0  0  0  0  0  0
    5.0771   -3.6222    0.0000 C   0  0  0  0  0  0  0  0  0  0  0  0
    5.0771   -2.7972    0.0000 O   0  0  0  0  0  0  0  0  0  0  0  0
    5.7915   -4.0347    0.0000 N   0  0  0  0  0  0  0  0  0  0  0  0
    6.5060   -3.6222    0.0000 C   0  0  0  0  0  0  0  0  0  0  0  0
    7.2205   -4.0347    0.0000 C   0  0  0  0  0  0  0  0  0  0  0  0
    7.2205   -4.8597    0.0000 C   0  0  0  0  0  0  0  0  0  0  0  0
    8.0330   -4.7164    0.0000 O   0  0  0  0  0  0  0  0  0  0  0  0
    7.5027   -5.6349    0.0000 C   0  0  0  0  0  0  0  0  0  0  0  0
    8.3151   -5.7782    0.0000 C   0  0  0  0  0  0  0  0  0  0  0  0
    8.5973   -6.5534    0.0000 C   0  0  0  0  0  0  0  0  0  0  0  0
    8.0670   -7.1854    0.0000 C   0  0  0  0  0  0  0  0  0  0  0  0
    8.3492   -7.9607    0.0000 Cl  0  0  0  0  0  0  0  0  0  0  0  0
    7.2545   -7.0422    0.0000 C   0  0  0  0  0  0  0  0  0  0  0  0
    6.9724   -6.2669    0.0000 C   0  0  0  0  0  0  0  0  0  0  0  0
    6.5060   -5.2722    0.0000 C   0  0  0  0  0  0  0  0  0  0  0  0
    7.0363   -5.9042    0.0000 C   0  0  0  0  0  0  0  0  0  0  0  0
    5.9757   -5.9042    0.0000 C   0  0  0  0  0  0  0  0  0  0  0  0
    5.7915   -4.8597    0.0000 C   0  0  0  0  0  0  0  0  0  0  0  0
  1  2  1  0
  2  3  1  0
  4  2  1  0
  4  5  1  1
  4 14  1  0
  5  6  1  0
  6  7  2  0
  6  8  1  0
  8  9  1  0
  9 10  1  0
 10 11  1  0
 10 12  1  0
 10 13  1  0
 14 15  2  0
 14 16  1  0
 16 17  1  0
 16 31  1  0
 17 18  1  0
 19 18  1  0
 19 20  1  1
 19 21  1  0
 19 28  1  0
 21 22  2  0
 21 27  1  0
 22 23  1  0
 23 24  2  0
 24 25  1  0
 24 26  1  0
 26 27  2  0
 28 29  1  0
 28 30  1  0
 28 31  1  0
M  END
>  <DRUGBANK_ID>  (1) 
DB14941

>  <COMMON_NAME>  (1) 
BMS-817399

>  <CAS_NUMBER>  (1) 
1202400-18-7

>  <UNII>  (1) 
AKQ3X6FEH0

$$$$
