64U
     RDKit          2D

 27 29  0  0  0  0  0  0  0  0999 V2000
    2.4567   -0.5008    0.0000 C   0  0  0  0  0  0  0  0  0  0  0  0
    1.5006   -1.5627    0.0000 N   0  0  0  0  0  0  0  0  0  0  0  0
    1.6721   -0.7558    0.0000 C   0  0  0  0  0  0  0  0  0  0  0  0
    1.0590   -0.2037    0.0000 C   0  0  0  0  0  0  0  0  0  0  0  0
    1.2305    0.6032    0.0000 O   0  0  0  0  0  0  0  0  0  0  0  0
    0.2744   -0.4587    0.0000 N   0  0  0  0  0  0  0  0  0  0  0  0
    0.0194   -1.2433    0.0000 C   0  0  0  0  0  0  0  0  0  0  0  0
   -0.8056   -1.2433    0.0000 C   0  0  0  0  0  0  0  0  0  0  0  0
   -1.0605   -0.4587    0.0000 C   0  0  0  0  0  0  0  0  0  0  0  0
   -0.3931    0.0263    0.0000 C   0  0  0  0  0  0  0  0  0  0  0  0
   -0.3931    0.8513    0.0000 C   0  0  0  0  0  0  0  0  0  0  0  0
   -1.1075    1.2638    0.0000 N   0  0  0  0  0  0  0  0  0  0  0  0
   -1.1075    2.0888    0.0000 C   0  0  0  0  0  0  0  0  0  0  0  0
   -1.8220    2.5013    0.0000 C   0  0  0  0  0  0  0  0  0  0  0  0
   -2.5365    2.0888    0.0000 C   0  0  0  0  0  0  0  0  0  0  0  0
   -3.2509    2.5013    0.0000 C   0  0  0  0  0  0  0  0  0  0  0  0
   -3.2509    3.3263    0.0000 C   0  0  0  0  0  0  0  0  0  0  0  0
   -2.5365    3.7388    0.0000 C   0  0  0  0  0  0  0  0  0  0  0  0
   -1.8220    3.3263    0.0000 C   0  0  0  0  0  0  0  0  0  0  0  0
    0.3214    1.2638    0.0000 O   0  0  0  0  0  0  0  0  0  0  0  0
    3.0698   -1.0529    0.0000 C   0  0  0  0  0  0  0  0  0  0  0  0
    3.8544   -0.7979    0.0000 C   0  0  0  0  0  0  0  0  0  0  0  0
    4.4675   -1.3499    0.0000 C   0  0  0  0  0  0  0  0  0  0  0  0
    4.2960   -2.1569    0.0000 C   0  0  0  0  0  0  0  0  0  0  0  0
    3.5114   -2.4119    0.0000 C   0  0  0  0  0  0  0  0  0  0  0  0
    2.8983   -1.8598    0.0000 C   0  0  0  0  0  0  0  0  0  0  0  0
   -3.9654    2.0888    0.0000 Cl  0  0  0  0  0  0  0  0  0  0  0  0
  1  3  1  0
  1 21  1  0
  3  2  1  1
  3  4  1  0
  4  5  2  0
  4  6  1  0
  6  7  1  0
  6 10  1  0
  7  8  1  0
  8  9  1  0
  9 10  1  0
 10 11  1  1
 11 12  1  0
 11 20  2  0
 12 13  1  0
 13 14  1  0
 14 15  2  0
 14 19  1  0
 15 16  1  0
 16 17  2  0
 16 27  1  0
 17 18  1  0
 18 19  2  0
 21 22  1  0
 21 26  1  0
 22 23  1  0
 23 24  1  0
 24 25  1  0
 25 26  1  0
M  END
>  <DRUGBANK_ID>  (1) 
DB07190

>  <COMMON_NAME>  (1) 
3-cyclohexyl-D-alanyl-N-(3-chlorobenzyl)-L-prolinamide

$$$$
