106
     RDKit          2D

 23 25  0  0  0  0  0  0  0  0999 V2000
    0.7292   -2.7239    0.0000 N   0  0  0  0  0  0  0  0  0  0  0  0
    0.2443   -2.0564    0.0000 C   0  0  0  0  0  0  0  0  0  0  0  0
    0.7292   -1.3890    0.0000 C   0  0  0  0  0  0  0  0  0  0  0  0
    2.2283   -1.2314    0.0000 C   0  0  0  0  0  0  0  0  0  0  0  0
    2.9428   -1.6439    0.0000 C   0  0  0  0  0  0  0  0  0  0  0  0
    2.9428   -2.4689    0.0000 C   0  0  0  0  0  0  0  0  0  0  0  0
    2.2283   -2.8814    0.0000 C   0  0  0  0  0  0  0  0  0  0  0  0
    1.5138   -2.4689    0.0000 C   0  0  0  0  0  0  0  0  0  0  0  0
    1.5138   -1.6439    0.0000 C   0  0  0  0  0  0  0  0  0  0  0  0
   -0.5807   -2.0564    0.0000 O   0  0  0  0  0  0  0  0  0  0  0  0
    0.4743   -0.6044    0.0000 N   0  0  0  0  0  0  0  0  0  0  0  0
    3.6572   -1.2314    0.0000 Br  0  0  0  0  0  0  0  0  0  0  0  0
   -0.3327   -0.4328    0.0000 N   0  0  0  0  0  0  0  0  0  0  0  0
   -0.5876    0.3518    0.0000 C   0  0  0  0  0  0  0  0  0  0  0  0
   -1.3946    0.5233    0.0000 C   0  0  0  0  0  0  0  0  0  0  0  0
   -1.6496    1.3079    0.0000 C   0  0  0  0  0  0  0  0  0  0  0  0
   -1.0975    1.9210    0.0000 C   0  0  0  0  0  0  0  0  0  0  0  0
   -0.2906    1.7495    0.0000 C   0  0  0  0  0  0  0  0  0  0  0  0
   -0.0356    0.9649    0.0000 C   0  0  0  0  0  0  0  0  0  0  0  0
   -1.3525    2.7057    0.0000 S   0  0  0  0  0  0  0  0  0  0  0  0
   -1.6074    3.4903    0.0000 O   0  0  0  0  0  0  0  0  0  0  0  0
   -0.5678    2.9606    0.0000 O   0  0  0  0  0  0  0  0  0  0  0  0
   -2.1371    2.4507    0.0000 N   0  0  0  0  0  0  0  0  0  0  0  0
  1  2  1  0
  1  8  2  0
  2  3  1  0
  2 10  2  0
  3  9  2  0
  3 11  1  0
  4  5  2  0
  4  9  1  0
  5  6  1  0
  5 12  1  0
  6  7  2  0
  7  8  1  0
  8  9  1  0
 11 13  2  0
 13 14  1  0
 14 15  2  0
 14 19  1  0
 15 16  1  0
 16 17  2  0
 17 18  1  0
 17 20  1  0
 18 19  2  0
 20 21  2  0
 20 22  2  0
 20 23  1  0
M  END
>  <DRUGBANK_ID>  (1) 
DB02973

>  <SECONDARY_ACCESSION_NUMBERS>  (1) 
EXPT00008

>  <COMMON_NAME>  (1) 
4-(5-Bromo-2-Oxo-2h-Indol-3-Ylazo)-Benzenesulfonamide

$$$$
