
     RDKit          2D

 31 34  0  0  0  0  0  0  0  0999 V2000
   -2.3102   -0.8102    0.0000 C   0  0  0  0  0  0  0  0  0  0  0  0
   -2.9337   -1.2440    0.0000 C   0  0  0  0  0  0  0  0  0  0  0  0
   -2.2737   -0.0919    0.0000 C   0  0  0  0  0  0  0  0  0  0  0  0
   -1.4241   -1.0837    0.0000 C   0  0  0  0  0  0  0  0  0  0  0  0
   -3.6302   -0.8868    0.0000 C   0  0  0  0  0  0  0  0  0  0  0  0
   -2.9337   -2.0792    0.0000 C   0  0  0  0  0  0  0  0  0  0  0  0
   -2.9556    0.2764    0.0000 C   0  0  0  0  0  0  0  0  0  0  0  0
   -1.4533    0.2764    0.0000 C   0  0  0  0  0  0  0  0  0  0  0  0
   -2.4853    0.9109    0.0000 C   0  0  0  0  0  0  0  0  0  0  0  0
   -0.9464   -0.3616    0.0000 C   0  0  0  0  0  0  0  0  0  0  0  0
   -4.3449   -1.2987    0.0000 C   0  0  0  0  0  0  0  0  0  0  0  0
   -3.6302   -0.1063    0.0000 C   0  0  0  0  0  0  0  0  0  0  0  0
   -3.6083   -2.4839    0.0000 C   0  0  0  0  0  0  0  0  0  0  0  0
   -1.4906    1.1947    0.0000 O   0  0  0  0  0  0  0  0  0  0  0  0
   -4.3304   -2.0938    0.0000 C   0  0  0  0  0  0  0  0  0  0  0  0
   -5.0451   -0.9160    0.0000 C   0  0  0  0  0  0  0  0  0  0  0  0
   -5.0195   -2.5022    0.0000 C   0  0  0  0  0  0  0  0  0  0  0  0
   -5.7379   -1.3280    0.0000 C   0  0  0  0  0  0  0  0  0  0  0  0
   -5.7379   -2.1156    0.0000 C   0  0  0  0  0  0  0  0  0  0  0  0
   -6.4381   -2.5276    0.0000 O   0  0  0  0  0  0  0  0  0  0  0  0
   -0.6999    1.6553    0.0000 C   0  0  0  0  0  0  0  0  0  0  0  0
    0.0931    1.2014    0.0000 C   0  0  0  0  0  0  0  0  0  0  0  0
    0.8863    1.6597    0.0000 C   0  0  0  0  0  0  0  0  0  0  0  0
    1.6794    1.2058    0.0000 C   0  0  0  0  0  0  0  0  0  0  0  0
    2.4725    1.6641    0.0000 C   0  0  0  0  0  0  0  0  0  0  0  0
    3.2656    1.2103    0.0000 C   0  0  0  0  0  0  0  0  0  0  0  0
    4.0587    1.6685    0.0000 C   0  0  0  0  0  0  0  0  0  0  0  0
    4.8518    1.2146    0.0000 C   0  0  0  0  0  0  0  0  0  0  0  0
    5.6449    1.6729    0.0000 C   0  0  0  0  0  0  0  0  0  0  0  0
    6.4381    1.2190    0.0000 C   0  0  0  0  0  0  0  0  0  0  0  0
   -0.7033    2.5276    0.0000 O   0  0  0  0  0  0  0  0  0  0  0  0
  1  2  1  0
  1  3  1  0
  1  4  1  1
  2  5  1  0
  2  6  1  6
  3  7  1  0
  3  8  1  0
  3  9  1  1
  4 10  1  0
  5 12  1  1
  5 11  1  0
  6 13  1  0
  7 12  1  0
  8 14  1  1
  8 10  1  0
 11 15  1  0
 11 16  1  6
 13 15  1  0
 14 21  1  0
 15 17  2  0
 16 18  1  0
 17 19  1  0
 18 19  1  0
 19 20  2  0
 21 22  1  0
 21 31  2  0
 22 23  1  0
 23 24  1  0
 24 25  1  0
 25 26  1  0
 26 27  1  0
 27 28  1  0
 28 29  1  0
 29 30  1  0
M  END
>  <DRUGBANK_ID>  (1) 
DB08804

>  <COMMON_NAME>  (1) 
Nandrolone decanoate

>  <CAS_NUMBER>  (1) 
360-70-3

>  <UNII>  (1) 
H45187T098

>  <SYNONYMS>  (1) 
19-nortestosterone decanoate; Nandrolone 17Î²-decanoate; Nandrolone decanoate

$$$$
