
     RDKit          2D

 18 19  0  0  0  0  0  0  0  0999 V2000
    5.8855    4.6993    0.0000 C   0  0  0  0  0  0  0  0  0  0  0  0
    6.2980    3.9849    0.0000 C   0  0  0  0  0  0  0  0  0  0  0  0
    5.4730    3.9849    0.0000 O   0  0  0  0  0  0  0  0  0  0  0  0
    7.0125    3.5724    0.0000 C   0  0  0  0  0  0  0  0  0  0  0  0
    7.7270    3.9849    0.0000 O   0  0  0  0  0  0  0  0  0  0  0  0
    8.4414    3.5724    0.0000 C   0  0  0  0  0  0  0  0  0  0  0  0
    9.1559    3.9849    0.0000 C   0  0  0  0  0  0  0  0  0  0  0  0
    9.8704    3.5724    0.0000 O   0  0  0  0  0  0  0  0  0  0  0  0
   10.5849    3.9849    0.0000 C   0  0  0  0  0  0  0  0  0  0  0  0
   11.2993    3.5724    0.0000 C   0  0  0  0  0  0  0  0  0  0  0  0
   12.0138    3.9849    0.0000 O   0  0  0  0  0  0  0  0  0  0  0  0
   12.7283    3.5724    0.0000 C   0  0  0  0  0  0  0  0  0  0  0  0
   13.4427    3.9849    0.0000 C   0  0  0  0  0  0  0  0  0  0  0  0
   14.1572    3.5724    0.0000 O   0  0  0  0  0  0  0  0  0  0  0  0
   14.8717    3.9849    0.0000 C   0  0  0  0  0  0  0  0  0  0  0  0
   15.5862    3.5724    0.0000 C   0  0  0  0  0  0  0  0  0  0  0  0
   16.4112    3.5724    0.0000 C   0  0  0  0  0  0  0  0  0  0  0  0
   15.9987    2.8579    0.0000 O   0  0  0  0  0  0  0  0  0  0  0  0
  1  2  1  0
  1  3  1  0
  2  3  1  0
  2  4  1  0
  4  5  1  0
  5  6  1  0
  6  7  1  0
  7  8  1  0
  8  9  1  0
  9 10  1  0
 10 11  1  0
 11 12  1  0
 12 13  1  0
 13 14  1  0
 14 15  1  0
 15 16  1  0
 16 17  1  0
 16 18  1  0
 17 18  1  0
M  END
>  <DRUGBANK_ID>  (1) 
DB13339

>  <COMMON_NAME>  (1) 
Etoglucid

>  <CAS_NUMBER>  (1) 
1954-28-5

>  <UNII>  (1) 
4F9KUA0T4D

>  <SYNONYMS>  (1) 
Etoglucid

$$$$
