
     RDKit          2D

 20 21  0  0  0  0  0  0  0  0999 V2000
    1.5627    2.0804    0.0000 P   0  0  0  0  0  0  0  0  0  0  0  0
    0.5695   -0.2659    0.0000 O   0  0  0  0  0  0  0  0  0  0  0  0
    2.6095   -0.8951    0.0000 O   0  0  0  0  0  0  0  0  0  0  0  0
    1.2271    1.3267    0.0000 O   0  0  0  0  0  0  0  0  0  0  0  0
    1.8982    2.8340    0.0000 O   0  0  0  0  0  0  0  0  0  0  0  0
    0.8090    2.4159    0.0000 O   0  0  0  0  0  0  0  0  0  0  0  0
   -2.3746   -2.7364    0.0000 O   0  0  0  0  0  0  0  0  0  0  0  0
    2.3163    1.7449    0.0000 O   0  0  0  0  0  0  0  0  0  0  0  0
   -0.9457   -2.7364    0.0000 N   0  0  0  0  0  0  0  0  0  0  0  0
    1.7890   -0.8088    0.0000 C   0  0  0  0  0  0  0  0  0  0  0  0
    1.3765   -0.0943    0.0000 C   0  0  0  0  0  0  0  0  0  0  0  0
    1.2369   -1.4219    0.0000 C   0  0  0  0  0  0  0  0  0  0  0  0
    0.4832   -1.0863    0.0000 C   0  0  0  0  0  0  0  0  0  0  0  0
    1.7120    0.6592    0.0000 C   0  0  0  0  0  0  0  0  0  0  0  0
   -0.2311   -1.4988    0.0000 C   0  0  0  0  0  0  0  0  0  0  0  0
   -0.9457   -1.0863    0.0000 C   0  0  0  0  0  0  0  0  0  0  0  0
   -0.2311   -2.3238    0.0000 C   0  0  0  0  0  0  0  0  0  0  0  0
   -1.6601   -1.4988    0.0000 C   0  0  0  0  0  0  0  0  0  0  0  0
   -1.6601   -2.3238    0.0000 C   0  0  0  0  0  0  0  0  0  0  0  0
   -2.3746   -1.0863    0.0000 C   0  0  0  0  0  0  0  0  0  0  0  0
  1  4  1  0
  1  5  1  0
  1  6  1  0
  1  8  2  0
  2 11  1  0
  2 13  1  0
  4 14  1  0
  7 19  2  0
  9 17  1  0
  9 19  1  0
 10  3  1  1
 10 11  1  0
 10 12  1  0
 11 14  1  6
 12 13  1  0
 13 15  1  6
 15 16  1  0
 15 17  2  0
 16 18  2  0
 18 19  1  0
 18 20  1  0
M  END
>  <DRUGBANK_ID>  (1) 
DB04060

>  <SECONDARY_ACCESSION_NUMBERS>  (1) 
EXPT02250

>  <COMMON_NAME>  (1) 
(5-methyl-6-oxo-1,6-dihydro-pyridin-3-yl)-1,2-dideoxy-ribofuranose-5-monophosphate

$$$$
