
     RDKit          2D

  8  6  0  0  0  0  0  0  0  0999 V2000
   -0.7251   -0.1949    0.0000 N   0  0  0  0  0  0  0  0  0  0  0  0
    1.4395   -0.4941    0.0000 O   0  0  0  0  0  0  0  0  0  0  0  0
    0.0103   -0.5689    0.0000 C   0  0  0  0  0  0  0  0  0  0  0  0
    0.7083   -0.1201    0.0000 C   0  0  0  0  0  0  0  0  0  0  0  0
    0.6129    0.6448    0.0000 Cl  0  0  0  0  0  0  0  0  0  0  0  0
   -1.4166   -0.6448    0.0000 C   0  0  0  0  0  0  0  0  0  0  0  0
   -0.7689    0.6288    0.0000 C   0  0  0  0  0  0  0  0  0  0  0  0
   -1.4395    0.2175    0.0000 C   0  0  0  0  0  0  0  0  0  0  0  0
  1  6  1  0
  1  7  1  0
  1  8  1  0
  2  4  1  0
  3  1  1  0
  4  3  1  0
M  CHG  2   1   1   5  -1
M  ISO  1   8  11
M  END
>  <DRUGBANK_ID>  (1) 
DB09277

>  <COMMON_NAME>  (1) 
Choline C 11

>  <CAS_NUMBER>  (1) 
87591-54-6

>  <UNII>  (1) 
381E0BTR5Q

>  <SYNONYMS>  (1) 
11C-choline; 11C-choline chloride

$$$$
