FLX
     RDKit          2D

 31 33  0  0  0  0  0  0  0  0999 V2000
   -0.6134    2.1483    0.0000 N   0  0  0  0  0  0  0  0  0  0  0  0
   -1.3278    2.5608    0.0000 C   0  0  0  0  0  0  0  0  0  0  0  0
   -2.0423    2.1483    0.0000 O   0  0  0  0  0  0  0  0  0  0  0  0
   -1.3278    3.3858    0.0000 C   0  0  0  0  0  0  0  0  0  0  0  0
   -1.9953    3.8707    0.0000 O   0  0  0  0  0  0  0  0  0  0  0  0
   -0.6604    3.8707    0.0000 C   0  0  0  0  0  0  0  0  0  0  0  0
   -0.9153    4.6553    0.0000 C   0  0  0  0  0  0  0  0  0  0  0  0
   -1.7403    4.6553    0.0000 C   0  0  0  0  0  0  0  0  0  0  0  0
   -0.6134    1.3233    0.0000 C   0  0  0  0  0  0  0  0  0  0  0  0
   -1.3278    0.9108    0.0000 C   0  0  0  0  0  0  0  0  0  0  0  0
   -1.3278    0.0858    0.0000 C   0  0  0  0  0  0  0  0  0  0  0  0
   -2.0423   -0.3267    0.0000 C   0  0  0  0  0  0  0  0  0  0  0  0
   -0.6134   -0.3267    0.0000 C   0  0  0  0  0  0  0  0  0  0  0  0
    0.1011    0.9108    0.0000 C   0  0  0  0  0  0  0  0  0  0  0  0
    0.8156    1.3233    0.0000 O   0  0  0  0  0  0  0  0  0  0  0  0
    0.1011    0.0858    0.0000 N   0  0  0  0  0  0  0  0  0  0  0  0
    0.8156   -0.3267    0.0000 C   0  0  0  0  0  0  0  0  0  0  0  0
    0.8156   -1.1517    0.0000 C   0  0  0  0  0  0  0  0  0  0  0  0
    1.5300   -1.5642    0.0000 C   0  0  0  0  0  0  0  0  0  0  0  0
    1.6163   -2.3847    0.0000 C   0  0  0  0  0  0  0  0  0  0  0  0
    2.4233   -2.5562    0.0000 C   0  0  0  0  0  0  0  0  0  0  0  0
    1.0643   -2.9978    0.0000 C   0  0  0  0  0  0  0  0  0  0  0  0
    2.2837   -1.2287    0.0000 C   0  0  0  0  0  0  0  0  0  0  0  0
    2.8358   -1.8418    0.0000 N   0  0  0  0  0  0  0  0  0  0  0  0
    2.6782   -3.3409    0.0000 C   0  0  0  0  0  0  0  0  0  0  0  0
    1.3192   -3.7824    0.0000 C   0  0  0  0  0  0  0  0  0  0  0  0
    2.1262   -3.9540    0.0000 C   0  0  0  0  0  0  0  0  0  0  0  0
    1.5300    0.0858    0.0000 P   0  0  0  0  0  0  0  0  0  0  0  0
    1.9425   -0.6287    0.0000 O   0  0  0  0  0  0  0  0  0  0  0  0
    1.1175    0.8002    0.0000 O   0  0  0  0  0  0  0  0  0  0  0  0
    2.2445    0.4983    0.0000 O   0  0  0  0  0  0  0  0  0  0  0  0
  1  2  1  0
  2  3  2  0
  2  4  1  0
  4  5  1  0
  4  6  2  0
  5  8  1  0
  6  7  1  0
  7  8  2  0
  9  1  1  0
  9 10  1  6
  9 14  1  0
 10 11  1  0
 11 12  1  0
 11 13  1  0
 14 15  2  0
 14 16  1  0
 17 16  1  0
 17 18  1  6
 17 28  1  0
 18 19  1  0
 19 20  1  0
 19 23  2  0
 20 21  1  0
 20 22  2  0
 21 24  1  0
 21 25  2  0
 22 26  1  0
 23 24  1  0
 25 27  1  0
 26 27  2  0
 28 29  2  0
 28 30  1  0
 28 31  1  0
M  END
>  <DRUGBANK_ID>  (1) 
DB02046

>  <SECONDARY_ACCESSION_NUMBERS>  (1) 
EXPT01449

>  <COMMON_NAME>  (1) 
N-[(Furan-2-Yl)Carbonyl]-(S)-Leucyl-(R)-[1-Amino-2(1h-Indol-3-Yl)Ethyl]-Phosphonic Acid

$$$$
