
     RDKit          2D

 27 26  0  0  0  0  0  0  0  0999 V2000
    1.7861    0.2062    0.0000 N   0  0  0  0  0  0  0  0  0  0  0  0
    1.0716   -0.2062    0.0000 C   0  0  0  0  0  0  0  0  0  0  0  0
    0.3571    0.2062    0.0000 C   0  0  0  0  0  0  0  0  0  0  0  0
   -0.3573   -0.2062    0.0000 N   0  0  0  0  0  0  0  0  0  0  0  0
   -1.0717    0.2062    0.0000 C   0  0  0  0  0  0  0  0  0  0  0  0
   -1.7862   -0.2062    0.0000 C   0  0  0  0  0  0  0  0  0  0  0  0
   -2.5007    0.2062    0.0000 N   0  0  0  0  0  0  0  0  0  0  0  0
   -2.5007    1.0312    0.0000 C   0  0  0  0  0  0  0  0  0  0  0  0
   -3.2151    1.4437    0.0000 C   0  0  0  0  0  0  0  0  0  0  0  0
   -3.9296    1.0312    0.0000 O   0  0  0  0  0  0  0  0  0  0  0  0
   -3.2151    2.2687    0.0000 O   0  0  0  0  0  0  0  0  0  0  0  0
   -0.3573   -1.0312    0.0000 C   0  0  0  0  0  0  0  0  0  0  0  0
    0.3571   -1.4437    0.0000 C   0  0  0  0  0  0  0  0  0  0  0  0
    1.0716   -1.0312    0.0000 O   0  0  0  0  0  0  0  0  0  0  0  0
    0.3571   -2.2687    0.0000 O   0  0  0  0  0  0  0  0  0  0  0  0
    2.5005   -0.2062    0.0000 C   0  0  0  0  0  0  0  0  0  0  0  0
    3.2150    0.2062    0.0000 C   0  0  0  0  0  0  0  0  0  0  0  0
    3.2150    1.0312    0.0000 O   0  0  0  0  0  0  0  0  0  0  0  0
    3.9296   -0.2062    0.0000 O   0  0  0  0  0  0  0  0  0  0  0  0
    1.7861    1.0312    0.0000 C   0  0  0  0  0  0  0  0  0  0  0  0
    1.0716    2.2687    0.0000 O   0  0  0  0  0  0  0  0  0  0  0  0
    1.0716    1.4437    0.0000 C   0  0  0  0  0  0  0  0  0  0  0  0
    0.3571    1.0312    0.0000 O   0  0  0  0  0  0  0  0  0  0  0  0
   -3.2151   -0.2062    0.0000 C   0  0  0  0  0  0  0  0  0  0  0  0
   -2.5007   -1.4437    0.0000 O   0  0  0  0  0  0  0  0  0  0  0  0
   -3.2151   -1.0312    0.0000 C   0  0  0  0  0  0  0  0  0  0  0  0
   -3.9296   -1.4437    0.0000 O   0  0  0  0  0  0  0  0  0  0  0  0
  1  2  1  0
  1 16  1  0
  2  3  1  0
  3  4  1  0
  4  5  1  0
  4 12  1  0
  5  6  1  0
  6  7  1  0
  7  8  1  0
  7 24  1  0
  8  9  1  0
  9 10  1  0
  9 11  2  0
 12 13  1  0
 13 14  1  0
 13 15  2  0
 16 17  1  0
 17 18  2  0
 17 19  1  0
 20  1  1  0
 20 22  1  0
 22 21  2  0
 22 23  1  0
 24 26  1  0
 26 25  1  0
 26 27  2  0
M  END
>  <DRUGBANK_ID>  (1) 
DB14007

>  <SECONDARY_ACCESSION_NUMBERS>  (1) 
DB11322; DBSALT001589

>  <COMMON_NAME>  (1) 
Pentetic acid

>  <CAS_NUMBER>  (1) 
67-43-6

>  <UNII>  (1) 
7A314HQM0I

>  <SYNONYMS>  (1) 
Diethylene triamine pentaacetic acid; Diethylenetriamine pentaacetic acid; Diethylenetriaminepentaacetate; Diethylenetriaminepentaacetic acid; DTP-A; DTPA; Pentetate; Pentetic acid

$$$$
