
     RDKit          2D

 20 19  0  0  0  0  0  0  0  0999 V2000
   -5.7106   -0.6200    0.0000 C   0  0  0  0  0  0  0  0  0  0  0  0
   -4.9966   -0.2066    0.0000 C   0  0  0  0  0  0  0  0  0  0  0  0
   -4.2826   -0.6200    0.0000 C   0  0  0  0  0  0  0  0  0  0  0  0
   -3.5686   -0.2066    0.0000 C   0  0  0  0  0  0  0  0  0  0  0  0
   -2.8547   -0.6200    0.0000 C   0  0  0  0  0  0  0  0  0  0  0  0
   -2.1407   -0.2066    0.0000 C   0  0  0  0  0  0  0  0  0  0  0  0
   -1.4267   -0.6200    0.0000 C   0  0  0  0  0  0  0  0  0  0  0  0
   -0.7127   -0.2066    0.0000 C   0  0  0  0  0  0  0  0  0  0  0  0
    0.0012   -0.6200    0.0000 C   0  0  0  0  0  0  0  0  0  0  0  0
    0.7151   -0.2066    0.0000 C   0  0  0  0  0  0  0  0  0  0  0  0
    1.4291   -0.6200    0.0000 C   0  0  0  0  0  0  0  0  0  0  0  0
    2.1431   -0.2066    0.0000 C   0  0  0  0  0  0  0  0  0  0  0  0
    2.8571   -0.6200    0.0000 C   0  0  0  0  0  0  0  0  0  0  0  0
    3.5710   -0.2066    0.0000 O   0  0  0  0  0  0  0  0  0  0  0  0
    4.2850   -0.6200    0.0000 C   0  0  0  0  0  0  0  0  0  0  0  0
    4.9990   -0.2066    0.0000 C   0  0  0  0  0  0  0  0  0  0  0  0
    5.7130   -0.6200    0.0000 C   0  0  0  0  0  0  0  0  0  0  0  0
    6.4269   -0.2066    0.0000 O   0  0  0  0  0  0  0  0  0  0  0  0
    4.9990    0.6200    0.0000 O   0  0  0  0  0  0  0  0  0  0  0  0
   -6.4269   -0.2074    0.0000 C   0  0  0  0  0  0  0  0  0  0  0  0
  1  2  1  0
  1 20  1  0
  2  3  1  0
  3  4  1  0
  4  5  1  0
  5  6  1  0
  6  7  1  0
  7  8  1  0
  8  9  1  0
  9 10  1  0
 10 11  1  0
 11 12  1  0
 12 13  1  0
 13 14  1  0
 14 15  1  0
 15 16  1  0
 16 17  1  0
 16 19  1  0
 17 18  1  0
M  END
>  <DRUGBANK_ID>  (1) 
DB15662

>  <COMMON_NAME>  (1) 
Myristyl glyceryl ether

>  <CAS_NUMBER>  (1) 
1561-06-4

>  <UNII>  (1) 
S4JE3R143V

>  <SYNONYMS>  (1) 
1-o-tetradecylglycerol; 3-Tetradecyloxy-1,2-propanediol; Glycerin 1-tetradecyl ether; Myristyl glyceryl ether

$$$$
