
     RDKit          2D

  9  9  0  0  0  0  0  0  0  0999 V2000
   -0.8843    0.8843    0.0000 C   0  0  0  0  0  0  0  0  0  0  0  0
   -0.0997    0.6294    0.0000 C   0  0  0  0  0  0  0  0  0  0  0  0
    0.5678    1.1143    0.0000 C   0  0  0  0  0  0  0  0  0  0  0  0
    0.5678    1.9393    0.0000 C   0  0  0  0  0  0  0  0  0  0  0  0
    1.2822    2.3518    0.0000 C   0  0  0  0  0  0  0  0  0  0  0  0
    1.2822    3.1768    0.0000 O   0  0  0  0  0  0  0  0  0  0  0  0
    1.2352    0.6294    0.0000 S   0  0  0  0  0  0  0  0  0  0  0  0
    0.9803   -0.1553    0.0000 C   0  0  0  0  0  0  0  0  0  0  0  0
    0.1553   -0.1553    0.0000 N   0  0  0  0  0  0  0  0  0  0  0  0
  1  2  1  0
  2  3  2  0
  2  9  1  0
  3  4  1  0
  3  7  1  0
  4  5  1  0
  5  6  1  0
  7  8  1  0
  8  9  2  0
M  END
>  <DRUGBANK_ID>  (1) 
DB02969

>  <SECONDARY_ACCESSION_NUMBERS>  (1) 
EXPT03151

>  <COMMON_NAME>  (1) 
5-(2-hydroxyethyl)-4-methylthiazole

>  <CAS_NUMBER>  (1) 
137-00-8

>  <UNII>  (1) 
3XYV4I47I8

>  <SYNONYMS>  (1) 
4-Methyl-5-(2-hydroxyethyl)thiazole; 4-Methyl-5-hydroxethylthiazole; 4-Methyl-5-thiazoleethanol; 4-Methyl-5-thiazolethanol; Hemineurine; Sulfurol

$$$$
