
     RDKit          2D

 40 44  0  0  0  0  0  0  0  0999 V2000
   -5.1066    2.3698    0.0000 C   0  0  0  0  0  0  0  0  0  0  0  0
   -4.3921    1.9573    0.0000 C   0  0  0  0  0  0  0  0  0  0  0  0
   -4.3921    1.1323    0.0000 C   0  0  0  0  0  0  0  0  0  0  0  0
   -5.1066    0.7198    0.0000 C   0  0  0  0  0  0  0  0  0  0  0  0
   -5.8210    1.1323    0.0000 C   0  0  0  0  0  0  0  0  0  0  0  0
   -5.8210    1.9573    0.0000 C   0  0  0  0  0  0  0  0  0  0  0  0
   -0.7091    1.1323    0.0000 N   0  0  0  0  0  0  0  0  0  0  0  0
   -0.7091    1.9573    0.0000 C   0  0  0  0  0  0  0  0  0  0  0  0
    0.0754    0.8774    0.0000 C   0  0  0  0  0  0  0  0  0  0  0  0
   -1.5342    1.1323    0.0000 C   0  0  0  0  0  0  0  0  0  0  0  0
   -1.5342    1.9573    0.0000 C   0  0  0  0  0  0  0  0  0  0  0  0
    0.0754    2.2122    0.0000 S   0  0  0  0  0  0  0  0  0  0  0  0
    0.5603    1.5448    0.0000 C   0  0  0  0  0  0  0  0  0  0  0  0
    0.3302    0.0927    0.0000 C   0  0  0  0  0  0  0  0  0  0  0  0
    1.2791    1.1398    0.0000 C   0  0  0  0  0  0  0  0  0  0  0  0
    1.2791    1.9498    0.0000 C   0  0  0  0  0  0  0  0  0  0  0  0
   -0.2216   -0.5203    0.0000 O   0  0  0  0  0  0  0  0  0  0  0  0
    1.1373   -0.0787    0.0000 O   0  0  0  0  0  0  0  0  0  0  0  0
   -2.2487    2.3698    0.0000 N   0  0  0  0  0  0  0  0  0  0  0  0
   -2.9631    1.9573    0.0000 C   0  0  0  0  0  0  0  0  0  0  0  0
   -3.6777    2.3698    0.0000 C   0  0  0  0  0  0  0  0  0  0  0  0
   -2.9631    1.1323    0.0000 O   0  0  0  0  0  0  0  0  0  0  0  0
   -3.6777    3.1948    0.0000 N   0  0  0  0  0  0  0  0  0  0  0  0
   -2.1176    0.5489    0.0000 O   0  0  0  0  0  0  0  0  0  0  0  0
    4.4128   -1.2898    0.0000 N   0  0  0  0  0  0  0  0  0  0  0  0
    4.4128   -2.1148    0.0000 C   0  0  0  0  0  0  0  0  0  0  0  0
    3.6280   -1.0349    0.0000 C   0  0  0  0  0  0  0  0  0  0  0  0
    5.2378   -1.2898    0.0000 C   0  0  0  0  0  0  0  0  0  0  0  0
    5.2378   -2.1148    0.0000 C   0  0  0  0  0  0  0  0  0  0  0  0
    3.6280   -2.3697    0.0000 S   0  0  0  0  0  0  0  0  0  0  0  0
    3.1432   -1.7023    0.0000 C   0  0  0  0  0  0  0  0  0  0  0  0
    3.3731   -0.2502    0.0000 C   0  0  0  0  0  0  0  0  0  0  0  0
    2.4245   -1.2973    0.0000 C   0  0  0  0  0  0  0  0  0  0  0  0
    2.4245   -2.1073    0.0000 C   0  0  0  0  0  0  0  0  0  0  0  0
    3.9252    0.3628    0.0000 O   0  0  0  0  0  0  0  0  0  0  0  0
    2.5661   -0.0787    0.0000 O   0  0  0  0  0  0  0  0  0  0  0  0
    5.8210   -0.7064    0.0000 O   0  0  0  0  0  0  0  0  0  0  0  0
    3.6280   -3.1948    0.0000 O   0  0  0  0  0  0  0  0  0  0  0  0
    2.9137   -2.7822    0.0000 O   0  0  0  0  0  0  0  0  0  0  0  0
    1.8518   -0.4912    0.0000 C   0  0  0  0  0  0  0  0  0  0  0  0
  1  2  2  0
  2 21  1  0
  3  2  1  0
  4  3  2  0
  5  6  2  0
  5  4  1  0
  6  1  1  0
  8  7  1  0
  8 11  1  0
  8 12  1  1
  9  7  1  0
  9 14  1  6
 10  7  1  0
 10 24  2  0
 11 10  1  0
 11 19  1  1
 13  9  1  0
 13 12  1  0
 15 13  1  0
 16 13  1  0
 17 14  2  0
 18 14  1  0
 18 40  1  0
 20 19  1  0
 21 20  1  0
 21 23  1  1
 22 20  2  0
 26 25  1  0
 26 29  1  1
 26 30  1  0
 27 25  1  0
 27 32  1  6
 28 25  1  0
 28 37  2  0
 29 28  1  0
 30 38  2  0
 30 39  2  0
 31 27  1  0
 31 30  1  0
 33 31  1  0
 34 31  1  0
 35 32  2  0
 36 32  1  0
 36 40  1  0
M  END
>  <DRUGBANK_ID>  (1) 
DB12127

>  <COMMON_NAME>  (1) 
Sultamicillin

>  <CAS_NUMBER>  (1) 
76497-13-7

>  <UNII>  (1) 
65DT0ML581

>  <SYNONYMS>  (1) 
Sultamicilina; Sultamicillin; Sultamicillinum

$$$$
