YRG
     RDKit          2D

 19 20  0  0  0  0  0  0  0  0999 V2000
   -1.8384    0.4663    0.0000 C   0  0  0  0  0  0  0  0  0  0  0  0
   -2.5529    0.8788    0.0000 C   0  0  0  0  0  0  0  0  0  0  0  0
   -3.2673    0.4663    0.0000 C   0  0  0  0  0  0  0  0  0  0  0  0
   -3.9818    0.8788    0.0000 Cl  0  0  0  0  0  0  0  0  0  0  0  0
   -3.2673   -0.3587    0.0000 C   0  0  0  0  0  0  0  0  0  0  0  0
   -2.5529   -0.7712    0.0000 C   0  0  0  0  0  0  0  0  0  0  0  0
   -1.8384   -0.3587    0.0000 C   0  0  0  0  0  0  0  0  0  0  0  0
   -1.1239   -0.7712    0.0000 O   0  0  0  0  0  0  0  0  0  0  0  0
   -0.4095   -0.3587    0.0000 C   0  0  0  0  0  0  0  0  0  0  0  0
   -0.4095    0.4663    0.0000 C   0  0  0  0  0  0  0  0  0  0  0  0
   -1.1239    0.8788    0.0000 O   0  0  0  0  0  0  0  0  0  0  0  0
    0.3050    0.8788    0.0000 O   0  0  0  0  0  0  0  0  0  0  0  0
    0.3050   -0.7712    0.0000 C   0  0  0  0  0  0  0  0  0  0  0  0
    1.0195   -0.3587    0.0000 C   0  0  0  0  0  0  0  0  0  0  0  0
    1.7340   -0.7712    0.0000 C   0  0  0  0  0  0  0  0  0  0  0  0
    2.4484   -0.3587    0.0000 C   0  0  0  0  0  0  0  0  0  0  0  0
    2.4484    0.4663    0.0000 C   0  0  0  0  0  0  0  0  0  0  0  0
    1.7340    0.8788    0.0000 C   0  0  0  0  0  0  0  0  0  0  0  0
    1.0195    0.4663    0.0000 C   0  0  0  0  0  0  0  0  0  0  0  0
  2  1  2  0
  3  2  1  0
  4  3  1  0
  5  3  2  0
  5  6  1  0
  6  7  2  0
  7  1  1  0
  8  7  1  0
  9  8  1  0
  9 10  1  0
 10 12  2  0
 10 11  1  0
  9 13  1  6
 14 13  1  0
 15 14  2  0
 16 15  1  0
 17 16  2  0
 17 18  1  0
 18 19  2  0
 19 14  1  0
M  END
>  <DRUGBANK_ID>  (1) 
DB08760

>  <COMMON_NAME>  (1) 
(2S)-2-(4-chlorophenoxy)-3-phenylpropanoic acid

$$$$
