MDX
     RDKit          2D

 14 13  0  0  0  0  0  0  0  0999 V2000
   -4.4121    0.2639    0.0000 O   0  0  0  0  0  0  0  0  0  0  0  0
   -3.6976   -0.1486    0.0000 C   0  0  0  0  0  0  0  0  0  0  0  0
   -3.6976   -0.9737    0.0000 O   0  0  0  0  0  0  0  0  0  0  0  0
   -2.9831    0.2639    0.0000 C   0  0  0  0  0  0  0  0  0  0  0  0
   -2.2686   -0.1486    0.0000 C   0  0  0  0  0  0  0  0  0  0  0  0
   -1.5540    0.2639    0.0000 C   0  0  0  0  0  0  0  0  0  0  0  0
   -0.8395   -0.1486    0.0000 C   0  0  0  0  0  0  0  0  0  0  0  0
   -0.1250    0.2639    0.0000 C   0  0  0  0  0  0  0  0  0  0  0  0
    0.5895   -0.1486    0.0000 C   0  0  0  0  0  0  0  0  0  0  0  0
    1.3041    0.2639    0.0000 C   0  0  0  0  0  0  0  0  0  0  0  0
    2.0186   -0.1486    0.0000 C   0  0  0  0  0  0  0  0  0  0  0  0
    2.7331    0.2639    0.0000 C   0  0  0  0  0  0  0  0  0  0  0  0
    3.4477   -0.1486    0.0000 C   0  0  0  0  0  0  0  0  0  0  0  0
    4.1622    0.2639    0.0000 S   0  0  0  0  0  0  0  0  0  0  0  0
  1  2  2  0
  2  4  1  0
  2  3  1  0
  4  5  1  0
  5  6  1  0
  6  7  1  0
  7  8  1  0
  8  9  1  0
  9 10  1  0
 10 11  1  0
 11 12  1  0
 12 13  1  0
 13 14  1  0
M  END
>  <DRUGBANK_ID>  (1) 
DB08171

>  <COMMON_NAME>  (1) 
11-MERCAPTOUNDECANOIC ACID

$$$$
