
     RDKit          2D

 21 23  0  0  0  0  0  0  0  0999 V2000
   -3.5724    7.0125    0.0000 C   0  0  0  0  0  0  0  0  0  0  0  0
   -2.8579    0.8250    0.0000 C   0  0  0  0  0  0  0  0  0  0  0  0
   -5.7158    2.4750    0.0000 C   0  0  0  0  0  0  0  0  0  0  0  0
   -2.1434    1.2375    0.0000 C   0  0  0  0  0  0  0  0  0  0  0  0
   -3.5724    1.2375    0.0000 C   0  0  0  0  0  0  0  0  0  0  0  0
   -5.0013    2.0625    0.0000 C   0  0  0  0  0  0  0  0  0  0  0  0
   -5.7158    3.3000    0.0000 C   0  0  0  0  0  0  0  0  0  0  0  0
   -2.1434    2.0625    0.0000 C   0  0  0  0  0  0  0  0  0  0  0  0
   -3.5724    2.0625    0.0000 C   0  0  0  0  0  0  0  0  0  0  0  0
   -4.2868    2.4750    0.0000 C   0  0  0  0  0  0  0  0  0  0  0  0
   -5.0013    3.7125    0.0000 C   0  0  0  0  0  0  0  0  0  0  0  0
   -2.8579    4.9500    0.0000 C   0  0  0  0  0  0  0  0  0  0  0  0
   -4.2868    4.9500    0.0000 C   0  0  0  0  0  0  0  0  0  0  0  0
   -2.8579    5.7750    0.0000 C   0  0  0  0  0  0  0  0  0  0  0  0
   -4.2868    5.7750    0.0000 C   0  0  0  0  0  0  0  0  0  0  0  0
   -2.8579    3.3000    0.0000 C   0  0  0  0  0  0  0  0  0  0  0  0
   -2.8579    2.4750    0.0000 C   0  0  0  0  0  0  0  0  0  0  0  0
   -4.2868    3.3000    0.0000 C   0  0  0  0  0  0  0  0  0  0  0  0
   -3.5724    4.5375    0.0000 C   0  0  0  0  0  0  0  0  0  0  0  0
   -3.5724    6.1875    0.0000 N   0  0  0  0  0  0  0  0  0  0  0  0
   -3.5724    3.7125    0.0000 N   0  0  0  0  0  0  0  0  0  0  0  0
  4  2  2  0
  5  2  1  0
  6  3  2  0
  7  3  1  0
  8  4  1  0
  9  5  2  0
 10  6  1  0
 11  7  2  0
 14 12  1  0
 15 13  1  0
 17  8  2  0
 17  9  1  0
 17 16  1  0
 18 10  2  0
 18 11  1  0
 19 12  1  0
 19 13  1  0
 20  1  1  0
 20 14  1  0
 20 15  1  0
 21 16  1  0
 21 18  1  0
 21 19  1  0
M  END
>  <DRUGBANK_ID>  (1) 
DB13489

>  <COMMON_NAME>  (1) 
Bamipine

>  <CAS_NUMBER>  (1) 
4945-47-5

>  <UNII>  (1) 
Y6BHZ28O92

>  <SYNONYMS>  (1) 
Bamipine

$$$$
