
     RDKit          2D

 28 30  0  0  0  0  0  0  0  0999 V2000
    1.8800    4.0491    0.0000 O   0  0  0  0  0  0  0  0  0  0  0  0
    1.8800    3.2241    0.0000 C   0  0  0  0  0  0  0  0  0  0  0  0
    1.1655    2.8116    0.0000 C   0  0  0  0  0  0  0  0  0  0  0  0
    0.3809    3.0665    0.0000 N   0  0  0  0  0  0  0  0  0  0  0  0
    1.1655    1.9866    0.0000 C   0  0  0  0  0  0  0  0  0  0  0  0
    1.8800    1.5741    0.0000 N   0  0  0  0  0  0  0  0  0  0  0  0
    2.5944    1.9866    0.0000 C   0  0  0  0  0  0  0  0  0  0  0  0
    2.5944    2.8116    0.0000 N   0  0  0  0  0  0  0  0  0  0  0  0
    3.3089    1.5741    0.0000 N   0  0  0  0  0  0  0  0  0  0  0  0
    0.3809    1.7317    0.0000 N   0  0  0  0  0  0  0  0  0  0  0  0
   -0.1040    2.3990    0.0000 C   0  0  0  0  0  0  0  0  0  0  0  0
    0.1259    0.9470    0.0000 C   0  0  0  0  0  0  0  0  0  0  0  0
    0.6108    0.2796    0.0000 C   0  0  0  0  0  0  0  0  0  0  0  0
    1.4358    0.2796    0.0000 O   0  0  0  0  0  0  0  0  0  0  0  0
    0.1259   -0.3878    0.0000 C   0  0  0  0  0  0  0  0  0  0  0  0
    0.3809   -1.1724    0.0000 O   0  0  0  0  0  0  0  0  0  0  0  0
   -0.6586    0.6921    0.0000 O   0  0  0  0  0  0  0  0  0  0  0  0
   -0.6586   -0.1328    0.0000 C   0  0  0  0  0  0  0  0  0  0  0  0
   -1.3260   -0.6177    0.0000 C   0  0  0  0  0  0  0  0  0  0  0  0
   -1.2398   -1.4382    0.0000 O   0  0  0  0  0  0  0  0  0  0  0  0
   -1.9072   -1.9231    0.0000 P   0  0  0  0  0  0  0  0  0  0  0  0
   -2.3922   -1.2557    0.0000 O   0  0  0  0  0  0  0  0  0  0  0  0
   -1.4223   -2.5907    0.0000 O   0  0  0  0  0  0  0  0  0  0  0  0
   -2.5747   -2.4082    0.0000 C   0  0  0  0  0  0  0  0  0  0  0  0
   -2.4884   -3.2286    0.0000 P   0  0  0  0  0  0  0  0  0  0  0  0
   -2.4022   -4.0491    0.0000 O   0  0  0  0  0  0  0  0  0  0  0  0
   -3.3089   -3.3149    0.0000 O   0  0  0  0  0  0  0  0  0  0  0  0
   -1.6680   -3.1424    0.0000 O   0  0  0  0  0  0  0  0  0  0  0  0
  2  1  2  0
  2  8  1  0
  3  2  1  0
  3  4  1  0
  5  3  2  0
  5  6  1  0
  5 10  1  0
  7  6  2  0
  7  8  1  0
  7  9  1  0
 11  4  2  0
 11 10  1  0
 12 10  1  1
 12 13  1  0
 12 17  1  0
 13 14  1  6
 13 15  1  0
 15 16  1  6
 15 18  1  0
 18 17  1  0
 18 19  1  1
 19 20  1  0
 21 20  1  0
 21 23  1  0
 22 21  2  0
 24 21  1  0
 24 25  1  0
 26 25  2  0
 27 25  1  0
 28 25  1  0
M  END
>  <DRUGBANK_ID>  (1) 
DB03486

>  <SECONDARY_ACCESSION_NUMBERS>  (1) 
EXPT01632

>  <COMMON_NAME>  (1) 
Phosphomethylphosphonic acid guanosyl ester

$$$$
