
     RDKit          2D

 18 20  0  0  0  0  0  0  0  0999 V2000
   -0.0085    0.4213    0.0000 C   0  0  0  0  0  0  0  0  0  0  0  0
   -0.7180    0.8298    0.0000 C   0  0  0  0  0  0  0  0  0  0  0  0
   -0.7180    1.6553    0.0000 C   0  0  0  0  0  0  0  0  0  0  0  0
    0.7094    0.8298    0.0000 C   0  0  0  0  0  0  0  0  0  0  0  0
   -0.0085    2.0638    0.0000 C   0  0  0  0  0  0  0  0  0  0  0  0
   -0.0085   -0.4128    0.0000 C   0  0  0  0  0  0  0  0  0  0  0  0
    0.7094    1.6424    0.0000 C   0  0  0  0  0  0  0  0  0  0  0  0
    1.4489    2.0381    0.0000 N   0  0  0  0  0  0  0  0  0  0  0  0
   -1.4318    0.4213    0.0000 C   0  0  0  0  0  0  0  0  0  0  0  0
   -1.4318    2.0638    0.0000 C   0  0  0  0  0  0  0  0  0  0  0  0
   -0.7266   -0.8298    0.0000 C   0  0  0  0  0  0  0  0  0  0  0  0
    0.6922   -0.8255    0.0000 C   0  0  0  0  0  0  0  0  0  0  0  0
    2.1498    1.6037    0.0000 C   0  0  0  0  0  0  0  0  0  0  0  0
   -2.1498    0.8298    0.0000 C   0  0  0  0  0  0  0  0  0  0  0  0
   -2.1498    1.6424    0.0000 C   0  0  0  0  0  0  0  0  0  0  0  0
   -0.7266   -1.6510    0.0000 C   0  0  0  0  0  0  0  0  0  0  0  0
    0.6922   -1.6510    0.0000 C   0  0  0  0  0  0  0  0  0  0  0  0
   -0.0085   -2.0638    0.0000 C   0  0  0  0  0  0  0  0  0  0  0  0
  1  2  1  0
  1  4  1  0
  1  6  1  0
  2  3  2  0
  2  9  1  0
  3 10  1  0
  3  5  1  0
  4  7  1  0
  5  7  1  0
  6 11  2  0
  6 12  1  0
  7  8  1  0
  8 13  1  0
  9 14  2  0
 10 15  2  0
 11 16  1  0
 12 17  2  0
 14 15  1  0
 16 18  2  0
 17 18  1  0
M  END
>  <DRUGBANK_ID>  (1) 
DB09193

>  <COMMON_NAME>  (1) 
CP-39,332

>  <CAS_NUMBER>  (1) 
61764-60-1

>  <UNII>  (1) 
R0YEK8P3H4

$$$$
