
     RDKit          2D

 14 14  0  0  1  0  0  0  0  0999 V2000
    2.1434   -1.2375    0.0000 C   0  0  0  0  0  0  0  0  0  0  0  0
    1.4289    0.8250    0.0000 C   0  0  0  0  0  0  0  0  0  0  0  0
    0.7145    1.2375    0.0000 C   0  0  0  0  0  0  0  0  0  0  0  0
    1.4289   -0.0000    0.0000 C   0  0  0  0  0  0  0  0  0  0  0  0
    0.7145   -0.4125    0.0000 C   0  0  0  0  0  0  0  0  0  0  0  0
    0.7145   -1.2375    0.0000 C   0  0  0  0  0  0  0  0  0  0  0  0
    0.0000    0.8250    0.0000 C   0  0  0  0  0  0  0  0  0  0  0  0
    2.1434    1.2375    0.0000 O   0  0  0  0  0  0  0  0  0  0  0  0
    0.7145    2.0625    0.0000 O   0  0  0  0  0  0  0  0  0  0  0  0
   -0.0000   -1.6500    0.0000 O   0  0  0  0  0  0  0  0  0  0  0  0
    1.4289   -1.6500    0.0000 O   0  0  0  0  0  0  0  0  0  0  0  0
   -0.7145    1.2375    0.0000 O   0  0  0  0  0  0  0  0  0  0  0  0
    2.1434   -0.4125    0.0000 O   0  0  0  0  0  0  0  0  0  0  0  0
    0.0000    0.0000    0.0000 O   0  0  0  0  0  0  0  0  0  0  0  0
  2  8  1  1
  3  2  1  0
  3  9  1  6
  4  2  1  0
  4 13  1  6
  5  4  1  0
  5  6  1  1
  7  3  1  0
  7 12  1  6
 10  6  2  0
 11  6  1  0
 13  1  1  0
 14  5  1  0
 14  7  1  0
M  END
>  <DRUGBANK_ID>  (1) 
DB04303

>  <SECONDARY_ACCESSION_NUMBERS>  (1) 
EXPT01566

>  <COMMON_NAME>  (1) 
4-O-methyl-alpha-D-glucuronic acid

$$$$
