
     RDKit          2D

 38 43  0  0  1  0  0  0  0  0999 V2000
    6.7602   -2.6912    0.0000 C   0  0  0  0  0  0  0  0  0  0  0  0
    4.5466    1.3336    0.0000 C   0  0  0  0  0  0  0  0  0  0  0  0
    2.0307    1.7357    0.0000 C   0  0  0  0  0  0  0  0  0  0  0  0
    1.3705    2.3821    0.0000 C   0  0  0  0  0  0  0  0  0  0  0  0
    4.5754   -0.8489    0.0000 C   0  0  0  0  0  0  0  0  0  0  0  0
    3.7633   -0.7037    0.0000 C   0  0  0  0  0  0  0  0  0  0  0  0
    0.8642    3.0334    0.0000 C   0  0  0  0  0  0  0  0  0  0  0  0
    6.1708    1.0432    0.0000 C   0  0  0  0  0  0  0  0  0  0  0  0
    3.7345    1.4789    0.0000 C   0  0  0  0  0  0  0  0  0  0  0  0
    1.3367    0.1741    0.0000 C   0  0  0  0  0  0  0  0  0  0  0  0
    5.3587    1.1884    0.0000 C   0  0  0  0  0  0  0  0  0  0  0  0
    2.9224    1.6241    0.0000 C   0  0  0  0  0  0  0  0  0  0  0  0
    2.0195   -0.2889    0.0000 C   0  0  0  0  0  0  0  0  0  0  0  0
    5.9193   -0.3634    0.0000 C   0  0  0  0  0  0  0  0  0  0  0  0
    0.2424    1.5050    0.0000 C   0  0  0  0  0  0  0  0  0  0  0  0
    7.2920   -2.0605    0.0000 C   0  0  0  0  0  0  0  0  0  0  0  0
    1.0596    1.6179    0.0000 C   0  0  0  0  0  0  0  0  0  0  0  0
    5.1072   -0.2182    0.0000 C   0  0  0  0  0  0  0  0  0  0  0  0
    6.4511    0.2673    0.0000 C   0  0  0  0  0  0  0  0  0  0  0  0
    1.5660    0.9666    0.0000 C   0  0  0  0  0  0  0  0  0  0  0  0
    4.0148    0.7029    0.0000 C   0  0  0  0  0  0  0  0  0  0  0  0
    3.4830    0.0722    0.0000 C   0  0  0  0  0  0  0  0  0  0  0  0
    0.0469    2.9205    0.0000 C   0  0  0  0  0  0  0  0  0  0  0  0
    8.1041   -2.2057    0.0000 C   0  0  0  0  0  0  0  0  0  0  0  0
    8.6360   -1.5750    0.0000 C   0  0  0  0  0  0  0  0  0  0  0  0
    8.3557   -0.7991    0.0000 C   0  0  0  0  0  0  0  0  0  0  0  0
    7.5435   -0.6539    0.0000 C   0  0  0  0  0  0  0  0  0  0  0  0
    4.8269    0.5577    0.0000 C   0  0  0  0  0  0  0  0  0  0  0  0
    2.3905    0.9934    0.0000 C   0  0  0  0  0  0  0  0  0  0  0  0
    2.6708    0.2174    0.0000 C   0  0  0  0  0  0  0  0  0  0  0  0
   -0.4594    3.5719    0.0000 O   0  0  0  0  0  0  0  0  0  0  0  0
    8.3844   -2.9816    0.0000 O   0  0  0  0  0  0  0  0  0  0  0  0
    9.4481   -1.7202    0.0000 O   0  0  0  0  0  0  0  0  0  0  0  0
    8.8875   -0.1684    0.0000 O   0  0  0  0  0  0  0  0  0  0  0  0
    2.8685   -0.5835    0.0000 O   0  0  0  0  0  0  0  0  0  0  0  0
   -0.2640    2.1564    0.0000 O   0  0  0  0  0  0  0  0  0  0  0  0
    7.0117   -1.2846    0.0000 O   0  0  0  0  0  0  0  0  0  0  0  0
    7.2632    0.1221    0.0000 O   0  0  0  0  0  0  0  0  0  0  0  0
  6  5  1  0
  7  4  2  0
 11  8  1  0
 12  9  1  0
 13 10  1  0
 16  1  1  6
 17  4  1  0
 17 15  2  0
 18  5  1  0
 18 14  2  0
 19  8  1  0
 19 14  1  0
 19 38  1  6
 20 10  1  0
 20 17  1  6
 21  9  1  6
 22  6  1  1
 22 21  1  0
 23  7  1  0
 24 16  1  0
 24 32  1  1
 25 24  1  0
 25 33  1  6
 26 25  1  0
 26 34  1  6
 27 26  1  0
 27 38  1  1
 28  2  1  6
 28 11  1  0
 28 18  1  0
 28 21  1  0
 29  3  1  6
 29 12  1  0
 29 20  1  0
 30 13  1  0
 30 22  1  0
 30 29  1  0
 30 35  1  6
 31 23  2  0
 36 15  1  0
 36 23  1  0
 37 16  1  0
 37 27  1  0
M  END
>  <DRUGBANK_ID>  (1) 
DB13307

>  <COMMON_NAME>  (1) 
Proscillaridin

>  <CAS_NUMBER>  (1) 
466-06-8

>  <UNII>  (1) 
KC6BL281EN

>  <SYNONYMS>  (1) 
Proscillaridin

$$$$
