
     RDKit          2D

 25 28  0  0  0  0  0  0  0  0999 V2000
   -3.3054   -2.2452    0.0000 C   0  0  0  0  0  0  0  0  0  0  0  0
   -2.8929   -2.9597    0.0000 C   0  0  0  0  0  0  0  0  0  0  0  0
   -1.0515   -2.2452    0.0000 C   0  0  0  0  0  0  0  0  0  0  0  0
   -1.7659   -1.0077    0.0000 C   0  0  0  0  0  0  0  0  0  0  0  0
   -0.3370   -1.8327    0.0000 C   0  0  0  0  0  0  0  0  0  0  0  0
   -1.0515   -0.5952    0.0000 C   0  0  0  0  0  0  0  0  0  0  0  0
    3.3054    0.8972    0.0000 C   0  0  0  0  0  0  0  0  0  0  0  0
    3.3054    1.7222    0.0000 C   0  0  0  0  0  0  0  0  0  0  0  0
    0.3774    0.2297    0.0000 C   0  0  0  0  0  0  0  0  0  0  0  0
   -2.4804   -2.2452    0.0000 C   0  0  0  0  0  0  0  0  0  0  0  0
   -1.7659   -1.8327    0.0000 C   0  0  0  0  0  0  0  0  0  0  0  0
   -0.3370   -1.0077    0.0000 C   0  0  0  0  0  0  0  0  0  0  0  0
    2.5909    0.4847    0.0000 C   0  0  0  0  0  0  0  0  0  0  0  0
    2.5909    2.1347    0.0000 C   0  0  0  0  0  0  0  0  0  0  0  0
    0.3774   -0.5952    0.0000 C   0  0  0  0  0  0  0  0  0  0  0  0
    1.8765    0.8972    0.0000 C   0  0  0  0  0  0  0  0  0  0  0  0
    1.8765    1.7222    0.0000 C   0  0  0  0  0  0  0  0  0  0  0  0
    0.6069    1.3097    0.0000 C   0  0  0  0  0  0  0  0  0  0  0  0
    1.0918    0.6422    0.0000 C   0  0  0  0  0  0  0  0  0  0  0  0
    2.5909   -0.3402    0.0000 Cl  0  0  0  0  0  0  0  0  0  0  0  0
    2.5909    2.9597    0.0000 Cl  0  0  0  0  0  0  0  0  0  0  0  0
    1.0918    1.9771    0.0000 N   0  0  0  0  0  0  0  0  0  0  0  0
    1.0918   -1.0077    0.0000 O   0  0  0  0  0  0  0  0  0  0  0  0
   -0.2180    1.3097    0.0000 O   0  0  0  0  0  0  0  0  0  0  0  0
    1.4274   -0.1114    0.0000 O   0  0  0  0  0  0  0  0  0  0  0  0
  2  1  1  0
  5  3  2  0
  6  4  1  0
  8  7  2  0
 10  1  1  0
 10  2  1  0
 11  3  1  0
 11  4  2  0
 11 10  1  0
 12  5  1  0
 12  6  2  0
 13  7  1  0
 14  8  1  0
 15  9  1  0
 15 12  1  0
 16 13  2  0
 17 14  2  0
 17 16  1  0
 19  9  1  0
 19 16  1  0
 19 18  1  0
 20 13  1  0
 21 14  1  0
 22 17  1  0
 22 18  2  0
 23 15  2  0
 24 18  1  0
 25 19  1  0
M  END
>  <DRUGBANK_ID>  (1) 
DB17414

>  <COMMON_NAME>  (1) 
TK216

>  <CAS_NUMBER>  (1) 
1903783-48-1

$$$$
