CDB
     RDKit          2D

 32 34  0  0  0  0  0  0  0  0999 V2000
   -1.4168    3.4686    0.0000 N   0  0  0  0  0  0  0  0  0  0  0  0
   -2.1313    3.0561    0.0000 C   0  0  0  0  0  0  0  0  0  0  0  0
   -2.8457    3.4686    0.0000 C   0  0  0  0  0  0  0  0  0  0  0  0
   -2.8457    4.2936    0.0000 C   0  0  0  0  0  0  0  0  0  0  0  0
   -2.1313    4.7061    0.0000 C   0  0  0  0  0  0  0  0  0  0  0  0
   -1.4168    4.2936    0.0000 C   0  0  0  0  0  0  0  0  0  0  0  0
   -2.1313    2.2311    0.0000 C   0  0  0  0  0  0  0  0  0  0  0  0
   -2.1313    1.4061    0.0000 C   0  0  0  0  0  0  0  0  0  0  0  0
   -2.9563    2.2311    0.0000 F   0  0  0  0  0  0  0  0  0  0  0  0
   -1.3063    2.2311    0.0000 F   0  0  0  0  0  0  0  0  0  0  0  0
   -1.4168    0.9936    0.0000 N   0  0  0  0  0  0  0  0  0  0  0  0
   -1.4168    0.1686    0.0000 C   0  0  0  0  0  0  0  0  0  0  0  0
   -0.7023   -0.2439    0.0000 C   0  0  0  0  0  0  0  0  0  0  0  0
   -0.7023   -1.0689    0.0000 N   0  0  0  0  0  0  0  0  0  0  0  0
   -1.4168   -1.4814    0.0000 C   0  0  0  0  0  0  0  0  0  0  0  0
   -2.1313   -1.0689    0.0000 C   0  0  0  0  0  0  0  0  0  0  0  0
   -2.1313   -0.2439    0.0000 N   0  0  0  0  0  0  0  0  0  0  0  0
    0.0121    0.1686    0.0000 O   0  0  0  0  0  0  0  0  0  0  0  0
   -1.4168   -2.3064    0.0000 C   0  0  0  0  0  0  0  0  0  0  0  0
    0.0121   -1.4814    0.0000 C   0  0  0  0  0  0  0  0  0  0  0  0
    0.7266   -1.0689    0.0000 C   0  0  0  0  0  0  0  0  0  0  0  0
    1.4411   -1.4814    0.0000 N   0  0  0  0  0  0  0  0  0  0  0  0
    0.7266   -0.2439    0.0000 O   0  0  0  0  0  0  0  0  0  0  0  0
    2.1556   -1.0689    0.0000 C   0  0  0  0  0  0  0  0  0  0  0  0
    2.8700   -1.4814    0.0000 C   0  0  0  0  0  0  0  0  0  0  0  0
    3.5845   -1.0689    0.0000 C   0  0  0  0  0  0  0  0  0  0  0  0
    4.2990   -1.4814    0.0000 C   0  0  0  0  0  0  0  0  0  0  0  0
    4.2990   -2.3064    0.0000 C   0  0  0  0  0  0  0  0  0  0  0  0
    2.8700   -2.3064    0.0000 N   0  0  0  0  0  0  0  0  0  0  0  0
    3.5845   -0.2439    0.0000 F   0  0  0  0  0  0  0  0  0  0  0  0
    3.5845   -2.7189    0.0000 C   0  0  0  0  0  0  0  0  0  0  0  0
    5.0134   -1.0689    0.0000 C   0  0  0  0  0  0  0  0  0  0  0  0
  1  2  2  0
  1  6  1  0
  2  3  1  0
  2  7  1  0
  3  4  2  0
  4  5  1  0
  5  6  2  0
  7  8  1  0
  7  9  1  0
  7 10  1  0
  8 11  1  0
 11 12  1  0
 12 13  1  0
 12 17  2  0
 13 14  1  0
 13 18  2  0
 14 15  1  0
 14 20  1  0
 15 16  2  0
 15 19  1  0
 16 17  1  0
 20 21  1  0
 21 22  1  0
 21 23  2  0
 22 24  1  0
 24 25  1  0
 25 26  2  0
 25 29  1  0
 26 27  1  0
 26 30  1  0
 27 28  2  0
 27 32  1  0
 28 31  1  0
 29 31  2  0
M  CHG  2   1   1  17   1
M  END
>  <DRUGBANK_ID>  (1) 
DB07549

>  <COMMON_NAME>  (1) 
2-(6-CHLORO-3-{[2,2-DIFLUORO-2-(2-PYRIDINYL)ETHYL]AMINO}-2-OXO-1(2H)-PYRAZINYL)-N-[(2-FLUORO-3-METHYL-6-PYRIDINYL)METHYL]ACETAMIDE

$$$$
