
     RDKit          2D

 35 36  0  0  0  0  0  0  0  0999 V2000
   -2.3983   -0.6292    0.0000 S   0  0  0  0  0  0  0  0  0  0  0  0
    2.1040   -3.1546    0.0000 S   0  0  0  0  0  0  0  0  0  0  0  0
    0.4595    1.8457    0.0000 O   0  0  0  0  0  0  0  0  0  0  0  0
   -0.2548    0.6082    0.0000 O   0  0  0  0  0  0  0  0  0  0  0  0
   -2.3983    0.1957    0.0000 O   0  0  0  0  0  0  0  0  0  0  0  0
    2.8838    2.8307    0.0000 O   0  0  0  0  0  0  0  0  0  0  0  0
   -2.3983    1.8457    0.0000 O   0  0  0  0  0  0  0  0  0  0  0  0
    3.2233   -0.3986    0.0000 O   0  0  0  0  0  0  0  0  0  0  0  0
   -0.2548   -1.0417    0.0000 O   0  0  0  0  0  0  0  0  0  0  0  0
   -2.3983    2.6707    0.0000 O   0  0  0  0  0  0  0  0  0  0  0  0
   -2.3983   -1.4542    0.0000 O   0  0  0  0  0  0  0  0  0  0  0  0
   -3.2233   -0.6292    0.0000 O   0  0  0  0  0  0  0  0  0  0  0  0
   -1.5733   -0.6292    0.0000 O   0  0  0  0  0  0  0  0  0  0  0  0
    2.4396   -3.9082    0.0000 O   0  0  0  0  0  0  0  0  0  0  0  0
    1.3504   -3.4901    0.0000 O   0  0  0  0  0  0  0  0  0  0  0  0
    2.8577   -2.8190    0.0000 O   0  0  0  0  0  0  0  0  0  0  0  0
    2.4797    1.1557    0.0000 N   0  0  0  0  0  0  0  0  0  0  0  0
   -0.9693    2.6707    0.0000 N   0  0  0  0  0  0  0  0  0  0  0  0
    1.9179   -0.9798    0.0000 N   0  0  0  0  0  0  0  0  0  0  0  0
    1.1740    1.4332    0.0000 C   0  0  0  0  0  0  0  0  0  0  0  0
    1.9277    1.7688    0.0000 C   0  0  0  0  0  0  0  0  0  0  0  0
    2.0672    0.4412    0.0000 C   0  0  0  0  0  0  0  0  0  0  0  0
    1.2603    0.6128    0.0000 C   0  0  0  0  0  0  0  0  0  0  0  0
   -0.2548    1.4332    0.0000 C   0  0  0  0  0  0  0  0  0  0  0  0
   -0.9693    1.8457    0.0000 C   0  0  0  0  0  0  0  0  0  0  0  0
    2.0992    2.5758    0.0000 C   0  0  0  0  0  0  0  0  0  0  0  0
   -1.6838    1.4332    0.0000 C   0  0  0  0  0  0  0  0  0  0  0  0
   -1.6838    0.6082    0.0000 C   0  0  0  0  0  0  0  0  0  0  0  0
   -0.9693    0.1957    0.0000 C   0  0  0  0  0  0  0  0  0  0  0  0
    2.4027   -0.3124    0.0000 C   0  0  0  0  0  0  0  0  0  0  0  0
   -0.9693   -0.6292    0.0000 C   0  0  0  0  0  0  0  0  0  0  0  0
    2.2534   -1.7334    0.0000 C   0  0  0  0  0  0  0  0  0  0  0  0
   -1.6838    3.0832    0.0000 C   0  0  0  0  0  0  0  0  0  0  0  0
    1.7685   -2.4009    0.0000 C   0  0  0  0  0  0  0  0  0  0  0  0
   -1.6838    3.9082    0.0000 C   0  0  0  0  0  0  0  0  0  0  0  0
  1  5  1  0
  1 11  1  0
  1 12  2  0
  1 13  2  0
  2 14  1  0
  2 15  2  0
  2 16  2  0
  2 34  1  0
  4 24  1  0
  4 29  1  0
  6 26  1  0
  8 30  2  0
  9 31  1  0
 10 33  2  0
 17 21  1  0
 17 22  1  0
 18 33  1  0
 19 30  1  0
 19 32  1  0
 20  3  1  6
 20 21  1  0
 20 23  1  0
 21 26  1  1
 22 23  1  0
 22 30  1  6
 24  3  1  6
 24 25  1  0
 25 18  1  1
 25 27  1  0
 27  7  1  6
 27 28  1  0
 28  5  1  1
 28 29  1  0
 29 31  1  6
 32 34  1  0
 33 35  1  0
M  CHG  1  17   1
M  END
>  <DRUGBANK_ID>  (1) 
DB02595

>  <SECONDARY_ACCESSION_NUMBERS>  (1) 
EXPT00715

>  <COMMON_NAME>  (1) 
(2R,3S,5S)-2-(Hydroxymethyl)-5-[(2-sulfoethyl)carbamoyl]-3-pyrrolidiniumyl 2-acetamido-2-deoxy-4-O-sulfo-beta-D-glucopyranoside

>  <CAS_NUMBER>  (1) 
92953-54-3

$$$$
