
     RDKit          2D

 17 18  0  0  1  0  0  0  0  0999 V2000
   16.7212  -13.4281    0.0000 C   0  0  0  0  0  0  0  0  0  0  0  0
   16.7212  -12.5957    0.0000 C   0  0  0  0  0  0  0  0  0  0  0  0
   16.0019  -13.8495    0.0000 N   0  0  0  0  0  0  0  0  0  0  0  0
   17.4407  -13.8392    0.0000 N   0  0  0  0  0  0  0  0  0  0  0  0
   15.9950  -12.1812    0.0000 N   0  0  0  0  0  0  0  0  0  0  0  0
   17.4407  -12.1777    0.0000 C   0  0  0  0  0  0  0  0  0  0  0  0
   15.2756  -13.4349    0.0000 C   0  0  0  0  0  0  0  0  0  0  0  0
   18.1463  -13.4281    0.0000 C   0  0  0  0  0  0  0  0  0  0  0  0
   15.2619  -12.6025    0.0000 C   0  0  0  0  0  0  0  0  0  0  0  0
   18.1463  -12.5957    0.0000 N   0  0  0  0  0  0  0  0  0  0  0  0
   17.4407  -11.3590    0.0000 O   0  0  0  0  0  0  0  0  0  0  0  0
   18.8590  -13.8392    0.0000 N   0  0  0  0  0  0  0  0  0  0  0  0
   14.5699  -12.2359    0.0000 C   0  0  0  0  0  0  0  0  0  0  0  0
   13.8676  -12.6607    0.0000 C   0  0  0  0  0  0  0  0  0  0  0  0
   14.5597  -11.4172    0.0000 O   0  0  0  0  0  0  0  0  0  0  0  0
   13.1516  -12.2600    0.0000 C   0  0  0  0  0  0  0  0  0  0  0  0
   13.8848  -13.4796    0.0000 O   0  0  0  0  0  0  0  0  0  0  0  0
  1  2  2  0
  1  3  1  0
  1  4  1  0
  2  5  1  0
  2  6  1  0
  3  7  1  0
  4  8  2  0
  5  9  1  0
  6 10  1  0
  6 11  2  0
  9  7  1  6
  8 12  1  0
  8 10  1  0
  9 13  1  0
 13 14  1  0
 13 15  1  6
 14 16  1  1
 14 17  1  0
M  END
>  <DRUGBANK_ID>  (1) 
DB00360

>  <SECONDARY_ACCESSION_NUMBERS>  (1) 
APRD01297; EXPT00691; DB02692

>  <COMMON_NAME>  (1) 
Sapropterin

>  <CAS_NUMBER>  (1) 
62989-33-7

>  <UNII>  (1) 
EGX657432I

>  <SYNONYMS>  (1) 
(âˆ’)-(6R)-2-amino-6-((1R,2S)-1,2-dihydroxypropyl)-5,6,7,8-tetrahydro-4(3H)-pteridinone; (6R)-L-erythro-5,6,7,8-tetrahydrobiopterin; (6R)-L-erythro-tetrahydrobiopterin; 2-Amino-6-(1,2-dihydroxypropyl)-5,6,7,8-tetrahydoro-4(1H)-pteridinone; 5,6,7,8-Tetrahydrobiopterin; 6R-5,6,7,8-tetrahydrobiopterin; 6R-BH4; 6R-L-5,6,7,8-tetrahydrobiopterin; R-THBP; Sapropterin; Sapropterina; sapropterinum; Tetrahydrobiopterin

$$$$
