
     RDKit          2D

 17 14  0  0  0  0  0  0  0  0999 V2000
    0.0977   -0.0015    0.0000 C   0  0  0  0  0  0  0  0  0  0  0  0
    0.5087   -0.7186    0.0000 S   0  0  0  0  0  0  0  0  0  0  0  0
    0.5087    0.7186    0.0000 S   0  0  0  0  0  0  0  0  0  0  0  0
   -0.7243   -0.0015    0.0000 N   0  0  0  0  0  0  0  0  0  0  0  0
   -1.1413    0.7128    0.0000 C   0  0  0  0  0  0  0  0  0  0  0  0
   -1.1413   -0.7128    0.0000 C   0  0  0  0  0  0  0  0  0  0  0  0
   -1.9663    0.7128    0.0000 C   0  0  0  0  0  0  0  0  0  0  0  0
   -1.9663   -0.7128    0.0000 C   0  0  0  0  0  0  0  0  0  0  0  0
    2.0112    1.2012    0.0000 Zn  0  0  0  0  0 15  0  0  0  0  0  0
    0.0528    2.4827    0.0000 C   0  0  0  0  0  0  0  0  0  0  0  0
    0.4639    1.7656    0.0000 S   0  0  0  0  0  0  0  0  0  0  0  0
    0.4639    3.2029    0.0000 S   0  0  0  0  0  0  0  0  0  0  0  0
   -0.7692    2.4827    0.0000 N   0  0  0  0  0  0  0  0  0  0  0  0
   -1.1862    3.1971    0.0000 C   0  0  0  0  0  0  0  0  0  0  0  0
   -1.1862    1.7714    0.0000 C   0  0  0  0  0  0  0  0  0  0  0  0
   -2.0112    3.1971    0.0000 C   0  0  0  0  0  0  0  0  0  0  0  0
   -2.0112    1.7714    0.0000 C   0  0  0  0  0  0  0  0  0  0  0  0
  2  1  1  0
  3  1  2  0
  4  1  1  0
  5  4  1  0
  6  4  1  0
  7  5  1  0
  8  6  1  0
 11 10  1  0
 12 10  2  0
 13 10  1  0
 14 13  1  0
 15 13  1  0
 16 14  1  0
 17 15  1  0
M  CHG  3   2  -1   9   2  11  -1
M  END
>  <DRUGBANK_ID>  (1) 
DB14193

>  <COMMON_NAME>  (1) 
Ditiocarb zinc

>  <CAS_NUMBER>  (1) 
14324-55-1

>  <UNII>  (1) 
ICW4708Z8G

>  <SYNONYMS>  (1) 
Bis(diethyldithiocarbamato)zinc; DEDTC; Diethyldithiocarbamic acid zinc salt; Ethazate; Ethyl cymate; Ethyl zimate; Ethyl Ziram; Ethylzimate; Zinc Diethyldithiocarbamate; Zinc N,N-diethyldithiocarbamate; Zinc, bis(diethylcarbamodithioato-S,S')-

$$$$
