
     RDKit          2D

 17 17  0  0  0  0  0  0  0  0999 V2000
   -2.1435    0.8251    0.0000 C   0  0  0  0  0  0  0  0  0  0  0  0
   -2.8580    0.4125    0.0000 C   0  0  0  0  0  0  0  0  0  0  0  0
   -2.8580   -0.4124    0.0000 C   0  0  0  0  0  0  0  0  0  0  0  0
   -2.1435   -0.8251    0.0000 C   0  0  0  0  0  0  0  0  0  0  0  0
   -1.4290   -0.4124    0.0000 C   0  0  0  0  0  0  0  0  0  0  0  0
   -1.4290    0.4125    0.0000 C   0  0  0  0  0  0  0  0  0  0  0  0
   -3.5726   -0.8250    0.0000 Cl  0  0  0  0  0  0  0  0  0  0  0  0
   -0.7145    0.8251    0.0000 N   0  0  0  0  0  0  0  0  0  0  0  0
    0.0000    0.4125    0.0000 C   0  0  0  0  0  0  0  0  0  0  0  0
    0.0000   -0.4124    0.0000 N   0  0  0  0  0  0  0  0  0  0  0  0
    0.7145    0.8251    0.0000 N   0  0  0  0  0  0  0  0  0  0  0  0
    1.4290    0.4125    0.0000 C   0  0  0  0  0  0  0  0  0  0  0  0
    1.4290   -0.4124    0.0000 N   0  0  0  0  0  0  0  0  0  0  0  0
    2.1436    0.8251    0.0000 N   0  0  0  0  0  0  0  0  0  0  0  0
    2.8580    0.4125    0.0000 C   0  0  0  0  0  0  0  0  0  0  0  0
    3.5726    0.8251    0.0000 C   0  0  0  0  0  0  0  0  0  0  0  0
    2.8580   -0.4124    0.0000 C   0  0  0  0  0  0  0  0  0  0  0  0
  1  2  2  0
  1  6  1  0
  2  3  1  0
  3  4  2  0
  3  7  1  0
  4  5  1  0
  5  6  2  0
  6  8  1  0
  8  9  1  0
  9 10  2  0
  9 11  1  0
 11 12  1  0
 12 13  2  0
 12 14  1  0
 14 15  1  0
 15 16  1  0
 15 17  1  0
M  END
>  <DRUGBANK_ID>  (1) 
DB01131

>  <SECONDARY_ACCESSION_NUMBERS>  (1) 
APRD00188

>  <COMMON_NAME>  (1) 
Proguanil

>  <CAS_NUMBER>  (1) 
500-92-5

>  <UNII>  (1) 
S61K3P7B2V

>  <SYNONYMS>  (1) 
1-(p-Chlorophenyl)-5-isopropylbiguanide; Chlorguanide; Chloroguanide; Proguanil; Proguanile; Proguanilo; Proguanilum

$$$$
