
     RDKit          2D

 18 17  0  0  0  0  0  0  0  0999 V2000
    0.0000   -2.0625    0.0000 S   0  0  0  0  0  0  0  0  0  0  0  0
   -1.4290    2.8876    0.0000 O   0  0  0  0  0  0  0  0  0  0  0  0
   -0.7145    1.6501    0.0000 O   0  0  0  0  0  0  0  0  0  0  0  0
    2.8579   -2.0625    0.0000 O   0  0  0  0  0  0  0  0  0  0  0  0
    2.1434   -0.8250    0.0000 O   0  0  0  0  0  0  0  0  0  0  0  0
   -2.8580    2.0625    0.0000 N   0  0  0  0  0  0  0  0  0  0  0  0
   -0.7145   -0.8250    0.0000 N   0  0  0  0  0  0  0  0  0  0  0  0
    1.4290   -2.8876    0.0000 N   0  0  0  0  0  0  0  0  0  0  0  0
   -1.4290   -2.0625    0.0000 N   0  0  0  0  0  0  0  0  0  0  0  0
   -2.1434    0.8250    0.0000 C   0  0  0  0  0  0  0  0  0  0  0  0
   -2.1434    1.6501    0.0000 C   0  0  0  0  0  0  0  0  0  0  0  0
   -1.4290    0.4125    0.0000 C   0  0  0  0  0  0  0  0  0  0  0  0
   -1.4290   -0.4125    0.0000 C   0  0  0  0  0  0  0  0  0  0  0  0
   -1.4290    2.0625    0.0000 C   0  0  0  0  0  0  0  0  0  0  0  0
    1.4290   -2.0625    0.0000 C   0  0  0  0  0  0  0  0  0  0  0  0
    0.7145   -1.6501    0.0000 C   0  0  0  0  0  0  0  0  0  0  0  0
   -0.7145   -1.6501    0.0000 C   0  0  0  0  0  0  0  0  0  0  0  0
    2.1434   -1.6501    0.0000 C   0  0  0  0  0  0  0  0  0  0  0  0
  1 16  1  0
  1 17  1  0
  2 14  1  0
  3 14  2  0
  4 18  1  0
  5 18  2  0
  7 13  1  0
  7 17  2  0
  9 17  1  0
 10 11  1  0
 10 12  1  0
 11  6  1  6
 11 14  1  0
 12 13  1  0
 15  8  1  1
 15 16  1  0
 15 18  1  0
M  CHG  1   6   1
M  END
>  <DRUGBANK_ID>  (1) 
DB04671

>  <COMMON_NAME>  (1) 
[(1S)-4-[[Amino-[(2R)-2-amino-2-carboxyethyl]sulfanylmethylidene]amino]-1-carboxybutyl]azanium

$$$$
