
     RDKit          2D

 10  9  0  0  0  0  0  0  0  0999 V2000
    0.4124   -0.8250    0.0000 C   0  0  0  0  0  0  0  0  0  0  0  0
    1.1269   -0.4124    0.0000 O   0  0  0  0  0  0  0  0  0  0  0  0
    0.4124   -1.6500    0.0000 O   0  0  0  0  0  0  0  0  0  0  0  0
   -0.3019   -0.4124    0.0000 C   0  0  0  0  0  0  0  0  0  0  0  0
   -0.7145   -1.1269    0.0000 N   0  0  0  0  0  0  0  0  0  0  0  0
   -0.3019    0.4126    0.0000 C   0  0  0  0  0  0  0  0  0  0  0  0
    0.4124    0.8250    0.0000 C   0  0  0  0  0  0  0  0  0  0  0  0
    0.4124    1.6500    0.0000 C   0  0  0  0  0  0  0  0  0  0  0  0
    1.1269    0.4126    0.0000 C   0  0  0  0  0  0  0  0  0  0  0  0
   -1.1269   -0.4124    0.0000 C   0  0  0  0  0  0  0  0  0  0  0  0
  2  1  1  0
  3  1  2  0
  4  1  1  0
  4  5  1  0
  4 10  1  6
  6  4  1  0
  7  6  1  0
  8  7  1  0
  9  7  1  0
M  END
>  <DRUGBANK_ID>  (1) 
DB04063

>  <SECONDARY_ACCESSION_NUMBERS>  (1) 
EXPT00130

>  <COMMON_NAME>  (1) 
alpha-Methylleucine

>  <CAS_NUMBER>  (1) 
105743-53-1

>  <UNII>  (1) 
83ASW57LTZ

>  <SYNONYMS>  (1) 
(S)-2-Methylleucine; 2-Methyl-L-leucine

$$$$
