
     RDKit          2D

 14 15  0  0  0  0  0  0  0  0999 V2000
   -1.6493    2.0203    0.0000 C   0  0  0  0  0  0  0  0  0  0  0  0
   -1.0722    1.3603    0.0000 C   0  0  0  0  0  0  0  0  0  0  0  0
   -0.2471    1.5254    0.0000 C   0  0  0  0  0  0  0  0  0  0  0  0
    0.2471    0.9482    0.0000 C   0  0  0  0  0  0  0  0  0  0  0  0
   -0.0008    0.1232    0.0000 C   0  0  0  0  0  0  0  0  0  0  0  0
    0.4942   -0.5353    0.0000 C   0  0  0  0  0  0  0  0  0  0  0  0
   -0.0008   -1.1953    0.0000 C   0  0  0  0  0  0  0  0  0  0  0  0
    0.3293   -1.9374    0.0000 C   0  0  0  0  0  0  0  0  0  0  0  0
    1.1542   -2.0203    0.0000 C   0  0  0  0  0  0  0  0  0  0  0  0
    1.6493   -1.3603    0.0000 C   0  0  0  0  0  0  0  0  0  0  0  0
    1.3193   -0.6182    0.0000 C   0  0  0  0  0  0  0  0  0  0  0  0
   -0.7422   -0.1239    0.0000 O   0  0  0  0  0  0  0  0  0  0  0  0
   -0.7422   -0.9482    0.0000 C   0  0  0  0  0  0  0  0  0  0  0  0
   -1.4014   -1.4432    0.0000 O   0  0  0  0  0  0  0  0  0  0  0  0
  1  2  1  0
  2  3  1  0
  3  4  1  0
  4  5  1  0
  5  6  1  0
  5 12  1  0
  6  7  2  0
  6 11  1  0
  7  8  1  0
  7 13  1  0
  8  9  2  0
  9 10  1  0
 10 11  2  0
 12 13  1  0
 13 14  2  0
M  END
>  <DRUGBANK_ID>  (1) 
DB12749

>  <COMMON_NAME>  (1) 
Butylphthalide

>  <CAS_NUMBER>  (1) 
6066-49-5

>  <UNII>  (1) 
822Q956KGM

>  <SYNONYMS>  (1) 
(Â±)-3-BUTYLPHTHALIDE; 3-BUTYLPHTHALIDE; 3-n-butylphthalide; 3-N-BUTYLPHTHALIDE [FHFI]; Butylphthalide; DL-3-n-butylphthalide; PHTHALIDE, 3-BUTYL-

$$$$
