PF3
     RDKit          2D

 31 34  0  0  0  0  0  0  0  0999 V2000
   -0.9503    1.2920    0.0000 S   0  0  0  0  0  0  0  0  0  0  0  0
   -0.1966    0.9564    0.0000 C   0  0  0  0  0  0  0  0  0  0  0  0
   -0.2828    0.1359    0.0000 C   0  0  0  0  0  0  0  0  0  0  0  0
   -1.0898   -0.0356    0.0000 C   0  0  0  0  0  0  0  0  0  0  0  0
   -1.5023    0.6789    0.0000 C   0  0  0  0  0  0  0  0  0  0  0  0
   -1.4253   -0.7893    0.0000 C   0  0  0  0  0  0  0  0  0  0  0  0
   -0.9404   -1.4567    0.0000 C   0  0  0  0  0  0  0  0  0  0  0  0
   -1.2760   -2.2104    0.0000 C   0  0  0  0  0  0  0  0  0  0  0  0
   -2.0965   -2.2966    0.0000 C   0  0  0  0  0  0  0  0  0  0  0  0
   -2.5814   -1.6292    0.0000 C   0  0  0  0  0  0  0  0  0  0  0  0
   -2.2458   -0.8755    0.0000 C   0  0  0  0  0  0  0  0  0  0  0  0
   -2.4320   -3.0503    0.0000 C   0  0  0  0  0  0  0  0  0  0  0  0
   -1.9471   -3.7177    0.0000 C   0  0  0  0  0  0  0  0  0  0  0  0
   -2.2826   -4.4714    0.0000 C   0  0  0  0  0  0  0  0  0  0  0  0
   -3.1031   -4.5576    0.0000 N   0  0  0  0  0  0  0  0  0  0  0  0
   -3.5881   -3.8902    0.0000 C   0  0  0  0  0  0  0  0  0  0  0  0
   -3.2525   -3.1365    0.0000 C   0  0  0  0  0  0  0  0  0  0  0  0
    0.5179    1.3689    0.0000 C   0  0  0  0  0  0  0  0  0  0  0  0
    0.5179    2.1939    0.0000 O   0  0  0  0  0  0  0  0  0  0  0  0
    1.2324    0.9564    0.0000 N   0  0  0  0  0  0  0  0  0  0  0  0
    1.9468    1.3689    0.0000 C   0  0  0  0  0  0  0  0  0  0  0  0
    2.6613    0.9564    0.0000 C   0  0  0  0  0  0  0  0  0  0  0  0
    3.3758    1.3689    0.0000 C   0  0  0  0  0  0  0  0  0  0  0  0
    4.0903    0.9564    0.0000 O   0  0  0  0  0  0  0  0  0  0  0  0
    3.3758    2.1939    0.0000 O   0  0  0  0  0  0  0  0  0  0  0  0
    1.9468    2.1939    0.0000 C   0  0  0  0  0  0  0  0  0  0  0  0
    1.2324    2.6064    0.0000 C   0  0  0  0  0  0  0  0  0  0  0  0
    1.2324    3.4314    0.0000 C   0  0  0  0  0  0  0  0  0  0  0  0
    1.9468    3.8439    0.0000 C   0  0  0  0  0  0  0  0  0  0  0  0
    2.6613    3.4314    0.0000 C   0  0  0  0  0  0  0  0  0  0  0  0
    2.6613    2.6064    0.0000 C   0  0  0  0  0  0  0  0  0  0  0  0
  1  2  1  0
  1  5  1  0
  2  3  2  0
  2 18  1  0
  3  4  1  0
  4  5  2  0
  4  6  1  0
  6  7  2  0
  6 11  1  0
  7  8  1  0
  8  9  2  0
  9 10  1  0
  9 12  1  0
 10 11  2  0
 12 13  2  0
 12 17  1  0
 13 14  1  0
 14 15  2  0
 15 16  1  0
 16 17  2  0
 18 19  2  0
 18 20  1  0
 21 20  1  0
 21 22  1  1
 21 26  1  0
 22 23  1  0
 23 24  2  0
 23 25  1  0
 26 27  2  0
 26 31  1  0
 27 28  1  0
 28 29  2  0
 29 30  1  0
 30 31  2  0
M  END
>  <DRUGBANK_ID>  (1) 
DB03367

>  <SECONDARY_ACCESSION_NUMBERS>  (1) 
EXPT02553

>  <COMMON_NAME>  (1) 
PF-00356231

>  <CAS_NUMBER>  (1) 
766536-21-4

>  <SYNONYMS>  (1) 
(3R)-3-Phenyl-3-[({4-[4-(4-pyridinyl)phenyl]-2-thienyl}carbonyl)amino]propanoic acid; 3-phenyl-3-({[4-(4-pyridin-4-ylphenyl)thien-2-yl]carbonyl}amino)propanoic acid

$$$$
