
     RDKit          2D

 22 24  0  0  0  0  0  0  0  0999 V2000
    4.6910    4.6811    0.0000 Cl  0  0  0  0  0  0  0  0  0  0  0  0
    2.3645   -0.5560    0.0000 N   0  0  0  0  0  0  0  0  0  0  0  0
    2.3645   -2.2060    0.0000 N   0  0  0  0  0  0  0  0  0  0  0  0
    3.7935    2.7441    0.0000 N   0  0  0  0  0  0  0  0  0  0  0  0
    1.6500   -3.4435    0.0000 N   0  0  0  0  0  0  0  0  0  0  0  0
    3.0791   -3.4435    0.0000 N   0  0  0  0  0  0  0  0  0  0  0  0
    3.1261    3.2290    0.0000 N   0  0  0  0  0  0  0  0  0  0  0  0
    3.0791   -0.9685    0.0000 C   0  0  0  0  0  0  0  0  0  0  0  0
    1.6500   -0.9685    0.0000 C   0  0  0  0  0  0  0  0  0  0  0  0
    2.3645    0.2690    0.0000 C   0  0  0  0  0  0  0  0  0  0  0  0
    3.0791   -1.7935    0.0000 C   0  0  0  0  0  0  0  0  0  0  0  0
    1.6500   -1.7935    0.0000 C   0  0  0  0  0  0  0  0  0  0  0  0
    3.0791    0.6815    0.0000 C   0  0  0  0  0  0  0  0  0  0  0  0
    3.0791    1.5066    0.0000 C   0  0  0  0  0  0  0  0  0  0  0  0
    3.7935    1.9191    0.0000 C   0  0  0  0  0  0  0  0  0  0  0  0
    2.3645   -3.0310    0.0000 C   0  0  0  0  0  0  0  0  0  0  0  0
    4.4610    3.2290    0.0000 C   0  0  0  0  0  0  0  0  0  0  0  0
    1.6500   -4.2686    0.0000 C   0  0  0  0  0  0  0  0  0  0  0  0
    3.0791   -4.2686    0.0000 C   0  0  0  0  0  0  0  0  0  0  0  0
    4.2060    4.0136    0.0000 C   0  0  0  0  0  0  0  0  0  0  0  0
    3.3810    4.0136    0.0000 C   0  0  0  0  0  0  0  0  0  0  0  0
    2.3645   -4.6811    0.0000 C   0  0  0  0  0  0  0  0  0  0  0  0
  1 20  1  0
  2  8  1  0
  2  9  1  0
  2 10  1  0
  3 11  1  0
  3 12  1  0
  3 16  1  0
  4  7  1  0
  4 15  1  0
  4 17  1  0
  5 16  2  0
  5 18  1  0
  6 16  1  0
  6 19  2  0
  7 21  2  0
  8 11  1  0
  9 12  1  0
 10 13  1  0
 13 14  1  0
 14 15  1  0
 17 20  2  0
 18 22  2  0
 19 22  1  0
 20 21  1  0
M  END
>  <DRUGBANK_ID>  (1) 
DB04970

>  <COMMON_NAME>  (1) 
Lesopitron

>  <CAS_NUMBER>  (1) 
132449-46-8

>  <UNII>  (1) 
H1CGM4755H

>  <SYNONYMS>  (1) 
2-(4-(4-(4-Chloropyrazol-1-yl)butyl)-1-piperazinyl)pyrimidine; Lesopitron

$$$$
