
     RDKit          2D

  8  8  0  0  0  0  0  0  0  0999 V2000
    0.0000    2.4750    0.0000 O   0  0  0  0  0  0  0  0  0  0  0  0
    0.7145    2.0625    0.0000 C   0  0  0  0  0  0  0  0  0  0  0  0
    0.7145    1.2375    0.0000 C   0  0  0  0  0  0  0  0  0  0  0  0
    1.4289    0.8250    0.0000 C   0  0  0  0  0  0  0  0  0  0  0  0
    1.4289    0.0000    0.0000 C   0  0  0  0  0  0  0  0  0  0  0  0
    0.7145   -0.4125    0.0000 C   0  0  0  0  0  0  0  0  0  0  0  0
    0.0000    0.0000    0.0000 N   0  0  0  0  0  0  0  0  0  0  0  0
    0.0000    0.8250    0.0000 C   0  0  0  0  0  0  0  0  0  0  0  0
  1  2  1  0
  2  3  1  0
  3  4  2  0
  3  8  1  0
  4  5  1  0
  5  6  2  0
  6  7  1  0
  7  8  2  0
M  END
>  <DRUGBANK_ID>  (1) 
DB04145

>  <SECONDARY_ACCESSION_NUMBERS>  (1) 
EXPT02720

>  <COMMON_NAME>  (1) 
Nicotinyl alcohol

>  <CAS_NUMBER>  (1) 
100-55-0

>  <UNII>  (1) 
9TF312056Y

>  <SYNONYMS>  (1) 
3-pyridinemethanol; beta-pyridylcarbinol; Nicotinic alcohol; Nicotinyl alcohol; Pyridylcarbinol; Pyridylmethanol

$$$$
