MLN
     RDKit          2D

 30 30  0  0  0  0  0  0  0  0999 V2000
    3.9651    2.2687    0.0000 O   0  0  0  0  0  0  0  0  0  0  0  0
    4.6796    1.8562    0.0000 P   0  0  0  0  0  0  0  0  0  0  0  0
    5.0921    2.5707    0.0000 O   0  0  0  0  0  0  0  0  0  0  0  0
    5.3940    1.4437    0.0000 O   0  0  0  0  0  0  0  0  0  0  0  0
    4.2671    1.1418    0.0000 O   0  0  0  0  0  0  0  0  0  0  0  0
    5.3940    0.6187    0.0000 C   0  0  0  0  0  0  0  0  0  0  0  0
    4.6796    0.2062    0.0000 C   0  0  0  0  0  0  0  0  0  0  0  0
    6.1085    0.2062    0.0000 C   0  0  0  0  0  0  0  0  0  0  0  0
    6.8230    0.6187    0.0000 C   0  0  0  0  0  0  0  0  0  0  0  0
    7.5375    0.2062    0.0000 C   0  0  0  0  0  0  0  0  0  0  0  0
    7.5375   -0.6188    0.0000 C   0  0  0  0  0  0  0  0  0  0  0  0
    4.6796   -0.6188    0.0000 O   0  0  0  0  0  0  0  0  0  0  0  0
    3.9651    0.6187    0.0000 N   0  0  0  0  0  0  0  0  0  0  0  0
    3.2506    0.2062    0.0000 C   0  0  0  0  0  0  0  0  0  0  0  0
    3.2506   -0.6188    0.0000 C   0  0  0  0  0  0  0  0  0  0  0  0
    2.5362   -1.0313    0.0000 C   0  0  0  0  0  0  0  0  0  0  0  0
    2.5362   -1.8563    0.0000 C   0  0  0  0  0  0  0  0  0  0  0  0
    1.8217   -0.6188    0.0000 C   0  0  0  0  0  0  0  0  0  0  0  0
    2.5362    0.6187    0.0000 C   0  0  0  0  0  0  0  0  0  0  0  0
    1.8217    0.2062    0.0000 N   0  0  0  0  0  0  0  0  0  0  0  0
    2.5362    1.4437    0.0000 O   0  0  0  0  0  0  0  0  0  0  0  0
    1.1072    0.6187    0.0000 C   0  0  0  0  0  0  0  0  0  0  0  0
    0.3928    0.2062    0.0000 C   0  0  0  0  0  0  0  0  0  0  0  0
   -0.3217    0.6187    0.0000 C   0  0  0  0  0  0  0  0  0  0  0  0
   -0.3217    1.4437    0.0000 C   0  0  0  0  0  0  0  0  0  0  0  0
    0.3928    1.8562    0.0000 C   0  0  0  0  0  0  0  0  0  0  0  0
    1.1072    1.4437    0.0000 C   0  0  0  0  0  0  0  0  0  0  0  0
   -1.0362    1.8562    0.0000 N   0  0  0  0  0  0  0  0  0  0  0  0
   -1.7507    1.4437    0.0000 O   0  0  0  0  0  0  0  0  0  0  0  0
   -1.0362    2.6812    0.0000 O   0  0  0  0  0  0  0  0  0  0  0  0
  1  2  1  0
  2  3  2  0
  2  4  1  0
  2  5  1  0
  6  4  1  0
  6  7  1  0
  6  8  1  1
  7 12  2  0
  7 13  1  0
  8  9  1  0
  9 10  1  0
 10 11  1  0
 14 13  1  0
 14 15  1  1
 14 19  1  0
 15 16  1  0
 16 17  1  0
 16 18  1  0
 19 20  1  0
 19 21  2  0
 20 22  1  0
 22 23  2  0
 22 27  1  0
 23 24  1  0
 24 25  2  0
 25 26  1  0
 25 28  1  0
 26 27  2  0
 28 29  1  0
 28 30  2  0
M  CHG  2  28   1  29  -1
M  END
>  <DRUGBANK_ID>  (1) 
DB02276

>  <SECONDARY_ACCESSION_NUMBERS>  (1) 
EXPT02185

>  <COMMON_NAME>  (1) 
(S)-2-(Phosphonoxy)Caproyl-L-Leucyl-P-Nitroanilide

$$$$
