
     RDKit          2D

 18 20  0  0  0  0  0  0  0  0999 V2000
   -1.5618    1.7589    0.0000 N   0  0  0  0  0  0  0  0  0  0  0  0
   -1.5618    0.9401    0.0000 C   0  0  0  0  0  0  0  0  0  0  0  0
   -0.8339    0.5156    0.0000 N   0  0  0  0  0  0  0  0  0  0  0  0
   -0.1061    0.9401    0.0000 C   0  0  0  0  0  0  0  0  0  0  0  0
   -0.1061    1.7589    0.0000 C   0  0  0  0  0  0  0  0  0  0  0  0
   -0.8339    2.1836    0.0000 C   0  0  0  0  0  0  0  0  0  0  0  0
    0.6824    2.0319    0.0000 N   0  0  0  0  0  0  0  0  0  0  0  0
    1.1675    1.3344    0.0000 C   0  0  0  0  0  0  0  0  0  0  0  0
    0.6824    0.6672    0.0000 N   0  0  0  0  0  0  0  0  0  0  0  0
    1.0767   -1.6074    0.0000 C   0  0  0  0  0  0  0  0  0  0  0  0
    1.3495   -0.8188    0.0000 C   0  0  0  0  0  0  0  0  0  0  0  0
    0.6824   -0.3336    0.0000 C   0  0  0  0  0  0  0  0  0  0  0  0
    0.0152   -0.8188    0.0000 O   0  0  0  0  0  0  0  0  0  0  0  0
    0.2578   -1.6074    0.0000 C   0  0  0  0  0  0  0  0  0  0  0  0
   -0.3184   -2.1532    0.0000 C   0  0  0  0  0  0  0  0  0  0  0  0
   -0.0454   -3.0327    0.0000 O   0  0  0  0  0  0  0  0  0  0  0  0
    1.5618   -2.3049    0.0000 O   0  0  0  0  0  0  0  0  0  0  0  0
   -0.8339    3.0327    0.0000 O   0  0  0  0  0  0  0  0  0  0  0  0
  2  1  1  0
  3  2  2  0
  4  3  1  0
  4  5  2  0
  5  6  1  0
  6  1  1  0
  7  5  1  0
  7  8  2  0
  8  9  1  0
  9  4  1  0
 10 17  1  6
 11 10  1  0
 12  9  1  1
 12 11  1  0
 13 12  1  0
 14 10  1  0
 14 13  1  0
 14 15  1  1
 16 15  1  0
 18  6  2  0
M  END
>  <DRUGBANK_ID>  (1) 
DB02380

>  <SECONDARY_ACCESSION_NUMBERS>  (1) 
EXPT00134

>  <COMMON_NAME>  (1) 
Deoxyinosine

>  <CAS_NUMBER>  (1) 
890-38-0

>  <UNII>  (1) 
HN0RQ6SBWQ

>  <SYNONYMS>  (1) 
2'-deoxyinosine; 9-(2-deoxy-Î²-D-erythro-pentofuranosyl)-9H-purin-6-ol; Deoxyinosine

$$$$
