
     RDKit          2D

 11 11  0  0  0  0  0  0  0  0999 V2000
    1.4288    1.2375    0.0000 C   0  0  0  0  0  0  0  0  0  0  0  0
    0.7145    0.8250    0.0000 C   0  0  0  0  0  0  0  0  0  0  0  0
    0.7145    0.0000    0.0000 C   0  0  0  0  0  0  0  0  0  0  0  0
    1.4288   -0.4125    0.0000 C   0  0  0  0  0  0  0  0  0  0  0  0
    2.1433    0.0000    0.0000 C   0  0  0  0  0  0  0  0  0  0  0  0
    2.1433    0.8250    0.0000 C   0  0  0  0  0  0  0  0  0  0  0  0
    0.0000   -0.4125    0.0000 C   0  0  0  0  0  0  0  0  0  0  0  0
   -0.7145    0.0000    0.0000 C   0  0  0  0  0  0  0  0  0  0  0  0
   -1.4288   -0.4125    0.0000 N   0  0  0  0  0  0  0  0  0  0  0  0
   -0.7145    0.8249    0.0000 C   0  0  0  0  0  0  0  0  0  0  0  0
    0.0000   -1.2375    0.0000 O   0  0  0  0  0  0  0  0  0  0  0  0
  1  2  2  0
  1  6  1  0
  2  3  1  0
  3  4  2  0
  3  7  1  0
  4  5  1  0
  5  6  2  0
  7  8  1  0
  7 11  1  6
  8  9  1  0
  8 10  1  1
M  END
>  <DRUGBANK_ID>  (1) 
DB01486

>  <COMMON_NAME>  (1) 
Cathine

>  <CAS_NUMBER>  (1) 
492-39-7

>  <UNII>  (1) 
E1L4ZW2F8O

>  <SYNONYMS>  (1) 
(+)-Norpseudoephedrine; Cathina; Cathine; Cathinum; D-Cathine; d-Nor-psi-ephedrine; d-Norpseudoephedrine; Katine; Pseudonorephedrine; psi-Norephedrine

$$$$
