
     RDKit          2D

 35 35  0  0  0  0  0  0  0  0999 V2000
   -0.2062   -4.7933    0.0000 Fe  0  0  0  0  0 15  0  0  0  0  0  0
    0.3268    0.0000    0.0000 O   0  0  0  0  0  0  0  0  0  0  0  0
   -1.1021    0.8250    0.0000 O   0  0  0  0  0  0  0  0  0  0  0  0
   -1.8166    2.0625    0.0000 O   0  0  0  0  0  0  0  0  0  0  0  0
    1.7558    0.0000    0.0000 O   0  0  0  0  0  0  0  0  0  0  0  0
   -1.1021   -1.6500    0.0000 O   0  0  0  0  0  0  0  0  0  0  0  0
    0.3268   -2.4750    0.0000 O   0  0  0  0  0  0  0  0  0  0  0  0
    1.7558   -1.6500    0.0000 O   0  0  0  0  0  0  0  0  0  0  0  0
   -2.5310    0.0000    0.0000 O   0  0  0  0  0  0  0  0  0  0  0  0
   -3.9600    0.8250    0.0000 O   0  0  0  0  0  0  0  0  0  0  0  0
   -3.9600    2.4750    0.0000 O   0  0  0  0  0  0  0  0  0  0  0  0
   -1.8166    3.7125    0.0000 O   0  0  0  0  0  0  0  0  0  0  0  0
    3.1848    0.8250    0.0000 O   0  0  0  0  0  0  0  0  0  0  0  0
    1.7558    2.4750    0.0000 O   0  0  0  0  0  0  0  0  0  0  0  0
    3.8992    2.0625    0.0000 O   0  0  0  0  0  0  0  0  0  0  0  0
    2.4703    3.7125    0.0000 O   0  0  0  0  0  0  0  0  0  0  0  0
    3.8992    4.5375    0.0000 O   0  0  0  0  0  0  0  0  0  0  0  0
   -0.3875   -0.4125    0.0000 C   0  0  0  0  0  0  0  0  0  0  0  0
   -0.3875   -1.2375    0.0000 C   0  0  0  0  0  0  0  0  0  0  0  0
    0.3268   -1.6500    0.0000 C   0  0  0  0  0  0  0  0  0  0  0  0
    1.0413   -1.2375    0.0000 C   0  0  0  0  0  0  0  0  0  0  0  0
    1.0413   -0.4125    0.0000 C   0  0  0  0  0  0  0  0  0  0  0  0
   -2.5310    0.8250    0.0000 C   0  0  0  0  0  0  0  0  0  0  0  0
   -1.8166    1.2375    0.0000 C   0  0  0  0  0  0  0  0  0  0  0  0
   -3.2455    1.2375    0.0000 C   0  0  0  0  0  0  0  0  0  0  0  0
   -3.2455    2.0625    0.0000 C   0  0  0  0  0  0  0  0  0  0  0  0
   -1.1021    0.0000    0.0000 C   0  0  0  0  0  0  0  0  0  0  0  0
   -2.5310    2.4750    0.0000 C   0  0  0  0  0  0  0  0  0  0  0  0
   -2.5310    3.3000    0.0000 C   0  0  0  0  0  0  0  0  0  0  0  0
    1.7558    0.8250    0.0000 C   0  0  0  0  0  0  0  0  0  0  0  0
    2.4703    1.2375    0.0000 C   0  0  0  0  0  0  0  0  0  0  0  0
    2.4703    2.0625    0.0000 C   0  0  0  0  0  0  0  0  0  0  0  0
    3.1848    2.4750    0.0000 C   0  0  0  0  0  0  0  0  0  0  0  0
    3.1848    3.3000    0.0000 C   0  0  0  0  0  0  0  0  0  0  0  0
    3.8992    3.7125    0.0000 C   0  0  0  0  0  0  0  0  0  0  0  0
  2 18  1  0
  2 22  1  0
  3 27  1  0
  4 24  1  0
  4 28  1  0
  5 30  1  0
 12 29  1  0
 17 35  1  0
 18 19  1  0
 18 27  1  1
 19  6  1  6
 19 20  1  0
 20  7  1  1
 20 21  1  0
 21  8  1  6
 21 22  1  0
 22  5  1  6
 23  9  1  6
 23 24  1  0
 23 25  1  0
 24  3  1  6
 25 10  1  1
 25 26  1  0
 26 11  1  6
 26 28  1  0
 28 29  1  1
 30 31  1  0
 31 13  1  6
 31 32  1  0
 32 14  1  1
 32 33  1  0
 33 15  1  1
 33 34  1  0
 34 16  1  1
 34 35  1  0
M  CHG  1   1   3
M  END
>  <DRUGBANK_ID>  (1) 
DB15617

>  <COMMON_NAME>  (1) 
Ferric derisomaltose

>  <CAS_NUMBER>  (1) 
1345510-43-1

>  <UNII>  (1) 
AHU547PI9H

>  <SYNONYMS>  (1) 
Ferric derisomaltose

$$$$
