
     RDKit          2D

 18 17  0  0  0  0  0  0  0  0999 V2000
    0.1105    0.4125    0.0000 C   0  0  0  0  0  0  0  0  0  0  0  0
    0.8250    0.0000    0.0000 C   0  0  0  0  0  0  0  0  0  0  0  0
    1.5395    0.4125    0.0000 C   0  0  0  0  0  0  0  0  0  0  0  0
    1.9520   -0.3020    0.0000 C   0  0  0  0  0  0  0  0  0  0  0  0
    2.7770   -0.3020    0.0000 O   0  0  0  0  0  0  0  0  0  0  0  0
    3.1895   -1.0164    0.0000 N   0  0  0  0  0  0  0  0  0  0  0  0
    4.0145   -1.0164    0.0000 O   0  0  0  0  0  0  0  0  0  0  0  0
    2.7770   -1.7309    0.0000 O   0  0  0  0  0  0  0  0  0  0  0  0
    1.1270    1.1270    0.0000 C   0  0  0  0  0  0  0  0  0  0  0  0
    0.3020    1.1270    0.0000 O   0  0  0  0  0  0  0  0  0  0  0  0
   -0.1105    1.8414    0.0000 N   0  0  0  0  0  0  0  0  0  0  0  0
   -0.9355    1.8414    0.0000 O   0  0  0  0  0  0  0  0  0  0  0  0
    0.3020    2.5559    0.0000 O   0  0  0  0  0  0  0  0  0  0  0  0
    2.2539    0.8250    0.0000 C   0  0  0  0  0  0  0  0  0  0  0  0
    2.9684    0.4125    0.0000 O   0  0  0  0  0  0  0  0  0  0  0  0
    3.6829    0.8250    0.0000 N   0  0  0  0  0  0  0  0  0  0  0  0
    4.3974    0.4125    0.0000 O   0  0  0  0  0  0  0  0  0  0  0  0
    3.6829    1.6500    0.0000 O   0  0  0  0  0  0  0  0  0  0  0  0
  1  2  1  0
  2  3  1  0
  3  4  1  0
  3  9  1  0
  3 14  1  0
  4  5  1  0
  5  6  1  0
  6  7  2  0
  6  8  1  0
  9 10  1  0
 10 11  1  0
 11 12  2  0
 11 13  1  0
 14 15  1  0
 15 16  1  0
 16 17  2  0
 16 18  1  0
M  CHG  6   6   1   8  -1  11   1  13  -1  16   1  18  -1
M  END
>  <DRUGBANK_ID>  (1) 
DB13255

>  <COMMON_NAME>  (1) 
Propatyl nitrate

>  <CAS_NUMBER>  (1) 
2921-92-8

>  <UNII>  (1) 
AJT2YN495R

>  <SYNONYMS>  (1) 
Propatyl nitrate; Propatylnitrate

$$$$
