44U
     RDKit          2D

 28 30  0  0  0  0  0  0  0  0999 V2000
   -4.0001    0.9058    0.0000 C   0  0  0  0  0  0  0  0  0  0  0  0
   -3.2856    1.3183    0.0000 C   0  0  0  0  0  0  0  0  0  0  0  0
   -2.5712    0.9058    0.0000 C   0  0  0  0  0  0  0  0  0  0  0  0
   -0.4277    1.3183    0.0000 C   0  0  0  0  0  0  0  0  0  0  0  0
   -0.3415    2.1388    0.0000 C   0  0  0  0  0  0  0  0  0  0  0  0
    0.4655    2.3104    0.0000 C   0  0  0  0  0  0  0  0  0  0  0  0
    0.8780    1.5959    0.0000 C   0  0  0  0  0  0  0  0  0  0  0  0
    0.4975    0.1758    0.0000 C   0  0  0  0  0  0  0  0  0  0  0  0
    1.2821   -0.0791    0.0000 C   0  0  0  0  0  0  0  0  0  0  0  0
    0.0559   -1.1832    0.0000 C   0  0  0  0  0  0  0  0  0  0  0  0
   -0.5572   -1.7352    0.0000 C   0  0  0  0  0  0  0  0  0  0  0  0
   -0.3857   -2.5422    0.0000 C   0  0  0  0  0  0  0  0  0  0  0  0
    0.3989   -2.7971    0.0000 C   0  0  0  0  0  0  0  0  0  0  0  0
    2.2382   -1.1410    0.0000 C   0  0  0  0  0  0  0  0  0  0  0  0
    3.8075   -1.6509    0.0000 C   0  0  0  0  0  0  0  0  0  0  0  0
   -1.8567    1.3183    0.0000 N   0  0  0  0  0  0  0  0  0  0  0  0
   -1.1422    0.9058    0.0000 C   0  0  0  0  0  0  0  0  0  0  0  0
   -1.1422    0.0808    0.0000 O   0  0  0  0  0  0  0  0  0  0  0  0
    0.3259    0.9828    0.0000 N   0  0  0  0  0  0  0  0  0  0  0  0
   -0.1156   -0.3762    0.0000 O   0  0  0  0  0  0  0  0  0  0  0  0
    1.4536   -0.8861    0.0000 C   0  0  0  0  0  0  0  0  0  0  0  0
    0.8405   -1.4381    0.0000 C   0  0  0  0  0  0  0  0  0  0  0  0
    1.0120   -2.2451    0.0000 C   0  0  0  0  0  0  0  0  0  0  0  0
    2.4098   -1.9480    0.0000 C   0  0  0  0  0  0  0  0  0  0  0  0
    3.1944   -2.2029    0.0000 C   0  0  0  0  0  0  0  0  0  0  0  0
    3.6359   -0.8439    0.0000 C   0  0  0  0  0  0  0  0  0  0  0  0
    2.8513   -0.5890    0.0000 C   0  0  0  0  0  0  0  0  0  0  0  0
    1.8952    0.4729    0.0000 N   0  0  0  0  0  0  0  0  0  0  0  0
  1  2  1  0
  2  3  1  0
  3 16  1  0
  4 19  1  0
  4 17  1  6
  5  4  1  0
  5  6  1  0
  6  7  1  0
  7 19  1  0
  8 20  2  0
  8  9  1  0
  9 21  1  0
  9 28  1  6
 10 22  2  0
 10 11  1  0
 11 12  2  0
 12 13  1  0
 14 27  2  0
 15 26  2  0
 17 16  1  0
 18 17  2  0
 19  8  1  0
 21 14  1  0
 21 22  1  0
 22 23  1  0
 23 13  2  0
 24 14  1  0
 24 25  2  0
 25 15  1  0
 27 26  1  0
M  END
>  <DRUGBANK_ID>  (1) 
DB07083

>  <COMMON_NAME>  (1) 
beta-phenyl-D-phenylalanyl-N-propyl-L-prolinamide

$$$$
