
     RDKit          2D

 28 31  0  0  0  0  0  0  0  0999 V2000
    5.9723   -2.9287    0.0000 C   0  0  0  0  0  0  0  0  0  0  0  0
    5.9723   -3.7537    0.0000 N   0  0  0  0  0  0  0  0  0  0  0  0
    6.6397   -4.2386    0.0000 C   0  0  0  0  0  0  0  0  0  0  0  0
    6.3848   -5.0233    0.0000 C   0  0  0  0  0  0  0  0  0  0  0  0
    5.5598   -5.0233    0.0000 C   0  0  0  0  0  0  0  0  0  0  0  0
    5.3049   -4.2386    0.0000 N   0  0  0  0  0  0  0  0  0  0  0  0
    7.4244   -3.9837    0.0000 C   0  0  0  0  0  0  0  0  0  0  0  0
    7.5959   -3.1767    0.0000 C   0  0  0  0  0  0  0  0  0  0  0  0
    8.3805   -2.9218    0.0000 C   0  0  0  0  0  0  0  0  0  0  0  0
    8.9936   -3.4738    0.0000 C   0  0  0  0  0  0  0  0  0  0  0  0
    8.8221   -4.2808    0.0000 C   0  0  0  0  0  0  0  0  0  0  0  0
    8.0375   -4.5357    0.0000 C   0  0  0  0  0  0  0  0  0  0  0  0
    9.7782   -3.2189    0.0000 S   0  0  0  0  0  0  0  0  0  0  0  0
    9.9498   -2.4119    0.0000 C   0  0  0  0  0  0  0  0  0  0  0  0
    9.3367   -1.8599    0.0000 C   0  0  0  0  0  0  0  0  0  0  0  0
    9.5082   -1.0529    0.0000 C   0  0  0  0  0  0  0  0  0  0  0  0
   10.2928   -0.7980    0.0000 C   0  0  0  0  0  0  0  0  0  0  0  0
   10.9059   -1.3500    0.0000 C   0  0  0  0  0  0  0  0  0  0  0  0
   10.7344   -2.1570    0.0000 C   0  0  0  0  0  0  0  0  0  0  0  0
   11.6905   -1.0951    0.0000 C   0  0  0  0  0  0  0  0  0  0  0  0
   12.3406   -0.5871    0.0000 C   0  0  0  0  0  0  0  0  0  0  0  0
   13.1056   -0.8962    0.0000 C   0  0  0  0  0  0  0  0  0  0  0  0
   13.2204   -1.7132    0.0000 O   0  0  0  0  0  0  0  0  0  0  0  0
   12.5703   -2.2211    0.0000 C   0  0  0  0  0  0  0  0  0  0  0  0
   11.8053   -1.9120    0.0000 C   0  0  0  0  0  0  0  0  0  0  0  0
   11.3032   -0.3666    0.0000 C   0  0  0  0  0  0  0  0  0  0  0  0
   11.7404    0.3330    0.0000 O   0  0  0  0  0  0  0  0  0  0  0  0
   10.4787   -0.3378    0.0000 N   0  0  0  0  0  0  0  0  0  0  0  0
  1  2  1  0
  2  3  1  0
  2  6  1  0
  3  4  2  0
  3  7  1  0
  4  5  1  0
  5  6  2  0
  7  8  2  0
  7 12  1  0
  8  9  1  0
  9 10  2  0
 10 11  1  0
 10 13  1  0
 11 12  2  0
 13 14  1  0
 14 15  2  0
 14 19  1  0
 15 16  1  0
 16 17  2  0
 17 18  1  0
 18 19  2  0
 18 20  1  0
 20 21  1  0
 20 25  1  0
 20 26  1  0
 21 22  1  0
 22 23  1  0
 23 24  1  0
 24 25  1  0
 26 27  2  0
 26 28  1  0
M  END
>  <DRUGBANK_ID>  (1) 
DB11645

>  <COMMON_NAME>  (1) 
PF-4191834

>  <CAS_NUMBER>  (1) 
1029317-21-2

>  <UNII>  (1) 
YX55DXP4T1

$$$$
