
     RDKit          2D

 30 33  0  0  0  0  0  0  0  0999 V2000
    2.8579   -4.1250    0.0000 C   0  0  0  0  0  0  0  0  0  0  0  0
    2.8579   -4.9500    0.0000 C   0  0  0  0  0  0  0  0  0  0  0  0
    3.5724   -5.3625    0.0000 C   0  0  0  0  0  0  0  0  0  0  0  0
    3.5724   -6.1875    0.0000 C   0  0  0  0  0  0  0  0  0  0  0  0
    2.8579   -6.6000    0.0000 C   0  0  0  0  0  0  0  0  0  0  0  0
    2.1434   -6.1875    0.0000 N   0  0  0  0  0  0  0  0  0  0  0  0
    2.1434   -5.3625    0.0000 C   0  0  0  0  0  0  0  0  0  0  0  0
    1.4289   -4.9500    0.0000 C   0  0  0  0  0  0  0  0  0  0  0  0
    0.7145   -5.3625    0.0000 C   0  0  0  0  0  0  0  0  0  0  0  0
    0.0000   -4.9500    0.0000 C   0  0  0  0  0  0  0  0  0  0  0  0
    0.0000   -4.1250    0.0000 N   0  0  0  0  0  0  0  0  0  0  0  0
    0.7145   -3.7125    0.0000 C   0  0  0  0  0  0  0  0  0  0  0  0
    1.4289   -4.1250    0.0000 C   0  0  0  0  0  0  0  0  0  0  0  0
    0.7145   -2.8875    0.0000 C   0  0  0  0  0  0  0  0  0  0  0  0
    4.2868   -6.6000    0.0000 C   0  0  0  0  0  0  0  0  0  0  0  0
    4.2868   -7.4250    0.0000 C   0  0  0  0  0  0  0  0  0  0  0  0
    3.5724   -7.8375    0.0000 O   0  0  0  0  0  0  0  0  0  0  0  0
    5.0013   -7.8375    0.0000 N   0  0  0  0  0  0  0  0  0  0  0  0
    5.0013   -8.6625    0.0000 C   0  0  0  0  0  0  0  0  0  0  0  0
    5.7158   -9.0750    0.0000 C   0  0  0  0  0  0  0  0  0  0  0  0
    5.7158   -9.9000    0.0000 C   0  0  0  0  0  0  0  0  0  0  0  0
    5.0013  -10.3125    0.0000 C   0  0  0  0  0  0  0  0  0  0  0  0
    4.2868   -9.9000    0.0000 C   0  0  0  0  0  0  0  0  0  0  0  0
    4.2868   -9.0750    0.0000 N   0  0  0  0  0  0  0  0  0  0  0  0
    5.0013  -11.1375    0.0000 C   0  0  0  0  0  0  0  0  0  0  0  0
    5.7158  -11.5500    0.0000 C   0  0  0  0  0  0  0  0  0  0  0  0
    5.7158  -12.3750    0.0000 N   0  0  0  0  0  0  0  0  0  0  0  0
    5.0013  -12.7875    0.0000 C   0  0  0  0  0  0  0  0  0  0  0  0
    4.2868  -12.3750    0.0000 C   0  0  0  0  0  0  0  0  0  0  0  0
    4.2868  -11.5500    0.0000 N   0  0  0  0  0  0  0  0  0  0  0  0
  1  2  1  0
  2  3  2  0
  2  7  1  0
  3  4  1  0
  4  5  2  0
  4 15  1  0
  5  6  1  0
  6  7  2  0
  7  8  1  0
  8  9  2  0
  8 13  1  0
  9 10  1  0
 10 11  2  0
 11 12  1  0
 12 13  2  0
 12 14  1  0
 15 16  1  0
 16 17  2  0
 16 18  1  0
 18 19  1  0
 19 20  2  0
 19 24  1  0
 20 21  1  0
 21 22  2  0
 22 23  1  0
 22 25  1  0
 23 24  2  0
 25 26  2  0
 25 30  1  0
 26 27  1  0
 27 28  2  0
 28 29  1  0
 29 30  2  0
M  END
>  <DRUGBANK_ID>  (1) 
DB12561

>  <COMMON_NAME>  (1) 
WNT-974

>  <CAS_NUMBER>  (1) 
1243244-14-5

>  <UNII>  (1) 
U27F40013Q

>  <SYNONYMS>  (1) 
(2,4'-bipyridine)-5-acetamide, 2',3-dimethyl-N-(5-(2-pyrazinyl)-2-pyridinyl)-

$$$$
