
     RDKit          2D

 24 26  0  0  1  0  0  0  0  0999 V2000
    8.5737    0.8250    0.0000 C   0  0  0  0  0  0  0  0  0  0  0  0
    7.8592    1.2375    0.0000 C   0  0  0  0  0  0  0  0  0  0  0  0
    8.5737   -0.0000    0.0000 C   0  0  0  0  0  0  0  0  0  0  0  0
    6.4302   -0.4125    0.0000 C   0  0  0  0  0  0  0  0  0  0  0  0
    2.1434   -0.4125    0.0000 C   0  0  0  0  0  0  0  0  0  0  0  0
    2.1434    1.2375    0.0000 C   0  0  0  0  0  0  0  0  0  0  0  0
    5.0013   -0.4125    0.0000 C   0  0  0  0  0  0  0  0  0  0  0  0
    4.2868    0.8250    0.0000 C   0  0  0  0  0  0  0  0  0  0  0  0
    5.7158   -0.0000    0.0000 C   0  0  0  0  0  0  0  0  0  0  0  0
    2.8579    0.0000    0.0000 C   0  0  0  0  0  0  0  0  0  0  0  0
    1.4289    0.8250    0.0000 C   0  0  0  0  0  0  0  0  0  0  0  0
    1.4289    0.0000    0.0000 C   0  0  0  0  0  0  0  0  0  0  0  0
    2.8579    0.8250    0.0000 C   0  0  0  0  0  0  0  0  0  0  0  0
    7.1447   -0.0000    0.0000 C   0  0  0  0  0  0  0  0  0  0  0  0
    7.1447    0.8250    0.0000 C   0  0  0  0  0  0  0  0  0  0  0  0
    3.5724   -0.4125    0.0000 C   0  0  0  0  0  0  0  0  0  0  0  0
    0.7145    1.2375    0.0000 Br  0  0  0  0  0  0  0  0  0  0  0  0
    0.7145   -0.4125    0.0000 Cl  0  0  0  0  0  0  0  0  0  0  0  0
    7.8592   -0.4125    0.0000 N   0  0  0  0  0  0  0  0  0  0  0  0
    3.5724    1.2375    0.0000 N   0  0  0  0  0  0  0  0  0  0  0  0
    4.2868   -0.0000    0.0000 N   0  0  0  0  0  0  0  0  0  0  0  0
    5.7158    0.8250    0.0000 O   0  0  0  0  0  0  0  0  0  0  0  0
    6.4302    1.2375    0.0000 O   0  0  0  0  0  0  0  0  0  0  0  0
    3.5724   -1.2375    0.0000 O   0  0  0  0  0  0  0  0  0  0  0  0
  2  1  1  0
  3  1  1  0
  9  4  1  0
  9  7  1  0
 10  5  2  0
 11  6  1  0
 12  5  1  0
 12 11  2  0
 13  6  2  0
 13 10  1  0
 14  4  1  6
 15  2  1  0
 15 14  1  0
 15 23  1  1
 16 10  1  0
 17 11  1  0
 18 12  1  0
 19  3  1  0
 19 14  1  0
 20  8  2  0
 20 13  1  0
 21  7  1  0
 21  8  1  0
 21 16  1  0
 22  9  2  0
 24 16  2  0
M  END
>  <DRUGBANK_ID>  (1) 
DB04866

>  <COMMON_NAME>  (1) 
Halofuginone

>  <CAS_NUMBER>  (1) 
55837-20-2

>  <UNII>  (1) 
L31MM1385E

>  <SYNONYMS>  (1) 
(+/-)-trans-7-bromo-6-chloro-3-(3-(3-hydroxy-2-piperidyl)-acetonyl)-4(3H)-quinazolinone; Halofuginone

$$$$
