
     RDKit          2D

  7  6  0  0  0  0  0  0  0  0999 V2000
    6.9903   -5.6602    0.0000 Co  0  0  0  0  0  6  0  0  0  0  0  0
    6.9903   -4.6257    0.0000 N   0  0  0  0  0  0  0  0  0  0  0  0
    6.9903   -6.5987    0.0000 N   0  0  0  0  0  0  0  0  0  0  0  0
    7.7366   -5.3129    0.0000 N   0  0  0  0  0  0  0  0  0  0  0  0
    6.3253   -5.2982    0.0000 N   0  0  0  0  0  0  0  0  0  0  0  0
    7.7440   -6.0001    0.0000 N   0  0  0  0  0  0  0  0  0  0  0  0
    6.3179   -5.9410    0.0000 N   0  0  0  0  0  0  0  0  0  0  0  0
  1  2  1  0
  1  3  1  0
  1  4  1  0
  1  5  1  0
  1  6  1  0
  1  7  1  0
M  CHG  7   1  -3   2   1   3   1   4   1   5   1   6   1   7   1
M  END
>  <DRUGBANK_ID>  (1) 
DB03350

>  <SECONDARY_ACCESSION_NUMBERS>  (1) 
EXPT02313

>  <COMMON_NAME>  (1) 
Cobalt hexammine ion

>  <SYNONYMS>  (1) 
Cobalt Hexammine(III); hexaamminecobalt(3+)

$$$$
