
     RDKit          2D

 28 31  0  0  0  0  0  0  0  0999 V2000
    1.5827    1.5879    0.0000 C   0  0  0  0  0  0  0  0  0  0  0  0
    1.5525    2.3555    0.0000 O   0  0  0  0  0  0  0  0  0  0  0  0
    2.3164    1.1941    0.0000 C   0  0  0  0  0  0  0  0  0  0  0  0
    3.0181    1.6438    0.0000 C   0  0  0  0  0  0  0  0  0  0  0  0
    3.7517    1.2501    0.0000 C   0  0  0  0  0  0  0  0  0  0  0  0
    4.4534    1.6997    0.0000 C   0  0  0  0  0  0  0  0  0  0  0  0
    3.7810    0.4360    0.0000 C   0  0  0  0  0  0  0  0  0  0  0  0
   -2.3078   -1.1170    0.0000 C   0  0  0  0  0  0  0  0  0  0  0  0
   -0.1622    0.1165    0.0000 C   0  0  0  0  0  0  0  0  0  0  0  0
   -2.2958   -1.9419    0.0000 C   0  0  0  0  0  0  0  0  0  0  0  0
   -1.5925   -0.7058    0.0000 C   0  0  0  0  0  0  0  0  0  0  0  0
   -0.1503   -0.7083    0.0000 C   0  0  0  0  0  0  0  0  0  0  0  0
   -0.8655   -1.1194    0.0000 C   0  0  0  0  0  0  0  0  0  0  0  0
    0.6103    0.3748    0.0000 C   0  0  0  0  0  0  0  0  0  0  0  0
   -3.0110   -2.3531    0.0000 C   0  0  0  0  0  0  0  0  0  0  0  0
   -0.8893    0.5302    0.0000 C   0  0  0  0  0  0  0  0  0  0  0  0
   -1.6044    0.1190    0.0000 C   0  0  0  0  0  0  0  0  0  0  0  0
   -3.0349   -0.7033    0.0000 C   0  0  0  0  0  0  0  0  0  0  0  0
   -0.8535   -1.9444    0.0000 C   0  0  0  0  0  0  0  0  0  0  0  0
    0.6413   -0.9661    0.0000 C   0  0  0  0  0  0  0  0  0  0  0  0
    0.8682    1.1665    0.0000 O   0  0  0  0  0  0  0  0  0  0  0  0
   -1.5688   -2.3555    0.0000 C   0  0  0  0  0  0  0  0  0  0  0  0
   -3.7381   -1.9393    0.0000 C   0  0  0  0  0  0  0  0  0  0  0  0
    1.1174   -0.2987    0.0000 C   0  0  0  0  0  0  0  0  0  0  0  0
   -4.4534   -2.3506    0.0000 O   0  0  0  0  0  0  0  0  0  0  0  0
   -3.7501   -1.1146    0.0000 C   0  0  0  0  0  0  0  0  0  0  0  0
   -2.3198   -0.2921    0.0000 C   0  0  0  0  0  0  0  0  0  0  0  0
   -0.2021    0.9114    0.0000 C   0  0  0  0  0  0  0  0  0  0  0  0
  2  1  2  0
  3  1  1  0
  4  3  1  0
  5  4  1  0
  6  5  1  0
  7  5  1  0
  8 27  1  1
  9 16  1  0
  9 28  1  1
 10  8  1  0
 11  8  1  0
 12 13  1  0
 12  9  1  0
 13 11  1  0
 14  9  1  0
 14 21  1  1
 14 24  1  0
 15 10  2  0
 15 23  1  0
 16 17  1  0
 11 17  1  1
 18  8  1  0
 13 19  1  6
 12 20  1  1
 21  1  1  0
 22 10  1  0
 22 19  1  0
 23 26  1  0
 24 20  1  0
 25 23  2  0
 26 18  1  0
M  END
>  <DRUGBANK_ID>  (1) 
DB16002

>  <COMMON_NAME>  (1) 
Testosterone isocaproate

>  <CAS_NUMBER>  (1) 
15262-86-9

>  <UNII>  (1) 
X8ST05GYDM

$$$$
