
     RDKit          2D

 19 19  0  0  0  0  0  0  0  0999 V2000
   -3.1233   -1.3894    0.0000 C   0  0  0  0  0  0  0  0  0  0  0  0
   -2.7877   -0.6357    0.0000 C   0  0  0  0  0  0  0  0  0  0  0  0
   -1.9672   -0.5495    0.0000 C   0  0  0  0  0  0  0  0  0  0  0  0
   -1.6317    0.2042    0.0000 O   0  0  0  0  0  0  0  0  0  0  0  0
   -0.8112    0.2904    0.0000 C   0  0  0  0  0  0  0  0  0  0  0  0
   -0.3263   -0.3770    0.0000 O   0  0  0  0  0  0  0  0  0  0  0  0
   -0.4756    1.0441    0.0000 C   0  0  0  0  0  0  0  0  0  0  0  0
   -0.8881    1.7586    0.0000 C   0  0  0  0  0  0  0  0  0  0  0  0
   -0.3361    2.3716    0.0000 C   0  0  0  0  0  0  0  0  0  0  0  0
    0.4176    2.0361    0.0000 C   0  0  0  0  0  0  0  0  0  0  0  0
    0.3314    1.2156    0.0000 S   0  0  0  0  0  0  0  0  0  0  0  0
    1.1321    2.4486    0.0000 C   0  0  0  0  0  0  0  0  0  0  0  0
    1.1321    3.2736    0.0000 O   0  0  0  0  0  0  0  0  0  0  0  0
    1.8465    2.0361    0.0000 O   0  0  0  0  0  0  0  0  0  0  0  0
    2.5610    2.4486    0.0000 C   0  0  0  0  0  0  0  0  0  0  0  0
    3.2755    2.0361    0.0000 C   0  0  0  0  0  0  0  0  0  0  0  0
    3.9899    2.4486    0.0000 C   0  0  0  0  0  0  0  0  0  0  0  0
   -0.5076    3.1786    0.0000 O   0  0  0  0  0  0  0  0  0  0  0  0
   -1.7086    1.8448    0.0000 O   0  0  0  0  0  0  0  0  0  0  0  0
  1  2  1  0
  2  3  1  0
  3  4  1  0
  4  5  1  0
  5  6  2  0
  5  7  1  0
  7  8  2  0
  7 11  1  0
  8  9  1  0
  8 19  1  0
  9 10  2  0
  9 18  1  0
 10 11  1  0
 10 12  1  0
 12 13  2  0
 12 14  1  0
 14 15  1  0
 15 16  1  0
 16 17  1  0
M  END
>  <DRUGBANK_ID>  (1) 
DB13632

>  <COMMON_NAME>  (1) 
Protiofate

>  <CAS_NUMBER>  (1) 
58416-00-5

>  <UNII>  (1) 
FIP88CI9Y3

>  <SYNONYMS>  (1) 
Protiofate

$$$$
