
     RDKit          2D

 24 24  0  0  0  0  0  0  0  0999 V2000
   -3.9206    0.3972    0.0000 C   0  0  0  0  0  0  0  0  0  0  0  0
   -3.9125   -0.4131    0.0000 C   0  0  0  0  0  0  0  0  0  0  0  0
   -3.2179    0.8165    0.0000 C   0  0  0  0  0  0  0  0  0  0  0  0
   -4.6512    0.8165    0.0000 O   0  0  0  0  0  0  0  0  0  0  0  0
   -3.2258   -0.8244    0.0000 C   0  0  0  0  0  0  0  0  0  0  0  0
   -4.6512   -0.8204    0.0000 O   0  0  0  0  0  0  0  0  0  0  0  0
   -2.5032    0.3972    0.0000 C   0  0  0  0  0  0  0  0  0  0  0  0
   -3.2179    1.6389    0.0000 O   0  0  0  0  0  0  0  0  0  0  0  0
   -4.6512    1.6509    0.0000 C   0  0  0  0  0  0  0  0  0  0  0  0
   -2.5032   -0.4131    0.0000 C   0  0  0  0  0  0  0  0  0  0  0  0
   -3.2258   -1.6509    0.0000 O   0  0  0  0  0  0  0  0  0  0  0  0
   -5.3698   -0.4012    0.0000 C   0  0  0  0  0  0  0  0  0  0  0  0
   -1.7806    0.8165    0.0000 C   0  0  0  0  0  0  0  0  0  0  0  0
   -1.7806   -0.8244    0.0000 C   0  0  0  0  0  0  0  0  0  0  0  0
   -1.0739    0.3972    0.0000 C   0  0  0  0  0  0  0  0  0  0  0  0
   -0.3472    0.7965    0.0000 C   0  0  0  0  0  0  0  0  0  0  0  0
    0.3633    0.3773    0.0000 C   0  0  0  0  0  0  0  0  0  0  0  0
    1.0660    0.7965    0.0000 C   0  0  0  0  0  0  0  0  0  0  0  0
    1.7806    0.3773    0.0000 C   0  0  0  0  0  0  0  0  0  0  0  0
    2.5152    0.8004    0.0000 C   0  0  0  0  0  0  0  0  0  0  0  0
    3.2219    0.3773    0.0000 C   0  0  0  0  0  0  0  0  0  0  0  0
    3.9527    0.7805    0.0000 C   0  0  0  0  0  0  0  0  0  0  0  0
    4.6553    0.3773    0.0000 C   0  0  0  0  0  0  0  0  0  0  0  0
    5.3698    0.7805    0.0000 O   0  0  0  0  0  0  0  0  0  0  0  0
  1  2  2  0
  1  3  1  0
  1  4  1  0
  2  5  1  0
  2  6  1  0
  3  7  1  0
  3  8  2  0
  4  9  1  0
  5 10  1  0
  5 11  2  0
  6 12  1  0
  7 13  1  0
  7 10  2  0
 10 14  1  0
 13 15  1  0
 15 16  1  0
 16 17  1  0
 17 18  1  0
 18 19  1  0
 19 20  1  0
 20 21  1  0
 21 22  1  0
 22 23  1  0
 23 24  1  0
M  END
>  <DRUGBANK_ID>  (1) 
DB09081

>  <COMMON_NAME>  (1) 
Idebenone

>  <CAS_NUMBER>  (1) 
58186-27-9

>  <UNII>  (1) 
HB6PN45W4J

>  <SYNONYMS>  (1) 
2-(10-hydroxydecyl)-5,6-dimethoxy-3-methyl-1,4-benzoquinone; 2-(10-hydroxydecyl)-5,6-dimethoxy-3-methyl-p-benzoquinone; 2-(10-hydroxydecyl)-5,6-dimethoxy-3-methylcyclohexa-2,5-diene-1,4-dione; 2,3-dimethoxy-5-methyl-6-(10'-hydroxydecyl)-1,4-benzoquinone; 6-(10-hydroxydecyl)-2,3-dimethoxy-5-methyl-1,4-benzoquinone; 6-(10-hydroxydecyl)-2,3-dimethoxy-5-methyl-p-benzoquinone; idebenona; Idebenone; idébénone

$$$$
