
     RDKit          2D

 15 15  0  0  0  0  0  0  0  0999 V2000
    1.6500   -0.9529    0.0000 O   0  0  0  0  0  0  0  0  0  0  0  0
    2.3645    0.2846    0.0000 O   0  0  0  0  0  0  0  0  0  0  0  0
    3.7935    0.2846    0.0000 N   0  0  0  0  0  0  0  0  0  0  0  0
    5.2224    2.7597    0.0000 N   0  0  0  0  0  0  0  0  0  0  0  0
    2.3645   -0.5404    0.0000 N   0  0  0  0  0  0  0  0  0  0  0  0
    4.5080    0.6971    0.0000 C   0  0  0  0  0  0  0  0  0  0  0  0
    4.5080    1.5222    0.0000 C   0  0  0  0  0  0  0  0  0  0  0  0
    3.7935   -0.5404    0.0000 C   0  0  0  0  0  0  0  0  0  0  0  0
    5.2224    1.9347    0.0000 C   0  0  0  0  0  0  0  0  0  0  0  0
    3.0791   -0.9529    0.0000 C   0  0  0  0  0  0  0  0  0  0  0  0
    4.5080   -0.9529    0.0000 C   0  0  0  0  0  0  0  0  0  0  0  0
    3.7935   -2.1904    0.0000 C   0  0  0  0  0  0  0  0  0  0  0  0
    3.0791   -1.7779    0.0000 C   0  0  0  0  0  0  0  0  0  0  0  0
    4.5080   -1.7779    0.0000 C   0  0  0  0  0  0  0  0  0  0  0  0
    3.7935   -3.0154    0.0000 C   0  0  0  0  0  0  0  0  0  0  0  0
  1  5  1  0
  2  5  2  0
  3  6  1  0
  3  8  1  0
  4  9  1  0
  5 10  1  0
  6  7  1  0
  7  9  1  0
  8 10  2  0
  8 11  1  0
 10 13  1  0
 11 14  2  0
 12 13  2  0
 12 14  1  0
 12 15  1  0
M  CHG  2   1  -1   5   1
M  END
>  <DRUGBANK_ID>  (1) 
DB05492

>  <SECONDARY_ACCESSION_NUMBERS>  (1) 
DB08290

>  <COMMON_NAME>  (1) 
Epicept NP-1

$$$$
