
     RDKit          2D

 20 20  0  0  0  0  0  0  0  0999 V2000
   -2.4613   -2.0934    0.0000 C   0  0  0  0  0  0  0  0  0  0  0  0
   -2.4613   -2.8860    0.0000 C   0  0  0  0  0  0  0  0  0  0  0  0
   -1.7785   -3.2802    0.0000 C   0  0  0  0  0  0  0  0  0  0  0  0
   -1.0915   -2.8860    0.0000 C   0  0  0  0  0  0  0  0  0  0  0  0
   -1.0915   -2.0934    0.0000 C   0  0  0  0  0  0  0  0  0  0  0  0
   -1.7785   -1.6948    0.0000 C   0  0  0  0  0  0  0  0  0  0  0  0
   -1.3708   -0.9766    0.0000 C   0  0  0  0  0  0  0  0  0  0  0  0
   -2.1985   -0.9766    0.0000 C   0  0  0  0  0  0  0  0  0  0  0  0
   -0.3810   -3.2977    0.0000 C   0  0  0  0  0  0  0  0  0  0  0  0
   -0.3810   -1.6773    0.0000 C   0  0  0  0  0  0  0  0  0  0  0  0
   -0.3854   -0.8496    0.0000 C   0  0  0  0  0  0  0  0  0  0  0  0
    0.3284   -0.4336    0.0000 C   0  0  0  0  0  0  0  0  0  0  0  0
    0.3240    0.3941    0.0000 C   0  0  0  0  0  0  0  0  0  0  0  0
    1.0379    0.8101    0.0000 C   0  0  0  0  0  0  0  0  0  0  0  0
    1.0335    1.6378    0.0000 C   0  0  0  0  0  0  0  0  0  0  0  0
    1.7473    2.0539    0.0000 C   0  0  0  0  0  0  0  0  0  0  0  0
    1.7429    2.8816    0.0000 C   0  0  0  0  0  0  0  0  0  0  0  0
    2.4569    3.2977    0.0000 C   0  0  0  0  0  0  0  0  0  0  0  0
    2.4613    1.6422    0.0000 C   0  0  0  0  0  0  0  0  0  0  0  0
    1.0423   -0.8453    0.0000 C   0  0  0  0  0  0  0  0  0  0  0  0
  1  2  1  0
  1  6  1  0
  2  3  1  0
  3  4  2  0
  4  5  1  0
  4  9  1  0
  5 10  2  0
  5  6  1  0
  6  7  1  0
  6  8  1  0
 10 11  1  0
 11 12  2  0
 12 13  1  0
 12 20  1  0
 13 14  2  0
 14 15  1  0
 15 16  2  0
 16 17  1  0
 16 19  1  0
 17 18  2  0
M  END
>  <DRUGBANK_ID>  (1) 
DB02914

>  <SECONDARY_ACCESSION_NUMBERS>  (1) 
EXPT00525

>  <COMMON_NAME>  (1) 
Anhydrovitamin A

>  <CAS_NUMBER>  (1) 
1224-78-8

>  <UNII>  (1) 
235BBF3K97

>  <SYNONYMS>  (1) 
Anhydro-retinol

$$$$
