
     RDKit          2D

 13 13  0  0  1  0  0  0  0  0999 V2000
    1.4289   -1.6500    0.0000 C   0  0  0  0  0  0  0  0  0  0  0  0
    2.1434    1.2375    0.0000 C   0  0  0  0  0  0  0  0  0  0  0  0
    1.4289    0.8250    0.0000 C   0  0  0  0  0  0  0  0  0  0  0  0
    0.7145    1.2375    0.0000 C   0  0  0  0  0  0  0  0  0  0  0  0
    0.0000    0.8250    0.0000 C   0  0  0  0  0  0  0  0  0  0  0  0
    0.0000    0.0000    0.0000 C   0  0  0  0  0  0  0  0  0  0  0  0
    0.7145   -0.4125    0.0000 C   0  0  0  0  0  0  0  0  0  0  0  0
    0.7145    2.0625    0.0000 O   0  0  0  0  0  0  0  0  0  0  0  0
   -0.7145    1.2375    0.0000 O   0  0  0  0  0  0  0  0  0  0  0  0
   -0.7145   -0.4125    0.0000 O   0  0  0  0  0  0  0  0  0  0  0  0
    0.7145   -1.2375    0.0000 O   0  0  0  0  0  0  0  0  0  0  0  0
    1.4289   -0.0000    0.0000 O   0  0  0  0  0  0  0  0  0  0  0  0
    2.8579    0.8250    0.0000 S   0  0  0  0  0  0  0  0  0  0  0  0
  3  2  1  1
  4  3  1  0
  4  8  1  1
  5  4  1  0
  5  9  1  1
  6  5  1  0
  6 10  1  6
  7  6  1  0
  7 11  1  1
 11  1  1  0
 12  3  1  0
 12  7  1  0
 13  2  2  0
M  END
>  <DRUGBANK_ID>  (1) 
DB04508

>  <SECONDARY_ACCESSION_NUMBERS>  (1) 
EXPT03243

>  <COMMON_NAME>  (1) 
Methyl(6s)-1-Thio-L-Manno-Hexodialdo-6,2-Pyranoside

$$$$
