253
     RDKit          2D

 25 28  0  0  0  0  0  0  0  0999 V2000
   -3.6390    0.5094    0.0000 C   0  0  0  0  0  0  0  0  0  0  0  0
   -2.9246    0.9219    0.0000 O   0  0  0  0  0  0  0  0  0  0  0  0
   -2.2101    0.5094    0.0000 C   0  0  0  0  0  0  0  0  0  0  0  0
   -1.4956    0.9219    0.0000 C   0  0  0  0  0  0  0  0  0  0  0  0
   -1.4956    1.7469    0.0000 O   0  0  0  0  0  0  0  0  0  0  0  0
   -0.7811    2.1594    0.0000 C   0  0  0  0  0  0  0  0  0  0  0  0
   -0.7811    0.5094    0.0000 C   0  0  0  0  0  0  0  0  0  0  0  0
   -0.7811   -0.3156    0.0000 C   0  0  0  0  0  0  0  0  0  0  0  0
   -0.0667   -0.7281    0.0000 C   0  0  0  0  0  0  0  0  0  0  0  0
    0.6478   -0.3156    0.0000 C   0  0  0  0  0  0  0  0  0  0  0  0
    1.3623   -0.7281    0.0000 C   0  0  0  0  0  0  0  0  0  0  0  0
    1.3623   -1.5531    0.0000 N   0  0  0  0  0  0  0  0  0  0  0  0
    2.0767   -0.3156    0.0000 C   0  0  0  0  0  0  0  0  0  0  0  0
    2.7912   -0.7281    0.0000 C   0  0  0  0  0  0  0  0  0  0  0  0
    2.0767    0.5094    0.0000 C   0  0  0  0  0  0  0  0  0  0  0  0
    2.7912    0.9219    0.0000 N   0  0  0  0  0  0  0  0  0  0  0  0
    1.3623    0.9219    0.0000 C   0  0  0  0  0  0  0  0  0  0  0  0
    0.6478    0.5094    0.0000 C   0  0  0  0  0  0  0  0  0  0  0  0
   -0.0667   -1.5531    0.0000 C   0  0  0  0  0  0  0  0  0  0  0  0
    0.6478   -1.9656    0.0000 C   0  0  0  0  0  0  0  0  0  0  0  0
    0.6478   -2.7906    0.0000 N   0  0  0  0  0  0  0  0  0  0  0  0
   -0.7811   -1.9656    0.0000 C   0  0  0  0  0  0  0  0  0  0  0  0
   -1.4956   -1.5531    0.0000 N   0  0  0  0  0  0  0  0  0  0  0  0
   -1.4956   -0.7281    0.0000 C   0  0  0  0  0  0  0  0  0  0  0  0
   -2.2101   -0.3156    0.0000 C   0  0  0  0  0  0  0  0  0  0  0  0
  2  1  1  0
  3  4  2  0
  3  2  1  0
  4  5  1  0
  6  5  1  0
  7  4  1  0
  8  7  2  0
  9  8  1  0
 10  9  2  0
 10 18  1  0
 11 10  1  0
 12 20  1  0
 12 11  2  0
 13 11  1  0
 13 15  2  0
 14 13  1  0
 15 17  1  0
 16 15  1  0
 17 18  2  0
 19 22  1  0
 19  9  1  0
 20 19  2  0
 21 20  1  0
 22 23  2  0
 23 24  1  0
 24  8  1  0
 24 25  2  0
 25  3  1  0
M  END
>  <DRUGBANK_ID>  (1) 
DB06932

>  <COMMON_NAME>  (1) 
10,11-dimethoxy-4-methyldibenzo[c,f]-2,7-naphthyridine-3,6-diamine

$$$$
