
     RDKit          2D

 13 13  0  0  0  0  0  0  0  0999 V2000
    0.4958   -1.0330    0.0000 N   0  0  0  0  0  0  0  0  0  0  0  0
    0.6674   -0.2260    0.0000 C   0  0  0  0  0  0  0  0  0  0  0  0
    1.4520    0.0288    0.0000 C   0  0  0  0  0  0  0  0  0  0  0  0
    2.0651   -0.5231    0.0000 O   0  0  0  0  0  0  0  0  0  0  0  0
    1.6235    0.8359    0.0000 O   0  0  0  0  0  0  0  0  0  0  0  0
    0.0543    0.3259    0.0000 C   0  0  0  0  0  0  0  0  0  0  0  0
   -0.7303    0.0710    0.0000 C   0  0  0  0  0  0  0  0  0  0  0  0
   -0.9852   -0.7136    0.0000 C   0  0  0  0  0  0  0  0  0  0  0  0
   -1.3977    0.5559    0.0000 C   0  0  0  0  0  0  0  0  0  0  0  0
   -1.3977    1.3810    0.0000 C   0  0  0  0  0  0  0  0  0  0  0  0
   -0.5003   -1.3810    0.0000 O   0  0  0  0  0  0  0  0  0  0  0  0
   -1.8102   -0.7136    0.0000 N   0  0  0  0  0  0  0  0  0  0  0  0
   -2.0651    0.0710    0.0000 O   0  0  0  0  0  0  0  0  0  0  0  0
  2  1  1  1
  2  6  1  0
  3  2  1  0
  3  4  2  0
  3  5  1  0
  6  7  1  0
  8  7  1  0
  8 11  1  0
  8 12  2  0
  9  7  2  0
  9 10  1  0
  9 13  1  0
 12 13  1  0
M  END
>  <DRUGBANK_ID>  (1) 
DB02057

>  <SECONDARY_ACCESSION_NUMBERS>  (1) 
EXPT00513

>  <COMMON_NAME>  (1) 
(S)-AMPA

>  <CAS_NUMBER>  (1) 
83643-88-3

>  <UNII>  (1) 
9280SC28GD

>  <SYNONYMS>  (1) 
(S)-alpha-Amino-3-hydroxy-5-methyl-4-isoxazolepropionic acid; L-AMPA; S-AMPA

$$$$
