
     RDKit          2D

 23 26  0  0  0  0  0  0  0  0999 V2000
   -1.6377   -0.4137    0.0000 C   0  0  0  0  0  0  0  0  0  0  0  0
   -2.3522   -0.8263    0.0000 C   0  0  0  0  0  0  0  0  0  0  0  0
   -2.3522   -1.6512    0.0000 C   0  0  0  0  0  0  0  0  0  0  0  0
   -1.6377   -2.0637    0.0000 C   0  0  0  0  0  0  0  0  0  0  0  0
   -0.9232   -1.6512    0.0000 C   0  0  0  0  0  0  0  0  0  0  0  0
   -0.2087   -2.0637    0.0000 C   0  0  0  0  0  0  0  0  0  0  0  0
    0.5056   -1.6512    0.0000 C   0  0  0  0  0  0  0  0  0  0  0  0
   -0.2087    0.4112    0.0000 C   0  0  0  0  0  0  0  0  0  0  0  0
    0.5056    0.8237    0.0000 C   0  0  0  0  0  0  0  0  0  0  0  0
   -0.2087   -0.4137    0.0000 C   0  0  0  0  0  0  0  0  0  0  0  0
    1.2201    1.2362    0.0000 C   0  0  0  0  0  0  0  0  0  0  0  0
   -0.9232   -0.8263    0.0000 C   0  0  0  0  0  0  0  0  0  0  0  0
   -0.9232   -0.0012    0.0000 C   0  0  0  0  0  0  0  0  0  0  0  0
    0.5056   -0.8263    0.0000 C   0  0  0  0  0  0  0  0  0  0  0  0
    2.0047    0.6661    0.0000 C   0  0  0  0  0  0  0  0  0  0  0  0
    1.2201    0.4112    0.0000 C   0  0  0  0  0  0  0  0  0  0  0  0
    2.0047   -0.6687    0.0000 C   0  0  0  0  0  0  0  0  0  0  0  0
    2.4896   -0.0012    0.0000 C   0  0  0  0  0  0  0  0  0  0  0  0
    1.2201   -0.4137    0.0000 C   0  0  0  0  0  0  0  0  0  0  0  0
    2.2597    1.4507    0.0000 C   0  0  0  0  0  0  0  0  0  0  0  0
    3.0666    1.6222    0.0000 C   0  0  0  0  0  0  0  0  0  0  0  0
    1.7076    2.0637    0.0000 O   0  0  0  0  0  0  0  0  0  0  0  0
   -3.0666   -2.0637    0.0000 O   0  0  0  0  0  0  0  0  0  0  0  0
  2  1  1  0
  3  4  1  0
  3  2  1  0
  3 23  1  1
  4  5  1  0
  6  7  1  0
  6  5  2  0
  8  9  1  0
 10  8  1  1
 10 12  1  0
 12  5  1  0
 12  1  1  0
 12 13  1  1
 14 10  1  0
 14  7  1  6
 15 20  1  1
 15 18  1  0
 16  9  1  0
 16 11  1  1
 16 15  1  0
 18 17  1  0
 19 14  1  0
 19 16  1  0
 19 17  1  1
 21 20  1  0
 22 20  2  0
M  END
>  <DRUGBANK_ID>  (1) 
DB02789

>  <SECONDARY_ACCESSION_NUMBERS>  (1) 
EXPT02608

>  <COMMON_NAME>  (1) 
Pregnenolone

>  <CAS_NUMBER>  (1) 
145-13-1

>  <UNII>  (1) 
73R90F7MQ8

>  <SYNONYMS>  (1) 
Pregnenolone

$$$$
