
     RDKit          2D

  9  8  0  0  0  0  0  0  0  0999 V2000
   -0.5230    1.1270    0.0000 C   0  0  0  0  0  0  0  0  0  0  0  0
    0.3020   -0.3020    0.0000 C   0  0  0  0  0  0  0  0  0  0  0  0
   -0.8250    0.0000    0.0000 C   0  0  0  0  0  0  0  0  0  0  0  0
    0.6039    0.8250    0.0000 C   0  0  0  0  0  0  0  0  0  0  0  0
   -0.1105    0.4125    0.0000 C   0  0  0  0  0  0  0  0  0  0  0  0
   -1.3480    1.1270    0.0000 O   0  0  0  0  0  0  0  0  0  0  0  0
    1.1270   -0.3020    0.0000 O   0  0  0  0  0  0  0  0  0  0  0  0
   -1.5395    0.4125    0.0000 O   0  0  0  0  0  0  0  0  0  0  0  0
    1.3184    0.4125    0.0000 O   0  0  0  0  0  0  0  0  0  0  0  0
  5  1  1  0
  5  2  1  0
  5  3  1  0
  5  4  1  0
  6  1  1  0
  7  2  1  0
  8  3  1  0
  9  4  1  0
M  END
>  <DRUGBANK_ID>  (1) 
DB13526

>  <COMMON_NAME>  (1) 
Pentaerithrityl

>  <CAS_NUMBER>  (1) 
115-77-5

>  <UNII>  (1) 
SU420W1S6N

>  <SYNONYMS>  (1) 
Pentaerythritol

$$$$
