
     RDKit          2D

 24 26  0  0  0  0  0  0  0  0999 V2000
   -3.5723    0.2062    0.0000 C   0  0  0  0  0  0  0  0  0  0  0  0
   -2.8579   -0.2062    0.0000 C   0  0  0  0  0  0  0  0  0  0  0  0
   -2.8579   -1.0312    0.0000 C   0  0  0  0  0  0  0  0  0  0  0  0
   -3.5723   -1.4438    0.0000 C   0  0  0  0  0  0  0  0  0  0  0  0
   -4.2868   -1.0313    0.0000 C   0  0  0  0  0  0  0  0  0  0  0  0
   -4.2869   -0.2062    0.0000 C   0  0  0  0  0  0  0  0  0  0  0  0
   -2.1434    0.2062    0.0000 C   0  0  0  0  0  0  0  0  0  0  0  0
   -1.4289   -0.2062    0.0000 C   0  0  0  0  0  0  0  0  0  0  0  0
   -1.4289   -1.0312    0.0000 C   0  0  0  0  0  0  0  0  0  0  0  0
   -2.1434   -1.4437    0.0000 C   0  0  0  0  0  0  0  0  0  0  0  0
   -0.7144   -1.4437    0.0000 O   0  0  0  0  0  0  0  0  0  0  0  0
   -0.7144    0.2062    0.0000 C   0  0  0  0  0  0  0  0  0  0  0  0
    0.0000   -0.2062    0.0000 N   0  0  0  0  0  0  0  0  0  0  0  0
    0.7145    0.2062    0.0000 N   0  0  0  0  0  0  0  0  0  0  0  0
    1.4290   -0.2062    0.0000 C   0  0  0  0  0  0  0  0  0  0  0  0
    2.1435    0.2062    0.0000 C   0  0  0  0  0  0  0  0  0  0  0  0
   -0.7144    1.0313    0.0000 O   0  0  0  0  0  0  0  0  0  0  0  0
    2.8579   -0.2062    0.0000 C   0  0  0  0  0  0  0  0  0  0  0  0
    3.5724    0.2062    0.0000 C   0  0  0  0  0  0  0  0  0  0  0  0
    3.5724    1.0313    0.0000 C   0  0  0  0  0  0  0  0  0  0  0  0
    2.8579    1.4438    0.0000 C   0  0  0  0  0  0  0  0  0  0  0  0
    2.1435    1.0313    0.0000 C   0  0  0  0  0  0  0  0  0  0  0  0
    4.2869    1.4438    0.0000 O   0  0  0  0  0  0  0  0  0  0  0  0
    4.2869   -0.2062    0.0000 O   0  0  0  0  0  0  0  0  0  0  0  0
  1  2  2  0
  2  3  1  0
  2  7  1  0
  3  4  2  0
  4  5  1  0
  5  6  2  0
  6  1  1  0
  7  8  2  0
  8  9  1  0
  8 12  1  0
  9 10  2  0
  9 11  1  0
 10  3  1  0
 12 13  1  0
 12 17  2  0
 13 14  1  0
 14 15  2  0
 15 16  1  0
 16 18  2  0
 18 19  1  0
 19 20  2  0
 19 24  1  0
 20 21  1  0
 20 23  1  0
 21 22  2  0
 22 16  1  0
M  END
>  <DRUGBANK_ID>  (1) 
DB15964

>  <COMMON_NAME>  (1) 
Dynasore

>  <CAS_NUMBER>  (1) 
304448-55-3

>  <SYNONYMS>  (1) 
3-Hydroxynaphthalene-2-carboxylic acid (3,4-dihydroxybenzylidene)hydrazide; Dynamin Inhibitor I

$$$$
