824
     RDKit          2D

 25 29  0  0  0  0  0  0  0  0999 V2000
    2.5678    2.6568    0.0000 O   0  0  0  0  0  0  0  0  0  0  0  0
    2.3248    1.8684    0.0000 C   0  0  0  0  0  0  0  0  0  0  0  0
    2.8861    1.2638    0.0000 C   0  0  0  0  0  0  0  0  0  0  0  0
    2.6431    0.4754    0.0000 C   0  0  0  0  0  0  0  0  0  0  0  0
    1.8389    0.2916    0.0000 C   0  0  0  0  0  0  0  0  0  0  0  0
    1.2776    0.8962    0.0000 C   0  0  0  0  0  0  0  0  0  0  0  0
    1.5206    1.6846    0.0000 C   0  0  0  0  0  0  0  0  0  0  0  0
    0.5291    0.5492    0.0000 C   0  0  0  0  0  0  0  0  0  0  0  0
    0.6278   -0.2698    0.0000 C   0  0  0  0  0  0  0  0  0  0  0  0
    1.4373   -0.4291    0.0000 N   0  0  0  0  0  0  0  0  0  0  0  0
   -0.2296    0.8733    0.0000 C   0  0  0  0  0  0  0  0  0  0  0  0
   -0.4964    1.6539    0.0000 C   0  0  0  0  0  0  0  0  0  0  0  0
   -0.0217    2.3287    0.0000 O   0  0  0  0  0  0  0  0  0  0  0  0
   -0.8896    0.3783    0.0000 C   0  0  0  0  0  0  0  0  0  0  0  0
   -1.5643    0.8530    0.0000 C   0  0  0  0  0  0  0  0  0  0  0  0
   -2.3450    0.5862    0.0000 O   0  0  0  0  0  0  0  0  0  0  0  0
   -1.3213    1.6414    0.0000 N   0  0  0  0  0  0  0  0  0  0  0  0
   -0.7909   -0.4408    0.0000 C   0  0  0  0  0  0  0  0  0  0  0  0
   -0.0322   -0.7649    0.0000 C   0  0  0  0  0  0  0  0  0  0  0  0
   -1.4509   -0.9358    0.0000 C   0  0  0  0  0  0  0  0  0  0  0  0
   -1.3522   -1.7549    0.0000 C   0  0  0  0  0  0  0  0  0  0  0  0
   -2.0122   -2.2499    0.0000 C   0  0  0  0  0  0  0  0  0  0  0  0
   -2.7709   -1.9258    0.0000 C   0  0  0  0  0  0  0  0  0  0  0  0
   -2.8696   -1.1068    0.0000 C   0  0  0  0  0  0  0  0  0  0  0  0
   -2.2096   -0.6118    0.0000 C   0  0  0  0  0  0  0  0  0  0  0  0
  1  2  1  0
  2  3  2  0
  2  7  1  0
  3  4  1  0
  4  5  2  0
  5  6  1  0
  5 10  1  0
  6  7  2  0
  6  8  1  0
  8  9  2  0
  8 11  1  0
  9 10  1  0
  9 19  1  0
 11 12  1  0
 11 14  2  0
 12 13  2  0
 12 17  1  0
 14 15  1  0
 14 18  1  0
 15 16  2  0
 15 17  1  0
 18 19  2  0
 18 20  1  0
 20 21  2  0
 20 25  1  0
 21 22  1  0
 22 23  2  0
 23 24  1  0
 24 25  2  0
M  END
>  <DRUGBANK_ID>  (1) 
DB04608

>  <COMMON_NAME>  (1) 
9-HYDROXY-4-PHENYL-6H-PYRROLO[3,4-C]CARBAZOLE-1,3-DIONE

$$$$
