MB9
     RDKit          2D

 23 26  0  0  0  0  0  0  0  0999 V2000
    0.5631    0.7907    0.0000 C   0  0  0  0  0  0  0  0  0  0  0  0
    1.2853    1.1895    0.0000 C   0  0  0  0  0  0  0  0  0  0  0  0
    1.9918    0.7635    0.0000 N   0  0  0  0  0  0  0  0  0  0  0  0
    1.9761   -0.0614    0.0000 C   0  0  0  0  0  0  0  0  0  0  0  0
    1.2539   -0.4602    0.0000 C   0  0  0  0  0  0  0  0  0  0  0  0
    0.5474   -0.0342    0.0000 C   0  0  0  0  0  0  0  0  0  0  0  0
    0.5318   -0.8591    0.0000 N   0  0  0  0  0  0  0  0  0  0  0  0
   -0.1904   -1.2579    0.0000 C   0  0  0  0  0  0  0  0  0  0  0  0
   -0.2061   -2.0827    0.0000 O   0  0  0  0  0  0  0  0  0  0  0  0
   -0.8969   -0.8319    0.0000 C   0  0  0  0  0  0  0  0  0  0  0  0
   -1.6863   -1.0718    0.0000 N   0  0  0  0  0  0  0  0  0  0  0  0
   -1.9561   -1.8515    0.0000 C   0  0  0  0  0  0  0  0  0  0  0  0
   -2.1584   -0.3953    0.0000 C   0  0  0  0  0  0  0  0  0  0  0  0
   -2.9771   -0.2935    0.0000 C   0  0  0  0  0  0  0  0  0  0  0  0
   -3.2982    0.4665    0.0000 C   0  0  0  0  0  0  0  0  0  0  0  0
   -4.1169    0.5683    0.0000 Cl  0  0  0  0  0  0  0  0  0  0  0  0
   -2.8007    1.1246    0.0000 C   0  0  0  0  0  0  0  0  0  0  0  0
   -1.9820    1.0227    0.0000 C   0  0  0  0  0  0  0  0  0  0  0  0
   -1.6609    0.2628    0.0000 C   0  0  0  0  0  0  0  0  0  0  0  0
   -0.8812   -0.0070    0.0000 C   0  0  0  0  0  0  0  0  0  0  0  0
   -0.1590    0.3918    0.0000 C   0  0  0  0  0  0  0  0  0  0  0  0
   -0.1434    1.2167    0.0000 C   0  0  0  0  0  0  0  0  0  0  0  0
   -0.1277    2.0415    0.0000 N   0  0  0  0  0  0  0  0  0  0  0  0
  1  2  1  0
  1  6  1  0
  2  3  1  0
  3  4  1  0
  4  5  1  0
  5  6  1  0
  6  7  1  0
  6 21  1  0
  7  8  1  0
  8  9  2  0
  8 10  1  0
 10 11  1  0
 10 20  2  0
 11 12  1  0
 11 13  1  0
 13 14  2  0
 13 19  1  0
 14 15  1  0
 15 16  1  0
 15 17  2  0
 17 18  1  0
 18 19  2  0
 19 20  1  0
 20 21  1  0
 21 22  1  1
 22 23  3  0
M  END
>  <DRUGBANK_ID>  (1) 
DB08166

>  <COMMON_NAME>  (1) 
(4R)-7-chloro-9-methyl-1-oxo-1,2,4,9-tetrahydrospiro[beta-carboline-3,4'-piperidine]-4-carbonitrile

$$$$
