
     RDKit          2D

 29 31  0  0  0  0  0  0  0  0999 V2000
   -1.8111   -0.1837    0.0000 C   0  0  0  0  0  0  0  0  0  0  0  0
   -2.5183    0.2286    0.0000 C   0  0  0  0  0  0  0  0  0  0  0  0
   -1.0658    0.2286    0.0000 C   0  0  0  0  0  0  0  0  0  0  0  0
   -1.8111   -1.0572    0.0000 C   0  0  0  0  0  0  0  0  0  0  0  0
   -2.5183    1.0536    0.0000 C   0  0  0  0  0  0  0  0  0  0  0  0
   -3.2461   -0.1837    0.0000 C   0  0  0  0  0  0  0  0  0  0  0  0
   -0.3621   -0.1837    0.0000 C   0  0  0  0  0  0  0  0  0  0  0  0
   -1.0658    1.0536    0.0000 C   0  0  0  0  0  0  0  0  0  0  0  0
   -1.1074   -1.4177    0.0000 C   0  0  0  0  0  0  0  0  0  0  0  0
   -2.5286   -1.4177    0.0000 C   0  0  0  0  0  0  0  0  0  0  0  0
   -1.8077    1.4592    0.0000 C   0  0  0  0  0  0  0  0  0  0  0  0
   -3.2289    1.4557    0.0000 C   0  0  0  0  0  0  0  0  0  0  0  0
   -3.9567    0.2356    0.0000 C   0  0  0  0  0  0  0  0  0  0  0  0
    0.3587    0.2286    0.0000 C   0  0  0  0  0  0  0  0  0  0  0  0
   -0.3621    1.4765    0.0000 C   0  0  0  0  0  0  0  0  0  0  0  0
   -1.1074   -2.2739    0.0000 C   0  0  0  0  0  0  0  0  0  0  0  0
   -2.5286   -2.2739    0.0000 C   0  0  0  0  0  0  0  0  0  0  0  0
   -1.8077    2.2773    0.0000 C   0  0  0  0  0  0  0  0  0  0  0  0
   -3.2322    2.2739    0.0000 C   0  0  0  0  0  0  0  0  0  0  0  0
    0.3587    1.0536    0.0000 C   0  0  0  0  0  0  0  0  0  0  0  0
   -1.8354   -2.6933    0.0000 C   0  0  0  0  0  0  0  0  0  0  0  0
   -0.3899   -2.6898    0.0000 O   0  0  0  0  0  0  0  0  0  0  0  0
   -2.5183    2.6933    0.0000 C   0  0  0  0  0  0  0  0  0  0  0  0
    1.0866    1.4973    0.0000 O   0  0  0  0  0  0  0  0  0  0  0  0
    1.8215    1.0814    0.0000 C   0  0  0  0  0  0  0  0  0  0  0  0
    2.5425    1.4973    0.0000 C   0  0  0  0  0  0  0  0  0  0  0  0
    3.2565    1.1022    0.0000 N   0  0  0  0  0  0  0  0  0  0  0  0
    3.9567    1.4973    0.0000 C   0  0  0  0  0  0  0  0  0  0  0  0
    3.2565    0.2286    0.0000 C   0  0  0  0  0  0  0  0  0  0  0  0
  1  2  2  0
  1  3  1  0
  1  4  1  0
  2  5  1  0
  2  6  1  0
  3  7  2  0
  3  8  1  0
  4  9  2  0
  4 10  1  0
  5 11  2  0
  5 12  1  0
  6 13  1  0
  7 14  1  0
  8 15  2  0
  9 16  1  0
 10 17  2  0
 11 18  1  0
 12 19  2  0
 14 20  2  0
 15 20  1  0
 16 21  2  0
 16 22  1  0
 17 21  1  0
 18 23  2  0
 19 23  1  0
 20 24  1  0
 24 25  1  0
 25 26  1  0
 26 27  1  0
 27 28  1  0
 27 29  1  0
M  END
>  <DRUGBANK_ID>  (1) 
DB15641

>  <COMMON_NAME>  (1) 
Droloxifene

>  <CAS_NUMBER>  (1) 
82413-20-5

>  <UNII>  (1) 
0M67U6Z98F

>  <SYNONYMS>  (1) 
Droloxifene; Droloxifeno; Droloxifenum

$$$$
