CM9
     RDKit          2D

 24 25  0  0  0  0  0  0  0  0999 V2000
  -10.8536   -1.1839    0.0000 O   0  0  0  0  0  0  0  0  0  0  0  0
  -10.1391   -1.5964    0.0000 C   0  0  0  0  0  0  0  0  0  0  0  0
  -10.1391   -2.4214    0.0000 C   0  0  0  0  0  0  0  0  0  0  0  0
   -9.4246   -2.8339    0.0000 C   0  0  0  0  0  0  0  0  0  0  0  0
   -9.4246   -3.6589    0.0000 C   0  0  0  0  0  0  0  0  0  0  0  0
  -10.1391   -4.0714    0.0000 C   0  0  0  0  0  0  0  0  0  0  0  0
  -10.1391   -4.8964    0.0000 C   0  0  0  0  0  0  0  0  0  0  0  0
  -10.8536   -3.6589    0.0000 C   0  0  0  0  0  0  0  0  0  0  0  0
  -10.8536   -2.8339    0.0000 C   0  0  0  0  0  0  0  0  0  0  0  0
   -9.4246   -1.1839    0.0000 N   0  0  0  0  0  0  0  0  0  0  0  0
   -9.4246   -0.3589    0.0000 C   0  0  0  0  0  0  0  0  0  0  0  0
  -10.1391    0.0536    0.0000 C   0  0  0  0  0  0  0  0  0  0  0  0
  -10.1391    0.8786    0.0000 C   0  0  0  0  0  0  0  0  0  0  0  0
  -10.8536    1.2911    0.0000 S   0  0  0  0  0  0  0  0  0  0  0  0
  -10.8536    2.1161    0.0000 C   0  0  0  0  0  0  0  0  0  0  0  0
   -8.7102    0.0536    0.0000 C   0  0  0  0  0  0  0  0  0  0  0  0
   -7.9957   -0.3589    0.0000 O   0  0  0  0  0  0  0  0  0  0  0  0
   -8.7102    0.8786    0.0000 N   0  0  0  0  0  0  0  0  0  0  0  0
   -7.9957    1.2911    0.0000 C   0  0  0  0  0  0  0  0  0  0  0  0
   -7.9957    2.1161    0.0000 C   0  0  0  0  0  0  0  0  0  0  0  0
   -7.2812    2.5286    0.0000 C   0  0  0  0  0  0  0  0  0  0  0  0
   -6.5667    2.1161    0.0000 N   0  0  0  0  0  0  0  0  0  0  0  0
   -6.5667    1.2911    0.0000 C   0  0  0  0  0  0  0  0  0  0  0  0
   -7.2812    0.8786    0.0000 C   0  0  0  0  0  0  0  0  0  0  0  0
  1  2  2  0
  2 10  1  0
  3  2  1  6
  3  4  1  0
  3  9  1  0
  4  5  1  0
  5  6  1  0
  6  7  1  6
  6  8  1  0
  8  9  1  0
 11 10  1  0
 11 12  1  1
 11 16  1  0
 12 13  1  0
 13 14  1  0
 14 15  1  0
 16 17  2  0
 16 18  1  0
 18 19  1  0
 19 20  2  0
 19 24  1  0
 20 21  1  0
 21 22  2  0
 22 23  1  0
 23 24  2  0
M  END
>  <DRUGBANK_ID>  (1) 
DB07569

>  <COMMON_NAME>  (1) 
CIS-4-METHYL-N-[(1S)-3-(METHYLSULFANYL)-1-(PYRIDIN-4-YLCARBAMOYL)PROPYL]CYCLOHEXANECARBOXAMIDE

$$$$
