
     RDKit          2D

 22 22  0  0  0  0  0  0  0  0999 V2000
    2.8579    0.8250    0.0000 C   0  0  0  0  0  0  0  0  0  0  0  0
    7.1447   -1.6500    0.0000 C   0  0  0  0  0  0  0  0  0  0  0  0
    5.1927   -1.1270    0.0000 C   0  0  0  0  0  0  0  0  0  0  0  0
    2.8579    2.4750    0.0000 C   0  0  0  0  0  0  0  0  0  0  0  0
    6.8427    0.3020    0.0000 C   0  0  0  0  0  0  0  0  0  0  0  0
    3.5724    1.2375    0.0000 C   0  0  0  0  0  0  0  0  0  0  0  0
    7.1447   -0.8250    0.0000 C   0  0  0  0  0  0  0  0  0  0  0  0
    6.0177   -1.1270    0.0000 C   0  0  0  0  0  0  0  0  0  0  0  0
    4.2868    4.9500    0.0000 C   0  0  0  0  0  0  0  0  0  0  0  0
    3.5724    4.5375    0.0000 C   0  0  0  0  0  0  0  0  0  0  0  0
    5.0013    4.5375    0.0000 C   0  0  0  0  0  0  0  0  0  0  0  0
    3.5724    3.7125    0.0000 C   0  0  0  0  0  0  0  0  0  0  0  0
    5.0013    3.7125    0.0000 C   0  0  0  0  0  0  0  0  0  0  0  0
    5.7158    0.0000    0.0000 C   0  0  0  0  0  0  0  0  0  0  0  0
    5.7158    0.8250    0.0000 C   0  0  0  0  0  0  0  0  0  0  0  0
    3.5724    2.0625    0.0000 C   0  0  0  0  0  0  0  0  0  0  0  0
    4.2868    3.3000    0.0000 C   0  0  0  0  0  0  0  0  0  0  0  0
    4.2868    2.4750    0.0000 C   0  0  0  0  0  0  0  0  0  0  0  0
    5.0013    2.0625    0.0000 C   0  0  0  0  0  0  0  0  0  0  0  0
    6.4302   -0.4125    0.0000 N   0  0  0  0  0  0  0  0  0  0  0  0
    5.7158    2.4750    0.0000 O   0  0  0  0  0  0  0  0  0  0  0  0
    5.0013    1.2375    0.0000 O   0  0  0  0  0  0  0  0  0  0  0  0
  6  1  1  0
  7  2  1  0
  8  3  1  0
 10  9  2  0
 11  9  1  0
 12 10  1  0
 13 11  2  0
 15 14  1  0
 16  4  1  0
 16  6  1  0
 17 12  2  0
 17 13  1  0
 18 16  1  0
 18 17  1  0
 19 18  1  0
 20  5  1  0
 20  7  1  0
 20  8  1  0
 20 14  1  0
 21 19  2  0
 22 15  1  0
 22 19  1  0
M  CHG  1  20   1
M  END
>  <DRUGBANK_ID>  (1) 
DB13497

>  <COMMON_NAME>  (1) 
Valethamate

>  <CAS_NUMBER>  (1) 
16376-74-2

>  <UNII>  (1) 
D64S64QVX7

$$$$
