
     RDKit          2D

 39 42  0  0  0  0  0  0  0  0999 V2000
   -8.6329   -2.8579    0.0000 C   0  0  0  0  0  0  0  0  0  0  0  0
   -7.9184   -3.2704    0.0000 C   0  0  0  0  0  0  0  0  0  0  0  0
   -7.2039   -2.8579    0.0000 C   0  0  0  0  0  0  0  0  0  0  0  0
   -7.2039   -2.0329    0.0000 C   0  0  0  0  0  0  0  0  0  0  0  0
   -6.4895   -3.2704    0.0000 C   0  0  0  0  0  0  0  0  0  0  0  0
   -5.7750   -2.8579    0.0000 O   0  0  0  0  0  0  0  0  0  0  0  0
   -6.4895   -4.0954    0.0000 C   0  0  0  0  0  0  0  0  0  0  0  0
   -5.7750   -4.5079    0.0000 C   0  0  0  0  0  0  0  0  0  0  0  0
   -5.0605   -4.0954    0.0000 C   0  0  0  0  0  0  0  0  0  0  0  0
   -4.3461   -4.5079    0.0000 C   0  0  0  0  0  0  0  0  0  0  0  0
   -3.6316   -4.0954    0.0000 C   0  0  0  0  0  0  0  0  0  0  0  0
   -2.9171   -4.5079    0.0000 C   0  0  0  0  0  0  0  0  0  0  0  0
   -2.2026   -4.0954    0.0000 C   0  0  0  0  0  0  0  0  0  0  0  0
   -1.4882   -4.5079    0.0000 C   0  0  0  0  0  0  0  0  0  0  0  0
   -0.7737   -4.0954    0.0000 C   0  0  0  0  0  0  0  0  0  0  0  0
   -0.0592   -4.5079    0.0000 C   0  0  0  0  0  0  0  0  0  0  0  0
    0.6552   -4.0954    0.0000 C   0  0  0  0  0  0  0  0  0  0  0  0
    1.3697   -4.5079    0.0000 P   0  0  0  0  0  0  0  0  0  0  0  0
    2.0842   -4.9204    0.0000 C   0  0  0  0  0  0  0  0  0  0  0  0
    2.7987   -4.5079    0.0000 C   0  0  0  0  0  0  0  0  0  0  0  0
    3.5131   -4.9204    0.0000 C   0  0  0  0  0  0  0  0  0  0  0  0
    3.5131   -5.7454    0.0000 C   0  0  0  0  0  0  0  0  0  0  0  0
    2.7987   -6.1579    0.0000 C   0  0  0  0  0  0  0  0  0  0  0  0
    2.0842   -5.7454    0.0000 C   0  0  0  0  0  0  0  0  0  0  0  0
    0.9572   -5.2224    0.0000 C   0  0  0  0  0  0  0  0  0  0  0  0
    1.3697   -5.9368    0.0000 C   0  0  0  0  0  0  0  0  0  0  0  0
    0.9572   -6.6513    0.0000 C   0  0  0  0  0  0  0  0  0  0  0  0
    0.1322   -6.6513    0.0000 C   0  0  0  0  0  0  0  0  0  0  0  0
   -0.2803   -5.9368    0.0000 C   0  0  0  0  0  0  0  0  0  0  0  0
    0.1322   -5.2224    0.0000 C   0  0  0  0  0  0  0  0  0  0  0  0
    1.7822   -3.7934    0.0000 C   0  0  0  0  0  0  0  0  0  0  0  0
    1.3697   -3.0789    0.0000 C   0  0  0  0  0  0  0  0  0  0  0  0
    1.7822   -2.3645    0.0000 C   0  0  0  0  0  0  0  0  0  0  0  0
    2.6072   -2.3645    0.0000 C   0  0  0  0  0  0  0  0  0  0  0  0
    3.0197   -3.0789    0.0000 C   0  0  0  0  0  0  0  0  0  0  0  0
    2.6072   -3.7934    0.0000 C   0  0  0  0  0  0  0  0  0  0  0  0
   -7.2039   -4.5079    0.0000 C   0  0  0  0  0  0  0  0  0  0  0  0
   -7.9184   -4.0954    0.0000 C   0  0  0  0  0  0  0  0  0  0  0  0
   -8.6329   -4.5079    0.0000 O   0  0  0  0  0  0  0  0  0  0  0  0
  1  2  1  0
  2  3  2  0
  2 38  1  0
  3  4  1  0
  3  5  1  0
  5  6  2  0
  5  7  1  0
  7  8  1  0
  7 37  2  0
  8  9  1  0
  9 10  1  0
 10 11  1  0
 11 12  1  0
 12 13  1  0
 13 14  1  0
 14 15  1  0
 15 16  1  0
 16 17  1  0
 17 18  1  0
 18 19  1  0
 18 25  1  0
 18 31  1  0
 19 20  2  0
 19 24  1  0
 20 21  1  0
 21 22  2  0
 22 23  1  0
 23 24  2  0
 25 26  2  0
 25 30  1  0
 26 27  1  0
 27 28  2  0
 28 29  1  0
 29 30  2  0
 31 32  2  0
 31 36  1  0
 32 33  1  0
 33 34  2  0
 34 35  1  0
 35 36  2  0
 37 38  1  0
 38 39  2  0
M  CHG  1  18   1
M  END
>  <DRUGBANK_ID>  (1) 
DB18089

>  <COMMON_NAME>  (1) 
Visometin cation

>  <CAS_NUMBER>  (1) 
934960-96-0

>  <UNII>  (1) 
207SW1QYQC

>  <SYNONYMS>  (1) 
(10-(4,5-dimethyl-3,6-dioxo-1,4-cyclohexadien-1-yl)decyl)triphenylphosphonium; Phosphonium, (10-(4,5-dimethyl-3,6-dioxo-1,4-cyclohexadien-1-yl)decyl)triphenyl-; Skq-1 cation; Skq-1 ion

$$$$
