NLT
     RDKit          2D

 26 26  0  0  0  0  0  0  0  0999 V2000
    2.8756    0.8210    0.0000 N   0  0  0  0  0  0  0  0  0  0  0  0
    2.2340    0.3023    0.0000 C   0  0  0  0  0  0  0  0  0  0  0  0
    2.3623   -0.5126    0.0000 O   0  0  0  0  0  0  0  0  0  0  0  0
    1.4640    0.5987    0.0000 C   0  0  0  0  0  0  0  0  0  0  0  0
    0.8224    0.0801    0.0000 C   0  0  0  0  0  0  0  0  0  0  0  0
    0.0525    0.3764    0.0000 C   0  0  0  0  0  0  0  0  0  0  0  0
   -0.5891   -0.1422    0.0000 C   0  0  0  0  0  0  0  0  0  0  0  0
   -1.3591    0.1542    0.0000 C   0  0  0  0  0  0  0  0  0  0  0  0
   -2.0007   -0.3644    0.0000 C   0  0  0  0  0  0  0  0  0  0  0  0
   -2.7706   -0.0681    0.0000 C   0  0  0  0  0  0  0  0  0  0  0  0
   -3.4122   -0.5867    0.0000 C   0  0  0  0  0  0  0  0  0  0  0  0
   -4.1822   -0.2904    0.0000 C   0  0  0  0  0  0  0  0  0  0  0  0
   -4.8238   -0.8090    0.0000 C   0  0  0  0  0  0  0  0  0  0  0  0
   -5.5937   -0.5126    0.0000 C   0  0  0  0  0  0  0  0  0  0  0  0
    3.6455    0.5246    0.0000 C   0  0  0  0  0  0  0  0  0  0  0  0
    4.2871    1.0432    0.0000 C   0  0  0  0  0  0  0  0  0  0  0  0
    5.0571    0.7469    0.0000 C   0  0  0  0  0  0  0  0  0  0  0  0
    5.6987    1.2655    0.0000 C   0  0  0  0  0  0  0  0  0  0  0  0
    6.4686    0.9691    0.0000 C   0  0  0  0  0  0  0  0  0  0  0  0
    6.5969    0.1542    0.0000 C   0  0  0  0  0  0  0  0  0  0  0  0
    5.9553   -0.3644    0.0000 C   0  0  0  0  0  0  0  0  0  0  0  0
    5.1854   -0.0681    0.0000 C   0  0  0  0  0  0  0  0  0  0  0  0
    7.3669   -0.1422    0.0000 O   0  0  0  0  0  0  0  0  0  0  0  0
    3.7738   -0.2904    0.0000 C   0  0  0  0  0  0  0  0  0  0  0  0
    4.5438   -0.5867    0.0000 O   0  0  0  0  0  0  0  0  0  0  0  0
    3.1322   -0.8090    0.0000 O   0  0  0  0  0  0  0  0  0  0  0  0
  1  2  1  0
  2  3  2  0
  2  4  1  0
  4  5  1  0
  5  6  1  0
  6  7  1  0
  7  8  1  0
  8  9  1  0
  9 10  1  0
 10 11  1  0
 11 12  1  0
 12 13  1  0
 13 14  1  0
 15  1  1  0
 15 16  1  1
 15 24  1  0
 16 17  1  0
 17 18  2  0
 17 22  1  0
 18 19  1  0
 19 20  2  0
 20 21  1  0
 20 23  1  0
 21 22  2  0
 24 25  1  0
 24 26  2  0
M  END
>  <DRUGBANK_ID>  (1) 
DB08275

>  <COMMON_NAME>  (1) 
N-DODECANOYL-L-TYROSINE

>  <UNII>  (1) 
VQH3Z7D3LC

$$$$
