
     RDKit          2D

 23 25  0  0  0  0  0  0  0  0999 V2000
    5.7904    2.6586    0.0000 C   0  0  0  0  0  0  0  0  0  0  0  0
    4.9654    2.6586    0.0000 C   0  0  0  0  0  0  0  0  0  0  0  0
    4.5529    3.3731    0.0000 O   0  0  0  0  0  0  0  0  0  0  0  0
    4.5529    1.9441    0.0000 O   0  0  0  0  0  0  0  0  0  0  0  0
    3.7279    1.9441    0.0000 C   0  0  0  0  0  0  0  0  0  0  0  0
    3.3700    1.2008    0.0000 N   0  0  0  0  0  0  0  0  0  0  0  0
    2.5656    1.0173    0.0000 C   0  0  0  0  0  0  0  0  0  0  0  0
    2.3821    0.2130    0.0000 C   0  0  0  0  0  0  0  0  0  0  0  0
    2.9868   -0.3482    0.0000 C   0  0  0  0  0  0  0  0  0  0  0  0
    2.8032   -1.1525    0.0000 C   0  0  0  0  0  0  0  0  0  0  0  0
    2.0149   -1.3957    0.0000 C   0  0  0  0  0  0  0  0  0  0  0  0
    1.4101   -0.8345    0.0000 C   0  0  0  0  0  0  0  0  0  0  0  0
    1.5937   -0.0302    0.0000 C   0  0  0  0  0  0  0  0  0  0  0  0
    1.9206    1.5316    0.0000 C   0  0  0  0  0  0  0  0  0  0  0  0
    1.2062    1.1191    0.0000 C   0  0  0  0  0  0  0  0  0  0  0  0
    0.4917    1.5316    0.0000 C   0  0  0  0  0  0  0  0  0  0  0  0
   -0.2228    1.1191    0.0000 Cl  0  0  0  0  0  0  0  0  0  0  0  0
    0.4917    2.3566    0.0000 C   0  0  0  0  0  0  0  0  0  0  0  0
    1.2062    2.7691    0.0000 C   0  0  0  0  0  0  0  0  0  0  0  0
    1.9206    2.3566    0.0000 C   0  0  0  0  0  0  0  0  0  0  0  0
    2.5656    2.8710    0.0000 N   0  0  0  0  0  0  0  0  0  0  0  0
    3.3700    2.6874    0.0000 C   0  0  0  0  0  0  0  0  0  0  0  0
    3.8843    3.3325    0.0000 O   0  0  0  0  0  0  0  0  0  0  0  0
  1  2  1  0
  2  3  2  0
  2  4  1  0
  4  5  1  0
  5  6  1  0
  5 22  1  0
  6  7  2  0
  7  8  1  0
  7 14  1  0
  8  9  2  0
  8 13  1  0
  9 10  1  0
 10 11  2  0
 11 12  1  0
 12 13  2  0
 14 15  2  0
 14 20  1  0
 15 16  1  0
 16 17  1  0
 16 18  2  0
 18 19  1  0
 19 20  2  0
 20 21  1  0
 21 22  1  0
 22 23  2  0
M  END
>  <DRUGBANK_ID>  (1) 
DB14672

>  <SECONDARY_ACCESSION_NUMBERS>  (1) 
DBSALT002278

>  <COMMON_NAME>  (1) 
Oxazepam acetate

>  <CAS_NUMBER>  (1) 
1824-74-4

>  <UNII>  (1) 
611V4315UA

>  <SYNONYMS>  (1) 
(+/-)-oxazepam 3-acetate; (+/-)-oxazepam acetate

$$$$
