
     RDKit          2D

 21 20  0  0  0  0  0  0  0  0999 V2000
   -1.2932    2.2687    0.0000 O   0  0  0  0  0  0  0  0  0  0  0  0
   -0.5787   -1.4437    0.0000 O   0  0  0  0  0  0  0  0  0  0  0  0
   -0.5787    3.5063    0.0000 O   0  0  0  0  0  0  0  0  0  0  0  0
    1.5647    1.4437    0.0000 O   0  0  0  0  0  0  0  0  0  0  0  0
   -2.7222   -3.5063    0.0000 O   0  0  0  0  0  0  0  0  0  0  0  0
   -3.4366   -2.2687    0.0000 O   0  0  0  0  0  0  0  0  0  0  0  0
    0.8502    2.6813    0.0000 N   0  0  0  0  0  0  0  0  0  0  0  0
   -2.0076   -1.4437    0.0000 N   0  0  0  0  0  0  0  0  0  0  0  0
    2.9936    2.2687    0.0000 N   0  0  0  0  0  0  0  0  0  0  0  0
   -0.5787    1.0312    0.0000 C   0  0  0  0  0  0  0  0  0  0  0  0
    0.1357    1.4437    0.0000 C   0  0  0  0  0  0  0  0  0  0  0  0
   -0.5787    0.2062    0.0000 C   0  0  0  0  0  0  0  0  0  0  0  0
    0.1357    2.2687    0.0000 C   0  0  0  0  0  0  0  0  0  0  0  0
   -1.2932   -0.2062    0.0000 C   0  0  0  0  0  0  0  0  0  0  0  0
   -1.2932   -1.0312    0.0000 C   0  0  0  0  0  0  0  0  0  0  0  0
   -0.5787    2.6813    0.0000 C   0  0  0  0  0  0  0  0  0  0  0  0
   -2.0076   -2.2687    0.0000 C   0  0  0  0  0  0  0  0  0  0  0  0
    1.5647    2.2687    0.0000 C   0  0  0  0  0  0  0  0  0  0  0  0
   -1.2932   -2.6813    0.0000 C   0  0  0  0  0  0  0  0  0  0  0  0
    2.2791    2.6813    0.0000 C   0  0  0  0  0  0  0  0  0  0  0  0
   -2.7222   -2.6813    0.0000 C   0  0  0  0  0  0  0  0  0  0  0  0
  1 16  1  0
  2 15  2  0
  3 16  2  0
  4 18  2  0
  5 21  1  0
  6 21  2  0
  7 18  1  0
  8 15  1  0
  9 20  1  0
 10 11  1  0
 10 12  1  0
 13 11  1  1
 12 14  1  0
 13  7  1  0
 13 16  1  0
 14 15  1  0
 17  8  1  0
 17 19  1  6
 17 21  1  0
 18 20  1  0
M  END
>  <DRUGBANK_ID>  (1) 
DB03927

>  <SECONDARY_ACCESSION_NUMBERS>  (1) 
EXPT02774

>  <COMMON_NAME>  (1) 
Glycyl-L-alpha-amino-epsilon-pimelyl-D-alanine

$$$$
