
     RDKit          2D

 34 37  0  0  0  0  0  0  0  0999 V2000
    5.9784    0.6456    0.0000 Cl  0  0  0  0  0  0  0  0  0  0  0  0
    3.2522    0.6456    0.0000 S   0  0  0  0  0  0  0  0  0  0  0  0
    4.6153    0.5620    0.0000 S   0  0  0  0  0  0  0  0  0  0  0  0
   -5.2729   -0.1913    0.0000 F   0  0  0  0  0  0  0  0  0  0  0  0
   -2.4153    0.6456    0.0000 O   0  0  0  0  0  0  0  0  0  0  0  0
   -1.0163   -1.8414    0.0000 O   0  0  0  0  0  0  0  0  0  0  0  0
    2.8338   -0.2032    0.0000 O   0  0  0  0  0  0  0  0  0  0  0  0
    3.6588   -0.2032    0.0000 O   0  0  0  0  0  0  0  0  0  0  0  0
    1.8414   -0.1913    0.0000 O   0  0  0  0  0  0  0  0  0  0  0  0
   -1.7218   -0.5978    0.0000 N   0  0  0  0  0  0  0  0  0  0  0  0
   -2.4153   -1.8414    0.0000 N   0  0  0  0  0  0  0  0  0  0  0  0
    2.5468    1.0522    0.0000 N   0  0  0  0  0  0  0  0  0  0  0  0
    1.1359    1.0522    0.0000 N   0  0  0  0  0  0  0  0  0  0  0  0
   -5.2729   -1.8414    0.0000 N   0  0  0  0  0  0  0  0  0  0  0  0
   -3.1208   -0.5978    0.0000 C   0  0  0  0  0  0  0  0  0  0  0  0
   -2.4153   -0.1913    0.0000 C   0  0  0  0  0  0  0  0  0  0  0  0
   -3.1208   -1.4228    0.0000 C   0  0  0  0  0  0  0  0  0  0  0  0
   -1.7218   -1.4228    0.0000 C   0  0  0  0  0  0  0  0  0  0  0  0
   -1.0163   -0.1913    0.0000 C   0  0  0  0  0  0  0  0  0  0  0  0
   -3.8740   -0.1913    0.0000 C   0  0  0  0  0  0  0  0  0  0  0  0
   -3.8740   -1.8414    0.0000 C   0  0  0  0  0  0  0  0  0  0  0  0
   -4.5675   -1.4228    0.0000 C   0  0  0  0  0  0  0  0  0  0  0  0
   -4.5675   -0.5978    0.0000 C   0  0  0  0  0  0  0  0  0  0  0  0
    3.9458    1.0522    0.0000 C   0  0  0  0  0  0  0  0  0  0  0  0
   -1.0163    0.6456    0.0000 C   0  0  0  0  0  0  0  0  0  0  0  0
   -0.3109   -0.5978    0.0000 C   0  0  0  0  0  0  0  0  0  0  0  0
    0.4304    0.6456    0.0000 C   0  0  0  0  0  0  0  0  0  0  0  0
    1.8414    0.6456    0.0000 C   0  0  0  0  0  0  0  0  0  0  0  0
   -0.2630    1.0522    0.0000 C   0  0  0  0  0  0  0  0  0  0  0  0
    0.4304   -0.1913    0.0000 C   0  0  0  0  0  0  0  0  0  0  0  0
    4.1969    1.8414    0.0000 C   0  0  0  0  0  0  0  0  0  0  0  0
    5.2729    1.0522    0.0000 C   0  0  0  0  0  0  0  0  0  0  0  0
    5.0219    1.8414    0.0000 C   0  0  0  0  0  0  0  0  0  0  0  0
   -5.9784   -1.4228    0.0000 C   0  0  0  0  0  0  0  0  0  0  0  0
  1 32  1  0
  2  7  2  0
  2  8  2  0
  2 12  1  0
  2 24  1  0
  3 24  1  0
  3 32  1  0
  4 23  1  0
  5 16  2  0
  6 18  2  0
  9 28  2  0
 10 16  1  0
 10 18  1  0
 10 19  1  0
 11 17  1  0
 11 18  1  0
 12 28  1  0
 13 27  1  0
 13 28  1  0
 14 22  1  0
 14 34  1  0
 15 16  1  0
 15 17  2  0
 15 20  1  0
 17 21  1  0
 19 25  2  0
 19 26  1  0
 20 23  2  0
 21 22  2  0
 22 23  1  0
 24 31  2  0
 25 29  1  0
 26 30  2  0
 27 29  2  0
 27 30  1  0
 31 33  1  0
 32 33  2  0
M  END
>  <DRUGBANK_ID>  (1) 
DB06350

>  <COMMON_NAME>  (1) 
Elinogrel

>  <CAS_NUMBER>  (1) 
936500-94-6

>  <UNII>  (1) 
915Y8E749J

>  <SYNONYMS>  (1) 
Elinogrel

$$$$
