
     RDKit          2D

 21 23  0  0  0  0  0  0  0  0999 V2000
    3.2151    0.6188    0.0000 C   0  0  0  0  0  0  0  0  0  0  0  0
   -1.7861    1.8563    0.0000 C   0  0  0  0  0  0  0  0  0  0  0  0
   -0.3572   -1.4437    0.0000 C   0  0  0  0  0  0  0  0  0  0  0  0
   -3.2151   -1.4438    0.0000 C   0  0  0  0  0  0  0  0  0  0  0  0
   -2.5007   -1.8563    0.0000 C   0  0  0  0  0  0  0  0  0  0  0  0
    1.7861   -0.2061    0.0000 C   0  0  0  0  0  0  0  0  0  0  0  0
    1.0717    1.0313    0.0000 C   0  0  0  0  0  0  0  0  0  0  0  0
    1.0717   -0.6187    0.0000 C   0  0  0  0  0  0  0  0  0  0  0  0
    0.3572    0.6188    0.0000 C   0  0  0  0  0  0  0  0  0  0  0  0
   -3.2151   -0.6187    0.0000 C   0  0  0  0  0  0  0  0  0  0  0  0
   -1.7861   -1.4438    0.0000 C   0  0  0  0  0  0  0  0  0  0  0  0
   -1.0716    0.6188    0.0000 N   0  0  0  0  0  0  0  0  0  0  0  0
   -2.5007    0.6188    0.0000 N   0  0  0  0  0  0  0  0  0  0  0  0
    2.5006    1.0313    0.0000 O   0  0  0  0  0  0  0  0  0  0  0  0
   -1.7861    1.0313    0.0000 C   0  0  0  0  0  0  0  0  0  0  0  0
    1.7861    0.6188    0.0000 C   0  0  0  0  0  0  0  0  0  0  0  0
    0.3572   -0.2061    0.0000 C   0  0  0  0  0  0  0  0  0  0  0  0
   -1.0716   -0.2061    0.0000 C   0  0  0  0  0  0  0  0  0  0  0  0
   -2.5007   -0.2061    0.0000 C   0  0  0  0  0  0  0  0  0  0  0  0
   -1.7861   -0.6187    0.0000 C   0  0  0  0  0  0  0  0  0  0  0  0
   -0.3572   -0.6187    0.0000 N   0  0  0  0  0  0  0  0  0  0  0  0
  1 14  1  0
  2 15  1  0
  3 21  1  0
  4  5  2  0
  4 10  1  0
  5 11  1  0
  6  8  2  0
  6 16  1  0
  7  9  1  0
  7 16  2  0
  8 17  1  0
  9 17  2  0
 10 19  2  0
 11 20  2  0
 12 15  1  0
 12 18  2  0
 13 15  2  0
 13 19  1  0
 14 16  1  0
 17 21  1  0
 18 20  1  0
 18 21  1  0
 19 20  1  0
M  END
>  <DRUGBANK_ID>  (1) 
DB05585

>  <COMMON_NAME>  (1) 
Verubulin

>  <CAS_NUMBER>  (1) 
827031-83-4

>  <UNII>  (1) 
X97O9FTB92

>  <SYNONYMS>  (1) 
Varbulin; Verubulin

$$$$
