CO4
     RDKit          2D

 28 30  0  0  0  0  0  0  0  0999 V2000
   -4.1824   -2.6897    0.0000 N   0  0  0  0  0  0  0  0  0  0  0  0
   -3.4679   -2.2772    0.0000 C   0  0  0  0  0  0  0  0  0  0  0  0
   -3.4679   -1.4522    0.0000 N   0  0  0  0  0  0  0  0  0  0  0  0
   -2.7535   -1.0397    0.0000 C   0  0  0  0  0  0  0  0  0  0  0  0
   -2.7535   -0.2147    0.0000 N   0  0  0  0  0  0  0  0  0  0  0  0
   -2.0390   -1.4522    0.0000 C   0  0  0  0  0  0  0  0  0  0  0  0
   -1.3245   -1.0397    0.0000 C   0  0  0  0  0  0  0  0  0  0  0  0
   -0.6101   -1.4522    0.0000 C   0  0  0  0  0  0  0  0  0  0  0  0
   -0.6101   -2.2772    0.0000 C   0  0  0  0  0  0  0  0  0  0  0  0
   -1.3245   -2.6897    0.0000 N   0  0  0  0  0  0  0  0  0  0  0  0
   -2.0390   -2.2772    0.0000 C   0  0  0  0  0  0  0  0  0  0  0  0
   -2.7535   -2.6897    0.0000 N   0  0  0  0  0  0  0  0  0  0  0  0
    0.1044   -1.0397    0.0000 C   0  0  0  0  0  0  0  0  0  0  0  0
    0.1044   -0.2147    0.0000 N   0  0  0  0  0  0  0  0  0  0  0  0
    0.8189    0.1978    0.0000 C   0  0  0  0  0  0  0  0  0  0  0  0
    0.8189    1.0228    0.0000 C   0  0  0  0  0  0  0  0  0  0  0  0
    1.5334    1.4353    0.0000 C   0  0  0  0  0  0  0  0  0  0  0  0
    1.5334    2.2603    0.0000 O   0  0  0  0  0  0  0  0  0  0  0  0
    2.2478    2.6728    0.0000 C   0  0  0  0  0  0  0  0  0  0  0  0
    2.2478    1.0228    0.0000 C   0  0  0  0  0  0  0  0  0  0  0  0
    2.9623    1.4353    0.0000 O   0  0  0  0  0  0  0  0  0  0  0  0
    2.9623    2.2603    0.0000 C   0  0  0  0  0  0  0  0  0  0  0  0
    2.2478    0.1978    0.0000 C   0  0  0  0  0  0  0  0  0  0  0  0
    2.9623   -0.2147    0.0000 O   0  0  0  0  0  0  0  0  0  0  0  0
    2.9623   -1.0397    0.0000 C   0  0  0  0  0  0  0  0  0  0  0  0
    1.5334   -0.2147    0.0000 C   0  0  0  0  0  0  0  0  0  0  0  0
   -0.6101    0.1978    0.0000 C   0  0  0  0  0  0  0  0  0  0  0  0
   -1.3245   -0.2147    0.0000 C   0  0  0  0  0  0  0  0  0  0  0  0
  1  2  1  0
  2  3  2  0
  2 12  1  0
  3  4  1  0
  4  5  1  0
  4  6  2  0
  6  7  1  0
  6 11  1  0
  7  8  2  0
  7 28  1  0
  8  9  1  0
  8 13  1  0
  9 10  2  0
 10 11  1  0
 11 12  2  0
 13 14  1  0
 14 15  1  0
 14 27  1  0
 15 16  2  0
 15 26  1  0
 16 17  1  0
 17 18  1  0
 17 20  2  0
 18 19  1  0
 20 21  1  0
 20 23  1  0
 21 22  1  0
 23 24  1  0
 23 26  2  0
 24 25  1  0
M  END
>  <DRUGBANK_ID>  (1) 
DB02104

>  <SECONDARY_ACCESSION_NUMBERS>  (1) 
EXPT00976

>  <COMMON_NAME>  (1) 
2,4-Diamino-5-Methyl-6-[(3,4,5-Trimethoxy-N-Methylanilino)Methyl]Pyrido[2,3-D]Pyrimidine

$$$$
