
     RDKit          2D

 27 29  0  0  1  0  0  0  0  0999 V2000
   -0.8256   -0.5974    0.0000 C   0  0  0  0  0  0  0  0  0  0  0  0
   -1.2001    0.1376    0.0000 C   0  0  0  0  0  0  0  0  0  0  0  0
   -1.7193    0.7788    0.0000 C   0  0  0  0  0  0  0  0  0  0  0  0
   -1.2700    1.4707    0.0000 N   0  0  0  0  0  0  0  0  0  0  0  0
   -0.4731    1.2572    0.0000 C   0  0  0  0  0  0  0  0  0  0  0  0
   -0.4299    0.4333    0.0000 S   0  0  0  0  0  0  0  0  0  0  0  0
   -0.2596    2.0540    0.0000 C   0  0  0  0  0  0  0  0  0  0  0  0
   -1.0565    2.2676    0.0000 C   0  0  0  0  0  0  0  0  0  0  0  0
   -1.4690    2.9820    0.0000 O   0  0  0  0  0  0  0  0  0  0  0  0
    0.4549    2.4665    0.0000 N   0  0  0  0  0  0  0  0  0  0  0  0
    0.4549    3.2915    0.0000 C   0  0  0  0  0  0  0  0  0  0  0  0
   -0.2596    3.7040    0.0000 O   0  0  0  0  0  0  0  0  0  0  0  0
    1.1694    3.7040    0.0000 C   0  0  0  0  0  0  0  0  0  0  0  0
    1.1694    4.5290    0.0000 C   0  0  0  0  0  0  0  0  0  0  0  0
    0.4549    4.9415    0.0000 C   0  0  0  0  0  0  0  0  0  0  0  0
    0.4549    5.7665    0.0000 C   0  0  0  0  0  0  0  0  0  0  0  0
    1.1694    6.1790    0.0000 C   0  0  0  0  0  0  0  0  0  0  0  0
    1.8838    5.7665    0.0000 C   0  0  0  0  0  0  0  0  0  0  0  0
    1.8838    4.9415    0.0000 C   0  0  0  0  0  0  0  0  0  0  0  0
    2.5983    6.1790    0.0000 Cl  0  0  0  0  0  0  0  0  0  0  0  0
    1.1694    7.0040    0.0000 Cl  0  0  0  0  0  0  0  0  0  0  0  0
    1.8838    3.2915    0.0000 O   0  0  0  0  0  0  0  0  0  0  0  0
    1.8838    2.4665    0.0000 C   0  0  0  0  0  0  0  0  0  0  0  0
   -2.5432    0.7356    0.0000 C   0  0  0  0  0  0  0  0  0  0  0  0
   -2.9177    0.0005    0.0000 O   0  0  0  0  0  0  0  0  0  0  0  0
   -2.9925    1.4275    0.0000 O   0  0  0  0  0  0  0  0  0  0  0  0
   -1.8920   -0.3117    0.0000 C   0  0  0  0  0  0  0  0  0  0  0  0
  1  2  1  0
  2  3  1  0
  2  6  1  0
  2 27  1  0
  3  4  1  0
  3 24  1  6
  4  8  1  0
  5  4  1  0
  5  6  1  1
  5  7  1  0
  7  8  1  0
  7 10  1  1
  8  9  2  0
 10 11  1  0
 11 12  2  0
 11 13  1  0
 13 14  1  0
 13 22  1  0
 14 15  2  0
 14 19  1  0
 15 16  1  0
 16 17  2  0
 17 18  1  0
 17 21  1  0
 18 19  2  0
 18 20  1  0
 22 23  1  0
 24 25  2  0
 24 26  1  0
M  END
>  <DRUGBANK_ID>  (1) 
DB13686

>  <COMMON_NAME>  (1) 
Clometocillin

>  <CAS_NUMBER>  (1) 
1926-49-4

>  <UNII>  (1) 
YI8LL014GF

>  <SYNONYMS>  (1) 
clometocilina; Clometocillin

$$$$
