AO5
     RDKit          2D

 23 23  0  0  0  0  0  0  0  0999 V2000
   -4.3361    0.2632    0.0000 C   0  0  0  0  0  0  0  0  0  0  0  0
   -5.0506    0.6757    0.0000 C   0  0  0  0  0  0  0  0  0  0  0  0
   -4.3361   -0.5618    0.0000 C   0  0  0  0  0  0  0  0  0  0  0  0
   -3.6217    0.6757    0.0000 S   0  0  0  0  0  0  0  0  0  0  0  0
   -2.9072    0.2632    0.0000 C   0  0  0  0  0  0  0  0  0  0  0  0
   -2.1927    0.6757    0.0000 C   0  0  0  0  0  0  0  0  0  0  0  0
   -1.4783    0.2632    0.0000 C   0  0  0  0  0  0  0  0  0  0  0  0
   -1.4783   -0.5618    0.0000 N   0  0  0  0  0  0  0  0  0  0  0  0
   -0.7638    0.6757    0.0000 C   0  0  0  0  0  0  0  0  0  0  0  0
   -0.7638    1.5007    0.0000 O   0  0  0  0  0  0  0  0  0  0  0  0
   -0.0493    0.2632    0.0000 C   0  0  0  0  0  0  0  0  0  0  0  0
   -0.0493   -0.5618    0.0000 O   0  0  0  0  0  0  0  0  0  0  0  0
    0.6651    0.6757    0.0000 N   0  0  0  0  0  0  0  0  0  0  0  0
    1.3796    0.2632    0.0000 N   0  0  0  0  0  0  0  0  0  0  0  0
    2.0941    0.6757    0.0000 C   0  0  0  0  0  0  0  0  0  0  0  0
    2.0941    1.5007    0.0000 O   0  0  0  0  0  0  0  0  0  0  0  0
    2.8086    0.2632    0.0000 C   0  0  0  0  0  0  0  0  0  0  0  0
    3.5230    0.6757    0.0000 C   0  0  0  0  0  0  0  0  0  0  0  0
    4.2375    0.2632    0.0000 C   0  0  0  0  0  0  0  0  0  0  0  0
    4.2375   -0.5618    0.0000 C   0  0  0  0  0  0  0  0  0  0  0  0
    3.5230   -0.9743    0.0000 C   0  0  0  0  0  0  0  0  0  0  0  0
    2.8086   -0.5618    0.0000 C   0  0  0  0  0  0  0  0  0  0  0  0
    3.5230   -1.7993    0.0000 Cl  0  0  0  0  0  0  0  0  0  0  0  0
  1  2  1  0
  1  3  1  0
  1  4  1  0
  4  5  1  0
  5  6  1  0
  6  7  1  0
  7  8  1  6
  7  9  1  0
  9 10  1  6
  9 11  1  0
 11 12  2  0
 11 13  1  0
 13 14  1  0
 14 15  1  0
 15 16  2  0
 15 17  1  0
 17 18  2  0
 17 22  1  0
 18 19  1  0
 19 20  2  0
 20 21  1  0
 21 22  2  0
 21 23  1  0
M  END
>  <DRUGBANK_ID>  (1) 
DB07377

>  <COMMON_NAME>  (1) 
N'-((2S,3R)-3-AMINO-2-HYDROXY-5-(ISOPROPYLSULFANYL)PENTANOYL)-N-3-CHLOROBENZOYL HYDRAZIDE

$$$$
