II4
     RDKit          2D

 17 19  0  0  0  0  0  0  0  0999 V2000
    1.4367   -1.5029    0.0000 C   0  0  0  0  0  0  0  0  0  0  0  0
    0.7222   -1.9154    0.0000 C   0  0  0  0  0  0  0  0  0  0  0  0
    0.0077   -1.5029    0.0000 C   0  0  0  0  0  0  0  0  0  0  0  0
    0.0077   -0.6779    0.0000 C   0  0  0  0  0  0  0  0  0  0  0  0
    0.7222   -0.2654    0.0000 C   0  0  0  0  0  0  0  0  0  0  0  0
   -0.1827    2.3725    0.0000 C   0  0  0  0  0  0  0  0  0  0  0  0
   -0.7769   -0.4229    0.0000 N   0  0  0  0  0  0  0  0  0  0  0  0
   -1.2618   -1.0904    0.0000 C   0  0  0  0  0  0  0  0  0  0  0  0
   -0.7769   -1.7578    0.0000 N   0  0  0  0  0  0  0  0  0  0  0  0
    2.1511   -1.9154    0.0000 N   0  0  0  0  0  0  0  0  0  0  0  0
   -0.7347    1.7594    0.0000 C   0  0  0  0  0  0  0  0  0  0  0  0
   -0.4798    0.9748    0.0000 C   0  0  0  0  0  0  0  0  0  0  0  0
    1.4367   -0.6779    0.0000 C   0  0  0  0  0  0  0  0  0  0  0  0
   -1.8388    0.5332    0.0000 C   0  0  0  0  0  0  0  0  0  0  0  0
   -1.0318    0.3617    0.0000 C   0  0  0  0  0  0  0  0  0  0  0  0
   -2.0937    1.3178    0.0000 C   0  0  0  0  0  0  0  0  0  0  0  0
   -1.5417    1.9309    0.0000 C   0  0  0  0  0  0  0  0  0  0  0  0
  1  2  2  0
  1 10  1  0
  1 13  1  0
  2  3  1  0
  3  4  2  0
  3  9  1  0
  4  5  1  0
  4  7  1  0
  5 13  2  0
  6 11  1  0
  7  8  1  0
  7 15  1  0
  8  9  2  0
 11 12  2  0
 11 17  1  0
 12 15  1  0
 14 15  2  0
 14 16  1  0
 16 17  2  0
M  END
>  <DRUGBANK_ID>  (1) 
DB07972

>  <COMMON_NAME>  (1) 
1-(3-METHYLPHENYL)-1H-BENZIMIDAZOL-5-AMINE

$$$$
