
     RDKit          2D

 34 38  0  0  1  0  0  0  0  0999 V2000
    4.9352    0.2211    0.0000 C   0  0  0  0  0  0  0  0  0  0  0  0
    4.1102    0.2211    0.0000 C   0  0  0  0  0  0  0  0  0  0  0  0
    3.6977   -0.4934    0.0000 O   0  0  0  0  0  0  0  0  0  0  0  0
    3.6977    0.9355    0.0000 N   0  0  0  0  0  0  0  0  0  0  0  0
    2.8727    0.9355    0.0000 C   0  0  0  0  0  0  0  0  0  0  0  0
    2.4602    1.6500    0.0000 C   0  0  0  0  0  0  0  0  0  0  0  0
    2.8727    2.3645    0.0000 O   0  0  0  0  0  0  0  0  0  0  0  0
    1.6352    1.6500    0.0000 N   0  0  0  0  0  0  0  0  0  0  0  0
    1.4289    0.8250    0.0000 C   0  0  0  0  0  0  0  0  0  0  0  0
    2.1434    1.2375    0.0000 C   0  0  0  0  0  0  0  0  0  0  0  0
    2.1434    2.0625    0.0000 C   0  0  0  0  0  0  0  0  0  0  0  0
    1.4289    2.4750    0.0000 C   0  0  0  0  0  0  0  0  0  0  0  0
    0.7145    2.0625    0.0000 C   0  0  0  0  0  0  0  0  0  0  0  0
    0.7145    1.2375    0.0000 C   0  0  0  0  0  0  0  0  0  0  0  0
   -0.0000    0.8250    0.0000 C   0  0  0  0  0  0  0  0  0  0  0  0
   -0.7145    1.2375    0.0000 C   0  0  0  0  0  0  0  0  0  0  0  0
   -0.7145    2.0625    0.0000 C   0  0  0  0  0  0  0  0  0  0  0  0
   -0.0000    2.4750    0.0000 C   0  0  0  0  0  0  0  0  0  0  0  0
   -1.4289    2.4750    0.0000 N   0  0  0  0  0  0  0  0  0  0  0  0
   -2.1434    2.0625    0.0000 C   0  0  0  0  0  0  0  0  0  0  0  0
   -2.1434    1.2375    0.0000 N   0  0  0  0  0  0  0  0  0  0  0  0
   -2.8579    0.8250    0.0000 C   0  0  0  0  0  0  0  0  0  0  0  0
   -3.5724    1.2375    0.0000 C   0  0  0  0  0  0  0  0  0  0  0  0
   -3.5724    2.0625    0.0000 C   0  0  0  0  0  0  0  0  0  0  0  0
   -2.8579    2.4750    0.0000 N   0  0  0  0  0  0  0  0  0  0  0  0
   -4.2868    2.4750    0.0000 N   0  0  0  0  0  0  0  0  0  0  0  0
   -4.2868    3.3000    0.0000 C   0  0  0  0  0  0  0  0  0  0  0  0
   -4.8702    3.8834    0.0000 C   0  0  0  0  0  0  0  0  0  0  0  0
   -4.2868    4.4667    0.0000 C   0  0  0  0  0  0  0  0  0  0  0  0
   -3.7035    3.8834    0.0000 C   0  0  0  0  0  0  0  0  0  0  0  0
   -4.2868    0.8250    0.0000 C   0  0  0  0  0  0  0  0  0  0  0  0
   -5.0013    0.4125    0.0000 F   0  0  0  0  0  0  0  0  0  0  0  0
   -4.6993    1.5395    0.0000 F   0  0  0  0  0  0  0  0  0  0  0  0
   -3.8743    0.1105    0.0000 F   0  0  0  0  0  0  0  0  0  0  0  0
  1  2  1  0
  2  3  2  0
  2  4  1  0
  4  5  1  0
  5  6  1  0
  6  7  2  0
  6  8  1  0
  9  8  1  0
  9 10  1  1
  9 14  1  0
 10 11  1  0
 12 11  1  1
 12  8  1  0
 12 13  1  0
 13 14  2  0
 13 18  1  0
 14 15  1  0
 15 16  2  0
 16 17  1  0
 17 18  2  0
 17 19  1  0
 19 20  1  0
 20 21  2  0
 20 25  1  0
 21 22  1  0
 22 23  2  0
 23 24  1  0
 23 31  1  0
 24 25  2  0
 24 26  1  0
 26 27  1  0
 27 28  1  0
 27 30  1  0
 28 29  1  0
 29 30  1  0
 31 32  1  0
 31 33  1  0
 31 34  1  0
M  END
>  <DRUGBANK_ID>  (1) 
DB13059

>  <COMMON_NAME>  (1) 
PF-03814735

>  <CAS_NUMBER>  (1) 
942487-16-3

>  <UNII>  (1) 
6V5T4O5758

$$$$
