
     RDKit          2D

  1  0  0  0  0  0  0  0  0  0999 V2000
    0.0000    0.0000    0.0000 Sb  0  0  0  0  0 15  0  0  0  0  0  0
M  END
>  <DRUGBANK_ID>  (1) 
DB13110

>  <COMMON_NAME>  (1) 
Antimony

>  <CAS_NUMBER>  (1) 
7440-36-0

>  <UNII>  (1) 
9IT35J3UV3

>  <SYNONYMS>  (1) 
antimonio

$$$$
