
     RDKit          2D

 21 22  0  0  0  0  0  0  0  0999 V2000
   12.3935   -9.1090    0.0000 C   0  0  0  0  0  0  0  0  0  0  0  0
   12.3935   -8.2854    0.0000 C   0  0  0  0  0  0  0  0  0  0  0  0
   13.1099   -9.6212    0.0000 S   0  0  0  0  0  0  0  0  0  0  0  0
   11.6807   -9.5243    0.0000 C   0  0  0  0  0  0  0  0  0  0  0  0
   13.1099   -7.8632    0.0000 N   0  0  0  0  0  0  0  0  0  0  0  0
   11.6807   -7.8771    0.0000 C   0  0  0  0  0  0  0  0  0  0  0  0
   13.8331   -9.1125    0.0000 C   0  0  0  0  0  0  0  0  0  0  0  0
   10.9746   -9.1090    0.0000 C   0  0  0  0  0  0  0  0  0  0  0  0
   13.8296   -8.2820    0.0000 C   0  0  0  0  0  0  0  0  0  0  0  0
   10.9746   -8.2854    0.0000 C   0  0  0  0  0  0  0  0  0  0  0  0
   14.5597   -9.5243    0.0000 C   0  0  0  0  0  0  0  0  0  0  0  0
   10.2652   -9.5139    0.0000 N   0  0  0  0  0  0  0  0  0  0  0  0
   14.5459   -7.8529    0.0000 C   0  0  0  0  0  0  0  0  0  0  0  0
   15.2865   -9.1055    0.0000 C   0  0  0  0  0  0  0  0  0  0  0  0
    9.5628   -9.0986    0.0000 C   0  0  0  0  0  0  0  0  0  0  0  0
   10.2619  -10.3306    0.0000 C   0  0  0  0  0  0  0  0  0  0  0  0
   15.2761   -8.2647    0.0000 C   0  0  0  0  0  0  0  0  0  0  0  0
   15.9959   -9.5105    0.0000 N   0  0  0  0  0  0  0  0  0  0  0  0
   15.9994  -10.3237    0.0000 C   0  0  0  0  0  0  0  0  0  0  0  0
   16.6984   -9.0918    0.0000 C   0  0  0  0  0  0  0  0  0  0  0  0
   13.1652  -10.5762    0.0000 Cl  0  0  0  0  0  0  0  0  0  0  0  0
  1  2  1  0
  1  3  2  0
  1  4  1  0
  2  5  2  0
  2  6  1  0
  3  7  1  0
  4  8  2  0
  5  9  1  0
  6 10  2  0
  7 11  2  0
  7  9  1  0
  8 12  1  0
  8 10  1  0
  9 13  2  0
 11 14  1  0
 12 15  1  0
 12 16  1  0
 13 17  1  0
 14 18  1  0
 14 17  2  0
 18 19  1  0
 18 20  1  0
M  CHG  2   3   1  21  -1
M  END
>  <DRUGBANK_ID>  (1) 
DB09241

>  <COMMON_NAME>  (1) 
Methylene blue

>  <CAS_NUMBER>  (1) 
61-73-4

>  <UNII>  (1) 
8NAP7826UB

>  <SYNONYMS>  (1) 
Azul de metileno; Basic Blue 9; C.I. basic blue 9; Chlorure de m√©thylthioninium; Cloruro de metiltioninio; Lowacryl blue 9; Methylene blue; Methylene blue anhydrous; Methylenium ceruleum; Methylthioninii chloridum; Methylthioninium chloride; Solvent blue 8; Swiss blue

$$$$
