
     RDKit          2D

 39 44  0  0  0  0  0  0  0  0999 V2000
    9.9851   -0.5542    0.0000 O   0  0  0  0  0  0  0  0  0  0  0  0
    9.2500   -0.9288    0.0000 C   0  0  0  0  0  0  0  0  0  0  0  0
    8.5581   -0.4794    0.0000 O   0  0  0  0  0  0  0  0  0  0  0  0
    9.2068   -1.7526    0.0000 C   0  0  0  0  0  0  0  0  0  0  0  0
    9.8987   -2.2020    0.0000 C   0  0  0  0  0  0  0  0  0  0  0  0
    9.8556   -3.0258    0.0000 C   0  0  0  0  0  0  0  0  0  0  0  0
    9.1205   -3.4004    0.0000 N   0  0  0  0  0  0  0  0  0  0  0  0
    8.4286   -2.9510    0.0000 C   0  0  0  0  0  0  0  0  0  0  0  0
    8.4718   -2.1272    0.0000 C   0  0  0  0  0  0  0  0  0  0  0  0
    7.6935   -3.3256    0.0000 N   0  0  0  0  0  0  0  0  0  0  0  0
    7.4386   -4.1102    0.0000 C   0  0  0  0  0  0  0  0  0  0  0  0
    6.6539   -3.8553    0.0000 C   0  0  0  0  0  0  0  0  0  0  0  0
    6.3990   -4.6399    0.0000 O   0  0  0  0  0  0  0  0  0  0  0  0
    6.9089   -3.0706    0.0000 C   0  0  0  0  0  0  0  0  0  0  0  0
    5.8693   -3.6003    0.0000 C   0  0  0  0  0  0  0  0  0  0  0  0
    5.2562   -4.1524    0.0000 C   0  0  0  0  0  0  0  0  0  0  0  0
    5.4277   -4.9593    0.0000 Cl  0  0  0  0  0  0  0  0  0  0  0  0
    4.4716   -3.8974    0.0000 C   0  0  0  0  0  0  0  0  0  0  0  0
    4.3001   -3.0904    0.0000 C   0  0  0  0  0  0  0  0  0  0  0  0
    3.5155   -2.8355    0.0000 O   0  0  0  0  0  0  0  0  0  0  0  0
    3.3439   -2.0285    0.0000 C   0  0  0  0  0  0  0  0  0  0  0  0
    2.5593   -1.7736    0.0000 C   0  0  0  0  0  0  0  0  0  0  0  0
    1.8919   -2.2585    0.0000 C   0  0  0  0  0  0  0  0  0  0  0  0
    1.2244   -1.7736    0.0000 O   0  0  0  0  0  0  0  0  0  0  0  0
    1.4794   -0.9890    0.0000 N   0  0  0  0  0  0  0  0  0  0  0  0
    2.3044   -0.9890    0.0000 C   0  0  0  0  0  0  0  0  0  0  0  0
    2.7893   -0.3215    0.0000 C   0  0  0  0  0  0  0  0  0  0  0  0
    2.4537    0.4321    0.0000 C   0  0  0  0  0  0  0  0  0  0  0  0
    1.6332    0.5184    0.0000 Cl  0  0  0  0  0  0  0  0  0  0  0  0
    2.9387    1.0996    0.0000 C   0  0  0  0  0  0  0  0  0  0  0  0
    3.7591    1.0133    0.0000 C   0  0  0  0  0  0  0  0  0  0  0  0
    4.0947    0.2597    0.0000 C   0  0  0  0  0  0  0  0  0  0  0  0
    3.6098   -0.4078    0.0000 C   0  0  0  0  0  0  0  0  0  0  0  0
    3.9453   -1.1614    0.0000 Cl  0  0  0  0  0  0  0  0  0  0  0  0
    1.8919   -3.0835    0.0000 C   0  0  0  0  0  0  0  0  0  0  0  0
    2.3044   -3.7980    0.0000 C   0  0  0  0  0  0  0  0  0  0  0  0
    1.4794   -3.7980    0.0000 C   0  0  0  0  0  0  0  0  0  0  0  0
    4.9132   -2.5384    0.0000 C   0  0  0  0  0  0  0  0  0  0  0  0
    5.6978   -2.7933    0.0000 C   0  0  0  0  0  0  0  0  0  0  0  0
  1  2  1  0
  2  3  2  0
  2  4  1  0
  4  5  2  0
  4  9  1  0
  5  6  1  0
  6  7  2  0
  7  8  1  0
  8  9  2  0
  8 10  1  0
 10 11  1  0
 10 14  1  0
 11 12  1  0
 12 13  1  0
 12 14  1  0
 12 15  1  0
 15 16  2  0
 15 39  1  0
 16 17  1  0
 16 18  1  0
 18 19  2  0
 19 20  1  0
 19 38  1  0
 20 21  1  0
 21 22  1  0
 22 23  2  0
 22 26  1  0
 23 24  1  0
 23 35  1  0
 24 25  1  0
 25 26  2  0
 26 27  1  0
 27 28  2  0
 27 33  1  0
 28 29  1  0
 28 30  1  0
 30 31  2  0
 31 32  1  0
 32 33  2  0
 33 34  1  0
 35 36  1  0
 35 37  1  0
 36 37  1  0
 38 39  2  0
M  END
>  <DRUGBANK_ID>  (1) 
DB15168

>  <COMMON_NAME>  (1) 
Cilofexor

>  <CAS_NUMBER>  (1) 
1418274-28-8

>  <UNII>  (1) 
YUN2306954

>  <SYNONYMS>  (1) 
2-[3-(2-chloro-4-{[5-cyclopropyl-3-(2,6-dichlorophenyl)-1,2-oxazol-4-yl]methoxy}phenyl)-3-hydroxyazetidin-1-yl]pyridine-4-carboxylic acid; Cilofexor

$$$$
