1156
     RDKit          2D

 17 18  0  0  1  0  0  0  0  0999 V2000
    4.0447   -1.6942    0.0000 C   0  0  0  0  0  0  0  0  0  0  0  0
    4.7592   -1.2818    0.0000 C   0  0  0  0  0  0  0  0  0  0  0  0
    4.0447   -2.5193    0.0000 C   0  0  0  0  0  0  0  0  0  0  0  0
    5.4737   -1.6942    0.0000 C   0  0  0  0  0  0  0  0  0  0  0  0
    4.7592   -2.9318    0.0000 C   0  0  0  0  0  0  0  0  0  0  0  0
    5.4737   -2.5193    0.0000 C   0  0  0  0  0  0  0  0  0  0  0  0
    3.3303   -1.2818    0.0000 Cl  0  0  0  0  0  0  0  0  0  0  0  0
    6.1881   -1.2818    0.0000 C   0  0  0  0  0  0  0  0  0  0  0  0
    6.9026   -1.6942    0.0000 C   0  0  0  0  0  0  0  0  0  0  0  0
    7.6172   -1.2817    0.0000 N   0  0  0  0  0  0  0  0  0  0  0  0
    7.6171   -0.4568    0.0000 C   0  0  0  0  0  0  0  0  0  0  0  0
    6.9027   -0.0442    0.0000 C   0  0  0  0  0  0  0  0  0  0  0  0
    6.1881   -0.4567    0.0000 O   0  0  0  0  0  0  0  0  0  0  0  0
    8.3316   -0.0443    0.0000 C   0  0  0  0  0  0  0  0  0  0  0  0
    7.6467    0.3955    0.0000 C   0  0  0  0  0  0  0  0  0  0  0  0
    6.9026   -2.5193    0.0000 C   0  0  0  0  0  0  0  0  0  0  0  0
    5.4889   -0.9437    0.0000 O   0  0  0  0  0  0  0  0  0  0  0  0
  1  2  2  0
  1  3  1  0
  1  7  1  0
  2  4  1  0
  3  5  2  0
  4  6  2  0
  4  8  1  0
  5  6  1  0
  8  9  1  0
  8 13  1  0
  8 17  1  1
  9 10  1  0
  9 16  1  1
 10 11  1  0
 11 12  1  0
 11 14  1  0
 11 15  1  0
 12 13  1  0
M  END
>  <DRUGBANK_ID>  (1) 
DB11790

>  <COMMON_NAME>  (1) 
Radafaxine

>  <CAS_NUMBER>  (1) 
192374-14-4

>  <UNII>  (1) 
Q47741214K

>  <SYNONYMS>  (1) 
Radafaxine

$$$$
