TQ4
     RDKit          2D

 20 22  0  0  0  0  0  0  0  0999 V2000
   -1.0647   -1.6362    0.0000 C   0  0  0  0  0  0  0  0  0  0  0  0
   -1.0647   -0.8112    0.0000 C   0  0  0  0  0  0  0  0  0  0  0  0
   -1.7792   -0.3987    0.0000 C   0  0  0  0  0  0  0  0  0  0  0  0
   -2.4937   -0.8112    0.0000 N   0  0  0  0  0  0  0  0  0  0  0  0
   -2.4937   -1.6362    0.0000 C   0  0  0  0  0  0  0  0  0  0  0  0
   -1.7792   -2.0487    0.0000 N   0  0  0  0  0  0  0  0  0  0  0  0
   -1.7792    0.4263    0.0000 N   0  0  0  0  0  0  0  0  0  0  0  0
   -0.3503   -2.0487    0.0000 C   0  0  0  0  0  0  0  0  0  0  0  0
    0.3642   -1.6362    0.0000 C   0  0  0  0  0  0  0  0  0  0  0  0
    0.3642   -0.8112    0.0000 C   0  0  0  0  0  0  0  0  0  0  0  0
   -0.3503   -0.3987    0.0000 C   0  0  0  0  0  0  0  0  0  0  0  0
   -3.2082   -2.0487    0.0000 N   0  0  0  0  0  0  0  0  0  0  0  0
   -0.3503    0.4263    0.0000 S   0  0  0  0  0  0  0  0  0  0  0  0
    0.3642    0.8388    0.0000 C   0  0  0  0  0  0  0  0  0  0  0  0
    0.3642    1.6638    0.0000 C   0  0  0  0  0  0  0  0  0  0  0  0
    1.0787    2.0763    0.0000 C   0  0  0  0  0  0  0  0  0  0  0  0
    1.7931    1.6638    0.0000 C   0  0  0  0  0  0  0  0  0  0  0  0
    1.7931    0.8388    0.0000 C   0  0  0  0  0  0  0  0  0  0  0  0
    1.0787    0.4263    0.0000 C   0  0  0  0  0  0  0  0  0  0  0  0
    2.5076    2.0763    0.0000 C   0  0  0  0  0  0  0  0  0  0  0  0
  1  2  1  0
  1  6  2  0
  1  8  1  0
  2  3  2  0
  2 11  1  0
  3  4  1  0
  3  7  1  0
  4  5  2  0
  5  6  1  0
  5 12  1  0
  8  9  2  0
  9 10  1  0
 10 11  2  0
 11 13  1  0
 13 14  1  0
 14 15  2  0
 14 19  1  0
 15 16  1  0
 16 17  2  0
 17 18  1  0
 17 20  1  0
 18 19  2  0
M  END
>  <DRUGBANK_ID>  (1) 
DB04306

>  <SECONDARY_ACCESSION_NUMBERS>  (1) 
EXPT03100

>  <COMMON_NAME>  (1) 
5-[(4-Methylphenyl)Sulfanyl]-2,4-Quinazolinediamine

$$$$
