D56
     RDKit          2D

 31 33  0  0  0  0  0  0  0  0999 V2000
   11.1952    5.4295    0.0000 N   0  0  0  0  0  0  0  0  0  0  0  0
   11.1952    4.6045    0.0000 C   0  0  0  0  0  0  0  0  0  0  0  0
   10.4808    4.1920    0.0000 C   0  0  0  0  0  0  0  0  0  0  0  0
    9.7663    4.6045    0.0000 C   0  0  0  0  0  0  0  0  0  0  0  0
    9.7663    5.4295    0.0000 C   0  0  0  0  0  0  0  0  0  0  0  0
   10.4808    5.8420    0.0000 C   0  0  0  0  0  0  0  0  0  0  0  0
   11.9097    5.8420    0.0000 C   0  0  0  0  0  0  0  0  0  0  0  0
   11.9097    6.6670    0.0000 C   0  0  0  0  0  0  0  0  0  0  0  0
   12.6242    7.0795    0.0000 C   0  0  0  0  0  0  0  0  0  0  0  0
   12.6242    7.9045    0.0000 Cl  0  0  0  0  0  0  0  0  0  0  0  0
   13.3386    6.6670    0.0000 C   0  0  0  0  0  0  0  0  0  0  0  0
   13.3386    5.8420    0.0000 C   0  0  0  0  0  0  0  0  0  0  0  0
   14.0531    5.4295    0.0000 N   0  0  0  0  0  0  0  0  0  0  0  0
   14.7676    5.8420    0.0000 C   0  0  0  0  0  0  0  0  0  0  0  0
   14.7676    6.6670    0.0000 O   0  0  0  0  0  0  0  0  0  0  0  0
   15.4820    5.4295    0.0000 C   0  0  0  0  0  0  0  0  0  0  0  0
   16.1965    5.8420    0.0000 C   0  0  0  0  0  0  0  0  0  0  0  0
   16.9110    5.4295    0.0000 C   0  0  0  0  0  0  0  0  0  0  0  0
   14.7676    8.3170    0.0000 C   0  0  0  0  0  0  0  0  0  0  0  0
   17.6255    5.8420    0.0000 C   0  0  0  0  0  0  0  0  0  0  0  0
   16.9110    4.6045    0.0000 C   0  0  0  0  0  0  0  0  0  0  0  0
   17.6255    4.1920    0.0000 O   0  0  0  0  0  0  0  0  0  0  0  0
   18.3399    4.6045    0.0000 C   0  0  0  0  0  0  0  0  0  0  0  0
   19.0544    4.1920    0.0000 C   0  0  0  0  0  0  0  0  0  0  0  0
   19.7689    4.6045    0.0000 N   0  0  0  0  0  0  0  0  0  0  0  0
   16.1965    4.1920    0.0000 C   0  0  0  0  0  0  0  0  0  0  0  0
   16.1965    3.3670    0.0000 C   0  0  0  0  0  0  0  0  0  0  0  0
   15.4820    4.6045    0.0000 C   0  0  0  0  0  0  0  0  0  0  0  0
   12.6242    5.4295    0.0000 C   0  0  0  0  0  0  0  0  0  0  0  0
   14.0531    7.0795    0.0000 O   0  0  0  0  0  0  0  0  0  0  0  0
   14.0531    7.9045    0.0000 C   0  0  0  0  0  0  0  0  0  0  0  0
  1  2  1  0
  1  6  1  0
  1  7  1  0
  2  3  1  0
  3  4  1  0
  4  5  1  0
  5  6  1  0
  7  8  2  0
  7 29  1  0
  8  9  1  0
  9 10  1  0
  9 11  2  0
 11 12  1  0
 11 30  1  0
 12 13  1  0
 12 29  2  0
 13 14  1  0
 14 15  2  0
 14 16  1  0
 16 17  2  0
 16 28  1  0
 17 18  1  0
 18 20  1  0
 18 21  2  0
 19 31  1  0
 21 22  1  0
 21 26  1  0
 22 23  1  0
 23 24  1  0
 24 25  1  0
 26 27  1  0
 26 28  2  0
 30 31  1  0
M  END
>  <DRUGBANK_ID>  (1) 
DB07626

>  <COMMON_NAME>  (1) 
4-(2-aminoethoxy)-N-(3-chloro-2-ethoxy-5-piperidin-1-ylphenyl)-3,5-dimethylbenzamide

$$$$
