BTD
     RDKit          2D

 22 24  0  0  0  0  0  0  0  0999 V2000
   -1.9018    2.5475    0.0000 O   0  0  0  0  0  0  0  0  0  0  0  0
   -1.1874    2.1350    0.0000 C   0  0  0  0  0  0  0  0  0  0  0  0
   -1.1874    1.3100    0.0000 C   0  0  0  0  0  0  0  0  0  0  0  0
   -0.5199    0.8250    0.0000 O   0  0  0  0  0  0  0  0  0  0  0  0
   -0.7749    0.0404    0.0000 C   0  0  0  0  0  0  0  0  0  0  0  0
   -0.2899   -0.6270    0.0000 N   0  0  0  0  0  0  0  0  0  0  0  0
    0.5305   -0.5408    0.0000 C   0  0  0  0  0  0  0  0  0  0  0  0
   -0.6255   -1.3807    0.0000 C   0  0  0  0  0  0  0  0  0  0  0  0
   -1.4460   -1.4669    0.0000 O   0  0  0  0  0  0  0  0  0  0  0  0
   -0.1406   -2.0481    0.0000 N   0  0  0  0  0  0  0  0  0  0  0  0
    0.6799   -1.9619    0.0000 C   0  0  0  0  0  0  0  0  0  0  0  0
    1.1648   -2.6293    0.0000 O   0  0  0  0  0  0  0  0  0  0  0  0
    1.0155   -1.2082    0.0000 C   0  0  0  0  0  0  0  0  0  0  0  0
    1.8359   -1.1220    0.0000 C   0  0  0  0  0  0  0  0  0  0  0  0
    2.2484   -0.4075    0.0000 C   0  0  0  0  0  0  0  0  0  0  0  0
    3.0554   -0.5790    0.0000 C   0  0  0  0  0  0  0  0  0  0  0  0
    3.1416   -1.3995    0.0000 C   0  0  0  0  0  0  0  0  0  0  0  0
    2.3880   -1.7351    0.0000 S   0  0  0  0  0  0  0  0  0  0  0  0
    3.8561   -1.8120    0.0000 Br  0  0  0  0  0  0  0  0  0  0  0  0
   -1.5999    0.0404    0.0000 C   0  0  0  0  0  0  0  0  0  0  0  0
   -1.8548    0.8250    0.0000 C   0  0  0  0  0  0  0  0  0  0  0  0
   -2.6394    1.0800    0.0000 O   0  0  0  0  0  0  0  0  0  0  0  0
  1  2  1  0
  3  2  1  1
  3  4  1  0
  3 21  1  0
  4  5  1  0
  5  6  1  1
  5 20  1  0
  6  7  1  0
  6  8  1  0
  7 13  2  0
  8  9  2  0
  8 10  1  0
 10 11  1  0
 11 12  2  0
 11 13  1  0
 13 14  1  0
 14 15  2  0
 14 18  1  0
 15 16  1  0
 16 17  2  0
 17 18  1  0
 17 19  1  0
 20 21  1  0
 21 22  1  6
M  END
>  <DRUGBANK_ID>  (1) 
DB03804

>  <SECONDARY_ACCESSION_NUMBERS>  (1) 
EXPT00766

>  <COMMON_NAME>  (1) 
5-Bromothienyldeoxyuridine

$$$$
