C18
     RDKit          2D

 23 25  0  0  0  0  0  0  0  0999 V2000
   -3.0129    1.3120    0.0000 O   0  0  0  0  0  0  0  0  0  0  0  0
   -2.2984    0.8995    0.0000 C   0  0  0  0  0  0  0  0  0  0  0  0
   -1.5840    1.3120    0.0000 O   0  0  0  0  0  0  0  0  0  0  0  0
   -0.8695    0.8995    0.0000 C   0  0  0  0  0  0  0  0  0  0  0  0
   -0.8695    0.0745    0.0000 C   0  0  0  0  0  0  0  0  0  0  0  0
   -1.5840   -0.3380    0.0000 C   0  0  0  0  0  0  0  0  0  0  0  0
   -2.2984   -1.5755    0.0000 N   0  0  0  0  0  0  0  0  0  0  0  0
   -1.5840   -1.1630    0.0000 C   0  0  0  0  0  0  0  0  0  0  0  0
   -2.2984   -2.4005    0.0000 C   0  0  0  0  0  0  0  0  0  0  0  0
   -2.2984    0.0745    0.0000 C   0  0  0  0  0  0  0  0  0  0  0  0
   -0.1550    1.3120    0.0000 C   0  0  0  0  0  0  0  0  0  0  0  0
    0.5594    0.8995    0.0000 C   0  0  0  0  0  0  0  0  0  0  0  0
    0.5594    0.0745    0.0000 C   0  0  0  0  0  0  0  0  0  0  0  0
   -0.1550   -0.3380    0.0000 C   0  0  0  0  0  0  0  0  0  0  0  0
    1.2739    1.3120    0.0000 O   0  0  0  0  0  0  0  0  0  0  0  0
    1.9884    0.8995    0.0000 C   0  0  0  0  0  0  0  0  0  0  0  0
    2.7028    1.3120    0.0000 C   0  0  0  0  0  0  0  0  0  0  0  0
    3.4173    0.8995    0.0000 C   0  0  0  0  0  0  0  0  0  0  0  0
    4.1318    1.3120    0.0000 C   0  0  0  0  0  0  0  0  0  0  0  0
    4.1318    2.1370    0.0000 C   0  0  0  0  0  0  0  0  0  0  0  0
    3.4173    2.5495    0.0000 C   0  0  0  0  0  0  0  0  0  0  0  0
    3.4173    3.3745    0.0000 Cl  0  0  0  0  0  0  0  0  0  0  0  0
    2.7028    2.1370    0.0000 C   0  0  0  0  0  0  0  0  0  0  0  0
  1  2  2  0
  2 10  1  0
  2  3  1  0
  3  4  1  0
  4 11  2  0
  4  5  1  0
  5 14  2  0
  5  6  1  0
  6  8  1  0
  6 10  2  0
  7  9  1  0
  7  8  1  0
 11 12  1  0
 12 15  1  0
 12 13  2  0
 13 14  1  0
 15 16  1  0
 16 17  1  0
 17 23  1  0
 17 18  2  0
 18 19  1  0
 19 20  2  0
 20 21  1  0
 21 22  1  0
 21 23  2  0
M  END
>  <DRUGBANK_ID>  (1) 
DB07513

>  <COMMON_NAME>  (1) 
7-[(3-CHLOROBENZYL)OXY]-4-[(METHYLAMINO)METHYL]-2H-CHROMEN-2-ONE

>  <UNII>  (1) 
XT4DJB88UB

$$$$
