MUP
     RDKit          2D

 16 15  0  0  0  0  0  0  0  0999 V2000
    2.5118    0.5306    0.0000 C   0  0  0  0  0  0  0  0  0  0  0  0
    1.8494    0.0389    0.0000 C   0  0  0  0  0  0  0  0  0  0  0  0
    1.0923    0.3667    0.0000 C   0  0  0  0  0  0  0  0  0  0  0  0
    0.4299   -0.1251    0.0000 C   0  0  0  0  0  0  0  0  0  0  0  0
   -0.3272    0.2028    0.0000 C   0  0  0  0  0  0  0  0  0  0  0  0
   -0.9896   -0.2890    0.0000 C   0  0  0  0  0  0  0  0  0  0  0  0
   -1.7467    0.0389    0.0000 C   0  0  0  0  0  0  0  0  0  0  0  0
   -2.4091   -0.4529    0.0000 C   0  0  0  0  0  0  0  0  0  0  0  0
   -3.1662   -0.1251    0.0000 C   0  0  0  0  0  0  0  0  0  0  0  0
   -3.8286   -0.6168    0.0000 C   0  0  0  0  0  0  0  0  0  0  0  0
   -4.5857   -0.2890    0.0000 C   0  0  0  0  0  0  0  0  0  0  0  0
    4.6884    0.3667    0.0000 C   0  0  0  0  0  0  0  0  0  0  0  0
    2.9411   -0.5543    0.0000 O   0  0  0  0  0  0  0  0  0  0  0  0
    4.0260   -0.1251    0.0000 O   0  0  0  0  0  0  0  0  0  0  0  0
    3.5967    0.9598    0.0000 O   0  0  0  0  0  0  0  0  0  0  0  0
    3.2689    0.2028    0.0000 P   0  0  0  0  0  0  0  0  0  0  0  0
  1  2  1  0
  1 16  1  0
  2  3  1  0
  3  4  1  0
  4  5  1  0
  5  6  1  0
  6  7  1  0
  7  8  1  0
  8  9  1  0
  9 10  1  0
 10 11  1  0
 12 14  1  0
 16 13  2  0
 16 14  1  0
 16 15  1  0
M  END
>  <DRUGBANK_ID>  (1) 
DB08222

>  <COMMON_NAME>  (1) 
METHOXYUNDECYLPHOSPHINIC ACID

$$$$
