
     RDKit          2D

 38 39  0  0  0  0  0  0  0  0999 V2000
    2.5006    0.2062    0.0000 C   0  0  0  0  0  0  0  0  0  0  0  0
    2.5006    1.0312    0.0000 C   0  0  0  0  0  0  0  0  0  0  0  0
    1.7862    1.4438    0.0000 C   0  0  0  0  0  0  0  0  0  0  0  0
    1.0717    1.0312    0.0000 N   0  0  0  0  0  0  0  0  0  0  0  0
    0.3571    1.4438    0.0000 C   0  0  0  0  0  0  0  0  0  0  0  0
    0.3571    2.2688    0.0000 C   0  0  0  0  0  0  0  0  0  0  0  0
   -0.3572    1.0312    0.0000 C   0  0  0  0  0  0  0  0  0  0  0  0
   -1.0717    1.4438    0.0000 C   0  0  0  0  0  0  0  0  0  0  0  0
   -1.7863    1.0312    0.0000 C   0  0  0  0  0  0  0  0  0  0  0  0
   -2.5007    1.4438    0.0000 O   0  0  0  0  0  0  0  0  0  0  0  0
   -0.3572    0.2062    0.0000 S   0  0  0  0  0  0  0  0  0  0  0  0
    0.3571   -0.2062    0.0000 S   0  0  0  0  0  0  0  0  0  0  0  0
    0.3571   -1.0312    0.0000 C   0  0  0  0  0  0  0  0  0  0  0  0
   -0.3572   -1.4437    0.0000 C   0  0  0  0  0  0  0  0  0  0  0  0
   -1.0717   -1.0312    0.0000 N   0  0  0  0  0  0  0  0  0  0  0  0
   -1.7863   -1.4437    0.0000 C   0  0  0  0  0  0  0  0  0  0  0  0
   -2.5007   -1.0312    0.0000 C   0  0  0  0  0  0  0  0  0  0  0  0
   -3.2151   -1.4437    0.0000 C   0  0  0  0  0  0  0  0  0  0  0  0
   -3.9297   -1.0312    0.0000 N   0  0  0  0  0  0  0  0  0  0  0  0
   -3.9297   -0.2062    0.0000 C   0  0  0  0  0  0  0  0  0  0  0  0
   -3.2152    0.2062    0.0000 N   0  0  0  0  0  0  0  0  0  0  0  0
   -2.5007   -0.2062    0.0000 C   0  0  0  0  0  0  0  0  0  0  0  0
   -4.6441    0.2062    0.0000 C   0  0  0  0  0  0  0  0  0  0  0  0
   -3.2151   -2.2688    0.0000 N   0  0  0  0  0  0  0  0  0  0  0  0
   -1.0717   -0.2062    0.0000 C   0  0  0  0  0  0  0  0  0  0  0  0
   -1.7863    0.2062    0.0000 O   0  0  0  0  0  0  0  0  0  0  0  0
   -0.3572   -2.2687    0.0000 C   0  0  0  0  0  0  0  0  0  0  0  0
    1.0717   -1.4437    0.0000 C   0  0  0  0  0  0  0  0  0  0  0  0
    1.7862   -1.0312    0.0000 C   0  0  0  0  0  0  0  0  0  0  0  0
    2.5006   -1.4437    0.0000 O   0  0  0  0  0  0  0  0  0  0  0  0
    1.0717    0.2062    0.0000 C   0  0  0  0  0  0  0  0  0  0  0  0
    1.7862   -0.2062    0.0000 O   0  0  0  0  0  0  0  0  0  0  0  0
    3.2151    1.4438    0.0000 C   0  0  0  0  0  0  0  0  0  0  0  0
    3.2151    2.2688    0.0000 N   0  0  0  0  0  0  0  0  0  0  0  0
    3.9296    1.0312    0.0000 N   0  0  0  0  0  0  0  0  0  0  0  0
    3.9296    0.2062    0.0000 C   0  0  0  0  0  0  0  0  0  0  0  0
    4.6441   -0.2062    0.0000 C   0  0  0  0  0  0  0  0  0  0  0  0
    3.2151   -0.2062    0.0000 N   0  0  0  0  0  0  0  0  0  0  0  0
  1 38  2  0
  2  1  1  0
  3  2  1  0
  4  3  1  0
  4 31  1  0
  5  4  1  0
  5  6  1  0
  7  5  2  0
  7  8  1  0
  8  9  1  0
  9 10  1  0
 11  7  1  0
 12 11  1  0
 12 13  1  0
 13 14  2  0
 13 28  1  0
 14 15  1  0
 14 27  1  0
 15 16  1  0
 15 25  1  0
 16 17  1  0
 17 22  1  0
 18 17  2  0
 18 24  1  0
 19 18  1  0
 20 19  2  0
 20 23  1  0
 21 20  1  0
 22 21  2  0
 25 26  2  0
 28 29  1  0
 29 30  1  0
 31 32  2  0
 33  2  2  0
 33 34  1  0
 35 33  1  0
 36 35  2  0
 36 37  1  0
 38 36  1  0
M  END
>  <DRUGBANK_ID>  (1) 
DB15958

>  <COMMON_NAME>  (1) 
Thiamine disulfide

>  <CAS_NUMBER>  (1) 
67-16-3

>  <UNII>  (1) 
UJV8K21YKL

>  <SYNONYMS>  (1) 
Thiamine disulfide; Vitamin B1 disulfide

$$$$
