FQP
     RDKit          2D

 21 21  0  0  0  0  0  0  0  0999 V2000
   -1.3261   -1.2727    0.0000 N   0  0  0  0  0  0  0  0  0  0  0  0
   -2.0405   -0.8602    0.0000 C   0  0  0  0  0  0  0  0  0  0  0  0
   -2.7550   -1.2727    0.0000 C   0  0  0  0  0  0  0  0  0  0  0  0
   -2.0405   -0.0352    0.0000 N   0  0  0  0  0  0  0  0  0  0  0  0
   -1.3261    0.3773    0.0000 C   0  0  0  0  0  0  0  0  0  0  0  0
   -1.3261    1.2023    0.0000 N   0  0  0  0  0  0  0  0  0  0  0  0
   -0.6116   -0.0352    0.0000 C   0  0  0  0  0  0  0  0  0  0  0  0
   -0.6116   -0.8602    0.0000 C   0  0  0  0  0  0  0  0  0  0  0  0
    0.1029    0.3773    0.0000 C   0  0  0  0  0  0  0  0  0  0  0  0
    1.1193    1.0917    0.0000 O   0  0  0  0  0  0  0  0  0  0  0  0
    1.5318    0.3773    0.0000 P   0  0  0  0  0  0  0  0  0  0  0  0
    0.8174   -0.0352    0.0000 O   0  0  0  0  0  0  0  0  0  0  0  0
    1.9443   -0.3372    0.0000 O   0  0  0  0  0  0  0  0  0  0  0  0
    2.2463    0.7898    0.0000 O   0  0  0  0  0  0  0  0  0  0  0  0
    2.9608    0.3773    0.0000 P   0  0  0  0  0  0  0  0  0  0  0  0
    3.6752   -0.0352    0.0000 O   0  0  0  0  0  0  0  0  0  0  0  0
    3.3733    1.0917    0.0000 O   0  0  0  0  0  0  0  0  0  0  0  0
    2.5483   -0.3372    0.0000 O   0  0  0  0  0  0  0  0  0  0  0  0
   -3.4695   -1.6852    0.0000 F   0  0  0  0  0  0  0  0  0  0  0  0
   -3.1675   -0.5583    0.0000 F   0  0  0  0  0  0  0  0  0  0  0  0
   -2.3425   -1.9872    0.0000 F   0  0  0  0  0  0  0  0  0  0  0  0
  1  2  2  0
  1  8  1  0
  2  3  1  0
  2  4  1  0
  3 19  1  0
  3 20  1  0
  3 21  1  0
  4  5  2  0
  5  6  1  0
  5  7  1  0
  7  8  2  0
  7  9  1  0
  9 12  1  0
 11 10  1  0
 11 12  1  0
 11 13  2  0
 11 14  1  0
 14 15  1  0
 15 16  2  0
 15 17  1  0
 15 18  1  0
M  END
>  <DRUGBANK_ID>  (1) 
DB07782

>  <COMMON_NAME>  (1) 
4-AMINO-2-TRIFLUOROMETHYL-5-HYDROXYMETHYLPYRIMIDINE PYROPHOSPHATE

$$$$
