
     RDKit          2D

 27 30  0  0  0  0  0  0  0  0999 V2000
    3.0483   -3.0504    0.0000 C   0  0  0  0  0  0  0  0  0  0  0  0
    3.6004   -2.4373    0.0000 O   0  0  0  0  0  0  0  0  0  0  0  0
    3.3454   -1.6527    0.0000 C   0  0  0  0  0  0  0  0  0  0  0  0
    3.8974   -1.0396    0.0000 C   0  0  0  0  0  0  0  0  0  0  0  0
    3.6425   -0.2549    0.0000 N   0  0  0  0  0  0  0  0  0  0  0  0
    4.1274    0.4125    0.0000 C   0  0  0  0  0  0  0  0  0  0  0  0
    4.9524    0.4125    0.0000 C   0  0  0  0  0  0  0  0  0  0  0  0
    3.6425    1.0799    0.0000 N   0  0  0  0  0  0  0  0  0  0  0  0
    3.8974    1.8646    0.0000 C   0  0  0  0  0  0  0  0  0  0  0  0
    4.7044    2.0361    0.0000 C   0  0  0  0  0  0  0  0  0  0  0  0
    4.9594    2.8207    0.0000 N   0  0  0  0  0  0  0  0  0  0  0  0
    5.7663    2.9922    0.0000 C   0  0  0  0  0  0  0  0  0  0  0  0
    6.3184    2.3791    0.0000 C   0  0  0  0  0  0  0  0  0  0  0  0
    6.0634    1.5945    0.0000 N   0  0  0  0  0  0  0  0  0  0  0  0
    5.2564    1.4230    0.0000 C   0  0  0  0  0  0  0  0  0  0  0  0
    2.8579    0.8250    0.0000 C   0  0  0  0  0  0  0  0  0  0  0  0
    2.8579    0.0000    0.0000 C   0  0  0  0  0  0  0  0  0  0  0  0
    2.1434   -0.4125    0.0000 C   0  0  0  0  0  0  0  0  0  0  0  0
    2.1434   -1.2375    0.0000 O   0  0  0  0  0  0  0  0  0  0  0  0
    1.4289   -0.0000    0.0000 C   0  0  0  0  0  0  0  0  0  0  0  0
    0.7145   -0.4125    0.0000 C   0  0  0  0  0  0  0  0  0  0  0  0
   -0.0000    0.0000    0.0000 C   0  0  0  0  0  0  0  0  0  0  0  0
    0.0000    0.8250    0.0000 C   0  0  0  0  0  0  0  0  0  0  0  0
    0.7145    1.2375    0.0000 C   0  0  0  0  0  0  0  0  0  0  0  0
    1.4289    0.8250    0.0000 C   0  0  0  0  0  0  0  0  0  0  0  0
    2.1434    1.2375    0.0000 C   0  0  0  0  0  0  0  0  0  0  0  0
    2.1434    2.0625    0.0000 O   0  0  0  0  0  0  0  0  0  0  0  0
  1  2  1  0
  2  3  1  0
  3  4  1  0
  4  5  1  0
  5  6  2  0
  5 17  1  0
  6  7  1  0
  6  8  1  0
  8  9  1  0
  8 16  1  0
  9 10  1  0
 10 11  2  0
 10 15  1  0
 11 12  1  0
 12 13  2  0
 13 14  1  0
 14 15  2  0
 16 17  2  0
 16 26  1  0
 17 18  1  0
 18 19  2  0
 18 20  1  0
 20 21  2  0
 20 25  1  0
 21 22  1  0
 22 23  2  0
 23 24  1  0
 24 25  2  0
 25 26  1  0
 26 27  2  0
M  CHG  1   5   1
M  END
>  <DRUGBANK_ID>  (1) 
DB17062

>  <COMMON_NAME>  (1) 
Sepantronium

>  <CAS_NUMBER>  (1) 
753440-91-4

>  <UNII>  (1) 
UZ77T1VFBM

>  <SYNONYMS>  (1) 
1h-naphth(2,3-d)imidazolium, 4,9-dihydro-1-(2-methoxyethyl)-2-methyl-4,9-dioxo-3-(2-pyrazinylmethyl)-; Sepantronium cation; Sepantronium ion

$$$$
