
     RDKit          2D

 35 37  0  0  0  0  0  0  0  0999 V2000
    3.6510   -0.8572    0.0000 C   0  0  0  0  0  0  0  0  0  0  0  0
    2.9835   -0.3722    0.0000 O   0  0  0  0  0  0  0  0  0  0  0  0
    3.3962   -1.6417    0.0000 C   0  0  0  0  0  0  0  0  0  0  0  0
    2.5710   -1.6417    0.0000 C   0  0  0  0  0  0  0  0  0  0  0  0
    2.1585   -2.3562    0.0000 O   0  0  0  0  0  0  0  0  0  0  0  0
    2.3161   -0.8572    0.0000 C   0  0  0  0  0  0  0  0  0  0  0  0
    1.6017   -0.4447    0.0000 C   0  0  0  0  0  0  0  0  0  0  0  0
    0.7767   -0.4447    0.0000 O   0  0  0  0  0  0  0  0  0  0  0  0
   -0.8732   -0.4447    0.0000 O   0  0  0  0  0  0  0  0  0  0  0  0
   -2.5233   -0.4447    0.0000 O   0  0  0  0  0  0  0  0  0  0  0  0
   -3.2378   -0.8572    0.0000 C   0  0  0  0  0  0  0  0  0  0  0  0
   -3.9523   -0.4446    0.0000 O   0  0  0  0  0  0  0  0  0  0  0  0
   -4.6668   -0.8572    0.0000 C   0  0  0  0  0  0  0  0  0  0  0  0
   -3.9523   -2.0947    0.0000 C   0  0  0  0  0  0  0  0  0  0  0  0
   -3.9523   -2.9197    0.0000 O   0  0  0  0  0  0  0  0  0  0  0  0
   -3.2378   -1.6822    0.0000 C   0  0  0  0  0  0  0  0  0  0  0  0
   -4.6668   -1.6822    0.0000 C   0  0  0  0  0  0  0  0  0  0  0  0
   -5.3812   -2.0947    0.0000 O   0  0  0  0  0  0  0  0  0  0  0  0
   -1.6983    0.3803    0.0000 O   0  0  0  0  0  0  0  0  0  0  0  0
   -1.6983   -0.4447    0.0000 P   0  0  0  0  0  0  0  0  0  0  0  0
   -1.6983   -1.2697    0.0000 O   0  0  0  0  0  0  0  0  0  0  0  0
   -0.0482    0.3803    0.0000 O   0  0  0  0  0  0  0  0  0  0  0  0
   -0.0482   -0.4447    0.0000 P   0  0  0  0  0  0  0  0  0  0  0  0
   -0.0482   -1.2697    0.0000 O   0  0  0  0  0  0  0  0  0  0  0  0
   -2.5233   -2.0947    0.0000 O   0  0  0  0  0  0  0  0  0  0  0  0
   -5.3812   -0.4447    0.0000 C   0  0  0  0  0  0  0  0  0  0  0  0
    4.6668    0.8572    0.0000 C   0  0  0  0  0  0  0  0  0  0  0  0
    3.2378    1.6822    0.0000 N   0  0  0  0  0  0  0  0  0  0  0  0
    3.9523    0.4447    0.0000 N   0  0  0  0  0  0  0  0  0  0  0  0
    3.9523    2.0947    0.0000 C   0  0  0  0  0  0  0  0  0  0  0  0
    3.9523    2.9197    0.0000 O   0  0  0  0  0  0  0  0  0  0  0  0
    3.2378    0.8572    0.0000 C   0  0  0  0  0  0  0  0  0  0  0  0
    2.5234    0.4447    0.0000 O   0  0  0  0  0  0  0  0  0  0  0  0
    4.6668    1.6822    0.0000 C   0  0  0  0  0  0  0  0  0  0  0  0
    5.3812    2.0947    0.0000 C   0  0  0  0  0  0  0  0  0  0  0  0
  1 29  1  1
  2  1  1  0
  2  6  1  0
  3  1  1  0
  4  3  1  0
  4  5  1  6
  6  4  1  0
  6  7  1  1
  7  8  1  0
  8 23  1  0
  9 20  1  0
 11 10  1  6
 12 11  1  0
 12 13  1  0
 13 17  1  0
 13 26  1  6
 14 16  1  0
 14 15  1  6
 16 11  1  0
 16 25  1  6
 17 14  1  0
 17 18  1  1
 20 10  1  0
 20 19  2  0
 20 21  1  0
 23  9  1  0
 23 22  2  0
 23 24  1  0
 27 34  2  0
 28 32  1  0
 29 27  1  0
 30 28  1  0
 30 34  1  0
 30 31  2  0
 32 29  1  0
 32 33  2  0
 34 35  1  0
M  END
>  <DRUGBANK_ID>  (1) 
DB03723

>  <SECONDARY_ACCESSION_NUMBERS>  (1) 
EXPT03108

>  <COMMON_NAME>  (1) 
2'-Deoxy-thymidine-beta-L-rhamnose

>  <CAS_NUMBER>  (1) 
2147-59-3

>  <SYNONYMS>  (1) 
dTDP-6-deoxy-L-mannose; dTDP-6-deoxy-β-L-mannose; dTDP-L-rhamnose; dTDP-β-L-rhamnose; Thymidine diphosphate-L-rhamnose

$$$$
