
     RDKit          2D

 16 15  0  0  0  0  0  0  0  0999 V2000
    0.3572    0.2063    0.0000 C   0  0  0  0  0  0  0  0  0  0  0  0
   -0.3572   -0.2062    0.0000 C   0  0  0  0  0  0  0  0  0  0  0  0
    1.0717   -0.2063    0.0000 C   0  0  0  0  0  0  0  0  0  0  0  0
    1.7863    0.2062    0.0000 C   0  0  0  0  0  0  0  0  0  0  0  0
    1.0717   -1.0313    0.0000 O   0  0  0  0  0  0  0  0  0  0  0  0
    1.7862    1.0313    0.0000 O   0  0  0  0  0  0  0  0  0  0  0  0
    0.3572    1.0313    0.0000 O   0  0  0  0  0  0  0  0  0  0  0  0
   -0.3572   -1.0313    0.0000 O   0  0  0  0  0  0  0  0  0  0  0  0
   -1.0717    0.2062    0.0000 C   0  0  0  0  0  0  0  0  0  0  0  0
   -1.7862   -0.2063    0.0000 O   0  0  0  0  0  0  0  0  0  0  0  0
    2.5008   -0.2062    0.0000 C   0  0  0  0  0  0  0  0  0  0  0  0
    3.2154    0.2063    0.0000 O   0  0  0  0  0  0  0  0  0  0  0  0
   -2.5008    0.2061    0.0000 P   0  0  0  0  0  0  0  0  0  0  0  0
   -3.2154   -0.2064    0.0000 O   0  0  0  0  0  0  0  0  0  0  0  0
   -2.5008    1.0312    0.0000 O   0  0  0  0  0  0  0  0  0  0  0  0
   -2.5008   -0.6189    0.0000 O   0  0  0  0  0  0  0  0  0  0  0  0
  1  7  1  1
  1  2  1  0
  2  9  1  0
  2  8  1  6
  3  1  1  0
  3  5  1  1
  3  4  1  0
  6  4  2  0
  9 10  1  0
 10 13  1  0
 11  4  1  0
 11 12  1  0
 13 14  1  0
 13 15  2  0
 13 16  1  0
M  END
>  <DRUGBANK_ID>  (1) 
DB04493

>  <SECONDARY_ACCESSION_NUMBERS>  (1) 
EXPT01383

>  <COMMON_NAME>  (1) 
Fructose-6-phosphate

>  <CAS_NUMBER>  (1) 
643-13-0

>  <UNII>  (1) 
2012QM764Y

>  <SYNONYMS>  (1) 
D-Fructose 6-phosphate; D-Fructose 6-phosphoric acid; keto-D-fructose 6-phosphate; Neuberg ester

$$$$
