
     RDKit          2D

 15 14  0  0  0  0  0  0  0  0999 V2000
    0.5786    0.6682    0.0000 S   0  0  0  0  0  0  0  0  0  0  0  0
    2.0076    1.4932    0.0000 O   0  0  0  0  0  0  0  0  0  0  0  0
   -1.5647    1.9057    0.0000 O   0  0  0  0  0  0  0  0  0  0  0  0
    1.2931    2.7307    0.0000 O   0  0  0  0  0  0  0  0  0  0  0  0
   -0.8502    0.6682    0.0000 O   0  0  0  0  0  0  0  0  0  0  0  0
   -0.8502   -0.9817    0.0000 N   0  0  0  0  0  0  0  0  0  0  0  0
   -1.5647   -2.2192    0.0000 N   0  0  0  0  0  0  0  0  0  0  0  0
   -0.1357   -2.2192    0.0000 N   0  0  0  0  0  0  0  0  0  0  0  0
    0.5786    1.4932    0.0000 C   0  0  0  0  0  0  0  0  0  0  0  0
   -0.1357    1.9057    0.0000 C   0  0  0  0  0  0  0  0  0  0  0  0
   -0.1357    0.2557    0.0000 C   0  0  0  0  0  0  0  0  0  0  0  0
   -0.1357   -0.5692    0.0000 C   0  0  0  0  0  0  0  0  0  0  0  0
    1.2931    1.9057    0.0000 C   0  0  0  0  0  0  0  0  0  0  0  0
   -0.8502    1.4932    0.0000 C   0  0  0  0  0  0  0  0  0  0  0  0
   -0.8502   -1.8067    0.0000 C   0  0  0  0  0  0  0  0  0  0  0  0
  1  9  1  0
  1 11  1  0
  2 13  1  0
  3 14  1  0
  4 13  2  0
  5 14  2  0
  6 12  1  0
  6 15  2  3
  7 15  1  0
  8 15  1  0
  9 10  1  1
  9 13  1  0
 10 14  1  0
 11 12  1  0
M  END
>  <DRUGBANK_ID>  (1) 
DB04489

>  <SECONDARY_ACCESSION_NUMBERS>  (1) 
EXPT01581

>  <COMMON_NAME>  (1) 
Guanidinoethylmercaptosuccinic acid

>  <CAS_NUMBER>  (1) 
77482-44-1

>  <SYNONYMS>  (1) 
GEMSA

$$$$
