HZ3
     RDKit          2D

 29 32  0  0  0  0  0  0  0  0999 V2000
   -1.3672    0.6789    0.0000 C   0  0  0  0  0  0  0  0  0  0  0  0
   -1.9811    1.2300    0.0000 C   0  0  0  0  0  0  0  0  0  0  0  0
   -1.8107    2.0372    0.0000 C   0  0  0  0  0  0  0  0  0  0  0  0
   -2.4246    2.5884    0.0000 O   0  0  0  0  0  0  0  0  0  0  0  0
   -1.0265    2.2933    0.0000 C   0  0  0  0  0  0  0  0  0  0  0  0
   -0.4126    1.7422    0.0000 C   0  0  0  0  0  0  0  0  0  0  0  0
   -0.5830    0.9350    0.0000 C   0  0  0  0  0  0  0  0  0  0  0  0
    0.0309    0.3838    0.0000 C   0  0  0  0  0  0  0  0  0  0  0  0
    0.6712    0.8340    0.0000 C   0  0  0  0  0  0  0  0  0  0  0  0
    0.5112    1.6494    0.0000 O   0  0  0  0  0  0  0  0  0  0  0  0
    1.4667    0.3687    0.0000 C   0  0  0  0  0  0  0  0  0  0  0  0
    2.2548    0.6128    0.0000 C   0  0  0  0  0  0  0  0  0  0  0  0
    2.4375    1.4173    0.0000 O   0  0  0  0  0  0  0  0  0  0  0  0
    3.2255    1.6614    0.0000 C   0  0  0  0  0  0  0  0  0  0  0  0
    2.8602    0.0523    0.0000 O   0  0  0  0  0  0  0  0  0  0  0  0
    1.1716   -0.2567    0.0000 C   0  0  0  0  0  0  0  0  0  0  0  0
    1.4393   -1.0371    0.0000 C   0  0  0  0  0  0  0  0  0  0  0  0
    0.8972   -1.6590    0.0000 O   0  0  0  0  0  0  0  0  0  0  0  0
    1.1649   -2.4394    0.0000 C   0  0  0  0  0  0  0  0  0  0  0  0
    2.2489   -1.1955    0.0000 O   0  0  0  0  0  0  0  0  0  0  0  0
    0.4411    0.1136    0.0000 C   0  0  0  0  0  0  0  0  0  0  0  0
   -0.3344   -0.2767    0.0000 C   0  0  0  0  0  0  0  0  0  0  0  0
   -0.9290   -0.8486    0.0000 C   0  0  0  0  0  0  0  0  0  0  0  0
   -1.7216   -0.6196    0.0000 C   0  0  0  0  0  0  0  0  0  0  0  0
   -2.3162   -1.1915    0.0000 C   0  0  0  0  0  0  0  0  0  0  0  0
   -2.1182   -1.9924    0.0000 C   0  0  0  0  0  0  0  0  0  0  0  0
   -2.7128   -2.5643    0.0000 O   0  0  0  0  0  0  0  0  0  0  0  0
   -1.3256   -2.2214    0.0000 C   0  0  0  0  0  0  0  0  0  0  0  0
   -0.7310   -1.6495    0.0000 C   0  0  0  0  0  0  0  0  0  0  0  0
  1  2  2  0
  2  3  1  0
  3  4  1  0
  5  3  2  0
  6  5  1  0
  7  6  2  0
  7  1  1  0
  8  7  1  0
  8 22  2  0
  9  8  1  1
 10  9  1  0
 10 21  1  0
 11  9  1  0
 11 16  2  0
 12 13  1  0
 12 11  1  0
 13 14  1  0
 15 12  2  0
 21 16  1  6
 17 16  1  0
 17 18  1  0
 19 18  1  0
 20 17  2  0
 21 22  1  0
 22 23  1  0
 23 29  1  0
 23 24  2  0
 24 25  1  0
 25 26  2  0
 26 27  1  0
 28 26  1  0
 29 28  2  0
M  END
>  <DRUGBANK_ID>  (1) 
DB07932

>  <COMMON_NAME>  (1) 
dimethyl (1R,4S)-5,6-bis(4-hydroxyphenyl)-7-oxabicyclo[2.2.1]hepta-2,5-diene-2,3-dicarboxylate

$$$$
