
     RDKit          2D

 22 23  0  0  1  0  0  0  0  0999 V2000
    2.4454   -3.1895    0.0000 C   0  0  0  0  0  0  0  0  0  0  0  0
    2.8579   -2.4750    0.0000 C   0  0  0  0  0  0  0  0  0  0  0  0
    3.6829   -2.4750    0.0000 C   0  0  0  0  0  0  0  0  0  0  0  0
    8.6329    1.8118    0.0000 C   0  0  0  0  0  0  0  0  0  0  0  0
    7.8079    1.8118    0.0000 C   0  0  0  0  0  0  0  0  0  0  0  0
    9.0454    1.0974    0.0000 C   0  0  0  0  0  0  0  0  0  0  0  0
    7.3954    1.0974    0.0000 C   0  0  0  0  0  0  0  0  0  0  0  0
    8.6329    0.3829    0.0000 C   0  0  0  0  0  0  0  0  0  0  0  0
    4.0954   -1.7605    0.0000 C   0  0  0  0  0  0  0  0  0  0  0  0
    5.3329    0.3829    0.0000 C   0  0  0  0  0  0  0  0  0  0  0  0
    4.9204   -0.3316    0.0000 C   0  0  0  0  0  0  0  0  0  0  0  0
    7.3954   -0.3316    0.0000 C   0  0  0  0  0  0  0  0  0  0  0  0
    7.8079    0.3829    0.0000 C   0  0  0  0  0  0  0  0  0  0  0  0
    6.5704   -0.3316    0.0000 C   0  0  0  0  0  0  0  0  0  0  0  0
    4.9204   -1.7605    0.0000 C   0  0  0  0  0  0  0  0  0  0  0  0
    6.1579   -1.0461    0.0000 C   0  0  0  0  0  0  0  0  0  0  0  0
    5.3329   -2.4750    0.0000 C   0  0  0  0  0  0  0  0  0  0  0  0
    6.1579    0.3829    0.0000 N   0  0  0  0  0  0  0  0  0  0  0  0
    5.3329   -1.0461    0.0000 N   0  0  0  0  0  0  0  0  0  0  0  0
    6.5704   -1.7605    0.0000 O   0  0  0  0  0  0  0  0  0  0  0  0
    6.1579   -2.4750    0.0000 O   0  0  0  0  0  0  0  0  0  0  0  0
    4.9204   -3.1895    0.0000 O   0  0  0  0  0  0  0  0  0  0  0  0
  2  1  1  0
  3  2  1  0
  5  4  2  0
  6  4  1  0
  7  5  1  0
  8  6  2  0
  9  3  1  0
 11 10  1  0
 13  7  2  0
 13  8  1  0
 13 12  1  0
 14 12  1  6
 15  9  1  6
 15 19  1  0
 16 14  1  0
 17 15  1  0
 18 10  1  0
 18 14  1  0
 19 11  1  0
 19 16  1  0
 20 16  2  0
 21 17  2  0
 22 17  1  0
M  END
>  <DRUGBANK_ID>  (1) 
DB03090

>  <SECONDARY_ACCESSION_NUMBERS>  (1) 
EXPT02676

>  <COMMON_NAME>  (1) 
Ethylaminobenzylmethylcarbonyl Group

$$$$
