NOQ
     RDKit          2D

 24 25  0  0  0  0  0  0  0  0999 V2000
   -2.4725    1.1537    0.0000 C   0  0  0  0  0  0  0  0  0  0  0  0
   -2.4725    1.9787    0.0000 C   0  0  0  0  0  0  0  0  0  0  0  0
   -1.7581    2.3912    0.0000 C   0  0  0  0  0  0  0  0  0  0  0  0
   -1.0436    1.9787    0.0000 C   0  0  0  0  0  0  0  0  0  0  0  0
   -1.7581    0.7412    0.0000 C   0  0  0  0  0  0  0  0  0  0  0  0
   -1.0436    1.1537    0.0000 C   0  0  0  0  0  0  0  0  0  0  0  0
   -3.1870    2.3912    0.0000 O   0  0  0  0  0  0  0  0  0  0  0  0
    3.2432   -0.4963    0.0000 C   0  0  0  0  0  0  0  0  0  0  0  0
    2.5288   -0.9088    0.0000 N   0  0  0  0  0  0  0  0  0  0  0  0
    1.8143   -0.4963    0.0000 C   0  0  0  0  0  0  0  0  0  0  0  0
    1.8143    0.3287    0.0000 O   0  0  0  0  0  0  0  0  0  0  0  0
    1.0998   -0.9088    0.0000 C   0  0  0  0  0  0  0  0  0  0  0  0
    1.0998   -1.7338    0.0000 C   0  0  0  0  0  0  0  0  0  0  0  0
    0.3853   -2.1463    0.0000 C   0  0  0  0  0  0  0  0  0  0  0  0
   -0.3291   -1.7338    0.0000 C   0  0  0  0  0  0  0  0  0  0  0  0
   -0.3291   -0.9088    0.0000 C   0  0  0  0  0  0  0  0  0  0  0  0
    0.3853   -0.4963    0.0000 C   0  0  0  0  0  0  0  0  0  0  0  0
    0.3853    0.3287    0.0000 C   0  0  0  0  0  0  0  0  0  0  0  0
   -0.3291    0.7412    0.0000 S   0  0  0  0  0  0  0  0  0  0  0  0
   -0.7416    0.0268    0.0000 O   0  0  0  0  0  0  0  0  0  0  0  0
    0.0834    1.4557    0.0000 O   0  0  0  0  0  0  0  0  0  0  0  0
   -3.9015    1.9787    0.0000 C   0  0  0  0  0  0  0  0  0  0  0  0
    3.9577   -0.9088    0.0000 C   0  0  0  0  0  0  0  0  0  0  0  0
    4.6722   -0.4963    0.0000 N   0  0  0  0  0  0  0  0  0  0  0  0
  1  2  2  0
  1  5  1  0
  2  3  1  0
  2  7  1  0
  3  4  2  0
  4  6  1  0
  5  6  2  0
  6 19  1  0
  7 22  1  0
  8  9  1  0
  8 23  1  0
  9 10  1  0
 10 11  2  0
 12 10  1  6
 12 13  1  0
 12 17  1  0
 13 14  1  0
 14 15  1  0
 15 16  1  0
 16 17  1  0
 17 18  1  1
 18 19  1  0
 19 20  2  0
 19 21  2  0
 23 24  1  0
M  END
>  <DRUGBANK_ID>  (1) 
DB08287

>  <COMMON_NAME>  (1) 
(1R,2R)-N-(2-Aminoethyl)-2-{[(4-methoxyphenyl)sulfonyl]methyl}cyclohexanecarboxamide

$$$$
