SCE
     RDKit          2D

 18 20  0  0  0  0  0  0  0  0999 V2000
   -1.2664    1.8755    0.0000 C   0  0  0  0  0  0  0  0  0  0  0  0
   -0.4818    1.6206    0.0000 N   0  0  0  0  0  0  0  0  0  0  0  0
   -0.4818    0.7956    0.0000 C   0  0  0  0  0  0  0  0  0  0  0  0
   -1.2664    0.5407    0.0000 N   0  0  0  0  0  0  0  0  0  0  0  0
   -1.7513    1.2081    0.0000 C   0  0  0  0  0  0  0  0  0  0  0  0
    0.2327    2.0331    0.0000 C   0  0  0  0  0  0  0  0  0  0  0  0
    0.9472    1.6206    0.0000 C   0  0  0  0  0  0  0  0  0  0  0  0
    0.9472    0.7956    0.0000 N   0  0  0  0  0  0  0  0  0  0  0  0
    0.2327    0.3831    0.0000 C   0  0  0  0  0  0  0  0  0  0  0  0
    0.2327   -0.4419    0.0000 N   0  0  0  0  0  0  0  0  0  0  0  0
    0.9472   -0.8544    0.0000 C   0  0  0  0  0  0  0  0  0  0  0  0
    0.9472   -1.6794    0.0000 C   0  0  0  0  0  0  0  0  0  0  0  0
    1.6617   -2.0919    0.0000 C   0  0  0  0  0  0  0  0  0  0  0  0
    1.6617   -2.9169    0.0000 C   0  0  0  0  0  0  0  0  0  0  0  0
    0.9472   -3.3294    0.0000 N   0  0  0  0  0  0  0  0  0  0  0  0
    0.2327   -2.9169    0.0000 C   0  0  0  0  0  0  0  0  0  0  0  0
    0.2327   -2.0919    0.0000 C   0  0  0  0  0  0  0  0  0  0  0  0
   -1.5213    2.6602    0.0000 C   0  0  0  0  0  0  0  0  0  0  0  0
  1  2  1  0
  1 18  1  0
  2  6  1  0
  3  9  1  0
  3  2  1  0
  4  5  1  0
  4  3  2  0
  5  1  2  0
  7  6  2  0
  8  7  1  0
  9  8  2  0
 10 11  1  0
 10  9  1  0
 12 13  2  0
 12 11  1  0
 14 13  1  0
 15 14  2  0
 16 15  1  0
 16 17  2  0
 17 12  1  0
M  END
>  <DRUGBANK_ID>  (1) 
DB08533

>  <COMMON_NAME>  (1) 
3-methyl-N-(pyridin-4-ylmethyl)imidazo[1,2-a]pyrazin-8-amine

$$$$
