537
     RDKit          2D

 24 27  0  0  0  0  0  0  0  0999 V2000
    7.1488    1.2022    0.0000 F   0  0  0  0  0  0  0  0  0  0  0  0
    4.2364    2.0072    0.0000 O   0  0  0  0  0  0  0  0  0  0  0  0
    2.0930    0.7697    0.0000 O   0  0  0  0  0  0  0  0  0  0  0  0
    2.8075    2.0072    0.0000 O   0  0  0  0  0  0  0  0  0  0  0  0
    4.2364   -0.4678    0.0000 N   0  0  0  0  0  0  0  0  0  0  0  0
    7.1488   -0.4877    0.0000 N   0  0  0  0  0  0  0  0  0  0  0  0
    8.5746   -1.3182    0.0000 N   0  0  0  0  0  0  0  0  0  0  0  0
    4.2364   -1.2928    0.0000 C   0  0  0  0  0  0  0  0  0  0  0  0
    3.8239   -2.0072    0.0000 C   0  0  0  0  0  0  0  0  0  0  0  0
    4.6489   -2.0072    0.0000 C   0  0  0  0  0  0  0  0  0  0  0  0
    4.9509   -0.0553    0.0000 C   0  0  0  0  0  0  0  0  0  0  0  0
    3.5220   -0.0553    0.0000 C   0  0  0  0  0  0  0  0  0  0  0  0
    4.9509    0.7697    0.0000 C   0  0  0  0  0  0  0  0  0  0  0  0
    5.6884   -0.4963    0.0000 C   0  0  0  0  0  0  0  0  0  0  0  0
    6.4359   -0.0724    0.0000 C   0  0  0  0  0  0  0  0  0  0  0  0
    7.8649   -0.0780    0.0000 C   0  0  0  0  0  0  0  0  0  0  0  0
    7.1456   -1.3127    0.0000 C   0  0  0  0  0  0  0  0  0  0  0  0
    3.5220    0.7697    0.0000 C   0  0  0  0  0  0  0  0  0  0  0  0
    4.2364    1.1822    0.0000 C   0  0  0  0  0  0  0  0  0  0  0  0
    8.5778   -0.4932    0.0000 C   0  0  0  0  0  0  0  0  0  0  0  0
    7.8585   -1.7280    0.0000 C   0  0  0  0  0  0  0  0  0  0  0  0
    5.6884    1.2109    0.0000 C   0  0  0  0  0  0  0  0  0  0  0  0
    6.4359    0.7869    0.0000 C   0  0  0  0  0  0  0  0  0  0  0  0
    2.8075    1.1822    0.0000 C   0  0  0  0  0  0  0  0  0  0  0  0
  1 23  1  0
  2 19  2  0
  3 24  1  0
  4 24  2  0
  5  8  1  0
  5 11  1  0
  5 12  1  0
  6 15  1  0
  6 16  1  0
  6 17  1  0
  7 20  1  0
  7 21  1  0
  8  9  1  0
  8 10  1  0
  9 10  1  0
 11 13  2  0
 11 14  1  0
 12 18  2  0
 13 19  1  0
 13 22  1  0
 14 15  2  0
 15 23  1  0
 16 20  1  0
 17 21  1  0
 18 19  1  0
 18 24  1  0
 22 23  2  0
M  END
>  <DRUGBANK_ID>  (1) 
DB00537

>  <SECONDARY_ACCESSION_NUMBERS>  (1) 
APRD00424; EXPT00999

>  <COMMON_NAME>  (1) 
Ciprofloxacin

>  <CAS_NUMBER>  (1) 
85721-33-1

>  <UNII>  (1) 
5E8K9I0O4U

>  <SYNONYMS>  (1) 
1-cyclopropyl-6-fluoro-1,4-dihydro-4-oxo-7-(1-piperazinyl)-3-quinolinecarboxylic acid; 1-cyclopropyl-6-fluoro-4-oxo-7-(piperazin-1-yl)-1,4-dihydroquinoline-3-carboxylic acid; 1-Cyclopropyl-6-fluoro-4-oxo-7-piperazin-1-yl-1,4-dihydro-quinoline-3-carboxylic acid; 1-cyclopropyl-6-fluoro-4-oxo-7-piperazin-1-ylquinoline-3-carboxylic acid; 1-Cyclopropyl-6-fluoro-7-(4-methyl-piperazin-1-yl)-4-oxo-1,4-dihydro-quinoline-3-carboxylic acid; 1-cyclopropyl-6-fluoro-7-hexahydro-1-pyrazinyl-4-oxo-1,4-dihydro-3-quinolinecarboxylic acid; Ciprofloxacin; Ciprofloxacine; Ciprofloxacino; Ciprofloxacinum

$$$$
