
     RDKit          2D

 15 15  0  0  0  0  0  0  0  0999 V2000
    1.3736    0.8250    0.0000 O   0  0  0  0  0  0  0  0  0  0  0  0
   -0.0552    0.8250    0.0000 N   0  0  0  0  0  0  0  0  0  0  0  0
   -0.0552    0.0000    0.0000 N   0  0  0  0  0  0  0  0  0  0  0  0
    0.6592    2.0625    0.0000 C   0  0  0  0  0  0  0  0  0  0  0  0
   -0.1657    2.0625    0.0000 C   0  0  0  0  0  0  0  0  0  0  0  0
    1.4842    2.0625    0.0000 C   0  0  0  0  0  0  0  0  0  0  0  0
    0.6592    2.8875    0.0000 C   0  0  0  0  0  0  0  0  0  0  0  0
    0.6592    1.2375    0.0000 C   0  0  0  0  0  0  0  0  0  0  0  0
   -0.7697   -0.4125    0.0000 C   0  0  0  0  0  0  0  0  0  0  0  0
   -0.7697   -1.2375    0.0000 C   0  0  0  0  0  0  0  0  0  0  0  0
   -0.0552   -1.6500    0.0000 C   0  0  0  0  0  0  0  0  0  0  0  0
   -1.4842   -1.6500    0.0000 C   0  0  0  0  0  0  0  0  0  0  0  0
   -0.0552   -2.4750    0.0000 C   0  0  0  0  0  0  0  0  0  0  0  0
   -1.4842   -2.4750    0.0000 C   0  0  0  0  0  0  0  0  0  0  0  0
   -0.7697   -2.8875    0.0000 C   0  0  0  0  0  0  0  0  0  0  0  0
  1  8  2  0
  2  3  1  0
  2  8  1  0
  3  9  1  0
  4  5  1  0
  4  6  1  0
  4  7  1  0
  4  8  1  0
  9 10  1  0
 10 11  2  0
 10 12  1  0
 11 13  1  0
 12 14  2  0
 13 15  2  0
 14 15  1  0
M  END
>  <DRUGBANK_ID>  (1) 
DB09252

>  <COMMON_NAME>  (1) 
Pivhydrazine

>  <CAS_NUMBER>  (1) 
306-19-4

>  <UNII>  (1) 
TK1T520ASG

>  <SYNONYMS>  (1) 
Pivalylbenzhydrazine; Pivazide

$$$$
