
     RDKit          2D

 29 30  0  0  0  0  0  0  0  0999 V2000
    2.8840   -0.1316    0.0000 C   0  0  0  0  0  0  0  0  0  0  0  0
    3.1662    0.6436    0.0000 C   0  0  0  0  0  0  0  0  0  0  0  0
    2.1695    0.2808    0.0000 C   0  0  0  0  0  0  0  0  0  0  0  0
    2.8840   -0.9566    0.0000 C   0  0  0  0  0  0  0  0  0  0  0  0
    3.6965   -0.2748    0.0000 C   0  0  0  0  0  0  0  0  0  0  0  0
    3.9787    0.7869    0.0000 C   0  0  0  0  0  0  0  0  0  0  0  0
    2.6359    1.2756    0.0000 C   0  0  0  0  0  0  0  0  0  0  0  0
    1.4550   -0.1316    0.0000 N   0  0  0  0  0  0  0  0  0  0  0  0
    2.1695    1.1059    0.0000 O   0  0  0  0  0  0  0  0  0  0  0  0
    2.1695   -1.3691    0.0000 N   0  0  0  0  0  0  0  0  0  0  0  0
    3.5985   -1.3691    0.0000 O   0  0  0  0  0  0  0  0  0  0  0  0
    3.9787   -1.0501    0.0000 C   0  0  0  0  0  0  0  0  0  0  0  0
    4.2609    1.5621    0.0000 C   0  0  0  0  0  0  0  0  0  0  0  0
    2.9180    2.0509    0.0000 C   0  0  0  0  0  0  0  0  0  0  0  0
    0.7405    0.2808    0.0000 C   0  0  0  0  0  0  0  0  0  0  0  0
    1.4550   -0.9566    0.0000 C   0  0  0  0  0  0  0  0  0  0  0  0
    3.7305    2.1941    0.0000 C   0  0  0  0  0  0  0  0  0  0  0  0
    0.0260   -0.1316    0.0000 C   0  0  0  0  0  0  0  0  0  0  0  0
    0.7405   -1.3691    0.0000 O   0  0  0  0  0  0  0  0  0  0  0  0
   -0.6884    0.2808    0.0000 C   0  0  0  0  0  0  0  0  0  0  0  0
    0.0260   -0.9566    0.0000 O   0  0  0  0  0  0  0  0  0  0  0  0
   -1.4029   -0.1316    0.0000 O   0  0  0  0  0  0  0  0  0  0  0  0
   -0.6884   -1.3691    0.0000 C   0  0  0  0  0  0  0  0  0  0  0  0
   -2.1173    0.2808    0.0000 C   0  0  0  0  0  0  0  0  0  0  0  0
   -0.6884   -2.1941    0.0000 N   0  0  0  0  0  0  0  0  0  0  0  0
   -1.4029   -0.9566    0.0000 O   0  0  0  0  0  0  0  0  0  0  0  0
   -2.8319   -0.1316    0.0000 C   0  0  0  0  0  0  0  0  0  0  0  0
   -3.5463    0.2808    0.0000 C   0  0  0  0  0  0  0  0  0  0  0  0
   -4.2609   -0.1316    0.0000 C   0  0  0  0  0  0  0  0  0  0  0  0
  1  2  1  0
  1  3  1  0
  1  4  1  0
  1  5  1  0
  2  6  2  0
  2  7  1  0
  3  8  1  0
  3  9  2  0
  4 10  1  0
  4 11  2  0
  5 12  1  0
  6 13  1  0
  7 14  2  0
  8 15  1  0
  8 16  1  0
 10 16  1  0
 13 17  2  0
 14 17  1  0
 15 18  1  0
 16 19  2  0
 18 20  1  0
 18 21  1  0
 20 22  1  0
 21 23  1  0
 22 24  1  0
 23 25  1  0
 23 26  2  0
 24 27  1  0
 27 28  1  0
 28 29  1  0
M  END
>  <DRUGBANK_ID>  (1) 
DB13303

>  <COMMON_NAME>  (1) 
Febarbamate

>  <CAS_NUMBER>  (1) 
13246-02-1

>  <UNII>  (1) 
5Z48ONN38P

>  <SYNONYMS>  (1) 
Febarbamate; Febarbamato; Febarbamatum; Phebarbamate; Phenobamate

$$$$
