
     RDKit          2D

 27 29  0  0  0  0  0  0  0  0999 V2000
    2.7512   -4.1866    0.0000 C   0  0  0  0  0  0  0  0  0  0  0  0
    2.7512   -5.0116    0.0000 C   0  0  0  0  0  0  0  0  0  0  0  0
    3.4186   -5.4965    0.0000 C   0  0  0  0  0  0  0  0  0  0  0  0
    3.1637   -6.2812    0.0000 S   0  0  0  0  0  0  0  0  0  0  0  0
    2.3387   -6.2812    0.0000 C   0  0  0  0  0  0  0  0  0  0  0  0
    2.0837   -5.4965    0.0000 N   0  0  0  0  0  0  0  0  0  0  0  0
    1.8538   -6.9486    0.0000 N   0  0  0  0  0  0  0  0  0  0  0  0
    2.1893   -7.7023    0.0000 C   0  0  0  0  0  0  0  0  0  0  0  0
    1.0333   -6.8624    0.0000 C   0  0  0  0  0  0  0  0  0  0  0  0
    0.6977   -6.1087    0.0000 O   0  0  0  0  0  0  0  0  0  0  0  0
    0.5484   -7.5298    0.0000 C   0  0  0  0  0  0  0  0  0  0  0  0
   -0.2721   -7.4436    0.0000 C   0  0  0  0  0  0  0  0  0  0  0  0
   -0.7571   -8.1110    0.0000 C   0  0  0  0  0  0  0  0  0  0  0  0
   -1.5775   -8.0248    0.0000 C   0  0  0  0  0  0  0  0  0  0  0  0
   -1.9131   -7.2711    0.0000 C   0  0  0  0  0  0  0  0  0  0  0  0
   -1.4282   -6.6036    0.0000 C   0  0  0  0  0  0  0  0  0  0  0  0
   -0.6077   -6.6899    0.0000 C   0  0  0  0  0  0  0  0  0  0  0  0
   -2.7336   -7.1848    0.0000 C   0  0  0  0  0  0  0  0  0  0  0  0
   -3.2185   -7.8523    0.0000 C   0  0  0  0  0  0  0  0  0  0  0  0
   -4.0390   -7.7661    0.0000 C   0  0  0  0  0  0  0  0  0  0  0  0
   -4.3745   -7.0124    0.0000 C   0  0  0  0  0  0  0  0  0  0  0  0
   -3.8896   -6.3449    0.0000 C   0  0  0  0  0  0  0  0  0  0  0  0
   -3.0691   -6.4312    0.0000 N   0  0  0  0  0  0  0  0  0  0  0  0
    4.2032   -5.2416    0.0000 S   0  0  0  0  0  0  0  0  0  0  0  0
    4.9879   -4.9867    0.0000 O   0  0  0  0  0  0  0  0  0  0  0  0
    4.4582   -6.0262    0.0000 O   0  0  0  0  0  0  0  0  0  0  0  0
    3.9483   -4.4570    0.0000 N   0  0  0  0  0  0  0  0  0  0  0  0
  1  2  1  0
  2  3  2  0
  2  6  1  0
  3  4  1  0
  3 24  1  0
  4  5  1  0
  5  6  2  0
  5  7  1  0
  7  8  1  0
  7  9  1  0
  9 10  2  0
  9 11  1  0
 11 12  1  0
 12 13  2  0
 12 17  1  0
 13 14  1  0
 14 15  2  0
 15 16  1  0
 15 18  1  0
 16 17  2  0
 18 19  2  0
 18 23  1  0
 19 20  1  0
 20 21  2  0
 21 22  1  0
 22 23  2  0
 24 25  2  0
 24 26  2  0
 24 27  1  0
M  END
>  <DRUGBANK_ID>  (1) 
DB11844

>  <COMMON_NAME>  (1) 
Pritelivir

>  <CAS_NUMBER>  (1) 
348086-71-5

>  <UNII>  (1) 
07HQ1TJ4JE

>  <SYNONYMS>  (1) 
Pritelivir

$$$$
