YZ9
     RDKit          2D

 17 18  0  0  0  0  0  0  0  0999 V2000
    3.0954   -0.1385    0.0000 C   0  0  0  0  0  0  0  0  0  0  0  0
    2.3809   -0.5510    0.0000 C   0  0  0  0  0  0  0  0  0  0  0  0
    0.9520   -1.3760    0.0000 O   0  0  0  0  0  0  0  0  0  0  0  0
    1.6665   -0.1385    0.0000 O   0  0  0  0  0  0  0  0  0  0  0  0
   -1.9059   -0.5510    0.0000 C   0  0  0  0  0  0  0  0  0  0  0  0
   -0.4770   -0.5510    0.0000 C   0  0  0  0  0  0  0  0  0  0  0  0
   -1.9059    1.0990    0.0000 C   0  0  0  0  0  0  0  0  0  0  0  0
   -0.4770    1.0990    0.0000 O   0  0  0  0  0  0  0  0  0  0  0  0
   -1.1914   -0.1385    0.0000 C   0  0  0  0  0  0  0  0  0  0  0  0
   -1.1914    0.6865    0.0000 C   0  0  0  0  0  0  0  0  0  0  0  0
    0.2375    0.6865    0.0000 C   0  0  0  0  0  0  0  0  0  0  0  0
    0.9520   -0.5510    0.0000 C   0  0  0  0  0  0  0  0  0  0  0  0
   -3.3348    1.0990    0.0000 O   0  0  0  0  0  0  0  0  0  0  0  0
    0.9520    1.0990    0.0000 O   0  0  0  0  0  0  0  0  0  0  0  0
   -2.6204   -0.1385    0.0000 C   0  0  0  0  0  0  0  0  0  0  0  0
    0.2375   -0.1385    0.0000 C   0  0  0  0  0  0  0  0  0  0  0  0
   -2.6204    0.6865    0.0000 C   0  0  0  0  0  0  0  0  0  0  0  0
  1  2  1  0
  2  4  1  0
  3 12  2  0
  4 12  1  0
  5  9  2  0
  5 15  1  0
  6  9  1  0
  6 16  2  0
  7 10  2  0
  7 17  1  0
  8 10  1  0
  8 11  1  0
  9 10  1  0
 11 14  2  0
 11 16  1  0
 12 16  1  0
 13 17  1  0
 15 17  2  0
M  END
>  <DRUGBANK_ID>  (1) 
DB02728

>  <SECONDARY_ACCESSION_NUMBERS>  (1) 
EXPT03279

>  <COMMON_NAME>  (1) 
7-Hydroxy-2-Oxo-Chromene-3-Carboxylic Acid Ethyl Ester

>  <UNII>  (1) 
X538NC636R

$$$$
