159
     RDKit          2D

 17 17  0  0  0  0  0  0  0  0999 V2000
   -3.2601    0.0265    0.0000 O   0  0  0  0  0  0  0  0  0  0  0  0
   -2.5456   -0.3860    0.0000 C   0  0  0  0  0  0  0  0  0  0  0  0
   -2.5456   -1.2110    0.0000 O   0  0  0  0  0  0  0  0  0  0  0  0
   -1.8312    0.0265    0.0000 C   0  0  0  0  0  0  0  0  0  0  0  0
   -1.8312    0.8515    0.0000 C   0  0  0  0  0  0  0  0  0  0  0  0
   -1.1167    1.2640    0.0000 C   0  0  0  0  0  0  0  0  0  0  0  0
   -0.4022    0.8515    0.0000 C   0  0  0  0  0  0  0  0  0  0  0  0
   -2.5456    1.2640    0.0000 O   0  0  0  0  0  0  0  0  0  0  0  0
   -1.1167   -0.3860    0.0000 C   0  0  0  0  0  0  0  0  0  0  0  0
   -0.4022    0.0265    0.0000 C   0  0  0  0  0  0  0  0  0  0  0  0
    0.3122   -0.3860    0.0000 S   0  0  0  0  0  0  0  0  0  0  0  0
   -0.1003   -1.1005    0.0000 O   0  0  0  0  0  0  0  0  0  0  0  0
    0.7247    0.3285    0.0000 O   0  0  0  0  0  0  0  0  0  0  0  0
    1.0267   -0.7985    0.0000 N   0  0  0  0  0  0  0  0  0  0  0  0
    1.7412   -0.3860    0.0000 C   0  0  0  0  0  0  0  0  0  0  0  0
    2.4557   -0.7985    0.0000 C   0  0  0  0  0  0  0  0  0  0  0  0
    3.1701   -0.3860    0.0000 S   0  0  0  0  0  0  0  0  0  0  0  0
  1  2  1  0
  2  3  2  0
  2  4  1  0
  4  5  2  0
  4  9  1  0
  5  6  1  0
  5  8  1  0
  6  7  2  0
  7 10  1  0
  9 10  2  0
 10 11  1  0
 11 12  2  0
 11 13  2  0
 11 14  1  0
 14 15  1  0
 15 16  1  0
 16 17  1  0
M  END
>  <DRUGBANK_ID>  (1) 
DB06862

>  <COMMON_NAME>  (1) 
2-HYDROXY-5-(2-MERCAPTO-ETHYLSULFAMOYL)-BENZOIC ACID

$$$$
