
     RDKit          2D

 30 32  0  0  0  0  0  0  0  0999 V2000
    2.9646   -0.0616    0.0000 C   0  0  0  0  0  0  0  0  0  0  0  0
    2.2501   -0.4741    0.0000 C   0  0  0  0  0  0  0  0  0  0  0  0
    2.2501   -1.2991    0.0000 C   0  0  0  0  0  0  0  0  0  0  0  0
    1.5356   -1.7116    0.0000 C   0  0  0  0  0  0  0  0  0  0  0  0
    0.8212   -1.2991    0.0000 C   0  0  0  0  0  0  0  0  0  0  0  0
    0.8212   -0.4741    0.0000 C   0  0  0  0  0  0  0  0  0  0  0  0
    1.5356   -0.0616    0.0000 C   0  0  0  0  0  0  0  0  0  0  0  0
    0.1067   -1.7116    0.0000 C   0  0  0  0  0  0  0  0  0  0  0  0
    0.1067   -2.5366    0.0000 N   0  0  0  0  0  0  0  0  0  0  0  0
    0.7741   -3.0215    0.0000 C   0  0  0  0  0  0  0  0  0  0  0  0
    1.5588   -2.7666    0.0000 O   0  0  0  0  0  0  0  0  0  0  0  0
    0.5192   -3.8062    0.0000 N   0  0  0  0  0  0  0  0  0  0  0  0
   -0.3058   -3.8062    0.0000 C   0  0  0  0  0  0  0  0  0  0  0  0
   -0.5607   -3.0215    0.0000 N   0  0  0  0  0  0  0  0  0  0  0  0
   -0.7907   -4.4736    0.0000 C   0  0  0  0  0  0  0  0  0  0  0  0
   -0.4552   -5.2273    0.0000 C   0  0  0  0  0  0  0  0  0  0  0  0
    0.3653   -5.3135    0.0000 C   0  0  0  0  0  0  0  0  0  0  0  0
    0.7009   -6.0672    0.0000 C   0  0  0  0  0  0  0  0  0  0  0  0
    1.5214   -6.1534    0.0000 C   0  0  0  0  0  0  0  0  0  0  0  0
    1.8569   -6.9071    0.0000 C   0  0  0  0  0  0  0  0  0  0  0  0
    1.3720   -7.5745    0.0000 C   0  0  0  0  0  0  0  0  0  0  0  0
    0.5515   -7.4883    0.0000 C   0  0  0  0  0  0  0  0  0  0  0  0
    0.2160   -6.7346    0.0000 C   0  0  0  0  0  0  0  0  0  0  0  0
    1.7076   -8.3282    0.0000 O   0  0  0  0  0  0  0  0  0  0  0  0
    1.2226   -8.9956    0.0000 C   0  0  0  0  0  0  0  0  0  0  0  0
    0.5552   -8.5107    0.0000 C   0  0  0  0  0  0  0  0  0  0  0  0
    1.8901   -9.4806    0.0000 C   0  0  0  0  0  0  0  0  0  0  0  0
    0.7377   -9.6631    0.0000 C   0  0  0  0  0  0  0  0  0  0  0  0
    1.0733  -10.4168    0.0000 O   0  0  0  0  0  0  0  0  0  0  0  0
   -0.0828   -9.5768    0.0000 O   0  0  0  0  0  0  0  0  0  0  0  0
  1  2  1  0
  2  3  2  0
  2  7  1  0
  3  4  1  0
  4  5  2  0
  5  6  1  0
  5  8  1  0
  6  7  2  0
  8  9  1  0
  9 10  1  0
  9 14  1  0
 10 11  2  0
 10 12  1  0
 12 13  1  0
 13 14  2  0
 13 15  1  0
 15 16  1  0
 16 17  1  0
 17 18  1  0
 18 19  2  0
 18 23  1  0
 19 20  1  0
 20 21  2  0
 21 22  1  0
 21 24  1  0
 22 23  2  0
 24 25  1  0
 25 26  1  0
 25 27  1  0
 25 28  1  0
 28 29  2  0
 28 30  1  0
M  END
>  <DRUGBANK_ID>  (1) 
DB12988

>  <SECONDARY_ACCESSION_NUMBERS>  (1) 
DB05627

>  <COMMON_NAME>  (1) 
LY-518674

>  <CAS_NUMBER>  (1) 
425671-29-0

>  <UNII>  (1) 
U8I57RC739

$$$$
