PTU
     RDKit          2D

 12 12  0  0  0  0  0  0  0  0999 V2000
   -0.3797    1.0752    0.0000 N   0  0  0  0  0  0  0  0  0  0  0  0
    0.3348    0.6627    0.0000 C   0  0  0  0  0  0  0  0  0  0  0  0
    1.0493    1.0752    0.0000 S   0  0  0  0  0  0  0  0  0  0  0  0
    0.3348   -0.1623    0.0000 N   0  0  0  0  0  0  0  0  0  0  0  0
   -0.3797   -0.5748    0.0000 C   0  0  0  0  0  0  0  0  0  0  0  0
   -0.3797   -1.3998    0.0000 C   0  0  0  0  0  0  0  0  0  0  0  0
   -1.0942   -1.8123    0.0000 C   0  0  0  0  0  0  0  0  0  0  0  0
   -1.8086   -1.3998    0.0000 C   0  0  0  0  0  0  0  0  0  0  0  0
   -1.8086   -0.5748    0.0000 C   0  0  0  0  0  0  0  0  0  0  0  0
   -1.0942   -0.1623    0.0000 C   0  0  0  0  0  0  0  0  0  0  0  0
    1.7637    0.6627    0.0000 C   0  0  0  0  0  0  0  0  0  0  0  0
    2.4782    1.0752    0.0000 C   0  0  0  0  0  0  0  0  0  0  0  0
  1  2  1  0
  2  3  1  0
  2  4  2  0
  3 11  1  0
  4  5  1  0
  5  6  2  0
  5 10  1  0
  6  7  1  0
  7  8  2  0
  8  9  1  0
  9 10  2  0
 11 12  1  0
M  END
>  <DRUGBANK_ID>  (1) 
DB03707

>  <SECONDARY_ACCESSION_NUMBERS>  (1) 
EXPT02689

>  <COMMON_NAME>  (1) 
S-Ethyl-N-Phenyl-Isothiourea

$$$$
