
     RDKit          2D

 12 12  0  0  1  0  0  0  0  0999 V2000
    1.4289   -0.0000    0.0000 C   0  0  0  0  0  0  0  0  0  0  0  0
    2.1434    1.2375    0.0000 C   0  0  0  0  0  0  0  0  0  0  0  0
    1.4289    0.8250    0.0000 C   0  0  0  0  0  0  0  0  0  0  0  0
    0.7145   -0.4125    0.0000 C   0  0  0  0  0  0  0  0  0  0  0  0
    0.7145    1.2375    0.0000 C   0  0  0  0  0  0  0  0  0  0  0  0
    0.0000   -0.0000    0.0000 C   0  0  0  0  0  0  0  0  0  0  0  0
    0.0000    0.8250    0.0000 C   0  0  0  0  0  0  0  0  0  0  0  0
    0.7145   -1.2375    0.0000 N   0  0  0  0  0  0  0  0  0  0  0  0
    2.1434    2.0625    0.0000 O   0  0  0  0  0  0  0  0  0  0  0  0
    0.7145    2.0625    0.0000 O   0  0  0  0  0  0  0  0  0  0  0  0
   -0.7145   -0.4125    0.0000 O   0  0  0  0  0  0  0  0  0  0  0  0
   -0.7145    1.2375    0.0000 O   0  0  0  0  0  0  0  0  0  0  0  0
  3  1  2  0
  3  2  1  0
  4  1  1  0
  4  8  1  6
  5  3  1  0
  5 10  1  6
  6  4  1  0
  6 11  1  6
  7  5  1  0
  7  6  1  0
  7 12  1  1
  9  2  1  0
M  END
>  <DRUGBANK_ID>  (1) 
DB02120

>  <SECONDARY_ACCESSION_NUMBERS>  (1) 
EXPT00413

>  <COMMON_NAME>  (1) 
6-Amino-4-Hydroxymethyl-Cyclohex-4-Ene-1,2,3-Triol

>  <CAS_NUMBER>  (1) 
38231-86-6

$$$$
