
     RDKit          2D

 18 19  0  0  1  0  0  0  0  0999 V2000
    4.0668    2.3479    0.0000 C   0  0  0  0  0  0  0  0  0  0  0  0
    1.9233   -0.5396    0.0000 C   0  0  0  0  0  0  0  0  0  0  0  0
    3.3523    1.1104    0.0000 C   0  0  0  0  0  0  0  0  0  0  0  0
    1.1387    0.8555    0.0000 C   0  0  0  0  0  0  0  0  0  0  0  0
    3.3523    1.9354    0.0000 C   0  0  0  0  0  0  0  0  0  0  0  0
    1.9233    1.1104    0.0000 C   0  0  0  0  0  0  0  0  0  0  0  0
    2.6378    0.6979    0.0000 C   0  0  0  0  0  0  0  0  0  0  0  0
    0.6538    1.5229    0.0000 C   0  0  0  0  0  0  0  0  0  0  0  0
    1.9233    1.9354    0.0000 C   0  0  0  0  0  0  0  0  0  0  0  0
   -0.9962    1.5229    0.0000 N   0  0  0  0  0  0  0  0  0  0  0  0
    2.6378   -0.1271    0.0000 N   0  0  0  0  0  0  0  0  0  0  0  0
    3.0251    3.0764    0.0000 O   0  0  0  0  0  0  0  0  0  0  0  0
    2.2505    3.0764    0.0000 O   0  0  0  0  0  0  0  0  0  0  0  0
   -0.1712    2.3479    0.0000 O   0  0  0  0  0  0  0  0  0  0  0  0
   -0.1712    0.6979    0.0000 O   0  0  0  0  0  0  0  0  0  0  0  0
    1.1387    2.1904    0.0000 S   0  0  0  0  0  0  0  0  0  0  0  0
    2.6378    2.3479    0.0000 S   0  0  0  0  0  0  0  0  0  0  0  0
   -0.1712    1.5229    0.0000 S   0  0  0  0  0  0  0  0  0  0  0  0
  5  1  1  1
  5  3  1  0
  6  4  1  0
  7  3  1  0
  7  6  1  0
  7 11  1  6
  8  4  2  0
  9  6  2  0
 11  2  1  0
 16  8  1  0
 16  9  1  0
 17  5  1  0
 17  9  1  0
 17 12  2  0
 17 13  2  0
 18  8  1  0
 18 10  1  0
 18 14  2  0
 18 15  2  0
M  END
>  <DRUGBANK_ID>  (1) 
DB04081

>  <SECONDARY_ACCESSION_NUMBERS>  (1) 
EXPT02251

>  <COMMON_NAME>  (1) 
(4s-Trans)-4-(Methylamino)-5,6-Dihydro-6-Methyl-4h-Thieno(2,3-B)Thiopyran-2-Sulfonamide-7,7-Dioxide

$$$$
