4BE
     RDKit          2D

 22 23  0  0  0  0  0  0  0  0999 V2000
    2.2670    0.1323    0.0000 C   0  0  0  0  0  0  0  0  0  0  0  0
    2.9815   -0.2802    0.0000 C   0  0  0  0  0  0  0  0  0  0  0  0
    2.9815   -1.1052    0.0000 C   0  0  0  0  0  0  0  0  0  0  0  0
    3.6959   -1.5177    0.0000 Br  0  0  0  0  0  0  0  0  0  0  0  0
    2.2670   -1.5177    0.0000 C   0  0  0  0  0  0  0  0  0  0  0  0
    1.5525   -1.1052    0.0000 C   0  0  0  0  0  0  0  0  0  0  0  0
    1.5525   -0.2802    0.0000 C   0  0  0  0  0  0  0  0  0  0  0  0
    0.8380    0.1323    0.0000 C   0  0  0  0  0  0  0  0  0  0  0  0
    0.8380    0.9573    0.0000 O   0  0  0  0  0  0  0  0  0  0  0  0
    0.1236   -0.2802    0.0000 N   0  0  0  0  0  0  0  0  0  0  0  0
   -0.5909    0.1323    0.0000 N   0  0  0  0  0  0  0  0  0  0  0  0
   -1.3054   -0.2802    0.0000 C   0  0  0  0  0  0  0  0  0  0  0  0
   -2.0198    0.1323    0.0000 C   0  0  0  0  0  0  0  0  0  0  0  0
   -2.7343   -0.2802    0.0000 C   0  0  0  0  0  0  0  0  0  0  0  0
   -3.4488    0.1323    0.0000 C   0  0  0  0  0  0  0  0  0  0  0  0
   -4.1633   -0.2802    0.0000 Br  0  0  0  0  0  0  0  0  0  0  0  0
   -3.4488    0.9573    0.0000 C   0  0  0  0  0  0  0  0  0  0  0  0
   -4.1633    1.3698    0.0000 O   0  0  0  0  0  0  0  0  0  0  0  0
   -2.7343    1.3698    0.0000 C   0  0  0  0  0  0  0  0  0  0  0  0
   -2.7343    2.1948    0.0000 Br  0  0  0  0  0  0  0  0  0  0  0  0
   -2.0198    0.9573    0.0000 C   0  0  0  0  0  0  0  0  0  0  0  0
   -1.3054    1.3698    0.0000 O   0  0  0  0  0  0  0  0  0  0  0  0
  1  2  2  0
  1  7  1  0
  2  3  1  0
  3  4  1  0
  3  5  2  0
  5  6  1  0
  6  7  2  0
  7  8  1  0
  8  9  2  0
  8 10  1  0
 10 11  1  0
 11 12  2  0
 12 13  1  0
 13 14  2  0
 13 21  1  0
 14 15  1  0
 15 16  1  0
 15 17  2  0
 17 18  1  0
 17 19  1  0
 19 20  1  0
 19 21  2  0
 21 22  1  0
M  END
>  <DRUGBANK_ID>  (1) 
DB07098

>  <COMMON_NAME>  (1) 
4-bromo-N'-[(1E)-(3,5-dibromo-2,4-dihydroxyphenyl)methylidene]benzohydrazide

$$$$
