
     RDKit          2D

 26 27  0  0  0  0  0  0  0  0999 V2000
   -3.6585    1.8883    0.0000 C   0  0  0  0  0  0  0  0  0  0  0  0
   -3.2460    1.1738    0.0000 C   0  0  0  0  0  0  0  0  0  0  0  0
   -2.4211    1.1737    0.0000 C   0  0  0  0  0  0  0  0  0  0  0  0
   -2.0085    0.4593    0.0000 C   0  0  0  0  0  0  0  0  0  0  0  0
   -1.1836    0.4592    0.0000 C   0  0  0  0  0  0  0  0  0  0  0  0
   -0.6986    1.1266    0.0000 N   0  0  0  0  0  0  0  0  0  0  0  0
    0.0860    0.8717    0.0000 C   0  0  0  0  0  0  0  0  0  0  0  0
    0.0860    0.0467    0.0000 C   0  0  0  0  0  0  0  0  0  0  0  0
   -0.6986   -0.2081    0.0000 N   0  0  0  0  0  0  0  0  0  0  0  0
   -0.9535   -0.9928    0.0000 C   0  0  0  0  0  0  0  0  0  0  0  0
   -1.7606   -1.1643    0.0000 C   0  0  0  0  0  0  0  0  0  0  0  0
   -2.0156   -1.9489    0.0000 N   0  0  0  0  0  0  0  0  0  0  0  0
   -2.8225   -2.1205    0.0000 C   0  0  0  0  0  0  0  0  0  0  0  0
   -3.0776   -2.9050    0.0000 C   0  0  0  0  0  0  0  0  0  0  0  0
   -1.4635   -2.5620    0.0000 C   0  0  0  0  0  0  0  0  0  0  0  0
   -1.7184   -3.3467    0.0000 C   0  0  0  0  0  0  0  0  0  0  0  0
    0.8005   -0.3657    0.0000 C   0  0  0  0  0  0  0  0  0  0  0  0
    1.5150    0.0466    0.0000 C   0  0  0  0  0  0  0  0  0  0  0  0
    1.5150    0.8716    0.0000 C   0  0  0  0  0  0  0  0  0  0  0  0
    0.8005    1.2842    0.0000 C   0  0  0  0  0  0  0  0  0  0  0  0
    2.2294    1.2841    0.0000 C   0  0  0  0  0  0  0  0  0  0  0  0
    2.2296    2.1092    0.0000 C   0  0  0  0  0  0  0  0  0  0  0  0
    2.9441    2.5217    0.0000 C   0  0  0  0  0  0  0  0  0  0  0  0
    2.9442    3.3467    0.0000 O   0  0  0  0  0  0  0  0  0  0  0  0
    3.6585    2.1091    0.0000 N   0  0  0  0  0  0  0  0  0  0  0  0
    3.6584    1.2840    0.0000 O   0  0  0  0  0  0  0  0  0  0  0  0
  1  2  1  0
  2  3  1  0
  3  4  1  0
  4  5  1  0
  5  6  2  0
  6  7  1  0
  7  8  2  0
  8  9  1  0
  8 17  1  0
  9  5  1  0
  9 10  1  0
 10 11  1  0
 11 12  1  0
 12 13  1  0
 12 15  1  0
 13 14  1  0
 15 16  1  0
 17 18  2  0
 18 19  1  0
 19 20  2  0
 20  7  1  0
 21 19  1  0
 21 22  2  0
 22 23  1  0
 23 24  2  0
 23 25  1  0
 25 26  1  0
M  END
>  <DRUGBANK_ID>  (1) 
DB05223

>  <COMMON_NAME>  (1) 
Pracinostat

>  <CAS_NUMBER>  (1) 
929016-96-6

>  <UNII>  (1) 
GPO2JN4UON

>  <SYNONYMS>  (1) 
Pracinostat; Pracinostatum

$$$$
