60714
     RDKit          2D

 29 28  0  0  1  0  0  0  0  0999 V2000
    1.6500    2.7688    0.0000 Gd  0  0  0  0  0 15  0  0  0  0  0  0
    7.6004    2.6789    0.0000 O   0  0  0  0  0  0  0  0  0  0  0  0
    2.4680    2.6610    0.0000 O   0  0  0  0  0  0  0  0  0  0  0  0
    6.7833   -3.1904    0.0000 O   0  0  0  0  0  0  0  0  0  0  0  0
    2.2815    1.2443    0.0000 O   0  0  0  0  0  0  0  0  0  0  0  0
    5.4631   -2.6436    0.0000 O   0  0  0  0  0  0  0  0  0  0  0  0
    2.6934   -2.7702    0.0000 O   0  0  0  0  0  0  0  0  0  0  0  0
    2.3236   -1.3899    0.0000 O   0  0  0  0  0  0  0  0  0  0  0  0
    6.1714    1.0289    0.0000 N   0  0  0  0  0  0  0  0  0  0  0  0
    6.0946   -1.1192    0.0000 N   0  0  0  0  0  0  0  0  0  0  0  0
    3.9174    1.0289    0.0000 N   0  0  0  0  0  0  0  0  0  0  0  0
    3.9174   -0.9629    0.0000 N   0  0  0  0  0  0  0  0  0  0  0  0
    5.4569    1.4414    0.0000 C   0  0  0  0  0  0  0  0  0  0  0  0
    6.1714    0.2039    0.0000 C   0  0  0  0  0  0  0  0  0  0  0  0
    6.5071   -0.4047    0.0000 C   0  0  0  0  0  0  0  0  0  0  0  0
    4.7425    1.0289    0.0000 C   0  0  0  0  0  0  0  0  0  0  0  0
    5.2977   -1.3327    0.0000 C   0  0  0  0  0  0  0  0  0  0  0  0
    3.3341    0.4455    0.0000 C   0  0  0  0  0  0  0  0  0  0  0  0
    4.7143   -0.7494    0.0000 C   0  0  0  0  0  0  0  0  0  0  0  0
    3.3341   -0.3795    0.0000 C   0  0  0  0  0  0  0  0  0  0  0  0
    6.8858    1.4414    0.0000 C   0  0  0  0  0  0  0  0  0  0  0  0
    6.8858    2.2664    0.0000 C   0  0  0  0  0  0  0  0  0  0  0  0
    6.5968   -1.7737    0.0000 C   0  0  0  0  0  0  0  0  0  0  0  0
    3.6017    1.7911    0.0000 C   0  0  0  0  0  0  0  0  0  0  0  0
    3.7038   -1.7598    0.0000 C   0  0  0  0  0  0  0  0  0  0  0  0
    6.1714    2.6789    0.0000 C   0  0  0  0  0  0  0  0  0  0  0  0
    2.7837    1.8988    0.0000 C   0  0  0  0  0  0  0  0  0  0  0  0
    6.2811   -2.5359    0.0000 C   0  0  0  0  0  0  0  0  0  0  0  0
    2.9070   -1.9733    0.0000 C   0  0  0  0  0  0  0  0  0  0  0  0
  2 22  1  0
  3 27  1  0
  4 28  1  0
  5 27  2  0
  6 28  2  0
  7 29  1  0
  8 29  2  0
  9 13  1  0
  9 14  1  0
  9 21  1  0
 10 15  1  0
 10 17  1  0
 10 23  1  0
 11 16  1  0
 11 18  1  0
 11 24  1  0
 12 19  1  0
 12 20  1  0
 12 25  1  0
 13 16  1  0
 14 15  1  0
 17 19  1  0
 18 20  1  0
 21 22  1  0
 22 26  1  0
 23 28  1  0
 24 27  1  0
 25 29  1  0
M  CHG  4   1   3   3  -1   4  -1   7  -1
M  END
>  <DRUGBANK_ID>  (1) 
DB00597

>  <SECONDARY_ACCESSION_NUMBERS>  (1) 
APRD00992

>  <COMMON_NAME>  (1) 
Gadoteridol

>  <CAS_NUMBER>  (1) 
120066-54-8

>  <UNII>  (1) 
0199MV609F

>  <SYNONYMS>  (1) 
gadolinium 2,2',2''-[10-(2-hydroxypropyl)-1,4,7,10-tetraazacyclododecane-1,4,7-triyl]triacetate; gadolinium-HP-DO3A; Gadoteridol; Gadoteridolum; GD-HP-DO 3A; Gd-HPDO3A

$$$$
