MR4
     RDKit          2D

 18 20  0  0  0  0  0  0  0  0999 V2000
   -2.1110    1.4090    0.0000 C   0  0  0  0  0  0  0  0  0  0  0  0
   -1.6985    0.6946    0.0000 C   0  0  0  0  0  0  0  0  0  0  0  0
   -0.8735    0.6946    0.0000 C   0  0  0  0  0  0  0  0  0  0  0  0
   -2.1110   -0.0199    0.0000 C   0  0  0  0  0  0  0  0  0  0  0  0
   -2.9360   -0.0199    0.0000 O   0  0  0  0  0  0  0  0  0  0  0  0
   -1.6985   -0.7344    0.0000 C   0  0  0  0  0  0  0  0  0  0  0  0
   -2.1110   -1.4489    0.0000 C   0  0  0  0  0  0  0  0  0  0  0  0
   -0.8735   -0.7344    0.0000 C   0  0  0  0  0  0  0  0  0  0  0  0
   -0.4610   -0.0199    0.0000 C   0  0  0  0  0  0  0  0  0  0  0  0
    0.3640   -0.0199    0.0000 C   0  0  0  0  0  0  0  0  0  0  0  0
    0.8489    0.6475    0.0000 O   0  0  0  0  0  0  0  0  0  0  0  0
    1.6335    0.3926    0.0000 C   0  0  0  0  0  0  0  0  0  0  0  0
    2.3480    0.8051    0.0000 C   0  0  0  0  0  0  0  0  0  0  0  0
    3.0625    0.3926    0.0000 C   0  0  0  0  0  0  0  0  0  0  0  0
    3.0625   -0.4324    0.0000 C   0  0  0  0  0  0  0  0  0  0  0  0
    2.3480   -0.8449    0.0000 C   0  0  0  0  0  0  0  0  0  0  0  0
    1.6335   -0.4324    0.0000 C   0  0  0  0  0  0  0  0  0  0  0  0
    0.8489   -0.6874    0.0000 N   0  0  0  0  0  0  0  0  0  0  0  0
  1  2  1  0
  2  3  2  0
  2  4  1  0
  3  9  1  0
  4  6  2  0
  4  5  1  0
  6  8  1  0
  6  7  1  0
  8  9  2  0
  9 10  1  0
 10 18  2  0
 10 11  1  0
 11 12  1  0
 12 13  2  0
 12 17  1  0
 13 14  1  0
 14 15  2  0
 15 16  1  0
 16 17  2  0
 17 18  1  0
M  END
>  <DRUGBANK_ID>  (1) 
DB08205

>  <COMMON_NAME>  (1) 
4-(1,3-BENZOXAZOL-2-YL)-2,6-DIMETHYLPHENOL

$$$$
