
     RDKit          2D

  5  3  0  0  0  0  0  0  0  0999 V2000
   -0.1395   -0.9899    0.0000 Na  0  0  0  0  0 15  0  0  0  0  0  0
   -0.7004   -0.2461    0.0000 O   0  0  0  0  0  0  0  0  0  0  0  0
    0.0406    0.1649    0.0000 C   0  0  0  0  0  0  0  0  0  0  0  0
    0.0406    0.9899    0.0000 C   0  0  0  0  0  0  0  0  0  0  0  0
    0.7004   -0.2461    0.0000 O   0  0  0  0  0  0  0  0  0  0  0  0
  2  3  1  0
  3  4  1  0
  3  5  2  0
M  CHG  2   1   1   2  -1
M  END
>  <DRUGBANK_ID>  (1) 
DB09395

>  <SECONDARY_ACCESSION_NUMBERS>  (1) 
DB09470

>  <COMMON_NAME>  (1) 
Sodium acetate

>  <CAS_NUMBER>  (1) 
127-09-3

>  <UNII>  (1) 
NVG71ZZ7P0

>  <SYNONYMS>  (1) 
Acetato de sodio; acetic acid, sodium salt; Acetic acid, sodium salt (1:1); anhydrous sodium acetate; Natriumazetat; Sodio acetato; Sodium acetate anhydrous; Sodium acetate, anhydrous; Sodium acetate,anhydrous

$$$$
