
     RDKit          2D

 31 33  0  0  0  0  0  0  0  0999 V2000
   -1.7545    2.9736    0.0000 S   0  0  0  0  0  0  0  0  0  0  0  0
    3.9641   -0.0167    0.0000 O   0  0  0  0  0  0  0  0  0  0  0  0
    0.7895    0.1662    0.0000 O   0  0  0  0  0  0  0  0  0  0  0  0
    1.4501    2.5043    0.0000 O   0  0  0  0  0  0  0  0  0  0  0  0
   -0.0354    3.0242    0.0000 O   0  0  0  0  0  0  0  0  0  0  0  0
    2.5120    1.5481    0.0000 N   0  0  0  0  0  0  0  0  0  0  0  0
    0.7895    1.5951    0.0000 N   0  0  0  0  0  0  0  0  0  0  0  0
   -1.7545    1.6457    0.0000 N   0  0  0  0  0  0  0  0  0  0  0  0
   -0.0354   -1.2628    0.0000 N   0  0  0  0  0  0  0  0  0  0  0  0
   -1.2729   -1.9772    0.0000 N   0  0  0  0  0  0  0  0  0  0  0  0
   -0.0354   -2.6917    0.0000 N   0  0  0  0  0  0  0  0  0  0  0  0
    2.0271    0.8807    0.0000 C   0  0  0  0  0  0  0  0  0  0  0  0
    2.5120    0.2132    0.0000 C   0  0  0  0  0  0  0  0  0  0  0  0
    3.2967    0.4681    0.0000 C   0  0  0  0  0  0  0  0  0  0  0  0
    3.2967    1.2932    0.0000 C   0  0  0  0  0  0  0  0  0  0  0  0
    1.2020    0.8807    0.0000 C   0  0  0  0  0  0  0  0  0  0  0  0
    2.2571    2.3328    0.0000 C   0  0  0  0  0  0  0  0  0  0  0  0
   -0.0354    1.5951    0.0000 C   0  0  0  0  0  0  0  0  0  0  0  0
   -0.4479    0.8807    0.0000 C   0  0  0  0  0  0  0  0  0  0  0  0
    2.8092    2.9459    0.0000 C   0  0  0  0  0  0  0  0  0  0  0  0
   -0.0354    0.1662    0.0000 C   0  0  0  0  0  0  0  0  0  0  0  0
   -0.4479    2.3096    0.0000 C   0  0  0  0  0  0  0  0  0  0  0  0
   -0.4479   -0.5481    0.0000 C   0  0  0  0  0  0  0  0  0  0  0  0
   -1.2729    2.3096    0.0000 C   0  0  0  0  0  0  0  0  0  0  0  0
   -2.5350    2.7222    0.0000 C   0  0  0  0  0  0  0  0  0  0  0  0
   -2.5350    1.8972    0.0000 C   0  0  0  0  0  0  0  0  0  0  0  0
   -3.2496    3.1347    0.0000 C   0  0  0  0  0  0  0  0  0  0  0  0
   -3.2496    1.4847    0.0000 C   0  0  0  0  0  0  0  0  0  0  0  0
   -0.4479   -1.9772    0.0000 C   0  0  0  0  0  0  0  0  0  0  0  0
   -3.9641    2.7222    0.0000 C   0  0  0  0  0  0  0  0  0  0  0  0
   -3.9641    1.8972    0.0000 C   0  0  0  0  0  0  0  0  0  0  0  0
  1 24  1  0
  1 25  1  0
  3 16  2  0
  4 17  2  0
  5 22  2  0
  6 12  1  0
  6 15  1  0
  6 17  1  0
  7 16  1  0
  8 24  2  0
  8 26  1  0
  9 23  1  0
  9 29  2  3
 10 29  1  0
 11 29  1  0
 12 13  1  0
 12 16  1  1
 13 14  1  0
 14  2  1  6
 14 15  1  0
 17 20  1  0
 18  7  1  0
 18 19  1  1
 18 22  1  0
 19 21  1  0
 21 23  1  0
 22 24  1  0
 25 26  2  0
 25 27  1  0
 26 28  1  0
 27 30  2  0
 28 31  2  0
 30 31  1  0
M  END
>  <DRUGBANK_ID>  (1) 
DB02812

>  <SECONDARY_ACCESSION_NUMBERS>  (1) 
EXPT00391

>  <COMMON_NAME>  (1) 
RWJ-56423

>  <SYNONYMS>  (1) 
(2S,4R)-1-acetyl-N-[(2S)-1-(1,3-benzothiazol-2-yl)-5-(diaminomethylideneamino)-1-oxopentan-2-yl]-4-hydroxypyrrolidine-2-carboxamide

$$$$
