
     RDKit          2D

 10 11  0  0  0  0  0  0  0  0999 V2000
    0.3019   -0.6740    0.0000 C   0  0  0  0  0  0  0  0  0  0  0  0
   -0.4125   -1.0865    0.0000 C   0  0  0  0  0  0  0  0  0  0  0  0
    0.3019    0.1509    0.0000 C   0  0  0  0  0  0  0  0  0  0  0  0
   -0.4125    0.5634    0.0000 C   0  0  0  0  0  0  0  0  0  0  0  0
   -1.1270   -0.6740    0.0000 C   0  0  0  0  0  0  0  0  0  0  0  0
   -1.1270    0.1509    0.0000 C   0  0  0  0  0  0  0  0  0  0  0  0
    1.1270   -0.6740    0.0000 C   0  0  0  0  0  0  0  0  0  0  0  0
    0.7144   -1.3885    0.0000 C   0  0  0  0  0  0  0  0  0  0  0  0
   -0.4125    1.3884    0.0000 C   0  0  0  0  0  0  0  0  0  0  0  0
   -0.4125   -0.2615    0.0000 C   0  0  0  0  0  0  0  0  0  0  0  0
  1  7  1  0
  1  8  1  0
  1  2  1  0
  2  5  1  0
  3  1  1  0
  3  4  1  0
  4  9  2  0
  4  6  1  0
  6  5  1  0
 10  3  1  0
 10  2  1  0
M  END
>  <DRUGBANK_ID>  (1) 
DB15574

>  <COMMON_NAME>  (1) 
beta-Pinene

>  <CAS_NUMBER>  (1) 
127-91-3

>  <UNII>  (1) 
4MS8VHZ1HJ

>  <SYNONYMS>  (1) 
2(10)-pinene; nopinene; pseudopinene; Î²-pinene

$$$$
