
     RDKit          2D

 34 36  0  0  0  0  0  0  0  0999 V2000
    3.6939   -0.0923    0.0000 O   0  0  0  0  0  0  0  0  0  0  0  0
    2.9659   -0.4762    0.0000 O   0  0  0  0  0  0  0  0  0  0  0  0
   -2.7499   -1.3013    0.0000 O   0  0  0  0  0  0  0  0  0  0  0  0
   -5.6079   -0.4762    0.0000 O   0  0  0  0  0  0  0  0  0  0  0  0
   -4.8934    0.7612    0.0000 O   0  0  0  0  0  0  0  0  0  0  0  0
   -5.6079   -2.9513    0.0000 O   0  0  0  0  0  0  0  0  0  0  0  0
   -4.1789   -2.9513    0.0000 O   0  0  0  0  0  0  0  0  0  0  0  0
    2.2514    0.7612    0.0000 N   0  0  0  0  0  0  0  0  0  0  0  0
    2.2514    2.4113    0.0000 N   0  0  0  0  0  0  0  0  0  0  0  0
    0.1079    1.1737    0.0000 N   0  0  0  0  0  0  0  0  0  0  0  0
    3.7035    2.4399    0.0000 N   0  0  0  0  0  0  0  0  0  0  0  0
    4.4510    1.1566    0.0000 N   0  0  0  0  0  0  0  0  0  0  0  0
   -3.4644   -0.0637    0.0000 N   0  0  0  0  0  0  0  0  0  0  0  0
    5.1639    2.4311    0.0000 N   0  0  0  0  0  0  0  0  0  0  0  0
    1.5370    1.1737    0.0000 C   0  0  0  0  0  0  0  0  0  0  0  0
    1.5370    1.9987    0.0000 C   0  0  0  0  0  0  0  0  0  0  0  0
    0.8225    0.7612    0.0000 C   0  0  0  0  0  0  0  0  0  0  0  0
    2.9659    1.1737    0.0000 C   0  0  0  0  0  0  0  0  0  0  0  0
    2.9659    1.9987    0.0000 C   0  0  0  0  0  0  0  0  0  0  0  0
    3.7035    0.7326    0.0000 C   0  0  0  0  0  0  0  0  0  0  0  0
    2.2514   -0.0637    0.0000 C   0  0  0  0  0  0  0  0  0  0  0  0
   -0.6064    0.7612    0.0000 C   0  0  0  0  0  0  0  0  0  0  0  0
    4.4510    2.0159    0.0000 C   0  0  0  0  0  0  0  0  0  0  0  0
   -1.3209    1.1737    0.0000 C   0  0  0  0  0  0  0  0  0  0  0  0
   -0.6064   -0.0637    0.0000 C   0  0  0  0  0  0  0  0  0  0  0  0
   -4.1789   -0.4762    0.0000 C   0  0  0  0  0  0  0  0  0  0  0  0
   -4.1789   -1.3013    0.0000 C   0  0  0  0  0  0  0  0  0  0  0  0
   -2.0354   -0.0637    0.0000 C   0  0  0  0  0  0  0  0  0  0  0  0
   -2.0354    0.7612    0.0000 C   0  0  0  0  0  0  0  0  0  0  0  0
   -1.3209   -0.4762    0.0000 C   0  0  0  0  0  0  0  0  0  0  0  0
   -2.7499   -0.4762    0.0000 C   0  0  0  0  0  0  0  0  0  0  0  0
   -4.8934   -1.7138    0.0000 C   0  0  0  0  0  0  0  0  0  0  0  0
   -4.8934   -0.0637    0.0000 C   0  0  0  0  0  0  0  0  0  0  0  0
   -4.8934   -2.5388    0.0000 C   0  0  0  0  0  0  0  0  0  0  0  0
  1 20  2  0
  2 21  2  0
  3 31  2  0
  4 33  1  0
  5 33  2  0
  6 34  1  0
  7 34  2  0
  8 15  1  0
  8 18  1  0
  8 21  1  0
  9 16  1  0
  9 19  1  0
 10 17  1  0
 10 22  1  0
 11 19  1  0
 11 23  1  0
 12 20  1  0
 12 23  2  0
 13 31  1  0
 14 23  1  0
 15 16  1  0
 15 17  1  6
 18 19  2  0
 18 20  1  0
 22 24  2  0
 22 25  1  0
 24 29  1  0
 25 30  2  0
 26 13  1  0
 26 27  1  1
 26 33  1  0
 27 32  1  0
 28 29  2  0
 28 30  1  0
 28 31  1  0
 32 34  1  0
M  END
>  <DRUGBANK_ID>  (1) 
DB03256

>  <SECONDARY_ACCESSION_NUMBERS>  (1) 
EXPT01470

>  <COMMON_NAME>  (1) 
(6R)-Folinic acid

>  <CAS_NUMBER>  (1) 
73951-54-9

>  <SYNONYMS>  (1) 
(6R,2'S)-Folinic acid; (6R)-Leucovorin; [6R]-5-formyl-5,6,7,8-tetrahydrofolate ; 6R-Leucovorin; Dextrofolinic acid; L-Glutamic acid, N-[4-[[[(6R)-2-amino-5-formyl-3,4,5,6,7,8-hexahydro-4-oxo-6-pteridinyl]methyl]amino]benzoyl]-; N-{[4-({[(6R)-2-amino-5-formyl-4-oxo-1,4,5,6,7,8-hexahydropteridin-6-yl]methyl}amino)phenyl]carbonyl}-L-glutamic acid

$$$$
