
     RDKit          2D

 28 30  0  0  0  0  0  0  0  0999 V2000
   -4.9225    0.4154    0.0000 C   0  0  0  0  0  0  0  0  0  0  0  0
   -4.2080    0.0029    0.0000 C   0  0  0  0  0  0  0  0  0  0  0  0
   -4.2080   -0.8221    0.0000 C   0  0  0  0  0  0  0  0  0  0  0  0
   -4.9225   -1.2346    0.0000 C   0  0  0  0  0  0  0  0  0  0  0  0
   -5.6370   -0.8221    0.0000 C   0  0  0  0  0  0  0  0  0  0  0  0
   -5.6370    0.0029    0.0000 C   0  0  0  0  0  0  0  0  0  0  0  0
   -6.3514   -1.2346    0.0000 O   0  0  0  0  0  0  0  0  0  0  0  0
   -7.0659   -0.8221    0.0000 C   0  0  0  0  0  0  0  0  0  0  0  0
   -7.7804   -1.2346    0.0000 C   0  0  0  0  0  0  0  0  0  0  0  0
   -8.4948   -1.6471    0.0000 C   0  0  0  0  0  0  0  0  0  0  0  0
   -9.2093   -1.2346    0.0000 F   0  0  0  0  0  0  0  0  0  0  0  0
   -8.4948   -2.4721    0.0000 F   0  0  0  0  0  0  0  0  0  0  0  0
   -7.3679   -1.9490    0.0000 F   0  0  0  0  0  0  0  0  0  0  0  0
   -8.1929   -0.5201    0.0000 F   0  0  0  0  0  0  0  0  0  0  0  0
   -3.4935   -1.2346    0.0000 C   0  0  0  0  0  0  0  0  0  0  0  0
   -2.7791   -0.8221    0.0000 N   0  0  0  0  0  0  0  0  0  0  0  0
   -2.0646   -1.2346    0.0000 C   0  0  0  0  0  0  0  0  0  0  0  0
   -1.3501   -0.8221    0.0000 C   0  0  0  0  0  0  0  0  0  0  0  0
   -0.6357   -1.2346    0.0000 C   0  0  0  0  0  0  0  0  0  0  0  0
   -0.5494   -2.0551    0.0000 C   0  0  0  0  0  0  0  0  0  0  0  0
    0.2575   -2.2266    0.0000 N   0  0  0  0  0  0  0  0  0  0  0  0
    0.6700   -1.5121    0.0000 C   0  0  0  0  0  0  0  0  0  0  0  0
    0.1180   -0.8990    0.0000 C   0  0  0  0  0  0  0  0  0  0  0  0
    0.3730   -0.1144    0.0000 C   0  0  0  0  0  0  0  0  0  0  0  0
    1.1799    0.0571    0.0000 C   0  0  0  0  0  0  0  0  0  0  0  0
    1.7320   -0.5560    0.0000 C   0  0  0  0  0  0  0  0  0  0  0  0
    1.4770   -1.3406    0.0000 C   0  0  0  0  0  0  0  0  0  0  0  0
    2.5389   -0.3844    0.0000 F   0  0  0  0  0  0  0  0  0  0  0  0
  1  2  2  0
  1  6  1  0
  2  3  1  0
  3  4  2  0
  3 15  1  0
  4  5  1  0
  5  6  2  0
  5  7  1  0
  7  8  1  0
  8  9  1  0
  9 10  1  0
  9 13  1  0
  9 14  1  0
 10 11  1  0
 10 12  1  0
 15 16  1  0
 16 17  1  0
 17 18  1  0
 18 19  1  0
 19 20  2  0
 19 23  1  0
 20 21  1  0
 21 22  1  0
 22 23  2  0
 22 27  1  0
 23 24  1  0
 24 25  2  0
 25 26  1  0
 26 27  2  0
 26 28  1  0
M  END
>  <DRUGBANK_ID>  (1) 
DB11957

>  <COMMON_NAME>  (1) 
Idalopirdine

>  <CAS_NUMBER>  (1) 
467459-31-0

>  <UNII>  (1) 
59WCJ0YNWM

>  <SYNONYMS>  (1) 
Idalopirdine

$$$$
