
     RDKit          2D

 28 30  0  0  0  0  0  0  0  0999 V2000
    2.4242   -2.4525    0.0000 C   0  0  0  0  0  0  0  0  0  0  0  0
    1.6131   -2.3015    0.0000 O   0  0  0  0  0  0  0  0  0  0  0  0
    1.3384   -1.5236    0.0000 C   0  0  0  0  0  0  0  0  0  0  0  0
    1.8746   -0.8968    0.0000 C   0  0  0  0  0  0  0  0  0  0  0  0
    2.6856   -1.0478    0.0000 O   0  0  0  0  0  0  0  0  0  0  0  0
    3.2220   -0.4209    0.0000 C   0  0  0  0  0  0  0  0  0  0  0  0
    1.5999   -0.1189    0.0000 C   0  0  0  0  0  0  0  0  0  0  0  0
    0.7888    0.0321    0.0000 C   0  0  0  0  0  0  0  0  0  0  0  0
    0.2524   -0.5947    0.0000 C   0  0  0  0  0  0  0  0  0  0  0  0
    0.5273   -1.3725    0.0000 C   0  0  0  0  0  0  0  0  0  0  0  0
   -0.0089   -1.9994    0.0000 O   0  0  0  0  0  0  0  0  0  0  0  0
    0.2657   -2.7773    0.0000 C   0  0  0  0  0  0  0  0  0  0  0  0
   -0.5719   -0.5663    0.0000 C   0  0  0  0  0  0  0  0  0  0  0  0
   -0.7832   -1.3637    0.0000 C   0  0  0  0  0  0  0  0  0  0  0  0
   -1.5384   -1.6958    0.0000 C   0  0  0  0  0  0  0  0  0  0  0  0
   -2.2689   -1.3124    0.0000 C   0  0  0  0  0  0  0  0  0  0  0  0
   -2.4245   -0.5024    0.0000 C   0  0  0  0  0  0  0  0  0  0  0  0
   -3.2219   -0.2912    0.0000 O   0  0  0  0  0  0  0  0  0  0  0  0
   -1.8883    0.1244    0.0000 C   0  0  0  0  0  0  0  0  0  0  0  0
   -1.0638    0.0960    0.0000 C   0  0  0  0  0  0  0  0  0  0  0  0
   -0.8526    0.8936    0.0000 C   0  0  0  0  0  0  0  0  0  0  0  0
   -0.0973    1.2257    0.0000 C   0  0  0  0  0  0  0  0  0  0  0  0
    0.6330    0.8423    0.0000 C   0  0  0  0  0  0  0  0  0  0  0  0
   -1.4795    1.4298    0.0000 N   0  0  0  0  0  0  0  0  0  0  0  0
   -1.3284    2.2409    0.0000 C   0  0  0  0  0  0  0  0  0  0  0  0
   -1.9553    2.7773    0.0000 O   0  0  0  0  0  0  0  0  0  0  0  0
   -0.5505    2.5157    0.0000 C   0  0  0  0  0  0  0  0  0  0  0  0
   -2.9310   -1.8043    0.0000 O   0  0  0  0  0  0  0  0  0  0  0  0
  1  2  1  0
  2  3  1  0
  3  4  2  0
  3 10  1  0
  4  5  1  0
  4  7  1  0
  5  6  1  0
  7  8  2  0
  8  9  1  0
  8 23  1  0
  9 10  2  0
  9 13  1  0
 10 11  1  0
 11 12  1  0
 13 14  2  0
 13 20  1  0
 14 15  1  0
 15 16  2  0
 16 17  1  0
 16 28  1  0
 17 18  2  0
 17 19  1  0
 19 20  2  0
 20 21  1  0
 21 22  1  0
 21 24  1  0
 22 23  1  0
 24 25  1  0
 25 26  2  0
 25 27  1  0
M  END
>  <DRUGBANK_ID>  (1) 
DB15534

>  <COMMON_NAME>  (1) 
Colchiceine

>  <CAS_NUMBER>  (1) 
477-27-0

>  <UNII>  (1) 
HJ30158L57

>  <SYNONYMS>  (1) 
10-O-demethylcolchicine; O-Demethylcolchicine; O10-Demethylcolchicine

$$$$
