1124
     RDKit          2D

 18 18  0  0  0  0  0  0  0  0999 V2000
    2.4751   -0.6188    0.0000 S   0  0  0  0  0  0  0  0  0  0  0  0
    1.6500   -0.6188    0.0000 O   0  0  0  0  0  0  0  0  0  0  0  0
    3.3001   -0.6188    0.0000 O   0  0  0  0  0  0  0  0  0  0  0  0
    3.9041    0.2063    0.0000 O   0  0  0  0  0  0  0  0  0  0  0  0
    3.1895    1.4438    0.0000 N   0  0  0  0  0  0  0  0  0  0  0  0
    2.4751    0.2063    0.0000 N   0  0  0  0  0  0  0  0  0  0  0  0
    3.9041    2.6813    0.0000 C   0  0  0  0  0  0  0  0  0  0  0  0
    3.9041    1.8563    0.0000 C   0  0  0  0  0  0  0  0  0  0  0  0
    4.6185    3.0938    0.0000 C   0  0  0  0  0  0  0  0  0  0  0  0
    2.4751   -1.4438    0.0000 C   0  0  0  0  0  0  0  0  0  0  0  0
    4.6185    3.9188    0.0000 C   0  0  0  0  0  0  0  0  0  0  0  0
    3.1895    0.6188    0.0000 C   0  0  0  0  0  0  0  0  0  0  0  0
    1.7606   -1.8563    0.0000 C   0  0  0  0  0  0  0  0  0  0  0  0
    3.1895   -1.8563    0.0000 C   0  0  0  0  0  0  0  0  0  0  0  0
    2.4751   -3.0938    0.0000 C   0  0  0  0  0  0  0  0  0  0  0  0
    1.7606   -2.6813    0.0000 C   0  0  0  0  0  0  0  0  0  0  0  0
    3.1895   -2.6813    0.0000 C   0  0  0  0  0  0  0  0  0  0  0  0
    2.4751   -3.9188    0.0000 C   0  0  0  0  0  0  0  0  0  0  0  0
  1  2  2  0
  1  3  2  0
  1  6  1  0
  1 10  1  0
  4 12  2  0
  5  8  1  0
  5 12  1  0
  6 12  1  0
  7  8  1  0
  7  9  1  0
  9 11  1  0
 10 13  2  0
 10 14  1  0
 13 16  1  0
 14 17  2  0
 15 16  2  0
 15 17  1  0
 15 18  1  0
M  END
>  <DRUGBANK_ID>  (1) 
DB01124

>  <SECONDARY_ACCESSION_NUMBERS>  (1) 
APRD00267

>  <COMMON_NAME>  (1) 
Tolbutamide

>  <CAS_NUMBER>  (1) 
64-77-7

>  <UNII>  (1) 
982XCM1FOI

>  <SYNONYMS>  (1) 
1-Butyl-3-(p-methylphenylsulfonyl)urea; 1-Butyl-3-(p-tolylsulfonyl)urea; 1-Butyl-3-tosylurea; 1-p-Toluenesulfonyl-3-butylurea; 3-(p-Tolyl-4-sulfonyl)-1-butylurea; N-(4-Methylbenzenesulfonyl)-N'-butylurea; N-(4-Methylphenylsulfonyl)-N'-butylurea; N-(p-Methylbenzenesulfonyl)-N'-butylurea; N-(Sulfonyl-p-methylbenzene)-N'-N-butylurea; N-Butyl-N'-(4-methylphenylsulfonyl)urea; N-Butyl-N'-(p-tolylsulfonyl)urea; N-Butyl-N'-p-toluenesulfonylurea; N-n-Butyl-N'-tosylurea; Tolbutamida; Tolbutamide; Tolbutamidum; Tolylsulfonylbutylurea

$$$$
