FR7
     RDKit          2D

 22 23  0  0  0  0  0  0  0  0999 V2000
   -1.4190    0.1708    0.0000 C   0  0  0  0  0  0  0  0  0  0  0  0
   -0.6653   -0.1647    0.0000 N   0  0  0  0  0  0  0  0  0  0  0  0
   -0.7516   -0.9852    0.0000 C   0  0  0  0  0  0  0  0  0  0  0  0
   -1.5586   -1.1567    0.0000 N   0  0  0  0  0  0  0  0  0  0  0  0
   -1.9711   -0.4423    0.0000 C   0  0  0  0  0  0  0  0  0  0  0  0
   -2.7915   -0.3560    0.0000 C   0  0  0  0  0  0  0  0  0  0  0  0
   -3.2765   -1.0235    0.0000 O   0  0  0  0  0  0  0  0  0  0  0  0
   -3.1271    0.3976    0.0000 N   0  0  0  0  0  0  0  0  0  0  0  0
    0.0491    0.2478    0.0000 C   0  0  0  0  0  0  0  0  0  0  0  0
    0.0491    1.0728    0.0000 C   0  0  0  0  0  0  0  0  0  0  0  0
   -0.6653    1.4853    0.0000 O   0  0  0  0  0  0  0  0  0  0  0  0
    0.7636   -0.1647    0.0000 C   0  0  0  0  0  0  0  0  0  0  0  0
    1.4781    0.2478    0.0000 C   0  0  0  0  0  0  0  0  0  0  0  0
    2.1925   -0.1647    0.0000 C   0  0  0  0  0  0  0  0  0  0  0  0
    2.9070    0.2478    0.0000 C   0  0  0  0  0  0  0  0  0  0  0  0
    3.6215   -0.1647    0.0000 C   0  0  0  0  0  0  0  0  0  0  0  0
    3.6215   -0.9897    0.0000 C   0  0  0  0  0  0  0  0  0  0  0  0
    2.9070   -1.4022    0.0000 C   0  0  0  0  0  0  0  0  0  0  0  0
    2.1925   -0.9897    0.0000 C   0  0  0  0  0  0  0  0  0  0  0  0
    2.9070   -2.2272    0.0000 Cl  0  0  0  0  0  0  0  0  0  0  0  0
    1.4781   -1.4022    0.0000 Cl  0  0  0  0  0  0  0  0  0  0  0  0
    0.7636    1.4853    0.0000 C   0  0  0  0  0  0  0  0  0  0  0  0
  1  2  1  0
  1  5  2  0
  2  3  1  0
  3  4  2  0
  4  5  1  0
  5  6  1  0
  6  7  2  0
  6  8  1  0
  9  2  1  0
  9 10  1  0
  9 12  1  1
 10 11  1  0
 10 22  1  1
 12 13  1  0
 13 14  1  0
 14 15  2  0
 14 19  1  0
 15 16  1  0
 16 17  2  0
 17 18  1  0
 18 19  2  0
 18 20  1  0
 19 21  1  0
M  END
>  <DRUGBANK_ID>  (1) 
DB03370

>  <SECONDARY_ACCESSION_NUMBERS>  (1) 
EXPT01486

>  <COMMON_NAME>  (1) 
FR239087

$$$$
