
     RDKit          2D

 37 41  0  0  1  0  0  0  0  0999 V2000
   -0.7676   -1.7309    0.0000 C   0  0  0  0  0  0  0  0  0  0  0  0
   -2.0051   -2.4454    0.0000 C   0  0  0  0  0  0  0  0  0  0  0  0
    3.9934    0.8250    0.0000 C   0  0  0  0  0  0  0  0  0  0  0  0
    3.2789    1.2375    0.0000 C   0  0  0  0  0  0  0  0  0  0  0  0
   -5.3051   -2.4454    0.0000 C   0  0  0  0  0  0  0  0  0  0  0  0
   -4.0676   -3.1599    0.0000 C   0  0  0  0  0  0  0  0  0  0  0  0
   -5.7176   -3.1599    0.0000 C   0  0  0  0  0  0  0  0  0  0  0  0
   -4.4801   -3.8743    0.0000 C   0  0  0  0  0  0  0  0  0  0  0  0
   -0.7676    1.1270    0.0000 C   0  0  0  0  0  0  0  0  0  0  0  0
   -1.5926    1.1270    0.0000 C   0  0  0  0  0  0  0  0  0  0  0  0
   -2.0051   -1.0164    0.0000 C   0  0  0  0  0  0  0  0  0  0  0  0
    3.2789   -0.4125    0.0000 C   0  0  0  0  0  0  0  0  0  0  0  0
    1.7798   -0.2549    0.0000 C   0  0  0  0  0  0  0  0  0  0  0  0
   -4.4801   -1.0164    0.0000 C   0  0  0  0  0  0  0  0  0  0  0  0
   -3.2426   -1.7309    0.0000 C   0  0  0  0  0  0  0  0  0  0  0  0
   -0.7676   -0.3020    0.0000 C   0  0  0  0  0  0  0  0  0  0  0  0
   -1.5926   -1.7309    0.0000 C   0  0  0  0  0  0  0  0  0  0  0  0
   -4.4801   -2.4454    0.0000 C   0  0  0  0  0  0  0  0  0  0  0  0
    2.5645    0.0000    0.0000 C   0  0  0  0  0  0  0  0  0  0  0  0
   -4.0676   -1.7309    0.0000 C   0  0  0  0  0  0  0  0  0  0  0  0
    3.9934    0.0000    0.0000 C   0  0  0  0  0  0  0  0  0  0  0  0
   -1.5926   -0.3020    0.0000 C   0  0  0  0  0  0  0  0  0  0  0  0
    2.5645    0.8250    0.0000 C   0  0  0  0  0  0  0  0  0  0  0  0
    1.2949    0.4125    0.0000 C   0  0  0  0  0  0  0  0  0  0  0  0
   -3.2426   -0.3020    0.0000 C   0  0  0  0  0  0  0  0  0  0  0  0
   -2.8301    0.4125    0.0000 C   0  0  0  0  0  0  0  0  0  0  0  0
    4.7079   -0.4125    0.0000 Cl  0  0  0  0  0  0  0  0  0  0  0  0
   -5.3051   -3.8743    0.0000 N   0  0  0  0  0  0  0  0  0  0  0  0
   -4.0676   -0.3020    0.0000 N   0  0  0  0  0  0  0  0  0  0  0  0
   -2.8301   -1.0164    0.0000 N   0  0  0  0  0  0  0  0  0  0  0  0
    1.7798    1.0799    0.0000 N   0  0  0  0  0  0  0  0  0  0  0  0
   -0.3551    0.4125    0.0000 N   0  0  0  0  0  0  0  0  0  0  0  0
   -2.0051    0.4125    0.0000 N   0  0  0  0  0  0  0  0  0  0  0  0
   -3.2426    1.1270    0.0000 O   0  0  0  0  0  0  0  0  0  0  0  0
    0.4699    1.2375    0.0000 O   0  0  0  0  0  0  0  0  0  0  0  0
    0.4699   -0.4125    0.0000 O   0  0  0  0  0  0  0  0  0  0  0  0
    0.4699    0.4125    0.0000 S   0  0  0  0  0  0  0  0  0  0  0  0
  4  3  2  0
  7  5  2  0
  8  6  1  0
 10  9  1  0
 17  1  1  0
 17  2  1  0
 17 11  1  0
 18  5  1  0
 18  6  2  0
 19 12  1  0
 19 13  1  0
 20 14  2  0
 20 15  1  0
 20 18  1  0
 21  3  1  0
 21 12  2  0
 22 11  1  1
 22 16  1  0
 23  4  1  0
 23 19  2  0
 24 13  2  0
 26 25  1  0
 27 21  1  0
 28  7  1  0
 28  8  2  0
 29 14  1  0
 29 25  2  0
 30 15  2  0
 30 25  1  0
 31 23  1  0
 31 24  1  0
 32  9  1  0
 32 16  1  0
 33 10  1  0
 33 22  1  0
 33 26  1  0
 34 26  2  0
 37 24  1  0
 37 32  1  0
 37 35  2  0
 37 36  2  0
M  END
>  <DRUGBANK_ID>  (1) 
DB04673

>  <COMMON_NAME>  (1) 
4-[(5-CHLOROINDOL-2-YL)SULFONYL]-2-(2-METHYLPROPYL)-1-[[5-(PYRIDIN-4-YL)PYRIMIDIN-2-YL]CARBONYL]PIPERAZINE

$$$$
