
     RDKit          2D

 24 26  0  0  0  0  0  0  0  0999 V2000
   -0.4420    0.8204    0.0000 C   0  0  0  0  0  0  0  0  0  0  0  0
   -0.4438    2.4731    0.0000 C   0  0  0  0  0  0  0  0  0  0  0  0
    0.2714    2.0641    0.0000 C   0  0  0  0  0  0  0  0  0  0  0  0
    0.9870    0.8159    0.0000 C   0  0  0  0  0  0  0  0  0  0  0  0
    1.7097    1.2291    0.0000 C   0  0  0  0  0  0  0  0  0  0  0  0
    1.7109    2.0621    0.0000 C   0  0  0  0  0  0  0  0  0  0  0  0
    0.9894    2.4817    0.0000 C   0  0  0  0  0  0  0  0  0  0  0  0
    2.4229    0.8146    0.0000 C   0  0  0  0  0  0  0  0  0  0  0  0
    2.4262    2.4726    0.0000 C   0  0  0  0  0  0  0  0  0  0  0  0
    0.2744    1.2314    0.0000 C   0  0  0  0  0  0  0  0  0  0  0  0
    0.9835   -0.0089    0.0000 C   0  0  0  0  0  0  0  0  0  0  0  0
    0.2675   -0.4145    0.0000 C   0  0  0  0  0  0  0  0  0  0  0  0
    0.2636   -1.2386    0.0000 C   0  0  0  0  0  0  0  0  0  0  0  0
    1.6957   -0.4182    0.0000 C   0  0  0  0  0  0  0  0  0  0  0  0
    1.6954   -1.2410    0.0000 C   0  0  0  0  0  0  0  0  0  0  0  0
    0.9807   -1.6568    0.0000 C   0  0  0  0  0  0  0  0  0  0  0  0
   -1.1546    1.2361    0.0000 C   0  0  0  0  0  0  0  0  0  0  0  0
   -1.1554    2.0621    0.0000 C   0  0  0  0  0  0  0  0  0  0  0  0
   -1.9412    2.3165    0.0000 O   0  0  0  0  0  0  0  0  0  0  0  0
   -2.4262    1.6476    0.0000 C   0  0  0  0  0  0  0  0  0  0  0  0
   -1.9398    0.9801    0.0000 O   0  0  0  0  0  0  0  0  0  0  0  0
    2.4103   -1.6523    0.0000 O   0  0  0  0  0  0  0  0  0  0  0  0
    2.4116   -2.4772    0.0000 C   0  0  0  0  0  0  0  0  0  0  0  0
    0.9803   -2.4817    0.0000 O   0  0  0  0  0  0  0  0  0  0  0  0
  1 10  2  0
  2 18  1  0
  3  2  2  0
  3  7  1  0
  3 10  1  0
  4  5  1  0
  4 11  1  0
  5  6  1  0
  5  8  1  1
  6  7  1  0
  6  9  1  1
 11 12  2  0
 12 13  1  0
 13 16  2  0
 14 11  1  0
 15 14  2  0
 15 16  1  0
 15 22  1  0
 16 24  1  0
 17 18  2  0
 17  1  1  0
 18 19  1  0
 19 20  1  0
 20 21  1  0
 21 17  1  0
 22 23  1  0
M  END
>  <DRUGBANK_ID>  (1) 
DB14129

>  <COMMON_NAME>  (1) 
Macelignan

>  <CAS_NUMBER>  (1) 
107534-93-0

>  <UNII>  (1) 
8PP3614Z43

>  <SYNONYMS>  (1) 
(8R,8'S)-7-(3,4-methylenedioxyphenyl)-7'-(4-hydroxy-3-methoxyphenyl)-8,8'-dimethylbutane; Anwulignan; Austrobailignan 6

$$$$
