
     RDKit          2D

 39 40  0  0  1  0  0  0  0  0999 V2000
  -18.6050   -5.0662    0.0000 C   0  0  0  0  0  0  0  0  0  0  0  0
  -17.8906   -5.4787    0.0000 C   0  0  0  0  0  0  0  0  0  0  0  0
  -17.1761   -5.0662    0.0000 C   0  0  0  0  0  0  0  0  0  0  0  0
  -16.4616   -5.4787    0.0000 C   0  0  0  0  0  0  0  0  0  0  0  0
  -15.7471   -5.0662    0.0000 C   0  0  0  0  0  0  0  0  0  0  0  0
  -15.0327   -5.4787    0.0000 C   0  0  0  0  0  0  0  0  0  0  0  0
  -14.3182   -5.0662    0.0000 C   0  0  0  0  0  0  0  0  0  0  0  0
  -13.6037   -5.4787    0.0000 C   0  0  0  0  0  0  0  0  0  0  0  0
  -12.8893   -5.0662    0.0000 C   0  0  0  0  0  0  0  0  0  0  0  0
  -12.1748   -5.4787    0.0000 C   0  0  0  0  0  0  0  0  0  0  0  0
  -11.4603   -5.0662    0.0000 C   0  0  0  0  0  0  0  0  0  0  0  0
  -10.7458   -5.4787    0.0000 C   0  0  0  0  0  0  0  0  0  0  0  0
  -10.0314   -5.0662    0.0000 C   0  0  0  0  0  0  0  0  0  0  0  0
   -9.3169   -5.4787    0.0000 C   0  0  0  0  0  0  0  0  0  0  0  0
   -8.6024   -5.0662    0.0000 C   0  0  0  0  0  0  0  0  0  0  0  0
   -7.8880   -5.4787    0.0000 C   0  0  0  0  0  0  0  0  0  0  0  0
   -7.1735   -5.0662    0.0000 O   0  0  0  0  0  0  0  0  0  0  0  0
   -6.4590   -5.4787    0.0000 C   0  0  0  0  0  0  0  0  0  0  0  0
   -5.7446   -5.0662    0.0000 C   0  0  0  0  0  0  0  0  0  0  0  0
   -5.0301   -5.4787    0.0000 C   0  0  0  0  0  0  0  0  0  0  0  0
   -4.3156   -5.0662    0.0000 O   0  0  0  0  0  0  0  0  0  0  0  0
   -3.6011   -5.4787    0.0000 P   0  0  0  0  0  0  0  0  0  0  0  0
   -4.0136   -6.1932    0.0000 O   0  0  0  0  0  0  0  0  0  0  0  0
   -3.1886   -4.7642    0.0000 O   0  0  0  0  0  0  0  0  0  0  0  0
   -2.8867   -5.8912    0.0000 C   0  0  0  0  0  0  0  0  0  0  0  0
   -2.1722   -5.4787    0.0000 O   0  0  0  0  0  0  0  0  0  0  0  0
   -1.4577   -5.8912    0.0000 C   0  0  0  0  0  0  0  0  0  0  0  0
   -1.4577   -6.7162    0.0000 C   0  0  0  0  0  0  0  0  0  0  0  0
   -0.7433   -5.4787    0.0000 C   0  0  0  0  0  0  0  0  0  0  0  0
   -0.0288   -5.8912    0.0000 N   0  0  0  0  0  0  0  0  0  0  0  0
    0.0575   -6.7117    0.0000 C   0  0  0  0  0  0  0  0  0  0  0  0
    0.8644   -6.8832    0.0000 N   0  0  0  0  0  0  0  0  0  0  0  0
    1.2769   -6.1688    0.0000 C   0  0  0  0  0  0  0  0  0  0  0  0
    0.7249   -5.5557    0.0000 C   0  0  0  0  0  0  0  0  0  0  0  0
    0.9798   -4.7710    0.0000 N   0  0  0  0  0  0  0  0  0  0  0  0
    1.7868   -4.5995    0.0000 C   0  0  0  0  0  0  0  0  0  0  0  0
    2.3388   -5.2126    0.0000 N   0  0  0  0  0  0  0  0  0  0  0  0
    2.0839   -5.9972    0.0000 C   0  0  0  0  0  0  0  0  0  0  0  0
    2.6359   -6.6103    0.0000 N   0  0  0  0  0  0  0  0  0  0  0  0
  1  2  1  0
  2  3  1  0
  3  4  1  0
  4  5  1  0
  5  6  1  0
  6  7  1  0
  7  8  1  0
  8  9  1  0
  9 10  1  0
 10 11  1  0
 11 12  1  0
 12 13  1  0
 13 14  1  0
 14 15  1  0
 15 16  1  0
 16 17  1  0
 17 18  1  0
 18 19  1  0
 19 20  1  0
 20 21  1  0
 21 22  1  0
 22 23  1  0
 22 24  2  0
 22 25  1  0
 25 26  1  0
 27 26  1  0
 27 28  1  1
 27 29  1  0
 29 30  1  0
 30 31  1  0
 30 34  1  0
 31 32  2  0
 32 33  1  0
 33 34  2  0
 33 38  1  0
 34 35  1  0
 35 36  2  0
 36 37  1  0
 37 38  2  0
 38 39  1  0
M  END
>  <DRUGBANK_ID>  (1) 
DB14925

>  <COMMON_NAME>  (1) 
Tenofovir exalidex

>  <CAS_NUMBER>  (1) 
911208-73-6

>  <UNII>  (1) 
K7J545MEMA

>  <SYNONYMS>  (1) 
Tenofovir exalidex

$$$$
