ABW
     RDKit          2D

 21 21  0  0  0  0  0  0  0  0999 V2000
   -0.2295   -1.2780    0.0000 C   0  0  0  0  0  0  0  0  0  0  0  0
    0.4379   -0.7930    0.0000 C   0  0  0  0  0  0  0  0  0  0  0  0
    1.1054   -1.2780    0.0000 O   0  0  0  0  0  0  0  0  0  0  0  0
    0.8504   -2.0626    0.0000 C   0  0  0  0  0  0  0  0  0  0  0  0
    0.0254   -2.0626    0.0000 C   0  0  0  0  0  0  0  0  0  0  0  0
    1.3353   -2.7300    0.0000 C   0  0  0  0  0  0  0  0  0  0  0  0
    0.9998   -3.4837    0.0000 O   0  0  0  0  0  0  0  0  0  0  0  0
    2.1558   -2.6438    0.0000 O   0  0  0  0  0  0  0  0  0  0  0  0
   -0.2766    0.4445    0.0000 N   0  0  0  0  0  0  0  0  0  0  0  0
   -0.2766    1.2695    0.0000 C   0  0  0  0  0  0  0  0  0  0  0  0
   -0.9910    1.6820    0.0000 C   0  0  0  0  0  0  0  0  0  0  0  0
    0.4379    1.6820    0.0000 O   0  0  0  0  0  0  0  0  0  0  0  0
    0.4379    0.0320    0.0000 C   0  0  0  0  0  0  0  0  0  0  0  0
    1.1524    0.4445    0.0000 C   0  0  0  0  0  0  0  0  0  0  0  0
    1.1524    1.2695    0.0000 C   0  0  0  0  0  0  0  0  0  0  0  0
    0.8168    2.0231    0.0000 C   0  0  0  0  0  0  0  0  0  0  0  0
    1.8669    1.6820    0.0000 C   0  0  0  0  0  0  0  0  0  0  0  0
   -1.0141   -1.0230    0.0000 C   0  0  0  0  0  0  0  0  0  0  0  0
   -1.1857   -0.2161    0.0000 O   0  0  0  0  0  0  0  0  0  0  0  0
   -1.6272   -1.5751    0.0000 O   0  0  0  0  0  0  0  0  0  0  0  0
   -2.4119   -1.3201    0.0000 C   0  0  0  0  0  0  0  0  0  0  0  0
  1  2  1  0
  1  5  1  0
  1 18  1  1
  2  3  1  6
  2 13  1  0
  3  4  1  0
  4  5  1  0
  4  6  1  1
  6  7  1  0
  6  8  2  0
  9 10  1  0
 10 11  1  0
 10 12  2  0
 13  9  1  0
 13 14  1  1
 14 15  1  0
 15 16  1  0
 15 17  1  0
 18 19  2  0
 18 20  1  0
 20 21  1  0
M  END
>  <DRUGBANK_ID>  (1) 
DB03257

>  <SECONDARY_ACCESSION_NUMBERS>  (1) 
EXPT00403

>  <COMMON_NAME>  (1) 
5-[1-(Acetylamino)-3-Methylbutyl]-2,5-Anhydro-3,4-Dideoxy-4-(Methoxycarbonyl)Pentonic Acid

$$$$
