
     RDKit          2D

 24 25  0  0  0  0  0  0  0  0999 V2000
   -3.1760   -0.5990    0.0000 C   0  0  0  0  0  0  0  0  0  0  0  0
    0.3962   -1.8366    0.0000 C   0  0  0  0  0  0  0  0  0  0  0  0
   -2.4617   -1.0116    0.0000 C   0  0  0  0  0  0  0  0  0  0  0  0
   -0.6607    1.9370    0.0000 C   0  0  0  0  0  0  0  0  0  0  0  0
   -0.9156    1.1523    0.0000 C   0  0  0  0  0  0  0  0  0  0  0  0
   -1.7470   -0.5990    0.0000 C   0  0  0  0  0  0  0  0  0  0  0  0
    0.1462    2.1084    0.0000 C   0  0  0  0  0  0  0  0  0  0  0  0
   -0.3636    0.5393    0.0000 C   0  0  0  0  0  0  0  0  0  0  0  0
    1.5233    1.4954    0.0000 C   0  0  0  0  0  0  0  0  0  0  0  0
    0.3962   -1.0116    0.0000 C   0  0  0  0  0  0  0  0  0  0  0  0
    0.6982    1.4954    0.0000 C   0  0  0  0  0  0  0  0  0  0  0  0
   -1.0326   -1.0116    0.0000 C   0  0  0  0  0  0  0  0  0  0  0  0
    0.4434    0.7107    0.0000 C   0  0  0  0  0  0  0  0  0  0  0  0
    1.7781    0.7107    0.0000 C   0  0  0  0  0  0  0  0  0  0  0  0
    1.1108   -0.5990    0.0000 C   0  0  0  0  0  0  0  0  0  0  0  0
   -1.0326   -1.8366    0.0000 C   0  0  0  0  0  0  0  0  0  0  0  0
    2.5629    0.4559    0.0000 C   0  0  0  0  0  0  0  0  0  0  0  0
   -0.3181   -0.5990    0.0000 N   0  0  0  0  0  0  0  0  0  0  0  0
    1.1108    0.2259    0.0000 N   0  0  0  0  0  0  0  0  0  0  0  0
    1.8252   -1.0116    0.0000 O   0  0  0  0  0  0  0  0  0  0  0  0
   -0.3181   -2.2491    0.0000 O   0  0  0  0  0  0  0  0  0  0  0  0
   -1.7470   -2.2491    0.0000 O   0  0  0  0  0  0  0  0  0  0  0  0
    3.1760    1.0079    0.0000 O   0  0  0  0  0  0  0  0  0  0  0  0
    2.7344   -0.3511    0.0000 O   0  0  0  0  0  0  0  0  0  0  0  0
  3  1  1  0
  5  4  1  0
  6  3  1  0
  7  4  1  0
  8  5  1  0
 10  2  1  6
 11  7  1  1
 11  9  1  0
 12  6  1  6
 12 18  1  0
 13  8  1  1
 13 11  1  0
 13 19  1  0
 14  9  1  0
 14 17  1  1
 15 10  1  0
 16 12  1  0
 18 10  1  0
 19 14  1  0
 19 15  1  0
 20 15  2  0
 21 16  2  0
 22 16  1  0
 23 17  1  0
 24 17  2  0
M  END
>  <DRUGBANK_ID>  (1) 
DB14213

>  <COMMON_NAME>  (1) 
Perindoprilat

>  <CAS_NUMBER>  (1) 
95153-31-4

>  <UNII>  (1) 
2UV6ZNQ92K

>  <SYNONYMS>  (1) 
Perindoprilat; Perindoprilate; Perindoprilato; Perindoprilatum

$$$$
