
     RDKit          2D

 26 27  0  0  0  0  0  0  0  0999 V2000
   -0.3847   -1.1734    0.0000 O   0  0  0  0  0  0  0  0  0  0  0  0
   -1.2098   -0.3484    0.0000 O   0  0  0  0  0  0  0  0  0  0  0  0
    0.4402   -0.3484    0.0000 O   0  0  0  0  0  0  0  0  0  0  0  0
   -1.8138   -0.3484    0.0000 O   0  0  0  0  0  0  0  0  0  0  0  0
    1.0441   -3.6484    0.0000 O   0  0  0  0  0  0  0  0  0  0  0  0
    1.7586   -2.4109    0.0000 O   0  0  0  0  0  0  0  0  0  0  0  0
   -1.0993    0.8891    0.0000 N   0  0  0  0  0  0  0  0  0  0  0  0
   -0.3847   -2.8234    0.0000 N   0  0  0  0  0  0  0  0  0  0  0  0
   -0.3847    0.4766    0.0000 C   0  0  0  0  0  0  0  0  0  0  0  0
    0.3296    0.8891    0.0000 C   0  0  0  0  0  0  0  0  0  0  0  0
    0.3296    1.7141    0.0000 C   0  0  0  0  0  0  0  0  0  0  0  0
    1.0441    2.1266    0.0000 C   0  0  0  0  0  0  0  0  0  0  0  0
   -0.3847    2.1266    0.0000 C   0  0  0  0  0  0  0  0  0  0  0  0
    1.0441    2.9516    0.0000 C   0  0  0  0  0  0  0  0  0  0  0  0
    0.3296   -1.5859    0.0000 C   0  0  0  0  0  0  0  0  0  0  0  0
    1.7817    1.6855    0.0000 C   0  0  0  0  0  0  0  0  0  0  0  0
   -0.3847    2.9516    0.0000 C   0  0  0  0  0  0  0  0  0  0  0  0
    0.3296    3.3641    0.0000 C   0  0  0  0  0  0  0  0  0  0  0  0
   -1.8138    0.4766    0.0000 C   0  0  0  0  0  0  0  0  0  0  0  0
    0.3296   -2.4109    0.0000 C   0  0  0  0  0  0  0  0  0  0  0  0
    1.7817    3.3927    0.0000 C   0  0  0  0  0  0  0  0  0  0  0  0
    2.5291    2.1094    0.0000 C   0  0  0  0  0  0  0  0  0  0  0  0
    2.5291    2.9688    0.0000 C   0  0  0  0  0  0  0  0  0  0  0  0
   -2.5282    0.8891    0.0000 C   0  0  0  0  0  0  0  0  0  0  0  0
    1.0441   -2.8234    0.0000 C   0  0  0  0  0  0  0  0  0  0  0  0
   -0.3847   -0.3484    0.0000 B   0  0  0  0  0  0  0  0  0  0  0  0
  1 15  1  0
  1 26  1  0
  2 26  1  0
  3 26  1  0
  4 19  2  0
  5 25  1  0
  6 25  2  0
  7 19  1  0
  9  7  1  0
  9 10  1  1
  9 26  1  0
 10 11  1  0
 11 12  2  0
 11 13  1  0
 12 14  1  0
 12 16  1  0
 13 17  2  0
 14 18  2  0
 14 21  1  0
 15 20  1  0
 16 22  2  0
 17 18  1  0
 19 24  1  0
 20  8  1  1
 20 25  1  0
 21 23  2  0
 22 23  1  0
M  CHG  1  26  -1
M  END
>  <DRUGBANK_ID>  (1) 
DB03290

>  <SECONDARY_ACCESSION_NUMBERS>  (1) 
EXPT02856

>  <COMMON_NAME>  (1) 
L-naphthyl-1-acetamido boronic acid alanine

$$$$
