
     RDKit          2D

 22 23  0  0  0  0  0  0  0  0999 V2000
    1.6500   -0.6188    0.0000 Cl  0  0  0  0  0  0  0  0  0  0  0  0
    6.6515    1.4438    0.0000 S   0  0  0  0  0  0  0  0  0  0  0  0
    4.5080   -2.2688    0.0000 S   0  0  0  0  0  0  0  0  0  0  0  0
    3.7935    1.4438    0.0000 N   0  0  0  0  0  0  0  0  0  0  0  0
    3.0791    0.2063    0.0000 N   0  0  0  0  0  0  0  0  0  0  0  0
    4.5080    0.2063    0.0000 N   0  0  0  0  0  0  0  0  0  0  0  0
    4.5080    1.8563    0.0000 C   0  0  0  0  0  0  0  0  0  0  0  0
    5.2224    1.4438    0.0000 C   0  0  0  0  0  0  0  0  0  0  0  0
    3.7935    0.6188    0.0000 C   0  0  0  0  0  0  0  0  0  0  0  0
    4.5080    2.6813    0.0000 C   0  0  0  0  0  0  0  0  0  0  0  0
    3.0791    1.8563    0.0000 C   0  0  0  0  0  0  0  0  0  0  0  0
    5.9370    1.8563    0.0000 C   0  0  0  0  0  0  0  0  0  0  0  0
    3.0791   -0.6188    0.0000 C   0  0  0  0  0  0  0  0  0  0  0  0
    5.2224    3.0938    0.0000 C   0  0  0  0  0  0  0  0  0  0  0  0
    5.9370    2.6813    0.0000 C   0  0  0  0  0  0  0  0  0  0  0  0
    3.7935   -1.0313    0.0000 C   0  0  0  0  0  0  0  0  0  0  0  0
    2.3645   -1.0313    0.0000 C   0  0  0  0  0  0  0  0  0  0  0  0
    3.7935   -1.8563    0.0000 C   0  0  0  0  0  0  0  0  0  0  0  0
    2.3645   -1.8563    0.0000 C   0  0  0  0  0  0  0  0  0  0  0  0
    3.0791   -2.2688    0.0000 C   0  0  0  0  0  0  0  0  0  0  0  0
    7.3659    1.8563    0.0000 C   0  0  0  0  0  0  0  0  0  0  0  0
    4.5080   -3.0938    0.0000 C   0  0  0  0  0  0  0  0  0  0  0  0
  1 17  1  0
  2 12  1  0
  2 21  1  0
  3 18  1  0
  3 22  1  0
  4  7  1  0
  4  9  1  0
  4 11  1  0
  5  9  2  0
  5 13  1  0
  6  9  1  0
  7  8  2  0
  7 10  1  0
  8 12  1  0
 10 14  2  0
 12 15  2  0
 13 16  2  0
 13 17  1  0
 14 15  1  0
 16 18  1  0
 17 19  2  0
 18 20  2  0
 19 20  1  0
M  END
>  <DRUGBANK_ID>  (1) 
DB05824

>  <COMMON_NAME>  (1) 
CNS-5161

>  <UNII>  (1) 
58S83M36V6

$$$$
