
     RDKit          2D

 24 27  0  0  0  0  0  0  0  0999 V2000
    1.6982   -2.0459    0.0000 S   0  0  0  0  0  0  0  0  0  0  0  0
    0.8732   -2.0365    0.0000 C   0  0  0  0  0  0  0  0  0  0  0  0
   -0.6963    0.8755    0.0000 N   0  0  0  0  0  0  0  0  0  0  0  0
   -1.6678    1.7809    0.0000 C   0  0  0  0  0  0  0  0  0  0  0  0
   -0.9800    2.1640    0.0000 C   0  0  0  0  0  0  0  0  0  0  0  0
   -0.7394   -0.5248    0.0000 C   0  0  0  0  0  0  0  0  0  0  0  0
    0.4457   -1.2857    0.0000 C   0  0  0  0  0  0  0  0  0  0  0  0
   -0.2710    0.1234    0.0000 N   0  0  0  0  0  0  0  0  0  0  0  0
   -0.9741    2.9991    0.0000 C   0  0  0  0  0  0  0  0  0  0  0  0
   -2.3856    2.2011    0.0000 C   0  0  0  0  0  0  0  0  0  0  0  0
   -0.3279   -1.2477    0.0000 C   0  0  0  0  0  0  0  0  0  0  0  0
   -1.5060    0.9614    0.0000 C   0  0  0  0  0  0  0  0  0  0  0  0
   -0.3788    1.6033    0.0000 C   0  0  0  0  0  0  0  0  0  0  0  0
   -1.8745    2.9394    0.0000 C   0  0  0  0  0  0  0  0  0  0  0  0
    0.4785   -2.6943    0.0000 C   0  0  0  0  0  0  0  0  0  0  0  0
    1.6920   -1.1151    0.0000 O   0  0  0  0  0  0  0  0  0  0  0  0
    1.6887   -2.8708    0.0000 O   0  0  0  0  0  0  0  0  0  0  0  0
    2.3856   -2.0959    0.0000 N   0  0  0  0  0  0  0  0  0  0  0  0
   -1.5341   -0.5500    0.0000 O   0  0  0  0  0  0  0  0  0  0  0  0
   -1.6803    3.4091    0.0000 C   0  0  0  0  0  0  0  0  0  0  0  0
   -2.3681    3.0258    0.0000 C   0  0  0  0  0  0  0  0  0  0  0  0
   -0.7524   -1.9681    0.0000 C   0  0  0  0  0  0  0  0  0  0  0  0
   -0.3323   -2.7059    0.0000 C   0  0  0  0  0  0  0  0  0  0  0  0
    0.8943   -3.4091    0.0000 Cl  0  0  0  0  0  0  0  0  0  0  0  0
  2  1  1  0
  3  8  1  0
  4 12  1  1
  5 13  1  1
  5  4  1  0
  6 11  1  0
  7  2  2  0
  8  6  1  0
  9  5  1  0
  9 14  1  0
 10  4  1  0
 10 14  1  0
 11  7  1  0
 12  3  1  0
 13  3  1  0
 15  2  1  0
 16  1  2  0
 17  1  2  0
 18  1  1  0
 19  6  2  0
  9 20  1  1
 10 21  1  1
 21 20  1  0
 22 23  1  0
 22 11  2  0
 23 15  2  0
 24 15  1  0
M  END
>  <DRUGBANK_ID>  (1) 
DB15959

>  <COMMON_NAME>  (1) 
Tripamide

>  <CAS_NUMBER>  (1) 
73803-48-2

>  <UNII>  (1) 
G36A0E9CVT

>  <SYNONYMS>  (1) 
Tripamide

$$$$
