
     RDKit          2D

 15 16  0  0  1  0  0  0  0  0999 V2000
   -1.2352    0.6294    0.0000 C   0  0  0  0  0  0  0  0  0  0  0  0
   -0.5678   -0.6806    0.0000 C   0  0  0  0  0  0  0  0  0  0  0  0
   -1.9497    1.8669    0.0000 C   0  0  0  0  0  0  0  0  0  0  0  0
   -1.6477   -1.4652    0.0000 C   0  0  0  0  0  0  0  0  0  0  0  0
   -1.9497    1.0419    0.0000 C   0  0  0  0  0  0  0  0  0  0  0  0
   -1.2352   -0.1956    0.0000 C   0  0  0  0  0  0  0  0  0  0  0  0
   -0.3378   -2.1326    0.0000 C   0  0  0  0  0  0  0  0  0  0  0  0
   -2.6641    0.6294    0.0000 N   0  0  0  0  0  0  0  0  0  0  0  0
   -1.9026   -0.6806    0.0000 N   0  0  0  0  0  0  0  0  0  0  0  0
   -0.5927   -2.9172    0.0000 N   0  0  0  0  0  0  0  0  0  0  0  0
    0.4872   -2.1326    0.0000 N   0  0  0  0  0  0  0  0  0  0  0  0
    0.0747   -3.4022    0.0000 N   0  0  0  0  0  0  0  0  0  0  0  0
    0.7422   -2.9172    0.0000 N   0  0  0  0  0  0  0  0  0  0  0  0
   -0.8227   -1.4652    0.0000 N   0  0  0  0  0  0  0  0  0  0  0  0
   -2.6641    2.2794    0.0000 O   0  0  0  0  0  0  0  0  0  0  0  0
  5  1  1  0
  5  3  1  0
  5  8  1  6
  6  1  1  0
  6  2  2  0
  9  4  2  0
  9  6  1  0
 10  7  2  0
 11  7  1  0
 12 10  1  0
 13 11  2  0
 13 12  1  0
 14  2  1  0
 14  4  1  0
 14  7  1  0
 15  3  2  0
M  END
>  <DRUGBANK_ID>  (1) 
DB02528

>  <SECONDARY_ACCESSION_NUMBERS>  (1) 
EXPT02402

>  <COMMON_NAME>  (1) 
Tetrazolyl Histidine

$$$$
