
     RDKit          2D

 25 26  0  0  0  0  0  0  0  0999 V2000
   -1.5261   -2.0495    0.0000 O   0  0  0  0  0  0  0  0  0  0  0  0
   -1.0395   -1.3860    0.0000 N   0  0  0  0  0  0  0  0  0  0  0  0
   -1.3786   -0.6339    0.0000 C   0  0  0  0  0  0  0  0  0  0  0  0
   -0.8921    0.0368    0.0000 C   0  0  0  0  0  0  0  0  0  0  0  0
   -1.1427    0.8184    0.0000 N   0  0  0  0  0  0  0  0  0  0  0  0
   -0.4791    1.3049    0.0000 O   0  0  0  0  0  0  0  0  0  0  0  0
    0.1917    0.8184    0.0000 N   0  0  0  0  0  0  0  0  0  0  0  0
   -0.0663    0.0368    0.0000 C   0  0  0  0  0  0  0  0  0  0  0  0
    0.4128   -0.6339    0.0000 N   0  0  0  0  0  0  0  0  0  0  0  0
    1.2312   -0.5455    0.0000 C   0  0  0  0  0  0  0  0  0  0  0  0
    1.7177   -1.2164    0.0000 C   0  0  0  0  0  0  0  0  0  0  0  0
    2.5361   -1.1280    0.0000 N   0  0  0  0  0  0  0  0  0  0  0  0
    3.0227   -1.7989    0.0000 S   0  0  0  0  0  0  0  0  0  0  0  0
    3.5020   -2.4624    0.0000 N   0  0  0  0  0  0  0  0  0  0  0  0
    3.6863   -1.3123    0.0000 O   0  0  0  0  0  0  0  0  0  0  0  0
    2.3518   -2.2782    0.0000 O   0  0  0  0  0  0  0  0  0  0  0  0
   -2.1971   -0.5455    0.0000 N   0  0  0  0  0  0  0  0  0  0  0  0
   -2.5287    0.2064    0.0000 C   0  0  0  0  0  0  0  0  0  0  0  0
   -3.3545    0.2948    0.0000 C   0  0  0  0  0  0  0  0  0  0  0  0
   -3.6863    1.0469    0.0000 C   0  0  0  0  0  0  0  0  0  0  0  0
   -3.2070    1.7103    0.0000 C   0  0  0  0  0  0  0  0  0  0  0  0
   -3.5462    2.4624    0.0000 F   0  0  0  0  0  0  0  0  0  0  0  0
   -2.3813    1.6292    0.0000 C   0  0  0  0  0  0  0  0  0  0  0  0
   -1.9020    2.3002    0.0000 Br  0  0  0  0  0  0  0  0  0  0  0  0
   -2.0422    0.8773    0.0000 C   0  0  0  0  0  0  0  0  0  0  0  0
  1  2  1  0
  2  3  2  0
  3  4  1  0
  3 17  1  0
  4  5  2  0
  4  8  1  0
  5  6  1  0
  6  7  1  0
  7  8  2  0
  8  9  1  0
  9 10  1  0
 10 11  1  0
 11 12  1  0
 12 13  1  0
 13 14  1  0
 13 15  2  0
 13 16  2  0
 17 18  1  0
 18 19  2  0
 18 25  1  0
 19 20  1  0
 20 21  2  0
 21 22  1  0
 21 23  1  0
 23 24  1  0
 23 25  2  0
M  END
>  <DRUGBANK_ID>  (1) 
DB11717

>  <COMMON_NAME>  (1) 
Epacadostat

>  <CAS_NUMBER>  (1) 
1204669-58-8

>  <UNII>  (1) 
71596A9R13

>  <SYNONYMS>  (1) 
Epacadostat; Epacadostatum

$$$$
