
     RDKit          2D

 38 41  0  0  0  0  0  0  0  0999 V2000
   -2.1428   -0.6267    0.0000 C   0  0  0  0  0  0  0  0  0  0  0  0
   -1.4289   -0.2130    0.0000 C   0  0  0  0  0  0  0  0  0  0  0  0
   -0.7136   -0.6245    0.0000 N   0  0  0  0  0  0  0  0  0  0  0  0
   -1.4303    0.6119    0.0000 C   0  0  0  0  0  0  0  0  0  0  0  0
   -0.7162    1.0256    0.0000 C   0  0  0  0  0  0  0  0  0  0  0  0
   -2.1454    1.0234    0.0000 O   0  0  0  0  0  0  0  0  0  0  0  0
   -0.7175    1.8507    0.0000 N   0  0  0  0  0  0  0  0  0  0  0  0
   -0.0036    2.2643    0.0000 S   0  0  0  0  0  0  0  0  0  0  0  0
   -1.4327    2.2622    0.0000 C   0  0  0  0  0  0  0  0  0  0  0  0
   -1.4340    3.0872    0.0000 C   0  0  0  0  0  0  0  0  0  0  0  0
   -0.7202    3.5009    0.0000 C   0  0  0  0  0  0  0  0  0  0  0  0
   -2.1493    3.4987    0.0000 C   0  0  0  0  0  0  0  0  0  0  0  0
    0.7133    1.8580    0.0000 C   0  0  0  0  0  0  0  0  0  0  0  0
    0.7135    1.0338    0.0000 C   0  0  0  0  0  0  0  0  0  0  0  0
    1.4270    0.6245    0.0000 C   0  0  0  0  0  0  0  0  0  0  0  0
    2.1395    1.0387    0.0000 C   0  0  0  0  0  0  0  0  0  0  0  0
    2.1340    1.8662    0.0000 C   0  0  0  0  0  0  0  0  0  0  0  0
    1.4199    2.2715    0.0000 C   0  0  0  0  0  0  0  0  0  0  0  0
    2.8560    0.6294    0.0000 N   0  0  0  0  0  0  0  0  0  0  0  0
   -0.0088   -0.2129    0.0000 C   0  0  0  0  0  0  0  0  0  0  0  0
   -0.0116    0.6131    0.0000 O   0  0  0  0  0  0  0  0  0  0  0  0
    0.7176   -0.6147    0.0000 O   0  0  0  0  0  0  0  0  0  0  0  0
    0.7233   -1.4399    0.0000 C   0  0  0  0  0  0  0  0  0  0  0  0
    0.0605   -1.9289    0.0000 C   0  0  0  0  0  0  0  0  0  0  0  0
    0.3213   -2.7118    0.0000 O   0  0  0  0  0  0  0  0  0  0  0  0
    1.3955   -1.9191    0.0000 C   0  0  0  0  0  0  0  0  0  0  0  0
    1.1494   -2.7049    0.0000 C   0  0  0  0  0  0  0  0  0  0  0  0
    1.8206   -3.1817    0.0000 O   0  0  0  0  0  0  0  0  0  0  0  0
    2.4818   -2.6907    0.0000 C   0  0  0  0  0  0  0  0  0  0  0  0
    2.2189   -1.9104    0.0000 C   0  0  0  0  0  0  0  0  0  0  0  0
   -0.5862    2.8499    0.0000 O   0  0  0  0  0  0  0  0  0  0  0  0
    0.5865    2.8499    0.0000 O   0  0  0  0  0  0  0  0  0  0  0  0
   -2.1415   -1.4518    0.0000 C   0  0  0  0  0  0  0  0  0  0  0  0
   -2.8559   -1.8643    0.0000 C   0  0  0  0  0  0  0  0  0  0  0  0
   -2.8559   -2.6894    0.0000 C   0  0  0  0  0  0  0  0  0  0  0  0
   -2.1415   -3.1019    0.0000 C   0  0  0  0  0  0  0  0  0  0  0  0
   -1.4270   -2.6894    0.0000 C   0  0  0  0  0  0  0  0  0  0  0  0
   -1.4270   -1.8643    0.0000 C   0  0  0  0  0  0  0  0  0  0  0  0
  2  1  1  1
  1 33  1  0
  2  4  1  0
  2  3  1  0
  3 20  1  0
  4  5  1  0
  4  6  1  6
  5  7  1  0
  7  8  1  0
  7  9  1  0
  8 13  1  0
  8 31  2  0
  8 32  2  0
  9 10  1  0
 10 11  1  0
 10 12  1  0
 13 14  2  0
 14 15  1  0
 15 16  2  0
 16 17  1  0
 16 19  1  0
 17 18  2  0
 18 13  1  0
 20 21  2  0
 20 22  1  0
 23 22  1  6
 23 24  1  0
 24 25  1  0
 27 25  1  6
 26 23  1  0
 26 27  1  0
 27 28  1  0
 28 29  1  0
 29 30  1  0
 26 30  1  6
 33 34  2  0
 33 38  1  0
 34 35  1  0
 35 36  2  0
 36 37  1  0
 37 38  2  0
M  END
>  <DRUGBANK_ID>  (1) 
DB01264

>  <SECONDARY_ACCESSION_NUMBERS>  (1) 
EXPT00002

>  <COMMON_NAME>  (1) 
Darunavir

>  <CAS_NUMBER>  (1) 
206361-99-1

>  <UNII>  (1) 
YO603Y8113

>  <SYNONYMS>  (1) 
(3R,3aS,6aR)-hexahydrofuro[2,3-b]furan-3-yl N-((1S,2R)-1-benzyl-2-hydroxy-3-(N1-isobutylsulfanilamido)propyl)carbamate; (3R,3aS,6aR)-tetrahydro-2H-furo[2,3-b]furan-3-yl (2S,3R)-4-(4-amino-N-isobutylphenylsulfonamido)-3-hydroxy-1-phenylbutan-2-ylcarbamate; (3R,3aS,6aR)-tetrahydro-2H-furo[2,3-b]furan-3-yl (2S,3R)-4-(4-amino-N-neopentylphenylsulfonamido)-3-hydroxy-1-phenylbutan-2-ylcarbamate; [(S)-3-[(4-Amino-benzenesulfonyl)-isobutyl-amino]-2-hydroxy-1-((R)-phenylmethyl)-propyl]-carbamic acid (3R,3aS,6aR)-(hexahydro-furo[2,3-b]furan-3-yl) ester; {(1S,2R)-3-[(4-Amino-benzenesulfonyl)-isobutyl-amino]-1-benzyl-2-hydroxy-propyl}-carbamic acid (3R,3aS,6aR)-(hexahydro-furo[2,3-b]furan-3-yl) ester; Darunavir; Darunavirum; N-((1S,2R)-3-(((4-aminophenyl)sulfonyl)(2-methylpropyl)amino)-2-hydroxy-1-benzylpropyl)((1S,2R,5R)-4,6-dioxabicyclo(3.3.0)oct-2-yloxy)carboxamide

$$$$
