
     RDKit          2D

 30 32  0  0  0  0  0  0  0  0999 V2000
   -4.1535    9.7051    0.0000 C   0  0  0  0  0  0  0  0  0  0  0  0
   -4.2398    8.8846    0.0000 C   0  0  0  0  0  0  0  0  0  0  0  0
   -3.5723    8.3997    0.0000 N   0  0  0  0  0  0  0  0  0  0  0  0
   -2.8187    8.7352    0.0000 C   0  0  0  0  0  0  0  0  0  0  0  0
   -2.1512    8.2503    0.0000 C   0  0  0  0  0  0  0  0  0  0  0  0
   -3.6586    7.5792    0.0000 C   0  0  0  0  0  0  0  0  0  0  0  0
   -2.9911    7.0943    0.0000 C   0  0  0  0  0  0  0  0  0  0  0  0
   -3.0774    6.2738    0.0000 O   0  0  0  0  0  0  0  0  0  0  0  0
   -2.4099    5.7889    0.0000 C   0  0  0  0  0  0  0  0  0  0  0  0
   -1.6563    6.1244    0.0000 C   0  0  0  0  0  0  0  0  0  0  0  0
   -0.9888    5.6395    0.0000 C   0  0  0  0  0  0  0  0  0  0  0  0
   -1.0751    4.8190    0.0000 C   0  0  0  0  0  0  0  0  0  0  0  0
   -0.5230    4.2059    0.0000 C   0  0  0  0  0  0  0  0  0  0  0  0
    0.3020    4.2059    0.0000 C   0  0  0  0  0  0  0  0  0  0  0  0
    0.7145    3.4914    0.0000 C   0  0  0  0  0  0  0  0  0  0  0  0
    0.3020    2.7770    0.0000 C   0  0  0  0  0  0  0  0  0  0  0  0
    0.7145    2.0625    0.0000 O   0  0  0  0  0  0  0  0  0  0  0  0
    1.5395    2.0625    0.0000 C   0  0  0  0  0  0  0  0  0  0  0  0
    1.9520    1.3480    0.0000 C   0  0  0  0  0  0  0  0  0  0  0  0
    2.7770    1.3480    0.0000 N   0  0  0  0  0  0  0  0  0  0  0  0
    3.1895    0.6336    0.0000 C   0  0  0  0  0  0  0  0  0  0  0  0
    4.0145    0.6336    0.0000 C   0  0  0  0  0  0  0  0  0  0  0  0
    3.1895    2.0625    0.0000 C   0  0  0  0  0  0  0  0  0  0  0  0
    4.0145    2.0625    0.0000 C   0  0  0  0  0  0  0  0  0  0  0  0
   -0.5230    2.7770    0.0000 C   0  0  0  0  0  0  0  0  0  0  0  0
   -0.9355    3.4914    0.0000 C   0  0  0  0  0  0  0  0  0  0  0  0
   -1.7425    3.6630    0.0000 C   0  0  0  0  0  0  0  0  0  0  0  0
   -2.3556    3.1109    0.0000 O   0  0  0  0  0  0  0  0  0  0  0  0
   -1.8287    4.4834    0.0000 C   0  0  0  0  0  0  0  0  0  0  0  0
   -2.4962    4.9684    0.0000 C   0  0  0  0  0  0  0  0  0  0  0  0
  1  2  1  0
  2  3  1  0
  3  4  1  0
  3  6  1  0
  4  5  1  0
  6  7  1  0
  7  8  1  0
  8  9  1  0
  9 10  2  0
  9 30  1  0
 10 11  1  0
 11 12  2  0
 12 13  1  0
 12 29  1  0
 13 14  2  0
 13 26  1  0
 14 15  1  0
 15 16  2  0
 16 17  1  0
 16 25  1  0
 17 18  1  0
 18 19  1  0
 19 20  1  0
 20 21  1  0
 20 23  1  0
 21 22  1  0
 23 24  1  0
 25 26  2  0
 26 27  1  0
 27 28  2  0
 27 29  1  0
 29 30  2  0
M  END
>  <DRUGBANK_ID>  (1) 
DB17965

>  <COMMON_NAME>  (1) 
Tilorone

>  <CAS_NUMBER>  (1) 
27591-97-5

>  <UNII>  (1) 
O6W7VEW6KS

$$$$
