LGD
     RDKit          2D

 26 27  0  0  0  0  0  0  0  0999 V2000
   -0.2014    3.5938    0.0000 N   0  0  0  0  0  0  0  0  0  0  0  0
   -1.0264    3.5938    0.0000 C   0  0  0  0  0  0  0  0  0  0  0  0
   -1.4389    2.8793    0.0000 C   0  0  0  0  0  0  0  0  0  0  0  0
   -1.0264    2.1648    0.0000 C   0  0  0  0  0  0  0  0  0  0  0  0
   -1.8514    0.7359    0.0000 F   0  0  0  0  0  0  0  0  0  0  0  0
   -0.7244    1.0378    0.0000 F   0  0  0  0  0  0  0  0  0  0  0  0
   -2.1534    1.8628    0.0000 F   0  0  0  0  0  0  0  0  0  0  0  0
   -0.2014    2.1648    0.0000 C   0  0  0  0  0  0  0  0  0  0  0  0
    0.2111    1.4503    0.0000 C   0  0  0  0  0  0  0  0  0  0  0  0
    1.0361    1.4503    0.0000 C   0  0  0  0  0  0  0  0  0  0  0  0
    1.4486    2.1648    0.0000 C   0  0  0  0  0  0  0  0  0  0  0  0
    1.0361    2.8793    0.0000 C   0  0  0  0  0  0  0  0  0  0  0  0
    0.2111    2.8793    0.0000 C   0  0  0  0  0  0  0  0  0  0  0  0
   -1.4389    1.4503    0.0000 C   0  0  0  0  0  0  0  0  0  0  0  0
    2.2736    0.7359    0.0000 C   0  0  0  0  0  0  0  0  0  0  0  0
    1.4486    0.7359    0.0000 N   0  0  0  0  0  0  0  0  0  0  0  0
    1.0361    0.0214    0.0000 C   0  0  0  0  0  0  0  0  0  0  0  0
    3.0986   -0.6931    0.0000 F   0  0  0  0  0  0  0  0  0  0  0  0
    1.9716   -0.3911    0.0000 F   0  0  0  0  0  0  0  0  0  0  0  0
    3.4006    0.4339    0.0000 F   0  0  0  0  0  0  0  0  0  0  0  0
    2.6861    0.0214    0.0000 C   0  0  0  0  0  0  0  0  0  0  0  0
    0.2111    0.8464    0.0000 F   0  0  0  0  0  0  0  0  0  0  0  0
    0.2111   -0.8036    0.0000 F   0  0  0  0  0  0  0  0  0  0  0  0
   -0.6139    0.0214    0.0000 F   0  0  0  0  0  0  0  0  0  0  0  0
    0.2111    0.0214    0.0000 C   0  0  0  0  0  0  0  0  0  0  0  0
   -1.4389    4.3082    0.0000 O   0  0  0  0  0  0  0  0  0  0  0  0
  1  2  1  0
  1 13  1  0
  2 26  2  0
  2  3  1  0
  3  4  2  0
  4  8  1  0
  4 14  1  0
  5 14  1  0
  6 14  1  0
  7 14  1  0
  8 13  2  0
  8  9  1  0
  9 10  2  0
 10 11  1  0
 10 16  1  0
 11 12  2  0
 12 13  1  0
 15 16  1  0
 15 21  1  0
 16 17  1  0
 17 25  1  0
 18 21  1  0
 19 21  1  0
 20 21  1  0
 22 25  1  0
 23 25  1  0
 24 25  1  0
M  END
>  <DRUGBANK_ID>  (1) 
DB08089

>  <COMMON_NAME>  (1) 
LGD-2226

>  <CAS_NUMBER>  (1) 
328947-93-9

>  <UNII>  (1) 
RI376RM5MT

>  <SYNONYMS>  (1) 
6-(Bis-(2,2,2-trifluoroethyl)amino)-4-trifluoromethyl-1H-quinolin-2-one

$$$$
