
     RDKit          2D

 18 18  0  0  0  0  0  0  0  0999 V2000
    0.7063    1.2406    0.0000 N   0  0  0  0  0  0  0  0  0  0  0  0
   -0.0054    1.6538    0.0000 C   0  0  0  0  0  0  0  0  0  0  0  0
    1.4237    1.6564    0.0000 C   0  0  0  0  0  0  0  0  0  0  0  0
    0.7155    0.4088    0.0000 C   0  0  0  0  0  0  0  0  0  0  0  0
   -0.0099    2.4767    0.0000 N   0  0  0  0  0  0  0  0  0  0  0  0
   -0.7210    1.2390    0.0000 O   0  0  0  0  0  0  0  0  0  0  0  0
    1.4228    2.4815    0.0000 C   0  0  0  0  0  0  0  0  0  0  0  0
    0.0053   -0.0032    0.0000 N   0  0  0  0  0  0  0  0  0  0  0  0
    1.4421    0.0008    0.0000 O   0  0  0  0  0  0  0  0  0  0  0  0
    0.7073    2.8923    0.0000 C   0  0  0  0  0  0  0  0  0  0  0  0
    2.1349    2.8941    0.0000 F   0  0  0  0  0  0  0  0  0  0  0  0
    0.0036   -0.8288    0.0000 C   0  0  0  0  0  0  0  0  0  0  0  0
    0.7119    3.7246    0.0000 O   0  0  0  0  0  0  0  0  0  0  0  0
   -0.7090   -1.2453    0.0000 C   0  0  0  0  0  0  0  0  0  0  0  0
   -0.7103   -2.0703    0.0000 C   0  0  0  0  0  0  0  0  0  0  0  0
   -1.4231   -2.4868    0.0000 C   0  0  0  0  0  0  0  0  0  0  0  0
   -1.4243   -3.3117    0.0000 C   0  0  0  0  0  0  0  0  0  0  0  0
   -2.1349   -3.7246    0.0000 C   0  0  0  0  0  0  0  0  0  0  0  0
  1  2  1  0
  1  3  1  0
  1  4  1  0
  2  5  1  0
  2  6  2  0
  3  7  2  0
  4  8  1  0
  4  9  2  0
  5 10  1  0
  7 11  1  0
  7 10  1  0
  8 12  1  0
 10 13  2  0
 12 14  1  0
 14 15  1  0
 15 16  1  0
 16 17  1  0
 17 18  1  0
M  END
>  <DRUGBANK_ID>  (1) 
DB09010

>  <COMMON_NAME>  (1) 
Carmofur

>  <CAS_NUMBER>  (1) 
61422-45-5

>  <UNII>  (1) 
HA82M3RAB2

>  <SYNONYMS>  (1) 
Carmofur

$$$$
