
     RDKit          2D

 23 24  0  0  0  0  0  0  0  0999 V2000
   -0.3573   -0.4125    0.0000 O   0  0  0  0  0  0  0  0  0  0  0  0
    0.3571   -0.8250    0.0000 C   0  0  0  0  0  0  0  0  0  0  0  0
    0.3571   -1.6500    0.0000 C   0  0  0  0  0  0  0  0  0  0  0  0
   -0.3573   -2.0625    0.0000 C   0  0  0  0  0  0  0  0  0  0  0  0
   -1.0718   -0.8250    0.0000 C   0  0  0  0  0  0  0  0  0  0  0  0
   -1.0718   -1.6500    0.0000 C   0  0  0  0  0  0  0  0  0  0  0  0
    1.0716    2.0624    0.0000 C   0  0  0  0  0  0  0  0  0  0  0  0
    1.7861    1.6499    0.0000 C   0  0  0  0  0  0  0  0  0  0  0  0
    0.3571    1.6499    0.0000 O   0  0  0  0  0  0  0  0  0  0  0  0
    1.7861    0.8248    0.0000 C   0  0  0  0  0  0  0  0  0  0  0  0
    0.3571    0.8248    0.0000 C   0  0  0  0  0  0  0  0  0  0  0  0
    1.0716    0.4124    0.0000 C   0  0  0  0  0  0  0  0  0  0  0  0
    1.0716    2.8874    0.0000 O   0  0  0  0  0  0  0  0  0  0  0  0
    2.5005    2.0624    0.0000 O   0  0  0  0  0  0  0  0  0  0  0  0
    2.5005    0.4124    0.0000 O   0  0  0  0  0  0  0  0  0  0  0  0
    1.0716   -0.4125    0.0000 O   0  0  0  0  0  0  0  0  0  0  0  0
   -0.3573    0.4125    0.0000 C   0  0  0  0  0  0  0  0  0  0  0  0
   -1.0716    0.8250    0.0000 O   0  0  0  0  0  0  0  0  0  0  0  0
    1.0716   -2.0625    0.0000 O   0  0  0  0  0  0  0  0  0  0  0  0
   -0.3573   -2.8874    0.0000 O   0  0  0  0  0  0  0  0  0  0  0  0
   -1.7862   -2.0624    0.0000 O   0  0  0  0  0  0  0  0  0  0  0  0
   -1.7862   -0.4125    0.0000 C   0  0  0  0  0  0  0  0  0  0  0  0
   -2.5006   -0.8248    0.0000 O   0  0  0  0  0  0  0  0  0  0  0  0
  1  5  1  0
  2  1  1  0
  2 16  1  1
  2  3  1  0
  3 19  1  6
  3  4  1  0
  4 20  1  1
  4  6  1  0
  5 22  1  1
  5  6  1  0
  6 21  1  6
  7  8  1  0
  7  9  1  0
  7 13  1  0
  8 10  1  0
  8 14  1  6
  9 11  1  0
 10 12  1  0
 10 15  1  1
 11 12  1  0
 11 17  1  1
 12 16  1  6
 18 17  1  0
 22 23  1  0
M  END
>  <DRUGBANK_ID>  (1) 
DB02061

>  <SECONDARY_ACCESSION_NUMBERS>  (1) 
EXPT00844

>  <COMMON_NAME>  (1) 
Cellobiose

>  <CAS_NUMBER>  (1) 
528-50-7

>  <UNII>  (1) 
BM3MOX055H

>  <SYNONYMS>  (1) 
1-beta-D-Glucopyranosyl-4-D-glucopyranose; 4-beta-d-glucopyranosyl-d-glucopyranose; 4-o-beta-d-glucopyranosyl-d-glucose; 4-O-β-D-glucopyranosyl-D-glucopyranose; 4-β-D-glucopyranosyl-D-glucopyranose; Cellose; D-(+)-cellobiose; D-cellobiose; D-glucosyl-β-(1-4)-D-glucose

$$$$
