
     RDKit          2D

 30 29  0  0  1  0  0  0  0  0999 V2000
    7.8100    0.4130    0.0000 C   0  0  0  0  0  0  0  0  0  0  0  0
    7.0400    0.7094    0.0000 C   0  0  0  0  0  0  0  0  0  0  0  0
    6.3984    0.1907    0.0000 C   0  0  0  0  0  0  0  0  0  0  0  0
    6.9117    1.5243    0.0000 C   0  0  0  0  0  0  0  0  0  0  0  0
    7.5533    2.0429    0.0000 C   0  0  0  0  0  0  0  0  0  0  0  0
    7.4250    2.8579    0.0000 N   0  0  0  0  0  0  0  0  0  0  0  0
    6.6551    3.1542    0.0000 C   0  0  0  0  0  0  0  0  0  0  0  0
    6.0134    2.6356    0.0000 C   0  0  0  0  0  0  0  0  0  0  0  0
    6.5267    3.9692    0.0000 O   0  0  0  0  0  0  0  0  0  0  0  0
    8.3233    1.7466    0.0000 C   0  0  0  0  0  0  0  0  0  0  0  0
    8.4516    0.9316    0.0000 O   0  0  0  0  0  0  0  0  0  0  0  0
    8.9649    2.2652    0.0000 N   0  0  0  0  0  0  0  0  0  0  0  0
    9.7348    1.9688    0.0000 C   0  0  0  0  0  0  0  0  0  0  0  0
    9.8631    1.1539    0.0000 C   0  0  0  0  0  0  0  0  0  0  0  0
   10.6331    0.8575    0.0000 C   0  0  0  0  0  0  0  0  0  0  0  0
   11.2747    1.3761    0.0000 C   0  0  0  0  0  0  0  0  0  0  0  0
   10.7614    0.0426    0.0000 C   0  0  0  0  0  0  0  0  0  0  0  0
   10.3764    2.4874    0.0000 C   0  0  0  0  0  0  0  0  0  0  0  0
   10.2481    3.3024    0.0000 O   0  0  0  0  0  0  0  0  0  0  0  0
   11.1464    2.1911    0.0000 N   0  0  0  0  0  0  0  0  0  0  0  0
   11.7880    2.7097    0.0000 C   0  0  0  0  0  0  0  0  0  0  0  0
   12.5579    2.4134    0.0000 C   0  0  0  0  0  0  0  0  0  0  0  0
   13.1995    2.9320    0.0000 C   0  0  0  0  0  0  0  0  0  0  0  0
   13.9695    2.6356    0.0000 C   0  0  0  0  0  0  0  0  0  0  0  0
   14.6111    3.1542    0.0000 N   0  0  0  0  0  0  0  0  0  0  0  0
   15.3810    2.8579    0.0000 C   0  0  0  0  0  0  0  0  0  0  0  0
   16.0226    3.3765    0.0000 N   0  0  0  0  0  0  0  0  0  0  0  0
   15.5093    2.0429    0.0000 N   0  0  0  0  0  0  0  0  0  0  0  0
   11.6597    3.5247    0.0000 C   0  0  0  0  0  0  0  0  0  0  0  0
   12.3013    4.0433    0.0000 O   0  0  0  0  0  0  0  0  0  0  0  0
  1  2  1  0
  2  3  1  0
  2  4  1  0
  5  4  1  6
  5  6  1  0
  5 10  1  0
  6  7  1  0
  7  8  1  0
  7  9  2  0
 10 11  2  0
 10 12  1  0
 13 12  1  0
 13 14  1  6
 13 18  1  0
 14 15  1  0
 15 16  1  0
 15 17  1  0
 18 19  2  0
 18 20  1  0
 21 20  1  0
 21 22  1  6
 21 29  1  0
 22 23  1  0
 23 24  1  0
 24 25  1  0
 25 26  1  0
 26 27  1  0
 26 28  2  0
 29 30  2  0
M  END
>  <DRUGBANK_ID>  (1) 
DB16961

>  <COMMON_NAME>  (1) 
Leupeptin

>  <CAS_NUMBER>  (1) 
55123-66-5

>  <UNII>  (1) 
J97339NR3V

>  <SYNONYMS>  (1) 
Acetyl-l-leucyl-l-leucyl-l-argininal; Acetyl-leucyl-leucyl-argininal; L-leucinamide, n-acetyl-l-leucyl-n-((1s)-4-((aminoiminomethyl)amino)-1-formylbutyl)-; L-leucinamide, n-acetyl-l-leucyl-n-(4-((aminoiminomethyl)amino)-1-formylbutyl)-, (s)-; Leupeptins

$$$$
