
     RDKit          2D

 24 26  0  0  0  0  0  0  0  0999 V2000
   -1.0716    0.8249    0.0000 N   0  0  0  0  0  0  0  0  0  0  0  0
   -0.3572    1.2375    0.0000 C   0  0  0  0  0  0  0  0  0  0  0  0
   -1.0716    2.4749    0.0000 S   0  0  0  0  0  0  0  0  0  0  0  0
   -0.3572    2.0625    0.0000 C   0  0  0  0  0  0  0  0  0  0  0  0
   -1.7861    1.2374    0.0000 C   0  0  0  0  0  0  0  0  0  0  0  0
   -1.7861    2.0624    0.0000 C   0  0  0  0  0  0  0  0  0  0  0  0
    0.3572    0.8250    0.0000 C   0  0  0  0  0  0  0  0  0  0  0  0
    1.0716    1.2375    0.0000 C   0  0  0  0  0  0  0  0  0  0  0  0
    1.7861    0.8250    0.0000 C   0  0  0  0  0  0  0  0  0  0  0  0
    0.3572    2.4749    0.0000 C   0  0  0  0  0  0  0  0  0  0  0  0
    1.0716    2.0625    0.0000 C   0  0  0  0  0  0  0  0  0  0  0  0
    1.7861    0.0000    0.0000 O   0  0  0  0  0  0  0  0  0  0  0  0
   -1.0716    0.0000    0.0000 C   0  0  0  0  0  0  0  0  0  0  0  0
   -1.7861   -0.4125    0.0000 C   0  0  0  0  0  0  0  0  0  0  0  0
   -2.5005   -1.6500    0.0000 N   0  0  0  0  0  0  0  0  0  0  0  0
   -2.5006    0.8249    0.0000 C   0  0  0  0  0  0  0  0  0  0  0  0
   -2.5006    2.4749    0.0000 C   0  0  0  0  0  0  0  0  0  0  0  0
   -1.7861   -1.2375    0.0000 C   0  0  0  0  0  0  0  0  0  0  0  0
    2.5006    1.2375    0.0000 C   0  0  0  0  0  0  0  0  0  0  0  0
   -2.5005   -2.4749    0.0000 C   0  0  0  0  0  0  0  0  0  0  0  0
   -3.2150   -1.2375    0.0000 C   0  0  0  0  0  0  0  0  0  0  0  0
    3.2150    0.8250    0.0000 C   0  0  0  0  0  0  0  0  0  0  0  0
   -3.2150    1.2374    0.0000 C   0  0  0  0  0  0  0  0  0  0  0  0
   -3.2150    2.0624    0.0000 C   0  0  0  0  0  0  0  0  0  0  0  0
  2  1  1  0
  3  6  1  0
  4  2  2  0
  4  3  1  0
  5  1  1  0
  6  5  2  0
  7  2  1  0
  8  7  2  0
  9  8  1  0
 10  4  1  0
 10 11  2  0
 11  8  1  0
 12  9  2  0
 13  1  1  0
 14 13  1  0
 15 18  1  0
 16  5  1  0
 17  6  1  0
 17 24  2  0
 18 14  1  0
 19  9  1  0
 20 15  1  0
 21 15  1  0
 22 19  1  0
 23 16  2  0
 24 23  1  0
M  END
>  <DRUGBANK_ID>  (1) 
DB11540

>  <COMMON_NAME>  (1) 
Propiopromazine

>  <CAS_NUMBER>  (1) 
3568-24-9

>  <UNII>  (1) 
Y1BCT334I7

>  <SYNONYMS>  (1) 
Propionpromazine; Propionylpromazine; Propionylpromazone; Propiopromazine

$$$$
