
     RDKit          2D

 35 39  0  0  1  0  0  0  0  0999 V2000
   -2.8465   -7.7834    0.0000 C   0  0  0  0  0  0  0  0  0  0  0  0
   -2.5915   -6.9988    0.0000 N   0  0  0  0  0  0  0  0  0  0  0  0
   -3.1436   -6.3857    0.0000 C   0  0  0  0  0  0  0  0  0  0  0  0
   -2.8886   -5.6010    0.0000 C   0  0  0  0  0  0  0  0  0  0  0  0
   -2.0817   -5.4295    0.0000 N   0  0  0  0  0  0  0  0  0  0  0  0
   -1.5296   -6.0426    0.0000 C   0  0  0  0  0  0  0  0  0  0  0  0
   -1.7846   -6.8272    0.0000 C   0  0  0  0  0  0  0  0  0  0  0  0
   -1.8267   -4.6449    0.0000 C   0  0  0  0  0  0  0  0  0  0  0  0
   -2.3788   -4.0318    0.0000 C   0  0  0  0  0  0  0  0  0  0  0  0
   -2.1238   -3.2472    0.0000 C   0  0  0  0  0  0  0  0  0  0  0  0
   -1.3168   -3.0756    0.0000 C   0  0  0  0  0  0  0  0  0  0  0  0
   -0.7648   -3.6887    0.0000 C   0  0  0  0  0  0  0  0  0  0  0  0
   -1.0198   -4.4734    0.0000 C   0  0  0  0  0  0  0  0  0  0  0  0
   -1.0619   -2.2910    0.0000 C   0  0  0  0  0  0  0  0  0  0  0  0
   -1.6139   -1.6779    0.0000 O   0  0  0  0  0  0  0  0  0  0  0  0
   -0.2549   -2.1195    0.0000 N   0  0  0  0  0  0  0  0  0  0  0  0
   -0.0000   -1.3349    0.0000 C   0  0  0  0  0  0  0  0  0  0  0  0
    0.7846   -1.0799    0.0000 C   0  0  0  0  0  0  0  0  0  0  0  0
    0.7846   -0.2549    0.0000 C   0  0  0  0  0  0  0  0  0  0  0  0
   -0.0000    0.0000    0.0000 N   0  0  0  0  0  0  0  0  0  0  0  0
   -0.4849   -0.6674    0.0000 N   0  0  0  0  0  0  0  0  0  0  0  0
    1.5692    0.0000    0.0000 C   0  0  0  0  0  0  0  0  0  0  0  0
    2.0542   -0.6674    0.0000 N   0  0  0  0  0  0  0  0  0  0  0  0
    1.5692   -1.3349    0.0000 C   0  0  0  0  0  0  0  0  0  0  0  0
    2.8792   -0.6674    0.0000 C   0  0  0  0  0  0  0  0  0  0  0  0
    3.2917   -1.3819    0.0000 O   0  0  0  0  0  0  0  0  0  0  0  0
    3.2917    0.0470    0.0000 C   0  0  0  0  0  0  0  0  0  0  0  0
    4.1167    0.0470    0.0000 C   0  0  0  0  0  0  0  0  0  0  0  0
    4.5292    0.7615    0.0000 C   0  0  0  0  0  0  0  0  0  0  0  0
    5.3542    0.7615    0.0000 C   0  0  0  0  0  0  0  0  0  0  0  0
    5.7667    0.0470    0.0000 C   0  0  0  0  0  0  0  0  0  0  0  0
    5.3542   -0.6674    0.0000 C   0  0  0  0  0  0  0  0  0  0  0  0
    4.5292   -0.6674    0.0000 C   0  0  0  0  0  0  0  0  0  0  0  0
    2.8792    0.7615    0.0000 O   0  0  0  0  0  0  0  0  0  0  0  0
    3.2917    1.4760    0.0000 C   0  0  0  0  0  0  0  0  0  0  0  0
  1  2  1  0
  2  3  1  0
  2  7  1  0
  3  4  1  0
  4  5  1  0
  5  6  1  0
  5  8  1  0
  6  7  1  0
  8  9  2  0
  8 13  1  0
  9 10  1  0
 10 11  2  0
 11 12  1  0
 11 14  1  0
 12 13  2  0
 14 15  2  0
 14 16  1  0
 16 17  1  0
 17 18  1  0
 17 21  2  0
 18 19  2  0
 18 24  1  0
 19 20  1  0
 19 22  1  0
 20 21  1  0
 22 23  1  0
 23 24  1  0
 23 25  1  0
 25 26  2  0
 25 27  1  0
 27 28  1  0
 27 34  1  6
 28 29  2  0
 28 33  1  0
 29 30  1  0
 30 31  2  0
 31 32  1  0
 32 33  2  0
 34 35  1  0
M  END
>  <DRUGBANK_ID>  (1) 
DB11778

>  <COMMON_NAME>  (1) 
Danusertib

>  <CAS_NUMBER>  (1) 
827318-97-8

>  <UNII>  (1) 
M3X659D0FY

>  <SYNONYMS>  (1) 
Danusertib

$$$$
