ET1
     RDKit          2D

 27 29  0  0  0  0  0  0  0  0999 V2000
   -1.1155   -2.4704    0.0000 C   0  0  0  0  0  0  0  0  0  0  0  0
   -1.3704    1.5614    0.0000 C   0  0  0  0  0  0  0  0  0  0  0  0
   -0.2663    2.7876    0.0000 C   0  0  0  0  0  0  0  0  0  0  0  0
   -0.0114    2.0030    0.0000 C   0  0  0  0  0  0  0  0  0  0  0  0
   -0.0536   -0.1793    0.0000 N   0  0  0  0  0  0  0  0  0  0  0  0
   -0.5385   -0.8468    0.0000 C   0  0  0  0  0  0  0  0  0  0  0  0
   -0.0536   -1.5142    0.0000 C   0  0  0  0  0  0  0  0  0  0  0  0
    0.7311   -1.2593    0.0000 C   0  0  0  0  0  0  0  0  0  0  0  0
    0.7311   -0.4343    0.0000 C   0  0  0  0  0  0  0  0  0  0  0  0
    2.1600   -1.2593    0.0000 C   0  0  0  0  0  0  0  0  0  0  0  0
    2.1600   -0.4343    0.0000 C   0  0  0  0  0  0  0  0  0  0  0  0
    1.4455   -0.0218    0.0000 C   0  0  0  0  0  0  0  0  0  0  0  0
    1.4455   -1.6718    0.0000 C   0  0  0  0  0  0  0  0  0  0  0  0
    2.8745   -1.6718    0.0000 O   0  0  0  0  0  0  0  0  0  0  0  0
    2.8745   -2.4968    0.0000 C   0  0  0  0  0  0  0  0  0  0  0  0
   -0.3085   -2.2988    0.0000 C   0  0  0  0  0  0  0  0  0  0  0  0
   -1.3704   -3.2550    0.0000 C   0  0  0  0  0  0  0  0  0  0  0  0
   -0.3085    0.6053    0.0000 S   0  0  0  0  0  0  0  0  0  0  0  0
   -0.5634    1.3899    0.0000 C   0  0  0  0  0  0  0  0  0  0  0  0
   -1.6253    2.3461    0.0000 C   0  0  0  0  0  0  0  0  0  0  0  0
   -1.0733    2.9592    0.0000 C   0  0  0  0  0  0  0  0  0  0  0  0
    0.4761    0.8602    0.0000 O   0  0  0  0  0  0  0  0  0  0  0  0
   -1.0931    0.3503    0.0000 O   0  0  0  0  0  0  0  0  0  0  0  0
   -2.1774   -3.4265    0.0000 O   0  0  0  0  0  0  0  0  0  0  0  0
   -0.8184   -3.8681    0.0000 O   0  0  0  0  0  0  0  0  0  0  0  0
   -1.3282    3.7438    0.0000 O   0  0  0  0  0  0  0  0  0  0  0  0
   -2.1352    3.9153    0.0000 C   0  0  0  0  0  0  0  0  0  0  0  0
  1 16  1  0
  1 17  1  0
  2 20  2  0
  3 21  2  0
  4  3  1  0
  5  6  1  0
  5 18  1  0
  7  6  2  0
  7 16  1  0
  8  7  1  0
  8  9  2  0
  9  5  1  0
 10 11  1  0
 10 13  2  0
 11 12  2  0
 12  9  1  0
 13  8  1  0
 14 10  1  0
 14 15  1  0
 17 25  1  0
 18 19  1  0
 19  2  1  0
 19  4  2  0
 20 21  1  0
 21 26  1  0
 22 18  2  0
 23 18  2  0
 24 17  2  0
 26 27  1  0
M  END
>  <DRUGBANK_ID>  (1) 
DB07724

>  <COMMON_NAME>  (1) 
Indeglitazar

>  <CAS_NUMBER>  (1) 
835619-41-5

>  <UNII>  (1) 
JMC809G4ZH

>  <SYNONYMS>  (1) 
Indeglitazar

$$$$
