242
     RDKit          2D

 31 34  0  0  0  0  0  0  0  0999 V2000
   -2.3066   -0.6138    0.0000 C   0  0  0  0  0  0  0  0  0  0  0  0
   -1.5921   -1.0263    0.0000 C   0  0  0  0  0  0  0  0  0  0  0  0
   -1.5921   -1.8513    0.0000 C   0  0  0  0  0  0  0  0  0  0  0  0
   -2.3066   -2.2638    0.0000 N   0  0  0  0  0  0  0  0  0  0  0  0
   -3.0211   -1.8513    0.0000 C   0  0  0  0  0  0  0  0  0  0  0  0
   -3.0211   -1.0263    0.0000 N   0  0  0  0  0  0  0  0  0  0  0  0
   -0.8776   -0.6138    0.0000 C   0  0  0  0  0  0  0  0  0  0  0  0
   -0.1632   -1.0263    0.0000 C   0  0  0  0  0  0  0  0  0  0  0  0
   -0.1632   -1.8513    0.0000 C   0  0  0  0  0  0  0  0  0  0  0  0
   -0.8776   -2.2638    0.0000 C   0  0  0  0  0  0  0  0  0  0  0  0
   -3.7355   -2.2638    0.0000 N   0  0  0  0  0  0  0  0  0  0  0  0
    0.5513   -0.6138    0.0000 C   0  0  0  0  0  0  0  0  0  0  0  0
    1.2658   -1.0263    0.0000 C   0  0  0  0  0  0  0  0  0  0  0  0
    1.9802   -0.6138    0.0000 C   0  0  0  0  0  0  0  0  0  0  0  0
    1.9802    0.2112    0.0000 C   0  0  0  0  0  0  0  0  0  0  0  0
    1.2658    0.6237    0.0000 C   0  0  0  0  0  0  0  0  0  0  0  0
    0.5513    0.2112    0.0000 C   0  0  0  0  0  0  0  0  0  0  0  0
   -0.1632    0.6237    0.0000 C   0  0  0  0  0  0  0  0  0  0  0  0
    2.6947   -1.0263    0.0000 C   0  0  0  0  0  0  0  0  0  0  0  0
    3.4092   -0.6138    0.0000 O   0  0  0  0  0  0  0  0  0  0  0  0
    2.6947   -1.8513    0.0000 N   0  0  0  0  0  0  0  0  0  0  0  0
    3.4092   -2.2638    0.0000 C   0  0  0  0  0  0  0  0  0  0  0  0
    3.4092   -3.0888    0.0000 C   0  0  0  0  0  0  0  0  0  0  0  0
    4.1236   -3.5013    0.0000 C   0  0  0  0  0  0  0  0  0  0  0  0
    4.8381   -3.0888    0.0000 C   0  0  0  0  0  0  0  0  0  0  0  0
    4.8381   -2.2638    0.0000 C   0  0  0  0  0  0  0  0  0  0  0  0
    4.1236   -1.8513    0.0000 C   0  0  0  0  0  0  0  0  0  0  0  0
    4.1236   -4.3263    0.0000 C   0  0  0  0  0  0  0  0  0  0  0  0
    4.1236   -5.1513    0.0000 F   0  0  0  0  0  0  0  0  0  0  0  0
    3.2986   -4.3263    0.0000 F   0  0  0  0  0  0  0  0  0  0  0  0
    4.9486   -4.3263    0.0000 F   0  0  0  0  0  0  0  0  0  0  0  0
  1  6  2  0
  1  2  1  0
  2  7  2  0
  2  3  1  0
  3  4  1  0
  3 10  2  0
  4  5  2  0
  5  6  1  0
  5 11  1  0
  7  8  1  0
  8 12  1  0
  8  9  2  0
  9 10  1  0
 12 17  1  0
 12 13  2  0
 13 14  1  0
 14 15  2  0
 14 19  1  0
 15 16  1  0
 16 17  2  0
 17 18  1  0
 19 21  1  0
 19 20  2  0
 21 22  1  0
 22 27  1  0
 22 23  2  0
 23 24  1  0
 24 25  2  0
 24 28  1  0
 25 26  1  0
 26 27  2  0
 28 30  1  0
 28 31  1  0
 28 29  1  0
M  END
>  <DRUGBANK_ID>  (1) 
DB06925

>  <COMMON_NAME>  (1) 
3-(2-AMINOQUINAZOLIN-6-YL)-4-METHYL-N-[3-(TRIFLUOROMETHYL)PHENYL]BENZAMIDE

>  <UNII>  (1) 
T52FE17W1Y

$$$$
