19A
     RDKit          2D

 21 23  0  0  0  0  0  0  0  0999 V2000
    1.7595    3.3006    0.0000 C   0  0  0  0  0  0  0  0  0  0  0  0
    1.7595    2.4756    0.0000 N   0  0  0  0  0  0  0  0  0  0  0  0
    2.4740    2.0631    0.0000 C   0  0  0  0  0  0  0  0  0  0  0  0
    1.0450    2.0631    0.0000 C   0  0  0  0  0  0  0  0  0  0  0  0
    0.3306    2.4756    0.0000 O   0  0  0  0  0  0  0  0  0  0  0  0
    1.0450    1.2381    0.0000 C   0  0  0  0  0  0  0  0  0  0  0  0
    0.3776    0.7532    0.0000 C   0  0  0  0  0  0  0  0  0  0  0  0
    0.6325   -0.0314    0.0000 C   0  0  0  0  0  0  0  0  0  0  0  0
    1.4575   -0.0314    0.0000 C   0  0  0  0  0  0  0  0  0  0  0  0
    1.7125    0.7532    0.0000 N   0  0  0  0  0  0  0  0  0  0  0  0
    0.1476   -0.6989    0.0000 C   0  0  0  0  0  0  0  0  0  0  0  0
    0.4026   -1.4835    0.0000 N   0  0  0  0  0  0  0  0  0  0  0  0
   -0.2649   -1.9684    0.0000 N   0  0  0  0  0  0  0  0  0  0  0  0
   -0.9323   -1.4835    0.0000 C   0  0  0  0  0  0  0  0  0  0  0  0
   -0.6774   -0.6989    0.0000 C   0  0  0  0  0  0  0  0  0  0  0  0
   -1.1623   -0.0314    0.0000 C   0  0  0  0  0  0  0  0  0  0  0  0
   -1.9828   -0.1177    0.0000 C   0  0  0  0  0  0  0  0  0  0  0  0
   -2.4677    0.5498    0.0000 C   0  0  0  0  0  0  0  0  0  0  0  0
   -2.1321    1.3035    0.0000 C   0  0  0  0  0  0  0  0  0  0  0  0
   -1.3117    1.3897    0.0000 C   0  0  0  0  0  0  0  0  0  0  0  0
   -0.8267    0.7222    0.0000 C   0  0  0  0  0  0  0  0  0  0  0  0
  1  2  1  0
  2  4  1  0
  2  3  1  0
  4  5  2  0
  4  6  1  0
  6 10  1  0
  6  7  2  0
  7  8  1  0
  8  9  2  0
  8 11  1  0
  9 10  1  0
 11 12  2  0
 11 15  1  0
 12 13  1  0
 13 14  1  0
 14 15  2  0
 15 16  1  0
 16 17  2  0
 16 21  1  0
 17 18  1  0
 18 19  2  0
 19 20  1  0
 20 21  2  0
M  END
>  <DRUGBANK_ID>  (1) 
DB06877

>  <COMMON_NAME>  (1) 
N,N-DIMETHYL-4-(4-PHENYL-1H-PYRAZOL-3-YL)-1H-PYRROLE-2-CARBOXAMIDE

>  <UNII>  (1) 
8C9VEZ8JB3

$$$$
