
     RDKit          2D

 20 19  0  0  0  0  0  0  0  0999 V2000
    0.3571   -1.0314    0.0000 N   0  0  0  0  0  0  0  0  0  0  0  0
   -0.3573   -1.4440    0.0000 C   0  0  0  0  0  0  0  0  0  0  0  0
   -1.0717   -1.0313    0.0000 C   0  0  0  0  0  0  0  0  0  0  0  0
   -1.0717   -0.2062    0.0000 C   0  0  0  0  0  0  0  0  0  0  0  0
   -1.7862    0.2062    0.0000 C   0  0  0  0  0  0  0  0  0  0  0  0
   -2.5008   -0.2062    0.0000 O   0  0  0  0  0  0  0  0  0  0  0  0
   -1.7860    1.0312    0.0000 N   0  0  0  0  0  0  0  0  0  0  0  0
   -1.0715    1.4439    0.0000 C   0  0  0  0  0  0  0  0  0  0  0  0
   -1.0715    2.2689    0.0000 C   0  0  0  0  0  0  0  0  0  0  0  0
   -0.3571    1.0312    0.0000 C   0  0  0  0  0  0  0  0  0  0  0  0
   -0.3571    0.2061    0.0000 O   0  0  0  0  0  0  0  0  0  0  0  0
    0.3572    1.4437    0.0000 N   0  0  0  0  0  0  0  0  0  0  0  0
    1.0718    1.0312    0.0000 C   0  0  0  0  0  0  0  0  0  0  0  0
    1.7864    1.4437    0.0000 C   0  0  0  0  0  0  0  0  0  0  0  0
    1.7864    2.2688    0.0000 O   0  0  0  0  0  0  0  0  0  0  0  0
    2.5008    1.0312    0.0000 O   0  0  0  0  0  0  0  0  0  0  0  0
   -0.3572   -2.2689    0.0000 C   0  0  0  0  0  0  0  0  0  0  0  0
   -1.0718   -2.6814    0.0000 O   0  0  0  0  0  0  0  0  0  0  0  0
    0.3570   -2.6814    0.0000 O   0  0  0  0  0  0  0  0  0  0  0  0
   -0.3571    2.6814    0.0000 S   0  0  0  0  0  0  0  0  0  0  0  0
  2  1  1  6
  2  3  1  0
  2 17  1  0
  3  4  1  0
  4  5  1  0
  5  6  2  0
  5  7  1  0
  7  8  1  0
  8  9  1  1
  8 10  1  0
  9 20  1  0
 10 11  2  0
 10 12  1  0
 12 13  1  0
 13 14  1  0
 14 15  2  0
 14 16  1  0
 17 18  2  0
 17 19  1  0
M  END
>  <DRUGBANK_ID>  (1) 
DB00143

>  <SECONDARY_ACCESSION_NUMBERS>  (1) 
NUTR00029; EXPT01650

>  <COMMON_NAME>  (1) 
Glutathione

>  <CAS_NUMBER>  (1) 
70-18-8

>  <UNII>  (1) 
GAN16C9B8O

>  <SYNONYMS>  (1) 
5-L-Glutamyl-L-cysteinylglycine; AEC GLUTATHIONE; gamma-L-Glutamyl-L-cysteinyl-glycine; Glutathion; Glutathione; Glutathione-SH; GLYCINE, L-.GAMMA.-GLUTAMYL-L-CYSTEINYL-; GSH; L-GLUTATHIONE REDUCED; Liposomal glutathione; N-(N-gamma-L-Glutamyl-L-cysteinyl)glycine; Reduced glutathione; REDUCED L-GLUTATHIONE

$$$$
