
     RDKit          2D

 29 32  0  0  0  0  0  0  0  0999 V2000
    3.7153   -2.6950    0.0000 C   0  0  0  0  0  0  0  0  0  0  0  0
    2.9083   -2.5235    0.0000 C   0  0  0  0  0  0  0  0  0  0  0  0
    2.6533   -1.7388    0.0000 C   0  0  0  0  0  0  0  0  0  0  0  0
    1.8464   -1.5673    0.0000 C   0  0  0  0  0  0  0  0  0  0  0  0
    1.2944   -2.1804    0.0000 C   0  0  0  0  0  0  0  0  0  0  0  0
    1.5492   -2.9651    0.0000 C   0  0  0  0  0  0  0  0  0  0  0  0
    2.3563   -3.1366    0.0000 C   0  0  0  0  0  0  0  0  0  0  0  0
    4.5223   -2.8666    0.0000 N   0  0  0  0  0  0  0  0  0  0  0  0
    0.9973   -3.5782    0.0000 Cl  0  0  0  0  0  0  0  0  0  0  0  0
    1.5915   -0.7826    0.0000 O   0  0  0  0  0  0  0  0  0  0  0  0
    0.7845   -0.6112    0.0000 C   0  0  0  0  0  0  0  0  0  0  0  0
    0.2325   -1.2243    0.0000 C   0  0  0  0  0  0  0  0  0  0  0  0
   -0.5745   -1.0528    0.0000 C   0  0  0  0  0  0  0  0  0  0  0  0
   -0.8294   -0.2681    0.0000 C   0  0  0  0  0  0  0  0  0  0  0  0
   -0.2774    0.3449    0.0000 C   0  0  0  0  0  0  0  0  0  0  0  0
    0.5296    0.1734    0.0000 C   0  0  0  0  0  0  0  0  0  0  0  0
    0.4874   -2.0089    0.0000 Cl  0  0  0  0  0  0  0  0  0  0  0  0
   -0.5323    1.1296    0.0000 O   0  0  0  0  0  0  0  0  0  0  0  0
   -1.3393    1.3011    0.0000 C   0  0  0  0  0  0  0  0  0  0  0  0
   -2.3788    3.1657    0.0000 C   0  0  0  0  0  0  0  0  0  0  0  0
   -2.3788    2.3407    0.0000 C   0  0  0  0  0  0  0  0  0  0  0  0
   -3.0933    1.9282    0.0000 C   0  0  0  0  0  0  0  0  0  0  0  0
   -3.8078    2.3407    0.0000 C   0  0  0  0  0  0  0  0  0  0  0  0
   -3.8078    3.1657    0.0000 C   0  0  0  0  0  0  0  0  0  0  0  0
   -3.0933    3.5782    0.0000 N   0  0  0  0  0  0  0  0  0  0  0  0
   -1.1093    2.7532    0.0000 N   0  0  0  0  0  0  0  0  0  0  0  0
   -1.5942    3.4206    0.0000 N   0  0  0  0  0  0  0  0  0  0  0  0
   -1.5942    2.0857    0.0000 C   0  0  0  0  0  0  0  0  0  0  0  0
   -4.5223    3.5782    0.0000 N   0  0  0  0  0  0  0  0  0  0  0  0
  1  2  1  0
  1  8  3  0
  2  3  2  0
  2  7  1  0
  3  4  1  0
  4  5  2  0
  4 10  1  0
  5  6  1  0
  6  7  2  0
  6  9  1  0
 10 11  1  0
 11 12  2  0
 11 16  1  0
 12 13  1  0
 12 17  1  0
 13 14  2  0
 14 15  1  0
 15 16  2  0
 15 18  1  0
 18 19  1  0
 19 28  1  0
 20 21  1  0
 20 25  2  0
 21 22  2  0
 22 23  1  0
 23 24  2  0
 24 25  1  0
 24 29  1  0
 26 27  1  0
 26 28  2  0
 27 20  1  0
 28 21  1  0
M  END
>  <DRUGBANK_ID>  (1) 
DB08460

>  <COMMON_NAME>  (1) 
MK-4965

>  <CAS_NUMBER>  (1) 
920035-77-4

>  <UNII>  (1) 
Z8856WDK9S

$$$$
