
     RDKit          2D

 12 11  0  0  0  0  0  0  0  0999 V2000
   -3.5889    0.6221    0.0000 C   0  0  0  0  0  0  0  0  0  0  0  0
   -2.8712    0.2153    0.0000 C   0  0  0  0  0  0  0  0  0  0  0  0
   -2.1533    0.6221    0.0000 C   0  0  0  0  0  0  0  0  0  0  0  0
   -1.4355    0.2153    0.0000 C   0  0  0  0  0  0  0  0  0  0  0  0
   -0.7177    0.6221    0.0000 C   0  0  0  0  0  0  0  0  0  0  0  0
    0.0239    0.2153    0.0000 C   0  0  0  0  0  0  0  0  0  0  0  0
    0.7178    0.6221    0.0000 C   0  0  0  0  0  0  0  0  0  0  0  0
    1.4356    0.2153    0.0000 C   0  0  0  0  0  0  0  0  0  0  0  0
    2.1534    0.6221    0.0000 C   0  0  0  0  0  0  0  0  0  0  0  0
    2.8712    0.2153    0.0000 C   0  0  0  0  0  0  0  0  0  0  0  0
    3.5889    0.6221    0.0000 C   0  0  0  0  0  0  0  0  0  0  0  0
   -2.8712   -0.6221    0.0000 O   0  0  0  0  0  0  0  0  0  0  0  0
  2  1  1  0
  3  2  1  0
  4  3  1  0
  5  4  1  0
  6  5  1  0
  7  6  1  0
  8  7  1  0
  9  8  1  0
 10  9  1  0
 11 10  1  0
 12  2  2  0
M  END
>  <DRUGBANK_ID>  (1) 
DB08688

>  <COMMON_NAME>  (1) 
2-Undecanone

>  <CAS_NUMBER>  (1) 
112-12-9

>  <UNII>  (1) 
YV5DSO8CY9

>  <SYNONYMS>  (1) 
2-hendecanone; Methyl nonyl ketone; Rue ketone; Undecan-2-one

$$$$
