
     RDKit          2D

  8  8  0  0  0  0  0  0  0  0999 V2000
    2.1434   -0.4125    0.0000 O   0  0  0  0  0  0  0  0  0  0  0  0
    1.4289    0.0000    0.0000 C   0  0  0  0  0  0  0  0  0  0  0  0
    0.7145   -0.4125    0.0000 C   0  0  0  0  0  0  0  0  0  0  0  0
    0.0000    0.0000    0.0000 C   0  0  0  0  0  0  0  0  0  0  0  0
    0.0000    0.8250    0.0000 C   0  0  0  0  0  0  0  0  0  0  0  0
    0.7145    1.2375    0.0000 C   0  0  0  0  0  0  0  0  0  0  0  0
    0.7145    2.0625    0.0000 Cl  0  0  0  0  0  0  0  0  0  0  0  0
    1.4289    0.8250    0.0000 C   0  0  0  0  0  0  0  0  0  0  0  0
  1  2  1  0
  2  3  2  0
  2  8  1  0
  3  4  1  0
  4  5  2  0
  5  6  1  0
  6  7  1  0
  6  8  2  0
M  END
>  <DRUGBANK_ID>  (1) 
DB01957

>  <SECONDARY_ACCESSION_NUMBERS>  (1) 
EXPT00165

>  <COMMON_NAME>  (1) 
3-Chlorophenol

>  <CAS_NUMBER>  (1) 
108-43-0

>  <UNII>  (1) 
Z2Z7M2FTAD

$$$$
