WRA
     RDKit          2D

 24 25  0  0  0  0  0  0  0  0999 V2000
   -1.7538   -0.5049    0.0000 C   0  0  0  0  0  0  0  0  0  0  0  0
   -2.4683   -0.9174    0.0000 N   0  0  0  0  0  0  0  0  0  0  0  0
   -3.1828   -0.5049    0.0000 C   0  0  0  0  0  0  0  0  0  0  0  0
   -3.1828    0.3201    0.0000 N   0  0  0  0  0  0  0  0  0  0  0  0
   -2.4683    0.7326    0.0000 C   0  0  0  0  0  0  0  0  0  0  0  0
   -1.7538    0.3201    0.0000 N   0  0  0  0  0  0  0  0  0  0  0  0
   -1.0394    0.7326    0.0000 O   0  0  0  0  0  0  0  0  0  0  0  0
   -0.3249    0.3201    0.0000 C   0  0  0  0  0  0  0  0  0  0  0  0
    0.3896    0.7326    0.0000 C   0  0  0  0  0  0  0  0  0  0  0  0
    1.1041    0.3201    0.0000 C   0  0  0  0  0  0  0  0  0  0  0  0
    1.8185    0.7326    0.0000 O   0  0  0  0  0  0  0  0  0  0  0  0
    2.5330    0.3201    0.0000 C   0  0  0  0  0  0  0  0  0  0  0  0
    3.2475    0.7326    0.0000 C   0  0  0  0  0  0  0  0  0  0  0  0
    3.9619    0.3201    0.0000 C   0  0  0  0  0  0  0  0  0  0  0  0
    3.9619   -0.5049    0.0000 C   0  0  0  0  0  0  0  0  0  0  0  0
    3.2475   -0.9174    0.0000 C   0  0  0  0  0  0  0  0  0  0  0  0
    2.5330   -0.5049    0.0000 C   0  0  0  0  0  0  0  0  0  0  0  0
   -1.3166   -1.2045    0.0000 C   0  0  0  0  0  0  0  0  0  0  0  0
   -0.9293   -0.5337    0.0000 C   0  0  0  0  0  0  0  0  0  0  0  0
   -3.8972   -0.9174    0.0000 N   0  0  0  0  0  0  0  0  0  0  0  0
   -2.4683    1.5576    0.0000 N   0  0  0  0  0  0  0  0  0  0  0  0
    3.2475    1.5576    0.0000 Cl  0  0  0  0  0  0  0  0  0  0  0  0
    4.6764   -0.9174    0.0000 Cl  0  0  0  0  0  0  0  0  0  0  0  0
    3.2475   -1.7424    0.0000 Cl  0  0  0  0  0  0  0  0  0  0  0  0
  1  2  1  0
  1  6  1  0
  1 18  1  0
  1 19  1  0
  2  3  2  0
  3  4  1  0
  3 20  1  0
  4  5  2  0
  5  6  1  0
  5 21  1  0
  6  7  1  0
  7  8  1  0
  8  9  1  0
  9 10  1  0
 10 11  1  0
 11 12  1  0
 12 13  2  0
 12 17  1  0
 13 14  1  0
 13 22  1  0
 14 15  2  0
 15 16  1  0
 15 23  1  0
 16 17  2  0
 16 24  1  0
M  END
>  <DRUGBANK_ID>  (1) 
DB08734

>  <COMMON_NAME>  (1) 
6,6-DIMETHYL-1-[3-(2,4,5-TRICHLOROPHENOXY)PROPOXY]-1,6-DIHYDRO-1,3,5-TRIAZINE-2,4-DIAMINE

$$$$
