RS7
     RDKit          2D

 19 19  0  0  0  0  0  0  0  0999 V2000
   -1.9089   -0.7083    0.0000 C   0  0  0  0  0  0  0  0  0  0  0  0
   -1.9089    0.1167    0.0000 O   0  0  0  0  0  0  0  0  0  0  0  0
   -1.1944   -1.1208    0.0000 O   0  0  0  0  0  0  0  0  0  0  0  0
   -2.6233   -1.1208    0.0000 C   0  0  0  0  0  0  0  0  0  0  0  0
   -2.6233   -1.9458    0.0000 C   0  0  0  0  0  0  0  0  0  0  0  0
   -3.3378   -2.3583    0.0000 C   0  0  0  0  0  0  0  0  0  0  0  0
   -4.0523   -1.9458    0.0000 C   0  0  0  0  0  0  0  0  0  0  0  0
   -4.7667   -2.3583    0.0000 C   0  0  0  0  0  0  0  0  0  0  0  0
   -4.7667   -3.1833    0.0000 C   0  0  0  0  0  0  0  0  0  0  0  0
   -4.0523   -3.5958    0.0000 C   0  0  0  0  0  0  0  0  0  0  0  0
   -3.3378   -3.1833    0.0000 C   0  0  0  0  0  0  0  0  0  0  0  0
   -2.6233   -3.5958    0.0000 C   0  0  0  0  0  0  0  0  0  0  0  0
   -1.9089   -4.0083    0.0000 C   0  0  0  0  0  0  0  0  0  0  0  0
   -1.1944   -4.4208    0.0000 C   0  0  0  0  0  0  0  0  0  0  0  0
   -0.4799   -4.0083    0.0000 C   0  0  0  0  0  0  0  0  0  0  0  0
    0.2346   -4.4208    0.0000 C   0  0  0  0  0  0  0  0  0  0  0  0
    0.9490   -4.0083    0.0000 C   0  0  0  0  0  0  0  0  0  0  0  0
    1.6635   -4.4208    0.0000 C   0  0  0  0  0  0  0  0  0  0  0  0
    2.3780   -4.0083    0.0000 C   0  0  0  0  0  0  0  0  0  0  0  0
  1  4  1  0
  2  1  2  0
  3  1  1  0
  4  5  2  0
  5  6  1  0
  6 11  2  0
  7  6  1  0
  7  8  2  0
  8  9  1  0
  9 10  2  0
 11 12  1  0
 11 10  1  0
 12 13  3  0
 13 14  1  0
 14 15  1  0
 16 15  1  0
 17 16  1  0
 18 17  1  0
 19 18  1  0
M  END
>  <DRUGBANK_ID>  (1) 
DB08492

>  <COMMON_NAME>  (1) 
(2E)-3-(2-OCT-1-YN-1-YLPHENYL)ACRYLIC ACID

$$$$
