
     RDKit          2D

 33 35  0  0  0  0  0  0  0  0999 V2000
    1.0716    1.6500    0.0000 Cl  0  0  0  0  0  0  0  0  0  0  0  0
    4.6441   -2.0625    0.0000 Cl  0  0  0  0  0  0  0  0  0  0  0  0
   -3.6276    0.7144    0.0000 F   0  0  0  0  0  0  0  0  0  0  0  0
   -2.8026   -0.7144    0.0000 F   0  0  0  0  0  0  0  0  0  0  0  0
   -0.3572   -0.8250    0.0000 O   0  0  0  0  0  0  0  0  0  0  0  0
    1.7862    1.2375    0.0000 O   0  0  0  0  0  0  0  0  0  0  0  0
   -3.2151   -1.6500    0.0000 O   0  0  0  0  0  0  0  0  0  0  0  0
    2.5007    0.0000    0.0000 N   0  0  0  0  0  0  0  0  0  0  0  0
   -0.3572    0.0000    0.0000 N   0  0  0  0  0  0  0  0  0  0  0  0
   -1.7862    0.0000    0.0000 N   0  0  0  0  0  0  0  0  0  0  0  0
   -3.9297   -1.2375    0.0000 N   0  0  0  0  0  0  0  0  0  0  0  0
    3.2151    0.4125    0.0000 C   0  0  0  0  0  0  0  0  0  0  0  0
    3.9296    0.0000    0.0000 C   0  0  0  0  0  0  0  0  0  0  0  0
    1.0716    0.0000    0.0000 C   0  0  0  0  0  0  0  0  0  0  0  0
    0.3572    0.4125    0.0000 C   0  0  0  0  0  0  0  0  0  0  0  0
    1.7862    0.4125    0.0000 C   0  0  0  0  0  0  0  0  0  0  0  0
    3.2151    1.2375    0.0000 C   0  0  0  0  0  0  0  0  0  0  0  0
   -3.2151    0.0000    0.0000 C   0  0  0  0  0  0  0  0  0  0  0  0
   -1.0716    0.4125    0.0000 C   0  0  0  0  0  0  0  0  0  0  0  0
   -2.5007    0.4125    0.0000 C   0  0  0  0  0  0  0  0  0  0  0  0
    0.3572    1.2375    0.0000 C   0  0  0  0  0  0  0  0  0  0  0  0
    3.9296   -0.8250    0.0000 C   0  0  0  0  0  0  0  0  0  0  0  0
    4.6441    0.4125    0.0000 C   0  0  0  0  0  0  0  0  0  0  0  0
   -3.9297   -0.4125    0.0000 C   0  0  0  0  0  0  0  0  0  0  0  0
   -1.0716    1.2375    0.0000 C   0  0  0  0  0  0  0  0  0  0  0  0
   -0.3572    1.6500    0.0000 C   0  0  0  0  0  0  0  0  0  0  0  0
    4.6441   -1.2375    0.0000 C   0  0  0  0  0  0  0  0  0  0  0  0
    5.3586    0.0000    0.0000 C   0  0  0  0  0  0  0  0  0  0  0  0
   -4.6441    0.0000    0.0000 C   0  0  0  0  0  0  0  0  0  0  0  0
    5.3586   -0.8250    0.0000 C   0  0  0  0  0  0  0  0  0  0  0  0
   -4.6441   -1.6500    0.0000 C   0  0  0  0  0  0  0  0  0  0  0  0
   -5.3586   -0.4125    0.0000 C   0  0  0  0  0  0  0  0  0  0  0  0
   -5.3586   -1.2375    0.0000 C   0  0  0  0  0  0  0  0  0  0  0  0
  1 21  1  0
  2 27  1  0
  3 18  1  0
  4 18  1  0
  5  9  1  0
  6 16  2  0
  7 11  1  0
  8 16  1  0
  9 15  1  0
  9 19  1  0
 10 19  2  0
 10 20  1  0
 11 24  2  0
 11 31  1  0
 12  8  1  0
 12 13  1  0
 12 17  1  6
 13 22  2  0
 13 23  1  0
 14 15  1  0
 14 16  1  0
 15 21  2  0
 18 20  1  0
 18 24  1  0
 19 25  1  0
 21 26  1  0
 22 27  1  0
 23 28  2  0
 24 29  1  0
 25 26  2  0
 27 30  2  0
 28 30  1  0
 29 32  2  0
 31 33  2  0
 32 33  1  0
M  CHG  2   7  -1  11   1
M  END
>  <DRUGBANK_ID>  (1) 
DB04722

>  <COMMON_NAME>  (1) 
2-[3-chloro-6-[2,2-difluoro-2-(1-oxidopyridin-1-ium-2-yl)ethyl]imino-1-hydroxypyridin-2-yl]-N-[(1R)-1-(3-chlorophenyl)ethyl]acetamide

$$$$
