
     RDKit          2D

 18 18  0  0  1  0  0  0  0  0999 V2000
   -1.4289    0.8250    0.0000 C   0  0  0  0  0  0  0  0  0  0  0  0
   -0.7145    1.2375    0.0000 C   0  0  0  0  0  0  0  0  0  0  0  0
    1.4289    0.8250    0.0000 C   0  0  0  0  0  0  0  0  0  0  0  0
    0.7145    1.2375    0.0000 C   0  0  0  0  0  0  0  0  0  0  0  0
    1.4289   -0.0000    0.0000 C   0  0  0  0  0  0  0  0  0  0  0  0
    0.0000    0.8250    0.0000 C   0  0  0  0  0  0  0  0  0  0  0  0
    0.7145   -0.4125    0.0000 C   0  0  0  0  0  0  0  0  0  0  0  0
   -0.7145    2.0625    0.0000 O   0  0  0  0  0  0  0  0  0  0  0  0
    2.1434    1.2375    0.0000 O   0  0  0  0  0  0  0  0  0  0  0  0
    0.7145    2.0625    0.0000 O   0  0  0  0  0  0  0  0  0  0  0  0
    2.1434   -0.4125    0.0000 O   0  0  0  0  0  0  0  0  0  0  0  0
    0.7145   -1.2375    0.0000 O   0  0  0  0  0  0  0  0  0  0  0  0
   -3.5724    0.4125    0.0000 O   0  0  0  0  0  0  0  0  0  0  0  0
   -3.2704    1.5395    0.0000 O   0  0  0  0  0  0  0  0  0  0  0  0
   -2.4454    0.1105    0.0000 O   0  0  0  0  0  0  0  0  0  0  0  0
   -2.1434    1.2375    0.0000 O   0  0  0  0  0  0  0  0  0  0  0  0
    0.0000    0.0000    0.0000 O   0  0  0  0  0  0  0  0  0  0  0  0
   -2.8579    0.8250    0.0000 P   0  0  0  0  0  0  0  0  0  0  0  0
  2  1  1  0
  2  8  1  1
  3  9  1  6
  4  3  1  0
  4 10  1  1
  5  3  1  0
  5 11  1  6
  6  2  1  0
  6  4  1  0
  7  5  1  0
  7 12  1  1
 16  1  1  0
  6 17  1  6
 17  7  1  0
 18 13  1  0
 18 14  1  0
 18 15  2  0
 18 16  1  0
M  END
>  <DRUGBANK_ID>  (1) 
DB02470

>  <SECONDARY_ACCESSION_NUMBERS>  (1) 
EXPT02091

>  <COMMON_NAME>  (1) 
D-Glycero-D-Mannopyranose-7-Phosphate

$$$$
