TNS
     RDKit          2D

 26 27  0  0  0  0  0  0  0  0999 V2000
   -5.0835    3.4052    0.0000 O   0  0  0  0  0  0  0  0  0  0  0  0
   -4.3691    2.9927    0.0000 C   0  0  0  0  0  0  0  0  0  0  0  0
   -4.3691    2.1677    0.0000 O   0  0  0  0  0  0  0  0  0  0  0  0
   -3.6546    3.4052    0.0000 C   0  0  0  0  0  0  0  0  0  0  0  0
   -2.9401    2.9927    0.0000 C   0  0  0  0  0  0  0  0  0  0  0  0
   -2.2257    3.4052    0.0000 C   0  0  0  0  0  0  0  0  0  0  0  0
   -1.5112    2.9927    0.0000 C   0  0  0  0  0  0  0  0  0  0  0  0
   -0.7967    3.4052    0.0000 N   0  0  0  0  0  0  0  0  0  0  0  0
   -0.7967    4.2302    0.0000 C   0  0  0  0  0  0  0  0  0  0  0  0
   -0.0822    2.9927    0.0000 C   0  0  0  0  0  0  0  0  0  0  0  0
    0.6322    3.4052    0.0000 C   0  0  0  0  0  0  0  0  0  0  0  0
    1.3467    2.9927    0.0000 C   0  0  0  0  0  0  0  0  0  0  0  0
   -0.0822    2.1677    0.0000 C   0  0  0  0  0  0  0  0  0  0  0  0
    0.6322    1.7552    0.0000 C   0  0  0  0  0  0  0  0  0  0  0  0
    1.3467    2.1677    0.0000 C   0  0  0  0  0  0  0  0  0  0  0  0
    2.0612    1.7552    0.0000 C   0  0  0  0  0  0  0  0  0  0  0  0
    2.0612    0.9302    0.0000 C   0  0  0  0  0  0  0  0  0  0  0  0
    2.7756    0.5177    0.0000 C   0  0  0  0  0  0  0  0  0  0  0  0
    3.4901    0.9302    0.0000 C   0  0  0  0  0  0  0  0  0  0  0  0
    2.7756   -0.3073    0.0000 C   0  0  0  0  0  0  0  0  0  0  0  0
    3.4901   -0.7198    0.0000 C   0  0  0  0  0  0  0  0  0  0  0  0
    4.2046   -0.3073    0.0000 C   0  0  0  0  0  0  0  0  0  0  0  0
    4.2046    0.5177    0.0000 C   0  0  0  0  0  0  0  0  0  0  0  0
    4.9190   -0.7198    0.0000 N   0  0  0  0  0  0  0  0  0  0  0  0
    5.6335   -0.3073    0.0000 O   0  0  0  0  0  0  0  0  0  0  0  0
    4.9190   -1.5448    0.0000 O   0  0  0  0  0  0  0  0  0  0  0  0
  1  2  2  0
  2  3  1  0
  2  4  1  0
  4  5  1  0
  5  6  1  0
  6  7  1  0
  7  8  1  0
  8  9  1  0
  8 10  1  0
 10 11  2  0
 10 13  1  0
 11 12  1  0
 12 15  2  0
 13 14  2  0
 14 15  1  0
 15 16  1  0
 16 17  2  0
 17 18  1  0
 18 19  2  0
 18 20  1  0
 19 23  1  0
 20 21  2  0
 21 22  1  0
 22 23  2  0
 22 24  1  0
 24 25  2  0
 24 26  1  0
M  CHG  2  24   1  26  -1
M  END
>  <DRUGBANK_ID>  (1) 
DB08635

>  <COMMON_NAME>  (1) 
N-(TRANS-4'-NITRO-4-STILBENYL)-N-METHYL-5-AMINO-PENTANOIC ACID

$$$$
