
     RDKit          2D

 31 35  0  0  1  0  0  0  0  0999 V2000
    2.0701    1.1104    0.0000 C   0  0  0  0  0  0  0  0  0  0  0  0
    1.3556    0.6979    0.0000 C   0  0  0  0  0  0  0  0  0  0  0  0
    0.6411    1.1104    0.0000 C   0  0  0  0  0  0  0  0  0  0  0  0
    0.6411    1.9354    0.0000 C   0  0  0  0  0  0  0  0  0  0  0  0
    1.3556    2.3479    0.0000 C   0  0  0  0  0  0  0  0  0  0  0  0
    2.0701    1.9354    0.0000 C   0  0  0  0  0  0  0  0  0  0  0  0
    1.3556    3.1729    0.0000 O   0  0  0  0  0  0  0  0  0  0  0  0
    2.0701    3.5854    0.0000 C   0  0  0  0  0  0  0  0  0  0  0  0
    2.1563    4.4059    0.0000 C   0  0  0  0  0  0  0  0  0  0  0  0
    2.9633    4.5775    0.0000 C   0  0  0  0  0  0  0  0  0  0  0  0
    3.3758    3.8630    0.0000 O   0  0  0  0  0  0  0  0  0  0  0  0
    2.8237    3.2499    0.0000 C   0  0  0  0  0  0  0  0  0  0  0  0
   -0.1435    2.1904    0.0000 C   0  0  0  0  0  0  0  0  0  0  0  0
   -0.6284    1.5229    0.0000 N   0  0  0  0  0  0  0  0  0  0  0  0
   -0.1435    0.8555    0.0000 O   0  0  0  0  0  0  0  0  0  0  0  0
   -0.3984    2.9750    0.0000 O   0  0  0  0  0  0  0  0  0  0  0  0
   -1.2054    3.1465    0.0000 C   0  0  0  0  0  0  0  0  0  0  0  0
   -1.4604    3.9312    0.0000 C   0  0  0  0  0  0  0  0  0  0  0  0
   -2.2673    4.1027    0.0000 C   0  0  0  0  0  0  0  0  0  0  0  0
   -2.5223    4.8873    0.0000 C   0  0  0  0  0  0  0  0  0  0  0  0
   -1.9702    5.5004    0.0000 N   0  0  0  0  0  0  0  0  0  0  0  0
   -1.1633    5.3289    0.0000 C   0  0  0  0  0  0  0  0  0  0  0  0
   -0.9083    4.5442    0.0000 C   0  0  0  0  0  0  0  0  0  0  0  0
   -2.2252    6.2850    0.0000 C   0  0  0  0  0  0  0  0  0  0  0  0
   -3.0321    6.4565    0.0000 C   0  0  0  0  0  0  0  0  0  0  0  0
   -3.8491    6.3417    0.0000 C   0  0  0  0  0  0  0  0  0  0  0  0
   -4.3570    6.9918    0.0000 C   0  0  0  0  0  0  0  0  0  0  0  0
   -4.0480    7.7568    0.0000 O   0  0  0  0  0  0  0  0  0  0  0  0
   -3.2310    7.8716    0.0000 C   0  0  0  0  0  0  0  0  0  0  0  0
   -2.7231    7.2215    0.0000 C   0  0  0  0  0  0  0  0  0  0  0  0
   -3.0609    5.6320    0.0000 O   0  0  0  0  0  0  0  0  0  0  0  0
  1  2  2  0
  1  6  1  0
  2  3  1  0
  3  4  2  0
  3 15  1  0
  4  5  1  0
  4 13  1  0
  5  6  2  0
  5  7  1  0
  8  7  1  6
  8  9  1  0
  8 12  1  0
  9 10  1  0
 10 11  1  0
 11 12  1  0
 13 14  2  0
 13 16  1  0
 14 15  1  0
 16 17  1  0
 17 18  1  0
 18 19  1  0
 18 23  1  0
 19 20  1  0
 20 21  1  0
 21 22  1  0
 21 24  1  0
 22 23  1  0
 24 25  1  0
 25 26  1  0
 25 30  1  0
 25 31  1  0
 26 27  1  0
 27 28  1  0
 28 29  1  0
 29 30  1  0
M  END
>  <DRUGBANK_ID>  (1) 
DB12675

>  <COMMON_NAME>  (1) 
PF-04995274

>  <CAS_NUMBER>  (1) 
1331782-27-4

>  <UNII>  (1) 
XI179PG9LV

$$$$
