
     RDKit          2D

 24 23  0  0  0  0  0  0  0  0999 V2000
    3.6302    4.1434    0.0000 H   0  0  0  0  0  0  0  0  0  0  0  0
    2.8066    4.0954    0.0000 C   0  0  0  0  0  0  0  0  0  0  0  0
    3.2599    4.7847    0.0000 H   0  0  0  0  0  0  0  0  0  0  0  0
    2.0921    4.5079    0.0000 C   0  0  0  0  0  0  0  0  0  0  0  0
    1.3776    4.0954    0.0000 C   0  0  0  0  0  0  0  0  0  0  0  0
    1.3776    3.2704    0.0000 C   0  0  0  0  0  0  0  0  0  0  0  0
    0.6632    2.8579    0.0000 C   0  0  0  0  0  0  0  0  0  0  0  0
   -0.0513    3.2704    0.0000 C   0  0  0  0  0  0  0  0  0  0  0  0
   -0.0513    4.0954    0.0000 C   0  0  0  0  0  0  0  0  0  0  0  0
   -0.7658    4.5079    0.0000 C   0  0  0  0  0  0  0  0  0  0  0  0
    2.8066    3.2704    0.0000 C   0  0  0  0  0  0  0  0  0  0  0  0
    3.5211    2.8579    0.0000 C   0  0  0  0  0  0  0  0  0  0  0  0
    4.2355    3.2704    0.0000 C   0  0  0  0  0  0  0  0  0  0  0  0
    4.9500    2.8579    0.0000 C   0  0  0  0  0  0  0  0  0  0  0  0
    5.6645    3.2704    0.0000 C   0  0  0  0  0  0  0  0  0  0  0  0
    6.3789    2.8579    0.0000 C   0  0  0  0  0  0  0  0  0  0  0  0
    7.0934    3.2704    0.0000 C   0  0  0  0  0  0  0  0  0  0  0  0
    7.8079    2.8579    0.0000 C   0  0  0  0  0  0  0  0  0  0  0  0
    8.5224    3.2704    0.0000 C   0  0  0  0  0  0  0  0  0  0  0  0
    9.2368    2.8579    0.0000 C   0  0  0  0  0  0  0  0  0  0  0  0
    9.2368    2.0329    0.0000 O   0  0  0  0  0  0  0  0  0  0  0  0
    9.9513    3.2704    0.0000 O   0  0  0  0  0  0  0  0  0  0  0  0
   10.6658    2.8579    0.0000 C   0  0  0  0  0  0  0  0  0  0  0  0
   11.3802    3.2704    0.0000 C   0  0  0  0  0  0  0  0  0  0  0  0
  1  2  1  0
  2  3  1  0
  2  4  1  0
  2 11  1  0
  4  5  2  0
  5  6  1  0
  6  7  1  0
  7  8  1  0
  8  9  1  0
  9 10  1  0
 11 12  2  0
 12 13  1  0
 13 14  1  0
 14 15  1  0
 15 16  1  0
 16 17  1  0
 17 18  1  0
 18 19  1  0
 19 20  1  0
 20 21  2  0
 20 22  1  0
 22 23  1  0
 23 24  1  0
M  ISO  2   1   2   3   2
M  END
>  <DRUGBANK_ID>  (1) 
DB16949

>  <COMMON_NAME>  (1) 
Deulinoleate ethyl

>  <CAS_NUMBER>  (1) 
1404475-07-5

>  <UNII>  (1) 
24B102R86P

>  <SYNONYMS>  (1) 
9-cis, 12-cis-11,11-d2-linoleic acid ethyl ester; 9-cis,12-cis-11,11-D2-linoleic acid ethyl ester; 9,12-octadecadienoic-11,11-d2 acid, ethyl ester, (9z,12z)-; Di-deuterated linoleic acid; ethyl (9Z,12Z)-octadeca-9,12-dienoate-11,11-d2

$$$$
