Structure #1
     RDKit          2D

  6  5  0  0  0  0  0  0  0  0999 V2000
    1.2375   -0.7145    0.0000 C   0  0  0  0  0  0  0  0  0  0  0  0
    1.2375    0.7145    0.0000 C   0  0  0  0  0  0  0  0  0  0  0  0
    0.8250    0.0000    0.0000 C   0  0  0  0  0  0  0  0  0  0  0  0
    0.8250   -1.4289    0.0000 O   0  0  0  0  0  0  0  0  0  0  0  0
    0.8250    1.4289    0.0000 S   0  0  0  0  0  0  0  0  0  0  0  0
    0.0000    0.0000    0.0000 S   0  0  0  0  0  0  0  0  0  0  0  0
  1  3  1  0
  1  4  1  0
  2  3  1  0
  2  5  1  0
  3  6  1  0
M  END
>  <DRUGBANK_ID>  (1) 
DB06782

>  <COMMON_NAME>  (1) 
Dimercaprol

>  <CAS_NUMBER>  (1) 
59-52-9

>  <UNII>  (1) 
0CPP32S55X

>  <SYNONYMS>  (1) 
1,2-dimercapto-3-propanol; 1,2-dithioglycerol; 2,3-dimercapto-1-propanol; 2,3-dimercaptol-1-propanol; 2,3-dimercaptopropanol; 2,3-dithiopropanol; 2,3-mercaptopropan-1-ol; 2,3-Mercaptopropanol; 3-hydroxy-1,2-propanedithiol; BAL; British anti-lewisite; British antilewisite; Dimercaprol; Dimercaprolum; Dimercaptopropanol; Dithioglycerine; Dithioglycerol; Sulfactin; α,β-dithioglycerol

$$$$
