
     RDKit          2D

 28 32  0  0  0  0  0  0  0  0999 V2000
   -6.0335   -0.2663    0.0000 C   0  0  0  0  0  0  0  0  0  0  0  0
   -5.2265   -0.0948    0.0000 C   0  0  0  0  0  0  0  0  0  0  0  0
   -4.6745   -0.7079    0.0000 C   0  0  0  0  0  0  0  0  0  0  0  0
   -3.8675   -0.5364    0.0000 C   0  0  0  0  0  0  0  0  0  0  0  0
   -3.3155   -1.1495    0.0000 C   0  0  0  0  0  0  0  0  0  0  0  0
   -3.5704   -1.9341    0.0000 C   0  0  0  0  0  0  0  0  0  0  0  0
   -4.3774   -2.1056    0.0000 C   0  0  0  0  0  0  0  0  0  0  0  0
   -4.9294   -1.4925    0.0000 C   0  0  0  0  0  0  0  0  0  0  0  0
   -5.7364   -1.6641    0.0000 N   0  0  0  0  0  0  0  0  0  0  0  0
   -6.2884   -1.0510    0.0000 C   0  0  0  0  0  0  0  0  0  0  0  0
   -2.5085   -0.9780    0.0000 C   0  0  0  0  0  0  0  0  0  0  0  0
   -2.2536   -0.1933    0.0000 N   0  0  0  0  0  0  0  0  0  0  0  0
   -1.4689    0.0616    0.0000 C   0  0  0  0  0  0  0  0  0  0  0  0
   -1.4689    0.8866    0.0000 C   0  0  0  0  0  0  0  0  0  0  0  0
   -0.7545    1.2991    0.0000 N   0  0  0  0  0  0  0  0  0  0  0  0
   -0.0400    0.8866    0.0000 C   0  0  0  0  0  0  0  0  0  0  0  0
   -0.0400    0.0616    0.0000 C   0  0  0  0  0  0  0  0  0  0  0  0
   -0.7545   -0.3509    0.0000 N   0  0  0  0  0  0  0  0  0  0  0  0
    0.6745   -0.3509    0.0000 C   0  0  0  0  0  0  0  0  0  0  0  0
    1.4281   -0.0153    0.0000 C   0  0  0  0  0  0  0  0  0  0  0  0
    1.9802   -0.6284    0.0000 N   0  0  0  0  0  0  0  0  0  0  0  0
    1.5677   -1.3429    0.0000 N   0  0  0  0  0  0  0  0  0  0  0  0
    0.7607   -1.1714    0.0000 C   0  0  0  0  0  0  0  0  0  0  0  0
    1.9032   -2.0966    0.0000 C   0  0  0  0  0  0  0  0  0  0  0  0
    1.4183   -2.7640    0.0000 C   0  0  0  0  0  0  0  0  0  0  0  0
    1.7539   -3.5177    0.0000 O   0  0  0  0  0  0  0  0  0  0  0  0
   -2.2536    1.1415    0.0000 N   0  0  0  0  0  0  0  0  0  0  0  0
   -2.7385    0.4741    0.0000 N   0  0  0  0  0  0  0  0  0  0  0  0
  1  2  2  0
  1 10  1  0
  2  3  1  0
  3  4  2  0
  3  8  1  0
  4  5  1  0
  5  6  2  0
  5 11  1  0
  6  7  1  0
  7  8  2  0
  8  9  1  0
  9 10  2  0
 11 12  1  0
 12 13  1  0
 12 28  1  0
 13 14  1  0
 13 18  2  0
 14 15  2  0
 14 27  1  0
 15 16  1  0
 16 17  2  0
 17 18  1  0
 17 19  1  0
 19 20  1  0
 19 23  2  0
 20 21  2  0
 21 22  1  0
 22 23  1  0
 22 24  1  0
 24 25  1  0
 25 26  1  0
 27 28  2  0
M  END
>  <DRUGBANK_ID>  (1) 
DB12848

>  <COMMON_NAME>  (1) 
PF-04217903

>  <CAS_NUMBER>  (1) 
956905-27-4

>  <UNII>  (1) 
CYJ9ATV1IJ

$$$$
