459
     RDKit          2D

 20 22  0  0  0  0  0  0  0  0999 V2000
    1.4814    1.4357    0.0000 C   0  0  0  0  0  0  0  0  0  0  0  0
    1.1382    0.6536    0.0000 C   0  0  0  0  0  0  0  0  0  0  0  0
    0.5884    0.2176    0.0000 C   0  0  0  0  0  0  0  0  0  0  0  0
   -0.1656    0.0519    0.0000 C   0  0  0  0  0  0  0  0  0  0  0  0
   -0.0726    0.9872    0.0000 C   0  0  0  0  0  0  0  0  0  0  0  0
   -0.4575   -0.5850    0.0000 C   0  0  0  0  0  0  0  0  0  0  0  0
    0.0470   -0.1607    0.0000 C   0  0  0  0  0  0  0  0  0  0  0  0
    1.0070   -0.1500    0.0000 C   0  0  0  0  0  0  0  0  0  0  0  0
    1.9026   -0.1363    0.0000 C   0  0  0  0  0  0  0  0  0  0  0  0
    2.7087    0.1444    0.0000 O   0  0  0  0  0  0  0  0  0  0  0  0
    1.0540   -1.1369    0.0000 C   0  0  0  0  0  0  0  0  0  0  0  0
    0.2377   -1.3164    0.0000 O   0  0  0  0  0  0  0  0  0  0  0  0
    0.6498   -0.7355    0.0000 C   0  0  0  0  0  0  0  0  0  0  0  0
   -0.1439   -0.5104    0.0000 C   0  0  0  0  0  0  0  0  0  0  0  0
   -0.7357   -1.0852    0.0000 C   0  0  0  0  0  0  0  0  0  0  0  0
   -1.5294   -0.8601    0.0000 C   0  0  0  0  0  0  0  0  0  0  0  0
   -1.7313   -0.0602    0.0000 C   0  0  0  0  0  0  0  0  0  0  0  0
   -2.5250    0.1649    0.0000 O   0  0  0  0  0  0  0  0  0  0  0  0
   -1.1396    0.5146    0.0000 C   0  0  0  0  0  0  0  0  0  0  0  0
   -0.3459    0.2895    0.0000 C   0  0  0  0  0  0  0  0  0  0  0  0
  2  1  1  1
  2  3  1  0
  2  8  1  0
  3  4  1  6
  3 13  1  0
  4  5  1  6
  4  6  1  0
  6  7  1  0
  7  8  1  0
  8  9  1  6
  8 11  1  0
  9 10  1  0
 11 12  1  0
 12 13  1  0
 13 14  1  1
 14 15  2  0
 14 20  1  0
 15 16  1  0
 16 17  2  0
 17 18  1  0
 17 19  1  0
 19 20  2  0
M  END
>  <DRUGBANK_ID>  (1) 
DB07087

>  <COMMON_NAME>  (1) 
4-[(1S,2S,5S,9R)-5-(HYDROXYMETHYL)-8,9-DIMETHYL-3-OXABICYCLO[3.3.1]NON-7-EN-2-YL]PHENOL

$$$$
