
     RDKit          2D

 34 39  0  0  1  0  0  0  0  0999 V2000
    3.1257    1.7480    0.0000 C   0  0  0  0  0  0  0  0  0  0  0  0
    3.5382    1.0335    0.0000 C   0  0  0  0  0  0  0  0  0  0  0  0
    4.0902    0.4204    0.0000 C   0  0  0  0  0  0  0  0  0  0  0  0
    3.6777   -0.2941    0.0000 C   0  0  0  0  0  0  0  0  0  0  0  0
    2.8708   -0.1225    0.0000 C   0  0  0  0  0  0  0  0  0  0  0  0
    2.7845    0.6979    0.0000 N   0  0  0  0  0  0  0  0  0  0  0  0
    2.0701    1.1104    0.0000 C   0  0  0  0  0  0  0  0  0  0  0  0
    1.3556    0.6979    0.0000 N   0  0  0  0  0  0  0  0  0  0  0  0
    0.6411    1.1104    0.0000 N   0  0  0  0  0  0  0  0  0  0  0  0
   -0.1435    0.8555    0.0000 C   0  0  0  0  0  0  0  0  0  0  0  0
   -0.6284    1.5229    0.0000 C   0  0  0  0  0  0  0  0  0  0  0  0
   -0.1435    2.1904    0.0000 C   0  0  0  0  0  0  0  0  0  0  0  0
    0.6411    1.9354    0.0000 C   0  0  0  0  0  0  0  0  0  0  0  0
    1.3556    2.3479    0.0000 C   0  0  0  0  0  0  0  0  0  0  0  0
    1.3556    3.1729    0.0000 N   0  0  0  0  0  0  0  0  0  0  0  0
    0.6411    3.5854    0.0000 C   0  0  0  0  0  0  0  0  0  0  0  0
   -0.1126    3.2499    0.0000 N   0  0  0  0  0  0  0  0  0  0  0  0
   -0.6646    3.8630    0.0000 N   0  0  0  0  0  0  0  0  0  0  0  0
   -0.2521    4.5775    0.0000 C   0  0  0  0  0  0  0  0  0  0  0  0
    0.5549    4.4059    0.0000 C   0  0  0  0  0  0  0  0  0  0  0  0
   -0.5877    5.3311    0.0000 C   0  0  0  0  0  0  0  0  0  0  0  0
   -1.2551    5.8160    0.0000 C   0  0  0  0  0  0  0  0  0  0  0  0
   -0.5014    6.1516    0.0000 C   0  0  0  0  0  0  0  0  0  0  0  0
    2.0701    1.9354    0.0000 N   0  0  0  0  0  0  0  0  0  0  0  0
    4.2056    1.5184    0.0000 C   0  0  0  0  0  0  0  0  0  0  0  0
    4.9593    1.1829    0.0000 O   0  0  0  0  0  0  0  0  0  0  0  0
    4.1194    2.3389    0.0000 N   0  0  0  0  0  0  0  0  0  0  0  0
    4.7868    2.8238    0.0000 C   0  0  0  0  0  0  0  0  0  0  0  0
    4.7006    3.6443    0.0000 C   0  0  0  0  0  0  0  0  0  0  0  0
    5.3680    4.1292    0.0000 N   0  0  0  0  0  0  0  0  0  0  0  0
    6.1217    3.7937    0.0000 C   0  0  0  0  0  0  0  0  0  0  0  0
    6.7892    4.2786    0.0000 F   0  0  0  0  0  0  0  0  0  0  0  0
    6.2080    2.9732    0.0000 C   0  0  0  0  0  0  0  0  0  0  0  0
    5.5405    2.4883    0.0000 C   0  0  0  0  0  0  0  0  0  0  0  0
  2  1  1  1
  2  3  1  0
  2  6  1  0
  2 25  1  0
  3  4  1  0
  4  5  1  0
  5  6  1  0
  6  7  1  0
  7  8  2  0
  7 24  1  0
  8  9  1  0
  9 10  1  0
  9 13  1  0
 10 11  2  0
 11 12  1  0
 12 13  2  0
 13 14  1  0
 14 15  1  0
 14 24  2  0
 15 16  1  0
 16 17  2  0
 16 20  1  0
 17 18  1  0
 18 19  1  0
 19 20  2  0
 19 21  1  0
 21 22  1  0
 21 23  1  0
 22 23  1  0
 25 26  2  0
 25 27  1  0
 27 28  1  0
 28 29  2  0
 28 34  1  0
 29 30  1  0
 30 31  2  0
 31 32  1  0
 31 33  1  0
 33 34  2  0
M  END
>  <DRUGBANK_ID>  (1) 
DB15399

>  <COMMON_NAME>  (1) 
BMS-754807

>  <CAS_NUMBER>  (1) 
1001350-96-4

>  <UNII>  (1) 
W9E3353E8J

$$$$
