
     RDKit          2D

  1  0  0  0  0  0  0  0  0  0999 V2000
    0.0000    0.0000    0.0000 F   0  0  0  0  0  0  0  0  0  0  0  0
M  CHG  1   1  -1
M  ISO  1   1  18
M  END
>  <DRUGBANK_ID>  (1) 
DB09398

>  <COMMON_NAME>  (1) 
Fluoride ion F-18

>  <CAS_NUMBER>  (1) 
67862-54-8

>  <UNII>  (1) 
4M4WE5N2GE

>  <SYNONYMS>  (1) 
(18F)-Fluoride; 18F-Fluoride; Fluoride-18 anion

$$$$
