47D
     RDKit          2D

 23 25  0  0  0  0  0  0  0  0999 V2000
    2.9420    2.6754    0.0000 C   0  0  0  0  0  0  0  0  0  0  0  0
    2.1573    2.9303    0.0000 N   0  0  0  0  0  0  0  0  0  0  0  0
    1.6724    2.2629    0.0000 C   0  0  0  0  0  0  0  0  0  0  0  0
    0.8474    2.2629    0.0000 C   0  0  0  0  0  0  0  0  0  0  0  0
    0.4349    1.5484    0.0000 N   0  0  0  0  0  0  0  0  0  0  0  0
   -0.3901    1.5484    0.0000 C   0  0  0  0  0  0  0  0  0  0  0  0
   -0.8026    2.2629    0.0000 O   0  0  0  0  0  0  0  0  0  0  0  0
   -0.8026    0.8340    0.0000 N   0  0  0  0  0  0  0  0  0  0  0  0
   -1.6276    0.8340    0.0000 C   0  0  0  0  0  0  0  0  0  0  0  0
   -2.0401    0.1195    0.0000 C   0  0  0  0  0  0  0  0  0  0  0  0
   -2.8651    0.1195    0.0000 O   0  0  0  0  0  0  0  0  0  0  0  0
   -1.6276   -0.5950    0.0000 O   0  0  0  0  0  0  0  0  0  0  0  0
   -0.3901    0.1195    0.0000 C   0  0  0  0  0  0  0  0  0  0  0  0
    0.4349    0.1195    0.0000 C   0  0  0  0  0  0  0  0  0  0  0  0
    0.8474    0.8340    0.0000 C   0  0  0  0  0  0  0  0  0  0  0  0
    1.6724    0.8340    0.0000 O   0  0  0  0  0  0  0  0  0  0  0  0
    2.1573    1.5955    0.0000 S   0  0  0  0  0  0  0  0  0  0  0  0
    2.9420    1.8504    0.0000 C   0  0  0  0  0  0  0  0  0  0  0  0
    3.6564    1.4379    0.0000 C   0  0  0  0  0  0  0  0  0  0  0  0
    4.3709    1.8504    0.0000 C   0  0  0  0  0  0  0  0  0  0  0  0
    4.3709    2.6754    0.0000 C   0  0  0  0  0  0  0  0  0  0  0  0
    5.0854    3.0879    0.0000 Cl  0  0  0  0  0  0  0  0  0  0  0  0
    3.6564    3.0879    0.0000 C   0  0  0  0  0  0  0  0  0  0  0  0
  1 23  2  0
  1 18  1  0
  1  2  1  0
  2  3  2  0
  3 17  1  0
  3  4  1  0
  4  5  1  0
  5 15  1  0
  5  6  1  0
  6  7  2  0
  6  8  1  0
  8 13  1  0
  8  9  1  0
  9 10  1  0
 10 12  2  0
 10 11  1  0
 13 14  2  0
 14 15  1  0
 15 16  2  0
 17 18  1  0
 18 19  2  0
 19 20  1  0
 20 21  2  0
 21 22  1  0
 21 23  1  0
M  END
>  <DRUGBANK_ID>  (1) 
DB07093

>  <COMMON_NAME>  (1) 
{3-[(5-CHLORO-1,3-BENZOTHIAZOL-2-YL)METHYL]-2,4-DIOXO-3,4-DIHYDROPYRIMIDIN-1(2H)-YL}ACETIC ACID

$$$$
