I38
     RDKit          2D

 11 10  0  0  0  0  0  0  0  0999 V2000
   -2.5839   -0.2287    0.0000 S   0  0  0  0  0  0  0  0  0  0  0  0
   -1.8693    0.1838    0.0000 C   0  0  0  0  0  0  0  0  0  0  0  0
   -1.1548   -0.2287    0.0000 C   0  0  0  0  0  0  0  0  0  0  0  0
   -0.4403    0.1838    0.0000 C   0  0  0  0  0  0  0  0  0  0  0  0
   -0.4403    1.0089    0.0000 O   0  0  0  0  0  0  0  0  0  0  0  0
    0.2742   -0.2287    0.0000 N   0  0  0  0  0  0  0  0  0  0  0  0
    0.9888    0.1838    0.0000 C   0  0  0  0  0  0  0  0  0  0  0  0
    0.9888    1.0089    0.0000 C   0  0  0  0  0  0  0  0  0  0  0  0
    1.7032   -0.2287    0.0000 C   0  0  0  0  0  0  0  0  0  0  0  0
    2.4178    0.1838    0.0000 O   0  0  0  0  0  0  0  0  0  0  0  0
    1.7032   -1.0538    0.0000 O   0  0  0  0  0  0  0  0  0  0  0  0
  1  2  1  0
  2  3  1  0
  3  4  1  0
  4  5  2  0
  4  6  1  0
  6  7  1  0
  7  8  1  6
  7  9  1  0
  9 10  2  0
  9 11  1  0
M  END
>  <DRUGBANK_ID>  (1) 
DB07939

>  <COMMON_NAME>  (1) 
N-(3-MERCAPTOPROPANOYL)-D-ALANINE

$$$$
