22U
     RDKit          2D

 27 29  0  0  0  0  0  0  0  0999 V2000
    2.5308   -0.6744    0.0000 C   0  0  0  0  0  0  0  0  0  0  0  0
    1.5746   -1.7364    0.0000 N   0  0  0  0  0  0  0  0  0  0  0  0
    1.7462   -0.9294    0.0000 C   0  0  0  0  0  0  0  0  0  0  0  0
    1.1331   -0.3774    0.0000 C   0  0  0  0  0  0  0  0  0  0  0  0
    1.3046    0.4296    0.0000 O   0  0  0  0  0  0  0  0  0  0  0  0
    0.3484   -0.6323    0.0000 N   0  0  0  0  0  0  0  0  0  0  0  0
    0.0935   -1.4169    0.0000 C   0  0  0  0  0  0  0  0  0  0  0  0
   -0.7315   -1.4169    0.0000 C   0  0  0  0  0  0  0  0  0  0  0  0
   -0.9864   -0.6323    0.0000 C   0  0  0  0  0  0  0  0  0  0  0  0
   -0.3190   -0.1474    0.0000 C   0  0  0  0  0  0  0  0  0  0  0  0
   -0.3190    0.6776    0.0000 C   0  0  0  0  0  0  0  0  0  0  0  0
   -1.0335    1.0901    0.0000 N   0  0  0  0  0  0  0  0  0  0  0  0
   -1.0335    1.9151    0.0000 C   0  0  0  0  0  0  0  0  0  0  0  0
   -1.7479    2.3276    0.0000 C   0  0  0  0  0  0  0  0  0  0  0  0
   -2.4624    1.9151    0.0000 C   0  0  0  0  0  0  0  0  0  0  0  0
   -3.1769    2.3276    0.0000 C   0  0  0  0  0  0  0  0  0  0  0  0
   -3.1769    3.1526    0.0000 C   0  0  0  0  0  0  0  0  0  0  0  0
   -2.4624    3.5651    0.0000 C   0  0  0  0  0  0  0  0  0  0  0  0
   -1.7479    3.1526    0.0000 C   0  0  0  0  0  0  0  0  0  0  0  0
    0.3955    1.0901    0.0000 O   0  0  0  0  0  0  0  0  0  0  0  0
    3.1439   -1.2265    0.0000 C   0  0  0  0  0  0  0  0  0  0  0  0
    3.9285   -0.9715    0.0000 C   0  0  0  0  0  0  0  0  0  0  0  0
    4.5416   -1.5236    0.0000 C   0  0  0  0  0  0  0  0  0  0  0  0
    4.3701   -2.3305    0.0000 C   0  0  0  0  0  0  0  0  0  0  0  0
    3.5854   -2.5855    0.0000 C   0  0  0  0  0  0  0  0  0  0  0  0
    2.9723   -2.0335    0.0000 C   0  0  0  0  0  0  0  0  0  0  0  0
   -3.8914    1.9151    0.0000 Cl  0  0  0  0  0  0  0  0  0  0  0  0
  1  3  1  0
  1 21  1  0
  3  2  1  1
  3  4  1  0
  4  5  2  0
  4  6  1  0
  6  7  1  0
  6 10  1  0
  7  8  1  0
  8  9  1  0
  9 10  1  0
 10 11  1  1
 11 12  1  0
 11 20  2  0
 12 13  1  0
 13 14  1  0
 14 15  2  0
 14 19  1  0
 15 16  1  0
 16 17  2  0
 16 27  1  0
 17 18  1  0
 18 19  2  0
 21 22  2  0
 21 26  1  0
 22 23  1  0
 23 24  2  0
 24 25  1  0
 25 26  2  0
M  END
>  <DRUGBANK_ID>  (1) 
DB06919

>  <COMMON_NAME>  (1) 
D-phenylalanyl-N-(3-chlorobenzyl)-L-prolinamide

$$$$
