
     RDKit          2D

 24 27  0  0  1  0  0  0  0  0999 V2000
    1.3407   -0.0088    0.0000 C   0  0  0  0  0  0  0  0  0  0  0  0
    0.4967   -0.1994    0.0000 C   0  0  0  0  0  0  0  0  0  0  0  0
    0.0839    0.5527    0.0000 C   0  0  0  0  0  0  0  0  0  0  0  0
    0.8034    0.7658    0.0000 C   0  0  0  0  0  0  0  0  0  0  0  0
    1.5044    0.8654    0.0000 C   0  0  0  0  0  0  0  0  0  0  0  0
    1.2678    1.7375    0.0000 C   0  0  0  0  0  0  0  0  0  0  0  0
    0.4405    2.0032    0.0000 C   0  0  0  0  0  0  0  0  0  0  0  0
   -0.1511    1.3825    0.0000 C   0  0  0  0  0  0  0  0  0  0  0  0
   -0.7657    1.9328    0.0000 O   0  0  0  0  0  0  0  0  0  0  0  0
   -0.9515    1.1825    0.0000 C   0  0  0  0  0  0  0  0  0  0  0  0
   -1.5249    1.7757    0.0000 O   0  0  0  0  0  0  0  0  0  0  0  0
    2.3412    1.0190    0.0000 C   0  0  0  0  0  0  0  0  0  0  0  0
    1.7873    1.6304    0.0000 C   0  0  0  0  0  0  0  0  0  0  0  0
    2.5693    1.8119    0.0000 C   0  0  0  0  0  0  0  0  0  0  0  0
    3.3700    2.0107    0.0000 C   0  0  0  0  0  0  0  0  0  0  0  0
    3.9426    1.4167    0.0000 C   0  0  0  0  0  0  0  0  0  0  0  0
    4.7432    1.6155    0.0000 O   0  0  0  0  0  0  0  0  0  0  0  0
    3.7144    0.6238    0.0000 C   0  0  0  0  0  0  0  0  0  0  0  0
    4.5348    0.5368    0.0000 C   0  0  0  0  0  0  0  0  0  0  0  0
    3.7712   -0.1992    0.0000 C   0  0  0  0  0  0  0  0  0  0  0  0
    4.5123   -0.5616    0.0000 O   0  0  0  0  0  0  0  0  0  0  0  0
    2.9137    0.4250    0.0000 C   0  0  0  0  0  0  0  0  0  0  0  0
    2.6894   -0.3799    0.0000 C   0  0  0  0  0  0  0  0  0  0  0  0
    1.8998   -0.6078    0.0000 C   0  0  0  0  0  0  0  0  0  0  0  0
  1  2  1  1
  1 24  1  0
  3  2  1  1
  3  4  1  0
  3  8  1  0
  5  4  1  0
  5  1  1  0
  5  6  1  1
  5 12  1  0
  6  7  1  0
  8  7  1  0
  8  9  1  6
  8 10  1  0
 10 11  1  0
 12 13  1  6
 12 14  1  0
 12 22  1  0
 14 15  1  0
 16 15  1  0
 16 17  1  1
 18 16  1  0
 18 19  1  6
 18 20  1  0
 20 21  1  0
 22 18  1  0
 22 23  1  6
 23 24  1  0
M  END
>  <DRUGBANK_ID>  (1) 
DB17742

>  <COMMON_NAME>  (1) 
Aphidicolin

>  <CAS_NUMBER>  (1) 
38966-21-1

>  <UNII>  (1) 
192TJ6PP19

>  <SYNONYMS>  (1) 
(+)-aphidicolin; 8,11a-methano-11ah-cyclohepta(a)naphthalene-4,9-dimethanol, tetradecahydro-3,9-dihydroxy-4,11b-dimethyl-, (3r,4r,4ar,6as,8r,9r,11as,11bs)-; 9,15-cyclo-c,18-dinor-14,15-secoandrostane-4,17-dimethanol, 3,17-dihydroxy-4-methyl-, (3.alpha.,4.alpha.,5.alpha.,17.alpha.)-

$$$$
