
     RDKit          2D

  9  9  0  0  0  0  0  0  0  0999 V2000
    1.2551    0.0000    0.0000 N   0  0  0  0  0  0  0  0  0  0  0  0
   -1.2270   -0.0139    0.0000 N   0  0  0  0  0  0  0  0  0  0  0  0
    0.0210    0.7291    0.0000 N   0  0  0  0  0  0  0  0  0  0  0  0
   -0.8204    0.7011    0.0000 C   0  0  0  0  0  0  0  0  0  0  0  0
    0.0210   -0.7011    0.0000 C   0  0  0  0  0  0  0  0  0  0  0  0
   -0.8063   -0.7432    0.0000 C   0  0  0  0  0  0  0  0  0  0  0  0
    0.4276    0.0000    0.0000 C   0  0  0  0  0  0  0  0  0  0  0  0
   -1.2551    1.4023    0.0000 C   0  0  0  0  0  0  0  0  0  0  0  0
    0.4557   -1.4023    0.0000 C   0  0  0  0  0  0  0  0  0  0  0  0
  1  7  2  0
  2  4  1  0
  2  6  2  0
  3  4  2  0
  3  7  1  0
  4  8  1  0
  5  6  1  0
  5  7  1  0
  5  9  2  0
M  END
>  <DRUGBANK_ID>  (1) 
DB01788

>  <SECONDARY_ACCESSION_NUMBERS>  (1) 
EXPT01833

>  <COMMON_NAME>  (1) 
2-methyl-5-methylidenepyrimidin-4-imine

>  <CAS_NUMBER>  (1) 
918960-40-4

>  <SYNONYMS>  (1) 
2-Methyl-5-methylene-4(5H)-pyrimidinimine; 4-Imino-5-Methidyl-2-Methylpyrimidine

$$$$
