
     RDKit          2D

 27 28  0  0  0  0  0  0  0  0999 V2000
   -1.0716    5.4903    0.0000 Cl  0  0  0  0  0  0  0  0  0  0  0  0
   -1.0716    2.1903    0.0000 S   0  0  0  0  0  0  0  0  0  0  0  0
    1.0716   -1.5221    0.0000 O   0  0  0  0  0  0  0  0  0  0  0  0
   -1.0716    0.5403    0.0000 O   0  0  0  0  0  0  0  0  0  0  0  0
    0.3572    0.5403    0.0000 N   0  0  0  0  0  0  0  0  0  0  0  0
    1.7862   -0.2846    0.0000 N   0  0  0  0  0  0  0  0  0  0  0  0
   -0.3572   -3.9971    0.0000 N   0  0  0  0  0  0  0  0  0  0  0  0
   -1.0716   -5.2346    0.0000 N   0  0  0  0  0  0  0  0  0  0  0  0
   -1.7862   -3.9971    0.0000 N   0  0  0  0  0  0  0  0  0  0  0  0
    0.3572   -0.2846    0.0000 C   0  0  0  0  0  0  0  0  0  0  0  0
   -0.3572   -0.6971    0.0000 C   0  0  0  0  0  0  0  0  0  0  0  0
   -0.3572   -1.5221    0.0000 C   0  0  0  0  0  0  0  0  0  0  0  0
    1.0716   -0.6971    0.0000 C   0  0  0  0  0  0  0  0  0  0  0  0
    0.3572   -1.9346    0.0000 C   0  0  0  0  0  0  0  0  0  0  0  0
   -1.0716   -1.9346    0.0000 C   0  0  0  0  0  0  0  0  0  0  0  0
   -0.3572    0.9528    0.0000 C   0  0  0  0  0  0  0  0  0  0  0  0
    0.3572   -2.7596    0.0000 C   0  0  0  0  0  0  0  0  0  0  0  0
   -1.0716   -2.7596    0.0000 C   0  0  0  0  0  0  0  0  0  0  0  0
   -0.3572   -3.1721    0.0000 C   0  0  0  0  0  0  0  0  0  0  0  0
   -0.3572    1.7778    0.0000 C   0  0  0  0  0  0  0  0  0  0  0  0
   -1.0716    3.0153    0.0000 C   0  0  0  0  0  0  0  0  0  0  0  0
   -0.3572    3.4278    0.0000 C   0  0  0  0  0  0  0  0  0  0  0  0
   -1.7862    3.4278    0.0000 C   0  0  0  0  0  0  0  0  0  0  0  0
   -1.0716   -4.4096    0.0000 C   0  0  0  0  0  0  0  0  0  0  0  0
   -0.3572    4.2528    0.0000 C   0  0  0  0  0  0  0  0  0  0  0  0
   -1.7862    4.2528    0.0000 C   0  0  0  0  0  0  0  0  0  0  0  0
   -1.0716    4.6653    0.0000 C   0  0  0  0  0  0  0  0  0  0  0  0
  1 27  1  0
  2 20  1  0
  2 21  1  0
  3 13  2  0
  4 16  2  0
  5 16  1  0
  6 13  1  0
  7 19  1  0
  7 24  2  3
  8 24  1  0
  9 24  1  0
 10  5  1  0
 10 11  1  0
 10 13  1  0
 11 12  1  0
 12 14  2  0
 12 15  1  0
 14 17  1  0
 15 18  2  0
 16 20  1  0
 17 19  2  0
 18 19  1  0
 21 22  2  0
 21 23  1  0
 22 25  1  0
 23 26  2  0
 25 27  2  0
 26 27  1  0
M  END
>  <DRUGBANK_ID>  (1) 
DB07105

>  <COMMON_NAME>  (1) 
2-[2-(4-Chloro-Phenylsulfanyl)-Acetylamino]-3-(4-Guanidino-Phenyl)-Propionamide

$$$$
