
     RDKit          2D

  6  4  0  0  0  0  0  0  0  0999 V2000
    0.8250    0.0000    0.0000 O   0  0  0  0  0  0  0  0  0  0  0  0
    1.6500    0.0000    0.0000 S   0  0  0  0  0  0  0  0  0  0  0  0
    2.4750    0.0000    0.0000 O   0  0  0  0  0  0  0  0  0  0  0  0
    1.6500    0.8250    0.0000 O   0  0  0  0  0  0  0  0  0  0  0  0
    1.6500   -0.8250    0.0000 O   0  0  0  0  0  0  0  0  0  0  0  0
    0.0000    0.0000    0.0000 Cr  0  0  0  0  0 15  0  0  0  0  0  0
  1  2  1  0
  2  3  2  0
  2  4  2  0
  2  5  1  0
M  CHG  3   1  -1   5  -1   6   2
M  END
>  <DRUGBANK_ID>  (1) 
DB14530

>  <SECONDARY_ACCESSION_NUMBERS>  (1) 
DBSALT002355

>  <COMMON_NAME>  (1) 
Chromous sulfate

>  <CAS_NUMBER>  (1) 
13825-86-0

>  <UNII>  (1) 
TR64E2WM7Z

$$$$
