
     RDKit          2D

 23 24  0  0  0  0  0  0  0  0999 V2000
    1.4289    0.8250    0.0000 C   0  0  0  0  0  0  0  0  0  0  0  0
    2.1434    1.2375    0.0000 C   0  0  0  0  0  0  0  0  0  0  0  0
    2.8579    2.4750    0.0000 C   0  0  0  0  0  0  0  0  0  0  0  0
    2.8579    3.3000    0.0000 C   0  0  0  0  0  0  0  0  0  0  0  0
    1.4289    2.4750    0.0000 C   0  0  0  0  0  0  0  0  0  0  0  0
    0.7145    3.7125    0.0000 C   0  0  0  0  0  0  0  0  0  0  0  0
    4.2868    5.7750    0.0000 C   0  0  0  0  0  0  0  0  0  0  0  0
    2.1434    2.0625    0.0000 C   0  0  0  0  0  0  0  0  0  0  0  0
    1.4289    3.3000    0.0000 C   0  0  0  0  0  0  0  0  0  0  0  0
    3.5724    6.1875    0.0000 C   0  0  0  0  0  0  0  0  0  0  0  0
    4.2868    4.9500    0.0000 C   0  0  0  0  0  0  0  0  0  0  0  0
    2.1434    3.7125    0.0000 C   0  0  0  0  0  0  0  0  0  0  0  0
   -0.0000    3.3000    0.0000 C   0  0  0  0  0  0  0  0  0  0  0  0
    2.8579    5.7750    0.0000 C   0  0  0  0  0  0  0  0  0  0  0  0
    3.5724    4.5375    0.0000 C   0  0  0  0  0  0  0  0  0  0  0  0
    2.8579    4.9500    0.0000 C   0  0  0  0  0  0  0  0  0  0  0  0
    3.5724    7.0125    0.0000 F   0  0  0  0  0  0  0  0  0  0  0  0
    5.0013    4.5375    0.0000 F   0  0  0  0  0  0  0  0  0  0  0  0
    2.1434    6.1875    0.0000 F   0  0  0  0  0  0  0  0  0  0  0  0
    3.5724    3.7125    0.0000 F   0  0  0  0  0  0  0  0  0  0  0  0
    2.1434    4.5375    0.0000 N   0  0  0  0  0  0  0  0  0  0  0  0
    0.0000    2.4750    0.0000 O   0  0  0  0  0  0  0  0  0  0  0  0
   -0.7145    3.7125    0.0000 O   0  0  0  0  0  0  0  0  0  0  0  0
  2  1  1  0
  4  3  2  0
  8  2  1  0
  8  3  1  0
  8  5  2  0
  9  5  1  0
  9  6  1  0
 10  7  2  0
 11  7  1  0
 12  4  1  0
 12  9  2  0
 13  6  1  0
 14 10  1  0
 15 11  2  0
 16 14  2  0
 16 15  1  0
 17 10  1  0
 18 11  1  0
 19 14  1  0
 20 15  1  0
 21 12  1  0
 21 16  1  0
 22 13  2  0
 23 13  1  0
M  END
>  <DRUGBANK_ID>  (1) 
DB11455

>  <COMMON_NAME>  (1) 
Robenacoxib

>  <CAS_NUMBER>  (1) 
220991-32-2

>  <UNII>  (1) 
Z588009C7C

>  <SYNONYMS>  (1) 
Rob√©nacoxib; Robenacoxib; Robenacoxibum

$$$$
