N5I
     RDKit          2D

 24 26  0  0  0  0  0  0  0  0999 V2000
   -1.9978   -2.5285    0.0000 O   0  0  0  0  0  0  0  0  0  0  0  0
    3.8859    3.9288    0.0000 O   0  0  0  0  0  0  0  0  0  0  0  0
    3.8859    3.1038    0.0000 N   0  0  0  0  0  0  0  0  0  0  0  0
    4.6004    2.6913    0.0000 O   0  0  0  0  0  0  0  0  0  0  0  0
    3.1714    2.6913    0.0000 C   0  0  0  0  0  0  0  0  0  0  0  0
    2.4570    3.1038    0.0000 C   0  0  0  0  0  0  0  0  0  0  0  0
    1.7425    2.6913    0.0000 C   0  0  0  0  0  0  0  0  0  0  0  0
    3.1714    1.8663    0.0000 C   0  0  0  0  0  0  0  0  0  0  0  0
    2.4570    1.4538    0.0000 C   0  0  0  0  0  0  0  0  0  0  0  0
    1.7425    1.8663    0.0000 C   0  0  0  0  0  0  0  0  0  0  0  0
    0.9579    1.6113    0.0000 N   0  0  0  0  0  0  0  0  0  0  0  0
    0.4729    2.2788    0.0000 C   0  0  0  0  0  0  0  0  0  0  0  0
    0.9579    2.9462    0.0000 C   0  0  0  0  0  0  0  0  0  0  0  0
    0.7029    0.8267    0.0000 C   0  0  0  0  0  0  0  0  0  0  0  0
   -0.0817    0.5718    0.0000 O   0  0  0  0  0  0  0  0  0  0  0  0
   -0.0817   -0.2532    0.0000 C   0  0  0  0  0  0  0  0  0  0  0  0
    0.7029   -0.5082    0.0000 C   0  0  0  0  0  0  0  0  0  0  0  0
    0.9579   -1.2928    0.0000 O   0  0  0  0  0  0  0  0  0  0  0  0
    1.1878    0.1593    0.0000 C   0  0  0  0  0  0  0  0  0  0  0  0
   -0.7491   -0.7382    0.0000 C   0  0  0  0  0  0  0  0  0  0  0  0
   -0.6629   -1.5586    0.0000 O   0  0  0  0  0  0  0  0  0  0  0  0
   -1.3303   -2.0436    0.0000 P   0  0  0  0  0  0  0  0  0  0  0  0
   -1.8153   -1.3761    0.0000 O   0  0  0  0  0  0  0  0  0  0  0  0
   -0.8454   -2.7110    0.0000 O   0  0  0  0  0  0  0  0  0  0  0  0
  1 22  1  0
  2  3  2  0
  3  4  1  0
  3  5  1  0
  5  8  2  0
  5  6  1  0
  6  7  2  0
  7 10  1  0
  7 13  1  0
  8  9  1  0
  9 10  2  0
 10 11  1  0
 11 12  1  0
 12 13  2  0
 14 11  1  1
 14 19  1  0
 14 15  1  0
 15 16  1  0
 16 17  1  0
 16 20  1  1
 17 18  1  6
 17 19  1  0
 20 21  1  0
 21 22  1  0
 22 24  2  0
 22 23  1  0
M  CHG  2   3   1   4  -1
M  END
>  <DRUGBANK_ID>  (1) 
DB08245

>  <COMMON_NAME>  (1) 
1-(2-DEOXY-5-O-PHOSPHONO-BETA-D-ERYTHRO-PENTOFURANOSYL)-5-NITRO-1H-INDOLE

$$$$
