PMA
     RDKit          2D

 18 18  0  0  0  0  0  0  0  0999 V2000
    0.6434    0.3118    0.0000 C   0  0  0  0  0  0  0  0  0  0  0  0
    0.6434   -0.5132    0.0000 C   0  0  0  0  0  0  0  0  0  0  0  0
   -0.0711    0.7243    0.0000 C   0  0  0  0  0  0  0  0  0  0  0  0
   -0.7855   -0.5132    0.0000 C   0  0  0  0  0  0  0  0  0  0  0  0
   -0.7855    0.3118    0.0000 C   0  0  0  0  0  0  0  0  0  0  0  0
   -0.0711   -0.9257    0.0000 C   0  0  0  0  0  0  0  0  0  0  0  0
   -1.5000   -0.9257    0.0000 C   0  0  0  0  0  0  0  0  0  0  0  0
   -1.5000    0.7243    0.0000 C   0  0  0  0  0  0  0  0  0  0  0  0
    1.3579    0.7243    0.0000 C   0  0  0  0  0  0  0  0  0  0  0  0
    1.3579   -0.9257    0.0000 C   0  0  0  0  0  0  0  0  0  0  0  0
    2.0723    0.3118    0.0000 O   0  0  0  0  0  0  0  0  0  0  0  0
    1.3579    1.5493    0.0000 O   0  0  0  0  0  0  0  0  0  0  0  0
    1.3579   -1.7507    0.0000 O   0  0  0  0  0  0  0  0  0  0  0  0
    2.0723   -0.5132    0.0000 O   0  0  0  0  0  0  0  0  0  0  0  0
   -1.5000   -1.7507    0.0000 O   0  0  0  0  0  0  0  0  0  0  0  0
   -2.2145   -0.5132    0.0000 O   0  0  0  0  0  0  0  0  0  0  0  0
   -2.2145    0.3118    0.0000 O   0  0  0  0  0  0  0  0  0  0  0  0
   -1.5000    1.5493    0.0000 O   0  0  0  0  0  0  0  0  0  0  0  0
  1  2  2  0
  1  3  1  0
  1  9  1  0
  2  6  1  0
  2 10  1  0
  3  5  2  0
  4  5  1  0
  4  6  2  0
  4  7  1  0
  5  8  1  0
  7 15  2  0
  7 16  1  0
  8 17  2  0
  8 18  1  0
  9 11  2  0
  9 12  1  0
 10 13  2  0
 10 14  1  0
M  END
>  <DRUGBANK_ID>  (1) 
DB02749

>  <SECONDARY_ACCESSION_NUMBERS>  (1) 
EXPT02613

>  <COMMON_NAME>  (1) 
Pyromellitic Acid

>  <CAS_NUMBER>  (1) 
89-05-4

>  <UNII>  (1) 
D9UXG2U6ZU

$$$$
