
     RDKit          2D

 10  9  0  0  0  0  0  0  0  0999 V2000
    1.0461    1.4289    0.0000 O   0  0  0  0  0  0  0  0  0  0  0  0
    1.7605    1.8414    0.0000 C   0  0  0  0  0  0  0  0  0  0  0  0
    1.7605    2.6664    0.0000 O   0  0  0  0  0  0  0  0  0  0  0  0
    2.4750    1.4289    0.0000 C   0  0  0  0  0  0  0  0  0  0  0  0
    3.1895    1.8414    0.0000 C   0  0  0  0  0  0  0  0  0  0  0  0
    3.9039    1.4289    0.0000 C   0  0  0  0  0  0  0  0  0  0  0  0
    4.6184    1.8414    0.0000 C   0  0  0  0  0  0  0  0  0  0  0  0
    5.3329    1.4289    0.0000 C   0  0  0  0  0  0  0  0  0  0  0  0
    6.0474    1.8414    0.0000 O   0  0  0  0  0  0  0  0  0  0  0  0
    5.3329    0.6039    0.0000 O   0  0  0  0  0  0  0  0  0  0  0  0
  1  2  1  0
  2  3  2  0
  2  4  1  0
  4  5  1  0
  5  6  1  0
  6  7  1  0
  7  8  1  0
  8  9  1  0
  8 10  2  0
M  CHG  2   1  -1   9  -1
M  END
>  <DRUGBANK_ID>  (1) 
DB16084

>  <COMMON_NAME>  (1) 
Iron (III) oxide adipate

>  <CAS_NUMBER>  (1) 
764-65-8

>  <UNII>  (1) 
U3YC62H084

>  <SYNONYMS>  (1) 
Adipate; Adipate dianion; Adipate ion; Adipate(2-); Adipic acid ion (2-); Hexanedioate dianion; Hexanedioic acid, ion(2-)

$$$$
