
     RDKit          2D

 31 33  0  0  0  0  0  0  0  0999 V2000
   -0.5361   -0.3299    0.0000 C   0  0  0  0  0  0  0  0  0  0  0  0
   -0.5361    0.4537    0.0000 C   0  0  0  0  0  0  0  0  0  0  0  0
    0.1649    0.9075    0.0000 C   0  0  0  0  0  0  0  0  0  0  0  0
    0.9075    0.4537    0.0000 C   0  0  0  0  0  0  0  0  0  0  0  0
    0.9075   -0.3299    0.0000 C   0  0  0  0  0  0  0  0  0  0  0  0
    0.1649   -0.7425    0.0000 C   0  0  0  0  0  0  0  0  0  0  0  0
   -1.2375    0.9075    0.0000 C   0  0  0  0  0  0  0  0  0  0  0  0
   -1.9799    0.4537    0.0000 C   0  0  0  0  0  0  0  0  0  0  0  0
   -2.6812    0.9075    0.0000 C   0  0  0  0  0  0  0  0  0  0  0  0
   -3.4649    0.6599    0.0000 C   0  0  0  0  0  0  0  0  0  0  0  0
   -3.9598    1.3199    0.0000 C   0  0  0  0  0  0  0  0  0  0  0  0
   -3.4649    1.9799    0.0000 N   0  0  0  0  0  0  0  0  0  0  0  0
   -2.6812    1.7325    0.0000 C   0  0  0  0  0  0  0  0  0  0  0  0
   -3.8361   -0.1238    0.0000 C   0  0  0  0  0  0  0  0  0  0  0  0
   -4.6611   -0.1235    0.0000 N   0  0  0  0  0  0  0  0  0  0  0  0
   -5.0736    0.5361    0.0000 C   0  0  0  0  0  0  0  0  0  0  0  0
   -4.7848    1.2786    0.0000 N   0  0  0  0  0  0  0  0  0  0  0  0
   -5.8986    0.4949    0.0000 N   0  0  0  0  0  0  0  0  0  0  0  0
    1.6086   -0.7425    0.0000 C   0  0  0  0  0  0  0  0  0  0  0  0
    2.3512   -0.3299    0.0000 N   0  0  0  0  0  0  0  0  0  0  0  0
    3.0524   -0.7425    0.0000 C   0  0  0  0  0  0  0  0  0  0  0  0
    3.7537   -0.3299    0.0000 C   0  0  0  0  0  0  0  0  0  0  0  0
    4.4961   -0.7425    0.0000 C   0  0  0  0  0  0  0  0  0  0  0  0
    5.1975   -0.3299    0.0000 C   0  0  0  0  0  0  0  0  0  0  0  0
    5.8986   -0.7425    0.0000 O   0  0  0  0  0  0  0  0  0  0  0  0
    1.6086   -1.5675    0.0000 O   0  0  0  0  0  0  0  0  0  0  0  0
    3.0524   -1.5675    0.0000 C   0  0  0  0  0  0  0  0  0  0  0  0
    3.7537   -1.9799    0.0000 O   0  0  0  0  0  0  0  0  0  0  0  0
    2.3512   -1.9799    0.0000 O   0  0  0  0  0  0  0  0  0  0  0  0
    5.1975    0.4537    0.0000 O   0  0  0  0  0  0  0  0  0  0  0  0
   -3.3824   -0.7425    0.0000 O   0  0  0  0  0  0  0  0  0  0  0  0
  1  2  2  0
  1  6  1  0
  2  3  1  0
  2  7  1  0
  3  4  2  0
  4  5  1  0
  5  6  2  0
  5 19  1  0
  7  8  1  0
  8  9  1  0
  9 10  1  0
  9 13  2  0
 10 11  2  0
 10 14  1  0
 11 12  1  0
 11 17  1  0
 12 13  1  0
 14 15  1  0
 14 31  2  0
 15 16  2  0
 16 17  1  0
 16 18  1  0
 19 20  1  0
 19 26  2  0
 20 21  1  0
 21 22  1  1
 21 27  1  0
 22 23  1  0
 23 24  1  0
 24 25  1  0
 24 30  2  0
 27 28  1  0
 27 29  2  0
M  END
>  <DRUGBANK_ID>  (1) 
DB00642

>  <SECONDARY_ACCESSION_NUMBERS>  (1) 
APRD00573; EXPT02075

>  <COMMON_NAME>  (1) 
Pemetrexed

>  <CAS_NUMBER>  (1) 
137281-23-3

>  <UNII>  (1) 
04Q9AIZ7NO

>  <SYNONYMS>  (1) 
Pemetrexed

$$$$
