
     RDKit          2D

 21 22  0  0  0  0  0  0  0  0999 V2000
   -1.0087   -0.0504    0.0000 C   0  0  0  0  0  0  0  0  0  0  0  0
   -0.2963   -0.4665    0.0000 N   0  0  0  0  0  0  0  0  0  0  0  0
    0.4160   -0.0504    0.0000 C   0  0  0  0  0  0  0  0  0  0  0  0
    0.5359    0.7628    0.0000 N   0  0  0  0  0  0  0  0  0  0  0  0
    1.1600   -0.4161    0.0000 S   0  0  0  0  0  0  0  0  0  0  0  0
    1.3428    0.9078    0.0000 C   0  0  0  0  0  0  0  0  0  0  0  0
    1.5572    1.7022    0.0000 O   0  0  0  0  0  0  0  0  0  0  0  0
    1.7338    0.1765    0.0000 C   0  0  0  0  0  0  0  0  0  0  0  0
    2.3137   -0.4034    0.0000 C   0  0  0  0  0  0  0  0  0  0  0  0
   -1.7211   -0.4665    0.0000 C   0  0  0  0  0  0  0  0  0  0  0  0
   -2.4398   -0.0504    0.0000 C   0  0  0  0  0  0  0  0  0  0  0  0
   -3.1523   -0.4665    0.0000 C   0  0  0  0  0  0  0  0  0  0  0  0
   -3.1523   -1.2924    0.0000 C   0  0  0  0  0  0  0  0  0  0  0  0
   -2.4398   -1.7022    0.0000 C   0  0  0  0  0  0  0  0  0  0  0  0
   -1.7211   -1.2924    0.0000 C   0  0  0  0  0  0  0  0  0  0  0  0
   -1.0087    0.7691    0.0000 C   0  0  0  0  0  0  0  0  0  0  0  0
   -2.4398    0.7691    0.0000 F   0  0  0  0  0  0  0  0  0  0  0  0
    2.3958    0.6683    0.0000 C   0  0  0  0  0  0  0  0  0  0  0  0
    3.1523    0.3404    0.0000 F   0  0  0  0  0  0  0  0  0  0  0  0
    2.3012    1.4878    0.0000 F   0  0  0  0  0  0  0  0  0  0  0  0
    3.1081    1.0843    0.0000 F   0  0  0  0  0  0  0  0  0  0  0  0
  1 10  1  0
  1  2  1  0
  1 16  1  6
  2  3  1  0
  3  4  2  0
  3  5  1  0
  4  6  1  0
  5  8  1  0
  6  8  1  0
  6  7  2  0
  8  9  1  6
  8 18  1  0
 10 15  1  0
 10 11  2  0
 11 12  1  0
 11 17  1  0
 12 13  2  0
 13 14  1  0
 14 15  2  0
 18 20  1  0
 18 19  1  0
 18 21  1  0
M  END
>  <DRUGBANK_ID>  (1) 
DB07310

>  <COMMON_NAME>  (1) 
(5S)-2-{[(1S)-1-(2-fluorophenyl)ethyl]amino}-5-methyl-5-(trifluoromethyl)-1,3-thiazol-4(5H)-one

$$$$
