TL2
     RDKit          2D

 28 31  0  0  0  0  0  0  0  0999 V2000
   -4.3496   -3.1101    0.0000 N   0  0  0  0  0  0  0  0  0  0  0  0
   -4.0946   -2.3255    0.0000 C   0  0  0  0  0  0  0  0  0  0  0  0
   -3.2877   -2.1540    0.0000 C   0  0  0  0  0  0  0  0  0  0  0  0
   -3.0327   -1.3694    0.0000 C   0  0  0  0  0  0  0  0  0  0  0  0
   -2.2258   -1.1978    0.0000 C   0  0  0  0  0  0  0  0  0  0  0  0
   -2.7356   -2.7671    0.0000 C   0  0  0  0  0  0  0  0  0  0  0  0
   -1.9287   -2.5956    0.0000 C   0  0  0  0  0  0  0  0  0  0  0  0
   -1.6737   -1.8109    0.0000 C   0  0  0  0  0  0  0  0  0  0  0  0
   -0.8668   -1.6394    0.0000 O   0  0  0  0  0  0  0  0  0  0  0  0
   -0.6118   -0.8548    0.0000 C   0  0  0  0  0  0  0  0  0  0  0  0
   -1.0967   -0.1873    0.0000 C   0  0  0  0  0  0  0  0  0  0  0  0
   -0.6118    0.4801    0.0000 O   0  0  0  0  0  0  0  0  0  0  0  0
    0.1728   -0.5998    0.0000 C   0  0  0  0  0  0  0  0  0  0  0  0
    0.1728    0.2252    0.0000 C   0  0  0  0  0  0  0  0  0  0  0  0
    0.9574    0.4801    0.0000 C   0  0  0  0  0  0  0  0  0  0  0  0
    1.2124    1.2647    0.0000 O   0  0  0  0  0  0  0  0  0  0  0  0
    0.9574   -0.8548    0.0000 O   0  0  0  0  0  0  0  0  0  0  0  0
    2.5714    0.8231    0.0000 C   0  0  0  0  0  0  0  0  0  0  0  0
    1.4423   -0.1873    0.0000 C   0  0  0  0  0  0  0  0  0  0  0  0
    2.0193    1.4362    0.0000 C   0  0  0  0  0  0  0  0  0  0  0  0
    2.2743    2.2209    0.0000 C   0  0  0  0  0  0  0  0  0  0  0  0
    3.3362    3.1770    0.0000 C   0  0  0  0  0  0  0  0  0  0  0  0
    2.7841    3.7901    0.0000 N   0  0  0  0  0  0  0  0  0  0  0  0
    4.1432    3.3485    0.0000 N   0  0  0  0  0  0  0  0  0  0  0  0
    3.3783    0.9947    0.0000 C   0  0  0  0  0  0  0  0  0  0  0  0
    3.6333    1.7793    0.0000 C   0  0  0  0  0  0  0  0  0  0  0  0
    3.0812    2.3924    0.0000 C   0  0  0  0  0  0  0  0  0  0  0  0
   -4.6467   -1.7124    0.0000 N   0  0  0  0  0  0  0  0  0  0  0  0
  1  2  2  0
  2  3  1  0
  2 28  1  0
  3  4  2  0
  3  6  1  0
  4  5  1  0
  5  8  2  0
  6  7  2  0
  7  8  1  0
  8  9  1  0
 10  9  1  1
 10 11  1  0
 10 13  1  0
 11 12  1  0
 14 12  1  6
 13 14  1  0
 13 17  1  6
 14 15  1  0
 15 16  1  6
 15 19  1  0
 16 20  1  0
 17 19  1  0
 18 20  2  0
 18 25  1  0
 20 21  1  0
 21 27  2  0
 22 23  2  0
 22 24  1  0
 22 27  1  0
 25 26  2  0
 26 27  1  0
M  END
>  <DRUGBANK_ID>  (1) 
DB04791

>  <COMMON_NAME>  (1) 
2-O-(4'-AMIDINOPHENYL)-5-O-(3''-AMIDINOPHENYL)-1,4:3,6-DIANHYDRO-D-SORBITOL

$$$$
