859
     RDKit          2D

 24 26  0  0  0  0  0  0  0  0999 V2000
    2.8620    0.2731    0.0000 C   0  0  0  0  0  0  0  0  0  0  0  0
    2.1476   -0.1394    0.0000 N   0  0  0  0  0  0  0  0  0  0  0  0
    2.1476   -0.9644    0.0000 C   0  0  0  0  0  0  0  0  0  0  0  0
    2.8620   -1.3769    0.0000 C   0  0  0  0  0  0  0  0  0  0  0  0
    3.5765   -0.9644    0.0000 C   0  0  0  0  0  0  0  0  0  0  0  0
    3.5765   -0.1394    0.0000 N   0  0  0  0  0  0  0  0  0  0  0  0
    1.4331   -1.3769    0.0000 N   0  0  0  0  0  0  0  0  0  0  0  0
    1.4331   -2.2019    0.0000 C   0  0  0  0  0  0  0  0  0  0  0  0
    0.7186   -2.6144    0.0000 C   0  0  0  0  0  0  0  0  0  0  0  0
    0.7186   -3.4394    0.0000 C   0  0  0  0  0  0  0  0  0  0  0  0
    1.4331   -3.8519    0.0000 C   0  0  0  0  0  0  0  0  0  0  0  0
    2.1476   -3.4394    0.0000 C   0  0  0  0  0  0  0  0  0  0  0  0
    2.1476   -2.6144    0.0000 C   0  0  0  0  0  0  0  0  0  0  0  0
    2.8620    1.0981    0.0000 N   0  0  0  0  0  0  0  0  0  0  0  0
    2.1476    1.5106    0.0000 C   0  0  0  0  0  0  0  0  0  0  0  0
    2.1476    2.3356    0.0000 C   0  0  0  0  0  0  0  0  0  0  0  0
    1.4331    2.7481    0.0000 C   0  0  0  0  0  0  0  0  0  0  0  0
    0.7186    2.3356    0.0000 C   0  0  0  0  0  0  0  0  0  0  0  0
    0.7186    1.5106    0.0000 C   0  0  0  0  0  0  0  0  0  0  0  0
    1.4331    1.0981    0.0000 C   0  0  0  0  0  0  0  0  0  0  0  0
    0.0042    1.0981    0.0000 O   0  0  0  0  0  0  0  0  0  0  0  0
    0.0042   -2.2019    0.0000 C   0  0  0  0  0  0  0  0  0  0  0  0
    0.0042   -1.3769    0.0000 N   0  0  0  0  0  0  0  0  0  0  0  0
   -0.7103   -2.6144    0.0000 O   0  0  0  0  0  0  0  0  0  0  0  0
  1  6  1  0
  1  2  2  0
  1 14  1  0
  2  3  1  0
  3  4  2  0
  3  7  1  0
  4  5  1  0
  5  6  2  0
  7  8  1  0
  8  9  2  0
  8 13  1  0
  9 22  1  0
  9 10  1  0
 10 11  2  0
 11 12  1  0
 12 13  2  0
 14 15  1  0
 15 20  1  0
 15 16  2  0
 16 17  1  0
 17 18  2  0
 18 19  1  0
 19 20  2  0
 19 21  1  0
 22 23  1  0
 22 24  2  0
M  END
>  <DRUGBANK_ID>  (1) 
DB07268

>  <COMMON_NAME>  (1) 
2-({2-[(3-HYDROXYPHENYL)AMINO]PYRIMIDIN-4-YL}AMINO)BENZAMIDE

>  <UNII>  (1) 
MU563H6ION

$$$$
