
     RDKit          2D

 33 33  0  0  0  0  0  0  0  0999 V2000
   -1.7871   -0.4114    0.0000 C   0  0  0  0  0  0  0  0  0  0  0  0
   -1.0727    0.0000    0.0000 C   0  0  0  0  0  0  0  0  0  0  0  0
   -0.3562   -0.4114    0.0000 C   0  0  0  0  0  0  0  0  0  0  0  0
    0.3581    0.0000    0.0000 O   0  0  0  0  0  0  0  0  0  0  0  0
   -1.0727    0.8250    0.0000 O   0  0  0  0  0  0  0  0  0  0  0  0
   -1.7871   -1.2364    0.0000 O   0  0  0  0  0  0  0  0  0  0  0  0
   -1.0727   -1.6499    0.0000 C   0  0  0  0  0  0  0  0  0  0  0  0
   -2.5015    0.0000    0.0000 C   0  0  0  0  0  0  0  0  0  0  0  0
   -3.2139   -0.4114    0.0000 C   0  0  0  0  0  0  0  0  0  0  0  0
   -3.2139   -1.2364    0.0000 N   0  0  0  0  0  0  0  0  0  0  0  0
   -3.9285   -1.6499    0.0000 C   0  0  0  0  0  0  0  0  0  0  0  0
   -4.6430   -1.2364    0.0000 C   0  0  0  0  0  0  0  0  0  0  0  0
   -3.9285   -2.4749    0.0000 O   0  0  0  0  0  0  0  0  0  0  0  0
   -3.9306    0.0000    0.0000 C   0  0  0  0  0  0  0  0  0  0  0  0
   -4.6450   -0.4114    0.0000 N   0  0  0  0  0  0  0  0  0  0  0  0
   -5.3594    0.0000    0.0000 C   0  0  0  0  0  0  0  0  0  0  0  0
   -5.3594    0.8250    0.0000 N   0  0  0  0  0  0  0  0  0  0  0  0
   -6.0738   -0.4114    0.0000 N   0  0  0  0  0  0  0  0  0  0  0  0
   -3.9306    0.8250    0.0000 C   0  0  0  0  0  0  0  0  0  0  0  0
   -3.2139    1.2385    0.0000 C   0  0  0  0  0  0  0  0  0  0  0  0
   -2.5015    0.8250    0.0000 O   0  0  0  0  0  0  0  0  0  0  0  0
   -3.2139    2.0635    0.0000 C   0  0  0  0  0  0  0  0  0  0  0  0
   -3.9285    2.4749    0.0000 O   0  0  0  0  0  0  0  0  0  0  0  0
   -2.4995    2.4749    0.0000 O   0  0  0  0  0  0  0  0  0  0  0  0
    1.0722   -0.4132    0.0000 C   0  0  0  0  0  0  0  0  0  0  0  0
    1.7870   -0.0015    0.0000 C   0  0  0  0  0  0  0  0  0  0  0  0
    1.0713   -1.2382    0.0000 O   0  0  0  0  0  0  0  0  0  0  0  0
    2.5010   -0.4147    0.0000 C   0  0  0  0  0  0  0  0  0  0  0  0
    3.2160   -0.0030    0.0000 C   0  0  0  0  0  0  0  0  0  0  0  0
    3.9300   -0.4163    0.0000 C   0  0  0  0  0  0  0  0  0  0  0  0
    4.6450   -0.0045    0.0000 C   0  0  0  0  0  0  0  0  0  0  0  0
    5.3589   -0.4178    0.0000 C   0  0  0  0  0  0  0  0  0  0  0  0
    6.0738   -0.0061    0.0000 C   0  0  0  0  0  0  0  0  0  0  0  0
  1  2  1  0
  1  6  1  1
  2  3  1  0
  2  5  1  6
  3  4  1  0
  4 25  1  0
  6  7  1  0
  8  1  1  0
  8 21  1  1
  9  8  1  0
  9 10  1  6
 10 11  1  0
 11 12  1  0
 11 13  2  0
 14  9  1  0
 14 15  1  1
 14 19  1  0
 15 16  1  0
 16 17  2  0
 16 18  1  0
 20 19  2  0
 20 22  1  0
 21 20  1  0
 22 23  1  0
 22 24  2  0
 25 26  1  0
 25 27  2  0
 26 28  1  0
 28 29  1  0
 29 30  1  0
 30 31  1  0
 31 32  1  0
 32 33  1  0
M  END
>  <DRUGBANK_ID>  (1) 
DB11888

>  <COMMON_NAME>  (1) 
Laninamivir octanoate

>  <CAS_NUMBER>  (1) 
203120-46-1

>  <UNII>  (1) 
E026V904RL

$$$$
