
     RDKit          2D

  1  0  0  0  0  0  0  0  0  0999 V2000
    0.0000    0.0000    0.0000 Ag  0  0  0  0  0 15  0  0  0  0  0  0
M  END
>  <DRUGBANK_ID>  (1) 
DB12965

>  <COMMON_NAME>  (1) 
Silver

>  <CAS_NUMBER>  (1) 
7440-22-4

>  <UNII>  (1) 
3M4G523W1G

>  <SYNONYMS>  (1) 
Argentum metallicum; Colloidal silver; Nanosilver; Silver colloidal; Silver nanoparticles; Silver, colloidal

$$$$
