
     RDKit          2D

 27 30  0  0  0  0  0  0  0  0999 V2000
    0.0000   -3.1918    0.0000 S   0  0  0  0  0  0  0  0  0  0  0  0
   -2.3522    4.0474    0.0000 F   0  0  0  0  0  0  0  0  0  0  0  0
    0.7145   -3.6044    0.0000 O   0  0  0  0  0  0  0  0  0  0  0  0
    0.6674    0.5929    0.0000 N   0  0  0  0  0  0  0  0  0  0  0  0
   -0.6673    0.5929    0.0000 N   0  0  0  0  0  0  0  0  0  0  0  0
    1.8672    3.3800    0.0000 N   0  0  0  0  0  0  0  0  0  0  0  0
    0.4124    1.3776    0.0000 C   0  0  0  0  0  0  0  0  0  0  0  0
   -0.4124    1.3776    0.0000 C   0  0  0  0  0  0  0  0  0  0  0  0
    0.0000    0.1080    0.0000 C   0  0  0  0  0  0  0  0  0  0  0  0
    0.0000   -0.7168    0.0000 C   0  0  0  0  0  0  0  0  0  0  0  0
   -0.8973    2.0451    0.0000 C   0  0  0  0  0  0  0  0  0  0  0  0
    0.8974    2.0451    0.0000 C   0  0  0  0  0  0  0  0  0  0  0  0
    0.7145   -1.1293    0.0000 C   0  0  0  0  0  0  0  0  0  0  0  0
   -0.7145   -1.1293    0.0000 C   0  0  0  0  0  0  0  0  0  0  0  0
   -1.7178    1.9588    0.0000 C   0  0  0  0  0  0  0  0  0  0  0  0
   -0.5617    2.7987    0.0000 C   0  0  0  0  0  0  0  0  0  0  0  0
    0.0000   -2.3668    0.0000 C   0  0  0  0  0  0  0  0  0  0  0  0
    0.7145   -1.9543    0.0000 C   0  0  0  0  0  0  0  0  0  0  0  0
   -0.7145   -1.9543    0.0000 C   0  0  0  0  0  0  0  0  0  0  0  0
    0.5618    2.7987    0.0000 C   0  0  0  0  0  0  0  0  0  0  0  0
    1.7178    1.9588    0.0000 C   0  0  0  0  0  0  0  0  0  0  0  0
   -2.2028    2.6263    0.0000 C   0  0  0  0  0  0  0  0  0  0  0  0
   -1.0467    3.4663    0.0000 C   0  0  0  0  0  0  0  0  0  0  0  0
   -1.8672    3.3800    0.0000 C   0  0  0  0  0  0  0  0  0  0  0  0
    1.0468    3.4663    0.0000 C   0  0  0  0  0  0  0  0  0  0  0  0
    2.2028    2.6263    0.0000 C   0  0  0  0  0  0  0  0  0  0  0  0
   -0.7145   -3.6044    0.0000 C   0  0  0  0  0  0  0  0  0  0  0  0
  1  3  2  0
  1 17  1  0
  1 27  1  0
  2 24  1  0
  4  7  1  0
  4  9  1  0
  5  8  1  0
  5  9  2  0
  6 25  2  0
  6 26  1  0
  7  8  2  0
  7 12  1  0
  8 11  1  0
  9 10  1  0
 10 13  2  0
 10 14  1  0
 11 15  2  0
 11 16  1  0
 12 20  2  0
 12 21  1  0
 13 18  1  0
 14 19  2  0
 15 22  1  0
 16 23  2  0
 17 18  2  0
 17 19  1  0
 20 25  1  0
 21 26  2  0
 22 24  2  0
 23 24  1  0
M  END
>  <DRUGBANK_ID>  (1) 
DB08521

>  <COMMON_NAME>  (1) 
4-[4-(4-Fluorophenyl)-2-[4-[(R)-methylsulfinyl]phenyl]-1H-imidazol-5-yl]pyridine

>  <CAS_NUMBER>  (1) 
652162-77-1

>  <UNII>  (1) 
WS78QR6DSV

$$$$
