
     RDKit          2D

 42 46  0  0  0  0  0  0  0  0999 V2000
   -4.5824    1.7689    0.0000 C   0  0  0  0  0  0  0  0  0  0  0  0
   -4.1766    2.4872    0.0000 N   0  0  0  0  0  0  0  0  0  0  0  0
   -4.5963    3.1990    0.0000 C   0  0  0  0  0  0  0  0  0  0  0  0
   -3.3503    2.4950    0.0000 C   0  0  0  0  0  0  0  0  0  0  0  0
   -4.2739   -0.7361    0.0000 C   0  0  0  0  0  0  0  0  0  0  0  0
   -4.2747   -1.5641    0.0000 C   0  0  0  0  0  0  0  0  0  0  0  0
   -3.5606   -1.9789    0.0000 C   0  0  0  0  0  0  0  0  0  0  0  0
   -2.8425   -1.5637    0.0000 C   0  0  0  0  0  0  0  0  0  0  0  0
   -2.8445   -0.7336    0.0000 C   0  0  0  0  0  0  0  0  0  0  0  0
   -3.5620   -0.3242    0.0000 C   0  0  0  0  0  0  0  0  0  0  0  0
   -4.9912   -0.3215    0.0000 C   0  0  0  0  0  0  0  0  0  0  0  0
   -4.9912    0.5018    0.0000 N   0  0  0  0  0  0  0  0  0  0  0  0
   -4.9912   -1.9741    0.0000 C   0  0  0  0  0  0  0  0  0  0  0  0
   -4.3250    0.9858    0.0000 C   0  0  0  0  0  0  0  0  0  0  0  0
   -5.4029    1.7688    0.0000 C   0  0  0  0  0  0  0  0  0  0  0  0
   -5.6573    0.9858    0.0000 C   0  0  0  0  0  0  0  0  0  0  0  0
   -5.7052   -1.5583    0.0000 F   0  0  0  0  0  0  0  0  0  0  0  0
   -4.9943   -2.8004    0.0000 F   0  0  0  0  0  0  0  0  0  0  0  0
   -5.7095   -2.3858    0.0000 F   0  0  0  0  0  0  0  0  0  0  0  0
   -2.1297   -1.9712    0.0000 C   0  0  0  0  0  0  0  0  0  0  0  0
   -1.4174   -1.5566    0.0000 N   0  0  0  0  0  0  0  0  0  0  0  0
   -0.7020   -1.9653    0.0000 C   0  0  0  0  0  0  0  0  0  0  0  0
   -0.7011   -2.7903    0.0000 C   0  0  0  0  0  0  0  0  0  0  0  0
    0.0133   -3.1990    0.0000 C   0  0  0  0  0  0  0  0  0  0  0  0
    0.7260   -2.7838    0.0000 C   0  0  0  0  0  0  0  0  0  0  0  0
    0.7196   -1.9557    0.0000 C   0  0  0  0  0  0  0  0  0  0  0  0
    0.0046   -1.5507    0.0000 C   0  0  0  0  0  0  0  0  0  0  0  0
    1.4293   -1.5361    0.0000 N   0  0  0  0  0  0  0  0  0  0  0  0
    2.1476   -1.9420    0.0000 C   0  0  0  0  0  0  0  0  0  0  0  0
    2.1525   -2.7681    0.0000 N   0  0  0  0  0  0  0  0  0  0  0  0
    2.8699   -3.1738    0.0000 C   0  0  0  0  0  0  0  0  0  0  0  0
    3.5815   -2.7546    0.0000 C   0  0  0  0  0  0  0  0  0  0  0  0
    3.5712   -1.9254    0.0000 C   0  0  0  0  0  0  0  0  0  0  0  0
    2.8532   -1.5234    0.0000 N   0  0  0  0  0  0  0  0  0  0  0  0
    4.2786   -1.5023    0.0000 C   0  0  0  0  0  0  0  0  0  0  0  0
    4.9997   -1.9079    0.0000 C   0  0  0  0  0  0  0  0  0  0  0  0
    5.7095   -1.4863    0.0000 N   0  0  0  0  0  0  0  0  0  0  0  0
    5.6993   -0.6592    0.0000 C   0  0  0  0  0  0  0  0  0  0  0  0
    4.9735   -0.2555    0.0000 N   0  0  0  0  0  0  0  0  0  0  0  0
    4.2666   -0.6795    0.0000 C   0  0  0  0  0  0  0  0  0  0  0  0
    1.4410   -3.1946    0.0000 C   0  0  0  0  0  0  0  0  0  0  0  0
   -2.1327   -2.7975    0.0000 O   0  0  0  0  0  0  0  0  0  0  0  0
  1  2  1  6
  1 15  1  0
  2  4  1  0
  2  3  1  0
  5  6  2  0
  5 11  1  0
  6  7  1  0
  6 13  1  0
  7  8  2  0
  8  9  1  0
  8 20  1  0
  9 10  2  0
 10  5  1  0
 11 12  1  0
 12 14  1  0
 13 17  1  0
 13 18  1  0
 13 19  1  0
 14  1  1  0
 15 16  1  0
 16 12  1  0
 20 21  1  0
 20 42  2  0
 21 22  1  0
 22 23  2  0
 23 24  1  0
 24 25  2  0
 25 26  1  0
 25 41  1  0
 26 27  2  0
 26 28  1  0
 27 22  1  0
 28 29  1  0
 29 30  2  0
 30 31  1  0
 31 32  2  0
 32 33  1  0
 33 34  2  0
 33 35  1  0
 34 29  1  0
 35 36  2  0
 36 37  1  0
 37 38  2  0
 38 39  1  0
 39 40  2  0
 40 35  1  0
M  END
>  <DRUGBANK_ID>  (1) 
DB11851

>  <COMMON_NAME>  (1) 
Bafetinib

>  <CAS_NUMBER>  (1) 
859212-16-1

>  <UNII>  (1) 
NVW4Z03I9B

>  <SYNONYMS>  (1) 
Baf√©tinib; Bafetinib; Bafetinibum

$$$$
