
     RDKit          2D

 29 31  0  0  1  0  0  0  0  0999 V2000
   -0.0000    0.0000    0.0000 C   0  0  0  0  0  0  0  0  0  0  0  0
    0.7145   -0.4125    0.0000 C   0  0  0  0  0  0  0  0  0  0  0  0
   -0.0000    0.8250    0.0000 C   0  0  0  0  0  0  0  0  0  0  0  0
    1.4289    0.0000    0.0000 C   0  0  0  0  0  0  0  0  0  0  0  0
    0.7145    1.2375    0.0000 C   0  0  0  0  0  0  0  0  0  0  0  0
    2.1434    1.2375    0.0000 C   0  0  0  0  0  0  0  0  0  0  0  0
    2.8579    0.8250    0.0000 C   0  0  0  0  0  0  0  0  0  0  0  0
    7.3234    2.2295    0.0000 C   0  0  0  0  0  0  0  0  0  0  0  0
    6.5165    2.0580    0.0000 C   0  0  0  0  0  0  0  0  0  0  0  0
    8.5564    1.4288    0.0000 C   0  0  0  0  0  0  0  0  0  0  0  0
    3.5724    2.0625    0.0000 C   0  0  0  0  0  0  0  0  0  0  0  0
    9.8663    2.0962    0.0000 C   0  0  0  0  0  0  0  0  0  0  0  0
    1.4289    0.8250    0.0000 C   0  0  0  0  0  0  0  0  0  0  0  0
    3.5724    1.2375    0.0000 C   0  0  0  0  0  0  0  0  0  0  0  0
    7.7359    1.5150    0.0000 C   0  0  0  0  0  0  0  0  0  0  0  0
    6.4302    1.2375    0.0000 C   0  0  0  0  0  0  0  0  0  0  0  0
    5.7158    0.8250    0.0000 C   0  0  0  0  0  0  0  0  0  0  0  0
    4.2868    0.8250    0.0000 C   0  0  0  0  0  0  0  0  0  0  0  0
    5.7158    0.0000    0.0000 C   0  0  0  0  0  0  0  0  0  0  0  0
   10.1213    2.8809    0.0000 N   0  0  0  0  0  0  0  0  0  0  0  0
    5.0013    1.2375    0.0000 N   0  0  0  0  0  0  0  0  0  0  0  0
    9.4538    3.3658    0.0000 N   0  0  0  0  0  0  0  0  0  0  0  0
    8.7864    2.8809    0.0000 N   0  0  0  0  0  0  0  0  0  0  0  0
    9.0413    2.0962    0.0000 N   0  0  0  0  0  0  0  0  0  0  0  0
    4.2868    0.0000    0.0000 O   0  0  0  0  0  0  0  0  0  0  0  0
    5.0013   -0.4125    0.0000 O   0  0  0  0  0  0  0  0  0  0  0  0
    6.4302   -0.4125    0.0000 O   0  0  0  0  0  0  0  0  0  0  0  0
    4.2868    2.4750    0.0000 S   0  0  0  0  0  0  0  0  0  0  0  0
    7.1839    0.9019    0.0000 S   0  0  0  0  0  0  0  0  0  0  0  0
  2  1  2  0
  3  1  1  0
  4  2  1  0
  5  3  2  0
  7  6  1  0
  9  8  1  0
 13  4  2  0
 13  5  1  0
 13  6  1  0
 14  7  1  6
 14 11  1  0
 14 18  1  0
 15  8  2  0
 15 10  1  0
 16  9  2  0
 17 16  1  0
 19 17  1  0
 20 12  2  0
 21 17  2  3
 21 18  1  0
 22 20  1  0
 23 22  2  0
 24 10  1  0
 24 12  1  0
 24 23  1  0
 25 18  2  0
 26 19  2  0
 27 19  1  0
 28 11  1  0
 29 15  1  0
 29 16  1  0
M  END
>  <DRUGBANK_ID>  (1) 
DB02706

>  <SECONDARY_ACCESSION_NUMBERS>  (1) 
EXPT02134

>  <COMMON_NAME>  (1) 
Mercaptocarboxylate Inhibitor

$$$$
