
     RDKit          2D

 28 31  0  0  0  0  0  0  0  0999 V2000
    0.3221   -1.5712    0.0000 C   0  0  0  0  0  0  0  0  0  0  0  0
    0.3221   -0.7462    0.0000 C   0  0  0  0  0  0  0  0  0  0  0  0
   -1.1068   -1.5712    0.0000 C   0  0  0  0  0  0  0  0  0  0  0  0
   -0.3923   -1.9837    0.0000 C   0  0  0  0  0  0  0  0  0  0  0  0
   -0.3923   -0.3337    0.0000 C   0  0  0  0  0  0  0  0  0  0  0  0
   -1.1068   -0.7462    0.0000 C   0  0  0  0  0  0  0  0  0  0  0  0
   -2.5357   -0.7462    0.0000 C   0  0  0  0  0  0  0  0  0  0  0  0
   -2.5357   -1.5712    0.0000 C   0  0  0  0  0  0  0  0  0  0  0  0
   -1.8212   -1.9837    0.0000 C   0  0  0  0  0  0  0  0  0  0  0  0
   -1.8212   -0.3337    0.0000 C   0  0  0  0  0  0  0  0  0  0  0  0
    0.3221    0.9038    0.0000 C   0  0  0  0  0  0  0  0  0  0  0  0
   -0.3923    0.4913    0.0000 C   0  0  0  0  0  0  0  0  0  0  0  0
    1.8212   -0.5885    0.0000 C   0  0  0  0  0  0  0  0  0  0  0  0
    2.3062    0.0787    0.0000 C   0  0  0  0  0  0  0  0  0  0  0  0
    1.8212    0.7462    0.0000 C   0  0  0  0  0  0  0  0  0  0  0  0
   -3.2502   -1.9837    0.0000 O   0  0  0  0  0  0  0  0  0  0  0  0
   -0.3923   -1.1587    0.0000 Cl  0  0  0  0  0  0  0  0  0  0  0  0
    1.0366    0.4913    0.0000 C   0  0  0  0  0  0  0  0  0  0  0  0
    1.0366    1.3162    0.0000 C   0  0  0  0  0  0  0  0  0  0  0  0
    1.0366   -0.3337    0.0000 C   0  0  0  0  0  0  0  0  0  0  0  0
   -1.1068    0.0787    0.0000 C   0  0  0  0  0  0  0  0  0  0  0  0
   -1.1068    0.9038    0.0000 O   0  0  0  0  0  0  0  0  0  0  0  0
    3.1311    0.0787    0.0000 C   0  0  0  0  0  0  0  0  0  0  0  0
    1.8212    1.5712    0.0000 C   0  0  0  0  0  0  0  0  0  0  0  0
    2.5358    1.9837    0.0000 C   0  0  0  0  0  0  0  0  0  0  0  0
    3.2502    1.5712    0.0000 Cl  0  0  0  0  0  0  0  0  0  0  0  0
    1.1068    1.9837    0.0000 O   0  0  0  0  0  0  0  0  0  0  0  0
    2.5358    1.1587    0.0000 O   0  0  0  0  0  0  0  0  0  0  0  0
  2  1  1  6
  2  5  1  0
  3  4  1  0
  4  1  1  0
  5 12  1  0
  5 17  1  6
  5  6  1  0
  6  3  1  0
  6 10  1  0
  6 21  1  1
  7  8  1  0
  7 10  2  0
  8  9  1  0
  8 16  2  0
  9  3  2  0
 11 12  1  0
 12 22  1  1
 13 14  1  0
 14 23  1  6
 15 14  1  0
 15 24  1  0
 15 28  1  6
 18 11  1  0
 18 15  1  0
 18 19  1  1
 20  2  1  0
 20 13  1  1
 20 18  1  0
 24 25  1  0
 24 27  2  0
 25 26  1  0
M  END
>  <DRUGBANK_ID>  (1) 
DB00764

>  <SECONDARY_ACCESSION_NUMBERS>  (1) 
APRD00289

>  <COMMON_NAME>  (1) 
Mometasone

>  <CAS_NUMBER>  (1) 
105102-22-5

>  <UNII>  (1) 
8HR4QJ6DW8

>  <SYNONYMS>  (1) 
(+)-Mometasone; Mometason; Mometasona; Mom√©tasone; Mometasone; Mometasonum

$$$$
