
     RDKit          2D

 12 11  0  0  0  0  0  0  0  0999 V2000
    0.6336   -0.7145    0.0000 C   0  0  0  0  0  0  0  0  0  0  0  0
    7.0638   -0.3020    0.0000 C   0  0  0  0  0  0  0  0  0  0  0  0
    1.3480   -0.3020    0.0000 C   0  0  0  0  0  0  0  0  0  0  0  0
    6.3493   -0.7145    0.0000 C   0  0  0  0  0  0  0  0  0  0  0  0
    2.7770   -0.3020    0.0000 C   0  0  0  0  0  0  0  0  0  0  0  0
    4.9204   -0.7145    0.0000 C   0  0  0  0  0  0  0  0  0  0  0  0
    2.0625   -0.7145    0.0000 O   0  0  0  0  0  0  0  0  0  0  0  0
    5.6349   -0.3020    0.0000 O   0  0  0  0  0  0  0  0  0  0  0  0
    2.7770    0.5230    0.0000 S   0  0  0  0  0  0  0  0  0  0  0  0
    4.9204   -1.5395    0.0000 S   0  0  0  0  0  0  0  0  0  0  0  0
    3.4914   -0.7145    0.0000 S   0  0  0  0  0  0  0  0  0  0  0  0
    4.2059   -0.3020    0.0000 S   0  0  0  0  0  0  0  0  0  0  0  0
  3  1  1  0
  4  2  1  0
  7  3  1  0
  7  5  1  0
  8  4  1  0
  8  6  1  0
  9  5  2  0
 10  6  2  0
 11  5  1  0
 12  6  1  0
 12 11  1  0
M  END
>  <DRUGBANK_ID>  (1) 
DB13712

>  <COMMON_NAME>  (1) 
Dixanthogen

>  <CAS_NUMBER>  (1) 
502-55-6

>  <UNII>  (1) 
RN4CQ46FDM

>  <SYNONYMS>  (1) 
Dixanthogen

$$$$
