
     RDKit          2D

 29 31  0  0  0  0  0  0  0  0999 V2000
    0.9207   -2.7769    0.0000 C   0  0  0  0  0  0  0  0  0  0  0  0
    0.9207   -3.6019    0.0000 C   0  0  0  0  0  0  0  0  0  0  0  0
    1.6351   -4.0144    0.0000 C   0  0  0  0  0  0  0  0  0  0  0  0
    2.3496   -3.6019    0.0000 C   0  0  0  0  0  0  0  0  0  0  0  0
    2.3496   -2.7769    0.0000 C   0  0  0  0  0  0  0  0  0  0  0  0
    1.6351   -2.3644    0.0000 C   0  0  0  0  0  0  0  0  0  0  0  0
    1.6351   -1.5394    0.0000 C   0  0  0  0  0  0  0  0  0  0  0  0
    0.9207   -1.1269    0.0000 C   0  0  0  0  0  0  0  0  0  0  0  0
    2.3496   -1.1269    0.0000 C   0  0  0  0  0  0  0  0  0  0  0  0
    2.3496   -0.3019    0.0000 C   0  0  0  0  0  0  0  0  0  0  0  0
    1.6351    0.1105    0.0000 C   0  0  0  0  0  0  0  0  0  0  0  0
    0.9207   -0.3019    0.0000 C   0  0  0  0  0  0  0  0  0  0  0  0
    0.2062    0.1105    0.0000 C   0  0  0  0  0  0  0  0  0  0  0  0
    0.2062    0.9355    0.0000 C   0  0  0  0  0  0  0  0  0  0  0  0
   -0.5082   -0.3019    0.0000 C   0  0  0  0  0  0  0  0  0  0  0  0
   -1.2227    0.1105    0.0000 C   0  0  0  0  0  0  0  0  0  0  0  0
   -1.2227    0.9355    0.0000 C   0  0  0  0  0  0  0  0  0  0  0  0
   -0.5082    1.3480    0.0000 C   0  0  0  0  0  0  0  0  0  0  0  0
   -0.5082    2.1730    0.0000 C   0  0  0  0  0  0  0  0  0  0  0  0
   -1.2227    2.5855    0.0000 C   0  0  0  0  0  0  0  0  0  0  0  0
   -1.6352    1.8710    0.0000 P   0  0  0  0  0  0  0  0  0  0  0  0
   -2.3496    2.2835    0.0000 O   0  0  0  0  0  0  0  0  0  0  0  0
   -0.9207    1.4585    0.0000 O   0  0  0  0  0  0  0  0  0  0  0  0
   -2.0477    1.1565    0.0000 O   0  0  0  0  0  0  0  0  0  0  0  0
   -0.8102    3.2999    0.0000 P   0  0  0  0  0  0  0  0  0  0  0  0
   -0.3977    4.0144    0.0000 O   0  0  0  0  0  0  0  0  0  0  0  0
   -0.0957    2.8874    0.0000 O   0  0  0  0  0  0  0  0  0  0  0  0
   -1.5246    3.7124    0.0000 O   0  0  0  0  0  0  0  0  0  0  0  0
   -1.9371    2.9980    0.0000 O   0  0  0  0  0  0  0  0  0  0  0  0
  1  6  2  0
  2  1  1  0
  3  2  2  0
  3  4  1  0
  4  5  2  0
  5  6  1  0
  6  7  1  0
  8  7  2  0
  8 12  1  0
  9  7  1  0
 10  9  2  0
 10 11  1  0
 11 12  2  0
 13 12  1  0
 14 13  2  0
 14 18  1  0
 15 13  1  0
 16 15  2  0
 16 17  1  0
 17 18  2  0
 19 18  1  0
 19 20  1  0
 20 21  1  0
 20 29  1  0
 20 25  1  0
 22 21  2  0
 23 21  1  0
 24 21  1  0
 26 25  2  0
 27 25  1  0
 28 25  1  0
M  END
>  <DRUGBANK_ID>  (1) 
DB07404

>  <COMMON_NAME>  (1) 
BPH-608

>  <SYNONYMS>  (1) 
(1-hydroxy-1-phosphono-2-[1,1';3',1'']terphenyl-3-yl-ethyl)-phosphonic acid

$$$$
