
     RDKit          2D

 10  9  0  0  1  0  0  0  0  0999 V2000
    1.9520    1.9520    0.0000 C   0  0  0  0  0  0  0  0  0  0  0  0
    1.9520    1.1270    0.0000 C   0  0  0  0  0  0  0  0  0  0  0  0
    1.2375    0.7145    0.0000 C   0  0  0  0  0  0  0  0  0  0  0  0
    1.2375   -0.1105    0.0000 N   0  0  0  0  0  0  0  0  0  0  0  0
    0.5230    1.1270    0.0000 C   0  0  0  0  0  0  0  0  0  0  0  0
   -0.1914    0.7145    0.0000 O   0  0  0  0  0  0  0  0  0  0  0  0
    0.5230    1.9520    0.0000 O   0  0  0  0  0  0  0  0  0  0  0  0
    2.6664    0.7145    0.0000 C   0  0  0  0  0  0  0  0  0  0  0  0
    3.3809    1.1270    0.0000 O   0  0  0  0  0  0  0  0  0  0  0  0
    2.6664   -0.1105    0.0000 O   0  0  0  0  0  0  0  0  0  0  0  0
  2  1  1  6
  2  3  1  0
  2  8  1  0
  3  4  1  1
  3  5  1  0
  5  6  1  0
  5  7  2  0
  8  9  1  0
  8 10  2  0
M  END
>  <DRUGBANK_ID>  (1) 
DB04313

>  <SECONDARY_ACCESSION_NUMBERS>  (1) 
EXPT00104

>  <COMMON_NAME>  (1) 
(3S)-3-methyl-D-aspartic acid

>  <CAS_NUMBER>  (1) 
121570-10-3

>  <UNII>  (1) 
JVW3X5Z42K

>  <SYNONYMS>  (1) 
3-methyl-beta-D-aspartic acid; D-methyl aspartic acid

$$$$
