
     RDKit          2D

  9  8  0  0  0  0  0  0  0  0999 V2000
    0.3571   -0.8249    0.0000 C   0  0  0  0  0  0  0  0  0  0  0  0
   -0.3572   -0.4124    0.0000 C   0  0  0  0  0  0  0  0  0  0  0  0
    1.0718   -0.4124    0.0000 O   0  0  0  0  0  0  0  0  0  0  0  0
    0.3571   -1.6502    0.0000 O   0  0  0  0  0  0  0  0  0  0  0  0
   -0.3572    0.4126    0.0000 C   0  0  0  0  0  0  0  0  0  0  0  0
    0.3571    0.8251    0.0000 C   0  0  0  0  0  0  0  0  0  0  0  0
    1.0718    0.4126    0.0000 O   0  0  0  0  0  0  0  0  0  0  0  0
    0.3571    1.6502    0.0000 O   0  0  0  0  0  0  0  0  0  0  0  0
   -1.0718    0.8251    0.0000 C   0  0  0  0  0  0  0  0  0  0  0  0
  1  2  1  0
  1  3  1  0
  1  4  2  0
  2  5  2  0
  5  6  1  0
  5  9  1  0
  6  7  1  0
  6  8  2  0
M  END
>  <DRUGBANK_ID>  (1) 
DB04734

>  <COMMON_NAME>  (1) 
Citraconic acid

>  <CAS_NUMBER>  (1) 
498-23-7

>  <UNII>  (1) 
0RQ6CXO9KD

>  <SYNONYMS>  (1) 
(Z)-2-Methyl-2-butenedioic acid; 2-Methyl-2-butenedioic acid; 2-methylmaleic acid; cis-2-methylbutenedioic acid; cis-Methylbutenedioic acid; citraconate; Citraconsäure; Methyl-maleinsäure; Methylmaleic acid; α-methylmaleic acid

$$$$
