
     RDKit          2D

 16 17  0  0  0  0  0  0  0  0999 V2000
    1.0514    0.2406    0.0000 C   0  0  0  0  0  0  0  0  0  0  0  0
    0.4017   -0.1816    0.0000 N   0  0  0  0  0  0  0  0  0  0  0  0
   -0.3685    0.2232    0.0000 C   0  0  0  0  0  0  0  0  0  0  0  0
   -1.0581   -0.2232    0.0000 C   0  0  0  0  0  0  0  0  0  0  0  0
   -1.0581   -1.0569    0.0000 C   0  0  0  0  0  0  0  0  0  0  0  0
   -1.7189   -1.4748    0.0000 C   0  0  0  0  0  0  0  0  0  0  0  0
   -2.4894   -1.1226    0.0000 C   0  0  0  0  0  0  0  0  0  0  0  0
   -2.4894   -0.2778    0.0000 C   0  0  0  0  0  0  0  0  0  0  0  0
   -1.8240    0.1488    0.0000 C   0  0  0  0  0  0  0  0  0  0  0  0
   -1.8240    0.6440    0.0000 C   0  0  0  0  0  0  0  0  0  0  0  0
   -0.3685    1.0154    0.0000 O   0  0  0  0  0  0  0  0  0  0  0  0
    1.0514    1.0350    0.0000 C   0  0  0  0  0  0  0  0  0  0  0  0
    1.7517    1.4748    0.0000 C   0  0  0  0  0  0  0  0  0  0  0  0
    2.4894    1.0482    0.0000 C   0  0  0  0  0  0  0  0  0  0  0  0
    2.4894    0.2232    0.0000 C   0  0  0  0  0  0  0  0  0  0  0  0
    1.7476   -0.1816    0.0000 C   0  0  0  0  0  0  0  0  0  0  0  0
  1  2  1  0
  1 12  2  0
  1 16  1  0
  2  3  1  0
  3  4  1  0
  3 11  2  0
  4  5  2  0
  4  9  1  0
  5  6  1  0
  6  7  2  0
  8  7  1  0
  9  8  2  0
  9 10  1  0
 12 13  1  0
 13 14  2  0
 15 14  1  0
 16 15  2  0
M  END
>  <DRUGBANK_ID>  (1) 
DB14728

>  <COMMON_NAME>  (1) 
Mebenil

>  <CAS_NUMBER>  (1) 
7055-03-0

>  <UNII>  (1) 
B8MA40FMWG

>  <SYNONYMS>  (1) 
2-Methyl-N-phenylbenzamide; 2-Methylbenzanilide; 2-Methylbenzoanilide; 2-Methylbenzoic acid anilide; o-Methylbenzanilide; o-Toluanilide

$$$$
