4MF
     RDKit          2D

 22 24  0  0  0  0  0  0  0  0999 V2000
    0.5601   -3.3698    0.0000 O   0  0  0  0  0  0  0  0  0  0  0  0
    1.0897   -2.3303    0.0000 O   0  0  0  0  0  0  0  0  0  0  0  0
    0.3051   -2.5852    0.0000 P   0  0  0  0  0  0  0  0  0  0  0  0
   -0.4795   -2.8402    0.0000 O   0  0  0  0  0  0  0  0  0  0  0  0
    0.0502   -1.8006    0.0000 O   0  0  0  0  0  0  0  0  0  0  0  0
    0.6022   -1.1875    0.0000 C   0  0  0  0  0  0  0  0  0  0  0  0
    0.3473   -0.4029    0.0000 C   0  0  0  0  0  0  0  0  0  0  0  0
   -0.4374   -0.1479    0.0000 C   0  0  0  0  0  0  0  0  0  0  0  0
   -1.1048   -0.6329    0.0000 O   0  0  0  0  0  0  0  0  0  0  0  0
   -0.4374    0.6771    0.0000 C   0  0  0  0  0  0  0  0  0  0  0  0
    0.3473    0.9320    0.0000 C   0  0  0  0  0  0  0  0  0  0  0  0
    0.8322    0.2646    0.0000 O   0  0  0  0  0  0  0  0  0  0  0  0
    0.6022    1.7166    0.0000 N   0  0  0  0  0  0  0  0  0  0  0  0
    1.3868    1.9716    0.0000 C   0  0  0  0  0  0  0  0  0  0  0  0
    2.1013    1.5591    0.0000 C   0  0  0  0  0  0  0  0  0  0  0  0
    2.8158    1.9716    0.0000 C   0  0  0  0  0  0  0  0  0  0  0  0
    2.8158    2.7966    0.0000 C   0  0  0  0  0  0  0  0  0  0  0  0
    2.1013    3.2091    0.0000 C   0  0  0  0  0  0  0  0  0  0  0  0
    2.1013    4.0341    0.0000 C   0  0  0  0  0  0  0  0  0  0  0  0
    1.3868    2.7966    0.0000 C   0  0  0  0  0  0  0  0  0  0  0  0
    0.6022    3.0515    0.0000 C   0  0  0  0  0  0  0  0  0  0  0  0
    0.1173    2.3841    0.0000 C   0  0  0  0  0  0  0  0  0  0  0  0
  1  3  1  0
  2  3  1  0
  3  4  2  0
  3  5  1  0
  5  6  1  0
  7  6  1  6
  7  8  1  0
  7 12  1  0
  8 10  1  0
  8  9  1  1
 10 11  1  0
 11 13  1  6
 11 12  1  0
 13 22  1  0
 13 14  1  0
 14 20  1  0
 14 15  2  0
 15 16  1  0
 16 17  2  0
 17 18  1  0
 18 19  1  0
 18 20  2  0
 20 21  1  0
 21 22  2  0
M  END
>  <DRUGBANK_ID>  (1) 
DB07116

>  <COMMON_NAME>  (1) 
1-(2-DEOXY-5-O-PHOSPHONO-BETA-D-ERYTHRO-PENTOFURANOSYL)-4-METHYL-1H-INDOLE

$$$$
