PCS
     RDKit          2D

 13 13  0  0  0  0  0  0  0  0999 V2000
   -0.7675    0.6384    0.0000 N   0  0  0  0  0  0  0  0  0  0  0  0
   -0.7675   -0.1866    0.0000 C   0  0  0  0  0  0  0  0  0  0  0  0
   -1.4820   -0.5991    0.0000 C   0  0  0  0  0  0  0  0  0  0  0  0
   -0.0531   -0.5991    0.0000 C   0  0  0  0  0  0  0  0  0  0  0  0
   -1.4820   -1.4241    0.0000 O   0  0  0  0  0  0  0  0  0  0  0  0
    1.3759   -0.5991    0.0000 C   0  0  0  0  0  0  0  0  0  0  0  0
    0.6614   -0.1866    0.0000 C   0  0  0  0  0  0  0  0  0  0  0  0
    0.6614    0.6384    0.0000 C   0  0  0  0  0  0  0  0  0  0  0  0
    1.3759    1.0509    0.0000 C   0  0  0  0  0  0  0  0  0  0  0  0
    2.0904    0.6384    0.0000 C   0  0  0  0  0  0  0  0  0  0  0  0
    2.0904   -0.1866    0.0000 C   0  0  0  0  0  0  0  0  0  0  0  0
   -2.1965   -0.1866    0.0000 C   0  0  0  0  0  0  0  0  0  0  0  0
   -2.9109   -0.5991    0.0000 Cl  0  0  0  0  0  0  0  0  0  0  0  0
  2  1  1  1
  2  3  1  0
  2  4  1  0
  3  5  2  0
  3 12  1  0
  4  7  1  0
  6  7  2  0
  6 11  1  0
  7  8  1  0
  8  9  2  0
  9 10  1  0
 10 11  2  0
 12 13  1  0
M  END
>  <DRUGBANK_ID>  (1) 
DB08374

>  <COMMON_NAME>  (1) 
Phenylalanylmethylchloride

>  <CAS_NUMBER>  (1) 
52735-71-4

>  <SYNONYMS>  (1) 
(3S)-3-Amino-1-chloro-4-phenyl-2-butanone; L-Phenylalanine chloromethyl ketone

$$$$
