FRM
     RDKit          2D

 28 31  0  0  0  0  0  0  0  0999 V2000
   -3.1300    2.1455    0.0000 C   0  0  0  0  0  0  0  0  0  0  0  0
   -2.4155    1.7330    0.0000 C   0  0  0  0  0  0  0  0  0  0  0  0
   -1.7010    2.1455    0.0000 C   0  0  0  0  0  0  0  0  0  0  0  0
   -1.7010    2.9705    0.0000 C   0  0  0  0  0  0  0  0  0  0  0  0
   -2.4155    3.3830    0.0000 C   0  0  0  0  0  0  0  0  0  0  0  0
   -3.1300    2.9705    0.0000 C   0  0  0  0  0  0  0  0  0  0  0  0
   -0.9866    1.7330    0.0000 N   0  0  0  0  0  0  0  0  0  0  0  0
   -0.2721    2.1455    0.0000 C   0  0  0  0  0  0  0  0  0  0  0  0
   -0.2721    2.9705    0.0000 N   0  0  0  0  0  0  0  0  0  0  0  0
   -0.9866    3.3830    0.0000 C   0  0  0  0  0  0  0  0  0  0  0  0
   -0.9866    4.2080    0.0000 O   0  0  0  0  0  0  0  0  0  0  0  0
    0.4424    1.7330    0.0000 C   0  0  0  0  0  0  0  0  0  0  0  0
    0.4424    0.9080    0.0000 C   0  0  0  0  0  0  0  0  0  0  0  0
    1.1569    0.4955    0.0000 C   0  0  0  0  0  0  0  0  0  0  0  0
    1.1569   -0.3295    0.0000 N   0  0  0  0  0  0  0  0  0  0  0  0
    1.8713   -0.7420    0.0000 C   0  0  0  0  0  0  0  0  0  0  0  0
    1.8713   -1.5670    0.0000 C   0  0  0  0  0  0  0  0  0  0  0  0
    1.1569   -1.9795    0.0000 C   0  0  0  0  0  0  0  0  0  0  0  0
    0.4424   -1.5670    0.0000 C   0  0  0  0  0  0  0  0  0  0  0  0
    0.4424   -0.7420    0.0000 C   0  0  0  0  0  0  0  0  0  0  0  0
    1.1569   -2.8045    0.0000 C   0  0  0  0  0  0  0  0  0  0  0  0
    1.8713   -3.2170    0.0000 C   0  0  0  0  0  0  0  0  0  0  0  0
    1.8713   -4.0420    0.0000 C   0  0  0  0  0  0  0  0  0  0  0  0
    1.1569   -4.4545    0.0000 C   0  0  0  0  0  0  0  0  0  0  0  0
    0.4424   -4.0420    0.0000 C   0  0  0  0  0  0  0  0  0  0  0  0
    0.4424   -3.2170    0.0000 C   0  0  0  0  0  0  0  0  0  0  0  0
   -2.4155    0.9080    0.0000 C   0  0  0  0  0  0  0  0  0  0  0  0
    1.1569   -5.2795    0.0000 F   0  0  0  0  0  0  0  0  0  0  0  0
  1  2  2  0
  1  6  1  0
  2  3  1  0
  2 27  1  0
  3  4  2  0
  3  7  1  0
  4  5  1  0
  4 10  1  0
  5  6  2  0
  7  8  2  0
  8  9  1  0
  8 12  1  0
  9 10  1  0
 10 11  2  0
 12 13  1  0
 13 14  1  0
 14 15  1  0
 15 16  1  0
 15 20  1  0
 16 17  1  0
 17 18  2  0
 18 19  1  0
 18 21  1  0
 19 20  1  0
 21 22  2  0
 21 26  1  0
 22 23  1  0
 23 24  2  0
 24 25  1  0
 24 28  1  0
 25 26  2  0
M  END
>  <DRUGBANK_ID>  (1) 
DB03072

>  <SECONDARY_ACCESSION_NUMBERS>  (1) 
EXPT01494

>  <COMMON_NAME>  (1) 
2-{3-[4-(4-Fluorophenyl)-3,6-Dihydro-1(2h)-Pyridinyl]Propyl}-8-Methyl-4(3h)-Quinazolinone

$$$$
