
     RDKit          2D

 12 11  0  0  0  0  0  0  0  0999 V2000
   -2.8564   -0.2192    0.0000 C   0  0  0  0  0  0  0  0  0  0  0  0
   -2.1423    0.1941    0.0000 C   0  0  0  0  0  0  0  0  0  0  0  0
   -1.4281   -0.2149    0.0000 N   0  0  0  0  0  0  0  0  0  0  0  0
   -0.7140    0.1983    0.0000 C   0  0  0  0  0  0  0  0  0  0  0  0
    0.0000   -0.2107    0.0000 C   0  0  0  0  0  0  0  0  0  0  0  0
    0.7140    0.2025    0.0000 C   0  0  0  0  0  0  0  0  0  0  0  0
    1.4281   -0.2066    0.0000 C   0  0  0  0  0  0  0  0  0  0  0  0
    2.1423    0.2066    0.0000 C   0  0  0  0  0  0  0  0  0  0  0  0
    2.8564   -0.2024    0.0000 O   0  0  0  0  0  0  0  0  0  0  0  0
   -2.1441    1.0210    0.0000 N   0  0  0  0  0  0  0  0  0  0  0  0
    2.1405    1.0335    0.0000 O   0  0  0  0  0  0  0  0  0  0  0  0
    1.4299   -1.0335    0.0000 N   0  0  0  0  0  0  0  0  0  0  0  0
  1  2  1  0
  2 10  2  0
  2  3  1  0
  3  4  1  0
  4  5  1  0
  5  6  1  0
  6  7  1  0
  7  8  1  0
  7 12  1  1
  8  9  1  0
  8 11  2  0
M  END
>  <DRUGBANK_ID>  (1) 
DB03305

>  <SECONDARY_ACCESSION_NUMBERS>  (1) 
EXPT01862

>  <COMMON_NAME>  (1) 
N(G)-Iminoethylornithine

>  <CAS_NUMBER>  (1) 
36889-13-1

>  <UNII>  (1) 
XQ6P9GL3YT

>  <SYNONYMS>  (1) 
L-NIO; N(G)-Iminoethylornithine; N5-(1-Iminoethyl)-L-ornithine

$$$$
