699
     RDKit          2D

 32 34  0  0  0  0  0  0  0  0999 V2000
    0.0316    4.1043    0.0000 F   0  0  0  0  0  0  0  0  0  0  0  0
   -0.1400    3.2974    0.0000 C   0  0  0  0  0  0  0  0  0  0  0  0
   -0.9469    3.4689    0.0000 F   0  0  0  0  0  0  0  0  0  0  0  0
    0.6670    3.1258    0.0000 F   0  0  0  0  0  0  0  0  0  0  0  0
   -0.3115    2.4904    0.0000 C   0  0  0  0  0  0  0  0  0  0  0  0
    0.3016    1.9383    0.0000 C   0  0  0  0  0  0  0  0  0  0  0  0
    0.1301    1.1314    0.0000 C   0  0  0  0  0  0  0  0  0  0  0  0
   -1.0961    2.2354    0.0000 C   0  0  0  0  0  0  0  0  0  0  0  0
   -1.2676    1.4285    0.0000 C   0  0  0  0  0  0  0  0  0  0  0  0
   -0.6545    0.8764    0.0000 C   0  0  0  0  0  0  0  0  0  0  0  0
   -0.8261    0.0695    0.0000 C   0  0  0  0  0  0  0  0  0  0  0  0
   -0.2130   -0.4826    0.0000 O   0  0  0  0  0  0  0  0  0  0  0  0
   -1.6107   -0.1855    0.0000 N   0  0  0  0  0  0  0  0  0  0  0  0
   -1.8656   -0.9701    0.0000 C   0  0  0  0  0  0  0  0  0  0  0  0
   -1.0587   -1.1416    0.0000 C   0  0  0  0  0  0  0  0  0  0  0  0
   -0.5066   -0.5285    0.0000 O   0  0  0  0  0  0  0  0  0  0  0  0
   -0.8037   -1.9262    0.0000 O   0  0  0  0  0  0  0  0  0  0  0  0
   -1.9519   -1.7906    0.0000 C   0  0  0  0  0  0  0  0  0  0  0  0
   -2.7055   -2.1261    0.0000 C   0  0  0  0  0  0  0  0  0  0  0  0
   -2.7918   -2.9466    0.0000 C   0  0  0  0  0  0  0  0  0  0  0  0
   -3.3730   -1.6412    0.0000 C   0  0  0  0  0  0  0  0  0  0  0  0
   -2.6906   -0.9701    0.0000 C   0  0  0  0  0  0  0  0  0  0  0  0
   -2.9456   -0.1855    0.0000 C   0  0  0  0  0  0  0  0  0  0  0  0
   -3.7302    0.0695    0.0000 C   0  0  0  0  0  0  0  0  0  0  0  0
   -4.3433   -0.4826    0.0000 O   0  0  0  0  0  0  0  0  0  0  0  0
   -3.9017    0.8764    0.0000 O   0  0  0  0  0  0  0  0  0  0  0  0
   -2.2781    0.2995    0.0000 C   0  0  0  0  0  0  0  0  0  0  0  0
   -2.2781    1.1245    0.0000 C   0  0  0  0  0  0  0  0  0  0  0  0
   -2.9456    1.6094    0.0000 S   0  0  0  0  0  0  0  0  0  0  0  0
   -1.6107    1.6094    0.0000 C   0  0  0  0  0  0  0  0  0  0  0  0
   -1.8656    2.3940    0.0000 C   0  0  0  0  0  0  0  0  0  0  0  0
   -2.6906    2.3940    0.0000 C   0  0  0  0  0  0  0  0  0  0  0  0
  1  2  1  0
  2  3  1  0
  2  4  1  0
  2  5  1  0
  5  6  2  0
  5  8  1  0
  6  7  1  0
  7 10  2  0
  8  9  2  0
  9 10  1  0
 10 11  1  0
 11 12  2  0
 11 13  1  0
 13 14  1  0
 13 27  1  0
 14 15  1  0
 14 18  1  1
 14 22  1  0
 15 16  1  0
 15 17  2  0
 18 19  1  0
 19 20  1  0
 19 21  1  0
 22 23  1  0
 23 24  1  6
 23 27  1  0
 24 25  1  0
 24 26  2  0
 27 28  1  6
 28 29  1  0
 28 30  2  0
 29 32  1  0
 30 31  1  0
 31 32  2  0
M  END
>  <DRUGBANK_ID>  (1) 
DB07200

>  <COMMON_NAME>  (1) 
(2S,4S,5R)-2-ISOBUTYL-5-(2-THIENYL)-1-[4-(TRIFLUOROMETHYL)BENZOYL]PYRROLIDINE-2,4-DICARBOXYLIC ACID

$$$$
