
     RDKit          2D

 21 22  0  0  0  0  0  0  0  0999 V2000
   -2.6216   -0.1757    0.0000 C   0  0  0  0  0  0  0  0  0  0  0  0
   -1.9071    0.2368    0.0000 C   0  0  0  0  0  0  0  0  0  0  0  0
   -1.1926   -0.1757    0.0000 N   0  0  0  0  0  0  0  0  0  0  0  0
   -1.1926   -1.0007    0.0000 C   0  0  0  0  0  0  0  0  0  0  0  0
   -1.9071   -1.4132    0.0000 C   0  0  0  0  0  0  0  0  0  0  0  0
   -0.4782    0.2368    0.0000 C   0  0  0  0  0  0  0  0  0  0  0  0
    0.2363   -0.1757    0.0000 C   0  0  0  0  0  0  0  0  0  0  0  0
    0.9508    0.2368    0.0000 C   0  0  0  0  0  0  0  0  0  0  0  0
    1.4811    0.8688    0.0000 C   0  0  0  0  0  0  0  0  0  0  0  0
    2.2936    0.7255    0.0000 C   0  0  0  0  0  0  0  0  0  0  0  0
    2.5757   -0.0498    0.0000 C   0  0  0  0  0  0  0  0  0  0  0  0
    3.3882   -0.1930    0.0000 O   0  0  0  0  0  0  0  0  0  0  0  0
    2.0454   -0.6817    0.0000 N   0  0  0  0  0  0  0  0  0  0  0  0
    1.2330   -0.5385    0.0000 C   0  0  0  0  0  0  0  0  0  0  0  0
    0.7027   -1.1705    0.0000 O   0  0  0  0  0  0  0  0  0  0  0  0
    0.4205    0.8688    0.0000 C   0  0  0  0  0  0  0  0  0  0  0  0
   -0.3920    0.7255    0.0000 C   0  0  0  0  0  0  0  0  0  0  0  0
   -0.9223    1.3575    0.0000 C   0  0  0  0  0  0  0  0  0  0  0  0
   -0.6401    2.1327    0.0000 C   0  0  0  0  0  0  0  0  0  0  0  0
    0.1724    2.2760    0.0000 C   0  0  0  0  0  0  0  0  0  0  0  0
    0.7027    1.6440    0.0000 C   0  0  0  0  0  0  0  0  0  0  0  0
  1  2  1  0
  2  3  1  0
  3  4  1  0
  3  6  1  0
  4  5  1  0
  6  7  1  0
  7  8  1  0
  8  9  1  0
  8 14  1  0
  8 16  1  0
  9 10  1  0
 10 11  1  0
 11 12  2  0
 11 13  1  0
 13 14  1  0
 14 15  2  0
 16 17  2  0
 16 21  1  0
 17 18  1  0
 18 19  2  0
 19 20  1  0
 20 21  2  0
M  END
>  <DRUGBANK_ID>  (1) 
DB13413

>  <COMMON_NAME>  (1) 
Phenglutarimide

>  <CAS_NUMBER>  (1) 
1156-05-4

>  <UNII>  (1) 
679RC9H8TG

>  <SYNONYMS>  (1) 
Phenglutarimide

$$$$
