
     RDKit          2D

 21 24  0  0  0  0  0  0  0  0999 V2000
    0.2702    0.1963    0.0000 C   0  0  0  0  0  0  0  0  0  0  0  0
    0.9377    0.6813    0.0000 C   0  0  0  0  0  0  0  0  0  0  0  0
    0.8514    1.5017    0.0000 C   0  0  0  0  0  0  0  0  0  0  0  0
    0.0978    1.8373    0.0000 Br  0  0  0  0  0  0  0  0  0  0  0  0
    1.5189    1.9867    0.0000 C   0  0  0  0  0  0  0  0  0  0  0  0
    1.4326    2.8071    0.0000 Br  0  0  0  0  0  0  0  0  0  0  0  0
    2.2725    1.6511    0.0000 C   0  0  0  0  0  0  0  0  0  0  0  0
    3.1987    1.9867    0.0000 C   0  0  0  0  0  0  0  0  0  0  0  0
    3.8661    1.5017    0.0000 C   0  0  0  0  0  0  0  0  0  0  0  0
    3.7799    0.6813    0.0000 C   0  0  0  0  0  0  0  0  0  0  0  0
    3.0262    0.3457    0.0000 N   0  0  0  0  0  0  0  0  0  0  0  0
    2.7713   -0.4389    0.0000 C   0  0  0  0  0  0  0  0  0  0  0  0
    1.9463   -0.4389    0.0000 N   0  0  0  0  0  0  0  0  0  0  0  0
    1.6913    0.3457    0.0000 C   0  0  0  0  0  0  0  0  0  0  0  0
    2.3588    0.8306    0.0000 C   0  0  0  0  0  0  0  0  0  0  0  0
    3.2562   -1.1064    0.0000 N   0  0  0  0  0  0  0  0  0  0  0  0
    4.0767   -1.0201    0.0000 C   0  0  0  0  0  0  0  0  0  0  0  0
    4.5616   -1.6876    0.0000 C   0  0  0  0  0  0  0  0  0  0  0  0
    4.2260   -2.4412    0.0000 N   0  0  0  0  0  0  0  0  0  0  0  0
    3.4056   -2.5275    0.0000 C   0  0  0  0  0  0  0  0  0  0  0  0
    2.9206   -1.8600    0.0000 C   0  0  0  0  0  0  0  0  0  0  0  0
  1  2  1  0
  2  3  2  0
  2 14  1  0
  3  4  1  0
  3  5  1  0
  5  6  1  0
  5  7  2  0
  7  8  1  0
  7 15  1  0
  8  9  1  0
  9 10  1  0
 10 11  1  0
 11 12  1  0
 11 15  1  0
 12 13  2  0
 12 16  1  0
 13 14  1  0
 14 15  2  0
 16 17  1  0
 16 21  1  0
 17 18  1  0
 18 19  1  0
 19 20  1  0
 20 21  1  0
M  END
>  <DRUGBANK_ID>  (1) 
DB18107

>  <COMMON_NAME>  (1) 
SEL120-34A free base

>  <CAS_NUMBER>  (1) 
1609522-33-9

>  <UNII>  (1) 
6LGR0RYY5Q

>  <SYNONYMS>  (1) 
4h-imidazo(4,5,1-ij)quinoline, 7,8-dibromo-5,6-dihydro-9-methyl-2-(1-piperazinyl)-; 7,8-DIBROMO-5,6-DIHYDRO-9-METHYL-2-(1-PIPERAZINYL)-4H-IMIDAZO(4,5,1-IJ)QUINOLINE; Cdk8-in-2 free base

$$$$
