
     RDKit          2D

 18 19  0  0  0  0  0  0  0  0999 V2000
    3.8355    0.2062    0.0000 O   0  0  0  0  0  0  0  0  0  0  0  0
    3.1210   -1.0312    0.0000 O   0  0  0  0  0  0  0  0  0  0  0  0
    3.1210   -0.2062    0.0000 C   0  0  0  0  0  0  0  0  0  0  0  0
    2.4065    0.2062    0.0000 C   0  0  0  0  0  0  0  0  0  0  0  0
    1.6921   -0.2062    0.0000 S   0  0  0  0  0  0  0  0  0  0  0  0
    0.9776    0.2062    0.0000 C   0  0  0  0  0  0  0  0  0  0  0  0
    0.3102   -0.2786    0.0000 O   0  0  0  0  0  0  0  0  0  0  0  0
   -0.1023    0.9908    0.0000 N   0  0  0  0  0  0  0  0  0  0  0  0
    0.7227    0.9908    0.0000 N   0  0  0  0  0  0  0  0  0  0  0  0
   -0.3572    0.2062    0.0000 C   0  0  0  0  0  0  0  0  0  0  0  0
   -1.0716   -0.2062    0.0000 C   0  0  0  0  0  0  0  0  0  0  0  0
   -2.1517   -0.9908    0.0000 C   0  0  0  0  0  0  0  0  0  0  0  0
   -1.3266   -0.9908    0.0000 C   0  0  0  0  0  0  0  0  0  0  0  0
   -1.7392    0.2786    0.0000 O   0  0  0  0  0  0  0  0  0  0  0  0
   -2.4066   -0.2062    0.0000 C   0  0  0  0  0  0  0  0  0  0  0  0
   -3.1211    1.0312    0.0000 O   0  0  0  0  0  0  0  0  0  0  0  0
   -3.1211    0.2062    0.0000 N   0  0  0  0  0  0  0  0  0  0  0  0
   -3.8355   -0.2062    0.0000 O   0  0  0  0  0  0  0  0  0  0  0  0
  3  1  1  0
  3  2  2  0
  3  4  1  0
  4  5  1  0
  5  6  1  0
  6  9  2  0
  7  6  1  0
  7 10  1  0
  8 10  2  0
  9  8  1  0
 10 11  1  0
 12 13  1  0
 13 11  2  0
 14 11  1  0
 14 15  1  0
 15 12  2  0
 15 17  1  0
 17 16  2  0
 17 18  1  0
M  CHG  2  17   1  18  -1
M  END
>  <DRUGBANK_ID>  (1) 
DB08098

>  <COMMON_NAME>  (1) 
{[5-(5-nitro-2-furyl)-1,3,4-oxadiazol-2-yl]thio}acetic acid

$$$$
