
     RDKit          2D

 22 25  0  0  0  0  0  0  0  0999 V2000
    0.5124   -0.8668    0.0000 C   0  0  0  0  0  0  0  0  0  0  0  0
    0.7927   -0.0908    0.0000 C   0  0  0  0  0  0  0  0  0  0  0  0
    1.3245   -0.7215    0.0000 C   0  0  0  0  0  0  0  0  0  0  0  0
    2.1366   -0.5763    0.0000 C   0  0  0  0  0  0  0  0  0  0  0  0
    2.4169    0.1995    0.0000 C   0  0  0  0  0  0  0  0  0  0  0  0
    1.8851    0.8302    0.0000 C   0  0  0  0  0  0  0  0  0  0  0  0
    1.0730    0.6850    0.0000 C   0  0  0  0  0  0  0  0  0  0  0  0
    0.5412    1.3157    0.0000 C   0  0  0  0  0  0  0  0  0  0  0  0
   -0.2709    1.1705    0.0000 C   0  0  0  0  0  0  0  0  0  0  0  0
   -0.5512    0.3946    0.0000 C   0  0  0  0  0  0  0  0  0  0  0  0
   -0.0193   -0.2361    0.0000 C   0  0  0  0  0  0  0  0  0  0  0  0
   -0.2996   -1.0120    0.0000 C   0  0  0  0  0  0  0  0  0  0  0  0
   -1.1118   -1.1572    0.0000 C   0  0  0  0  0  0  0  0  0  0  0  0
   -1.6436   -0.5265    0.0000 C   0  0  0  0  0  0  0  0  0  0  0  0
   -1.3633    0.2493    0.0000 C   0  0  0  0  0  0  0  0  0  0  0  0
   -2.0146    0.7557    0.0000 C   0  0  0  0  0  0  0  0  0  0  0  0
   -2.6975    0.2927    0.0000 C   0  0  0  0  0  0  0  0  0  0  0  0
   -2.4681   -0.4997    0.0000 C   0  0  0  0  0  0  0  0  0  0  0  0
   -3.2290   -0.8186    0.0000 C   0  0  0  0  0  0  0  0  0  0  0  0
   -2.5896   -1.3157    0.0000 O   0  0  0  0  0  0  0  0  0  0  0  0
   -2.0035   -1.2689    0.0000 C   0  0  0  0  0  0  0  0  0  0  0  0
    3.2290    0.3447    0.0000 O   0  0  0  0  0  0  0  0  0  0  0  0
  2  1  1  1
  2  3  1  0
  2  7  1  0
  2 11  1  0
  3  4  1  0
  4  5  1  0
  5  6  1  0
  5 22  1  1
  6  7  2  0
  7  8  1  0
  8  9  1  0
 10  9  1  6
 10 11  1  0
 10 15  1  0
 11 12  1  1
 12 13  1  0
 13 14  1  0
 14 15  1  0
 14 18  1  0
 14 21  1  1
 15 16  1  1
 16 17  1  0
 17 18  1  0
 18 19  1  6
 18 20  1  0
M  END
>  <DRUGBANK_ID>  (1) 
DB01474

>  <COMMON_NAME>  (1) 
17alpha-methyl-3beta,17beta-dihydroxyandrost-4-ene

>  <CAS_NUMBER>  (1) 
571-03-9

>  <UNII>  (1) 
83255K3MTP

>  <SYNONYMS>  (1) 
17-Methylandrost-4-ene-3beta,17beta-diol

$$$$
