
     RDKit          2D

 34 37  0  0  0  0  0  0  0  0999 V2000
   -1.2115   -2.8435    0.0000 C   0  0  0  0  0  0  0  0  0  0  0  0
   -3.1483    3.7707    0.0000 C   0  0  0  0  0  0  0  0  0  0  0  0
   -0.5614   -2.3356    0.0000 C   0  0  0  0  0  0  0  0  0  0  0  0
   -2.4338    3.3582    0.0000 C   0  0  0  0  0  0  0  0  0  0  0  0
    2.9240   -0.1578    0.0000 C   0  0  0  0  0  0  0  0  0  0  0  0
    2.2244    0.2792    0.0000 C   0  0  0  0  0  0  0  0  0  0  0  0
    2.8952   -0.9823    0.0000 C   0  0  0  0  0  0  0  0  0  0  0  0
    3.1483   -3.0639    0.0000 C   0  0  0  0  0  0  0  0  0  0  0  0
    3.0335   -2.2469    0.0000 C   0  0  0  0  0  0  0  0  0  0  0  0
    1.4959   -0.1080    0.0000 C   0  0  0  0  0  0  0  0  0  0  0  0
    2.1668   -1.3696    0.0000 C   0  0  0  0  0  0  0  0  0  0  0  0
    2.4982   -3.5718    0.0000 C   0  0  0  0  0  0  0  0  0  0  0  0
    2.2686   -1.9379    0.0000 C   0  0  0  0  0  0  0  0  0  0  0  0
    1.0743   -0.5661    0.0000 C   0  0  0  0  0  0  0  0  0  0  0  0
   -0.0817   -1.4060    0.0000 C   0  0  0  0  0  0  0  0  0  0  0  0
    0.5894    0.1012    0.0000 C   0  0  0  0  0  0  0  0  0  0  0  0
   -0.5666   -0.7386    0.0000 C   0  0  0  0  0  0  0  0  0  0  0  0
   -0.7159    0.6824    0.0000 C   0  0  0  0  0  0  0  0  0  0  0  0
   -1.5364    0.5962    0.0000 C   0  0  0  0  0  0  0  0  0  0  0  0
    1.4672   -0.9325    0.0000 C   0  0  0  0  0  0  0  0  0  0  0  0
    1.7333   -3.2628    0.0000 C   0  0  0  0  0  0  0  0  0  0  0  0
    1.6185   -2.4458    0.0000 C   0  0  0  0  0  0  0  0  0  0  0  0
    0.2034   -2.6447    0.0000 C   0  0  0  0  0  0  0  0  0  0  0  0
   -1.7664    2.0483    0.0000 C   0  0  0  0  0  0  0  0  0  0  0  0
    0.7387   -1.3198    0.0000 C   0  0  0  0  0  0  0  0  0  0  0  0
    1.0832   -3.7707    0.0000 F   0  0  0  0  0  0  0  0  0  0  0  0
   -3.1013    2.0483    0.0000 N   0  0  0  0  0  0  0  0  0  0  0  0
   -2.8463    1.2636    0.0000 N   0  0  0  0  0  0  0  0  0  0  0  0
   -0.2310    0.0150    0.0000 N   0  0  0  0  0  0  0  0  0  0  0  0
   -2.4338    2.5332    0.0000 N   0  0  0  0  0  0  0  0  0  0  0  0
   -2.0213    1.2636    0.0000 N   0  0  0  0  0  0  0  0  0  0  0  0
    0.8535   -2.1367    0.0000 N   0  0  0  0  0  0  0  0  0  0  0  0
    0.3182   -3.4616    0.0000 O   0  0  0  0  0  0  0  0  0  0  0  0
   -0.9818    2.3032    0.0000 O   0  0  0  0  0  0  0  0  0  0  0  0
  3  1  1  0
  4  2  1  0
  6  5  2  0
  7  5  1  0
  9  8  2  0
 10  6  1  0
 11  7  2  0
 12  8  1  0
 13  9  1  0
 16 14  1  0
 17 15  1  0
 19 18  1  0
 20 10  2  0
 20 11  1  0
 21 12  2  0
 22 13  2  0
 22 21  1  0
 23  3  1  0
 25 14  1  0
 25 15  1  0
 25 20  1  0
 26 21  1  0
 28 27  2  0
 29 16  1  0
 29 17  1  0
 29 18  1  0
 30  4  1  0
 30 24  1  0
 30 27  1  0
 31 19  1  0
 31 24  1  0
 31 28  1  0
 32 22  1  0
 32 23  1  0
 32 25  1  0
 33 23  2  0
 34 24  2  0
M  END
>  <DRUGBANK_ID>  (1) 
DB09181

>  <COMMON_NAME>  (1) 
Trefentanil

>  <CAS_NUMBER>  (1) 
120656-74-8

>  <UNII>  (1) 
36QM58LVGU

>  <SYNONYMS>  (1) 
Trefentanil

$$$$
