
     RDKit          2D

 14 14  0  0  0  0  0  0  0  0999 V2000
    1.4226    1.0439    0.0000 C   0  0  0  0  0  0  0  0  0  0  0  0
    1.4274    0.2189    0.0000 O   0  0  0  0  0  0  0  0  0  0  0  0
    0.7028    1.4618    0.0000 C   0  0  0  0  0  0  0  0  0  0  0  0
    2.1414    1.4488    0.0000 O   0  0  0  0  0  0  0  0  0  0  0  0
   -0.7234   -0.2112    0.0000 C   0  0  0  0  0  0  0  0  0  0  0  0
   -1.4346    0.2070    0.0000 C   0  0  0  0  0  0  0  0  0  0  0  0
   -0.0124    0.2070    0.0000 C   0  0  0  0  0  0  0  0  0  0  0  0
   -0.0124    1.0435    0.0000 O   0  0  0  0  0  0  0  0  0  0  0  0
   -1.4346    1.0435    0.0000 O   0  0  0  0  0  0  0  0  0  0  0  0
   -2.1414   -0.2112    0.0000 N   0  0  0  0  0  0  0  0  0  0  0  0
   -0.7234   -1.0477    0.0000 C   0  0  0  0  0  0  0  0  0  0  0  0
    0.6985   -0.2112    0.0000 C   0  0  0  0  0  0  0  0  0  0  0  0
   -0.0124   -1.4618    0.0000 C   0  0  0  0  0  0  0  0  0  0  0  0
    0.6985   -1.0477    0.0000 C   0  0  0  0  0  0  0  0  0  0  0  0
  1  3  1  0
  2  1  2  0
  4  1  1  0
  6  5  1  0
  7  5  2  0
  8  7  1  0
  8  3  1  0
  9  6  2  0
 10  6  1  0
 11  5  1  0
 12  7  1  0
 12 14  2  0
 13 11  2  0
 14 13  1  0
M  END
>  <DRUGBANK_ID>  (1) 
DB16000

>  <COMMON_NAME>  (1) 
Salicylamide O-acetic acid

>  <CAS_NUMBER>  (1) 
25395-22-6

>  <UNII>  (1) 
5LB8V0RHJV

>  <SYNONYMS>  (1) 
2-Carbamoylphenoxyacetic acid; Salamidacetic acid; Salicylamide-2-acetic acid

$$$$
