
     RDKit          2D

 19 20  0  0  0  0  0  0  0  0999 V2000
    2.9165   -1.8043    0.0000 O   0  0  0  0  0  0  0  0  0  0  0  0
    2.5040   -1.0898    0.0000 C   0  0  0  0  0  0  0  0  0  0  0  0
    2.9165   -0.3753    0.0000 O   0  0  0  0  0  0  0  0  0  0  0  0
    1.6790   -1.0898    0.0000 C   0  0  0  0  0  0  0  0  0  0  0  0
    1.2665   -0.3753    0.0000 C   0  0  0  0  0  0  0  0  0  0  0  0
    1.6790    0.3390    0.0000 O   0  0  0  0  0  0  0  0  0  0  0  0
    0.4415   -0.3753    0.0000 C   0  0  0  0  0  0  0  0  0  0  0  0
   -0.0433   -1.0428    0.0000 C   0  0  0  0  0  0  0  0  0  0  0  0
    0.2115   -1.8274    0.0000 C   0  0  0  0  0  0  0  0  0  0  0  0
   -0.8279   -0.7878    0.0000 O   0  0  0  0  0  0  0  0  0  0  0  0
   -0.8279    0.0371    0.0000 C   0  0  0  0  0  0  0  0  0  0  0  0
   -0.0433    0.2920    0.0000 N   0  0  0  0  0  0  0  0  0  0  0  0
   -1.4954    0.5220    0.0000 C   0  0  0  0  0  0  0  0  0  0  0  0
   -2.2491    0.1864    0.0000 C   0  0  0  0  0  0  0  0  0  0  0  0
   -2.9165    0.6714    0.0000 C   0  0  0  0  0  0  0  0  0  0  0  0
   -2.8303    1.4918    0.0000 C   0  0  0  0  0  0  0  0  0  0  0  0
   -2.0766    1.8274    0.0000 C   0  0  0  0  0  0  0  0  0  0  0  0
   -1.4091    1.3425    0.0000 C   0  0  0  0  0  0  0  0  0  0  0  0
   -0.6555    1.6780    0.0000 O   0  0  0  0  0  0  0  0  0  0  0  0
  1  2  1  0
  2  3  2  0
  2  4  1  0
  5  4  1  0
  5  6  1  6
  7  5  1  0
  7  8  1  0
  7 12  1  1
  8  9  1  6
  8 10  1  0
 10 11  1  0
 11 12  2  0
 11 13  1  0
 13 14  2  0
 13 18  1  0
 14 15  1  0
 15 16  2  0
 16 17  1  0
 17 18  2  0
 18 19  1  0
M  END
>  <DRUGBANK_ID>  (1) 
DB15553

>  <COMMON_NAME>  (1) 
Leptazoline C

$$$$
