
     RDKit          2D

 22 23  0  0  0  0  0  0  0  0999 V2000
    4.2365   -4.7439    0.0000 F   0  0  0  0  0  0  0  0  0  0  0  0
    4.2365    3.5063    0.0000 O   0  0  0  0  0  0  0  0  0  0  0  0
    4.9509    2.2688    0.0000 O   0  0  0  0  0  0  0  0  0  0  0  0
    3.5220   -1.0313    0.0000 N   0  0  0  0  0  0  0  0  0  0  0  0
    3.5220    2.2688    0.0000 N   0  0  0  0  0  0  0  0  0  0  0  0
    2.0930    1.4438    0.0000 N   0  0  0  0  0  0  0  0  0  0  0  0
    4.2365   -1.4438    0.0000 C   0  0  0  0  0  0  0  0  0  0  0  0
    3.5220   -0.2063    0.0000 C   0  0  0  0  0  0  0  0  0  0  0  0
    4.2365   -2.2688    0.0000 C   0  0  0  0  0  0  0  0  0  0  0  0
    3.5220    1.4438    0.0000 C   0  0  0  0  0  0  0  0  0  0  0  0
    2.8075    0.2063    0.0000 C   0  0  0  0  0  0  0  0  0  0  0  0
    2.8075    1.0313    0.0000 C   0  0  0  0  0  0  0  0  0  0  0  0
    4.2365    0.2063    0.0000 C   0  0  0  0  0  0  0  0  0  0  0  0
    4.2365    1.0313    0.0000 C   0  0  0  0  0  0  0  0  0  0  0  0
    4.9509   -2.6813    0.0000 C   0  0  0  0  0  0  0  0  0  0  0  0
    3.5220   -2.6813    0.0000 C   0  0  0  0  0  0  0  0  0  0  0  0
    4.9509   -3.5063    0.0000 C   0  0  0  0  0  0  0  0  0  0  0  0
    3.5220   -3.5063    0.0000 C   0  0  0  0  0  0  0  0  0  0  0  0
    4.2365   -3.9188    0.0000 C   0  0  0  0  0  0  0  0  0  0  0  0
    4.2365    2.6813    0.0000 C   0  0  0  0  0  0  0  0  0  0  0  0
    4.9509    3.9188    0.0000 C   0  0  0  0  0  0  0  0  0  0  0  0
    4.9509    4.7439    0.0000 C   0  0  0  0  0  0  0  0  0  0  0  0
  1 19  1  0
  2 20  1  0
  2 21  1  0
  3 20  2  0
  4  7  1  0
  4  8  1  0
  5 10  1  0
  5 20  1  0
  6 12  1  0
  7  9  1  0
  8 11  2  0
  8 13  1  0
  9 15  2  0
  9 16  1  0
 10 12  2  0
 10 14  1  0
 11 12  1  0
 13 14  2  0
 15 17  1  0
 16 18  2  0
 17 19  2  0
 18 19  1  0
 21 22  1  0
M  END
>  <DRUGBANK_ID>  (1) 
DB04953

>  <COMMON_NAME>  (1) 
Ezogabine

>  <CAS_NUMBER>  (1) 
150812-12-7

>  <UNII>  (1) 
12G01I6BBU

>  <SYNONYMS>  (1) 
ethyl {2-amino-4-[(4-fluorobenzyl)amino]phenyl}carbamate; Ethyl 2-amino-4-((p-fluorobenzyl)amino)carbanilate; EZG; Ezogabine; N-(2-Amino-4-(4-fluorobenzylamino)-phenyl) carbamic acid ethyl ester; N-(2-Amino-4-(4-fluorobenzylamino)phenyl)carbamic acid ethyl ester; Retigabina; Retigabine; RTG

$$$$
