
     RDKit          2D

 28 29  0  0  0  0  0  0  0  0999 V2000
   -0.8166   -6.9599    0.0000 C   0  0  0  0  0  0  0  0  0  0  0  0
   -0.1021   -7.3724    0.0000 C   0  0  0  0  0  0  0  0  0  0  0  0
    0.6124   -6.9599    0.0000 C   0  0  0  0  0  0  0  0  0  0  0  0
    1.3268   -7.3724    0.0000 C   0  0  0  0  0  0  0  0  0  0  0  0
    2.0413   -6.9599    0.0000 O   0  0  0  0  0  0  0  0  0  0  0  0
    2.7558   -7.3724    0.0000 C   0  0  0  0  0  0  0  0  0  0  0  0
    3.4703   -6.9599    0.0000 C   0  0  0  0  0  0  0  0  0  0  0  0
    3.4703   -6.1349    0.0000 O   0  0  0  0  0  0  0  0  0  0  0  0
    4.1847   -5.7224    0.0000 C   0  0  0  0  0  0  0  0  0  0  0  0
    4.1847   -7.3724    0.0000 C   0  0  0  0  0  0  0  0  0  0  0  0
    4.1847   -8.1974    0.0000 C   0  0  0  0  0  0  0  0  0  0  0  0
    3.4703   -8.6099    0.0000 C   0  0  0  0  0  0  0  0  0  0  0  0
    2.7558   -8.1974    0.0000 C   0  0  0  0  0  0  0  0  0  0  0  0
    2.0413   -8.6099    0.0000 O   0  0  0  0  0  0  0  0  0  0  0  0
    1.3268   -8.1974    0.0000 C   0  0  0  0  0  0  0  0  0  0  0  0
    4.8992   -8.6099    0.0000 C   0  0  0  0  0  0  0  0  0  0  0  0
    4.8992   -9.4349    0.0000 O   0  0  0  0  0  0  0  0  0  0  0  0
    5.6137   -8.1974    0.0000 N   0  0  0  0  0  0  0  0  0  0  0  0
    6.3281   -8.6099    0.0000 C   0  0  0  0  0  0  0  0  0  0  0  0
    7.0426   -8.1974    0.0000 C   0  0  0  0  0  0  0  0  0  0  0  0
    7.5729   -7.5655    0.0000 C   0  0  0  0  0  0  0  0  0  0  0  0
    8.3854   -7.7087    0.0000 C   0  0  0  0  0  0  0  0  0  0  0  0
    8.6675   -8.4840    0.0000 O   0  0  0  0  0  0  0  0  0  0  0  0
    8.1372   -9.1159    0.0000 C   0  0  0  0  0  0  0  0  0  0  0  0
    7.3248   -8.9727    0.0000 C   0  0  0  0  0  0  0  0  0  0  0  0
    6.5123   -7.5655    0.0000 N   0  0  0  0  0  0  0  0  0  0  0  0
    6.7945   -6.7902    0.0000 C   0  0  0  0  0  0  0  0  0  0  0  0
    5.6998   -7.7087    0.0000 C   0  0  0  0  0  0  0  0  0  0  0  0
  1  2  1  0
  2  3  1  0
  3  4  1  0
  4  5  1  0
  5  6  1  0
  6  7  2  0
  6 13  1  0
  7  8  1  0
  7 10  1  0
  8  9  1  0
 10 11  2  0
 11 12  1  0
 11 16  1  0
 12 13  2  0
 13 14  1  0
 14 15  1  0
 16 17  2  0
 16 18  1  0
 18 19  1  0
 19 20  1  0
 20 21  1  0
 20 25  1  0
 20 26  1  0
 21 22  1  0
 22 23  1  0
 23 24  1  0
 24 25  1  0
 26 27  1  0
 26 28  1  0
M  END
>  <DRUGBANK_ID>  (1) 
DB16271

>  <COMMON_NAME>  (1) 
Opiranserin

>  <CAS_NUMBER>  (1) 
1441000-45-8

>  <UNII>  (1) 
AP031EC2NI

>  <SYNONYMS>  (1) 
Opiranserin; Vvz-149 free base

$$$$
