
     RDKit          2D

  8  9  0  0  1  0  0  0  0  0999 V2000
    0.1351   -2.0602    0.0000 C   0  0  0  0  0  0  0  0  0  0  0  0
    0.5004   -1.3997    0.0000 C   0  0  0  0  0  0  0  0  0  0  0  0
    0.9807   -0.1341    0.0000 C   0  0  0  0  0  0  0  0  0  0  0  0
    1.6411   -2.0402    0.0000 C   0  0  0  0  0  0  0  0  0  0  0  0
    0.9106   -1.6699    0.0000 C   0  0  0  0  0  0  0  0  0  0  0  0
    1.1407   -0.9495    0.0000 C   0  0  0  0  0  0  0  0  0  0  0  0
    1.9362   -1.4148    0.0000 C   0  0  0  0  0  0  0  0  0  0  0  0
    2.7243   -1.1707    0.0000 O   0  0  0  0  0  0  0  0  0  0  0  0
  2  1  1  0
  5  1  1  1
  5  3  1  0
  5  4  1  0
  6  2  1  6
  6  3  1  0
  7  4  1  0
  7  6  1  0
  8  7  2  0
M  END
>  <DRUGBANK_ID>  (1) 
DB03540

>  <SECONDARY_ACCESSION_NUMBERS>  (1) 
EXPT02311

>  <COMMON_NAME>  (1) 
Norcamphor

$$$$
