
     RDKit          2D

 16 17  0  0  0  0  0  0  0  0999 V2000
    3.2635   -0.5542    0.0000 O   0  0  0  0  0  0  0  0  0  0  0  0
    2.6504   -0.0021    0.0000 N   0  0  0  0  0  0  0  0  0  0  0  0
    2.8219    0.8047    0.0000 O   0  0  0  0  0  0  0  0  0  0  0  0
    1.8658   -0.2571    0.0000 C   0  0  0  0  0  0  0  0  0  0  0  0
    1.6109   -1.0417    0.0000 C   0  0  0  0  0  0  0  0  0  0  0  0
    0.7859   -1.0417    0.0000 C   0  0  0  0  0  0  0  0  0  0  0  0
    0.5309   -0.2571    0.0000 C   0  0  0  0  0  0  0  0  0  0  0  0
    1.1984    0.2277    0.0000 O   0  0  0  0  0  0  0  0  0  0  0  0
   -0.2536   -0.0021    0.0000 C   0  0  0  0  0  0  0  0  0  0  0  0
   -0.8667   -0.5542    0.0000 N   0  0  0  0  0  0  0  0  0  0  0  0
   -1.6513   -0.2992    0.0000 N   0  0  0  0  0  0  0  0  0  0  0  0
   -2.3188   -0.7842    0.0000 C   0  0  0  0  0  0  0  0  0  0  0  0
   -2.9862   -0.2992    0.0000 C   0  0  0  0  0  0  0  0  0  0  0  0
   -2.7313    0.4853    0.0000 O   0  0  0  0  0  0  0  0  0  0  0  0
   -1.9063    0.4853    0.0000 C   0  0  0  0  0  0  0  0  0  0  0  0
   -1.4213    1.1527    0.0000 O   0  0  0  0  0  0  0  0  0  0  0  0
  1  2  1  0
  2  3  2  0
  2  4  1  0
  4  5  2  0
  4  8  1  0
  5  6  1  0
  6  7  2  0
  7  8  1  0
  7  9  1  0
  9 10  2  0
 10 11  1  0
 11 12  1  0
 11 15  1  0
 12 13  1  0
 13 14  1  0
 14 15  1  0
 15 16  2  0
M  CHG  2   1  -1   2   1
M  END
>  <DRUGBANK_ID>  (1) 
DB00614

>  <SECONDARY_ACCESSION_NUMBERS>  (1) 
APRD00988

>  <COMMON_NAME>  (1) 
Furazolidone

>  <CAS_NUMBER>  (1) 
67-45-8

>  <UNII>  (1) 
5J9CPU3RE0

>  <SYNONYMS>  (1) 
3-(5'-Nitrofurfuralamino)-2-oxazolidone; 3-[(5-Nitrofurfurylidene)amino]-2-oxazolidinone; 3-[(5-Nitrofurfurylidene)amino]-2-oxazolidone; 3-[(5-Nitrofurylidene)amino]-2-oxazolidone; 3-{[(5-nitro-2-furanyl)methylene]amino}-2-oxazolidinone; 5-Nitro-N-(2-oxo-3-oxazolidinyl)-2-furanmethanimine; Furazolidona; Furazolidone; Furazolidonum; FZL; N-(5-Nitro-2-furfurylidene)-3-amino-2-oxazolidone; N-(5-Nitro-2-furfurylidene)-3-aminooxazolidine-2-one; Nitrofurazolidone; Nitrofurazolidonum

$$$$
