
     RDKit          2D

 21 21  0  0  0  0  0  0  0  0999 V2000
    1.6725   -1.2028    0.0000 O   0  0  0  0  0  0  0  0  0  0  0  0
    1.4193   -0.4231    0.0000 C   0  0  0  0  0  0  0  0  0  0  0  0
    1.9057    0.2432    0.0000 C   0  0  0  0  0  0  0  0  0  0  0  0
    2.6187    0.6563    0.0000 C   0  0  0  0  0  0  0  0  0  0  0  0
    2.2056    1.3759    0.0000 O   0  0  0  0  0  0  0  0  0  0  0  0
    3.3318    1.0694    0.0000 C   0  0  0  0  0  0  0  0  0  0  0  0
    3.3318    1.8957    0.0000 O   0  0  0  0  0  0  0  0  0  0  0  0
    1.4193    0.9162    0.0000 O   0  0  0  0  0  0  0  0  0  0  0  0
    0.6330    0.6563    0.0000 C   0  0  0  0  0  0  0  0  0  0  0  0
   -0.0333    1.1427    0.0000 O   0  0  0  0  0  0  0  0  0  0  0  0
    0.6330   -0.1632    0.0000 C   0  0  0  0  0  0  0  0  0  0  0  0
   -0.0333   -0.6496    0.0000 O   0  0  0  0  0  0  0  0  0  0  0  0
   -1.6859   -1.1827    0.0000 C   0  0  0  0  0  0  0  0  0  0  0  0
   -2.0923   -0.4698    0.0000 C   0  0  0  0  0  0  0  0  0  0  0  0
   -1.6859    0.2432    0.0000 C   0  0  0  0  0  0  0  0  0  0  0  0
   -2.0923    0.9628    0.0000 C   0  0  0  0  0  0  0  0  0  0  0  0
   -2.9185    0.9628    0.0000 C   0  0  0  0  0  0  0  0  0  0  0  0
   -3.3318    0.2432    0.0000 N   0  0  0  0  0  0  0  0  0  0  0  0
   -2.9185   -0.4698    0.0000 C   0  0  0  0  0  0  0  0  0  0  0  0
   -2.0923   -1.8957    0.0000 O   0  0  0  0  0  0  0  0  0  0  0  0
   -0.8596   -1.1827    0.0000 N   0  0  0  0  0  0  0  0  0  0  0  0
  1  2  1  0
  2  3  1  0
  2 11  2  0
  3  4  1  0
  3  8  1  6
  4  5  1  6
  4  6  1  0
  6  7  1  0
  8  9  1  0
  9 10  2  0
  9 11  1  0
 11 12  1  0
 13 14  1  0
 13 20  2  0
 13 21  1  0
 14 15  2  0
 14 19  1  0
 15 16  1  0
 16 17  2  0
 17 18  1  0
 18 19  2  0
M  END
>  <DRUGBANK_ID>  (1) 
DB14486

>  <SECONDARY_ACCESSION_NUMBERS>  (1) 
DBSALT002426

>  <COMMON_NAME>  (1) 
Niacinamide ascorbate

>  <CAS_NUMBER>  (1) 
1987-71-9

>  <UNII>  (1) 
JTL8B7TVW7

>  <SYNONYMS>  (1) 
Ascorbic acid nicotinamide complex; Niacinamide ascorbate; Nicotinamide-ascorbic acid complex

$$$$
