
     RDKit          2D

 31 34  0  0  0  0  0  0  0  0999 V2000
    4.5700   -2.3952    0.0000 C   0  0  0  0  0  0  0  0  0  0  0  0
    4.5720   -1.7351    0.0000 O   0  0  0  0  0  0  0  0  0  0  0  0
    3.8586   -1.3198    0.0000 C   0  0  0  0  0  0  0  0  0  0  0  0
    3.8599   -0.4948    0.0000 C   0  0  0  0  0  0  0  0  0  0  0  0
    3.1461   -0.0811    0.0000 C   0  0  0  0  0  0  0  0  0  0  0  0
    2.4309   -0.4925    0.0000 C   0  0  0  0  0  0  0  0  0  0  0  0
    2.4297   -1.3176    0.0000 C   0  0  0  0  0  0  0  0  0  0  0  0
    3.1435   -1.7312    0.0000 N   0  0  0  0  0  0  0  0  0  0  0  0
    1.7161   -0.0797    0.0000 C   0  0  0  0  0  0  0  0  0  0  0  0
    1.7161    0.7451    0.0000 C   0  0  0  0  0  0  0  0  0  0  0  0
    1.0016    1.1577    0.0000 C   0  0  0  0  0  0  0  0  0  0  0  0
    1.0016    1.9826    0.0000 C   0  0  0  0  0  0  0  0  0  0  0  0
    1.5732    2.3126    0.0000 C   0  0  0  0  0  0  0  0  0  0  0  0
    0.2871    2.3952    0.0000 N   0  0  0  0  0  0  0  0  0  0  0  0
   -0.4272    1.9826    0.0000 C   0  0  0  0  0  0  0  0  0  0  0  0
   -0.9988    2.3126    0.0000 N   0  0  0  0  0  0  0  0  0  0  0  0
   -0.4272    1.1577    0.0000 N   0  0  0  0  0  0  0  0  0  0  0  0
    0.2872    0.7451    0.0000 C   0  0  0  0  0  0  0  0  0  0  0  0
    0.2872   -0.0797    0.0000 N   0  0  0  0  0  0  0  0  0  0  0  0
   -0.4275   -0.4925    0.0000 C   0  0  0  0  0  0  0  0  0  0  0  0
   -1.1429   -0.0811    0.0000 C   0  0  0  0  0  0  0  0  0  0  0  0
   -1.8566   -0.4948    0.0000 C   0  0  0  0  0  0  0  0  0  0  0  0
   -1.8553   -1.3199    0.0000 C   0  0  0  0  0  0  0  0  0  0  0  0
   -1.1402   -1.7312    0.0000 C   0  0  0  0  0  0  0  0  0  0  0  0
   -0.4263   -1.3176    0.0000 C   0  0  0  0  0  0  0  0  0  0  0  0
   -2.5704   -1.7322    0.0000 O   0  0  0  0  0  0  0  0  0  0  0  0
   -3.2853   -1.3196    0.0000 C   0  0  0  0  0  0  0  0  0  0  0  0
   -4.0004   -1.7320    0.0000 C   0  0  0  0  0  0  0  0  0  0  0  0
   -4.5720   -1.4021    0.0000 O   0  0  0  0  0  0  0  0  0  0  0  0
    1.0016   -0.4923    0.0000 C   0  0  0  0  0  0  0  0  0  0  0  0
    1.0016   -1.1523    0.0000 O   0  0  0  0  0  0  0  0  0  0  0  0
  1  2  1  0
  2  3  1  0
  3  4  2  0
  4  5  1  0
  5  6  2  0
  6  7  1  0
  6  9  1  0
  7  8  2  0
  8  3  1  0
  9 10  2  0
 10 11  1  0
 11 12  2  0
 12 13  1  0
 12 14  1  0
 14 15  2  0
 15 16  1  0
 15 17  1  0
 17 18  2  0
 18 11  1  0
 18 19  1  0
 19 30  1  0
 20 19  1  1
 20 21  1  0
 21 22  1  0
 22 23  1  0
 23 24  1  0
 23 26  1  6
 24 25  1  0
 25 20  1  0
 26 27  1  0
 27 28  1  0
 28 29  1  0
 30  9  1  0
 30 31  2  0
M  END
>  <DRUGBANK_ID>  (1) 
DB11974

>  <COMMON_NAME>  (1) 
PF-04691502

>  <CAS_NUMBER>  (1) 
1013101-36-4

>  <UNII>  (1) 
4W39NS61KI

$$$$
