
     RDKit          2D

 11 10  0  0  0  0  0  0  0  0999 V2000
    2.1434   -0.2062    0.0000 O   0  0  0  0  0  0  0  0  0  0  0  0
    1.4289    0.2062    0.0000 C   0  0  0  0  0  0  0  0  0  0  0  0
   -0.7145   -0.2062    0.0000 C   0  0  0  0  0  0  0  0  0  0  0  0
    0.0000    0.2062    0.0000 C   0  0  0  0  0  0  0  0  0  0  0  0
    0.7145   -0.2062    0.0000 C   0  0  0  0  0  0  0  0  0  0  0  0
   -2.1434   -0.2062    0.0000 N   0  0  0  0  0  0  0  0  0  0  0  0
   -1.4289    0.2062    0.0000 S   0  0  0  0  0  0  0  0  0  0  0  0
    0.7144   -1.0312    0.0000 N   0  0  0  0  0  0  0  0  0  0  0  0
    1.4290    1.0312    0.0000 O   0  0  0  0  0  0  0  0  0  0  0  0
   -1.4289    1.0311    0.0000 O   0  0  0  0  0  0  0  0  0  0  0  0
   -1.4289   -0.6188    0.0000 C   0  0  0  0  0  0  0  0  0  0  0  0
  2  1  1  0
  2  9  2  0
  3  4  1  0
  4  5  1  0
  5  2  1  0
  5  8  1  1
  7  6  2  0
  7  3  1  0
  7 10  2  0
  7 11  1  0
M  END
>  <DRUGBANK_ID>  (1) 
DB14103

>  <COMMON_NAME>  (1) 
Methionine sulfoximine

>  <CAS_NUMBER>  (1) 
15985-39-4

>  <UNII>  (1) 
M9P6YZ6JX9

>  <SYNONYMS>  (1) 
(2S)-2-Amino-4-(S-methylsufonimidoyl)butanoic acid; BUTANOIC ACID, 2-AMINO-4-(S-METHYLSULFONIMIDOYL)-, (2S)-; L-methionine sulfoximine; L-Methionine-S,R-sulfoximine; METHIONINE-DL-SULFOXIMINE; METHIONINE-DL-SULFOXIMINE, L-

$$$$
