
     RDKit          2D

  9  9  0  0  0  0  0  0  0  0999 V2000
    2.1434    1.2375    0.0000 C   0  0  0  0  0  0  0  0  0  0  0  0
    1.4289    0.8250    0.0000 C   0  0  0  0  0  0  0  0  0  0  0  0
    1.4289    0.0000    0.0000 C   0  0  0  0  0  0  0  0  0  0  0  0
    0.7145   -0.4125    0.0000 C   0  0  0  0  0  0  0  0  0  0  0  0
    0.0000    0.0000    0.0000 C   0  0  0  0  0  0  0  0  0  0  0  0
   -0.7145   -0.4125    0.0000 N   0  0  0  0  0  0  0  0  0  0  0  0
    0.0000    0.8250    0.0000 C   0  0  0  0  0  0  0  0  0  0  0  0
    0.7145    1.2375    0.0000 C   0  0  0  0  0  0  0  0  0  0  0  0
    0.7145    2.0625    0.0000 C   0  0  0  0  0  0  0  0  0  0  0  0
  1  2  1  0
  2  3  2  0
  2  8  1  0
  3  4  1  0
  4  5  2  0
  5  6  1  0
  5  7  1  0
  7  8  2  0
  8  9  1  0
M  END
>  <DRUGBANK_ID>  (1) 
DB03018

>  <SECONDARY_ACCESSION_NUMBERS>  (1) 
EXPT00155

>  <COMMON_NAME>  (1) 
3,4-dimethylaniline

>  <CAS_NUMBER>  (1) 
95-64-7

>  <UNII>  (1) 
R27I33AIDT

>  <SYNONYMS>  (1) 
1-amino-3,4-dimethylbenzene; 3,4-dimethylaminobenzene; 3,4-dimethylbenzenamine; 3,4-dimethylbenzene-1-amine; 3,4-dimethylbenzeneamine; 3,4-dimethylphenylamine; 3,4-xylidine; 3,4-xylylamine; 4-amino-1,2-dimethylbenzene; 4-amino-o-xylene

$$$$
