
     RDKit          2D

 28 31  0  0  1  0  0  0  0  0999 V2000
    7.9191    0.7358    0.0000 O   0  0  0  0  0  0  0  0  0  0  0  0
    9.8546   -0.1650    0.0000 O   0  0  0  0  0  0  0  0  0  0  0  0
    9.8576    1.6299    0.0000 O   0  0  0  0  0  0  0  0  0  0  0  0
    8.7047    2.7996    0.0000 O   0  0  0  0  0  0  0  0  0  0  0  0
    8.1466   -0.7167    0.0000 N   0  0  0  0  0  0  0  0  0  0  0  0
    8.1466   -2.0446    0.0000 N   0  0  0  0  0  0  0  0  0  0  0  0
    6.6515   -0.5556    0.0000 N   0  0  0  0  0  0  0  0  0  0  0  0
    4.5080   -0.9681    0.0000 N   0  0  0  0  0  0  0  0  0  0  0  0
    5.2224   -0.5556    0.0000 N   0  0  0  0  0  0  0  0  0  0  0  0
    5.9370   -1.7931    0.0000 N   0  0  0  0  0  0  0  0  0  0  0  0
    6.6515   -3.0306    0.0000 N   0  0  0  0  0  0  0  0  0  0  0  0
    9.1880    0.3211    0.0000 C   0  0  0  0  0  0  0  0  0  0  0  0
    8.4029    0.0675    0.0000 C   0  0  0  0  0  0  0  0  0  0  0  0
    9.1894    1.1461    0.0000 C   0  0  0  0  0  0  0  0  0  0  0  0
    8.4052    1.4024    0.0000 C   0  0  0  0  0  0  0  0  0  0  0  0
    3.0791   -0.9681    0.0000 C   0  0  0  0  0  0  0  0  0  0  0  0
    2.3645   -0.5556    0.0000 C   0  0  0  0  0  0  0  0  0  0  0  0
    3.0791   -1.7931    0.0000 C   0  0  0  0  0  0  0  0  0  0  0  0
    1.6500   -0.9681    0.0000 C   0  0  0  0  0  0  0  0  0  0  0  0
    2.3645   -2.2056    0.0000 C   0  0  0  0  0  0  0  0  0  0  0  0
    1.6500   -1.7931    0.0000 C   0  0  0  0  0  0  0  0  0  0  0  0
    8.1516    2.1875    0.0000 C   0  0  0  0  0  0  0  0  0  0  0  0
    7.3659   -0.9681    0.0000 C   0  0  0  0  0  0  0  0  0  0  0  0
    8.6280   -1.3806    0.0000 C   0  0  0  0  0  0  0  0  0  0  0  0
    3.7935   -0.5556    0.0000 C   0  0  0  0  0  0  0  0  0  0  0  0
    7.3659   -1.7931    0.0000 C   0  0  0  0  0  0  0  0  0  0  0  0
    6.6515   -2.2056    0.0000 C   0  0  0  0  0  0  0  0  0  0  0  0
    5.9370   -0.9681    0.0000 C   0  0  0  0  0  0  0  0  0  0  0  0
  1 13  1  0
  1 15  1  0
  4 22  1  0
  5 23  1  0
  5 24  1  0
  6 24  2  0
  6 26  1  0
  7 23  1  0
  7 28  2  0
  8  9  1  0
  8 25  2  0
  9 28  1  0
 10 27  2  0
 10 28  1  0
 11 27  1  0
 12  2  1  1
 12 13  1  0
 12 14  1  0
 13  5  1  6
 14  3  1  1
 14 15  1  0
 15 22  1  6
 16 17  1  0
 16 18  1  0
 16 25  1  0
 17 19  1  0
 18 20  1  0
 19 21  1  0
 20 21  1  0
 23 26  2  0
 26 27  1  0
M  END
>  <DRUGBANK_ID>  (1) 
DB04853

>  <COMMON_NAME>  (1) 
Binodenoson

>  <CAS_NUMBER>  (1) 
144348-08-3

>  <UNII>  (1) 
LJA4M1L5LG

>  <SYNONYMS>  (1) 
2-((Cyclohexylmethylene)hydrazino)adenosine; Binodenoson

$$$$
