1477
     RDKit          2D

 24 27  0  0  1  0  0  0  0  0999 V2000
    0.0000    2.8384    0.0000 Br  0  0  0  0  0  0  0  0  0  0  0  0
    2.9071    2.6673    0.0000 O   0  0  0  0  0  0  0  0  0  0  0  0
    2.7064    0.5378    0.0000 O   0  0  0  0  0  0  0  0  0  0  0  0
    2.7064    4.7052    0.0000 O   0  0  0  0  0  0  0  0  0  0  0  0
    6.3153    1.7965    0.0000 N   0  0  0  0  0  0  0  0  0  0  0  0
    4.1720    2.2090    0.0000 C   0  0  0  0  0  0  0  0  0  0  0  0
    4.8864    1.7965    0.0000 C   0  0  0  0  0  0  0  0  0  0  0  0
    5.6009    2.2090    0.0000 C   0  0  0  0  0  0  0  0  0  0  0  0
    4.6487    2.8140    0.0000 C   0  0  0  0  0  0  0  0  0  0  0  0
    3.4575    1.7965    0.0000 C   0  0  0  0  0  0  0  0  0  0  0  0
    4.1720    3.0340    0.0000 C   0  0  0  0  0  0  0  0  0  0  0  0
    5.8220    2.8140    0.0000 C   0  0  0  0  0  0  0  0  0  0  0  0
    5.6009    3.0340    0.0000 C   0  0  0  0  0  0  0  0  0  0  0  0
    4.8864    3.4464    0.0000 C   0  0  0  0  0  0  0  0  0  0  0  0
    4.8864    0.9715    0.0000 C   0  0  0  0  0  0  0  0  0  0  0  0
    3.4575    0.9715    0.0000 C   0  0  0  0  0  0  0  0  0  0  0  0
    3.4575    3.4464    0.0000 C   0  0  0  0  0  0  0  0  0  0  0  0
    7.1446    1.5419    0.0000 C   0  0  0  0  0  0  0  0  0  0  0  0
    6.5096    0.9510    0.0000 C   0  0  0  0  0  0  0  0  0  0  0  0
    4.1720    0.5591    0.0000 C   0  0  0  0  0  0  0  0  0  0  0  0
    4.8864    4.2714    0.0000 C   0  0  0  0  0  0  0  0  0  0  0  0
    3.4575    4.2714    0.0000 C   0  0  0  0  0  0  0  0  0  0  0  0
    4.1720    4.6839    0.0000 C   0  0  0  0  0  0  0  0  0  0  0  0
    2.7064    5.5726    0.0000 C   0  0  0  0  0  0  0  0  0  0  0  0
 10  2  1  6
  2 17  1  0
  4 22  1  0
  4 24  1  0
  5  8  1  0
  5 12  1  0
  5 18  1  0
  5 19  1  0
  6  7  1  0
  6  9  1  1
  6 10  1  0
  6 11  1  0
  7  8  1  0
  7 15  1  6
  8 13  1  1
  9 12  1  0
 10 16  1  0
 11 14  2  0
 11 17  1  0
 13 14  1  0
 14 21  1  0
 15 20  2  0
 16  3  1  6
 16 20  1  0
 17 22  2  0
 21 23  2  0
 22 23  1  0
M  CHG  2   1  -1   5   1
M  END
>  <DRUGBANK_ID>  (1) 
DB01477

>  <COMMON_NAME>  (1) 
Codeine methylbromide

>  <CAS_NUMBER>  (1) 
125-27-9

>  <UNII>  (1) 
25007U9T7H

$$$$
