
     RDKit          2D

 27 29  0  0  0  0  0  0  0  0999 V2000
    0.8321    2.8089    0.0000 S   0  0  0  0  0  0  0  0  0  0  0  0
    1.4809    2.2988    0.0000 C   0  0  0  0  0  0  0  0  0  0  0  0
    1.4817    1.4732    0.0000 N   0  0  0  0  0  0  0  0  0  0  0  0
    0.8410    0.9561    0.0000 C   0  0  0  0  0  0  0  0  0  0  0  0
    0.0348    1.1388    0.0000 C   0  0  0  0  0  0  0  0  0  0  0  0
   -0.3090    1.8712    0.0000 C   0  0  0  0  0  0  0  0  0  0  0  0
    0.0151    2.6298    0.0000 C   0  0  0  0  0  0  0  0  0  0  0  0
    2.1919    2.7090    0.0000 C   0  0  0  0  0  0  0  0  0  0  0  0
    2.9077    2.2988    0.0000 C   0  0  0  0  0  0  0  0  0  0  0  0
    2.9104    1.4757    0.0000 C   0  0  0  0  0  0  0  0  0  0  0  0
    2.1974    1.0630    0.0000 C   0  0  0  0  0  0  0  0  0  0  0  0
    2.1963    0.2386    0.0000 C   0  0  0  0  0  0  0  0  0  0  0  0
    2.9137   -0.1753    0.0000 O   0  0  0  0  0  0  0  0  0  0  0  0
    1.4849   -0.1778    0.0000 O   0  0  0  0  0  0  0  0  0  0  0  0
   -0.4754    0.4903    0.0000 N   0  0  0  0  0  0  0  0  0  0  0  0
   -1.3032    0.4732    0.0000 C   0  0  0  0  0  0  0  0  0  0  0  0
   -1.6992   -0.2434    0.0000 C   0  0  0  0  0  0  0  0  0  0  0  0
   -1.2754   -0.9448    0.0000 C   0  0  0  0  0  0  0  0  0  0  0  0
   -1.7330    1.1844    0.0000 O   0  0  0  0  0  0  0  0  0  0  0  0
   -2.5297   -0.2584    0.0000 S   0  0  0  0  0  0  0  0  0  0  0  0
   -1.6778   -1.6703    0.0000 C   0  0  0  0  0  0  0  0  0  0  0  0
   -1.2527   -2.3741    0.0000 C   0  0  0  0  0  0  0  0  0  0  0  0
   -1.6519   -3.0979    0.0000 C   0  0  0  0  0  0  0  0  0  0  0  0
   -2.4821   -3.1166    0.0000 C   0  0  0  0  0  0  0  0  0  0  0  0
   -2.9137   -2.4020    0.0000 C   0  0  0  0  0  0  0  0  0  0  0  0
   -2.5110   -1.6756    0.0000 C   0  0  0  0  0  0  0  0  0  0  0  0
    1.0234    0.1528    0.0000 O   0  0  0  0  0  0  0  0  0  0  0  0
  1  2  1  0
  1  7  1  0
  2  3  1  0
  2  8  1  1
  3  4  1  0
  3 11  1  0
  4  5  1  0
  4 27  2  0
  5  6  1  0
  5 15  1  1
  6  7  1  0
  8  9  1  0
  9 10  1  0
 10 11  1  0
 11 12  1  1
 12 13  2  0
 12 14  1  0
 15 16  1  0
 16 17  1  0
 16 19  2  0
 17 18  1  6
 17 20  1  0
 18 21  1  0
 21 22  2  0
 21 26  1  0
 22 23  1  0
 23 24  2  0
 24 25  1  0
 25 26  2  0
M  END
>  <DRUGBANK_ID>  (1) 
DB00886

>  <SECONDARY_ACCESSION_NUMBERS>  (1) 
APRD00443

>  <COMMON_NAME>  (1) 
Omapatrilat

>  <CAS_NUMBER>  (1) 
167305-00-2

>  <UNII>  (1) 
36NLI90E7T

>  <SYNONYMS>  (1) 
Omapatrilat; Omapatrilate

$$$$
