
     RDKit          2D

  9  8  0  0  0  0  0  0  0  0999 V2000
    1.2375   -0.7145    0.0000 C   0  0  0  0  0  0  0  0  0  0  0  0
    0.8250    0.0000    0.0000 C   0  0  0  0  0  0  0  0  0  0  0  0
   -0.4125   -0.7145    0.0000 C   0  0  0  0  0  0  0  0  0  0  0  0
    0.0000   -1.4289    0.0000 C   0  0  0  0  0  0  0  0  0  0  0  0
    0.0000    0.0000    0.0000 C   0  0  0  0  0  0  0  0  0  0  0  0
   -0.4125   -2.1434    0.0000 C   0  0  0  0  0  0  0  0  0  0  0  0
   -0.4125    0.7145    0.0000 N   0  0  0  0  0  0  0  0  0  0  0  0
    0.0000   -2.8579    0.0000 O   0  0  0  0  0  0  0  0  0  0  0  0
   -1.2375   -2.1434    0.0000 O   0  0  0  0  0  0  0  0  0  0  0  0
  2  1  1  0
  4  3  1  0
  5  2  2  0
  5  3  1  0
  6  4  1  0
  7  5  1  0
  8  6  2  0
  9  6  1  0
M  END
>  <DRUGBANK_ID>  (1) 
DB01699

>  <SECONDARY_ACCESSION_NUMBERS>  (1) 
EXPT01579

>  <COMMON_NAME>  (1) 
(4e)-4-Aminohex-4-Enoic Acid

$$$$
