
     RDKit          2D

 21 23  0  0  0  0  0  0  0  0999 V2000
    1.8047    1.5061    0.0000 N   0  0  0  0  0  0  0  0  0  0  0  0
    1.4955    0.1109    0.0000 N   0  0  0  0  0  0  0  0  0  0  0  0
    2.0530    0.7193    0.0000 C   0  0  0  0  0  0  0  0  0  0  0  0
    0.4418    1.0763    0.0000 C   0  0  0  0  0  0  0  0  0  0  0  0
    0.9991    1.6846    0.0000 C   0  0  0  0  0  0  0  0  0  0  0  0
    0.6901    0.2894    0.0000 C   0  0  0  0  0  0  0  0  0  0  0  0
    0.0184   -0.1897    0.0000 N   0  0  0  0  0  0  0  0  0  0  0  0
   -0.6448    0.3008    0.0000 C   0  0  0  0  0  0  0  0  0  0  0  0
   -0.3830    1.0834    0.0000 C   0  0  0  0  0  0  0  0  0  0  0  0
    0.7510    2.4715    0.0000 N   0  0  0  0  0  0  0  0  0  0  0  0
   -0.8622    1.7550    0.0000 C   0  0  0  0  0  0  0  0  0  0  0  0
   -1.3414    2.4266    0.0000 N   0  0  0  0  0  0  0  0  0  0  0  0
    0.0137   -1.0194    0.0000 C   0  0  0  0  0  0  0  0  0  0  0  0
   -0.2411   -1.8040    0.0000 C   0  0  0  0  0  0  0  0  0  0  0  0
    0.2437   -2.4715    0.0000 O   0  0  0  0  0  0  0  0  0  0  0  0
   -1.0662   -1.8040    0.0000 C   0  0  0  0  0  0  0  0  0  0  0  0
   -1.5511   -2.4715    0.0000 O   0  0  0  0  0  0  0  0  0  0  0  0
   -1.3212   -1.0194    0.0000 C   0  0  0  0  0  0  0  0  0  0  0  0
   -0.6537   -0.5343    0.0000 O   0  0  0  0  0  0  0  0  0  0  0  0
   -1.3332   -0.1951    0.0000 C   0  0  0  0  0  0  0  0  0  0  0  0
   -2.0530    0.2081    0.0000 O   0  0  0  0  0  0  0  0  0  0  0  0
  3  1  2  0
  3  2  1  0
  5  1  1  0
  5  4  2  0
  6  2  2  0
  6  4  1  0
  7  6  1  0
  8  7  1  0
  9  4  1  0
  9  8  2  0
 10  5  1  0
 11  9  1  0
 12 11  3  0
 13  7  1  1
 14 13  1  0
 14 15  1  6
 16 14  1  0
 16 17  1  6
 18 16  1  0
 18 20  1  1
 19 13  1  0
 19 18  1  0
 21 20  1  0
M  END
>  <DRUGBANK_ID>  (1) 
DB13916

>  <COMMON_NAME>  (1) 
Toyocamycin

>  <CAS_NUMBER>  (1) 
606-58-6

>  <UNII>  (1) 
L7995C4D7F

>  <SYNONYMS>  (1) 
4-amino-5-cyano-7-(D-ribofuranosyl)-7H-pyrrolo(2,3-d)pyrimidine; 7-deaza-7-cyanoadenosine; Ahygroscopin-B; Cyanotubericidin; Siromycin; Uramycin B; Vengicide

$$$$
