BIA
     RDKit          2D

 31 33  0  0  0  0  0  0  0  0999 V2000
   -1.5550   -0.3325    0.0000 N   0  0  0  0  0  0  0  0  0  0  0  0
    3.4463    0.9050    0.0000 C   0  0  0  0  0  0  0  0  0  0  0  0
   -2.2695   -1.5700    0.0000 C   0  0  0  0  0  0  0  0  0  0  0  0
    4.8752   -0.7450    0.0000 O   0  0  0  0  0  0  0  0  0  0  0  0
    2.0174    0.9050    0.0000 C   0  0  0  0  0  0  0  0  0  0  0  0
    4.1608    0.4925    0.0000 C   0  0  0  0  0  0  0  0  0  0  0  0
    2.0174    1.7300    0.0000 O   0  0  0  0  0  0  0  0  0  0  0  0
    4.8752    0.9050    0.0000 O   0  0  0  0  0  0  0  0  0  0  0  0
   -2.9839   -1.9825    0.0000 C   0  0  0  0  0  0  0  0  0  0  0  0
    2.7318    0.4925    0.0000 C   0  0  0  0  0  0  0  0  0  0  0  0
   -0.1261   -0.3325    0.0000 C   0  0  0  0  0  0  0  0  0  0  0  0
    3.4463   -1.5700    0.0000 N   0  0  0  0  0  0  0  0  0  0  0  0
   -0.8405    0.9050    0.0000 C   0  0  0  0  0  0  0  0  0  0  0  0
    4.1608   -1.9825    0.0000 O   0  0  0  0  0  0  0  0  0  0  0  0
    2.7318   -1.9825    0.0000 O   0  0  0  0  0  0  0  0  0  0  0  0
    2.7318   -0.3325    0.0000 C   0  0  0  0  0  0  0  0  0  0  0  0
   -1.5550    0.4925    0.0000 C   0  0  0  0  0  0  0  0  0  0  0  0
    1.3029    0.4925    0.0000 C   0  0  0  0  0  0  0  0  0  0  0  0
   -0.1261    0.4925    0.0000 N   0  0  0  0  0  0  0  0  0  0  0  0
   -3.6984   -0.7450    0.0000 C   0  0  0  0  0  0  0  0  0  0  0  0
   -0.8405   -0.7450    0.0000 C   0  0  0  0  0  0  0  0  0  0  0  0
   -2.9839   -0.3325    0.0000 C   0  0  0  0  0  0  0  0  0  0  0  0
    0.5884    0.9050    0.0000 C   0  0  0  0  0  0  0  0  0  0  0  0
    3.4463   -0.7450    0.0000 C   0  0  0  0  0  0  0  0  0  0  0  0
   -2.2695   -0.7450    0.0000 C   0  0  0  0  0  0  0  0  0  0  0  0
    4.1608   -0.3325    0.0000 C   0  0  0  0  0  0  0  0  0  0  0  0
   -4.4129   -0.3325    0.0000 C   0  0  0  0  0  0  0  0  0  0  0  0
   -5.1274    0.0800    0.0000 F   0  0  0  0  0  0  0  0  0  0  0  0
   -4.0004    0.3819    0.0000 F   0  0  0  0  0  0  0  0  0  0  0  0
   -4.8254   -1.0470    0.0000 F   0  0  0  0  0  0  0  0  0  0  0  0
   -3.6984   -1.5700    0.0000 C   0  0  0  0  0  0  0  0  0  0  0  0
  1 17  1  0
  1 21  1  0
  1 25  1  0
  2  6  2  0
  2 10  1  0
  3  9  2  0
  3 25  1  0
  4 26  1  0
  5  7  2  0
  5 10  1  0
  5 18  1  0
  6  8  1  0
  6 26  1  0
  9 31  1  0
 10 16  2  0
 11 19  1  0
 11 21  1  0
 12 14  2  0
 12 15  1  0
 12 24  1  0
 13 17  1  0
 13 19  1  0
 16 24  1  0
 18 23  1  0
 19 23  1  0
 20 22  1  0
 20 27  1  0
 20 31  2  0
 22 25  2  0
 24 26  2  0
 27 28  1  0
 27 29  1  0
 27 30  1  0
M  CHG  2  12   1  15  -1
M  END
>  <DRUGBANK_ID>  (1) 
DB03336

>  <SECONDARY_ACCESSION_NUMBERS>  (1) 
EXPT00705

>  <COMMON_NAME>  (1) 
BIA

>  <UNII>  (1) 
X6H65DT067

$$$$
