
     RDKit          2D

 10  9  0  0  0  0  0  0  0  0999 V2000
   -5.3036    1.7089    0.0000 O   0  0  0  0  0  0  0  0  0  0  0  0
   -4.5891    2.1214    0.0000 C   0  0  0  0  0  0  0  0  0  0  0  0
   -3.8746    1.7089    0.0000 C   0  0  0  0  0  0  0  0  0  0  0  0
   -3.1602    2.1214    0.0000 C   0  0  0  0  0  0  0  0  0  0  0  0
   -2.4457    1.7089    0.0000 C   0  0  0  0  0  0  0  0  0  0  0  0
   -1.7312    2.1214    0.0000 C   0  0  0  0  0  0  0  0  0  0  0  0
   -1.0167    1.7089    0.0000 O   0  0  0  0  0  0  0  0  0  0  0  0
   -3.5727    2.8359    0.0000 O   0  0  0  0  0  0  0  0  0  0  0  0
   -2.7477    2.8359    0.0000 C   0  0  0  0  0  0  0  0  0  0  0  0
   -1.7312    2.9464    0.0000 O   0  0  0  0  0  0  0  0  0  0  0  0
  1  2  1  0
  2  3  1  0
  3  4  1  0
  4  5  1  0
  4  8  1  0
  4  9  1  6
  5  6  1  0
  6  7  1  0
  6 10  2  0
M  END
>  <DRUGBANK_ID>  (1) 
DB03518

>  <SECONDARY_ACCESSION_NUMBERS>  (1) 
EXPT02156

>  <COMMON_NAME>  (1) 
Mevalonic acid

>  <CAS_NUMBER>  (1) 
150-97-0

>  <UNII>  (1) 
S5UOB36OCZ

>  <SYNONYMS>  (1) 
(R)-3,5-dihydroxy-3-methylvaleric acid; (R)-mevalonate; (R)-mevalonic acid; 3,5-Dihydroxy-3-methylvaleric acid

$$$$
