
     RDKit          2D

 29 30  0  0  0  0  0  0  0  0999 V2000
   -0.7145   -0.4125    0.0000 O   0  0  0  0  0  0  0  0  0  0  0  0
   -1.4289    0.0000    0.0000 C   0  0  0  0  0  0  0  0  0  0  0  0
   -2.1434   -0.4125    0.0000 C   0  0  0  0  0  0  0  0  0  0  0  0
   -1.4289    0.8250    0.0000 O   0  0  0  0  0  0  0  0  0  0  0  0
   -2.8579    0.0000    0.0000 C   0  0  0  0  0  0  0  0  0  0  0  0
   -2.1434   -1.2374    0.0000 N   0  0  0  0  0  0  0  0  0  0  0  0
    0.0000    0.0000    0.0000 C   0  0  0  0  0  0  0  0  0  0  0  0
   -2.1434    1.2374    0.0000 C   0  0  0  0  0  0  0  0  0  0  0  0
   -2.8579    0.8250    0.0000 C   0  0  0  0  0  0  0  0  0  0  0  0
   -3.5723   -0.4125    0.0000 O   0  0  0  0  0  0  0  0  0  0  0  0
   -1.4289   -1.6500    0.0000 C   0  0  0  0  0  0  0  0  0  0  0  0
    0.0000    0.8250    0.0000 C   0  0  0  0  0  0  0  0  0  0  0  0
    0.7144   -0.4125    0.0000 C   0  0  0  0  0  0  0  0  0  0  0  0
   -2.1434    2.0625    0.0000 C   0  0  0  0  0  0  0  0  0  0  0  0
   -3.5723    1.2374    0.0000 O   0  0  0  0  0  0  0  0  0  0  0  0
   -0.7145   -1.2374    0.0000 C   0  0  0  0  0  0  0  0  0  0  0  0
   -1.4289   -2.4749    0.0000 O   0  0  0  0  0  0  0  0  0  0  0  0
    0.7144    1.2374    0.0000 O   0  0  0  0  0  0  0  0  0  0  0  0
   -0.7145    1.2374    0.0000 C   0  0  0  0  0  0  0  0  0  0  0  0
    1.4288    0.0000    0.0000 C   0  0  0  0  0  0  0  0  0  0  0  0
    0.7144   -1.2374    0.0000 O   0  0  0  0  0  0  0  0  0  0  0  0
   -2.8579    2.4750    0.0000 O   0  0  0  0  0  0  0  0  0  0  0  0
    1.4288    0.8250    0.0000 C   0  0  0  0  0  0  0  0  0  0  0  0
   -0.7145    2.0625    0.0000 O   0  0  0  0  0  0  0  0  0  0  0  0
    2.1433   -0.4125    0.0000 N   0  0  0  0  0  0  0  0  0  0  0  0
    2.1433    1.2374    0.0000 O   0  0  0  0  0  0  0  0  0  0  0  0
    2.8578    0.0000    0.0000 C   0  0  0  0  0  0  0  0  0  0  0  0
    2.8578    0.8250    0.0000 O   0  0  0  0  0  0  0  0  0  0  0  0
    3.5723   -0.4125    0.0000 C   0  0  0  0  0  0  0  0  0  0  0  0
  2  1  1  1
  2  3  1  0
  2  4  1  0
  3  5  1  0
  3  6  1  6
  4  8  1  0
  5  9  1  0
  5 10  1  1
  6 11  1  0
  7  1  1  6
  7 12  1  0
  7 13  1  0
  8 14  1  1
  8  9  1  0
  9 15  1  6
 11 16  1  0
 11 17  2  0
 12 18  1  0
 12 19  1  1
 13 20  1  0
 13 21  1  1
 14 22  1  0
 18 23  1  0
 19 24  1  0
 20 25  1  6
 20 23  1  0
 23 26  1  1
 25 27  1  0
 27 28  2  0
 27 29  1  0
M  END
>  <DRUGBANK_ID>  (1) 
DB03013

>  <SECONDARY_ACCESSION_NUMBERS>  (1) 
EXPT00851

>  <COMMON_NAME>  (1) 
N-acetyl-beta-D-glucosaminyl-(1->4)-N-acetyl-beta-D-glucosamine

>  <CAS_NUMBER>  (1) 
35061-50-8

>  <SYNONYMS>  (1) 
Chitodextrin; β-D-GlcNAc-(1→4)-β-D-GlcNAc; β-D-GlcpNAc-(1→4)-β-D-GlcpNAc; βGlcNAc(1→4)βGlcNAc

$$$$
