
     RDKit          2D

 26 32  0  0  1  0  0  0  0  0999 V2000
    0.6371   -2.4627    0.0000 C   0  0  0  0  0  0  0  0  0  0  0  0
    1.4310   -2.6871    0.0000 C   0  0  0  0  0  0  0  0  0  0  0  0
    1.6336   -3.4868    0.0000 C   0  0  0  0  0  0  0  0  0  0  0  0
    2.0222   -2.1117    0.0000 C   0  0  0  0  0  0  0  0  0  0  0  0
    2.2466   -1.3178    0.0000 C   0  0  0  0  0  0  0  0  0  0  0  0
    1.4469   -1.5204    0.0000 O   0  0  0  0  0  0  0  0  0  0  0  0
    3.0464   -1.1152    0.0000 C   0  0  0  0  0  0  0  0  0  0  0  0
    3.6217   -1.7065    0.0000 C   0  0  0  0  0  0  0  0  0  0  0  0
    3.8461   -0.9126    0.0000 O   0  0  0  0  0  0  0  0  0  0  0  0
    4.4214   -1.5039    0.0000 C   0  0  0  0  0  0  0  0  0  0  0  0
    4.6458   -0.7100    0.0000 C   0  0  0  0  0  0  0  0  0  0  0  0
    5.4456   -0.5073    0.0000 C   0  0  0  0  0  0  0  0  0  0  0  0
    6.0209   -1.0986    0.0000 C   0  0  0  0  0  0  0  0  0  0  0  0
    5.7965   -1.8925    0.0000 C   0  0  0  0  0  0  0  0  0  0  0  0
    4.9968   -2.0951    0.0000 C   0  0  0  0  0  0  0  0  0  0  0  0
    4.7724   -2.8890    0.0000 C   0  0  0  0  0  0  0  0  0  0  0  0
    3.9726   -3.0917    0.0000 C   0  0  0  0  0  0  0  0  0  0  0  0
    3.3973   -2.5004    0.0000 C   0  0  0  0  0  0  0  0  0  0  0  0
    2.5976   -2.7030    0.0000 C   0  0  0  0  0  0  0  0  0  0  0  0
    2.3732   -3.4969    0.0000 O   0  0  0  0  0  0  0  0  0  0  0  0
    3.1729   -3.2943    0.0000 O   0  0  0  0  0  0  0  0  0  0  0  0
    6.4822   -2.3513    0.0000 C   0  0  0  0  0  0  0  0  0  0  0  0
    7.1304   -1.8409    0.0000 O   0  0  0  0  0  0  0  0  0  0  0  0
    6.8453   -1.0667    0.0000 C   0  0  0  0  0  0  0  0  0  0  0  0
    7.3040   -0.3810    0.0000 O   0  0  0  0  0  0  0  0  0  0  0  0
    4.3035   -0.6873    0.0000 C   0  0  0  0  0  0  0  0  0  0  0  0
  1  2  1  0
  2  3  1  0
  4  2  1  6
  4  5  1  0
  4  6  1  0
  4 19  1  0
  5  6  1  1
  5  7  1  0
  7  8  1  0
  7  9  1  6
  8  9  1  6
  8 10  1  0
  8 18  1  0
 10 11  1  0
 10 15  1  0
 10 26  1  6
 11 12  1  0
 12 13  1  0
 13 14  2  0
 13 24  1  0
 14 22  1  0
 15 14  1  0
 15 16  1  6
 17 16  1  6
 17 18  1  0
 17 21  1  0
 18 19  1  0
 18 21  1  6
 19 20  1  6
 22 23  1  0
 23 24  1  0
 24 25  2  0
M  END
>  <DRUGBANK_ID>  (1) 
DB12025

>  <COMMON_NAME>  (1) 
Triptolide

>  <CAS_NUMBER>  (1) 
38748-32-2

>  <UNII>  (1) 
19ALD1S53J

$$$$
