
     RDKit          2D

 17 19  0  0  0  0  0  0  0  0999 V2000
   -0.0976   -0.6026    0.0000 N   0  0  0  0  0  0  0  0  0  0  0  0
   -0.7347   -0.1614    0.0000 C   0  0  0  0  0  0  0  0  0  0  0  0
    0.5871   -0.1155    0.0000 C   0  0  0  0  0  0  0  0  0  0  0  0
   -0.4912    0.6503    0.0000 C   0  0  0  0  0  0  0  0  0  0  0  0
    0.2782    0.6503    0.0000 C   0  0  0  0  0  0  0  0  0  0  0  0
   -1.0930    1.2733    0.0000 C   0  0  0  0  0  0  0  0  0  0  0  0
    0.8659    1.2627    0.0000 C   0  0  0  0  0  0  0  0  0  0  0  0
    1.3725   -0.2550    0.0000 C   0  0  0  0  0  0  0  0  0  0  0  0
   -1.5802   -0.3502    0.0000 C   0  0  0  0  0  0  0  0  0  0  0  0
   -1.8854    1.0687    0.0000 C   0  0  0  0  0  0  0  0  0  0  0  0
    1.6514    1.1233    0.0000 C   0  0  0  0  0  0  0  0  0  0  0  0
   -2.1290    0.2568    0.0000 C   0  0  0  0  0  0  0  0  0  0  0  0
    1.9072    0.3733    0.0000 C   0  0  0  0  0  0  0  0  0  0  0  0
    1.6584   -1.0333    0.0000 C   0  0  0  0  0  0  0  0  0  0  0  0
    1.1400   -1.6634    0.0000 O   0  0  0  0  0  0  0  0  0  0  0  0
    2.4573   -1.1560    0.0000 N   0  0  0  0  0  0  0  0  0  0  0  0
   -2.4573    1.6634    0.0000 Cl  0  0  0  0  0  0  0  0  0  0  0  0
  2  1  1  0
  3  1  1  0
  4  2  2  0
  5  3  2  0
  5  4  1  0
  6  4  1  0
  7  5  1  0
  8  3  1  0
  9  2  1  0
 10  6  2  0
 11  7  1  0
 12  9  2  0
 12 10  1  0
 13  8  1  0
 13 11  1  0
 14  8  1  0
 15 14  2  0
 16 14  1  0
 17 10  1  0
M  END
>  <DRUGBANK_ID>  (1) 
DB13978

>  <COMMON_NAME>  (1) 
Selisistat

>  <CAS_NUMBER>  (1) 
49843-98-3

>  <UNII>  (1) 
L19ECD5014

>  <SYNONYMS>  (1) 
rac-6-Chloro-2,3,4,9-tetrahydro-1H-carbazole-1-carboxamide; Selisistat

$$$$
