
     RDKit          2D

 28 27  0  0  0  0  0  0  0  0999 V2000
    0.3194   -0.7186    0.0000 S   0  0  0  0  0  0  0  0  0  0  0  0
    1.8224    1.9587    0.0000 O   0  0  0  0  0  0  0  0  0  0  0  0
   -0.3288   -0.1079    0.0000 O   0  0  0  0  0  0  0  0  0  0  0  0
   -3.1940   -0.1079    0.0000 O   0  0  0  0  0  0  0  0  0  0  0  0
   -3.9079    1.1319    0.0000 O   0  0  0  0  0  0  0  0  0  0  0  0
    4.6970    1.1319    0.0000 O   0  0  0  0  0  0  0  0  0  0  0  0
    3.9736   -0.1079    0.0000 O   0  0  0  0  0  0  0  0  0  0  0  0
    0.3851    1.1319    0.0000 N   0  0  0  0  0  0  0  0  0  0  0  0
    2.5458    0.7186    0.0000 N   0  0  0  0  0  0  0  0  0  0  0  0
   -2.4800    1.9587    0.0000 N   0  0  0  0  0  0  0  0  0  0  0  0
    1.0991    0.7186    0.0000 C   0  0  0  0  0  0  0  0  0  0  0  0
    1.8224    1.1319    0.0000 C   0  0  0  0  0  0  0  0  0  0  0  0
   -0.3288    0.7186    0.0000 C   0  0  0  0  0  0  0  0  0  0  0  0
    1.1178   -0.2488    0.0000 C   0  0  0  0  0  0  0  0  0  0  0  0
   -1.0428    1.1319    0.0000 C   0  0  0  0  0  0  0  0  0  0  0  0
   -2.4800    1.1319    0.0000 C   0  0  0  0  0  0  0  0  0  0  0  0
   -1.7661    0.7186    0.0000 C   0  0  0  0  0  0  0  0  0  0  0  0
    3.2596    1.1319    0.0000 C   0  0  0  0  0  0  0  0  0  0  0  0
   -3.1940    0.7186    0.0000 C   0  0  0  0  0  0  0  0  0  0  0  0
    3.9736    0.7186    0.0000 C   0  0  0  0  0  0  0  0  0  0  0  0
    0.3194   -1.5453    0.0000 C   0  0  0  0  0  0  0  0  0  0  0  0
   -0.3851   -1.9587    0.0000 C   0  0  0  0  0  0  0  0  0  0  0  0
   -1.1085   -1.5453    0.0000 C   0  0  0  0  0  0  0  0  0  0  0  0
   -1.8224   -1.9587    0.0000 C   0  0  0  0  0  0  0  0  0  0  0  0
   -2.5458   -1.5453    0.0000 C   0  0  0  0  0  0  0  0  0  0  0  0
   -3.2597   -1.9587    0.0000 C   0  0  0  0  0  0  0  0  0  0  0  0
   -3.9736   -1.5453    0.0000 C   0  0  0  0  0  0  0  0  0  0  0  0
   -4.6970   -1.9587    0.0000 C   0  0  0  0  0  0  0  0  0  0  0  0
  1 14  1  0
  1 21  1  0
  2 12  2  0
  3 13  2  0
  4 19  2  0
  5 19  1  0
  6 20  2  0
  7 20  1  0
  8 11  1  0
  8 13  1  0
  9 12  1  0
  9 18  1  0
 16 10  1  1
 11 12  1  0
 11 14  1  6
 13 15  1  0
 15 17  1  0
 16 17  1  0
 16 19  1  0
 18 20  1  0
 21 22  1  0
 22 23  1  0
 23 24  1  0
 24 25  1  0
 25 26  1  0
 26 27  1  0
 27 28  1  0
M  END
>  <DRUGBANK_ID>  (1) 
DB03032

>  <SECONDARY_ACCESSION_NUMBERS>  (1) 
EXPT01665

>  <COMMON_NAME>  (1) 
S-octylglutathione

>  <SYNONYMS>  (1) 
L-Î³-Glutamyl-S-octyl-D-cysteinylglycine

$$$$
