
     RDKit          2D

 25 24  0  0  0  0  0  0  0  0999 V2000
    0.7134   -0.2518    0.0000 Ca  0  0  0  0  0 15  0  0  0  0  0  0
    0.7833    2.9237    0.0000 O   0  0  0  0  0  0  0  0  0  0  0  0
    0.5945   -1.5598    0.0000 O   0  0  0  0  0  0  0  0  0  0  0  0
   -0.1049    0.9863    0.0000 O   0  0  0  0  0  0  0  0  0  0  0  0
   -0.2937   -3.4973    0.0000 O   0  0  0  0  0  0  0  0  0  0  0  0
    1.6716    0.9863    0.0000 O   0  0  0  0  0  0  0  0  0  0  0  0
    1.4828   -3.4973    0.0000 O   0  0  0  0  0  0  0  0  0  0  0  0
    2.2452    2.6928    0.0000 O   0  0  0  0  0  0  0  0  0  0  0  0
    2.0564   -1.7836    0.0000 O   0  0  0  0  0  0  0  0  0  0  0  0
   -0.8394    3.4973    0.0000 O   0  0  0  0  0  0  0  0  0  0  0  0
   -1.0282   -0.9863    0.0000 O   0  0  0  0  0  0  0  0  0  0  0  0
   -2.0564    2.3991    0.0000 O   0  0  0  0  0  0  0  0  0  0  0  0
   -2.2452   -2.0844    0.0000 O   0  0  0  0  0  0  0  0  0  0  0  0
    0.1258    2.4270    0.0000 C   0  0  0  0  0  0  0  0  0  0  0  0
   -0.0559   -2.0494    0.0000 C   0  0  0  0  0  0  0  0  0  0  0  0
    0.3636    1.6437    0.0000 C   0  0  0  0  0  0  0  0  0  0  0  0
    0.1818   -2.8327    0.0000 C   0  0  0  0  0  0  0  0  0  0  0  0
    1.1890    1.6437    0.0000 C   0  0  0  0  0  0  0  0  0  0  0  0
    1.0002   -2.8327    0.0000 C   0  0  0  0  0  0  0  0  0  0  0  0
    1.4478    2.4270    0.0000 C   0  0  0  0  0  0  0  0  0  0  0  0
    1.2590   -2.0494    0.0000 C   0  0  0  0  0  0  0  0  0  0  0  0
   -0.6715    2.6928    0.0000 C   0  0  0  0  0  0  0  0  0  0  0  0
   -0.8603   -1.7836    0.0000 C   0  0  0  0  0  0  0  0  0  0  0  0
   -1.2870    2.1403    0.0000 C   0  0  0  0  0  0  0  0  0  0  0  0
   -1.4758   -2.3432    0.0000 C   0  0  0  0  0  0  0  0  0  0  0  0
  2 20  1  0
  3 21  1  0
  4 16  1  0
  5 17  1  0
  6 18  1  0
  7 19  1  0
  8 20  2  0
  9 21  2  0
 12 24  1  0
 13 25  1  0
 14  2  1  1
 14 16  1  0
 14 22  1  0
 15  3  1  1
 15 17  1  0
 15 23  1  0
 16 18  2  0
 17 19  2  0
 18 20  1  0
 19 21  1  0
 22 10  1  6
 22 24  1  0
 23 11  1  6
 23 25  1  0
M  CHG  3   1   2   4  -1   5  -1
M  END
>  <DRUGBANK_ID>  (1) 
DB14483

>  <SECONDARY_ACCESSION_NUMBERS>  (1) 
DBSALT002425

>  <COMMON_NAME>  (1) 
Calcium ascorbate

>  <CAS_NUMBER>  (1) 
5743-27-1

>  <UNII>  (1) 
J96U0ZD4Y6

>  <SYNONYMS>  (1) 
Ascorbic acid calcium salt; Calcium ascorbate; Calcium ascorbate anhydrous; Calcium diascorbate; L-ascorbic acid, calcium salt (2:1)

$$$$
