
     RDKit          2D

 42 45  0  0  0  0  0  0  0  0999 V2000
    5.7157    0.4125    0.0000 C   0  0  0  0  0  0  0  0  0  0  0  0
    6.4302    0.8250    0.0000 N   0  0  0  0  0  0  0  0  0  0  0  0
    6.4302    1.6500    0.0000 C   0  0  0  0  0  0  0  0  0  0  0  0
    5.7157    2.0625    0.0000 N   0  0  0  0  0  0  0  0  0  0  0  0
    5.0012    1.6500    0.0000 C   0  0  0  0  0  0  0  0  0  0  0  0
    5.0012    0.8250    0.0000 C   0  0  0  0  0  0  0  0  0  0  0  0
    4.2867    2.0625    0.0000 N   0  0  0  0  0  0  0  0  0  0  0  0
    3.5722    1.6499    0.0000 C   0  0  0  0  0  0  0  0  0  0  0  0
    3.5722    0.8249    0.0000 C   0  0  0  0  0  0  0  0  0  0  0  0
    4.2867    0.4124    0.0000 N   0  0  0  0  0  0  0  0  0  0  0  0
    2.8578    0.4124    0.0000 C   0  0  0  0  0  0  0  0  0  0  0  0
    2.1433    0.8249    0.0000 N   0  0  0  0  0  0  0  0  0  0  0  0
    1.4288    0.4124    0.0000 C   0  0  0  0  0  0  0  0  0  0  0  0
    0.7143    0.8249    0.0000 C   0  0  0  0  0  0  0  0  0  0  0  0
    0.0000    0.4124    0.0000 C   0  0  0  0  0  0  0  0  0  0  0  0
    0.0000   -0.4125    0.0000 C   0  0  0  0  0  0  0  0  0  0  0  0
    0.7144   -0.8250    0.0000 C   0  0  0  0  0  0  0  0  0  0  0  0
    1.4288   -0.4125    0.0000 C   0  0  0  0  0  0  0  0  0  0  0  0
   -0.7145   -0.8250    0.0000 C   0  0  0  0  0  0  0  0  0  0  0  0
   -0.7145   -1.6500    0.0000 O   0  0  0  0  0  0  0  0  0  0  0  0
   -1.4290   -0.4125    0.0000 N   0  0  0  0  0  0  0  0  0  0  0  0
   -2.1434   -0.8250    0.0000 C   0  0  0  0  0  0  0  0  0  0  0  0
   -2.8579   -0.4125    0.0000 C   0  0  0  0  0  0  0  0  0  0  0  0
   -2.8579    0.4124    0.0000 C   0  0  0  0  0  0  0  0  0  0  0  0
   -3.5724    0.8249    0.0000 C   0  0  0  0  0  0  0  0  0  0  0  0
   -4.2868    0.4124    0.0000 N   0  0  0  0  0  0  0  0  0  0  0  0
   -5.0013    0.8249    0.0000 C   0  0  0  0  0  0  0  0  0  0  0  0
   -5.7158    0.4124    0.0000 C   0  0  0  0  0  0  0  0  0  0  0  0
   -5.0013    1.6499    0.0000 O   0  0  0  0  0  0  0  0  0  0  0  0
   -6.4303    0.8249    0.0000 C   0  0  0  0  0  0  0  0  0  0  0  0
   -7.1447    0.4124    0.0000 C   0  0  0  0  0  0  0  0  0  0  0  0
   -7.1447   -0.4125    0.0000 C   0  0  0  0  0  0  0  0  0  0  0  0
   -6.4302   -0.8250    0.0000 C   0  0  0  0  0  0  0  0  0  0  0  0
   -5.7158   -0.4125    0.0000 C   0  0  0  0  0  0  0  0  0  0  0  0
   -6.4303    1.6499    0.0000 C   0  0  0  0  0  0  0  0  0  0  0  0
   -7.1447    2.0624    0.0000 O   0  0  0  0  0  0  0  0  0  0  0  0
   -5.7158    2.0624    0.0000 O   0  0  0  0  0  0  0  0  0  0  0  0
   -2.1434   -1.6500    0.0000 C   0  0  0  0  0  0  0  0  0  0  0  0
   -2.8579   -2.0625    0.0000 O   0  0  0  0  0  0  0  0  0  0  0  0
   -1.4290   -2.0625    0.0000 O   0  0  0  0  0  0  0  0  0  0  0  0
    5.7157   -0.4124    0.0000 N   0  0  0  0  0  0  0  0  0  0  0  0
    7.1447    2.0625    0.0000 N   0  0  0  0  0  0  0  0  0  0  0  0
  1  2  2  0
  1  6  1  0
  1 41  1  0
  2  3  1  0
  3  4  2  0
  3 42  1  0
  4  5  1  0
  5  7  1  0
  5  6  2  0
  6 10  1  0
  7  8  2  0
  8  9  1  0
  9 10  2  0
  9 11  1  0
 11 12  1  0
 12 13  1  0
 13 14  2  0
 13 18  1  0
 14 15  1  0
 15 16  2  0
 16 17  1  0
 16 19  1  0
 17 18  2  0
 19 20  2  0
 19 21  1  0
 21 22  1  0
 22 23  1  6
 22 38  1  0
 23 24  1  0
 24 25  1  0
 25 26  1  0
 26 27  1  0
 27 28  1  0
 27 29  2  0
 28 30  2  0
 28 34  1  0
 30 31  1  0
 30 35  1  0
 31 32  2  0
 32 33  1  0
 33 34  2  0
 35 36  1  0
 35 37  2  0
 38 39  1  0
 38 40  2  0
M  END
>  <DRUGBANK_ID>  (1) 
DB06178

>  <COMMON_NAME>  (1) 
Talotrexin

>  <CAS_NUMBER>  (1) 
113857-87-7

>  <UNII>  (1) 
A8E516A20K

>  <SYNONYMS>  (1) 
Talotrexin

$$$$
