
     RDKit          2D

 24 23  0  0  0  0  0  0  0  0999 V2000
    1.9816    3.2704    0.0000 C   0  0  0  0  0  0  0  0  0  0  0  0
    1.5691    2.5559    0.0000 C   0  0  0  0  0  0  0  0  0  0  0  0
    1.1566    1.8414    0.0000 C   0  0  0  0  0  0  0  0  0  0  0  0
    2.2836    2.1434    0.0000 C   0  0  0  0  0  0  0  0  0  0  0  0
    2.9980    2.5559    0.0000 C   0  0  0  0  0  0  0  0  0  0  0  0
    3.7125    2.1434    0.0000 C   0  0  0  0  0  0  0  0  0  0  0  0
    4.4270    2.5559    0.0000 C   0  0  0  0  0  0  0  0  0  0  0  0
    5.1414    2.1434    0.0000 C   0  0  0  0  0  0  0  0  0  0  0  0
    5.8559    2.5559    0.0000 C   0  0  0  0  0  0  0  0  0  0  0  0
    6.5704    2.1434    0.0000 C   0  0  0  0  0  0  0  0  0  0  0  0
    7.2849    2.5559    0.0000 C   0  0  0  0  0  0  0  0  0  0  0  0
    7.9993    2.1434    0.0000 C   0  0  0  0  0  0  0  0  0  0  0  0
    8.7138    2.5559    0.0000 C   0  0  0  0  0  0  0  0  0  0  0  0
    9.4283    2.1434    0.0000 C   0  0  0  0  0  0  0  0  0  0  0  0
   10.1427    2.5559    0.0000 C   0  0  0  0  0  0  0  0  0  0  0  0
    9.7302    3.2704    0.0000 C   0  0  0  0  0  0  0  0  0  0  0  0
   10.5552    1.8414    0.0000 C   0  0  0  0  0  0  0  0  0  0  0  0
   10.8572    2.9684    0.0000 C   0  0  0  0  0  0  0  0  0  0  0  0
   11.5717    2.5559    0.0000 O   0  0  0  0  0  0  0  0  0  0  0  0
   10.8572    3.7934    0.0000 O   0  0  0  0  0  0  0  0  0  0  0  0
    5.8559    3.3809    0.0000 O   0  0  0  0  0  0  0  0  0  0  0  0
    0.8546    2.9684    0.0000 C   0  0  0  0  0  0  0  0  0  0  0  0
    0.1401    2.5559    0.0000 O   0  0  0  0  0  0  0  0  0  0  0  0
    0.8546    3.7934    0.0000 O   0  0  0  0  0  0  0  0  0  0  0  0
  1  2  1  0
  2  3  1  0
  2  4  1  0
  2 22  1  0
  4  5  1  0
  5  6  1  0
  6  7  1  0
  7  8  1  0
  8  9  1  0
  9 10  1  0
  9 21  1  0
 10 11  1  0
 11 12  1  0
 12 13  1  0
 13 14  1  0
 14 15  1  0
 15 16  1  0
 15 17  1  0
 15 18  1  0
 18 19  2  0
 18 20  1  0
 22 23  2  0
 22 24  1  0
M  END
>  <DRUGBANK_ID>  (1) 
DB11936

>  <COMMON_NAME>  (1) 
Bempedoic acid

>  <CAS_NUMBER>  (1) 
738606-46-7

>  <UNII>  (1) 
1EJ6Z6Q368

>  <SYNONYMS>  (1) 
Bempedoic acid

$$$$
