
     RDKit          2D

 19 19  0  0  0  0  0  0  0  0999 V2000
   -1.0165   -1.8563    0.0000 S   0  0  0  0  0  0  0  0  0  0  0  0
    1.1270   -0.6187    0.0000 O   0  0  0  0  0  0  0  0  0  0  0  0
   -1.0165   -1.0313    0.0000 O   0  0  0  0  0  0  0  0  0  0  0  0
   -1.0165    0.6187    0.0000 O   0  0  0  0  0  0  0  0  0  0  0  0
    1.8415    0.6187    0.0000 O   0  0  0  0  0  0  0  0  0  0  0  0
    1.1270   -2.2689    0.0000 O   0  0  0  0  0  0  0  0  0  0  0  0
   -1.0165   -2.6814    0.0000 O   0  0  0  0  0  0  0  0  0  0  0  0
    1.8415    1.4438    0.0000 O   0  0  0  0  0  0  0  0  0  0  0  0
   -1.8415   -1.8563    0.0000 O   0  0  0  0  0  0  0  0  0  0  0  0
   -0.1914   -1.8563    0.0000 O   0  0  0  0  0  0  0  0  0  0  0  0
    0.4125    1.4438    0.0000 N   0  0  0  0  0  0  0  0  0  0  0  0
   -0.3019    0.2062    0.0000 C   0  0  0  0  0  0  0  0  0  0  0  0
   -0.3019   -0.6187    0.0000 C   0  0  0  0  0  0  0  0  0  0  0  0
    0.4125    0.6187    0.0000 C   0  0  0  0  0  0  0  0  0  0  0  0
    0.4125   -1.0313    0.0000 C   0  0  0  0  0  0  0  0  0  0  0  0
    1.1270    0.2062    0.0000 C   0  0  0  0  0  0  0  0  0  0  0  0
    0.4125   -1.8563    0.0000 C   0  0  0  0  0  0  0  0  0  0  0  0
    1.1270    1.8563    0.0000 C   0  0  0  0  0  0  0  0  0  0  0  0
    1.1270    2.6814    0.0000 C   0  0  0  0  0  0  0  0  0  0  0  0
  1  3  1  0
  1  7  1  0
  1  9  2  0
  1 10  2  0
  2 15  1  0
  2 16  1  0
  6 17  1  0
  8 18  2  0
 11 18  1  0
 12  4  1  6
 12 13  1  0
 12 14  1  0
 13  3  1  6
 13 15  1  0
 14 11  1  1
 14 16  1  0
 15 17  1  6
 16  5  1  1
 18 19  1  0
M  END
>  <DRUGBANK_ID>  (1) 
DB04492

>  <SECONDARY_ACCESSION_NUMBERS>  (1) 
EXPT02336

>  <COMMON_NAME>  (1) 
2-(acetylamino)-2-deoxy-4-O-sulfo-alpha-D-galactopyranose

$$$$
