
     RDKit          2D

 11 11  0  0  0  0  0  0  0  0999 V2000
    0.7145   -1.2375    0.0000 C   0  0  0  0  0  0  0  0  0  0  0  0
    0.7145   -0.4125    0.0000 C   0  0  0  0  0  0  0  0  0  0  0  0
    0.0000    0.0000    0.0000 C   0  0  0  0  0  0  0  0  0  0  0  0
    0.0000    0.8250    0.0000 C   0  0  0  0  0  0  0  0  0  0  0  0
    0.7145    1.2375    0.0000 C   0  0  0  0  0  0  0  0  0  0  0  0
    1.4289    0.8250    0.0000 C   0  0  0  0  0  0  0  0  0  0  0  0
    1.4289    0.0000    0.0000 C   0  0  0  0  0  0  0  0  0  0  0  0
    0.7145    2.0625    0.0000 S   0  0  0  0  0  0  0  0  0  0  0  0
    0.7145    2.8875    0.0000 O   0  0  0  0  0  0  0  0  0  0  0  0
    1.5395    2.0625    0.0000 O   0  0  0  0  0  0  0  0  0  0  0  0
   -0.1105    2.0625    0.0000 O   0  0  0  0  0  0  0  0  0  0  0  0
  1  2  1  0
  2  3  2  0
  2  7  1  0
  3  4  1  0
  4  5  2  0
  5  6  1  0
  5  8  1  0
  6  7  2  0
  8  9  1  0
  8 10  2  0
  8 11  2  0
M  END
>  <DRUGBANK_ID>  (1) 
DB03120

>  <SECONDARY_ACCESSION_NUMBERS>  (1) 
EXPT03125

>  <COMMON_NAME>  (1) 
p-Toluenesulfonic acid

>  <CAS_NUMBER>  (1) 
104-15-4

>  <UNII>  (1) 
QGV5ZG5741

>  <SYNONYMS>  (1) 
4-toluenesulfonic acid; p-methylbenzenesulfonic acid; p-methylphenylsulfonic acid; p-toluenesulfonic acid; p-toluenesulphonic acid; p-tolylsulfonic acid; para-toluene sulfonate; toluene-4-sulfonic acid; Tosic acid; Tosylic acid

$$$$
