
     RDKit          2D

 35 39  0  0  1  0  0  0  0  0999 V2000
    0.7954   -0.1105    0.0000 C   0  0  0  0  0  0  0  0  0  0  0  0
   -0.0296   -5.8263    0.0000 C   0  0  0  0  0  0  0  0  0  0  0  0
    7.3954   -0.1105    0.0000 C   0  0  0  0  0  0  0  0  0  0  0  0
    0.7954   -5.8263    0.0000 C   0  0  0  0  0  0  0  0  0  0  0  0
    6.9829   -2.2539    0.0000 C   0  0  0  0  0  0  0  0  0  0  0  0
    1.2079   -0.8250    0.0000 C   0  0  0  0  0  0  0  0  0  0  0  0
   -0.4421   -2.2539    0.0000 C   0  0  0  0  0  0  0  0  0  0  0  0
    4.5079    0.6039    0.0000 C   0  0  0  0  0  0  0  0  0  0  0  0
   -0.0296   -1.5395    0.0000 C   0  0  0  0  0  0  0  0  0  0  0  0
    3.6829    0.6039    0.0000 C   0  0  0  0  0  0  0  0  0  0  0  0
    2.0329   -2.2539    0.0000 C   0  0  0  0  0  0  0  0  0  0  0  0
    3.2704   -1.5395    0.0000 C   0  0  0  0  0  0  0  0  0  0  0  0
   -0.4421   -3.6829    0.0000 C   0  0  0  0  0  0  0  0  0  0  0  0
    5.7454   -0.1105    0.0000 C   0  0  0  0  0  0  0  0  0  0  0  0
    1.2079   -3.6829    0.0000 C   0  0  0  0  0  0  0  0  0  0  0  0
    4.9204   -1.5395    0.0000 C   0  0  0  0  0  0  0  0  0  0  0  0
    2.4454   -0.1105    0.0000 C   0  0  0  0  0  0  0  0  0  0  0  0
    2.0329   -0.8250    0.0000 C   0  0  0  0  0  0  0  0  0  0  0  0
   -0.0296   -2.9684    0.0000 C   0  0  0  0  0  0  0  0  0  0  0  0
    4.9204   -0.1105    0.0000 C   0  0  0  0  0  0  0  0  0  0  0  0
    2.4454   -1.5395    0.0000 C   0  0  0  0  0  0  0  0  0  0  0  0
    0.7954   -2.9684    0.0000 C   0  0  0  0  0  0  0  0  0  0  0  0
    4.5079   -0.8250    0.0000 C   0  0  0  0  0  0  0  0  0  0  0  0
    1.2079   -2.2539    0.0000 C   0  0  0  0  0  0  0  0  0  0  0  0
    3.6829   -0.8250    0.0000 C   0  0  0  0  0  0  0  0  0  0  0  0
   -0.0296   -4.3974    0.0000 C   0  0  0  0  0  0  0  0  0  0  0  0
    6.1579   -0.8250    0.0000 C   0  0  0  0  0  0  0  0  0  0  0  0
    0.7954   -4.3974    0.0000 C   0  0  0  0  0  0  0  0  0  0  0  0
    5.7454   -1.5395    0.0000 C   0  0  0  0  0  0  0  0  0  0  0  0
    0.7954   -1.5395    0.0000 N   0  0  0  0  0  0  0  0  0  0  0  0
    3.2704   -0.1105    0.0000 N   0  0  0  0  0  0  0  0  0  0  0  0
   -0.4421   -5.1118    0.0000 O   0  0  0  0  0  0  0  0  0  0  0  0
    6.9829   -0.8250    0.0000 O   0  0  0  0  0  0  0  0  0  0  0  0
    1.2079   -5.1118    0.0000 O   0  0  0  0  0  0  0  0  0  0  0  0
    6.1579   -2.2539    0.0000 O   0  0  0  0  0  0  0  0  0  0  0  0
  6  1  1  0
  9  7  1  0
 10  8  1  0
 18  6  1  1
 18 17  1  0
 19  7  1  0
 19 13  2  0
 20  8  1  0
 20 14  2  0
 21 11  1  6
 21 12  1  0
 21 18  1  0
 22 15  2  0
 22 19  1  0
 23 16  2  0
 23 20  1  0
 24 11  1  6
 24 22  1  0
 25 12  1  6
 25 23  1  0
 26 13  1  0
 27 14  1  0
 28 15  1  0
 28 26  2  0
 29 16  1  0
 29 27  2  0
 30  9  1  0
 30 24  1  0
 31 10  1  0
 31 17  1  0
 31 25  1  0
 32  2  1  0
 32 26  1  0
 33  3  1  0
 33 27  1  0
 34  4  1  0
 34 28  1  0
 35  5  1  0
 35 29  1  0
M  END
>  <DRUGBANK_ID>  (1) 
DB13393

>  <COMMON_NAME>  (1) 
Emetine

>  <CAS_NUMBER>  (1) 
483-18-1

>  <UNII>  (1) 
X8D5EPO80M

$$$$
