
     RDKit          2D

 14 14  0  0  0  0  0  0  0  0999 V2000
    0.0000   -1.8563    0.0000 O   0  0  0  0  0  0  0  0  0  0  0  0
    1.4290   -1.0313    0.0000 O   0  0  0  0  0  0  0  0  0  0  0  0
   -2.1436   -0.6187    0.0000 O   0  0  0  0  0  0  0  0  0  0  0  0
    0.7145    1.8563    0.0000 O   0  0  0  0  0  0  0  0  0  0  0  0
    0.0000    0.6187    0.0000 N   0  0  0  0  0  0  0  0  0  0  0  0
    1.4290    0.6187    0.0000 N   0  0  0  0  0  0  0  0  0  0  0  0
   -0.7145   -0.6187    0.0000 C   0  0  0  0  0  0  0  0  0  0  0  0
    0.0000   -1.0313    0.0000 C   0  0  0  0  0  0  0  0  0  0  0  0
    0.7145   -0.6187    0.0000 C   0  0  0  0  0  0  0  0  0  0  0  0
    0.7145    0.2062    0.0000 C   0  0  0  0  0  0  0  0  0  0  0  0
   -0.7145    0.2062    0.0000 C   0  0  0  0  0  0  0  0  0  0  0  0
   -1.4290   -1.0313    0.0000 C   0  0  0  0  0  0  0  0  0  0  0  0
    1.4290    1.4438    0.0000 C   0  0  0  0  0  0  0  0  0  0  0  0
    2.1436    1.8563    0.0000 C   0  0  0  0  0  0  0  0  0  0  0  0
  3 12  1  0
  4 13  2  0
  5 10  1  0
  5 11  1  0
  6 13  1  0
  7  8  1  0
  7 11  1  0
  7 12  1  1
  8  1  1  1
  8  9  1  0
  9  2  1  1
  9 10  1  0
 10  6  1  6
 13 14  1  0
M  END
>  <DRUGBANK_ID>  (1) 
DB03861

>  <SECONDARY_ACCESSION_NUMBERS>  (1) 
EXPT01846

>  <COMMON_NAME>  (1) 
(2R,3R,4S,5R)-2-acetamido-3,4-dihydroxy-5-hydroxymethyl-piperidine

>  <CAS_NUMBER>  (1) 
176246-06-3

$$$$
