
     RDKit          2D

 25 22  0  0  0  0  0  0  0  0999 V2000
   -1.0992   -2.0625    0.0000 P   0  0  0  0  0  0  0  0  0  0  0  0
   -1.0992    2.0625    0.0000 P   0  0  0  0  0  0  0  0  0  0  0  0
   -1.8137   -3.3000    0.0000 Na  0  0  0  0  0 15  0  0  0  0  0  0
    0.1382   -2.7770    0.0000 Na  0  0  0  0  0 15  0  0  0  0  0  0
   -1.8137    3.3000    0.0000 Na  0  0  0  0  0 15  0  0  0  0  0  0
    0.1382    2.7770    0.0000 Na  0  0  0  0  0 15  0  0  0  0  0  0
   -0.3848   -1.6500    0.0000 O   0  0  0  0  0  0  0  0  0  0  0  0
   -0.3848    1.6500    0.0000 O   0  0  0  0  0  0  0  0  0  0  0  0
   -1.8137   -2.4750    0.0000 O   0  0  0  0  0  0  0  0  0  0  0  0
   -0.6867   -2.7770    0.0000 O   0  0  0  0  0  0  0  0  0  0  0  0
   -1.5118   -1.3480    0.0000 O   0  0  0  0  0  0  0  0  0  0  0  0
   -1.8137    2.4750    0.0000 O   0  0  0  0  0  0  0  0  0  0  0  0
   -0.6867    2.7770    0.0000 O   0  0  0  0  0  0  0  0  0  0  0  0
   -1.5118    1.3480    0.0000 O   0  0  0  0  0  0  0  0  0  0  0  0
    0.3297   -0.4125    0.0000 C   0  0  0  0  0  0  0  0  0  0  0  0
    0.3297    0.4125    0.0000 C   0  0  0  0  0  0  0  0  0  0  0  0
   -0.3848   -0.8250    0.0000 C   0  0  0  0  0  0  0  0  0  0  0  0
   -1.0992   -0.4125    0.0000 C   0  0  0  0  0  0  0  0  0  0  0  0
   -0.3848    0.8250    0.0000 C   0  0  0  0  0  0  0  0  0  0  0  0
   -1.0992    0.4125    0.0000 C   0  0  0  0  0  0  0  0  0  0  0  0
    1.0672   -0.8536    0.0000 C   0  0  0  0  0  0  0  0  0  0  0  0
    1.0672    0.8536    0.0000 C   0  0  0  0  0  0  0  0  0  0  0  0
   -1.8137   -0.8250    0.0000 C   0  0  0  0  0  0  0  0  0  0  0  0
    1.8147   -0.4296    0.0000 C   0  0  0  0  0  0  0  0  0  0  0  0
    1.8147    0.4296    0.0000 C   0  0  0  0  0  0  0  0  0  0  0  0
  1  7  1  0
  1  9  1  0
  1 10  1  0
  1 11  2  0
  2  8  1  0
  2 12  1  0
  2 13  1  0
  2 14  2  0
  7 17  1  0
  8 19  1  0
 15 16  1  0
 15 17  2  0
 15 21  1  0
 16 19  2  0
 16 22  1  0
 17 18  1  0
 18 20  2  0
 18 23  1  0
 19 20  1  0
 21 24  2  0
 22 25  2  0
 24 25  1  0
M  CHG  8   3   1   4   1   5   1   6   1   9  -1  10  -1  12  -1  13  -1
M  END
>  <DRUGBANK_ID>  (1) 
DB09332

>  <COMMON_NAME>  (1) 
Kappadione

>  <CAS_NUMBER>  (1) 
131-13-5

>  <UNII>  (1) 
R2L46WE615

>  <SYNONYMS>  (1) 
Menadiol sodium diphosphate

$$$$
