
     RDKit          2D

 14 14  0  0  0  0  0  0  0  0999 V2000
   -2.5006   -1.6500    0.0000 C   0  0  0  0  0  0  0  0  0  0  0  0
   -0.3571   -0.4124    0.0000 C   0  0  0  0  0  0  0  0  0  0  0  0
    0.3573    0.8250    0.0000 C   0  0  0  0  0  0  0  0  0  0  0  0
   -1.0716   -0.8249    0.0000 C   0  0  0  0  0  0  0  0  0  0  0  0
    1.0717    0.4124    0.0000 C   0  0  0  0  0  0  0  0  0  0  0  0
   -1.0716    0.8250    0.0000 C   0  0  0  0  0  0  0  0  0  0  0  0
   -0.3571    0.4124    0.0000 C   0  0  0  0  0  0  0  0  0  0  0  0
   -1.7861    0.4124    0.0000 C   0  0  0  0  0  0  0  0  0  0  0  0
   -1.7861   -0.4124    0.0000 C   0  0  0  0  0  0  0  0  0  0  0  0
    1.7862    0.8250    0.0000 C   0  0  0  0  0  0  0  0  0  0  0  0
   -2.5006    0.8250    0.0000 O   0  0  0  0  0  0  0  0  0  0  0  0
    1.7862    1.6500    0.0000 O   0  0  0  0  0  0  0  0  0  0  0  0
    2.5007    0.4124    0.0000 O   0  0  0  0  0  0  0  0  0  0  0  0
   -2.5006   -0.8249    0.0000 O   0  0  0  0  0  0  0  0  0  0  0  0
  1 14  1  0
  2  4  2  0
  2  7  1  0
  3  7  1  0
  3  5  2  0
  4  9  1  0
  5 10  1  0
  6  7  2  0
  6  8  1  0
  8  9  2  0
  8 11  1  0
  9 14  1  0
 10 12  2  0
 10 13  1  0
M  END
>  <DRUGBANK_ID>  (1) 
DB07109

>  <COMMON_NAME>  (1) 
Isoferulic acid

>  <CAS_NUMBER>  (1) 
537-73-5

>  <UNII>  (1) 
XSQ2K2G7MC

>  <SYNONYMS>  (1) 
Hesperetic acid; Isoferulic acid

$$$$
