
     RDKit          2D

 41 38  0  0  0  0  0  0  0  0999 V2000
    4.7644    0.9813    0.0000 C   0  0  0  0  0  0  0  0  0  0  0  0
    4.0500    0.5688    0.0000 C   0  0  0  0  0  0  0  0  0  0  0  0
    4.7644    1.8064    0.0000 O   0  0  0  0  0  0  0  0  0  0  0  0
    3.3355    0.9813    0.0000 C   0  0  0  0  0  0  0  0  0  0  0  0
    2.6209    0.5688    0.0000 C   0  0  0  0  0  0  0  0  0  0  0  0
    1.9065    0.9813    0.0000 C   0  0  0  0  0  0  0  0  0  0  0  0
    1.1919    0.5688    0.0000 C   0  0  0  0  0  0  0  0  0  0  0  0
    0.4774    0.9813    0.0000 C   0  0  0  0  0  0  0  0  0  0  0  0
   -0.2370    0.5688    0.0000 C   0  0  0  0  0  0  0  0  0  0  0  0
   -0.9515    0.9813    0.0000 C   0  0  0  0  0  0  0  0  0  0  0  0
   -1.6660    0.5688    0.0000 C   0  0  0  0  0  0  0  0  0  0  0  0
    5.4790    0.5688    0.0000 O   0  0  0  0  0  0  0  0  0  0  0  0
   -2.3805    0.9813    0.0000 C   0  0  0  0  0  0  0  0  0  0  0  0
   -3.0951    0.5688    0.0000 C   0  0  0  0  0  0  0  0  0  0  0  0
   -3.8095    0.9813    0.0000 C   0  0  0  0  0  0  0  0  0  0  0  0
   -4.5240    0.5688    0.0000 C   0  0  0  0  0  0  0  0  0  0  0  0
   -5.2386    0.9813    0.0000 C   0  0  0  0  0  0  0  0  0  0  0  0
   -5.9530    0.5688    0.0000 C   0  0  0  0  0  0  0  0  0  0  0  0
   -6.6676    0.9813    0.0000 C   0  0  0  0  0  0  0  0  0  0  0  0
   -7.3821    0.5688    0.0000 C   0  0  0  0  0  0  0  0  0  0  0  0
    4.7397   -1.3939    0.0000 C   0  0  0  0  0  0  0  0  0  0  0  0
    4.0252   -1.8064    0.0000 C   0  0  0  0  0  0  0  0  0  0  0  0
    4.7397   -0.5688    0.0000 O   0  0  0  0  0  0  0  0  0  0  0  0
    3.3107   -1.3939    0.0000 C   0  0  0  0  0  0  0  0  0  0  0  0
    2.5962   -1.8064    0.0000 C   0  0  0  0  0  0  0  0  0  0  0  0
    1.8817   -1.3939    0.0000 C   0  0  0  0  0  0  0  0  0  0  0  0
    1.1672   -1.8064    0.0000 C   0  0  0  0  0  0  0  0  0  0  0  0
    0.4527   -1.3939    0.0000 C   0  0  0  0  0  0  0  0  0  0  0  0
   -0.2618   -1.8064    0.0000 C   0  0  0  0  0  0  0  0  0  0  0  0
   -0.9762   -1.3939    0.0000 C   0  0  0  0  0  0  0  0  0  0  0  0
   -1.6908   -1.8064    0.0000 C   0  0  0  0  0  0  0  0  0  0  0  0
    5.4542   -1.8064    0.0000 O   0  0  0  0  0  0  0  0  0  0  0  0
   -2.4053   -1.3939    0.0000 C   0  0  0  0  0  0  0  0  0  0  0  0
   -3.1198   -1.8064    0.0000 C   0  0  0  0  0  0  0  0  0  0  0  0
   -3.8343   -1.3939    0.0000 C   0  0  0  0  0  0  0  0  0  0  0  0
   -4.5488   -1.8064    0.0000 C   0  0  0  0  0  0  0  0  0  0  0  0
   -5.2633   -1.3939    0.0000 C   0  0  0  0  0  0  0  0  0  0  0  0
   -5.9778   -1.8064    0.0000 C   0  0  0  0  0  0  0  0  0  0  0  0
   -6.6923   -1.3939    0.0000 C   0  0  0  0  0  0  0  0  0  0  0  0
   -7.4068   -1.8064    0.0000 C   0  0  0  0  0  0  0  0  0  0  0  0
    7.4068   -0.4946    0.0000 Mg  0  0  0  0  0 15  0  0  0  0  0  0
  1  2  1  0
  1  3  2  0
  1 12  1  0
  2  4  1  0
  4  5  1  0
  5  6  1  0
  6  7  1  0
  7  8  1  0
  8  9  1  0
  9 10  1  0
 10 11  1  0
 13 11  1  0
 14 13  1  0
 15 14  1  0
 16 15  1  0
 17 16  1  0
 18 17  1  0
 19 18  1  0
 20 19  1  0
 21 22  1  0
 21 23  2  0
 21 32  1  0
 22 24  1  0
 24 25  1  0
 25 26  1  0
 26 27  1  0
 27 28  1  0
 28 29  1  0
 29 30  1  0
 30 31  1  0
 33 31  1  0
 34 33  1  0
 35 34  1  0
 36 35  1  0
 37 36  1  0
 38 37  1  0
 39 38  1  0
 40 39  1  0
M  CHG  3  12  -1  32  -1  41   2
M  END
>  <DRUGBANK_ID>  (1) 
DB14077

>  <COMMON_NAME>  (1) 
Magnesium stearate

>  <CAS_NUMBER>  (1) 
557-04-0

>  <UNII>  (1) 
70097M6I30

>  <SYNONYMS>  (1) 
Dibasic magnesium stearate; Magnesium distearate; Magnesium octadecanoate; Octadecanoic acid, magnesium salt; Stearic acid, magnesium salt

$$$$
