
     RDKit          2D

 23 26  0  0  0  0  0  0  0  0999 V2000
    2.2275    0.7222    0.0000 C   0  0  0  0  0  0  0  0  0  0  0  0
    2.2227   -0.1018    0.0000 C   0  0  0  0  0  0  0  0  0  0  0  0
    1.5003   -0.5138    0.0000 C   0  0  0  0  0  0  0  0  0  0  0  0
    0.7876   -0.0969    0.0000 C   0  0  0  0  0  0  0  0  0  0  0  0
    0.0750   -0.5138    0.0000 C   0  0  0  0  0  0  0  0  0  0  0  0
    0.0750   -1.3428    0.0000 C   0  0  0  0  0  0  0  0  0  0  0  0
    1.5100    1.1392    0.0000 C   0  0  0  0  0  0  0  0  0  0  0  0
    0.7876    0.7320    0.0000 C   0  0  0  0  0  0  0  0  0  0  0  0
    1.5051   -1.3428    0.0000 C   0  0  0  0  0  0  0  0  0  0  0  0
    3.0031   -0.3635    0.0000 C   0  0  0  0  0  0  0  0  0  0  0  0
   -0.6375   -0.1018    0.0000 C   0  0  0  0  0  0  0  0  0  0  0  0
    3.0128    0.9694    0.0000 C   0  0  0  0  0  0  0  0  0  0  0  0
   -2.7801   -1.3428    0.0000 C   0  0  0  0  0  0  0  0  0  0  0  0
   -0.6375   -1.7548    0.0000 C   0  0  0  0  0  0  0  0  0  0  0  0
    0.7876   -1.7548    0.0000 C   0  0  0  0  0  0  0  0  0  0  0  0
   -1.3501   -1.3428    0.0000 C   0  0  0  0  0  0  0  0  0  0  0  0
   -2.0627   -1.7548    0.0000 O   0  0  0  0  0  0  0  0  0  0  0  0
    3.4928    0.3005    0.0000 C   0  0  0  0  0  0  0  0  0  0  0  0
   -2.7753   -0.5186    0.0000 O   0  0  0  0  0  0  0  0  0  0  0  0
   -1.3501   -0.5138    0.0000 C   0  0  0  0  0  0  0  0  0  0  0  0
    2.2227    1.5512    0.0000 C   0  0  0  0  0  0  0  0  0  0  0  0
    3.2698    1.7548    0.0000 O   0  0  0  0  0  0  0  0  0  0  0  0
   -3.4928   -1.7548    0.0000 C   0  0  0  0  0  0  0  0  0  0  0  0
  1 21  1  1
  2  1  1  0
  3  2  1  0
  4  3  1  0
  5  4  1  0
  6  5  2  0
  7  1  1  0
  8  7  1  0
  4  8  1  1
  3  9  1  6
  2 10  1  1
 11  5  1  0
 12  1  1  0
 12 22  1  1
 13 17  1  0
 14  6  1  0
 15  9  1  0
 15  6  1  0
 16 14  2  0
 16 20  1  0
 17 16  1  0
 18 12  1  0
 18 10  1  0
 19 13  2  0
 20 11  2  0
 23 13  1  0
M  END
>  <DRUGBANK_ID>  (1) 
DB13952

>  <SECONDARY_ACCESSION_NUMBERS>  (1) 
DBSALT000065

>  <COMMON_NAME>  (1) 
Estradiol acetate

>  <CAS_NUMBER>  (1) 
4245-41-4

>  <UNII>  (1) 
5R97F5H93P

>  <SYNONYMS>  (1) 
E3A; Estradiol 3-acetate; Estradiol acetate; Estradiol-3-acetate

$$$$
