AZX
     RDKit          2D

 31 32  0  0  0  0  0  0  0  0999 V2000
   -4.6311    2.4876    0.0000 F   0  0  0  0  0  0  0  0  0  0  0  0
   -3.9166    2.0751    0.0000 C   0  0  0  0  0  0  0  0  0  0  0  0
   -4.3291    1.3607    0.0000 F   0  0  0  0  0  0  0  0  0  0  0  0
   -3.5041    2.7896    0.0000 F   0  0  0  0  0  0  0  0  0  0  0  0
   -3.2022    1.6626    0.0000 C   0  0  0  0  0  0  0  0  0  0  0  0
   -2.7897    2.3771    0.0000 O   0  0  0  0  0  0  0  0  0  0  0  0
   -3.6147    0.9482    0.0000 C   0  0  0  0  0  0  0  0  0  0  0  0
   -2.4877    1.2501    0.0000 C   0  0  0  0  0  0  0  0  0  0  0  0
   -2.4877    0.4251    0.0000 O   0  0  0  0  0  0  0  0  0  0  0  0
   -1.7732    1.6626    0.0000 N   0  0  0  0  0  0  0  0  0  0  0  0
   -1.0587    1.2501    0.0000 C   0  0  0  0  0  0  0  0  0  0  0  0
   -0.3443    1.6626    0.0000 C   0  0  0  0  0  0  0  0  0  0  0  0
    0.3702    1.2501    0.0000 C   0  0  0  0  0  0  0  0  0  0  0  0
   -1.0587    0.4251    0.0000 C   0  0  0  0  0  0  0  0  0  0  0  0
   -1.7732    0.0126    0.0000 Cl  0  0  0  0  0  0  0  0  0  0  0  0
   -0.3443    0.0126    0.0000 C   0  0  0  0  0  0  0  0  0  0  0  0
    0.3702    0.4251    0.0000 C   0  0  0  0  0  0  0  0  0  0  0  0
    1.0847    0.0126    0.0000 S   0  0  0  0  0  0  0  0  0  0  0  0
    0.6722   -0.7018    0.0000 O   0  0  0  0  0  0  0  0  0  0  0  0
    1.4972    0.7271    0.0000 O   0  0  0  0  0  0  0  0  0  0  0  0
    1.7991   -0.3999    0.0000 C   0  0  0  0  0  0  0  0  0  0  0  0
    1.7991   -1.2249    0.0000 C   0  0  0  0  0  0  0  0  0  0  0  0
    2.5136   -1.6374    0.0000 C   0  0  0  0  0  0  0  0  0  0  0  0
    2.5136    0.0126    0.0000 C   0  0  0  0  0  0  0  0  0  0  0  0
    3.2281   -0.3999    0.0000 C   0  0  0  0  0  0  0  0  0  0  0  0
    3.2281   -1.2249    0.0000 C   0  0  0  0  0  0  0  0  0  0  0  0
    3.9426   -1.6374    0.0000 C   0  0  0  0  0  0  0  0  0  0  0  0
    4.6570   -1.2249    0.0000 O   0  0  0  0  0  0  0  0  0  0  0  0
    3.9426   -2.4624    0.0000 N   0  0  0  0  0  0  0  0  0  0  0  0
    4.6570   -2.8749    0.0000 C   0  0  0  0  0  0  0  0  0  0  0  0
    3.2281   -2.8749    0.0000 C   0  0  0  0  0  0  0  0  0  0  0  0
  1  2  1  0
  2  3  1  0
  2  4  1  0
  2  5  1  0
  5  7  1  1
  5  6  1  0
  5  8  1  0
  8  9  2  0
  8 10  1  0
 10 11  1  0
 11 12  2  0
 11 14  1  0
 12 13  1  0
 13 17  2  0
 14 15  1  0
 14 16  2  0
 16 17  1  0
 17 18  1  0
 18 19  2  0
 18 20  2  0
 18 21  1  0
 21 24  1  0
 21 22  2  0
 22 23  1  0
 23 26  2  0
 24 25  2  0
 25 26  1  0
 26 27  1  0
 27 29  1  0
 27 28  2  0
 29 30  1  0
 29 31  1  0
M  END
>  <DRUGBANK_ID>  (1) 
DB07403

>  <COMMON_NAME>  (1) 
4-[(3-CHLORO-4-{[(2R)-3,3,3-TRIFLUORO-2-HYDROXY-2-METHYLPROPANOYL]AMINO}PHENYL)SULFONYL]-N,N-DIMETHYLBENZAMIDE

$$$$
