
     RDKit          2D

 17 18  0  0  0  0  0  0  0  0999 V2000
   -2.1585    0.1311    0.0000 S   0  0  0  0  0  0  0  0  0  0  0  0
    3.5967    0.2080    0.0000 O   0  0  0  0  0  0  0  0  0  0  0  0
   -2.2980   -1.1964    0.0000 N   0  0  0  0  0  0  0  0  0  0  0  0
    0.0242   -0.2044    0.0000 N   0  0  0  0  0  0  0  0  0  0  0  0
    0.7387    1.0330    0.0000 N   0  0  0  0  0  0  0  0  0  0  0  0
    1.4532   -0.2044    0.0000 N   0  0  0  0  0  0  0  0  0  0  0  0
    2.8822   -0.2044    0.0000 N   0  0  0  0  0  0  0  0  0  0  0  0
   -1.4047   -0.2044    0.0000 C   0  0  0  0  0  0  0  0  0  0  0  0
   -1.4909   -1.0249    0.0000 C   0  0  0  0  0  0  0  0  0  0  0  0
   -0.6902    0.2080    0.0000 C   0  0  0  0  0  0  0  0  0  0  0  0
   -2.7105   -0.4820    0.0000 C   0  0  0  0  0  0  0  0  0  0  0  0
   -0.8778   -1.5769    0.0000 C   0  0  0  0  0  0  0  0  0  0  0  0
   -0.6902    1.0330    0.0000 C   0  0  0  0  0  0  0  0  0  0  0  0
   -3.5310   -0.3957    0.0000 C   0  0  0  0  0  0  0  0  0  0  0  0
    0.0242    1.4456    0.0000 C   0  0  0  0  0  0  0  0  0  0  0  0
    0.7387    0.2080    0.0000 C   0  0  0  0  0  0  0  0  0  0  0  0
    2.1677    0.2080    0.0000 C   0  0  0  0  0  0  0  0  0  0  0  0
  1  8  1  0
  1 11  1  0
  2  7  1  0
  3  9  1  0
  3 11  2  0
  4 10  2  0
  4 16  1  0
  5 15  1  0
  5 16  2  0
  6 16  1  0
  6 17  2  0
  7 17  1  0
  8  9  2  0
  8 10  1  0
  9 12  1  0
 10 13  1  0
 11 14  1  0
 13 15  2  0
M  END
>  <DRUGBANK_ID>  (1) 
DB04101

>  <SECONDARY_ACCESSION_NUMBERS>  (1) 
EXPT00926

>  <COMMON_NAME>  (1) 
N'-[4-(2,4-Dimethyl-1,3-thiazol-5-yl)-2-pyrimidinyl]-N-hydroxyimidoformamide

$$$$
