TSX
     RDKit          2D

 29 31  0  0  0  0  0  0  0  0999 V2000
    3.0492   -0.3083    0.0000 O   0  0  0  0  0  0  0  0  0  0  0  0
    2.3347   -0.7208    0.0000 C   0  0  0  0  0  0  0  0  0  0  0  0
    2.3347   -1.5458    0.0000 N   0  0  0  0  0  0  0  0  0  0  0  0
    3.0492   -1.9583    0.0000 C   0  0  0  0  0  0  0  0  0  0  0  0
    3.7636   -1.5458    0.0000 C   0  0  0  0  0  0  0  0  0  0  0  0
    4.4781   -1.9583    0.0000 C   0  0  0  0  0  0  0  0  0  0  0  0
    1.6202   -0.3083    0.0000 N   0  0  0  0  0  0  0  0  0  0  0  0
    1.6202    0.5167    0.0000 C   0  0  0  0  0  0  0  0  0  0  0  0
    0.9058    0.9292    0.0000 C   0  0  0  0  0  0  0  0  0  0  0  0
    0.1913    0.5167    0.0000 C   0  0  0  0  0  0  0  0  0  0  0  0
   -0.5232    0.9292    0.0000 C   0  0  0  0  0  0  0  0  0  0  0  0
    0.9058   -0.7208    0.0000 C   0  0  0  0  0  0  0  0  0  0  0  0
    0.1211   -0.4659    0.0000 N   0  0  0  0  0  0  0  0  0  0  0  0
    0.9058   -1.5458    0.0000 C   0  0  0  0  0  0  0  0  0  0  0  0
    1.6202   -1.9583    0.0000 C   0  0  0  0  0  0  0  0  0  0  0  0
    1.6202   -2.7833    0.0000 O   0  0  0  0  0  0  0  0  0  0  0  0
    0.1211   -1.8008    0.0000 N   0  0  0  0  0  0  0  0  0  0  0  0
   -0.3638   -1.1333    0.0000 C   0  0  0  0  0  0  0  0  0  0  0  0
   -1.1888   -1.1333    0.0000 C   0  0  0  0  0  0  0  0  0  0  0  0
   -1.6013   -0.4188    0.0000 C   0  0  0  0  0  0  0  0  0  0  0  0
   -2.4263   -0.4188    0.0000 C   0  0  0  0  0  0  0  0  0  0  0  0
   -2.8388    0.2956    0.0000 C   0  0  0  0  0  0  0  0  0  0  0  0
   -2.4263    1.0101    0.0000 C   0  0  0  0  0  0  0  0  0  0  0  0
   -1.6013    1.0101    0.0000 C   0  0  0  0  0  0  0  0  0  0  0  0
   -1.1888    0.2956    0.0000 C   0  0  0  0  0  0  0  0  0  0  0  0
   -2.8388    1.7246    0.0000 N   0  0  0  0  0  0  0  0  0  0  0  0
   -2.4263    2.4390    0.0000 C   0  0  0  0  0  0  0  0  0  0  0  0
   -2.8388    3.1535    0.0000 O   0  0  0  0  0  0  0  0  0  0  0  0
   -1.6013    2.4390    0.0000 C   0  0  0  0  0  0  0  0  0  0  0  0
  1  2  2  0
  2  3  1  0
  2  7  1  0
  3  4  1  0
  3 15  1  0
  4  5  1  0
  5  6  2  0
  7  8  1  0
  7 12  1  0
  8  9  1  0
  9 10  1  0
 10 11  1  0
 12 13  1  0
 12 14  2  0
 13 18  2  0
 14 15  1  0
 14 17  1  0
 15 16  2  0
 17 18  1  0
 18 19  1  0
 19 20  1  0
 20 21  2  0
 20 25  1  0
 21 22  1  0
 22 23  2  0
 23 24  1  0
 23 26  1  0
 24 25  2  0
 26 27  1  0
 27 28  2  0
 27 29  1  0
M  END
>  <DRUGBANK_ID>  (1) 
DB03267

>  <SECONDARY_ACCESSION_NUMBERS>  (1) 
EXPT03126

>  <COMMON_NAME>  (1) 
1-Allyl-3-Butyl-8-(N-Acetyl-4-Aminobenzyl)-Xanthine

$$$$
