
     RDKit          2D

 20 21  0  0  0  0  0  0  0  0999 V2000
    1.4820   -2.5753    0.0000 P   0  0  0  0  0  0  0  0  0  0  0  0
   -0.0532   -0.5420    0.0000 O   0  0  0  0  0  0  0  0  0  0  0  0
   -1.6180   -1.9941    0.0000 O   0  0  0  0  0  0  0  0  0  0  0  0
    0.9972   -1.9078    0.0000 O   0  0  0  0  0  0  0  0  0  0  0  0
   -2.1495    0.7678    0.0000 O   0  0  0  0  0  0  0  0  0  0  0  0
   -0.7206    3.2427    0.0000 O   0  0  0  0  0  0  0  0  0  0  0  0
    2.1495   -2.0904    0.0000 O   0  0  0  0  0  0  0  0  0  0  0  0
    1.9670   -3.2427    0.0000 O   0  0  0  0  0  0  0  0  0  0  0  0
    0.8146   -3.0602    0.0000 O   0  0  0  0  0  0  0  0  0  0  0  0
   -0.7206    0.7678    0.0000 N   0  0  0  0  0  0  0  0  0  0  0  0
   -1.4351    2.0052    0.0000 N   0  0  0  0  0  0  0  0  0  0  0  0
   -1.1331   -1.3267    0.0000 C   0  0  0  0  0  0  0  0  0  0  0  0
   -0.3081   -1.3267    0.0000 C   0  0  0  0  0  0  0  0  0  0  0  0
   -0.7206   -0.0571    0.0000 C   0  0  0  0  0  0  0  0  0  0  0  0
   -1.3881   -0.5420    0.0000 C   0  0  0  0  0  0  0  0  0  0  0  0
    0.1767   -1.9941    0.0000 C   0  0  0  0  0  0  0  0  0  0  0  0
   -1.4351    1.1803    0.0000 C   0  0  0  0  0  0  0  0  0  0  0  0
   -0.0061    1.1803    0.0000 C   0  0  0  0  0  0  0  0  0  0  0  0
   -0.7206    2.4177    0.0000 C   0  0  0  0  0  0  0  0  0  0  0  0
   -0.0061    2.0052    0.0000 C   0  0  0  0  0  0  0  0  0  0  0  0
  1  4  1  0
  1  7  1  0
  1  8  1  0
  1  9  2  0
  2 13  1  0
  2 14  1  0
  4 16  1  0
  5 17  2  0
 10 17  1  0
 10 18  1  0
 11 17  1  0
 11 19  1  0
 12  3  1  1
 12 13  1  0
 12 15  1  0
 13 16  1  6
 14 10  1  6
 14 15  1  0
 18 20  2  0
 19  6  1  6
 19 20  1  0
M  END
>  <DRUGBANK_ID>  (1) 
DB04280

>  <SECONDARY_ACCESSION_NUMBERS>  (1) 
EXPT01146

>  <COMMON_NAME>  (1) 
3,4-Dihydro-2'-deoxyuridine-5'-monophosphate

$$$$
