
     RDKit          2D

 22 25  0  0  0  0  0  0  0  0999 V2000
   -0.0070   -0.8038    0.0000 C   0  0  0  0  0  0  0  0  0  0  0  0
   -0.7093   -1.2177    0.0000 C   0  0  0  0  0  0  0  0  0  0  0  0
    0.7094   -1.2177    0.0000 C   0  0  0  0  0  0  0  0  0  0  0  0
    0.2013   -1.4261    0.0000 C   0  0  0  0  0  0  0  0  0  0  0  0
   -0.0107    0.0210    0.0000 C   0  0  0  0  0  0  0  0  0  0  0  0
   -0.7093   -2.0456    0.0000 C   0  0  0  0  0  0  0  0  0  0  0  0
   -1.4314   -0.8038    0.0000 C   0  0  0  0  0  0  0  0  0  0  0  0
    0.7094   -2.0456    0.0000 C   0  0  0  0  0  0  0  0  0  0  0  0
    1.4315   -0.8038    0.0000 C   0  0  0  0  0  0  0  0  0  0  0  0
   -0.2524   -1.8458    0.0000 C   0  0  0  0  0  0  0  0  0  0  0  0
    0.7020    0.4367    0.0000 C   0  0  0  0  0  0  0  0  0  0  0  0
    0.0242   -2.5022    0.0000 C   0  0  0  0  0  0  0  0  0  0  0  0
   -1.4515   -2.4509    0.0000 C   0  0  0  0  0  0  0  0  0  0  0  0
   -2.1451   -1.2177    0.0000 C   0  0  0  0  0  0  0  0  0  0  0  0
    1.4315   -2.4509    0.0000 C   0  0  0  0  0  0  0  0  0  0  0  0
    2.1451   -1.2177    0.0000 C   0  0  0  0  0  0  0  0  0  0  0  0
    0.6983    1.2617    0.0000 C   0  0  0  0  0  0  0  0  0  0  0  0
    1.4182    0.0274    0.0000 O   0  0  0  0  0  0  0  0  0  0  0  0
   -2.1451   -2.0456    0.0000 C   0  0  0  0  0  0  0  0  0  0  0  0
    2.1451   -2.0456    0.0000 C   0  0  0  0  0  0  0  0  0  0  0  0
    1.4110    1.6772    0.0000 N   0  0  0  0  0  0  0  0  0  0  0  0
    1.4073    2.5022    0.0000 C   0  0  0  0  0  0  0  0  0  0  0  0
  1  2  1  0
  1  3  1  0
  1  4  1  0
  1  5  1  0
  2  6  2  0
  2  7  1  0
  3  8  2  0
  3  9  1  0
  4 10  1  0
  5 11  1  0
  6 12  1  0
  6 13  1  0
  7 14  2  0
  8 15  1  0
  8 12  1  0
  9 16  2  0
 10 12  1  0
 11 17  1  0
 11 18  1  0
 13 19  2  0
 14 19  1  0
 15 20  2  0
 16 20  1  0
 17 21  1  0
 21 22  1  0
M  END
>  <DRUGBANK_ID>  (1) 
DB09307

>  <COMMON_NAME>  (1) 
Oxaprotiline

>  <CAS_NUMBER>  (1) 
56433-44-4

>  <UNII>  (1) 
3V3Z2HK4LS

>  <SYNONYMS>  (1) 
Hydroxymaprotiline; Oxaprotilina; Oxaprotiline; Oxaprotilinum

$$$$
