
     RDKit          2D

 28 31  0  0  0  0  0  0  0  0999 V2000
    3.9476    1.6866    0.0000 S   0  0  0  0  0  0  0  0  0  0  0  0
   -0.4282    0.2036    0.0000 O   0  0  0  0  0  0  0  0  0  0  0  0
   -4.5220   -0.2036    0.0000 O   0  0  0  0  0  0  0  0  0  0  0  0
    2.4647    0.1201    0.0000 O   0  0  0  0  0  0  0  0  0  0  0  0
    5.2218    1.0286    0.0000 O   0  0  0  0  0  0  0  0  0  0  0  0
   -1.5770   -0.3707    0.0000 N   0  0  0  0  0  0  0  0  0  0  0  0
   -1.5770   -1.6867    0.0000 N   0  0  0  0  0  0  0  0  0  0  0  0
    3.9059    0.3289    0.0000 N   0  0  0  0  0  0  0  0  0  0  0  0
   -2.3602   -0.6214    0.0000 C   0  0  0  0  0  0  0  0  0  0  0  0
   -2.3602   -1.4464    0.0000 C   0  0  0  0  0  0  0  0  0  0  0  0
   -1.1279   -1.0287    0.0000 C   0  0  0  0  0  0  0  0  0  0  0  0
   -3.1018   -0.2036    0.0000 C   0  0  0  0  0  0  0  0  0  0  0  0
   -3.1018   -1.8537    0.0000 C   0  0  0  0  0  0  0  0  0  0  0  0
   -3.8015   -0.6214    0.0000 C   0  0  0  0  0  0  0  0  0  0  0  0
   -0.4282   -0.6214    0.0000 C   0  0  0  0  0  0  0  0  0  0  0  0
    3.1226    1.4464    0.0000 C   0  0  0  0  0  0  0  0  0  0  0  0
   -3.8015   -1.4464    0.0000 C   0  0  0  0  0  0  0  0  0  0  0  0
    3.1226    0.6213    0.0000 C   0  0  0  0  0  0  0  0  0  0  0  0
    1.7127    1.4464    0.0000 C   0  0  0  0  0  0  0  0  0  0  0  0
   -1.3159    0.4124    0.0000 C   0  0  0  0  0  0  0  0  0  0  0  0
    2.4229    1.8537    0.0000 C   0  0  0  0  0  0  0  0  0  0  0  0
    0.2715    0.6213    0.0000 C   0  0  0  0  0  0  0  0  0  0  0  0
    4.3967    1.0286    0.0000 C   0  0  0  0  0  0  0  0  0  0  0  0
    0.9712    1.8537    0.0000 C   0  0  0  0  0  0  0  0  0  0  0  0
    1.7127    0.6213    0.0000 C   0  0  0  0  0  0  0  0  0  0  0  0
    0.2715    1.4464    0.0000 C   0  0  0  0  0  0  0  0  0  0  0  0
    0.9712    0.2036    0.0000 C   0  0  0  0  0  0  0  0  0  0  0  0
   -5.2218   -0.6109    0.0000 C   0  0  0  0  0  0  0  0  0  0  0  0
  1 16  1  0
  1 23  1  0
  2 15  1  0
  2 22  1  0
  3 14  1  0
  3 28  1  0
  4 18  2  0
  5 23  2  0
  6  9  1  0
  6 11  1  0
  6 20  1  0
  7 10  1  0
  7 11  2  0
  8 18  1  0
  8 23  1  0
  9 10  2  0
  9 12  1  0
 10 13  1  0
 11 15  1  0
 12 14  2  0
 13 17  2  0
 14 17  1  0
 16 18  1  0
 16 21  1  0
 19 21  1  0
 19 24  2  0
 19 25  1  0
 22 26  2  0
 22 27  1  0
 24 26  1  0
 25 27  2  0
M  END
>  <DRUGBANK_ID>  (1) 
DB09200

>  <COMMON_NAME>  (1) 
Rivoglitazone

>  <CAS_NUMBER>  (1) 
185428-18-6

>  <UNII>  (1) 
3A3N0634Q6

>  <SYNONYMS>  (1) 
Rivoglitazone

$$$$
