
     RDKit          2D

 22 18  0  0  0  0  0  0  0  0999 V2000
   -1.6969    0.3609    0.0000 C   0  0  0  0  0  0  0  0  0  0  0  0
   -0.9824   -0.0516    0.0000 C   0  0  0  0  0  0  0  0  0  0  0  0
   -0.9824   -0.8766    0.0000 O   0  0  0  0  0  0  0  0  0  0  0  0
   -0.2679    0.3609    0.0000 C   0  0  0  0  0  0  0  0  0  0  0  0
    0.4465   -0.0516    0.0000 C   0  0  0  0  0  0  0  0  0  0  0  0
    0.4465   -0.8766    0.0000 O   0  0  0  0  0  0  0  0  0  0  0  0
    1.1610    0.3609    0.0000 O   0  0  0  0  0  0  0  0  0  0  0  0
    5.3523    1.4289    0.0000 C   0  0  0  0  0  0  0  0  0  0  0  0
    4.9398    0.7145    0.0000 C   0  0  0  0  0  0  0  0  0  0  0  0
    4.1148    0.7145    0.0000 O   0  0  0  0  0  0  0  0  0  0  0  0
    5.3523    0.0000    0.0000 C   0  0  0  0  0  0  0  0  0  0  0  0
    4.9398   -0.7145    0.0000 C   0  0  0  0  0  0  0  0  0  0  0  0
    5.3523   -1.4289    0.0000 O   0  0  0  0  0  0  0  0  0  0  0  0
    4.1148   -0.7145    0.0000 O   0  0  0  0  0  0  0  0  0  0  0  0
    0.4714   -3.0789    0.0000 C   0  0  0  0  0  0  0  0  0  0  0  0
    0.0589   -3.7934    0.0000 C   0  0  0  0  0  0  0  0  0  0  0  0
   -0.7661   -3.7934    0.0000 O   0  0  0  0  0  0  0  0  0  0  0  0
    0.4714   -4.5079    0.0000 C   0  0  0  0  0  0  0  0  0  0  0  0
    0.0589   -5.2224    0.0000 C   0  0  0  0  0  0  0  0  0  0  0  0
    0.4714   -5.9368    0.0000 O   0  0  0  0  0  0  0  0  0  0  0  0
   -0.7661   -5.2224    0.0000 O   0  0  0  0  0  0  0  0  0  0  0  0
    1.8755    0.7734    0.0000 Al  0  0  0  0  0 15  0  0  0  0  0  0
  1  2  1  0
  2  3  2  0
  2  4  1  0
  4  5  1  0
  5  6  2  0
  5  7  1  0
  8  9  1  0
  9 10  2  0
  9 11  1  0
 11 12  1  0
 12 13  2  0
 12 14  1  0
 15 16  1  0
 16 17  2  0
 16 18  1  0
 18 19  1  0
 19 20  2  0
 19 21  1  0
M  CHG  4   7  -1  14  -1  21  -1  22   3
M  END
>  <DRUGBANK_ID>  (1) 
DB13280

>  <COMMON_NAME>  (1) 
Aluminium acetoacetate

>  <CAS_NUMBER>  (1) 
19022-77-6

>  <UNII>  (1) 
5W12C1HF5I

$$$$
