L12
     RDKit          2D

 17 19  0  0  0  0  0  0  0  0999 V2000
    0.1345    0.6137    0.0000 C   0  0  0  0  0  0  0  0  0  0  0  0
   -0.1204   -0.1709    0.0000 C   0  0  0  0  0  0  0  0  0  0  0  0
   -0.9274   -0.3425    0.0000 C   0  0  0  0  0  0  0  0  0  0  0  0
   -1.1823   -1.1271    0.0000 C   0  0  0  0  0  0  0  0  0  0  0  0
   -0.6303   -1.7402    0.0000 C   0  0  0  0  0  0  0  0  0  0  0  0
   -0.8852   -2.5248    0.0000 C   0  0  0  0  0  0  0  0  0  0  0  0
   -1.6922   -2.6963    0.0000 N   0  0  0  0  0  0  0  0  0  0  0  0
   -2.2443   -2.0832    0.0000 C   0  0  0  0  0  0  0  0  0  0  0  0
   -1.9893   -1.2986    0.0000 C   0  0  0  0  0  0  0  0  0  0  0  0
   -0.3504    1.2811    0.0000 C   0  0  0  0  0  0  0  0  0  0  0  0
    1.6336    0.4561    0.0000 C   0  0  0  0  0  0  0  0  0  0  0  0
    0.9191    0.8686    0.0000 C   0  0  0  0  0  0  0  0  0  0  0  0
    0.9191    1.6936    0.0000 C   0  0  0  0  0  0  0  0  0  0  0  0
    1.6336    2.1061    0.0000 C   0  0  0  0  0  0  0  0  0  0  0  0
    2.3481    1.6936    0.0000 C   0  0  0  0  0  0  0  0  0  0  0  0
    0.1345    1.9486    0.0000 N   0  0  0  0  0  0  0  0  0  0  0  0
    2.3481    0.8686    0.0000 C   0  0  0  0  0  0  0  0  0  0  0  0
  1  2  1  0
  1 10  2  0
  1 12  1  0
  2  3  1  0
  3  4  1  0
  4  5  2  0
  4  9  1  0
  5  6  1  0
  6  7  2  0
  7  8  1  0
  8  9  2  0
 10 16  1  0
 11 12  2  0
 11 17  1  0
 12 13  1  0
 13 14  2  0
 13 16  1  0
 14 15  1  0
 15 17  2  0
M  END
>  <DRUGBANK_ID>  (1) 
DB01953

>  <SECONDARY_ACCESSION_NUMBERS>  (1) 
EXPT01988

>  <COMMON_NAME>  (1) 
Inhibitor of P38 Kinase

>  <UNII>  (1) 
2X6GDX4TXP

$$$$
