
     RDKit          2D

 29 32  0  0  0  0  0  0  0  0999 V2000
    0.7145    2.0625    0.0000 O   0  0  0  0  0  0  0  0  0  0  0  0
    0.7145    1.2375    0.0000 C   0  0  0  0  0  0  0  0  0  0  0  0
    1.4289    0.8250    0.0000 O   0  0  0  0  0  0  0  0  0  0  0  0
    0.0000    0.8250    0.0000 C   0  0  0  0  0  0  0  0  0  0  0  0
    0.0000   -0.0000    0.0000 C   0  0  0  0  0  0  0  0  0  0  0  0
   -0.7145   -0.4125    0.0000 N   0  0  0  0  0  0  0  0  0  0  0  0
   -0.7145   -1.2375    0.0000 N   0  0  0  0  0  0  0  0  0  0  0  0
   -1.4289   -1.6500    0.0000 C   0  0  0  0  0  0  0  0  0  0  0  0
   -1.4289   -2.4750    0.0000 C   0  0  0  0  0  0  0  0  0  0  0  0
   -2.0964   -2.9599    0.0000 N   0  0  0  0  0  0  0  0  0  0  0  0
   -1.8414   -3.7445    0.0000 C   0  0  0  0  0  0  0  0  0  0  0  0
   -1.0164   -3.7445    0.0000 C   0  0  0  0  0  0  0  0  0  0  0  0
   -0.7615   -2.9599    0.0000 S   0  0  0  0  0  0  0  0  0  0  0  0
   -0.6039   -4.4590    0.0000 C   0  0  0  0  0  0  0  0  0  0  0  0
   -1.0164   -5.1735    0.0000 C   0  0  0  0  0  0  0  0  0  0  0  0
   -1.8414   -5.1735    0.0000 C   0  0  0  0  0  0  0  0  0  0  0  0
   -2.2539   -4.4590    0.0000 C   0  0  0  0  0  0  0  0  0  0  0  0
   -2.2539   -5.8880    0.0000 C   0  0  0  0  0  0  0  0  0  0  0  0
   -2.6664   -6.6024    0.0000 F   0  0  0  0  0  0  0  0  0  0  0  0
   -2.9684   -5.4755    0.0000 F   0  0  0  0  0  0  0  0  0  0  0  0
   -1.5395   -6.3005    0.0000 F   0  0  0  0  0  0  0  0  0  0  0  0
    0.0000   -1.6500    0.0000 C   0  0  0  0  0  0  0  0  0  0  0  0
    0.0000   -2.4750    0.0000 O   0  0  0  0  0  0  0  0  0  0  0  0
    0.7145   -1.2375    0.0000 C   0  0  0  0  0  0  0  0  0  0  0  0
    0.7145   -0.4125    0.0000 C   0  0  0  0  0  0  0  0  0  0  0  0
    1.4289   -0.0000    0.0000 N   0  0  0  0  0  0  0  0  0  0  0  0
    2.1434   -0.4125    0.0000 C   0  0  0  0  0  0  0  0  0  0  0  0
    2.1434   -1.2375    0.0000 C   0  0  0  0  0  0  0  0  0  0  0  0
    1.4289   -1.6500    0.0000 N   0  0  0  0  0  0  0  0  0  0  0  0
  1  2  1  0
  2  3  2  0
  2  4  1  0
  4  5  1  0
  5  6  2  0
  5 25  1  0
  6  7  1  0
  7  8  1  0
  7 22  1  0
  8  9  1  0
  9 10  2  0
  9 13  1  0
 10 11  1  0
 11 12  2  0
 11 17  1  0
 12 13  1  0
 12 14  1  0
 14 15  2  0
 15 16  1  0
 16 17  2  0
 16 18  1  0
 18 19  1  0
 18 20  1  0
 18 21  1  0
 22 23  2  0
 22 24  1  0
 24 25  2  0
 24 29  1  0
 25 26  1  0
 26 27  2  0
 27 28  1  0
 28 29  2  0
M  END
>  <DRUGBANK_ID>  (1) 
DB15121

>  <COMMON_NAME>  (1) 
AT-001

>  <CAS_NUMBER>  (1) 
1355612-71-3

>  <UNII>  (1) 
E8I3O45DDU

$$$$
