
     RDKit          2D

 12 11  0  0  1  0  0  0  0  0999 V2000
   12.8666  -15.9815    0.0000 O   0  0  0  0  0  0  0  0  0  0  0  0
   13.5812  -13.9189    0.0000 O   0  0  0  0  0  0  0  0  0  0  0  0
   11.4378  -15.9815    0.0000 O   0  0  0  0  0  0  0  0  0  0  0  0
   15.0100  -14.7440    0.0000 O   0  0  0  0  0  0  0  0  0  0  0  0
   10.0087  -15.1565    0.0000 O   0  0  0  0  0  0  0  0  0  0  0  0
   10.7232  -13.9189    0.0000 O   0  0  0  0  0  0  0  0  0  0  0  0
   12.8666  -15.1565    0.0000 C   0  0  0  0  0  0  0  0  0  0  0  0
   12.1522  -14.7440    0.0000 C   0  0  0  0  0  0  0  0  0  0  0  0
   13.5812  -14.7440    0.0000 C   0  0  0  0  0  0  0  0  0  0  0  0
   11.4378  -15.1565    0.0000 C   0  0  0  0  0  0  0  0  0  0  0  0
   14.2956  -15.1565    0.0000 C   0  0  0  0  0  0  0  0  0  0  0  0
   10.7232  -14.7440    0.0000 C   0  0  0  0  0  0  0  0  0  0  0  0
  4 11  1  0
  5 12  1  0
  6 12  2  0
  7  1  1  1
  7  8  1  0
  7  9  1  0
  8 10  1  0
  9  2  1  6
  9 11  1  0
 10  3  1  6
 10 12  1  0
M  END
>  <DRUGBANK_ID>  (1) 
DB03303

>  <SECONDARY_ACCESSION_NUMBERS>  (1) 
EXPT02959

>  <COMMON_NAME>  (1) 
3-deoxy-D-arabino-hexonic acid

>  <CAS_NUMBER>  (1) 
29625-79-4

>  <SYNONYMS>  (1) 
3-Deoxy-arabino-hexonic acid; D-2-keto-3-deoxygluconate

$$$$
