
     RDKit          2D

 23 23  0  0  0  0  0  0  0  0999 V2000
   -2.8580    0.4124    0.0000 C   0  0  0  0  0  0  0  0  0  0  0  0
   -2.8580   -0.4125    0.0000 C   0  0  0  0  0  0  0  0  0  0  0  0
   -1.4290    0.4124    0.0000 C   0  0  0  0  0  0  0  0  0  0  0  0
   -1.4290   -0.4125    0.0000 C   0  0  0  0  0  0  0  0  0  0  0  0
   -2.1435   -0.8250    0.0000 C   0  0  0  0  0  0  0  0  0  0  0  0
   -2.1435    0.8249    0.0000 C   0  0  0  0  0  0  0  0  0  0  0  0
   -0.7145   -0.8250    0.0000 C   0  0  0  0  0  0  0  0  0  0  0  0
   -2.1435   -1.6500    0.0000 O   0  0  0  0  0  0  0  0  0  0  0  0
   -3.5723   -0.8250    0.0000 O   0  0  0  0  0  0  0  0  0  0  0  0
   -2.1435    1.6500    0.0000 O   0  0  0  0  0  0  0  0  0  0  0  0
   -3.5723    0.8249    0.0000 O   0  0  0  0  0  0  0  0  0  0  0  0
   -3.5723   -1.6500    0.0000 C   0  0  0  0  0  0  0  0  0  0  0  0
   -4.2869    0.4124    0.0000 C   0  0  0  0  0  0  0  0  0  0  0  0
    2.8579    0.4124    0.0000 C   0  0  0  0  0  0  0  0  0  0  0  0
    3.5723    0.8249    0.0000 C   0  0  0  0  0  0  0  0  0  0  0  0
    4.2869    0.4124    0.0000 C   0  0  0  0  0  0  0  0  0  0  0  0
    3.5723    1.6500    0.0000 C   0  0  0  0  0  0  0  0  0  0  0  0
    2.1434    0.8249    0.0000 C   0  0  0  0  0  0  0  0  0  0  0  0
    0.0000    0.4124    0.0000 C   0  0  0  0  0  0  0  0  0  0  0  0
    0.7143    0.8249    0.0000 C   0  0  0  0  0  0  0  0  0  0  0  0
    1.4289    0.4124    0.0000 C   0  0  0  0  0  0  0  0  0  0  0  0
    0.7143    1.6500    0.0000 C   0  0  0  0  0  0  0  0  0  0  0  0
   -0.7145    0.8249    0.0000 C   0  0  0  0  0  0  0  0  0  0  0  0
  1 11  1  0
  2  1  2  0
  2  9  1  0
  3 23  1  0
  3  6  1  0
  4  3  2  0
  4  7  1  0
  4  5  1  0
  5  2  1  0
  5  8  2  0
  6  1  1  0
  6 10  2  0
  9 12  1  0
 11 13  1  0
 14 15  2  3
 15 16  1  0
 15 17  1  0
 18 14  1  0
 19 20  2  0
 20 21  1  0
 20 22  1  0
 21 18  1  0
 23 19  1  0
M  END
>  <DRUGBANK_ID>  (1) 
DB08690

>  <COMMON_NAME>  (1) 
Ubiquinone Q2

>  <CAS_NUMBER>  (1) 
606-06-4

>  <UNII>  (1) 
I7T5V2W47R

>  <SYNONYMS>  (1) 
Coenzyme Q2; Ubiquinone 10; Ubiquinone-2

$$$$
