
     RDKit          2D

 29 32  0  0  0  0  0  0  0  0999 V2000
   -5.5495   -0.1977    0.0000 C   0  0  0  0  0  0  0  0  0  0  0  0
   -5.5495   -1.0227    0.0000 C   0  0  0  0  0  0  0  0  0  0  0  0
   -4.8350   -1.4352    0.0000 C   0  0  0  0  0  0  0  0  0  0  0  0
   -4.8350   -2.2602    0.0000 C   0  0  0  0  0  0  0  0  0  0  0  0
   -5.5495   -2.6727    0.0000 C   0  0  0  0  0  0  0  0  0  0  0  0
   -6.2640   -2.2602    0.0000 C   0  0  0  0  0  0  0  0  0  0  0  0
   -6.2640   -1.4352    0.0000 C   0  0  0  0  0  0  0  0  0  0  0  0
   -6.9784   -1.0227    0.0000 N   0  0  0  0  0  0  0  0  0  0  0  0
   -7.7321   -1.3583    0.0000 N   0  0  0  0  0  0  0  0  0  0  0  0
   -8.2841   -0.7452    0.0000 C   0  0  0  0  0  0  0  0  0  0  0  0
   -7.8716   -0.0307    0.0000 C   0  0  0  0  0  0  0  0  0  0  0  0
   -8.2072    0.7230    0.0000 C   0  0  0  0  0  0  0  0  0  0  0  0
   -7.7223    1.3904    0.0000 O   0  0  0  0  0  0  0  0  0  0  0  0
   -9.0277    0.8092    0.0000 C   0  0  0  0  0  0  0  0  0  0  0  0
   -9.5126    0.1418    0.0000 C   0  0  0  0  0  0  0  0  0  0  0  0
  -10.3331    0.2280    0.0000 C   0  0  0  0  0  0  0  0  0  0  0  0
  -10.6686    0.9817    0.0000 C   0  0  0  0  0  0  0  0  0  0  0  0
  -10.1837    1.6491    0.0000 C   0  0  0  0  0  0  0  0  0  0  0  0
   -9.3632    1.5629    0.0000 C   0  0  0  0  0  0  0  0  0  0  0  0
  -10.5193    2.4028    0.0000 C   0  0  0  0  0  0  0  0  0  0  0  0
  -10.8548    3.1565    0.0000 N   0  0  0  0  0  0  0  0  0  0  0  0
   -7.0647   -0.2022    0.0000 C   0  0  0  0  0  0  0  0  0  0  0  0
   -6.4516    0.3498    0.0000 N   0  0  0  0  0  0  0  0  0  0  0  0
   -5.5495   -3.4977    0.0000 C   0  0  0  0  0  0  0  0  0  0  0  0
   -6.2640   -3.9102    0.0000 O   0  0  0  0  0  0  0  0  0  0  0  0
   -4.8350   -3.9102    0.0000 N   0  0  0  0  0  0  0  0  0  0  0  0
   -4.8350   -4.7352    0.0000 C   0  0  0  0  0  0  0  0  0  0  0  0
   -4.4225   -5.4497    0.0000 C   0  0  0  0  0  0  0  0  0  0  0  0
   -5.2475   -5.4497    0.0000 C   0  0  0  0  0  0  0  0  0  0  0  0
  1  2  1  0
  2  3  2  0
  2  7  1  0
  3  4  1  0
  4  5  2  0
  5  6  1  0
  5 24  1  0
  6  7  2  0
  7  8  1  0
  8  9  1  0
  8 22  1  0
  9 10  2  0
 10 11  1  0
 11 12  1  0
 11 22  2  0
 12 13  2  0
 12 14  1  0
 14 15  2  0
 14 19  1  0
 15 16  1  0
 16 17  2  0
 17 18  1  0
 18 19  2  0
 18 20  1  0
 20 21  3  0
 22 23  1  0
 24 25  2  0
 24 26  1  0
 26 27  1  0
 27 28  1  0
 27 29  1  0
 28 29  1  0
M  END
>  <DRUGBANK_ID>  (1) 
DB15448

>  <COMMON_NAME>  (1) 
Acumapimod

>  <CAS_NUMBER>  (1) 
836683-15-9

>  <UNII>  (1) 
2F16KW647L

>  <SYNONYMS>  (1) 
Acumapimod

$$$$
