
     RDKit          2D

 16 17  0  0  0  0  0  0  0  0999 V2000
    2.1429   -0.8268    0.0000 C   0  0  0  0  0  0  0  0  0  0  0  0
    2.1466   -0.0017    0.0000 C   0  0  0  0  0  0  0  0  0  0  0  0
    1.4265   -1.2359    0.0000 C   0  0  0  0  0  0  0  0  0  0  0  0
    1.4340    0.4139    0.0000 C   0  0  0  0  0  0  0  0  0  0  0  0
    0.7139   -0.8202    0.0000 C   0  0  0  0  0  0  0  0  0  0  0  0
   -1.4314   -1.2229    0.0000 C   0  0  0  0  0  0  0  0  0  0  0  0
   -0.7150   -0.8138    0.0000 C   0  0  0  0  0  0  0  0  0  0  0  0
   -2.1401    0.0176    0.0000 C   0  0  0  0  0  0  0  0  0  0  0  0
    0.7177    0.0046    0.0000 C   0  0  0  0  0  0  0  0  0  0  0  0
   -2.1026   -0.8072    0.0000 C   0  0  0  0  0  0  0  0  0  0  0  0
   -0.7112    0.0111    0.0000 C   0  0  0  0  0  0  0  0  0  0  0  0
   -1.4238    0.4270    0.0000 C   0  0  0  0  0  0  0  0  0  0  0  0
    0.0050    0.4205    0.0000 C   0  0  0  0  0  0  0  0  0  0  0  0
   -2.8602   -1.2165    0.0000 O   0  0  0  0  0  0  0  0  0  0  0  0
    0.0088    1.2453    0.0000 O   0  0  0  0  0  0  0  0  0  0  0  0
    2.8602   -1.2453    0.0000 O   0  0  0  0  0  0  0  0  0  0  0  0
  1  2  2  0
  1  3  1  0
  1 16  1  0
  2  4  1  0
  3  5  2  0
  4  9  2  0
  5  9  1  0
  6  7  2  0
  6 10  1  0
  7 11  1  0
  8 10  2  0
  8 12  1  0
  9 13  1  0
 10 14  1  0
 11 12  2  0
 11 13  1  0
 13 15  2  0
M  END
>  <DRUGBANK_ID>  (1) 
DB07635

>  <COMMON_NAME>  (1) 
4,4'-Dihydroxybenzophenone

>  <CAS_NUMBER>  (1) 
611-99-4

>  <UNII>  (1) 
HZR7D31SBY

>  <SYNONYMS>  (1) 
4,4-Dihydroxybenzophenone; 4,4'-Dihydroxydiphenyl ketone; Bis(4-hydroxyphenyl) ketone; Bis(p-hydroxy)benzophenone; p,p'-Dihydroxybenzophenone

$$$$
