
     RDKit          2D

 41 45  0  0  0  0  0  0  0  0999 V2000
    3.7217    7.8516    0.0000 C   0  0  0  0  0  0  0  0  0  0  0  0
    3.1086    7.2995    0.0000 C   0  0  0  0  0  0  0  0  0  0  0  0
    3.2802    6.4925    0.0000 C   0  0  0  0  0  0  0  0  0  0  0  0
    2.6671    5.9405    0.0000 C   0  0  0  0  0  0  0  0  0  0  0  0
    1.8824    6.1955    0.0000 C   0  0  0  0  0  0  0  0  0  0  0  0
    1.7109    7.0024    0.0000 C   0  0  0  0  0  0  0  0  0  0  0  0
    2.3240    7.5545    0.0000 C   0  0  0  0  0  0  0  0  0  0  0  0
    1.2693    5.6434    0.0000 N   0  0  0  0  0  0  0  0  0  0  0  0
    0.4624    5.8150    0.0000 N   0  0  0  0  0  0  0  0  0  0  0  0
    0.0499    5.1005    0.0000 C   0  0  0  0  0  0  0  0  0  0  0  0
    0.6019    4.4874    0.0000 C   0  0  0  0  0  0  0  0  0  0  0  0
    1.3556    4.8229    0.0000 C   0  0  0  0  0  0  0  0  0  0  0  0
    2.0701    4.4104    0.0000 N   0  0  0  0  0  0  0  0  0  0  0  0
    2.0701    3.5854    0.0000 C   0  0  0  0  0  0  0  0  0  0  0  0
    1.3556    3.1729    0.0000 O   0  0  0  0  0  0  0  0  0  0  0  0
    2.7845    3.1729    0.0000 N   0  0  0  0  0  0  0  0  0  0  0  0
    2.7845    2.3479    0.0000 C   0  0  0  0  0  0  0  0  0  0  0  0
    3.4990    1.9354    0.0000 C   0  0  0  0  0  0  0  0  0  0  0  0
    4.2135    2.3479    0.0000 C   0  0  0  0  0  0  0  0  0  0  0  0
    4.9279    1.9354    0.0000 C   0  0  0  0  0  0  0  0  0  0  0  0
    5.6424    2.3479    0.0000 F   0  0  0  0  0  0  0  0  0  0  0  0
    4.9279    1.1104    0.0000 C   0  0  0  0  0  0  0  0  0  0  0  0
    4.2135    0.6979    0.0000 C   0  0  0  0  0  0  0  0  0  0  0  0
    3.4990    1.1104    0.0000 C   0  0  0  0  0  0  0  0  0  0  0  0
    2.7845    0.6979    0.0000 O   0  0  0  0  0  0  0  0  0  0  0  0
    2.0701    1.1104    0.0000 C   0  0  0  0  0  0  0  0  0  0  0  0
    1.3556    0.6979    0.0000 C   0  0  0  0  0  0  0  0  0  0  0  0
    0.6411    1.1104    0.0000 C   0  0  0  0  0  0  0  0  0  0  0  0
    0.6411    1.9354    0.0000 C   0  0  0  0  0  0  0  0  0  0  0  0
    1.3556    2.3479    0.0000 C   0  0  0  0  0  0  0  0  0  0  0  0
    2.0701    1.9354    0.0000 C   0  0  0  0  0  0  0  0  0  0  0  0
   -0.1435    2.1904    0.0000 N   0  0  0  0  0  0  0  0  0  0  0  0
   -0.3984    2.9750    0.0000 C   0  0  0  0  0  0  0  0  0  0  0  0
   -1.2054    3.1465    0.0000 C   0  0  0  0  0  0  0  0  0  0  0  0
   -1.7575    2.5334    0.0000 O   0  0  0  0  0  0  0  0  0  0  0  0
   -0.6284    1.5229    0.0000 N   0  0  0  0  0  0  0  0  0  0  0  0
   -0.1435    0.8555    0.0000 C   0  0  0  0  0  0  0  0  0  0  0  0
   -0.7706    5.0142    0.0000 C   0  0  0  0  0  0  0  0  0  0  0  0
   -1.5911    4.9280    0.0000 C   0  0  0  0  0  0  0  0  0  0  0  0
   -0.8568    5.8347    0.0000 C   0  0  0  0  0  0  0  0  0  0  0  0
   -0.6844    4.1938    0.0000 C   0  0  0  0  0  0  0  0  0  0  0  0
  1  2  1  0
  2  3  2  0
  2  7  1  0
  3  4  1  0
  4  5  2  0
  5  6  1  0
  5  8  1  0
  6  7  2  0
  8  9  1  0
  8 12  1  0
  9 10  2  0
 10 11  1  0
 10 38  1  0
 11 12  2  0
 12 13  1  0
 13 14  1  0
 14 15  2  0
 14 16  1  0
 16 17  1  0
 17 18  1  0
 18 19  2  0
 18 24  1  0
 19 20  1  0
 20 21  1  0
 20 22  2  0
 22 23  1  0
 23 24  2  0
 24 25  1  0
 25 26  1  0
 26 27  2  0
 26 31  1  0
 27 28  1  0
 28 29  2  0
 28 37  1  0
 29 30  1  0
 29 32  1  0
 30 31  2  0
 32 33  1  0
 32 36  1  0
 33 34  1  0
 34 35  1  0
 36 37  2  0
 38 39  1  0
 38 40  1  0
 38 41  1  0
M  END
>  <DRUGBANK_ID>  (1) 
DB16294

>  <COMMON_NAME>  (1) 
Pexmetinib

>  <CAS_NUMBER>  (1) 
945614-12-0

>  <UNII>  (1) 
3750D0U8B5

>  <SYNONYMS>  (1) 
Pexmetinib

$$$$
