16750094
     RDKit          2D

 28 31  0  0  0  0  0  0  0  0999 V2000
    8.3322   -0.4833    0.0000 O   0  0  0  0  0  0  0  0  0  0  0  0
    3.7935    1.8126    0.0000 O   0  0  0  0  0  0  0  0  0  0  0  0
    6.7176   -2.1514    0.0000 N   0  0  0  0  0  0  0  0  0  0  0  0
    5.2224   -2.3125    0.0000 N   0  0  0  0  0  0  0  0  0  0  0  0
    2.3645    1.8126    0.0000 N   0  0  0  0  0  0  0  0  0  0  0  0
    2.3645   -0.6625    0.0000 N   0  0  0  0  0  0  0  0  0  0  0  0
    5.9370   -1.0750    0.0000 C   0  0  0  0  0  0  0  0  0  0  0  0
    6.7176   -0.8235    0.0000 C   0  0  0  0  0  0  0  0  0  0  0  0
    5.9370   -1.9000    0.0000 C   0  0  0  0  0  0  0  0  0  0  0  0
    5.2224   -0.6625    0.0000 C   0  0  0  0  0  0  0  0  0  0  0  0
    6.9739   -0.0394    0.0000 C   0  0  0  0  0  0  0  0  0  0  0  0
    4.5080   -1.0750    0.0000 C   0  0  0  0  0  0  0  0  0  0  0  0
    7.1991   -1.4875    0.0000 C   0  0  0  0  0  0  0  0  0  0  0  0
    3.7935   -0.6625    0.0000 C   0  0  0  0  0  0  0  0  0  0  0  0
    4.5080   -1.9000    0.0000 C   0  0  0  0  0  0  0  0  0  0  0  0
    7.7812    0.1308    0.0000 C   0  0  0  0  0  0  0  0  0  0  0  0
    6.4229    0.5747    0.0000 C   0  0  0  0  0  0  0  0  0  0  0  0
    3.7935    0.1625    0.0000 C   0  0  0  0  0  0  0  0  0  0  0  0
    3.0790    0.5750    0.0000 C   0  0  0  0  0  0  0  0  0  0  0  0
    3.0790   -1.0750    0.0000 C   0  0  0  0  0  0  0  0  0  0  0  0
    8.0375    0.9149    0.0000 C   0  0  0  0  0  0  0  0  0  0  0  0
    6.6792    1.3589    0.0000 C   0  0  0  0  0  0  0  0  0  0  0  0
    7.4865    1.5290    0.0000 C   0  0  0  0  0  0  0  0  0  0  0  0
    3.0790    1.4001    0.0000 C   0  0  0  0  0  0  0  0  0  0  0  0
    2.3645    0.1625    0.0000 C   0  0  0  0  0  0  0  0  0  0  0  0
    2.3645    2.6376    0.0000 C   0  0  0  0  0  0  0  0  0  0  0  0
    1.6500    1.4001    0.0000 C   0  0  0  0  0  0  0  0  0  0  0  0
    9.1395   -0.3132    0.0000 C   0  0  0  0  0  0  0  0  0  0  0  0
  1 16  1  0
  1 28  1  0
  2 24  2  0
  3  9  1  0
  3 13  1  0
  4  9  2  0
  4 15  1  0
  5 24  1  0
  5 26  1  0
  5 27  1  0
  6 20  2  0
  6 25  1  0
  7  8  1  0
  7  9  1  0
  7 10  2  0
  8 11  1  0
  8 13  2  0
 10 12  1  0
 11 16  2  0
 11 17  1  0
 12 14  1  0
 12 15  2  0
 14 18  2  0
 14 20  1  0
 16 21  1  0
 17 22  2  0
 18 19  1  0
 19 24  1  0
 19 25  2  0
 21 23  2  0
 22 23  1  0
M  END
>  <DRUGBANK_ID>  (1) 
DB08350

>  <COMMON_NAME>  (1) 
5-[3-(2-METHOXYPHENYL)-1H-PYRROLO[2,3-B]PYRIDIN-5-YL]-N,N-DIMETHYLPYRIDINE-3-CARBOXAMIDE

$$$$
