23M
     RDKit          2D

 19 21  0  0  0  0  0  0  0  0999 V2000
    0.9527   -0.3076    0.0000 C   0  0  0  0  0  0  0  0  0  0  0  0
    0.9527    0.5174    0.0000 C   0  0  0  0  0  0  0  0  0  0  0  0
    0.1680    0.7724    0.0000 N   0  0  0  0  0  0  0  0  0  0  0  0
   -0.3169    0.1049    0.0000 C   0  0  0  0  0  0  0  0  0  0  0  0
    0.1680   -0.5625    0.0000 C   0  0  0  0  0  0  0  0  0  0  0  0
   -1.1419    0.1049    0.0000 C   0  0  0  0  0  0  0  0  0  0  0  0
   -1.5544   -0.6095    0.0000 C   0  0  0  0  0  0  0  0  0  0  0  0
   -2.3794   -0.6095    0.0000 C   0  0  0  0  0  0  0  0  0  0  0  0
   -2.7919    0.1049    0.0000 C   0  0  0  0  0  0  0  0  0  0  0  0
   -2.3794    0.8194    0.0000 C   0  0  0  0  0  0  0  0  0  0  0  0
   -1.5544    0.8194    0.0000 C   0  0  0  0  0  0  0  0  0  0  0  0
   -2.7919    1.5339    0.0000 C   0  0  0  0  0  0  0  0  0  0  0  0
    1.6671    0.9299    0.0000 C   0  0  0  0  0  0  0  0  0  0  0  0
    2.3816    0.5174    0.0000 C   0  0  0  0  0  0  0  0  0  0  0  0
    2.3816   -0.3076    0.0000 C   0  0  0  0  0  0  0  0  0  0  0  0
    1.6671   -0.7201    0.0000 C   0  0  0  0  0  0  0  0  0  0  0  0
    3.0961   -0.7201    0.0000 C   0  0  0  0  0  0  0  0  0  0  0  0
    3.8105   -0.3076    0.0000 N   0  0  0  0  0  0  0  0  0  0  0  0
    3.0961   -1.5451    0.0000 N   0  0  0  0  0  0  0  0  0  0  0  0
  1  2  2  0
  1  5  1  0
  1 16  1  0
  2  3  1  0
  2 13  1  0
  3  4  1  0
  4  5  2  0
  4  6  1  0
  6  7  2  0
  6 11  1  0
  7  8  1  0
  8  9  2  0
  9 10  1  0
 10 11  2  0
 10 12  1  0
 13 14  2  0
 14 15  1  0
 15 16  2  0
 15 17  1  0
 17 18  2  0
 17 19  1  0
M  END
>  <DRUGBANK_ID>  (1) 
DB06923

>  <COMMON_NAME>  (1) 
2-(3-METHYLPHENYL)-1H-INDOLE-5-CARBOXIMIDAMIDE

$$$$
