616
     RDKit          2D

 27 28  0  0  0  0  0  0  0  0999 V2000
    0.6548    2.2429    0.0000 O   0  0  0  0  0  0  0  0  0  0  0  0
    0.6548    1.4179    0.0000 C   0  0  0  0  0  0  0  0  0  0  0  0
    1.3693    1.0054    0.0000 C   0  0  0  0  0  0  0  0  0  0  0  0
    2.0838    1.4179    0.0000 C   0  0  0  0  0  0  0  0  0  0  0  0
    2.0838    2.2429    0.0000 C   0  0  0  0  0  0  0  0  0  0  0  0
    2.7982    1.0054    0.0000 C   0  0  0  0  0  0  0  0  0  0  0  0
    1.3693    0.1804    0.0000 C   0  0  0  0  0  0  0  0  0  0  0  0
    2.0367   -0.3045    0.0000 C   0  0  0  0  0  0  0  0  0  0  0  0
    2.8214   -0.0496    0.0000 N   0  0  0  0  0  0  0  0  0  0  0  0
    3.4344   -0.6016    0.0000 S   0  0  0  0  0  0  0  0  0  0  0  0
    4.0475   -1.1537    0.0000 O   0  0  0  0  0  0  0  0  0  0  0  0
    3.9865    0.0115    0.0000 O   0  0  0  0  0  0  0  0  0  0  0  0
    2.8824   -1.2147    0.0000 C   0  0  0  0  0  0  0  0  0  0  0  0
    1.7818   -1.0892    0.0000 C   0  0  0  0  0  0  0  0  0  0  0  0
    0.9568   -1.0892    0.0000 C   0  0  0  0  0  0  0  0  0  0  0  0
    0.7019   -0.3045    0.0000 N   0  0  0  0  0  0  0  0  0  0  0  0
   -0.0828   -0.0496    0.0000 C   0  0  0  0  0  0  0  0  0  0  0  0
   -0.2543    0.7574    0.0000 O   0  0  0  0  0  0  0  0  0  0  0  0
   -0.6959   -0.6016    0.0000 C   0  0  0  0  0  0  0  0  0  0  0  0
   -1.4805   -0.3467    0.0000 C   0  0  0  0  0  0  0  0  0  0  0  0
   -2.0936   -0.8987    0.0000 C   0  0  0  0  0  0  0  0  0  0  0  0
   -2.8782   -0.6438    0.0000 N   0  0  0  0  0  0  0  0  0  0  0  0
   -3.4913   -1.1958    0.0000 C   0  0  0  0  0  0  0  0  0  0  0  0
   -4.2759   -0.9409    0.0000 C   0  0  0  0  0  0  0  0  0  0  0  0
   -4.4474   -0.1339    0.0000 C   0  0  0  0  0  0  0  0  0  0  0  0
   -3.8344    0.4181    0.0000 C   0  0  0  0  0  0  0  0  0  0  0  0
   -3.0497    0.1632    0.0000 C   0  0  0  0  0  0  0  0  0  0  0  0
  1  2  2  0
  3  2  1  1
  3  4  1  0
  4  5  1  0
  4  6  1  0
  7  3  1  0
  7  8  1  0
  7 16  1  1
  8  9  1  6
  8 14  1  0
  9 10  1  0
 10 11  2  0
 10 12  2  0
 10 13  1  0
 14 15  1  0
 15 16  1  0
 16 17  1  0
 17 18  2  0
 17 19  1  0
 19 20  2  0
 20 21  1  0
 21 22  1  0
 22 23  1  0
 22 27  1  0
 23 24  1  0
 24 25  1  0
 25 26  1  0
 26 27  1  0
M  END
>  <DRUGBANK_ID>  (1) 
DB03890

>  <SECONDARY_ACCESSION_NUMBERS>  (1) 
EXPT00265

>  <COMMON_NAME>  (1) 
N-[2-(1-Formyl-2-Methyl-Propyl)-1-(4-Piperidin-1-Yl-but-2-Enoyl)-Pyrrolidin-3-Yl]-Methanesulfonamide

$$$$
