
     RDKit          2D

 12 13  0  0  0  0  0  0  0  0999 V2000
   -1.0428    1.1941    0.0000 C   0  0  0  0  0  0  0  0  0  0  0  0
   -0.7878    0.4094    0.0000 C   0  0  0  0  0  0  0  0  0  0  0  0
    0.0371    0.4095    0.0000 N   0  0  0  0  0  0  0  0  0  0  0  0
    0.2920    1.1941    0.0000 N   0  0  0  0  0  0  0  0  0  0  0  0
   -0.3754    1.6790    0.0000 O   0  0  0  0  0  0  0  0  0  0  0  0
    0.5220   -0.2578    0.0000 N   0  0  0  0  0  0  0  0  0  0  0  0
    0.1865   -1.0116    0.0000 C   0  0  0  0  0  0  0  0  0  0  0  0
    0.6714   -1.6790    0.0000 C   0  0  0  0  0  0  0  0  0  0  0  0
    1.4919   -1.5928    0.0000 O   0  0  0  0  0  0  0  0  0  0  0  0
    1.8274   -0.8390    0.0000 C   0  0  0  0  0  0  0  0  0  0  0  0
    1.3425   -0.1716    0.0000 C   0  0  0  0  0  0  0  0  0  0  0  0
   -1.8274    1.4490    0.0000 N   0  0  0  0  0  0  0  0  0  0  0  0
  1  2  2  0
  1 12  1  0
  2  3  1  0
  3  6  1  0
  3  4  2  0
  4  5  1  0
  5  1  1  0
  6  7  1  0
  6 11  1  0
  7  8  1  0
  8  9  1  0
  9 10  1  0
 10 11  1  0
M  CHG  2   3   1  12  -1
M  END
>  <DRUGBANK_ID>  (1) 
DB13400

>  <COMMON_NAME>  (1) 
Linsidomine

>  <CAS_NUMBER>  (1) 
33876-97-0

>  <UNII>  (1) 
5O5U71P6VQ

>  <SYNONYMS>  (1) 
Linsidomina; Linsidomine; Linsidominum

$$$$
