KN2
     RDKit          2D

 18 20  0  0  0  0  0  0  0  0999 V2000
   -2.0124   -0.0933    0.0000 O   0  0  0  0  0  0  0  0  0  0  0  0
   -1.4604    0.5198    0.0000 C   0  0  0  0  0  0  0  0  0  0  0  0
   -1.7153    1.3044    0.0000 C   0  0  0  0  0  0  0  0  0  0  0  0
   -1.1633    1.9175    0.0000 C   0  0  0  0  0  0  0  0  0  0  0  0
   -1.4183    2.7021    0.0000 O   0  0  0  0  0  0  0  0  0  0  0  0
   -0.3563    1.7460    0.0000 C   0  0  0  0  0  0  0  0  0  0  0  0
   -0.1014    0.9613    0.0000 C   0  0  0  0  0  0  0  0  0  0  0  0
   -0.6534    0.3482    0.0000 C   0  0  0  0  0  0  0  0  0  0  0  0
   -0.3985   -0.4364    0.0000 C   0  0  0  0  0  0  0  0  0  0  0  0
    0.3861   -0.6913    0.0000 C   0  0  0  0  0  0  0  0  0  0  0  0
    1.1006   -0.2788    0.0000 C   0  0  0  0  0  0  0  0  0  0  0  0
    1.8151   -0.6913    0.0000 C   0  0  0  0  0  0  0  0  0  0  0  0
    1.8151   -1.5163    0.0000 C   0  0  0  0  0  0  0  0  0  0  0  0
    2.5295   -1.9288    0.0000 O   0  0  0  0  0  0  0  0  0  0  0  0
    1.1006   -1.9288    0.0000 C   0  0  0  0  0  0  0  0  0  0  0  0
    0.3861   -1.5163    0.0000 C   0  0  0  0  0  0  0  0  0  0  0  0
   -0.3985   -1.7713    0.0000 N   0  0  0  0  0  0  0  0  0  0  0  0
   -0.8834   -1.1038    0.0000 N   0  0  0  0  0  0  0  0  0  0  0  0
  1  2  1  0
  2  3  2  0
  2  8  1  0
  3  4  1  0
  4  5  1  0
  4  6  2  0
  6  7  1  0
  7  8  2  0
  8  9  1  0
  9 18  2  0
  9 10  1  0
 10 11  2  0
 10 16  1  0
 11 12  1  0
 12 13  2  0
 13 15  1  0
 13 14  1  0
 15 16  2  0
 16 17  1  0
 17 18  1  0
M  END
>  <DRUGBANK_ID>  (1) 
DB08048

>  <COMMON_NAME>  (1) 
4-(6-HYDROXY-1H-INDAZOL-3-YL)BENZENE-1,3-DIOL

$$$$
