
     RDKit          2D

  9  8  0  0  1  0  0  0  0  0999 V2000
   -1.2375   -0.7145    0.0000 C   0  0  0  0  0  0  0  0  0  0  0  0
    0.8250    0.0000    0.0000 C   0  0  0  0  0  0  0  0  0  0  0  0
    0.0000    0.0000    0.0000 C   0  0  0  0  0  0  0  0  0  0  0  0
    1.2375   -0.7145    0.0000 C   0  0  0  0  0  0  0  0  0  0  0  0
    0.8250   -1.4289    0.0000 C   0  0  0  0  0  0  0  0  0  0  0  0
    2.0625   -0.7145    0.0000 N   0  0  0  0  0  0  0  0  0  0  0  0
    1.2375   -2.1434    0.0000 O   0  0  0  0  0  0  0  0  0  0  0  0
   -0.0000   -1.4289    0.0000 O   0  0  0  0  0  0  0  0  0  0  0  0
   -0.4125   -0.7145    0.0000 O   0  0  0  0  0  0  0  0  0  0  0  0
  3  2  2  0
  4  2  1  0
  4  6  1  6
  5  4  1  0
  7  5  2  0
  8  5  1  0
  9  1  1  0
  9  3  1  0
M  END
>  <DRUGBANK_ID>  (1) 
DB03611

>  <SECONDARY_ACCESSION_NUMBERS>  (1) 
EXPT00504

>  <COMMON_NAME>  (1) 
L-2-amino-4-methoxy-cis-but-3-enoic acid

$$$$
