IEM
     RDKit          2D

 19 19  0  0  0  0  0  0  0  0999 V2000
    1.6995   -1.4040    0.0000 C   0  0  0  0  0  0  0  0  0  0  0  0
    0.9851   -0.9915    0.0000 C   0  0  0  0  0  0  0  0  0  0  0  0
    0.2706   -1.4040    0.0000 C   0  0  0  0  0  0  0  0  0  0  0  0
   -0.4439   -0.9915    0.0000 C   0  0  0  0  0  0  0  0  0  0  0  0
   -0.4439   -0.1665    0.0000 C   0  0  0  0  0  0  0  0  0  0  0  0
    0.2706    0.2460    0.0000 C   0  0  0  0  0  0  0  0  0  0  0  0
    0.2706    1.0710    0.0000 O   0  0  0  0  0  0  0  0  0  0  0  0
    0.9851    1.4835    0.0000 C   0  0  0  0  0  0  0  0  0  0  0  0
    0.9851    2.3085    0.0000 C   0  0  0  0  0  0  0  0  0  0  0  0
    1.6995    2.7210    0.0000 C   0  0  0  0  0  0  0  0  0  0  0  0
    0.2706    2.7210    0.0000 C   0  0  0  0  0  0  0  0  0  0  0  0
   -1.8728   -0.1665    0.0000 C   0  0  0  0  0  0  0  0  0  0  0  0
   -1.8728   -0.9915    0.0000 C   0  0  0  0  0  0  0  0  0  0  0  0
   -1.1584    0.2460    0.0000 N   0  0  0  0  0  0  0  0  0  0  0  0
    2.4140   -0.9915    0.0000 O   0  0  0  0  0  0  0  0  0  0  0  0
    1.6995   -2.2290    0.0000 O   0  0  0  0  0  0  0  0  0  0  0  0
   -1.1584   -1.4040    0.0000 O   0  0  0  0  0  0  0  0  0  0  0  0
    0.9851   -0.1665    0.0000 O   0  0  0  0  0  0  0  0  0  0  0  0
   -2.5873    0.2460    0.0000 O   0  0  0  0  0  0  0  0  0  0  0  0
  1  2  1  0
  1 15  1  0
  1 16  2  0
  2  3  2  0
  2 18  1  0
  3  4  1  0
  4  5  1  0
  4 17  1  6
  5  6  1  0
  5 14  1  1
  6  7  1  6
  6 18  1  0
  7  8  1  0
  8  9  1  0
  9 10  1  0
  9 11  1  0
 12 13  1  0
 12 14  1  0
 12 19  2  0
M  END
>  <DRUGBANK_ID>  (1) 
DB07960

>  <COMMON_NAME>  (1) 
5-ACETAMIDO-5,6-DIHYDRO-4-HYDROXY-6-ISOBUTOXY-4H-PYRAN-2-CARBOXYLIC ACID

$$$$
