MI2
     RDKit          2D

 19 21  0  0  0  0  0  0  0  0999 V2000
    0.8009   -0.4060    0.0000 C   0  0  0  0  0  0  0  0  0  0  0  0
    0.8009    0.4190    0.0000 C   0  0  0  0  0  0  0  0  0  0  0  0
    0.0163    0.6739    0.0000 N   0  0  0  0  0  0  0  0  0  0  0  0
   -0.4687    0.0065    0.0000 C   0  0  0  0  0  0  0  0  0  0  0  0
    0.0163   -0.6609    0.0000 C   0  0  0  0  0  0  0  0  0  0  0  0
   -1.2937    0.0065    0.0000 C   0  0  0  0  0  0  0  0  0  0  0  0
   -1.7062   -0.7080    0.0000 C   0  0  0  0  0  0  0  0  0  0  0  0
   -2.5312   -0.7080    0.0000 C   0  0  0  0  0  0  0  0  0  0  0  0
   -2.9437    0.0065    0.0000 C   0  0  0  0  0  0  0  0  0  0  0  0
   -2.5312    0.7210    0.0000 C   0  0  0  0  0  0  0  0  0  0  0  0
   -1.7062    0.7210    0.0000 C   0  0  0  0  0  0  0  0  0  0  0  0
   -1.2937    1.4354    0.0000 C   0  0  0  0  0  0  0  0  0  0  0  0
    1.5154    0.8315    0.0000 C   0  0  0  0  0  0  0  0  0  0  0  0
    2.2298    0.4190    0.0000 C   0  0  0  0  0  0  0  0  0  0  0  0
    2.2298   -0.4060    0.0000 C   0  0  0  0  0  0  0  0  0  0  0  0
    1.5154   -0.8185    0.0000 C   0  0  0  0  0  0  0  0  0  0  0  0
    2.9443   -0.8185    0.0000 C   0  0  0  0  0  0  0  0  0  0  0  0
    3.6588   -0.4060    0.0000 N   0  0  0  0  0  0  0  0  0  0  0  0
    2.9443   -1.6435    0.0000 N   0  0  0  0  0  0  0  0  0  0  0  0
  1  2  2  0
  1  5  1  0
  1 16  1  0
  2  3  1  0
  2 13  1  0
  3  4  1  0
  4  5  2  0
  4  6  1  0
  6  7  2  0
  6 11  1  0
  7  8  1  0
  8  9  2  0
  9 10  1  0
 10 11  2  0
 11 12  1  0
 13 14  2  0
 14 15  1  0
 15 16  2  0
 15 17  1  0
 17 18  2  0
 17 19  1  0
M  END
>  <DRUGBANK_ID>  (1) 
DB08184

>  <COMMON_NAME>  (1) 
2-(2-METHYLPHENYL)-1H-INDOLE-5-CARBOXIMIDAMIDE

$$$$
