340
     RDKit          2D

 23 25  0  0  0  0  0  0  0  0999 V2000
    2.0254   -1.5341    0.0000 C   0  0  0  0  0  0  0  0  0  0  0  0
    1.3110   -1.9466    0.0000 C   0  0  0  0  0  0  0  0  0  0  0  0
    0.5965   -1.5341    0.0000 C   0  0  0  0  0  0  0  0  0  0  0  0
    0.5965   -0.7091    0.0000 C   0  0  0  0  0  0  0  0  0  0  0  0
    1.3110   -0.2966    0.0000 C   0  0  0  0  0  0  0  0  0  0  0  0
    2.0254   -0.7091    0.0000 C   0  0  0  0  0  0  0  0  0  0  0  0
   -0.1881   -1.7890    0.0000 N   0  0  0  0  0  0  0  0  0  0  0  0
   -0.6731   -1.1216    0.0000 C   0  0  0  0  0  0  0  0  0  0  0  0
   -0.1881   -0.4542    0.0000 C   0  0  0  0  0  0  0  0  0  0  0  0
    1.3110    0.5284    0.0000 O   0  0  0  0  0  0  0  0  0  0  0  0
    1.3110   -2.7716    0.0000 O   0  0  0  0  0  0  0  0  0  0  0  0
   -0.4431   -2.5737    0.0000 C   0  0  0  0  0  0  0  0  0  0  0  0
   -0.4431    0.3305    0.0000 C   0  0  0  0  0  0  0  0  0  0  0  0
   -1.2500    0.5020    0.0000 O   0  0  0  0  0  0  0  0  0  0  0  0
   -1.5050    1.2866    0.0000 C   0  0  0  0  0  0  0  0  0  0  0  0
   -2.3120    1.4581    0.0000 C   0  0  0  0  0  0  0  0  0  0  0  0
   -2.5669    2.2428    0.0000 C   0  0  0  0  0  0  0  0  0  0  0  0
   -2.0149    2.8559    0.0000 C   0  0  0  0  0  0  0  0  0  0  0  0
   -1.2079    2.6843    0.0000 C   0  0  0  0  0  0  0  0  0  0  0  0
   -0.9530    1.8997    0.0000 C   0  0  0  0  0  0  0  0  0  0  0  0
   -1.4981   -1.1216    0.0000 C   0  0  0  0  0  0  0  0  0  0  0  0
    2.7399   -0.2966    0.0000 O   0  0  0  0  0  0  0  0  0  0  0  0
    2.7399    0.5284    0.0000 C   0  0  0  0  0  0  0  0  0  0  0  0
  1  2  1  0
  1  6  2  0
  2  3  1  0
  2 11  2  0
  3  4  2  0
  3  7  1  0
  4  5  1  0
  4  9  1  0
  5  6  1  0
  5 10  2  0
  6 22  1  0
  7  8  1  0
  7 12  1  0
  8  9  2  0
  8 21  1  0
  9 13  1  0
 13 14  1  0
 14 15  1  0
 15 16  2  0
 15 20  1  0
 16 17  1  0
 17 18  2  0
 18 19  1  0
 19 20  2  0
 22 23  1  0
M  END
>  <DRUGBANK_ID>  (1) 
DB03626

>  <SECONDARY_ACCESSION_NUMBERS>  (1) 
EXPT00154

>  <COMMON_NAME>  (1) 
5-Methoxy-1,2-Dimethyl-3-(Phenoxymethyl)Indole-4,7-Dione

$$$$
