
     RDKit          2D

 27 29  0  0  0  0  0  0  0  0999 V2000
   -1.4207    2.9736    0.0000 S   0  0  0  0  0  0  0  0  0  0  0  0
    1.1233    0.1662    0.0000 O   0  0  0  0  0  0  0  0  0  0  0  0
    0.2982    3.0242    0.0000 O   0  0  0  0  0  0  0  0  0  0  0  0
    1.1233    1.5951    0.0000 N   0  0  0  0  0  0  0  0  0  0  0  0
   -1.4207    1.6457    0.0000 N   0  0  0  0  0  0  0  0  0  0  0  0
    0.2982   -1.2628    0.0000 N   0  0  0  0  0  0  0  0  0  0  0  0
   -0.9392   -1.9773    0.0000 N   0  0  0  0  0  0  0  0  0  0  0  0
    0.2982   -2.6917    0.0000 N   0  0  0  0  0  0  0  0  0  0  0  0
    2.3609    0.8807    0.0000 C   0  0  0  0  0  0  0  0  0  0  0  0
    2.8458    0.2132    0.0000 C   0  0  0  0  0  0  0  0  0  0  0  0
    2.8458    1.5481    0.0000 C   0  0  0  0  0  0  0  0  0  0  0  0
    3.6304    0.4681    0.0000 C   0  0  0  0  0  0  0  0  0  0  0  0
    3.6304    1.2932    0.0000 C   0  0  0  0  0  0  0  0  0  0  0  0
    1.5358    0.8807    0.0000 C   0  0  0  0  0  0  0  0  0  0  0  0
    0.2982    1.5951    0.0000 C   0  0  0  0  0  0  0  0  0  0  0  0
   -0.1142    0.8807    0.0000 C   0  0  0  0  0  0  0  0  0  0  0  0
    0.2982    0.1662    0.0000 C   0  0  0  0  0  0  0  0  0  0  0  0
   -0.1142    2.3097    0.0000 C   0  0  0  0  0  0  0  0  0  0  0  0
   -0.1142   -0.5481    0.0000 C   0  0  0  0  0  0  0  0  0  0  0  0
   -0.9392    2.3097    0.0000 C   0  0  0  0  0  0  0  0  0  0  0  0
   -2.2013    2.7222    0.0000 C   0  0  0  0  0  0  0  0  0  0  0  0
   -2.2013    1.8972    0.0000 C   0  0  0  0  0  0  0  0  0  0  0  0
   -2.9159    3.1348    0.0000 C   0  0  0  0  0  0  0  0  0  0  0  0
   -2.9159    1.4847    0.0000 C   0  0  0  0  0  0  0  0  0  0  0  0
   -0.1142   -1.9773    0.0000 C   0  0  0  0  0  0  0  0  0  0  0  0
   -3.6304    2.7222    0.0000 C   0  0  0  0  0  0  0  0  0  0  0  0
   -3.6304    1.8972    0.0000 C   0  0  0  0  0  0  0  0  0  0  0  0
  1 20  1  0
  1 21  1  0
  2 14  2  0
  3 18  2  0
  4 14  1  0
  5 20  2  0
  5 22  1  0
  6 19  1  0
  6 25  2  3
  7 25  1  0
  8 25  1  0
  9 10  1  0
  9 11  1  0
  9 14  1  0
 10 12  1  0
 11 13  1  0
 12 13  1  0
 15  4  1  0
 15 16  1  1
 15 18  1  0
 16 17  1  0
 17 19  1  0
 18 20  1  0
 21 22  2  0
 21 23  1  0
 22 24  1  0
 23 26  2  0
 24 27  2  0
 26 27  1  0
M  END
>  <DRUGBANK_ID>  (1) 
DB03251

>  <SECONDARY_ACCESSION_NUMBERS>  (1) 
EXPT02826

>  <COMMON_NAME>  (1) 
RWJ-51084

$$$$
