
     RDKit          2D

 10 11  0  0  1  0  0  0  0  0999 V2000
    0.0771    0.5898    0.0000 C   0  0  0  0  0  0  0  0  0  0  0  0
    0.4987   -0.1170    0.0000 N   0  0  0  0  0  0  0  0  0  0  0  0
    1.0579   -0.5558    0.0000 C   0  0  0  0  0  0  0  0  0  0  0  0
    0.7382   -1.2627    0.0000 C   0  0  0  0  0  0  0  0  0  0  0  0
    0.1194   -1.6387    0.0000 C   0  0  0  0  0  0  0  0  0  0  0  0
    0.6380   -0.9281    0.0000 C   0  0  0  0  0  0  0  0  0  0  0  0
    1.6074   -0.9281    0.0000 C   0  0  0  0  0  0  0  0  0  0  0  0
    2.1223   -1.3558    0.0000 C   0  0  0  0  0  0  0  0  0  0  0  0
    2.5331   -2.0690    0.0000 O   0  0  0  0  0  0  0  0  0  0  0  0
    1.9845   -0.5404    0.0000 C   0  0  0  0  0  0  0  0  0  0  0  0
  1  2  1  0
  3  2  1  0
  3  4  1  6
  3 10  1  0
  4  5  1  0
  6  5  1  1
  6  2  1  0
  6  7  1  0
  7  8  1  0
  8  9  2  0
  8 10  1  0
M  END
>  <DRUGBANK_ID>  (1) 
DB01874

>  <SECONDARY_ACCESSION_NUMBERS>  (1) 
EXPT03077

>  <COMMON_NAME>  (1) 
Tropinone

>  <CAS_NUMBER>  (1) 
532-24-1

>  <UNII>  (1) 
2A8CC8KA5F

$$$$
