
     RDKit          2D

 12 11  0  0  0  0  0  0  0  0999 V2000
    1.7605    1.8414    0.0000 C   0  0  0  0  0  0  0  0  0  0  0  0
    2.4750    1.4289    0.0000 C   0  0  0  0  0  0  0  0  0  0  0  0
    2.4750    0.6039    0.0000 C   0  0  0  0  0  0  0  0  0  0  0  0
    3.1895    1.8414    0.0000 C   0  0  0  0  0  0  0  0  0  0  0  0
    3.9039    1.4289    0.0000 C   0  0  0  0  0  0  0  0  0  0  0  0
    3.9039    0.6039    0.0000 C   0  0  0  0  0  0  0  0  0  0  0  0
    4.6184    0.1914    0.0000 O   0  0  0  0  0  0  0  0  0  0  0  0
    3.1895    0.1914    0.0000 O   0  0  0  0  0  0  0  0  0  0  0  0
    4.6184    1.8414    0.0000 N   0  0  0  0  0  0  0  0  0  0  0  0
    5.3329    1.4289    0.0000 C   0  0  0  0  0  0  0  0  0  0  0  0
    6.0474    1.8414    0.0000 O   0  0  0  0  0  0  0  0  0  0  0  0
    5.3329    0.6039    0.0000 C   0  0  0  0  0  0  0  0  0  0  0  0
  1  2  1  0
  2  3  1  0
  2  4  1  0
  4  5  1  0
  5  6  1  0
  5  9  1  0
  6  7  2  0
  6  8  1  0
  9 10  1  0
 10 11  2  0
 10 12  1  0
M  END
>  <DRUGBANK_ID>  (1) 
DB13226

>  <COMMON_NAME>  (1) 
Acetylleucine

>  <CAS_NUMBER>  (1) 
99-15-0

>  <UNII>  (1) 
K76S41V71X

>  <SYNONYMS>  (1) 
(R,S)-N-Acetylleucin; Acetileucina; Acetylleucine; Acetylleucinum; N-Acetyl-DL-Leucine

$$$$
