SCL
     RDKit          2D

 14 14  0  0  0  0  0  0  0  0999 V2000
   -0.7229    0.1749    0.0000 C   0  0  0  0  0  0  0  0  0  0  0  0
   -0.7229   -0.6501    0.0000 C   0  0  0  0  0  0  0  0  0  0  0  0
   -1.4374   -1.0626    0.0000 C   0  0  0  0  0  0  0  0  0  0  0  0
   -2.1519   -0.6501    0.0000 C   0  0  0  0  0  0  0  0  0  0  0  0
   -2.1519    0.1749    0.0000 C   0  0  0  0  0  0  0  0  0  0  0  0
   -1.4374    0.5874    0.0000 C   0  0  0  0  0  0  0  0  0  0  0  0
   -0.0084    0.5874    0.0000 C   0  0  0  0  0  0  0  0  0  0  0  0
    2.1350    0.1749    0.0000 C   0  0  0  0  0  0  0  0  0  0  0  0
    2.8494    0.5874    0.0000 C   0  0  0  0  0  0  0  0  0  0  0  0
    0.7060    0.1749    0.0000 N   0  0  0  0  0  0  0  0  0  0  0  0
   -0.0084   -1.0626    0.0000 O   0  0  0  0  0  0  0  0  0  0  0  0
   -0.0084    1.4124    0.0000 O   0  0  0  0  0  0  0  0  0  0  0  0
    1.4205    0.5874    0.0000 O   0  0  0  0  0  0  0  0  0  0  0  0
    2.1350   -0.6501    0.0000 O   0  0  0  0  0  0  0  0  0  0  0  0
  1  2  2  0
  1  6  1  0
  1  7  1  0
  2  3  1  0
  2 11  1  0
  3  4  2  0
  4  5  1  0
  5  6  2  0
  7 10  1  0
  7 12  2  0
  8  9  1  0
  8 13  1  0
  8 14  2  0
 10 13  1  0
M  END
>  <DRUGBANK_ID>  (1) 
DB03667

>  <SECONDARY_ACCESSION_NUMBERS>  (1) 
EXPT02867

>  <COMMON_NAME>  (1) 
Acetic Acid Salicyloyl-Amino-Ester

$$$$
