XP1
     RDKit          2D

 12 12  0  0  0  0  0  0  0  0999 V2000
   -8.2529  -21.5312    0.0000 C   0  0  0  0  0  0  0  0  0  0  0  0
   -8.2529  -22.3562    0.0000 N   0  0  0  0  0  0  0  0  0  0  0  0
   -7.5385  -22.7687    0.0000 C   0  0  0  0  0  0  0  0  0  0  0  0
   -8.9674  -22.7687    0.0000 C   0  0  0  0  0  0  0  0  0  0  0  0
   -8.9674  -23.5937    0.0000 C   0  0  0  0  0  0  0  0  0  0  0  0
   -9.6819  -24.0062    0.0000 C   0  0  0  0  0  0  0  0  0  0  0  0
  -10.3963  -23.5937    0.0000 C   0  0  0  0  0  0  0  0  0  0  0  0
  -11.1108  -24.0062    0.0000 C   0  0  0  0  0  0  0  0  0  0  0  0
  -11.1108  -24.8312    0.0000 O   0  0  0  0  0  0  0  0  0  0  0  0
  -10.3963  -22.7687    0.0000 C   0  0  0  0  0  0  0  0  0  0  0  0
   -9.6819  -22.3562    0.0000 C   0  0  0  0  0  0  0  0  0  0  0  0
  -11.8253  -23.5937    0.0000 O   0  0  0  0  0  0  0  0  0  0  0  0
  1  2  1  0
  2  3  1  0
  2  4  1  0
  4  5  2  0
  4 11  1  0
  5  6  1  0
  6  7  2  0
  7  8  1  0
  7 10  1  0
  8  9  2  0
  8 12  1  0
 10 11  2  0
M  END
>  <DRUGBANK_ID>  (1) 
DB08748

>  <COMMON_NAME>  (1) 
4-(Dimethylamino)benzoic acid

>  <CAS_NUMBER>  (1) 
619-84-1

>  <UNII>  (1) 
D1MA908EV0

>  <SYNONYMS>  (1) 
N,N-Dimethyl-4-aminobenzoic acid; N,N-Dimethyl-p-aminobenzoic acid; p-Dimethylamino benzoic acid; p-N,N-(Dimethylamino)benzoic acid

$$$$
