BLN
     RDKit          2D

 29 30  0  0  0  0  0  0  0  0999 V2000
   -1.4906   -1.0365    0.0000 C   0  0  0  0  0  0  0  0  0  0  0  0
   -1.8869   -2.4093    0.0000 C   0  0  0  0  0  0  0  0  0  0  0  0
   -2.4814   -2.9814    0.0000 C   0  0  0  0  0  0  0  0  0  0  0  0
   -3.4722   -1.9517    0.0000 C   0  0  0  0  0  0  0  0  0  0  0  0
   -2.8777   -1.3797    0.0000 C   0  0  0  0  0  0  0  0  0  0  0  0
   -0.6980   -1.2653    0.0000 O   0  0  0  0  0  0  0  0  0  0  0  0
   -3.2740   -2.7526    0.0000 O   0  0  0  0  0  0  0  0  0  0  0  0
   -2.0851   -1.6085    0.0000 N   0  0  0  0  0  0  0  0  0  0  0  0
   -1.6888   -0.2356    0.0000 N   0  0  0  0  0  0  0  0  0  0  0  0
   -1.0943    0.3364    0.0000 C   0  0  0  0  0  0  0  0  0  0  0  0
   -1.2924    1.1373    0.0000 C   0  0  0  0  0  0  0  0  0  0  0  0
   -2.0851    1.3661    0.0000 C   0  0  0  0  0  0  0  0  0  0  0  0
   -2.6796    0.7941    0.0000 C   0  0  0  0  0  0  0  0  0  0  0  0
   -2.2832    2.1669    0.0000 C   0  0  0  0  0  0  0  0  0  0  0  0
   -0.3016    0.1076    0.0000 C   0  0  0  0  0  0  0  0  0  0  0  0
   -0.1035   -0.6932    0.0000 O   0  0  0  0  0  0  0  0  0  0  0  0
    1.6799    1.0229    0.0000 C   0  0  0  0  0  0  0  0  0  0  0  0
    0.2928    0.6796    0.0000 N   0  0  0  0  0  0  0  0  0  0  0  0
    2.4726    0.7941    0.0000 O   0  0  0  0  0  0  0  0  0  0  0  0
    3.0670    1.3661    0.0000 C   0  0  0  0  0  0  0  0  0  0  0  0
    3.8597    1.1373    0.0000 C   0  0  0  0  0  0  0  0  0  0  0  0
    4.4542    1.7093    0.0000 C   0  0  0  0  0  0  0  0  0  0  0  0
    5.2468    1.4805    0.0000 C   0  0  0  0  0  0  0  0  0  0  0  0
    5.4450    0.6796    0.0000 C   0  0  0  0  0  0  0  0  0  0  0  0
    4.8505    0.1076    0.0000 C   0  0  0  0  0  0  0  0  0  0  0  0
    4.0578    0.3364    0.0000 C   0  0  0  0  0  0  0  0  0  0  0  0
    1.2836   -0.3500    0.0000 C   0  0  0  0  0  0  0  0  0  0  0  0
    1.4818   -1.1509    0.0000 N   0  0  0  0  0  0  0  0  0  0  0  0
    1.0855    0.4508    0.0000 C   0  0  0  0  0  0  0  0  0  0  0  0
  1  6  2  0
  1  8  1  0
  1  9  1  0
  2  3  1  0
  2  8  1  0
  3  7  1  0
  4  5  1  0
  4  7  1  0
  5  8  1  0
 10  9  1  0
 10 11  1  1
 10 15  1  0
 11 12  1  0
 12 13  1  0
 12 14  1  0
 15 16  2  0
 15 18  1  0
 17 19  1  0
 29 17  1  1
 19 20  1  0
 20 21  1  0
 21 22  2  0
 21 26  1  0
 22 23  1  0
 23 24  2  0
 24 25  1  0
 25 26  2  0
 27 28  3  0
 27 29  1  0
 29 18  1  0
M  END
>  <DRUGBANK_ID>  (1) 
DB03767

>  <SECONDARY_ACCESSION_NUMBERS>  (1) 
EXPT00719

>  <COMMON_NAME>  (1) 
Morpholine-4-Carboxylic Acid [1s-(2-Benzyloxy-1r-Cyano-Ethylcarbamoyl)-3-Methyl-Butyl]Amide

$$$$
