LZ7
     RDKit          2D

 19 20  0  0  0  0  0  0  0  0999 V2000
   17.3076    5.2712    0.0000 C   0  0  0  0  0  0  0  0  0  0  0  0
   17.3076    4.4462    0.0000 C   0  0  0  0  0  0  0  0  0  0  0  0
   18.0221    4.0337    0.0000 O   0  0  0  0  0  0  0  0  0  0  0  0
   16.5932    4.0337    0.0000 N   0  0  0  0  0  0  0  0  0  0  0  0
   16.5932    3.2087    0.0000 C   0  0  0  0  0  0  0  0  0  0  0  0
   17.2606    2.7238    0.0000 C   0  0  0  0  0  0  0  0  0  0  0  0
   17.0057    1.9392    0.0000 N   0  0  0  0  0  0  0  0  0  0  0  0
   16.1807    1.9392    0.0000 N   0  0  0  0  0  0  0  0  0  0  0  0
   15.9257    2.7238    0.0000 C   0  0  0  0  0  0  0  0  0  0  0  0
   15.1411    2.9787    0.0000 C   0  0  0  0  0  0  0  0  0  0  0  0
   14.9696    3.7857    0.0000 O   0  0  0  0  0  0  0  0  0  0  0  0
   14.5280    2.4267    0.0000 N   0  0  0  0  0  0  0  0  0  0  0  0
   13.7434    2.6816    0.0000 C   0  0  0  0  0  0  0  0  0  0  0  0
   13.1303    2.1296    0.0000 C   0  0  0  0  0  0  0  0  0  0  0  0
   12.3457    2.3845    0.0000 C   0  0  0  0  0  0  0  0  0  0  0  0
   12.1741    3.1915    0.0000 C   0  0  0  0  0  0  0  0  0  0  0  0
   11.3895    3.4465    0.0000 F   0  0  0  0  0  0  0  0  0  0  0  0
   12.7872    3.7436    0.0000 C   0  0  0  0  0  0  0  0  0  0  0  0
   13.5719    3.4886    0.0000 C   0  0  0  0  0  0  0  0  0  0  0  0
  1  2  1  0
  2  3  2  0
  2  4  1  0
  4  5  1  0
  5  6  2  0
  5  9  1  0
  6  7  1  0
  7  8  1  0
  8  9  2  0
  9 10  1  0
 10 11  2  0
 10 12  1  0
 12 13  1  0
 13 14  2  0
 13 19  1  0
 14 15  1  0
 15 16  2  0
 16 17  1  0
 16 18  1  0
 18 19  2  0
M  END
>  <DRUGBANK_ID>  (1) 
DB08136

>  <COMMON_NAME>  (1) 
4-(acetylamino)-N-(4-fluorophenyl)-1H-pyrazole-3-carboxamide

>  <UNII>  (1) 
U5RM7N7H82

$$$$
