
     RDKit          2D

 33 24  0  0  0  0  0  0  0  0999 V2000
   -1.5169   -2.5623    0.0000 K   0  0  0  0  0 15  0  0  0  0  0  0
   -3.6819    3.6872    0.0000 Na  0  0  0  0  0 15  0  0  0  0  0  0
    2.2328    3.3524    0.0000 K   0  0  0  0  0 15  0  0  0  0  0  0
   -0.4345   -3.1872    0.0000 Na  0  0  0  0  0 15  0  0  0  0  0  0
    3.8953   -1.9374    0.0000 K   0  0  0  0  0 15  0  0  0  0  0  0
    5.4802   -5.3522    0.0000 Na  0  0  0  0  0 15  0  0  0  0  0  0
   -0.7052    0.7374    0.0000 C   0  0  0  0  0  0  0  0  0  0  0  0
   -1.4169    1.1498    0.0000 C   0  0  0  0  0  0  0  0  0  0  0  0
   -1.0044    1.8657    0.0000 C   0  0  0  0  0  0  0  0  0  0  0  0
   -0.7052   -0.0874    0.0000 C   0  0  0  0  0  0  0  0  0  0  0  0
    0.0104   -0.5000    0.0000 O   0  0  0  0  0  0  0  0  0  0  0  0
   -1.4169   -0.5000    0.0000 O   0  0  0  0  0  0  0  0  0  0  0  0
   -2.1327    1.5624    0.0000 C   0  0  0  0  0  0  0  0  0  0  0  0
   -2.8444    1.1498    0.0000 O   0  0  0  0  0  0  0  0  0  0  0  0
   -2.1327    2.3873    0.0000 O   0  0  0  0  0  0  0  0  0  0  0  0
   -0.1794    1.8657    0.0000 C   0  0  0  0  0  0  0  0  0  0  0  0
    0.2329    1.1498    0.0000 O   0  0  0  0  0  0  0  0  0  0  0  0
    0.2329    2.5774    0.0000 O   0  0  0  0  0  0  0  0  0  0  0  0
   -1.8294    0.4340    0.0000 O   0  0  0  0  0  0  0  0  0  0  0  0
    1.9345   -4.2039    0.0000 C   0  0  0  0  0  0  0  0  0  0  0  0
    1.9345   -3.3789    0.0000 C   0  0  0  0  0  0  0  0  0  0  0  0
    2.7595   -3.3789    0.0000 C   0  0  0  0  0  0  0  0  0  0  0  0
    1.2228   -4.6164    0.0000 C   0  0  0  0  0  0  0  0  0  0  0  0
    1.2228   -5.4414    0.0000 O   0  0  0  0  0  0  0  0  0  0  0  0
    0.5071   -4.2039    0.0000 O   0  0  0  0  0  0  0  0  0  0  0  0
    1.9345   -2.5540    0.0000 C   0  0  0  0  0  0  0  0  0  0  0  0
    1.2228   -2.1416    0.0000 O   0  0  0  0  0  0  0  0  0  0  0  0
    2.6503   -2.1416    0.0000 O   0  0  0  0  0  0  0  0  0  0  0  0
    3.1719   -4.0947    0.0000 C   0  0  0  0  0  0  0  0  0  0  0  0
    2.7595   -4.8105    0.0000 O   0  0  0  0  0  0  0  0  0  0  0  0
    3.9968   -4.0947    0.0000 O   0  0  0  0  0  0  0  0  0  0  0  0
    1.1096   -3.3789    0.0000 O   0  0  0  0  0  0  0  0  0  0  0  0
   -4.7644    5.4414    0.0000 O   0  0  0  0  0  0  0  0  0  0  0  0
  7 10  1  0
  7  8  1  0
  8 13  1  0
  8 19  1  0
  8  9  1  0
  9 16  1  0
 10 11  2  0
 10 12  1  0
 13 14  2  0
 13 15  1  0
 16 17  2  0
 16 18  1  0
 20 21  1  0
 20 23  1  0
 21 22  1  0
 21 26  1  0
 21 32  1  0
 22 29  1  0
 23 24  2  0
 23 25  1  0
 26 27  2  0
 26 28  1  0
 29 30  2  0
 29 31  1  0
M  CHG  8   1   1   2   1   3   1   4   1   5   1   6   1  12  -1  15  -1
M  CHG  4  18  -1  25  -1  28  -1  31  -1
M  END
>  <DRUGBANK_ID>  (1) 
DB16585

>  <COMMON_NAME>  (1) 
Potassium sodium hydrogen citrate

>  <CAS_NUMBER>  (1) 
55049-48-4

>  <UNII>  (1) 
X6T6YN87SU

>  <SYNONYMS>  (1) 
Hexapotassium hexasodium pentacitrate hydrate; Hexapotassium hexasodium pentacitrate hydrate complex; Potassium sodium hydrogen citrate; Sodium potassium hydrogen citrate; Uralyt-U

$$$$
