IDZ
     RDKit          2D

 18 21  0  0  0  0  0  0  0  0999 V2000
    1.2775    2.4053    0.0000 C   0  0  0  0  0  0  0  0  0  0  0  0
    1.9919    1.9928    0.0000 C   0  0  0  0  0  0  0  0  0  0  0  0
    1.9919    1.1678    0.0000 C   0  0  0  0  0  0  0  0  0  0  0  0
    1.2775    0.7553    0.0000 C   0  0  0  0  0  0  0  0  0  0  0  0
    0.5630    1.1678    0.0000 C   0  0  0  0  0  0  0  0  0  0  0  0
   -0.2216    0.9129    0.0000 C   0  0  0  0  0  0  0  0  0  0  0  0
   -0.4766    0.1282    0.0000 C   0  0  0  0  0  0  0  0  0  0  0  0
    0.0083   -0.5392    0.0000 N   0  0  0  0  0  0  0  0  0  0  0  0
   -0.4766   -1.2066    0.0000 C   0  0  0  0  0  0  0  0  0  0  0  0
   -0.3051   -2.0136    0.0000 C   0  0  0  0  0  0  0  0  0  0  0  0
   -0.9181   -2.5656    0.0000 C   0  0  0  0  0  0  0  0  0  0  0  0
   -1.7028   -2.3107    0.0000 C   0  0  0  0  0  0  0  0  0  0  0  0
   -1.8743   -1.5037    0.0000 C   0  0  0  0  0  0  0  0  0  0  0  0
   -1.2612   -0.9517    0.0000 C   0  0  0  0  0  0  0  0  0  0  0  0
   -0.2216    2.2477    0.0000 N   0  0  0  0  0  0  0  0  0  0  0  0
    0.5630    1.9928    0.0000 C   0  0  0  0  0  0  0  0  0  0  0  0
   -1.2612   -0.1267    0.0000 N   0  0  0  0  0  0  0  0  0  0  0  0
   -0.7066    1.5803    0.0000 N   0  0  0  0  0  0  0  0  0  0  0  0
  1  2  2  0
  1 16  1  0
  2  3  1  0
  3  4  2  0
  4  5  1  0
  5  6  1  0
  5 16  2  0
  6  7  1  0
  6 18  2  0
  7  8  1  0
  7 17  2  0
  8  9  1  0
  9 10  2  0
  9 14  1  0
 10 11  1  0
 11 12  2  0
 12 13  1  0
 13 14  2  0
 14 17  1  0
 15 16  1  0
 15 18  1  0
M  END
>  <DRUGBANK_ID>  (1) 
DB07959

>  <COMMON_NAME>  (1) 
3-(1H-BENZIMIDAZOL-2-YL)-1H-INDAZOLE

$$$$
