
     RDKit          2D

  8  7  0  0  0  0  0  0  0  0999 V2000
   11.8291  -13.0248    0.0000 P   0  0  0  0  0  0  0  0  0  0  0  0
   12.5436  -12.6123    0.0000 O   0  0  0  0  0  0  0  0  0  0  0  0
   11.1146  -13.4373    0.0000 O   0  0  0  0  0  0  0  0  0  0  0  0
   11.4166  -12.3103    0.0000 O   0  0  0  0  0  0  0  0  0  0  0  0
   12.2416  -13.7393    0.0000 O   0  0  0  0  0  0  0  0  0  0  0  0
   14.6871  -13.0248    0.0000 N   0  0  0  0  0  0  0  0  0  0  0  0
   13.2581  -13.0248    0.0000 C   0  0  0  0  0  0  0  0  0  0  0  0
   13.9725  -12.6123    0.0000 C   0  0  0  0  0  0  0  0  0  0  0  0
  1  2  1  0
  1  3  1  0
  1  4  1  0
  1  5  2  0
  2  7  1  0
  6  8  1  0
  7  8  1  0
M  END
>  <DRUGBANK_ID>  (1) 
DB01738

>  <SECONDARY_ACCESSION_NUMBERS>  (1) 
EXPT02671; DB04403

>  <COMMON_NAME>  (1) 
Phosphorylcolamine

>  <CAS_NUMBER>  (1) 
1071-23-4

>  <UNII>  (1) 
78A2BX7AEU

>  <SYNONYMS>  (1) 
2-aminoethyl dihydrogen phosphate; Colamine phosphate; Colamine phosphoric acid; O-Phosphoethanolamine; Phosphorylethanolamine

$$$$
