
     RDKit          2D

 28 32  0  0  1  0  0  0  0  0999 V2000
    2.8810    1.0550    0.0000 C   0  0  0  0  0  0  0  0  0  0  0  0
    2.0964    1.3099    0.0000 N   0  0  0  0  0  0  0  0  0  0  0  0
    1.4289    0.8250    0.0000 C   0  0  0  0  0  0  0  0  0  0  0  0
    0.7615    1.3099    0.0000 N   0  0  0  0  0  0  0  0  0  0  0  0
    1.0164    2.0945    0.0000 C   0  0  0  0  0  0  0  0  0  0  0  0
    1.8414    2.0945    0.0000 N   0  0  0  0  0  0  0  0  0  0  0  0
    1.4289    0.0000    0.0000 C   0  0  0  0  0  0  0  0  0  0  0  0
    2.1434   -0.4125    0.0000 C   0  0  0  0  0  0  0  0  0  0  0  0
    2.1434   -1.2375    0.0000 C   0  0  0  0  0  0  0  0  0  0  0  0
    2.8579   -1.6500    0.0000 C   0  0  0  0  0  0  0  0  0  0  0  0
    2.8579   -2.4750    0.0000 C   0  0  0  0  0  0  0  0  0  0  0  0
    2.1434   -2.8875    0.0000 C   0  0  0  0  0  0  0  0  0  0  0  0
    1.4289   -2.4750    0.0000 C   0  0  0  0  0  0  0  0  0  0  0  0
    1.4289   -1.6500    0.0000 C   0  0  0  0  0  0  0  0  0  0  0  0
    0.7145   -1.2375    0.0000 N   0  0  0  0  0  0  0  0  0  0  0  0
    0.7145   -0.4125    0.0000 C   0  0  0  0  0  0  0  0  0  0  0  0
    0.0000   -0.0000    0.0000 C   0  0  0  0  0  0  0  0  0  0  0  0
   -0.7145   -0.4125    0.0000 C   0  0  0  0  0  0  0  0  0  0  0  0
   -1.4289   -0.0000    0.0000 C   0  0  0  0  0  0  0  0  0  0  0  0
   -1.4289    0.8250    0.0000 C   0  0  0  0  0  0  0  0  0  0  0  0
   -0.7145    1.2375    0.0000 C   0  0  0  0  0  0  0  0  0  0  0  0
   -0.0000    0.8250    0.0000 C   0  0  0  0  0  0  0  0  0  0  0  0
   -2.1434    1.2375    0.0000 F   0  0  0  0  0  0  0  0  0  0  0  0
    2.1434   -3.7125    0.0000 F   0  0  0  0  0  0  0  0  0  0  0  0
    3.5724   -1.2375    0.0000 C   0  0  0  0  0  0  0  0  0  0  0  0
    4.2868   -1.6500    0.0000 O   0  0  0  0  0  0  0  0  0  0  0  0
    3.5724   -0.4125    0.0000 N   0  0  0  0  0  0  0  0  0  0  0  0
    2.8579    0.0000    0.0000 N   0  0  0  0  0  0  0  0  0  0  0  0
  1  2  1  0
  2  3  1  0
  2  6  1  0
  3  4  2  0
  4  5  1  0
  5  6  2  0
  7  3  1  1
  7  8  1  0
  7 16  1  0
  8  9  1  0
  8 28  2  0
  9 10  1  0
  9 14  2  0
 10 11  2  0
 10 25  1  0
 11 12  1  0
 12 13  2  0
 12 24  1  0
 13 14  1  0
 14 15  1  0
 15 16  1  0
 16 17  1  6
 17 18  2  0
 17 22  1  0
 18 19  1  0
 19 20  2  0
 20 21  1  0
 20 23  1  0
 21 22  2  0
 25 26  2  0
 25 27  1  0
 27 28  1  0
M  END
>  <DRUGBANK_ID>  (1) 
DB11760

>  <COMMON_NAME>  (1) 
Talazoparib

>  <CAS_NUMBER>  (1) 
1207456-01-6

>  <UNII>  (1) 
9QHX048FRV

>  <SYNONYMS>  (1) 
Talazoparib

$$$$
