
     RDKit          2D

 32 34  0  0  0  0  0  0  0  0999 V2000
   -0.6190    2.3657    0.0000 P   0  0  0  0  0  0  0  0  0  0  0  0
    1.9554    1.3429    0.0000 P   0  0  0  0  0  0  0  0  0  0  0  0
    3.3769    1.4898    0.0000 P   0  0  0  0  0  0  0  0  0  0  0  0
   -0.1357   -0.1128    0.0000 O   0  0  0  0  0  0  0  0  0  0  0  0
   -1.1722    1.7536    0.0000 O   0  0  0  0  0  0  0  0  0  0  0  0
   -2.2297    0.3032    0.0000 O   0  0  0  0  0  0  0  0  0  0  0  0
    1.2871    0.8591    0.0000 O   0  0  0  0  0  0  0  0  0  0  0  0
   -0.0658    2.9779    0.0000 O   0  0  0  0  0  0  0  0  0  0  0  0
   -1.2311    2.9189    0.0000 O   0  0  0  0  0  0  0  0  0  0  0  0
   -0.0068    1.8126    0.0000 O   0  0  0  0  0  0  0  0  0  0  0  0
    2.6238    1.8266    0.0000 O   0  0  0  0  0  0  0  0  0  0  0  0
    2.4392    0.6745    0.0000 O   0  0  0  0  0  0  0  0  0  0  0  0
    1.4716    2.0112    0.0000 O   0  0  0  0  0  0  0  0  0  0  0  0
   -2.6724   -3.4647    0.0000 O   0  0  0  0  0  0  0  0  0  0  0  0
    4.1300    1.1529    0.0000 O   0  0  0  0  0  0  0  0  0  0  0  0
    3.7138    2.2430    0.0000 O   0  0  0  0  0  0  0  0  0  0  0  0
    3.0400    0.7366    0.0000 O   0  0  0  0  0  0  0  0  0  0  0  0
   -1.1772   -1.1507    0.0000 N   0  0  0  0  0  0  0  0  0  0  0  0
   -2.6724   -0.9895    0.0000 N   0  0  0  0  0  0  0  0  0  0  0  0
   -1.1772   -2.4786    0.0000 N   0  0  0  0  0  0  0  0  0  0  0  0
   -3.3869   -2.2271    0.0000 N   0  0  0  0  0  0  0  0  0  0  0  0
   -4.1015   -0.9895    0.0000 N   0  0  0  0  0  0  0  0  0  0  0  0
   -0.9185    0.9685    0.0000 C   0  0  0  0  0  0  0  0  0  0  0  0
   -1.4047    0.3018    0.0000 C   0  0  0  0  0  0  0  0  0  0  0  0
   -0.9208   -0.3664    0.0000 C   0  0  0  0  0  0  0  0  0  0  0  0
   -0.1343    0.7121    0.0000 C   0  0  0  0  0  0  0  0  0  0  0  0
    0.5339    1.1960    0.0000 C   0  0  0  0  0  0  0  0  0  0  0  0
   -1.9579   -1.4021    0.0000 C   0  0  0  0  0  0  0  0  0  0  0  0
   -0.6957   -1.8146    0.0000 C   0  0  0  0  0  0  0  0  0  0  0  0
   -1.9579   -2.2271    0.0000 C   0  0  0  0  0  0  0  0  0  0  0  0
   -2.6724   -2.6397    0.0000 C   0  0  0  0  0  0  0  0  0  0  0  0
   -3.3869   -1.4021    0.0000 C   0  0  0  0  0  0  0  0  0  0  0  0
  1  5  1  0
  1  8  1  0
  1  9  1  0
  1 10  2  0
  2  7  1  0
  2 11  1  0
  2 12  1  0
  2 13  2  0
  3 11  1  0
  3 15  1  0
  3 16  1  0
  3 17  2  0
  4 25  1  0
  4 26  1  0
  7 27  1  0
 14 31  2  0
 18 28  1  0
 18 29  1  0
 19 28  1  0
 19 32  1  0
 20 29  2  0
 20 30  1  0
 21 31  1  0
 21 32  2  0
 22 32  1  0
 23  5  1  6
 23 24  1  0
 23 26  1  0
 24  6  1  6
 24 25  1  0
 25 18  1  1
 26 27  1  1
 28 30  2  0
 30 31  1  0
M  END
>  <DRUGBANK_ID>  (1) 
DB04121

>  <SECONDARY_ACCESSION_NUMBERS>  (1) 
EXPT01529

>  <COMMON_NAME>  (1) 
Guanosine-3'-monophosphate-5'-diphosphate

>  <SYNONYMS>  (1) 
Guanosine 3'-(dihydrogen phosphate) 5'-(trihydrogen diphosphate)

$$$$
