1564
     RDKit          2D

 23 26  0  0  1  0  0  0  0  0999 V2000
    7.5474    1.4947    0.0000 O   0  0  0  0  0  0  0  0  0  0  0  0
    1.6498   -1.7582    0.0000 O   0  0  0  0  0  0  0  0  0  0  0  0
    6.0987   -0.0653    0.0000 C   0  0  0  0  0  0  0  0  0  0  0  0
    6.0987    0.7597    0.0000 C   0  0  0  0  0  0  0  0  0  0  0  0
    5.3843   -0.4777    0.0000 C   0  0  0  0  0  0  0  0  0  0  0  0
    4.6698   -0.0653    0.0000 C   0  0  0  0  0  0  0  0  0  0  0  0
    6.8793    1.0111    0.0000 C   0  0  0  0  0  0  0  0  0  0  0  0
    3.9192   -0.4833    0.0000 C   0  0  0  0  0  0  0  0  0  0  0  0
    5.3843    1.1722    0.0000 C   0  0  0  0  0  0  0  0  0  0  0  0
    4.6698    0.7597    0.0000 C   0  0  0  0  0  0  0  0  0  0  0  0
    6.8793   -0.3166    0.0000 C   0  0  0  0  0  0  0  0  0  0  0  0
    5.3975   -1.3368    0.0000 C   0  0  0  0  0  0  0  0  0  0  0  0
    7.3606    0.3472    0.0000 C   0  0  0  0  0  0  0  0  0  0  0  0
    4.6567   -1.7722    0.0000 C   0  0  0  0  0  0  0  0  0  0  0  0
    3.9126   -1.3425    0.0000 C   0  0  0  0  0  0  0  0  0  0  0  0
    6.0987    1.5846    0.0000 C   0  0  0  0  0  0  0  0  0  0  0  0
    3.1546   -0.0180    0.0000 C   0  0  0  0  0  0  0  0  0  0  0  0
    6.6257    1.7960    0.0000 C   0  0  0  0  0  0  0  0  0  0  0  0
    3.9255    0.3416    0.0000 C   0  0  0  0  0  0  0  0  0  0  0  0
    6.1167   -1.7410    0.0000 C   0  0  0  0  0  0  0  0  0  0  0  0
    2.3727   -0.4535    0.0000 C   0  0  0  0  0  0  0  0  0  0  0  0
    3.1409   -1.7960    0.0000 C   0  0  0  0  0  0  0  0  0  0  0  0
    2.3658   -1.3485    0.0000 C   0  0  0  0  0  0  0  0  0  0  0  0
  2 23  2  0
  3  4  1  0
  3  5  1  0
  3 11  1  1
  4  7  1  0
  4  9  1  0
  4 16  1  1
  5  6  1  0
  5 12  1  6
  6  8  1  0
  6 10  1  1
  7  1  1  0
  7 13  1  0
  7 18  1  6
  8 15  1  0
  8 17  1  0
  8 19  1  1
  9 10  1  0
 11 13  1  0
 12 14  1  0
 12 20  1  1
 14 15  1  0
 15 22  2  0
 17 21  1  0
 21 23  1  0
 22 23  1  0
M  END
>  <DRUGBANK_ID>  (1) 
DB01564

>  <COMMON_NAME>  (1) 
Calusterone

>  <CAS_NUMBER>  (1) 
17021-26-0

>  <UNII>  (1) 
0678G6Q58A

>  <SYNONYMS>  (1) 
17-beta-Hydroxy-7-beta,17-alpha-dimethylandrost-4-ene-3-one; 17beta-Hydroxy-7beta,17-dimethylandrost-4-en-3-one; 17beta-Hydroxy-7beta,17alpha-dimethylandrost-4-ene-3-one; 7-beta,17-alpha-Dimethyl testosterone; 7-beta,17-Dimethyltestosterone; 7beta,17-Dimethyltestosterone; 7beta,17alpha-Dimethyltestosterone; Calusterona; Calusterone; Calusteronum; CLS

$$$$
