CK9
     RDKit          2D

 27 29  0  0  0  0  0  0  0  0999 V2000
    0.7284   -2.7668    0.0000 O   0  0  0  0  0  0  0  0  0  0  0  0
    0.0140   -3.1793    0.0000 C   0  0  0  0  0  0  0  0  0  0  0  0
    0.0140   -4.0043    0.0000 C   0  0  0  0  0  0  0  0  0  0  0  0
   -0.7005   -4.4168    0.0000 C   0  0  0  0  0  0  0  0  0  0  0  0
   -1.4150   -4.0043    0.0000 C   0  0  0  0  0  0  0  0  0  0  0  0
   -1.4150   -3.1793    0.0000 C   0  0  0  0  0  0  0  0  0  0  0  0
   -0.7005   -2.7668    0.0000 C   0  0  0  0  0  0  0  0  0  0  0  0
   -0.7005   -1.9418    0.0000 C   0  0  0  0  0  0  0  0  0  0  0  0
    0.0140   -1.5293    0.0000 N   0  0  0  0  0  0  0  0  0  0  0  0
    0.0140   -0.7043    0.0000 C   0  0  0  0  0  0  0  0  0  0  0  0
   -0.7005   -0.2918    0.0000 C   0  0  0  0  0  0  0  0  0  0  0  0
   -1.4851   -0.5467    0.0000 N   0  0  0  0  0  0  0  0  0  0  0  0
   -1.9701    0.1207    0.0000 C   0  0  0  0  0  0  0  0  0  0  0  0
   -0.7005    0.5332    0.0000 C   0  0  0  0  0  0  0  0  0  0  0  0
   -1.4851    0.7881    0.0000 N   0  0  0  0  0  0  0  0  0  0  0  0
   -1.7401    1.5728    0.0000 C   0  0  0  0  0  0  0  0  0  0  0  0
   -1.1880    2.1859    0.0000 C   0  0  0  0  0  0  0  0  0  0  0  0
   -2.5470    1.7443    0.0000 C   0  0  0  0  0  0  0  0  0  0  0  0
    0.0140    0.9457    0.0000 N   0  0  0  0  0  0  0  0  0  0  0  0
    0.7284    0.5332    0.0000 C   0  0  0  0  0  0  0  0  0  0  0  0
    0.7284   -0.2918    0.0000 N   0  0  0  0  0  0  0  0  0  0  0  0
    1.4429    0.9457    0.0000 N   0  0  0  0  0  0  0  0  0  0  0  0
    1.4429    1.7707    0.0000 C   0  0  0  0  0  0  0  0  0  0  0  0
    2.1574    2.1832    0.0000 C   0  0  0  0  0  0  0  0  0  0  0  0
    2.1574    3.0082    0.0000 C   0  0  0  0  0  0  0  0  0  0  0  0
    0.7284    2.1832    0.0000 C   0  0  0  0  0  0  0  0  0  0  0  0
    0.7284    3.0082    0.0000 O   0  0  0  0  0  0  0  0  0  0  0  0
  1  2  1  0
  2  3  2  0
  2  7  1  0
  3  4  1  0
  4  5  2  0
  5  6  1  0
  6  7  2  0
  7  8  1  0
  8  9  1  0
  9 10  1  0
 10 11  2  0
 10 21  1  0
 11 12  1  0
 11 14  1  0
 12 13  2  0
 13 15  1  0
 14 15  1  0
 14 19  2  0
 15 16  1  0
 16 17  1  0
 16 18  1  0
 19 20  1  0
 20 21  2  0
 20 22  1  0
 23 22  1  0
 23 24  1  1
 23 26  1  0
 24 25  1  0
 26 27  1  0
M  END
>  <DRUGBANK_ID>  (1) 
DB04662

>  <COMMON_NAME>  (1) 
OLOMOUCINE II

$$$$
