
     RDKit          2D

  9  8  0  0  1  0  0  0  0  0999 V2000
    1.9520    1.1270    0.0000 C   0  0  0  0  0  0  0  0  0  0  0  0
    1.2375    0.7145    0.0000 C   0  0  0  0  0  0  0  0  0  0  0  0
    0.5230    1.1270    0.0000 C   0  0  0  0  0  0  0  0  0  0  0  0
    1.2375   -0.1105    0.0000 N   0  0  0  0  0  0  0  0  0  0  0  0
   -0.1914    0.7145    0.0000 O   0  0  0  0  0  0  0  0  0  0  0  0
    0.5230    1.9520    0.0000 O   0  0  0  0  0  0  0  0  0  0  0  0
    3.3809    1.1270    0.0000 O   0  0  0  0  0  0  0  0  0  0  0  0
    2.6664   -0.1105    0.0000 O   0  0  0  0  0  0  0  0  0  0  0  0
    2.6664    0.7145    0.0000 Se  0  0  0  0  0  6  0  0  0  0  0  0
  2  1  1  0
  2  4  1  6
  3  2  1  0
  5  3  2  0
  6  3  1  0
  9  1  1  0
  9  7  2  0
  9  8  2  0
M  END
>  <DRUGBANK_ID>  (1) 
DB02442

>  <SECONDARY_ACCESSION_NUMBERS>  (1) 
EXPT02935

>  <COMMON_NAME>  (1) 
Dioxyselenocysteine

$$$$
