
     RDKit          2D

 20 20  0  0  1  0  0  0  0  0999 V2000
   -1.0717    0.8250    0.0000 O   0  0  0  0  0  0  0  0  0  0  0  0
    1.0717    2.8875    0.0000 O   0  0  0  0  0  0  0  0  0  0  0  0
    1.7861    1.6499    0.0000 O   0  0  0  0  0  0  0  0  0  0  0  0
    0.3572   -0.8250    0.0000 N   0  0  0  0  0  0  0  0  0  0  0  0
   -1.0717   -1.6499    0.0000 C   0  0  0  0  0  0  0  0  0  0  0  0
   -1.0717   -0.8250    0.0000 C   0  0  0  0  0  0  0  0  0  0  0  0
   -1.7861   -2.0625    0.0000 C   0  0  0  0  0  0  0  0  0  0  0  0
   -0.3571   -2.0625    0.0000 C   0  0  0  0  0  0  0  0  0  0  0  0
   -0.3571   -0.4124    0.0000 C   0  0  0  0  0  0  0  0  0  0  0  0
   -1.7861   -2.8875    0.0000 C   0  0  0  0  0  0  0  0  0  0  0  0
   -0.3571   -2.8875    0.0000 C   0  0  0  0  0  0  0  0  0  0  0  0
   -1.0717   -3.2999    0.0000 C   0  0  0  0  0  0  0  0  0  0  0  0
   -0.3571    0.4124    0.0000 C   0  0  0  0  0  0  0  0  0  0  0  0
    0.3572    0.8250    0.0000 C   0  0  0  0  0  0  0  0  0  0  0  0
    0.3572    1.6499    0.0000 C   0  0  0  0  0  0  0  0  0  0  0  0
   -0.3571    2.0625    0.0000 C   0  0  0  0  0  0  0  0  0  0  0  0
   -0.3571    2.8875    0.0000 C   0  0  0  0  0  0  0  0  0  0  0  0
    1.0717    2.0625    0.0000 C   0  0  0  0  0  0  0  0  0  0  0  0
   -1.0717    3.2999    0.0000 C   0  0  0  0  0  0  0  0  0  0  0  0
    0.3572    3.2999    0.0000 C   0  0  0  0  0  0  0  0  0  0  0  0
  2 18  1  0
  3 18  2  0
  5  6  1  0
  5  7  1  0
  5  8  1  0
  6  9  1  0
  7 10  1  0
  8 11  1  0
  9  4  1  1
  9 13  1  0
 10 12  1  0
 11 12  1  0
 13  1  1  1
 13 14  1  0
 15 14  1  1
 15 16  1  0
 15 18  1  0
 16 17  1  0
 17 19  1  0
 17 20  1  0
M  END
>  <DRUGBANK_ID>  (1) 
DB07542

>  <COMMON_NAME>  (1) 
5-Amino-6-cyclohexyl-4-hydroxy-2-isobutyl-hexanoic acid

$$$$
