
     RDKit          2D

 34 38  0  0  0  0  0  0  0  0999 V2000
   -0.7549   -3.0522    0.0000 F   0  0  0  0  0  0  0  0  0  0  0  0
    1.9628    1.1683    0.0000 O   0  0  0  0  0  0  0  0  0  0  0  0
    2.7610    0.0826    0.0000 O   0  0  0  0  0  0  0  0  0  0  0  0
   -1.4596    0.6650    0.0000 O   0  0  0  0  0  0  0  0  0  0  0  0
    2.2146    2.1750    0.0000 O   0  0  0  0  0  0  0  0  0  0  0  0
    0.0862    1.7579    0.0000 O   0  0  0  0  0  0  0  0  0  0  0  0
   -3.5951   -2.2181    0.0000 O   0  0  0  0  0  0  0  0  0  0  0  0
   -0.6327    3.0522    0.0000 O   0  0  0  0  0  0  0  0  0  0  0  0
    0.7118   -0.5860    0.0000 C   0  0  0  0  0  0  0  0  0  0  0  0
    0.7118    0.2480    0.0000 C   0  0  0  0  0  0  0  0  0  0  0  0
   -0.0431   -1.0030    0.0000 C   0  0  0  0  0  0  0  0  0  0  0  0
    1.4596    0.4997    0.0000 C   0  0  0  0  0  0  0  0  0  0  0  0
   -0.7549   -0.5860    0.0000 C   0  0  0  0  0  0  0  0  0  0  0  0
    1.9628   -0.1689    0.0000 C   0  0  0  0  0  0  0  0  0  0  0  0
   -1.4596   -1.0030    0.0000 C   0  0  0  0  0  0  0  0  0  0  0  0
    1.4596   -0.8376    0.0000 C   0  0  0  0  0  0  0  0  0  0  0  0
   -0.7549    0.2480    0.0000 C   0  0  0  0  0  0  0  0  0  0  0  0
   -0.0431    0.6650    0.0000 C   0  0  0  0  0  0  0  0  0  0  0  0
   -0.0431   -1.8011    0.0000 C   0  0  0  0  0  0  0  0  0  0  0  0
    1.4596    1.7579    0.0000 C   0  0  0  0  0  0  0  0  0  0  0  0
   -1.4596   -1.8011    0.0000 C   0  0  0  0  0  0  0  0  0  0  0  0
    2.7610    0.9167    0.0000 C   0  0  0  0  0  0  0  0  0  0  0  0
    0.7118    1.0892    0.0000 C   0  0  0  0  0  0  0  0  0  0  0  0
   -0.7549   -2.2181    0.0000 C   0  0  0  0  0  0  0  0  0  0  0  0
   -2.1714   -0.5860    0.0000 C   0  0  0  0  0  0  0  0  0  0  0  0
   -1.4596   -0.1689    0.0000 C   0  0  0  0  0  0  0  0  0  0  0  0
   -2.1714   -2.2181    0.0000 C   0  0  0  0  0  0  0  0  0  0  0  0
    0.7909    2.1319    0.0000 C   0  0  0  0  0  0  0  0  0  0  0  0
   -2.8832   -1.0030    0.0000 C   0  0  0  0  0  0  0  0  0  0  0  0
    2.7610    1.7579    0.0000 C   0  0  0  0  0  0  0  0  0  0  0  0
    3.5951    0.9167    0.0000 C   0  0  0  0  0  0  0  0  0  0  0  0
   -2.8832   -1.8011    0.0000 C   0  0  0  0  0  0  0  0  0  0  0  0
   -0.6255    2.1966    0.0000 C   0  0  0  0  0  0  0  0  0  0  0  0
   -1.3589    1.8082    0.0000 C   0  0  0  0  0  0  0  0  0  0  0  0
  2 22  1  0
  3 22  1  0
  5 20  2  0
  6 28  1  0
  6 33  1  0
  7 32  2  0
  8 33  2  0
  9 10  1  0
  9 11  1  0
  9 16  1  1
 10 12  1  0
 10 18  1  0
 10 23  1  1
 11 13  1  0
 11 19  1  6
 12  2  1  0
 12 14  1  0
 12 20  1  1
 13 15  1  0
 13 17  1  1
 14  3  1  0
 14 16  1  6
 15 21  1  0
 15 25  1  0
 15 26  1  1
 17  4  1  1
 17 18  1  0
 19 24  1  0
 20 28  1  0
 21 24  1  0
 21 27  2  0
 22 30  1  0
 22 31  1  0
 24  1  1  6
 25 29  2  0
 27 32  1  0
 29 32  1  0
 33 34  1  0
M  END
>  <DRUGBANK_ID>  (1) 
DB14662

>  <SECONDARY_ACCESSION_NUMBERS>  (1) 
DBSALT001846

>  <COMMON_NAME>  (1) 
Flunisolide acetate

>  <CAS_NUMBER>  (1) 
4533-89-5

>  <UNII>  (1) 
N225H64CIH

>  <SYNONYMS>  (1) 
Flunisolide 21-acetate; Flunisolide acetate

$$$$
