
     RDKit          2D

 31 31  0  0  0  0  0  0  0  0999 V2000
   -1.7861   -5.2057    0.0000 I   0  0  0  0  0  0  0  0  0  0  0  0
   -1.0717   -0.6682    0.0000 S   0  0  0  0  0  0  0  0  0  0  0  0
   -0.3572    2.2192    0.0000 O   0  0  0  0  0  0  0  0  0  0  0  0
    0.3572    1.8067    0.0000 O   0  0  0  0  0  0  0  0  0  0  0  0
   -0.3572   -1.9057    0.0000 O   0  0  0  0  0  0  0  0  0  0  0  0
   -3.2151    4.6942    0.0000 O   0  0  0  0  0  0  0  0  0  0  0  0
   -2.5006   -1.4932    0.0000 O   0  0  0  0  0  0  0  0  0  0  0  0
   -1.7861    4.6942    0.0000 O   0  0  0  0  0  0  0  0  0  0  0  0
    3.2151    0.9817    0.0000 O   0  0  0  0  0  0  0  0  0  0  0  0
    2.5006   -0.2557    0.0000 O   0  0  0  0  0  0  0  0  0  0  0  0
   -1.0717    0.9817    0.0000 N   0  0  0  0  0  0  0  0  0  0  0  0
    1.0717    0.5692    0.0000 N   0  0  0  0  0  0  0  0  0  0  0  0
   -3.2151    3.0442    0.0000 N   0  0  0  0  0  0  0  0  0  0  0  0
   -1.7861   -1.9057    0.0000 N   0  0  0  0  0  0  0  0  0  0  0  0
   -0.3572    0.5692    0.0000 C   0  0  0  0  0  0  0  0  0  0  0  0
   -1.7861    3.0442    0.0000 C   0  0  0  0  0  0  0  0  0  0  0  0
   -1.7861    2.2192    0.0000 C   0  0  0  0  0  0  0  0  0  0  0  0
   -0.3572   -0.2557    0.0000 C   0  0  0  0  0  0  0  0  0  0  0  0
   -2.5006    3.4567    0.0000 C   0  0  0  0  0  0  0  0  0  0  0  0
   -1.0717    1.8067    0.0000 C   0  0  0  0  0  0  0  0  0  0  0  0
    0.3572    0.9817    0.0000 C   0  0  0  0  0  0  0  0  0  0  0  0
   -1.0717   -1.4932    0.0000 C   0  0  0  0  0  0  0  0  0  0  0  0
   -2.5006    4.2817    0.0000 C   0  0  0  0  0  0  0  0  0  0  0  0
    1.7861    0.9817    0.0000 C   0  0  0  0  0  0  0  0  0  0  0  0
   -1.7861   -2.7307    0.0000 C   0  0  0  0  0  0  0  0  0  0  0  0
   -1.0717   -3.1432    0.0000 C   0  0  0  0  0  0  0  0  0  0  0  0
   -2.5006   -3.1432    0.0000 C   0  0  0  0  0  0  0  0  0  0  0  0
    2.5006    0.5692    0.0000 C   0  0  0  0  0  0  0  0  0  0  0  0
   -1.0717   -3.9682    0.0000 C   0  0  0  0  0  0  0  0  0  0  0  0
   -2.5006   -3.9682    0.0000 C   0  0  0  0  0  0  0  0  0  0  0  0
   -1.7861   -4.3807    0.0000 C   0  0  0  0  0  0  0  0  0  0  0  0
  1 31  1  0
  2 18  1  0
  2 22  1  0
  3 20  2  0
  4 21  2  0
  6 23  1  0
  7 14  1  0
  8 23  2  0
  9 28  1  0
 10 28  2  0
 11 20  1  0
 12 21  1  0
 12 24  1  0
 14 22  1  0
 14 25  1  0
 15 11  1  0
 15 18  1  6
 15 21  1  0
 16 17  1  0
 16 19  1  0
 17 20  1  0
 19 13  1  6
 19 23  1  0
 22  5  1  1
 24 28  1  0
 25 26  2  0
 25 27  1  0
 26 29  1  0
 27 30  2  0
 29 31  2  0
 30 31  1  0
M  END
>  <DRUGBANK_ID>  (1) 
DB03330

>  <SECONDARY_ACCESSION_NUMBERS>  (1) 
EXPT01593

>  <COMMON_NAME>  (1) 
S-(N-hydroxy-N-iodophenylcarbamoyl)glutathione

>  <SYNONYMS>  (1) 
(2S)-2-Amino-5-[[(2R)-1-(carboxymethylamino)-3-[(R)-hydroxy-(N-hydroxy-4-iodoanilino)methyl]sulfanyl-1-oxopropan-2-yl]amino]-5-oxopentanoic acid

$$$$
