C96
     RDKit          2D

 24 26  0  0  0  0  0  0  0  0999 V2000
   -0.7490    3.8604    0.0000 O   0  0  0  0  0  0  0  0  0  0  0  0
   -0.7490    3.0354    0.0000 S   0  0  0  0  0  0  0  0  0  0  0  0
    0.0760    3.0354    0.0000 O   0  0  0  0  0  0  0  0  0  0  0  0
   -1.5740    3.0354    0.0000 N   0  0  0  0  0  0  0  0  0  0  0  0
   -0.7490    2.2104    0.0000 C   0  0  0  0  0  0  0  0  0  0  0  0
   -1.4635    1.7979    0.0000 C   0  0  0  0  0  0  0  0  0  0  0  0
   -1.4635    0.9729    0.0000 C   0  0  0  0  0  0  0  0  0  0  0  0
   -0.7490    0.5604    0.0000 C   0  0  0  0  0  0  0  0  0  0  0  0
   -0.0345    0.9729    0.0000 C   0  0  0  0  0  0  0  0  0  0  0  0
   -0.0345    1.7979    0.0000 C   0  0  0  0  0  0  0  0  0  0  0  0
   -0.7490   -0.2646    0.0000 C   0  0  0  0  0  0  0  0  0  0  0  0
   -0.0816   -0.7496    0.0000 O   0  0  0  0  0  0  0  0  0  0  0  0
   -1.4164   -0.7496    0.0000 C   0  0  0  0  0  0  0  0  0  0  0  0
   -1.1615   -1.5342    0.0000 C   0  0  0  0  0  0  0  0  0  0  0  0
   -0.3365   -1.5342    0.0000 C   0  0  0  0  0  0  0  0  0  0  0  0
    0.1484   -2.2016    0.0000 C   0  0  0  0  0  0  0  0  0  0  0  0
    0.9689   -2.1154    0.0000 C   0  0  0  0  0  0  0  0  0  0  0  0
    1.3814   -1.4009    0.0000 S   0  0  0  0  0  0  0  0  0  0  0  0
    2.1884   -1.5724    0.0000 C   0  0  0  0  0  0  0  0  0  0  0  0
    2.8015   -1.0204    0.0000 N   0  0  0  0  0  0  0  0  0  0  0  0
    2.2746   -2.3929    0.0000 N   0  0  0  0  0  0  0  0  0  0  0  0
    1.5209   -2.7285    0.0000 C   0  0  0  0  0  0  0  0  0  0  0  0
   -0.1871   -2.9553    0.0000 C   0  0  0  0  0  0  0  0  0  0  0  0
    1.3494   -3.5354    0.0000 O   0  0  0  0  0  0  0  0  0  0  0  0
  2  1  2  0
  2  4  1  0
  2  5  1  0
  3  2  2  0
  5 10  2  0
  5  6  1  0
  7  6  2  0
  8  7  1  0
  8 11  1  0
  9  8  2  0
 10  9  1  0
 11 12  1  0
 11 13  2  0
 12 15  1  0
 13 14  1  0
 14 15  2  0
 15 16  1  0
 16 17  2  0
 16 23  1  0
 17 18  1  0
 17 22  1  0
 18 19  1  0
 19 20  2  0
 19 21  1  0
 21 22  1  0
 22 24  2  0
M  END
>  <DRUGBANK_ID>  (1) 
DB07540

>  <COMMON_NAME>  (1) 
4-{5-[(1Z)-1-(2-IMINO-4-OXO-1,3-THIAZOLIDIN-5-YLIDENE)ETHYL]-2-FURYL}BENZENESULFONAMIDE

$$$$
