
     RDKit          2D

 33 36  0  0  1  0  0  0  0  0999 V2000
    0.3336    0.7878    0.0000 C   0  0  0  0  0  0  0  0  0  0  0  0
    1.1586    0.7878    0.0000 C   0  0  0  0  0  0  0  0  0  0  0  0
    1.5711    0.0734    0.0000 C   0  0  0  0  0  0  0  0  0  0  0  0
    2.3961    0.0734    0.0000 C   0  0  0  0  0  0  0  0  0  0  0  0
    2.8086    0.7878    0.0000 C   0  0  0  0  0  0  0  0  0  0  0  0
    2.3961    1.5023    0.0000 C   0  0  0  0  0  0  0  0  0  0  0  0
    1.5711    1.5023    0.0000 N   0  0  0  0  0  0  0  0  0  0  0  0
    2.8086    2.2168    0.0000 C   0  0  0  0  0  0  0  0  0  0  0  0
    3.6336    2.2168    0.0000 C   0  0  0  0  0  0  0  0  0  0  0  0
    4.0461    1.5023    0.0000 C   0  0  0  0  0  0  0  0  0  0  0  0
    3.6336    0.7878    0.0000 C   0  0  0  0  0  0  0  0  0  0  0  0
    4.0461    0.0734    0.0000 N   0  0  0  0  0  0  0  0  0  0  0  0
    3.6336   -0.6411    0.0000 C   0  0  0  0  0  0  0  0  0  0  0  0
    4.0461   -1.3556    0.0000 C   0  0  0  0  0  0  0  0  0  0  0  0
    4.4586   -2.0701    0.0000 C   0  0  0  0  0  0  0  0  0  0  0  0
    5.2836   -2.0701    0.0000 C   0  0  0  0  0  0  0  0  0  0  0  0
    5.2836   -1.2451    0.0000 C   0  0  0  0  0  0  0  0  0  0  0  0
    6.1086   -2.0701    0.0000 C   0  0  0  0  0  0  0  0  0  0  0  0
    5.2836   -2.8951    0.0000 C   0  0  0  0  0  0  0  0  0  0  0  0
    5.9981   -3.3076    0.0000 C   0  0  0  0  0  0  0  0  0  0  0  0
    5.9981   -4.1326    0.0000 C   0  0  0  0  0  0  0  0  0  0  0  0
    5.2836   -4.5451    0.0000 C   0  0  0  0  0  0  0  0  0  0  0  0
    4.5691   -4.1326    0.0000 C   0  0  0  0  0  0  0  0  0  0  0  0
    4.5691   -3.3076    0.0000 C   0  0  0  0  0  0  0  0  0  0  0  0
    3.7845   -3.0526    0.0000 O   0  0  0  0  0  0  0  0  0  0  0  0
    3.2996   -3.7201    0.0000 C   0  0  0  0  0  0  0  0  0  0  0  0
    3.7845   -4.3875    0.0000 C   0  0  0  0  0  0  0  0  0  0  0  0
    6.7126   -4.5451    0.0000 F   0  0  0  0  0  0  0  0  0  0  0  0
    3.3316   -1.7681    0.0000 C   0  0  0  0  0  0  0  0  0  0  0  0
    2.6172   -2.1806    0.0000 F   0  0  0  0  0  0  0  0  0  0  0  0
    3.7441   -2.4826    0.0000 F   0  0  0  0  0  0  0  0  0  0  0  0
    2.9191   -1.0536    0.0000 F   0  0  0  0  0  0  0  0  0  0  0  0
    4.7606   -0.9431    0.0000 O   0  0  0  0  0  0  0  0  0  0  0  0
  1  2  1  0
  2  3  2  0
  2  7  1  0
  3  4  1  0
  4  5  2  0
  5  6  1  0
  5 11  1  0
  6  7  2  0
  6  8  1  0
  8  9  2  0
  9 10  1  0
 10 11  2  0
 11 12  1  0
 12 13  1  0
 14 13  1  0
 14 15  1  0
 14 29  1  0
 14 33  1  1
 15 16  1  0
 16 17  1  0
 16 18  1  0
 16 19  1  0
 19 20  2  0
 19 24  1  0
 20 21  1  0
 21 22  2  0
 21 28  1  0
 22 23  1  0
 23 24  2  0
 23 27  1  0
 24 25  1  0
 25 26  1  0
 26 27  1  0
 29 30  1  0
 29 31  1  0
 29 32  1  0
M  END
>  <DRUGBANK_ID>  (1) 
DB12041

>  <COMMON_NAME>  (1) 
Mapracorat

>  <CAS_NUMBER>  (1) 
887375-26-0

>  <UNII>  (1) 
145V79YBVP

>  <SYNONYMS>  (1) 
Mapracorat

$$$$
