
     RDKit          2D

 13 15  0  0  0  0  0  0  0  0999 V2000
   -1.5558    0.2567    0.0000 O   0  0  0  0  0  0  0  0  0  0  0  0
   -0.8411   -0.1554    0.0000 C   0  0  0  0  0  0  0  0  0  0  0  0
   -0.8411   -0.9804    0.0000 C   0  0  0  0  0  0  0  0  0  0  0  0
   -0.1286   -1.3929    0.0000 C   0  0  0  0  0  0  0  0  0  0  0  0
    0.5839   -0.9804    0.0000 C   0  0  0  0  0  0  0  0  0  0  0  0
    1.3018   -1.3929    0.0000 C   0  0  0  0  0  0  0  0  0  0  0  0
    2.0143   -0.9804    0.0000 C   0  0  0  0  0  0  0  0  0  0  0  0
    2.0143   -0.1554    0.0000 C   0  0  0  0  0  0  0  0  0  0  0  0
    1.3018    0.2571    0.0000 C   0  0  0  0  0  0  0  0  0  0  0  0
    0.5839   -0.1554    0.0000 C   0  0  0  0  0  0  0  0  0  0  0  0
   -0.1286    0.2571    0.0000 N   0  0  0  0  0  0  0  0  0  0  0  0
    0.1714    1.1143    0.0000 C   0  0  0  0  0  0  0  0  0  0  0  0
    0.9964    1.1143    0.0000 C   0  0  0  0  0  0  0  0  0  0  0  0
  1  2  2  0
  2  3  1  0
  2 11  1  0
  3  4  1  0
  4  5  1  0
  5  6  1  0
  5 10  2  0
  6  7  2  0
  7  8  1  0
  8  9  2  0
  9 10  1  0
  9 13  1  0
 10 11  1  0
 11 12  1  0
 12 13  1  0
M  END
>  <DRUGBANK_ID>  (1) 
DB02756

>  <SECONDARY_ACCESSION_NUMBERS>  (1) 
EXPT02722

>  <COMMON_NAME>  (1) 
Pyroquilon

>  <CAS_NUMBER>  (1) 
57369-32-1

>  <UNII>  (1) 
WS195Z0WJH

>  <SYNONYMS>  (1) 
1,2,5,6-tetrahydropyrrolo[3,2,1-ij]quinolin-4-one

$$$$
