5PP
     RDKit          2D

 19 20  0  0  0  0  0  0  0  0999 V2000
    0.1320   -2.0410    0.0000 O   0  0  0  0  0  0  0  0  0  0  0  0
    0.1320   -1.2160    0.0000 C   0  0  0  0  0  0  0  0  0  0  0  0
   -0.5825   -0.8035    0.0000 C   0  0  0  0  0  0  0  0  0  0  0  0
   -1.2970   -1.2160    0.0000 O   0  0  0  0  0  0  0  0  0  0  0  0
   -2.0114   -0.8035    0.0000 C   0  0  0  0  0  0  0  0  0  0  0  0
   -2.7259   -1.2160    0.0000 C   0  0  0  0  0  0  0  0  0  0  0  0
   -3.4404   -0.8035    0.0000 C   0  0  0  0  0  0  0  0  0  0  0  0
   -3.4404    0.0215    0.0000 C   0  0  0  0  0  0  0  0  0  0  0  0
   -2.7259    0.4340    0.0000 C   0  0  0  0  0  0  0  0  0  0  0  0
   -2.0114    0.0215    0.0000 C   0  0  0  0  0  0  0  0  0  0  0  0
   -0.5825    0.0215    0.0000 C   0  0  0  0  0  0  0  0  0  0  0  0
    0.1320    0.4340    0.0000 C   0  0  0  0  0  0  0  0  0  0  0  0
    0.8464    0.0215    0.0000 C   0  0  0  0  0  0  0  0  0  0  0  0
    0.8464   -0.8035    0.0000 C   0  0  0  0  0  0  0  0  0  0  0  0
    1.5609    0.4340    0.0000 C   0  0  0  0  0  0  0  0  0  0  0  0
    2.2754    0.0215    0.0000 C   0  0  0  0  0  0  0  0  0  0  0  0
    2.9899    0.4340    0.0000 C   0  0  0  0  0  0  0  0  0  0  0  0
    3.7043    0.0215    0.0000 C   0  0  0  0  0  0  0  0  0  0  0  0
    4.4188    0.4340    0.0000 C   0  0  0  0  0  0  0  0  0  0  0  0
  1  2  1  0
  2  3  2  0
  2 14  1  0
  3  4  1  0
  3 11  1  0
  4  5  1  0
  5  6  2  0
  5 10  1  0
  6  7  1  0
  7  8  2  0
  8  9  1  0
  9 10  2  0
 11 12  2  0
 12 13  1  0
 13 14  2  0
 13 15  1  0
 15 16  1  0
 16 17  1  0
 17 18  1  0
 18 19  1  0
M  END
>  <DRUGBANK_ID>  (1) 
DB07178

>  <COMMON_NAME>  (1) 
5-PENTYL-2-PHENOXYPHENOL

$$$$
