
     RDKit          2D

 21 21  0  0  0  0  0  0  0  0999 V2000
   -0.7171    0.8584    0.0000 C   0  0  0  0  0  0  0  0  0  0  0  0
   -0.7134    1.5826    0.0000 C   0  0  0  0  0  0  0  0  0  0  0  0
   -1.4250    2.0202    0.0000 C   0  0  0  0  0  0  0  0  0  0  0  0
   -2.1395    1.6093    0.0000 C   0  0  0  0  0  0  0  0  0  0  0  0
   -2.1378    0.7816    0.0000 C   0  0  0  0  0  0  0  0  0  0  0  0
   -1.4256    0.3730    0.0000 C   0  0  0  0  0  0  0  0  0  0  0  0
   -0.0045    2.0000    0.0000 C   0  0  0  0  0  0  0  0  0  0  0  0
   -0.0087    2.8250    0.0000 O   0  0  0  0  0  0  0  0  0  0  0  0
    0.7079    1.5874    0.0000 C   0  0  0  0  0  0  0  0  0  0  0  0
    1.4205    2.0042    0.0000 C   0  0  0  0  0  0  0  0  0  0  0  0
    2.1329    1.5916    0.0000 C   0  0  0  0  0  0  0  0  0  0  0  0
    0.0117    0.4719    0.0000 O   0  0  0  0  0  0  0  0  0  0  0  0
    0.0036   -0.3499    0.0000 C   0  0  0  0  0  0  0  0  0  0  0  0
    0.7162   -0.7624    0.0000 C   0  0  0  0  0  0  0  0  0  0  0  0
    0.7121   -1.5874    0.0000 N   0  0  0  0  0  0  0  0  0  0  0  0
    1.4246   -2.0000    0.0000 C   0  0  0  0  0  0  0  0  0  0  0  0
   -0.0045   -1.9959    0.0000 C   0  0  0  0  0  0  0  0  0  0  0  0
   -0.7167   -1.5792    0.0000 C   0  0  0  0  0  0  0  0  0  0  0  0
   -0.0092   -2.8209    0.0000 C   0  0  0  0  0  0  0  0  0  0  0  0
    1.4236   -2.8250    0.0000 C   0  0  0  0  0  0  0  0  0  0  0  0
    2.1395   -1.5883    0.0000 C   0  0  0  0  0  0  0  0  0  0  0  0
  1 12  1  0
  1  2  2  0
  2  3  1  0
  2  7  1  0
  3  4  2  0
  4  5  1  0
  5  6  2  0
  6  1  1  0
  7  8  2  0
  7  9  1  0
  9 10  1  0
 10 11  1  0
 12 13  1  0
 13 14  1  0
 14 15  1  0
 15 16  1  0
 15 17  1  0
 16 20  1  0
 16 21  1  0
 17 18  1  0
 17 19  1  0
M  END
>  <DRUGBANK_ID>  (1) 
DB16020

>  <COMMON_NAME>  (1) 
Ketocaine

>  <CAS_NUMBER>  (1) 
1092-46-2

>  <UNII>  (1) 
WA1RT89G9X

>  <SYNONYMS>  (1) 
Cetocaina; Ketocaine; Ketocainum

$$$$
