55V
     RDKit          2D

 26 27  0  0  0  0  0  0  0  0999 V2000
    0.6593    3.0260    0.0000 C   0  0  0  0  0  0  0  0  0  0  0  0
    1.3737    2.6135    0.0000 O   0  0  0  0  0  0  0  0  0  0  0  0
    1.3737    1.7885    0.0000 C   0  0  0  0  0  0  0  0  0  0  0  0
    0.6593    1.3760    0.0000 C   0  0  0  0  0  0  0  0  0  0  0  0
    2.0882    1.3760    0.0000 C   0  0  0  0  0  0  0  0  0  0  0  0
    2.8027    1.7885    0.0000 O   0  0  0  0  0  0  0  0  0  0  0  0
    3.5171    1.3760    0.0000 C   0  0  0  0  0  0  0  0  0  0  0  0
    2.0882    0.5510    0.0000 C   0  0  0  0  0  0  0  0  0  0  0  0
    2.8027    0.1385    0.0000 O   0  0  0  0  0  0  0  0  0  0  0  0
    2.8027   -0.6865    0.0000 C   0  0  0  0  0  0  0  0  0  0  0  0
    1.3737    0.1385    0.0000 C   0  0  0  0  0  0  0  0  0  0  0  0
    0.6593    0.5510    0.0000 C   0  0  0  0  0  0  0  0  0  0  0  0
   -0.0552    0.1385    0.0000 C   0  0  0  0  0  0  0  0  0  0  0  0
    0.3573   -0.5760    0.0000 C   0  0  0  0  0  0  0  0  0  0  0  0
   -0.4677    0.8530    0.0000 C   0  0  0  0  0  0  0  0  0  0  0  0
   -0.7697   -0.2740    0.0000 C   0  0  0  0  0  0  0  0  0  0  0  0
   -1.4841   -0.6865    0.0000 C   0  0  0  0  0  0  0  0  0  0  0  0
   -2.1986   -1.0990    0.0000 C   0  0  0  0  0  0  0  0  0  0  0  0
   -2.9131   -0.6865    0.0000 C   0  0  0  0  0  0  0  0  0  0  0  0
   -2.9131    0.1385    0.0000 C   0  0  0  0  0  0  0  0  0  0  0  0
   -3.6276   -1.0990    0.0000 N   0  0  0  0  0  0  0  0  0  0  0  0
   -3.6276   -1.9240    0.0000 C   0  0  0  0  0  0  0  0  0  0  0  0
   -4.3420   -2.3365    0.0000 N   0  0  0  0  0  0  0  0  0  0  0  0
   -2.9131   -2.3365    0.0000 N   0  0  0  0  0  0  0  0  0  0  0  0
   -2.1986   -1.9240    0.0000 C   0  0  0  0  0  0  0  0  0  0  0  0
   -1.4841   -2.3365    0.0000 N   0  0  0  0  0  0  0  0  0  0  0  0
  1  2  1  0
  2  3  1  0
  3  5  2  0
  4  3  1  0
  4 12  2  0
  5  6  1  0
  5  8  1  0
  6  7  1  0
  8  9  1  0
  9 10  1  0
 11  8  2  0
 12 11  1  0
 13 12  1  0
 13 16  1  0
 13 15  1  0
 14 13  1  0
 16 17  3  0
 17 18  1  0
 18 25  1  0
 19 18  2  0
 19 21  1  0
 20 19  1  0
 21 22  2  0
 22 23  1  0
 22 24  1  0
 25 24  2  0
 25 26  1  0
M  END
>  <DRUGBANK_ID>  (1) 
DB07153

>  <COMMON_NAME>  (1) 
6-methyl-5-[3-methyl-3-(3,4,5-trimethoxyphenyl)but-1-yn-1-yl]pyrimidine-2,4-diamine

$$$$
