ST3
     RDKit          2D

 14 14  0  0  0  0  0  0  0  0999 V2000
    1.7530    0.8944    0.0000 C   0  0  0  0  0  0  0  0  0  0  0  0
    1.7530    1.7194    0.0000 O   0  0  0  0  0  0  0  0  0  0  0  0
    2.4674    0.4819    0.0000 O   0  0  0  0  0  0  0  0  0  0  0  0
    1.0385    0.4819    0.0000 C   0  0  0  0  0  0  0  0  0  0  0  0
    1.0385   -0.3431    0.0000 C   0  0  0  0  0  0  0  0  0  0  0  0
    0.3240   -0.7556    0.0000 C   0  0  0  0  0  0  0  0  0  0  0  0
    0.3240   -1.5806    0.0000 N   0  0  0  0  0  0  0  0  0  0  0  0
   -0.3905   -0.3431    0.0000 C   0  0  0  0  0  0  0  0  0  0  0  0
   -1.1049   -0.7556    0.0000 N   0  0  0  0  0  0  0  0  0  0  0  0
   -1.8194   -0.3431    0.0000 C   0  0  0  0  0  0  0  0  0  0  0  0
   -2.5339   -0.7556    0.0000 O   0  0  0  0  0  0  0  0  0  0  0  0
   -1.8194    0.4819    0.0000 C   0  0  0  0  0  0  0  0  0  0  0  0
   -0.3905    0.4819    0.0000 C   0  0  0  0  0  0  0  0  0  0  0  0
    0.3240    0.8944    0.0000 C   0  0  0  0  0  0  0  0  0  0  0  0
  1  2  2  0
  1  3  1  0
  1  4  1  0
  4  5  2  0
  4 14  1  0
  5  6  1  0
  6  7  1  0
  6  8  2  0
  8  9  1  0
  8 13  1  0
  9 10  1  0
 10 11  2  0
 10 12  1  0
 13 14  2  0
M  END
>  <DRUGBANK_ID>  (1) 
DB02268

>  <SECONDARY_ACCESSION_NUMBERS>  (1) 
EXPT02960

>  <COMMON_NAME>  (1) 
4-(Acetylamino)-3-Amino Benzoic Acid

$$$$
