
     RDKit          2D

 38 41  0  0  0  0  0  0  0  0999 V2000
    5.5738    1.8181    0.0000 Cl  0  0  0  0  0  0  0  0  0  0  0  0
    2.1446    1.2116    0.0000 F   0  0  0  0  0  0  0  0  0  0  0  0
    1.5732    0.9917    0.0000 F   0  0  0  0  0  0  0  0  0  0  0  0
    1.5732    0.3317    0.0000 F   0  0  0  0  0  0  0  0  0  0  0  0
    2.8606   -0.5764    0.0000 O   0  0  0  0  0  0  0  0  0  0  0  0
   -4.2871    0.2351    0.0000 O   0  0  0  0  0  0  0  0  0  0  0  0
   -3.5755    1.3100    0.0000 O   0  0  0  0  0  0  0  0  0  0  0  0
    2.8587    1.9008    0.0000 N   0  0  0  0  0  0  0  0  0  0  0  0
    2.1150    1.5603    0.0000 N   0  0  0  0  0  0  0  0  0  0  0  0
    2.1467   -1.8156    0.0000 N   0  0  0  0  0  0  0  0  0  0  0  0
    0.7179   -1.8156    0.0000 N   0  0  0  0  0  0  0  0  0  0  0  0
    1.4321   -2.8882    0.0000 N   0  0  0  0  0  0  0  0  0  0  0  0
   -2.8549   -0.4200    0.0000 N   0  0  0  0  0  0  0  0  0  0  0  0
    2.8595    0.2488    0.0000 C   0  0  0  0  0  0  0  0  0  0  0  0
    3.5734    0.6629    0.0000 C   0  0  0  0  0  0  0  0  0  0  0  0
    2.1448    0.6616    0.0000 C   0  0  0  0  0  0  0  0  0  0  0  0
    3.5734    1.4880    0.0000 C   0  0  0  0  0  0  0  0  0  0  0  0
    4.2881    0.2506    0.0000 C   0  0  0  0  0  0  0  0  0  0  0  0
    2.1467   -0.9907    0.0000 C   0  0  0  0  0  0  0  0  0  0  0  0
    4.2880    1.9006    0.0000 C   0  0  0  0  0  0  0  0  0  0  0  0
    5.0024    1.4880    0.0000 C   0  0  0  0  0  0  0  0  0  0  0  0
    5.0024    0.6630    0.0000 C   0  0  0  0  0  0  0  0  0  0  0  0
    1.4321   -0.5781    0.0000 C   0  0  0  0  0  0  0  0  0  0  0  0
    2.7841    2.7153    0.0000 C   0  0  0  0  0  0  0  0  0  0  0  0
    0.7179   -0.9907    0.0000 C   0  0  0  0  0  0  0  0  0  0  0  0
    1.5639    2.1743    0.0000 C   0  0  0  0  0  0  0  0  0  0  0  0
    1.4321   -2.2280    0.0000 C   0  0  0  0  0  0  0  0  0  0  0  0
    1.9774    2.8882    0.0000 C   0  0  0  0  0  0  0  0  0  0  0  0
    0.0029   -0.5779    0.0000 C   0  0  0  0  0  0  0  0  0  0  0  0
    0.0015    0.2469    0.0000 C   0  0  0  0  0  0  0  0  0  0  0  0
   -0.7108   -0.9915    0.0000 C   0  0  0  0  0  0  0  0  0  0  0  0
   -1.4271    0.2446    0.0000 C   0  0  0  0  0  0  0  0  0  0  0  0
    0.9073    2.1064    0.0000 C   0  0  0  0  0  0  0  0  0  0  0  0
   -0.7135    0.6582    0.0000 C   0  0  0  0  0  0  0  0  0  0  0  0
   -1.4257   -0.5801    0.0000 C   0  0  0  0  0  0  0  0  0  0  0  0
   -2.8571    0.2399    0.0000 C   0  0  0  0  0  0  0  0  0  0  0  0
   -2.1436    0.6547    0.0000 C   0  0  0  0  0  0  0  0  0  0  0  0
   -3.5733    0.6499    0.0000 C   0  0  0  0  0  0  0  0  0  0  0  0
  1 21  1  0
  5 19  1  0
  8 24  1  0
  9  8  1  0
 10 19  2  0
 11 27  2  0
 14  5  1  1
 14 16  1  0
 15 14  1  0
 15 17  1  0
 16  2  1  0
 16  3  1  0
 16  4  1  0
 17  8  1  0
 17 20  2  0
 18 15  2  0
 19 23  1  0
 20 21  1  0
 21 22  2  0
 22 18  1  0
 23 25  2  0
 24 28  2  0
 25 11  1  0
 25 29  1  0
 26  9  2  0
 26 33  1  0
 27 10  1  0
 27 12  1  0
 28 26  1  0
 29 31  1  0
 30 29  2  0
 31 35  2  0
 32 34  2  0
 32 37  1  0
 34 30  1  0
 35 32  1  0
 36 13  1  6
 36 38  1  0
 37 36  1  0
 38  6  1  0
 38  7  2  0
M  END
>  <DRUGBANK_ID>  (1) 
DB14218

>  <COMMON_NAME>  (1) 
Telotristat

>  <CAS_NUMBER>  (1) 
1033805-28-5

>  <UNII>  (1) 
381V4FCV2Z

>  <SYNONYMS>  (1) 
Telotristat

$$$$
