NNB
     RDKit          2D

 24 26  0  0  0  0  0  0  0  0999 V2000
    2.6547   33.2571    0.0000 C   0  0  0  0  0  0  0  0  0  0  0  0
    1.9402   33.6696    0.0000 C   0  0  0  0  0  0  0  0  0  0  0  0
    1.9402   34.4946    0.0000 C   0  0  0  0  0  0  0  0  0  0  0  0
    1.2258   34.9071    0.0000 Br  0  0  0  0  0  0  0  0  0  0  0  0
    2.6547   34.9071    0.0000 C   0  0  0  0  0  0  0  0  0  0  0  0
    3.3692   34.4946    0.0000 C   0  0  0  0  0  0  0  0  0  0  0  0
    3.3692   33.6696    0.0000 C   0  0  0  0  0  0  0  0  0  0  0  0
    4.0836   33.2571    0.0000 N   0  0  0  0  0  0  0  0  0  0  0  0
    4.7981   33.6696    0.0000 C   0  0  0  0  0  0  0  0  0  0  0  0
    4.7981   34.4946    0.0000 S   0  0  0  0  0  0  0  0  0  0  0  0
    5.5126   33.2571    0.0000 O   0  0  0  0  0  0  0  0  0  0  0  0
    6.2271   33.6696    0.0000 C   0  0  0  0  0  0  0  0  0  0  0  0
    6.9415   33.2571    0.0000 C   0  0  0  0  0  0  0  0  0  0  0  0
    7.6560   33.6696    0.0000 N   0  0  0  0  0  0  0  0  0  0  0  0
    8.4097   33.3340    0.0000 C   0  0  0  0  0  0  0  0  0  0  0  0
    8.5812   32.5271    0.0000 O   0  0  0  0  0  0  0  0  0  0  0  0
    8.9617   33.9471    0.0000 C   0  0  0  0  0  0  0  0  0  0  0  0
    9.7867   33.9471    0.0000 C   0  0  0  0  0  0  0  0  0  0  0  0
   10.1992   34.6616    0.0000 C   0  0  0  0  0  0  0  0  0  0  0  0
    9.7867   35.3761    0.0000 C   0  0  0  0  0  0  0  0  0  0  0  0
    8.9617   35.3761    0.0000 C   0  0  0  0  0  0  0  0  0  0  0  0
    8.5492   34.6616    0.0000 C   0  0  0  0  0  0  0  0  0  0  0  0
    7.7422   34.4901    0.0000 C   0  0  0  0  0  0  0  0  0  0  0  0
    7.1291   35.0421    0.0000 O   0  0  0  0  0  0  0  0  0  0  0  0
  1  2  2  0
  1  7  1  0
  2  3  1  0
  3  4  1  0
  3  5  2  0
  5  6  1  0
  6  7  2  0
  7  8  1  0
  8  9  1  0
  9 10  2  0
  9 11  1  0
 11 12  1  0
 12 13  1  0
 13 14  1  0
 14 23  1  0
 14 15  1  0
 15 16  2  0
 17 15  1  0
 18 17  2  0
 19 18  1  0
 20 19  2  0
 21 20  1  0
 22 21  2  0
 22 17  1  0
 23 24  2  0
 23 22  1  0
M  END
>  <DRUGBANK_ID>  (1) 
DB08281

>  <COMMON_NAME>  (1) 
O-[2-(1,3-dioxo-1,3-dihydro-2H-isoindol-2-yl)ethyl] (4-bromophenyl)thiocarbamate

$$$$
