
     RDKit          2D

 22 25  0  0  0  0  0  0  0  0999 V2000
   -0.1468   -1.2480    0.0000 C   0  0  0  0  0  0  0  0  0  0  0  0
   -0.1468   -2.0731    0.0000 C   0  0  0  0  0  0  0  0  0  0  0  0
   -0.8614   -0.8354    0.0000 C   0  0  0  0  0  0  0  0  0  0  0  0
   -0.8614   -2.4855    0.0000 C   0  0  0  0  0  0  0  0  0  0  0  0
   -1.5759   -1.2480    0.0000 C   0  0  0  0  0  0  0  0  0  0  0  0
   -1.5759   -2.0731    0.0000 C   0  0  0  0  0  0  0  0  0  0  0  0
    0.6378   -0.9930    0.0000 C   0  0  0  0  0  0  0  0  0  0  0  0
    1.1226   -1.6605    0.0000 C   0  0  0  0  0  0  0  0  0  0  0  0
    0.6379   -2.3280    0.0000 N   0  0  0  0  0  0  0  0  0  0  0  0
    1.9477   -1.6605    0.0000 O   0  0  0  0  0  0  0  0  0  0  0  0
    0.8927   -0.2084    0.0000 C   0  0  0  0  0  0  0  0  0  0  0  0
    0.4079    0.4591    0.0000 C   0  0  0  0  0  0  0  0  0  0  0  0
    1.6774    0.0465    0.0000 N   0  0  0  0  0  0  0  0  0  0  0  0
    0.8927    1.1265    0.0000 C   0  0  0  0  0  0  0  0  0  0  0  0
    1.6774    0.8716    0.0000 C   0  0  0  0  0  0  0  0  0  0  0  0
    0.7211    1.9335    0.0000 C   0  0  0  0  0  0  0  0  0  0  0  0
    1.3342    2.4855    0.0000 C   0  0  0  0  0  0  0  0  0  0  0  0
    2.2904    1.4237    0.0000 C   0  0  0  0  0  0  0  0  0  0  0  0
    2.1188    2.2307    0.0000 C   0  0  0  0  0  0  0  0  0  0  0  0
   -0.4172    0.4591    0.0000 N   0  0  0  0  0  0  0  0  0  0  0  0
   -0.8297    1.1736    0.0000 O   0  0  0  0  0  0  0  0  0  0  0  0
   -2.2904   -2.4855    0.0000 Br  0  0  0  0  0  0  0  0  0  0  0  0
  2  1  1  0
  3  1  2  0
  4  2  2  0
  5  3  1  0
  6  4  1  0
  6  5  2  0
  6 22  1  0
  7  1  1  0
  7 11  2  0
  8  7  1  0
  8 10  2  0
  9  2  1  0
  9  8  1  0
 12 11  1  0
 12 20  2  0
 13 11  1  0
 14 12  1  0
 15 13  1  0
 15 14  2  0
 16 14  1  0
 17 16  2  0
 18 15  1  0
 19 17  1  0
 19 18  2  0
 20 21  1  0
M  END
>  <DRUGBANK_ID>  (1) 
DB03444

>  <SECONDARY_ACCESSION_NUMBERS>  (1) 
EXPT00759

>  <COMMON_NAME>  (1) 
6-bromoindirubin-3'-oxime

>  <CAS_NUMBER>  (1) 
667463-62-9

>  <SYNONYMS>  (1) 
(2Z,3E)-6-Bromoindirubin-3'-oxime; (2Z,3E)-6'-bromo-2,3'-biindole-2',3(1H,1'H)-dione 3-oxime; 6-BIO

$$$$
