
     RDKit          2D

 32 34  0  0  1  0  0  0  0  0999 V2000
   -6.4099    0.3789    0.0000 C   0  0  0  0  0  0  0  0  0  0  0  0
   -5.6954   -0.0336    0.0000 C   0  0  0  0  0  0  0  0  0  0  0  0
   -4.9809    0.3789    0.0000 C   0  0  0  0  0  0  0  0  0  0  0  0
   -4.2664   -0.0336    0.0000 N   0  0  0  0  0  0  0  0  0  0  0  0
   -4.2664   -0.8586    0.0000 C   0  0  0  0  0  0  0  0  0  0  0  0
   -3.5520    0.3789    0.0000 C   0  0  0  0  0  0  0  0  0  0  0  0
   -3.5520    1.2039    0.0000 O   0  0  0  0  0  0  0  0  0  0  0  0
   -2.8375   -0.0336    0.0000 O   0  0  0  0  0  0  0  0  0  0  0  0
   -2.1230    0.3789    0.0000 C   0  0  0  0  0  0  0  0  0  0  0  0
   -1.4086   -0.0336    0.0000 C   0  0  0  0  0  0  0  0  0  0  0  0
   -0.6549    0.3019    0.0000 C   0  0  0  0  0  0  0  0  0  0  0  0
   -0.1029   -0.3112    0.0000 N   0  0  0  0  0  0  0  0  0  0  0  0
   -0.5154   -1.0257    0.0000 N   0  0  0  0  0  0  0  0  0  0  0  0
   -1.3223   -0.8541    0.0000 N   0  0  0  0  0  0  0  0  0  0  0  0
   -1.9354   -1.4062    0.0000 C   0  0  0  0  0  0  0  0  0  0  0  0
   -0.4834    1.1089    0.0000 C   0  0  0  0  0  0  0  0  0  0  0  0
   -1.0965    1.6609    0.0000 C   0  0  0  0  0  0  0  0  0  0  0  0
   -0.9249    2.4679    0.0000 C   0  0  0  0  0  0  0  0  0  0  0  0
   -0.1403    2.7228    0.0000 C   0  0  0  0  0  0  0  0  0  0  0  0
    0.0312    3.5298    0.0000 O   0  0  0  0  0  0  0  0  0  0  0  0
   -0.5819    4.0818    0.0000 C   0  0  0  0  0  0  0  0  0  0  0  0
   -1.3665    3.8269    0.0000 C   0  0  0  0  0  0  0  0  0  0  0  0
   -1.9796    4.3789    0.0000 C   0  0  0  0  0  0  0  0  0  0  0  0
   -1.8081    5.1859    0.0000 C   0  0  0  0  0  0  0  0  0  0  0  0
   -1.0234    5.4408    0.0000 C   0  0  0  0  0  0  0  0  0  0  0  0
   -0.4103    4.8888    0.0000 C   0  0  0  0  0  0  0  0  0  0  0  0
   -0.8519    6.2478    0.0000 C   0  0  0  0  0  0  0  0  0  0  0  0
   -1.4650    6.7998    0.0000 O   0  0  0  0  0  0  0  0  0  0  0  0
   -0.0673    6.5027    0.0000 O   0  0  0  0  0  0  0  0  0  0  0  0
    0.4728    2.1708    0.0000 C   0  0  0  0  0  0  0  0  0  0  0  0
    1.2574    2.4257    0.0000 C   0  0  0  0  0  0  0  0  0  0  0  0
    0.3013    1.3638    0.0000 N   0  0  0  0  0  0  0  0  0  0  0  0
  1  2  1  0
  2  3  1  0
  3  4  1  0
  4  5  1  0
  4  6  1  0
  6  7  2  0
  6  8  1  0
  8  9  1  0
  9 10  1  0
 10 11  2  0
 10 14  1  0
 11 12  1  0
 11 16  1  0
 12 13  2  0
 13 14  1  0
 14 15  1  0
 16 17  2  0
 16 32  1  0
 17 18  1  0
 18 19  2  0
 19 20  1  0
 19 30  1  0
 21 20  1  1
 21 22  1  0
 21 26  1  0
 22 23  1  0
 23 24  1  0
 25 24  1  0
 25 26  1  0
 25 27  1  6
 27 28  1  0
 27 29  2  0
 30 31  1  0
 30 32  2  0
M  END
>  <DRUGBANK_ID>  (1) 
DB18011

>  <COMMON_NAME>  (1) 
BMS-986278

>  <CAS_NUMBER>  (1) 
2170126-74-4

>  <UNII>  (1) 
4UN9AOU6G8

>  <SYNONYMS>  (1) 
(1s,3s)-3-((2-methyl-6-(1-methyl-5-(((methyl(propyl)carbamoyl)oxy)methyl)-1h-1,2,3-triazol-4-yl)pyridin-3-yl)oxy)cyclohexane-1-carboxylic acid; Cyclohexanecarboxylic acid, 3-((2-methyl-6-(1-methyl-5-((((methylpropylamino)carbonyl)oxy)methyl)-1h-1,2,3-triazol-4-yl)-3-pyridinyl)oxy)-, (1s,3s)-

$$$$
