
     RDKit          2D

 26 27  0  0  1  0  0  0  0  0999 V2000
   -6.6835    2.7975    0.0000 C   0  0  0  0  0  0  0  0  0  0  0  0
   -5.8630    2.8837    0.0000 C   0  0  0  0  0  0  0  0  0  0  0  0
   -5.5274    3.6374    0.0000 C   0  0  0  0  0  0  0  0  0  0  0  0
   -4.7070    3.7236    0.0000 C   0  0  0  0  0  0  0  0  0  0  0  0
   -4.3714    4.4773    0.0000 N   0  0  0  0  0  0  0  0  0  0  0  0
   -4.2220    3.0562    0.0000 C   0  0  0  0  0  0  0  0  0  0  0  0
   -3.4016    3.1424    0.0000 C   0  0  0  0  0  0  0  0  0  0  0  0
   -3.0660    3.8961    0.0000 N   0  0  0  0  0  0  0  0  0  0  0  0
   -3.4785    4.6106    0.0000 C   0  0  0  0  0  0  0  0  0  0  0  0
   -2.9265    5.2237    0.0000 S   0  0  0  0  0  0  0  0  0  0  0  0
   -2.1728    4.8881    0.0000 C   0  0  0  0  0  0  0  0  0  0  0  0
   -1.4583    5.3006    0.0000 C   0  0  0  0  0  0  0  0  0  0  0  0
   -0.7438    4.8881    0.0000 C   0  0  0  0  0  0  0  0  0  0  0  0
   -0.0294    5.3006    0.0000 O   0  0  0  0  0  0  0  0  0  0  0  0
    0.6851    4.8881    0.0000 P   0  0  0  0  0  0  0  0  0  0  0  0
    0.2726    4.1737    0.0000 O   0  0  0  0  0  0  0  0  0  0  0  0
    1.0976    5.6026    0.0000 O   0  0  0  0  0  0  0  0  0  0  0  0
    1.3996    4.4756    0.0000 O   0  0  0  0  0  0  0  0  0  0  0  0
    2.1140    4.8881    0.0000 P   0  0  0  0  0  0  0  0  0  0  0  0
    2.8285    5.3006    0.0000 O   0  0  0  0  0  0  0  0  0  0  0  0
    2.5265    4.1737    0.0000 O   0  0  0  0  0  0  0  0  0  0  0  0
    1.7015    5.6026    0.0000 O   0  0  0  0  0  0  0  0  0  0  0  0
   -2.2590    4.0676    0.0000 C   0  0  0  0  0  0  0  0  0  0  0  0
   -1.6459    3.5156    0.0000 C   0  0  0  0  0  0  0  0  0  0  0  0
   -4.5576    2.3025    0.0000 C   0  0  0  0  0  0  0  0  0  0  0  0
   -5.3781    2.2163    0.0000 N   0  0  0  0  0  0  0  0  0  0  0  0
  1  2  1  0
  2  3  2  0
  2 26  1  0
  3  4  1  0
  4  5  1  0
  4  6  2  0
  6  7  1  0
  6 25  1  0
  7  8  1  0
  8  9  2  0
  8 23  1  0
  9 10  1  0
 10 11  1  0
 11 12  1  0
 11 23  2  0
 12 13  1  0
 13 14  1  0
 15 14  1  0
 15 16  1  0
 15 17  2  0
 15 18  1  0
 18 19  1  0
 19 20  1  6
 19 21  1  0
 19 22  2  0
 23 24  1  0
 25 26  2  0
M  CHG  2   8   1  21  -1
M  END
>  <DRUGBANK_ID>  (1) 
DB02814

>  <SECONDARY_ACCESSION_NUMBERS>  (1) 
EXPT02276

>  <COMMON_NAME>  (1) 
3'-Deazo-Thiamin Diphosphate

$$$$
