
     RDKit          2D

 10 11  0  0  0  0  0  0  0  0999 V2000
    0.5163    0.4125    0.0000 C   0  0  0  0  0  0  0  0  0  0  0  0
   -0.9126   -0.4125    0.0000 C   0  0  0  0  0  0  0  0  0  0  0  0
   -0.9126    0.4125    0.0000 C   0  0  0  0  0  0  0  0  0  0  0  0
    0.5164   -0.4125    0.0000 C   0  0  0  0  0  0  0  0  0  0  0  0
    0.0684    0.0000    0.0000 C   0  0  0  0  0  0  0  0  0  0  0  0
    0.9126    0.4147    0.0000 C   0  0  0  0  0  0  0  0  0  0  0  0
    0.9126   -0.4147    0.0000 C   0  0  0  0  0  0  0  0  0  0  0  0
   -0.1981    0.8250    0.0000 C   0  0  0  0  0  0  0  0  0  0  0  0
   -0.1981    1.6500    0.0000 C   0  0  0  0  0  0  0  0  0  0  0  0
   -0.1981   -0.8250    0.0000 C   0  0  0  0  0  0  0  0  0  0  0  0
  1  4  1  0
  2  3  1  0
 10  4  1  6
  5 10  1  0
  5  6  1  0
  5  7  1  0
  8  1  1  0
  8  3  1  0
  8  5  1  0
  8  9  1  1
 10  2  1  0
M  END
>  <DRUGBANK_ID>  (1) 
DB04501

>  <SECONDARY_ACCESSION_NUMBERS>  (1) 
EXPT00824

>  <COMMON_NAME>  (1) 
Camphane

>  <CAS_NUMBER>  (1) 
464-15-3

>  <SYNONYMS>  (1) 
(1s,4s)-1,7,7-trimethylbicyclo[2.2.1]heptane; 1β,4β-bornane; Bornane; Bornylane

$$$$
