AUP
     RDKit          2D

 27 31  0  0  0  0  0  0  0  0999 V2000
    0.9733   -0.4914    0.0000 C   0  0  0  0  0  0  0  0  0  0  0  0
    0.9733    0.3336    0.0000 C   0  0  0  0  0  0  0  0  0  0  0  0
    1.6877    0.7461    0.0000 C   0  0  0  0  0  0  0  0  0  0  0  0
    2.4022    0.3336    0.0000 C   0  0  0  0  0  0  0  0  0  0  0  0
    2.4022   -0.4914    0.0000 C   0  0  0  0  0  0  0  0  0  0  0  0
    1.6877   -0.9039    0.0000 C   0  0  0  0  0  0  0  0  0  0  0  0
    0.1886   -0.7463    0.0000 C   0  0  0  0  0  0  0  0  0  0  0  0
   -0.2963   -0.0789    0.0000 P   0  0  0  0  0  0  0  0  0  0  0  0
    0.1886    0.5885    0.0000 C   0  0  0  0  0  0  0  0  0  0  0  0
   -0.8733    1.5447    0.0000 N   0  0  0  0  0  0  0  0  0  0  0  0
   -1.1282    2.3293    0.0000 C   0  0  0  0  0  0  0  0  0  0  0  0
   -0.5762    2.9424    0.0000 C   0  0  0  0  0  0  0  0  0  0  0  0
    0.2308    2.7709    0.0000 C   0  0  0  0  0  0  0  0  0  0  0  0
    0.4857    1.9863    0.0000 C   0  0  0  0  0  0  0  0  0  0  0  0
   -0.0663    1.3732    0.0000 C   0  0  0  0  0  0  0  0  0  0  0  0
   -2.7713   -0.0789    0.0000 C   0  0  0  0  0  0  0  0  0  0  0  0
   -2.3588    0.6356    0.0000 C   0  0  0  0  0  0  0  0  0  0  0  0
   -1.5338    0.6356    0.0000 C   0  0  0  0  0  0  0  0  0  0  0  0
   -1.1213   -0.0789    0.0000 C   0  0  0  0  0  0  0  0  0  0  0  0
   -1.5338   -0.7934    0.0000 C   0  0  0  0  0  0  0  0  0  0  0  0
   -2.3588   -0.7934    0.0000 C   0  0  0  0  0  0  0  0  0  0  0  0
   -0.8733   -1.7025    0.0000 N   0  0  0  0  0  0  0  0  0  0  0  0
   -0.0663   -1.5310    0.0000 C   0  0  0  0  0  0  0  0  0  0  0  0
    0.4857   -2.1441    0.0000 C   0  0  0  0  0  0  0  0  0  0  0  0
    0.2308   -2.9287    0.0000 C   0  0  0  0  0  0  0  0  0  0  0  0
   -0.5762   -3.1002    0.0000 C   0  0  0  0  0  0  0  0  0  0  0  0
   -1.1282   -2.4871    0.0000 C   0  0  0  0  0  0  0  0  0  0  0  0
  1  2  1  0
  1  6  1  0
  1  7  2  0
  2  3  1  0
  2  9  2  0
  3  4  1  0
  4  5  1  0
  5  6  1  0
  7  8  1  0
  7 23  1  0
  8  9  1  0
  8 19  1  0
  9 15  1  0
 10 11  2  0
 10 15  1  0
 11 12  1  0
 12 13  2  0
 13 14  1  0
 14 15  2  0
 16 17  2  0
 16 21  1  0
 17 18  1  0
 18 19  2  0
 19 20  1  0
 20 21  2  0
 22 23  2  0
 22 27  1  0
 23 24  1  0
 24 25  2  0
 25 26  1  0
 26 27  2  0
M  END
>  <DRUGBANK_ID>  (1) 
DB07393

>  <COMMON_NAME>  (1) 
2-(2-PHENYL-3-PYRIDIN-2-YL-4,5,6,7-TETRAHYDRO-2H-ISOPHOSPHINDOL-1-YL)PYRIDINE

$$$$
