AE2
     RDKit          2D

 21 24  0  0  0  0  0  0  0  0999 V2000
    1.3350   -0.7296    0.0000 C   0  0  0  0  0  0  0  0  0  0  0  0
    2.1471   -0.5844    0.0000 C   0  0  0  0  0  0  0  0  0  0  0  0
    2.4274    0.1916    0.0000 C   0  0  0  0  0  0  0  0  0  0  0  0
    3.2395    0.3368    0.0000 O   0  0  0  0  0  0  0  0  0  0  0  0
    1.8956    0.8223    0.0000 C   0  0  0  0  0  0  0  0  0  0  0  0
    1.0834    0.6771    0.0000 C   0  0  0  0  0  0  0  0  0  0  0  0
    0.5516    1.3078    0.0000 C   0  0  0  0  0  0  0  0  0  0  0  0
   -0.2605    1.1626    0.0000 C   0  0  0  0  0  0  0  0  0  0  0  0
   -0.5408    0.3866    0.0000 C   0  0  0  0  0  0  0  0  0  0  0  0
   -0.0090   -0.2441    0.0000 C   0  0  0  0  0  0  0  0  0  0  0  0
    0.8031   -0.0989    0.0000 C   0  0  0  0  0  0  0  0  0  0  0  0
   -0.2893   -1.0200    0.0000 C   0  0  0  0  0  0  0  0  0  0  0  0
   -1.1014   -1.1652    0.0000 C   0  0  0  0  0  0  0  0  0  0  0  0
   -1.6332   -0.5345    0.0000 C   0  0  0  0  0  0  0  0  0  0  0  0
   -1.3529    0.2414    0.0000 C   0  0  0  0  0  0  0  0  0  0  0  0
   -2.0042    0.7478    0.0000 C   0  0  0  0  0  0  0  0  0  0  0  0
   -2.6871    0.2848    0.0000 C   0  0  0  0  0  0  0  0  0  0  0  0
   -2.4578   -0.5077    0.0000 C   0  0  0  0  0  0  0  0  0  0  0  0
   -2.9641   -1.1590    0.0000 O   0  0  0  0  0  0  0  0  0  0  0  0
   -1.9931   -1.2769    0.0000 C   0  0  0  0  0  0  0  0  0  0  0  0
    0.5228   -0.8748    0.0000 C   0  0  0  0  0  0  0  0  0  0  0  0
  1  2  1  0
  1 11  1  0
  2  3  1  0
  3  4  1  6
  3  5  1  0
  6  5  1  6
  6  7  1  0
  6 11  1  0
  7  8  1  0
  9  8  1  6
  9 10  1  0
  9 15  1  0
 10 11  1  0
 10 12  1  1
 11 21  1  1
 12 13  1  0
 13 14  1  0
 14 15  1  0
 14 18  1  0
 14 20  1  1
 15 16  1  1
 16 17  1  0
 17 18  1  0
 18 19  2  0
M  END
>  <DRUGBANK_ID>  (1) 
DB02854

>  <SECONDARY_ACCESSION_NUMBERS>  (1) 
EXPT00443

>  <COMMON_NAME>  (1) 
Aetiocholanolone

>  <CAS_NUMBER>  (1) 
53-42-9

>  <UNII>  (1) 
97CGB1M48I

$$$$
