
     RDKit          2D

 35 38  0  0  1  0  0  0  0  0999 V2000
   10.3236    0.4746    0.0000 C   0  0  0  0  0  0  0  0  0  0  0  0
   10.7361   -0.2399    0.0000 C   0  0  0  0  0  0  0  0  0  0  0  0
   11.5611   -0.2399    0.0000 C   0  0  0  0  0  0  0  0  0  0  0  0
   10.3236   -0.9544    0.0000 N   0  0  0  0  0  0  0  0  0  0  0  0
   10.7361   -1.6688    0.0000 C   0  0  0  0  0  0  0  0  0  0  0  0
   11.5611   -1.6688    0.0000 C   0  0  0  0  0  0  0  0  0  0  0  0
   11.9736   -2.3833    0.0000 C   0  0  0  0  0  0  0  0  0  0  0  0
   11.5611   -3.0978    0.0000 C   0  0  0  0  0  0  0  0  0  0  0  0
   10.7361   -3.0978    0.0000 C   0  0  0  0  0  0  0  0  0  0  0  0
   10.3236   -2.3833    0.0000 C   0  0  0  0  0  0  0  0  0  0  0  0
    9.4986   -2.3833    0.0000 C   0  0  0  0  0  0  0  0  0  0  0  0
    9.0861   -1.6688    0.0000 C   0  0  0  0  0  0  0  0  0  0  0  0
    9.4986   -0.9544    0.0000 C   0  0  0  0  0  0  0  0  0  0  0  0
    9.0861   -0.2399    0.0000 O   0  0  0  0  0  0  0  0  0  0  0  0
    8.2611   -1.6688    0.0000 C   0  0  0  0  0  0  0  0  0  0  0  0
    7.8486   -0.9544    0.0000 O   0  0  0  0  0  0  0  0  0  0  0  0
    7.8486   -2.3833    0.0000 N   0  0  0  0  0  0  0  0  0  0  0  0
    7.0236   -2.3833    0.0000 C   0  0  0  0  0  0  0  0  0  0  0  0
    6.6656   -1.6400    0.0000 C   0  0  0  0  0  0  0  0  0  0  0  0
    5.8613   -1.4564    0.0000 C   0  0  0  0  0  0  0  0  0  0  0  0
    5.2163   -1.9708    0.0000 C   0  0  0  0  0  0  0  0  0  0  0  0
    5.2163   -2.7958    0.0000 C   0  0  0  0  0  0  0  0  0  0  0  0
    5.8613   -3.3102    0.0000 C   0  0  0  0  0  0  0  0  0  0  0  0
    6.6656   -3.1266    0.0000 C   0  0  0  0  0  0  0  0  0  0  0  0
    5.6296   -2.3833    0.0000 N   0  0  0  0  0  0  0  0  0  0  0  0
    4.8046   -2.3833    0.0000 C   0  0  0  0  0  0  0  0  0  0  0  0
    4.3921   -3.0978    0.0000 C   0  0  0  0  0  0  0  0  0  0  0  0
    4.8046   -3.8123    0.0000 C   0  0  0  0  0  0  0  0  0  0  0  0
    4.3921   -4.5267    0.0000 N   0  0  0  0  0  0  0  0  0  0  0  0
    3.5671   -4.5267    0.0000 C   0  0  0  0  0  0  0  0  0  0  0  0
    4.8046   -5.2412    0.0000 S   0  0  0  0  0  0  0  0  0  0  0  0
    5.2171   -5.9557    0.0000 O   0  0  0  0  0  0  0  0  0  0  0  0
    4.0901   -5.6537    0.0000 O   0  0  0  0  0  0  0  0  0  0  0  0
    5.5191   -4.8287    0.0000 C   0  0  0  0  0  0  0  0  0  0  0  0
    3.5671   -3.0978    0.0000 O   0  0  0  0  0  0  0  0  0  0  0  0
  1  2  1  0
  2  3  1  0
  2  4  1  0
  4  5  1  0
  4 13  1  0
  5  6  2  0
  5 10  1  0
  6  7  1  0
  7  8  2  0
  8  9  1  0
  9 10  2  0
 10 11  1  0
 11 12  2  0
 12 13  1  0
 12 15  1  0
 13 14  2  0
 15 16  2  0
 15 17  1  0
 18 17  1  6
 18 19  1  0
 18 24  1  0
 20 19  1  6
 20 21  1  0
 20 25  1  0
 21 22  1  0
 23 22  1  6
 23 24  1  0
 23 25  1  0
 25 26  1  0
 26 27  1  0
 27 28  1  0
 27 35  1  6
 28 29  1  0
 29 30  1  0
 29 31  1  0
 31 32  2  0
 31 33  2  0
 31 34  1  0
M  END
>  <DRUGBANK_ID>  (1) 
DB12702

>  <SECONDARY_ACCESSION_NUMBERS>  (1) 
DB05655

>  <COMMON_NAME>  (1) 
Velusetrag

>  <CAS_NUMBER>  (1) 
866933-46-2

>  <UNII>  (1) 
J4VNV64ARB

>  <SYNONYMS>  (1) 
Velusetrag

$$$$
