
     RDKit          2D

 10 11  0  0  0  0  0  0  0  0999 V2000
    0.0794    0.0010    0.0000 C   0  0  0  0  0  0  0  0  0  0  0  0
    0.0806   -0.8239    0.0000 C   0  0  0  0  0  0  0  0  0  0  0  0
    0.8656   -1.0776    0.0000 C   0  0  0  0  0  0  0  0  0  0  0  0
    0.8636    0.2571    0.0000 N   0  0  0  0  0  0  0  0  0  0  0  0
    1.3495   -0.4095    0.0000 N   0  0  0  0  0  0  0  0  0  0  0  0
   -1.3495   -0.0010    0.0000 N   0  0  0  0  0  0  0  0  0  0  0  0
   -0.6332   -1.2375    0.0000 N   0  0  0  0  0  0  0  0  0  0  0  0
   -1.3483   -0.8260    0.0000 C   0  0  0  0  0  0  0  0  0  0  0  0
   -0.6356    0.4125    0.0000 C   0  0  0  0  0  0  0  0  0  0  0  0
   -0.6356    1.2375    0.0000 O   0  0  0  0  0  0  0  0  0  0  0  0
  1  2  2  0
  2  3  1  0
  3  5  1  0
  4  1  1  0
  4  5  2  0
  6  8  1  0
  7  2  1  0
  8  7  2  0
  9  6  2  0
  9  1  1  0
  9 10  1  0
M  END
>  <DRUGBANK_ID>  (1) 
DB03153

>  <SECONDARY_ACCESSION_NUMBERS>  (1) 
EXPT02643

>  <COMMON_NAME>  (1) 
3H-pyrazolo[4,3-d]pyrimidin-7-ol

>  <UNII>  (1) 
UNA9YT8PYM

$$$$
