DF2
     RDKit          2D

 27 30  0  0  0  0  0  0  0  0999 V2000
    3.8452   -2.1042    0.0000 C   0  0  0  0  0  0  0  0  0  0  0  0
    1.1467   -1.6917    0.0000 C   0  0  0  0  0  0  0  0  0  0  0  0
    0.3217   -1.6917    0.0000 C   0  0  0  0  0  0  0  0  0  0  0  0
   -0.0908   -2.4061    0.0000 C   0  0  0  0  0  0  0  0  0  0  0  0
   -0.9158   -2.4061    0.0000 C   0  0  0  0  0  0  0  0  0  0  0  0
   -1.3283   -1.6917    0.0000 C   0  0  0  0  0  0  0  0  0  0  0  0
   -0.9158   -0.9772    0.0000 C   0  0  0  0  0  0  0  0  0  0  0  0
   -0.0908   -0.9772    0.0000 C   0  0  0  0  0  0  0  0  0  0  0  0
    0.5697   -0.0681    0.0000 C   0  0  0  0  0  0  0  0  0  0  0  0
    0.3148    0.7165    0.0000 C   0  0  0  0  0  0  0  0  0  0  0  0
    0.8668    1.3296    0.0000 C   0  0  0  0  0  0  0  0  0  0  0  0
    1.6738    1.1581    0.0000 C   0  0  0  0  0  0  0  0  0  0  0  0
    3.1307   -2.5167    0.0000 N   0  0  0  0  0  0  0  0  0  0  0  0
    4.5597    1.6083    0.0000 C   0  0  0  0  0  0  0  0  0  0  0  0
    2.4163   -2.1042    0.0000 C   0  0  0  0  0  0  0  0  0  0  0  0
    2.4163   -1.2792    0.0000 C   0  0  0  0  0  0  0  0  0  0  0  0
    4.5597    2.4333    0.0000 O   0  0  0  0  0  0  0  0  0  0  0  0
    3.1307   -0.0417    0.0000 N   0  0  0  0  0  0  0  0  0  0  0  0
    3.1307   -0.8667    0.0000 C   0  0  0  0  0  0  0  0  0  0  0  0
    3.8452   -1.2792    0.0000 N   0  0  0  0  0  0  0  0  0  0  0  0
    1.6316   -2.3591    0.0000 N   0  0  0  0  0  0  0  0  0  0  0  0
    1.9287    0.3735    0.0000 C   0  0  0  0  0  0  0  0  0  0  0  0
    1.6316   -1.0242    0.0000 C   0  0  0  0  0  0  0  0  0  0  0  0
    1.3767   -0.2396    0.0000 C   0  0  0  0  0  0  0  0  0  0  0  0
    3.8452    1.1958    0.0000 C   0  0  0  0  0  0  0  0  0  0  0  0
    3.8452    0.3708    0.0000 C   0  0  0  0  0  0  0  0  0  0  0  0
    3.1307    1.6083    0.0000 O   0  0  0  0  0  0  0  0  0  0  0  0
  1 13  2  0
  1 20  1  0
  2  3  1  0
  2 21  1  0
  2 23  2  0
  3  4  2  0
  3  8  1  0
  4  5  1  0
  5  6  2  0
  6  7  1  0
  7  8  2  0
  9 10  2  0
  9 24  1  0
 10 11  1  0
 11 12  2  0
 12 22  1  0
 13 15  1  0
 14 17  1  0
 14 25  1  0
 15 16  2  0
 15 21  1  0
 16 19  1  0
 16 23  1  0
 18 19  1  0
 18 26  1  0
 19 20  2  0
 22 24  2  0
 23 24  1  0
 25 26  1  0
 25 27  1  1
M  END
>  <DRUGBANK_ID>  (1) 
DB07648

>  <COMMON_NAME>  (1) 
(2R)-3-{[(4Z)-5,6-DIPHENYL-6,7-DIHYDRO-4H-PYRROLO[2,3-D]PYRIMIDIN-4-YLIDENE]AMINO}PROPANE-1,2-DIOL

$$$$
