NP6
     RDKit          2D

 27 28  0  0  0  0  0  0  0  0999 V2000
   -4.2342    0.1720    0.0000 C   0  0  0  0  0  0  0  0  0  0  0  0
   -3.5197    0.5845    0.0000 C   0  0  0  0  0  0  0  0  0  0  0  0
   -2.8052    0.1720    0.0000 C   0  0  0  0  0  0  0  0  0  0  0  0
   -2.0908    0.5845    0.0000 C   0  0  0  0  0  0  0  0  0  0  0  0
   -2.0908    1.4095    0.0000 O   0  0  0  0  0  0  0  0  0  0  0  0
   -1.3763    0.1720    0.0000 N   0  0  0  0  0  0  0  0  0  0  0  0
   -0.6618    0.5845    0.0000 C   0  0  0  0  0  0  0  0  0  0  0  0
   -0.6618    1.4095    0.0000 C   0  0  0  0  0  0  0  0  0  0  0  0
   -1.3763    1.8220    0.0000 O   0  0  0  0  0  0  0  0  0  0  0  0
    0.0526    1.8220    0.0000 C   0  0  0  0  0  0  0  0  0  0  0  0
    0.0526    2.6470    0.0000 O   0  0  0  0  0  0  0  0  0  0  0  0
    0.7671    1.4095    0.0000 C   0  0  0  0  0  0  0  0  0  0  0  0
    1.4816    1.8220    0.0000 C   0  0  0  0  0  0  0  0  0  0  0  0
    2.1961    1.4095    0.0000 O   0  0  0  0  0  0  0  0  0  0  0  0
    0.7671    0.5845    0.0000 O   0  0  0  0  0  0  0  0  0  0  0  0
    0.0526    0.1720    0.0000 C   0  0  0  0  0  0  0  0  0  0  0  0
    0.0526   -0.6530    0.0000 N   0  0  0  0  0  0  0  0  0  0  0  0
    0.7671   -1.0655    0.0000 O   0  0  0  0  0  0  0  0  0  0  0  0
    0.7671   -1.8905    0.0000 C   0  0  0  0  0  0  0  0  0  0  0  0
    0.0526   -2.3030    0.0000 O   0  0  0  0  0  0  0  0  0  0  0  0
    1.4816   -2.3030    0.0000 N   0  0  0  0  0  0  0  0  0  0  0  0
    2.1961   -1.8905    0.0000 C   0  0  0  0  0  0  0  0  0  0  0  0
    2.1961   -1.0655    0.0000 C   0  0  0  0  0  0  0  0  0  0  0  0
    2.9105   -0.6530    0.0000 C   0  0  0  0  0  0  0  0  0  0  0  0
    3.6250   -1.0655    0.0000 C   0  0  0  0  0  0  0  0  0  0  0  0
    3.6250   -1.8905    0.0000 C   0  0  0  0  0  0  0  0  0  0  0  0
    2.9105   -2.3030    0.0000 C   0  0  0  0  0  0  0  0  0  0  0  0
  1  2  1  0
  2  3  1  0
  3  4  1  0
  4  5  2  0
  4  6  1  0
  7  6  1  6
  7  8  1  0
  7 16  1  0
  8  9  1  1
  8 10  1  0
 10 11  1  6
 10 12  1  0
 12 13  1  1
 12 15  1  0
 13 14  1  0
 15 16  1  0
 16 17  2  0
 17 18  1  0
 18 19  1  0
 19 20  2  0
 19 21  1  0
 21 22  1  0
 22 23  2  0
 22 27  1  0
 23 24  1  0
 24 25  2  0
 25 26  1  0
 26 27  2  0
M  END
>  <DRUGBANK_ID>  (1) 
DB07432

>  <COMMON_NAME>  (1) 
[[(3R,4R,5S,6R)-3-(butanoylamino)-4,5-dihydroxy-6-(hydroxymethyl)oxan-2-ylidene]amino] N-phenylcarbamate

$$$$
