
     RDKit          2D

 31 32  0  0  1  0  0  0  0  0999 V2000
    0.0000   -1.6500    0.0000 C   0  0  0  0  0  0  0  0  0  0  0  0
   -0.7145   -3.7125    0.0000 C   0  0  0  0  0  0  0  0  0  0  0  0
   -0.7145   -1.2375    0.0000 C   0  0  0  0  0  0  0  0  0  0  0  0
    0.0000   -2.4750    0.0000 C   0  0  0  0  0  0  0  0  0  0  0  0
   -1.4289   -4.1250    0.0000 C   0  0  0  0  0  0  0  0  0  0  0  0
   -2.8579   -4.9500    0.0000 C   0  0  0  0  0  0  0  0  0  0  0  0
   -2.8579   -4.1250    0.0000 C   0  0  0  0  0  0  0  0  0  0  0  0
   -1.4289   -1.6500    0.0000 C   0  0  0  0  0  0  0  0  0  0  0  0
   -2.1434   -3.7125    0.0000 C   0  0  0  0  0  0  0  0  0  0  0  0
    0.7145   -2.8875    0.0000 C   0  0  0  0  0  0  0  0  0  0  0  0
   -2.1434   -5.3625    0.0000 C   0  0  0  0  0  0  0  0  0  0  0  0
   -1.4289   -2.4750    0.0000 C   0  0  0  0  0  0  0  0  0  0  0  0
   -3.5724   -5.3625    0.0000 N   0  0  0  0  0  0  0  0  0  0  0  0
    0.0000   -4.1250    0.0000 O   0  0  0  0  0  0  0  0  0  0  0  0
   -0.7145   -0.4125    0.0000 O   0  0  0  0  0  0  0  0  0  0  0  0
   -3.5724   -3.7125    0.0000 O   0  0  0  0  0  0  0  0  0  0  0  0
    1.4289   -2.4750    0.0000 O   0  0  0  0  0  0  0  0  0  0  0  0
    0.7145   -3.7125    0.0000 O   0  0  0  0  0  0  0  0  0  0  0  0
   -2.1434   -6.1875    0.0000 O   0  0  0  0  0  0  0  0  0  0  0  0
   -3.5724   -7.0125    0.0000 O   0  0  0  0  0  0  0  0  0  0  0  0
   -4.3974   -6.1875    0.0000 O   0  0  0  0  0  0  0  0  0  0  0  0
   -2.7474   -6.1875    0.0000 O   0  0  0  0  0  0  0  0  0  0  0  0
   -1.3184   -0.4125    0.0000 O   0  0  0  0  0  0  0  0  0  0  0  0
   -2.9684   -0.4125    0.0000 O   0  0  0  0  0  0  0  0  0  0  0  0
   -2.1434    0.4125    0.0000 O   0  0  0  0  0  0  0  0  0  0  0  0
   -1.4289   -4.9500    0.0000 O   0  0  0  0  0  0  0  0  0  0  0  0
   -0.7145   -2.8875    0.0000 O   0  0  0  0  0  0  0  0  0  0  0  0
   -2.1434   -2.8875    0.0000 O   0  0  0  0  0  0  0  0  0  0  0  0
   -2.1434   -1.2375    0.0000 O   0  0  0  0  0  0  0  0  0  0  0  0
   -3.5724   -6.1875    0.0000 S   0  0  0  0  0  0  0  0  0  0  0  0
   -2.1434   -0.4125    0.0000 S   0  0  0  0  0  0  0  0  0  0  0  0
  3  1  1  0
  3 15  1  1
  4  1  2  0
  5  2  1  1
  6 13  1  6
  7  6  1  0
  7 16  1  1
  8  3  1  0
  8 29  1  6
  9  5  1  0
  9  7  1  0
  9 28  1  6
 10  4  1  0
 11  6  1  0
 11 19  1  6
 12  8  1  0
 12 28  1  1
 14  2  1  0
 17 10  2  0
 18 10  1  0
 26  5  1  0
 26 11  1  0
 27  4  1  0
 27 12  1  0
 30 13  1  0
 30 20  1  0
 30 21  2  0
 30 22  2  0
 31 23  1  0
 31 24  2  0
 31 25  2  0
 31 29  1  0
M  CHG  3  18  -1  20  -1  23  -1
M  END
>  <DRUGBANK_ID>  (1) 
DB02353

>  <SECONDARY_ACCESSION_NUMBERS>  (1) 
EXPT01679

>  <COMMON_NAME>  (1) 
Heparin Disaccharide Iii-S

$$$$
