
     RDKit          2D

 31 33  0  0  1  0  0  0  0  0999 V2000
   -4.1706    3.0872    0.0000 C   0  0  0  0  0  0  0  0  0  0  0  0
   -3.7581    2.3727    0.0000 C   0  0  0  0  0  0  0  0  0  0  0  0
   -4.4726    1.9602    0.0000 C   0  0  0  0  0  0  0  0  0  0  0  0
   -3.0436    2.7852    0.0000 C   0  0  0  0  0  0  0  0  0  0  0  0
   -3.3456    1.6583    0.0000 O   0  0  0  0  0  0  0  0  0  0  0  0
   -2.5206    1.6583    0.0000 C   0  0  0  0  0  0  0  0  0  0  0  0
   -2.1081    2.3727    0.0000 O   0  0  0  0  0  0  0  0  0  0  0  0
   -2.1081    0.9438    0.0000 N   0  0  0  0  0  0  0  0  0  0  0  0
   -1.2831    0.9438    0.0000 C   0  0  0  0  0  0  0  0  0  0  0  0
   -0.8706    0.2293    0.0000 C   0  0  0  0  0  0  0  0  0  0  0  0
   -0.0456    0.2293    0.0000 N   0  0  0  0  0  0  0  0  0  0  0  0
    0.2701   -0.5329    0.0000 C   0  0  0  0  0  0  0  0  0  0  0  0
    1.0323   -0.8486    0.0000 C   0  0  0  0  0  0  0  0  0  0  0  0
    1.7945   -0.5329    0.0000 C   0  0  0  0  0  0  0  0  0  0  0  0
    2.1102    0.2293    0.0000 N   0  0  0  0  0  0  0  0  0  0  0  0
    1.7945    0.9915    0.0000 C   0  0  0  0  0  0  0  0  0  0  0  0
    1.0323    1.3072    0.0000 C   0  0  0  0  0  0  0  0  0  0  0  0
    0.2701    0.9915    0.0000 C   0  0  0  0  0  0  0  0  0  0  0  0
    0.7628    0.2293    0.0000 O   0  0  0  0  0  0  0  0  0  0  0  0
    2.9352    0.2293    0.0000 C   0  0  0  0  0  0  0  0  0  0  0  0
    3.3477   -0.4851    0.0000 C   0  0  0  0  0  0  0  0  0  0  0  0
    4.1727   -0.4851    0.0000 O   0  0  0  0  0  0  0  0  0  0  0  0
    4.5852   -1.1996    0.0000 C   0  0  0  0  0  0  0  0  0  0  0  0
    5.4102   -1.1996    0.0000 C   0  0  0  0  0  0  0  0  0  0  0  0
    5.8227   -1.9141    0.0000 C   0  0  0  0  0  0  0  0  0  0  0  0
    5.4102   -2.6285    0.0000 C   0  0  0  0  0  0  0  0  0  0  0  0
    4.5852   -2.6285    0.0000 C   0  0  0  0  0  0  0  0  0  0  0  0
    4.1727   -1.9141    0.0000 C   0  0  0  0  0  0  0  0  0  0  0  0
    3.3477   -1.9141    0.0000 F   0  0  0  0  0  0  0  0  0  0  0  0
    5.8227   -3.3430    0.0000 C   0  0  0  0  0  0  0  0  0  0  0  0
    6.2352   -4.0575    0.0000 N   0  0  0  0  0  0  0  0  0  0  0  0
  1  2  1  0
  2  3  1  0
  2  4  1  0
  2  5  1  0
  5  6  1  0
  6  7  2  0
  6  8  1  0
  8  9  1  0
  9 10  1  0
 10 11  1  0
 11 12  1  0
 11 18  1  0
 13 12  1  1
 13 14  1  0
 13 19  1  0
 14 15  1  0
 15 16  1  0
 15 20  1  0
 17 16  1  1
 17 18  1  0
 17 19  1  0
 20 21  1  0
 21 22  1  0
 22 23  1  0
 23 24  2  0
 23 28  1  0
 24 25  1  0
 25 26  2  0
 26 27  1  0
 26 30  1  0
 27 28  2  0
 28 29  1  0
 30 31  3  0
M  END
>  <DRUGBANK_ID>  (1) 
DB11766

>  <COMMON_NAME>  (1) 
AZD-1305

>  <CAS_NUMBER>  (1) 
872045-91-5

>  <UNII>  (1) 
CZO834LXQM

$$$$
