K05
     RDKit          2D

 25 27  0  0  0  0  0  0  0  0999 V2000
    2.5079   -0.8230    0.0000 N   0  0  0  0  0  0  0  0  0  0  0  0
    2.5079   -1.6480    0.0000 N   0  0  0  0  0  0  0  0  0  0  0  0
    1.7934   -2.0605    0.0000 C   0  0  0  0  0  0  0  0  0  0  0  0
    1.0790   -1.6480    0.0000 O   0  0  0  0  0  0  0  0  0  0  0  0
    1.7934   -2.8855    0.0000 C   0  0  0  0  0  0  0  0  0  0  0  0
    2.5079   -3.2980    0.0000 C   0  0  0  0  0  0  0  0  0  0  0  0
    2.5079   -4.1230    0.0000 C   0  0  0  0  0  0  0  0  0  0  0  0
    1.7934   -4.5355    0.0000 C   0  0  0  0  0  0  0  0  0  0  0  0
    1.0790   -4.1230    0.0000 C   0  0  0  0  0  0  0  0  0  0  0  0
    1.0790   -3.2980    0.0000 C   0  0  0  0  0  0  0  0  0  0  0  0
    1.7934   -5.3605    0.0000 O   0  0  0  0  0  0  0  0  0  0  0  0
    3.2224   -4.5355    0.0000 O   0  0  0  0  0  0  0  0  0  0  0  0
    3.2224   -0.4105    0.0000 C   0  0  0  0  0  0  0  0  0  0  0  0
    3.2224    0.4145    0.0000 C   0  0  0  0  0  0  0  0  0  0  0  0
    2.5079    0.8270    0.0000 C   0  0  0  0  0  0  0  0  0  0  0  0
    1.7934    0.4145    0.0000 O   0  0  0  0  0  0  0  0  0  0  0  0
    2.5079    1.6520    0.0000 C   0  0  0  0  0  0  0  0  0  0  0  0
    3.2224    2.0645    0.0000 C   0  0  0  0  0  0  0  0  0  0  0  0
    3.9368    1.6520    0.0000 C   0  0  0  0  0  0  0  0  0  0  0  0
    4.6513    2.0645    0.0000 C   0  0  0  0  0  0  0  0  0  0  0  0
    5.3658    1.6520    0.0000 C   0  0  0  0  0  0  0  0  0  0  0  0
    5.3658    0.8270    0.0000 C   0  0  0  0  0  0  0  0  0  0  0  0
    4.6513    0.4145    0.0000 C   0  0  0  0  0  0  0  0  0  0  0  0
    3.9368    0.8270    0.0000 C   0  0  0  0  0  0  0  0  0  0  0  0
    1.0790    0.8270    0.0000 C   0  0  0  0  0  0  0  0  0  0  0  0
  1 13  2  0
  1  2  1  0
  2  3  1  0
  3  4  2  0
  3  5  1  0
  5  6  2  0
  5 10  1  0
  6  7  1  0
  7 12  1  0
  7  8  2  0
  8  9  1  0
  8 11  1  0
  9 10  2  0
 13 14  1  0
 14 15  2  0
 14 24  1  0
 15 17  1  0
 15 16  1  0
 16 25  1  0
 17 18  2  0
 18 19  1  0
 19 20  1  0
 19 24  2  0
 20 21  2  0
 21 22  1  0
 22 23  2  0
 23 24  1  0
M  END
>  <DRUGBANK_ID>  (1) 
DB08034

>  <COMMON_NAME>  (1) 
(E)-3,4-DIHYDROXY-N'-[(2-METHOXYNAPHTHALEN-1-YL)METHYLENE]BENZOHYDRAZIDE

$$$$
