TF1
     RDKit          2D

 27 28  0  0  0  0  0  0  0  0999 V2000
    1.0976    0.0225    0.0000 N   0  0  0  0  0  0  0  0  0  0  0  0
    1.8121    0.4350    0.0000 C   0  0  0  0  0  0  0  0  0  0  0  0
    1.0976   -0.8025    0.0000 C   0  0  0  0  0  0  0  0  0  0  0  0
    0.3831    0.4350    0.0000 C   0  0  0  0  0  0  0  0  0  0  0  0
    1.8121    1.2600    0.0000 C   0  0  0  0  0  0  0  0  0  0  0  0
    2.5265    0.0225    0.0000 O   0  0  0  0  0  0  0  0  0  0  0  0
    0.3831   -1.2150    0.0000 C   0  0  0  0  0  0  0  0  0  0  0  0
    1.8121   -1.2150    0.0000 C   0  0  0  0  0  0  0  0  0  0  0  0
   -0.3314    0.0225    0.0000 C   0  0  0  0  0  0  0  0  0  0  0  0
    1.8121    2.0850    0.0000 C   0  0  0  0  0  0  0  0  0  0  0  0
    0.9871    1.2600    0.0000 C   0  0  0  0  0  0  0  0  0  0  0  0
    2.6371    1.2600    0.0000 O   0  0  0  0  0  0  0  0  0  0  0  0
   -0.3314   -0.8025    0.0000 N   0  0  0  0  0  0  0  0  0  0  0  0
   -1.0458    0.4350    0.0000 C   0  0  0  0  0  0  0  0  0  0  0  0
    1.8121    2.9100    0.0000 F   0  0  0  0  0  0  0  0  0  0  0  0
    0.9871    2.0850    0.0000 F   0  0  0  0  0  0  0  0  0  0  0  0
    2.6371    2.0850    0.0000 F   0  0  0  0  0  0  0  0  0  0  0  0
   -1.0458   -1.2150    0.0000 C   0  0  0  0  0  0  0  0  0  0  0  0
   -1.7603   -0.8025    0.0000 C   0  0  0  0  0  0  0  0  0  0  0  0
   -1.0458   -2.0400    0.0000 O   0  0  0  0  0  0  0  0  0  0  0  0
   -2.4748   -1.2150    0.0000 C   0  0  0  0  0  0  0  0  0  0  0  0
   -1.7603    0.0225    0.0000 C   0  0  0  0  0  0  0  0  0  0  0  0
   -3.1892   -0.8025    0.0000 C   0  0  0  0  0  0  0  0  0  0  0  0
   -2.4748    0.4350    0.0000 C   0  0  0  0  0  0  0  0  0  0  0  0
   -3.1892    0.0225    0.0000 C   0  0  0  0  0  0  0  0  0  0  0  0
   -3.9037    0.4350    0.0000 C   0  0  0  0  0  0  0  0  0  0  0  0
   -4.6182    0.8475    0.0000 N   0  0  0  0  0  0  0  0  0  0  0  0
  1  2  1  0
  1  3  1  0
  1  4  1  0
  2  6  2  0
  3  7  1  0
  3  8  1  1
  4  9  1  0
  5  2  1  0
  5 10  1  0
  5 11  1  1
  5 12  1  0
  7 13  1  0
  9 13  1  0
  9 14  1  6
 10 15  1  0
 10 16  1  0
 10 17  1  0
 13 18  1  0
 18 19  1  0
 18 20  2  0
 19 21  2  0
 19 22  1  0
 21 23  1  0
 22 24  2  0
 23 25  2  0
 24 25  1  0
 25 26  1  0
 26 27  3  0
M  END
>  <DRUGBANK_ID>  (1) 
DB08608

>  <COMMON_NAME>  (1) 
4-({(2R,5S)-2,5-DIMETHYL-4-[(2R)-3,3,3-TRIFLUORO-2-HYDROXY-2-METHYLPROPANOYL]PIPERAZIN-1-YL}CARBONYL)BENZONITRILE

$$$$
