
     RDKit          2D

  8  7  0  0  0  0  0  0  0  0999 V2000
    3.7125   -0.7145    0.0000 C   0  0  0  0  0  0  0  0  0  0  0  0
    2.8875   -0.7145    0.0000 S   0  0  0  0  0  0  0  0  0  0  0  0
    2.8875    0.1105    0.0000 O   0  0  0  0  0  0  0  0  0  0  0  0
    2.8875   -1.5395    0.0000 O   0  0  0  0  0  0  0  0  0  0  0  0
    2.0625   -0.7145    0.0000 C   0  0  0  0  0  0  0  0  0  0  0  0
    1.6500   -0.0000    0.0000 C   0  0  0  0  0  0  0  0  0  0  0  0
    0.8250    0.0000    0.0000 C   0  0  0  0  0  0  0  0  0  0  0  0
    0.0000    0.0000    0.0000 N   0  0  0  0  0  0  0  0  0  0  0  0
  1  2  1  0
  2  3  2  0
  2  4  2  0
  2  5  1  0
  5  6  1  0
  6  7  1  0
  7  8  3  0
M  END
>  <DRUGBANK_ID>  (1) 
DB16130

>  <COMMON_NAME>  (1) 
Dapansutrile

>  <CAS_NUMBER>  (1) 
54863-37-5

>  <UNII>  (1) 
2Z03364G96

>  <SYNONYMS>  (1) 
Dapansutrile

$$$$
