
     RDKit          2D

 13 12  0  0  0  0  0  0  0  0999 V2000
    1.0534    0.0000    0.0000 B   0  0  0  0  0  0  0  0  0  0  0  0
   -1.1024    0.0000    0.0000 B   0  0  0  0  0  0  0  0  0  0  0  0
   -0.0244   -1.0779    0.0000 B   0  0  0  0  0  0  0  0  0  0  0  0
   -0.0244    1.0779    0.0000 B   0  0  0  0  0  0  0  0  0  0  0  0
    1.8784    0.0000    0.0000 O   0  0  0  0  0  0  0  0  0  0  0  0
   -1.9274    0.0000    0.0000 O   0  0  0  0  0  0  0  0  0  0  0  0
    0.7377   -0.7622    0.0000 O   0  0  0  0  0  0  0  0  0  0  0  0
    0.7377    0.7622    0.0000 O   0  0  0  0  0  0  0  0  0  0  0  0
   -0.7866   -0.7622    0.0000 O   0  0  0  0  0  0  0  0  0  0  0  0
   -0.7866    0.7622    0.0000 O   0  0  0  0  0  0  0  0  0  0  0  0
    0.2449    0.0000    0.0000 O   0  0  0  0  0  0  0  0  0  0  0  0
    4.1177    0.0000    0.0000 Na  0  0  0  0  0 15  0  0  0  0  0  0
    0.0000   -2.7279    0.0000 Na  0  0  0  0  0 15  0  0  0  0  0  0
  5  1  1  0
  6  2  1  0
  7  1  1  0
  7  3  1  0
  8  1  1  0
  8  4  1  0
  9  2  1  0
  9  3  1  0
 10  2  1  0
 10  4  1  0
 11  3  1  0
 11  4  1  0
M  CHG  4   5  -1   6  -1  12   1  13   1
M  END
>  <DRUGBANK_ID>  (1) 
DB14505

>  <SECONDARY_ACCESSION_NUMBERS>  (1) 
DBSALT002513

>  <COMMON_NAME>  (1) 
Sodium borate

>  <CAS_NUMBER>  (1) 
1330-43-4

>  <UNII>  (1) 
8191EN8ZMD

>  <SYNONYMS>  (1) 
Borax; Sodium borate anhydrous

$$$$
