
     RDKit          2D

 23 25  0  0  0  0  0  0  0  0999 V2000
   -0.1900   -0.4380    0.0000 C   0  0  0  0  0  0  0  0  0  0  0  0
   -1.0181    1.0111    0.0000 C   0  0  0  0  0  0  0  0  0  0  0  0
   -0.1900    1.0111    0.0000 C   0  0  0  0  0  0  0  0  0  0  0  0
    0.2240    0.3071    0.0000 C   0  0  0  0  0  0  0  0  0  0  0  0
   -1.0181   -0.4380    0.0000 C   0  0  0  0  0  0  0  0  0  0  0  0
   -1.4321    0.3071    0.0000 C   0  0  0  0  0  0  0  0  0  0  0  0
   -1.4321    1.7150    0.0000 S   0  0  0  0  0  0  0  0  0  0  0  0
    0.2240   -1.1419    0.0000 C   0  0  0  0  0  0  0  0  0  0  0  0
    1.0521   -1.1419    0.0000 C   0  0  0  0  0  0  0  0  0  0  0  0
    1.3004   -1.9287    0.0000 C   0  0  0  0  0  0  0  0  0  0  0  0
    0.6380   -2.4255    0.0000 O   0  0  0  0  0  0  0  0  0  0  0  0
   -0.0244   -1.9287    0.0000 C   0  0  0  0  0  0  0  0  0  0  0  0
    1.5489   -0.4794    0.0000 O   0  0  0  0  0  0  0  0  0  0  0  0
    1.5489    0.9493    0.0000 C   0  0  0  0  0  0  0  0  0  0  0  0
    2.0871   -2.1771    0.0000 O   0  0  0  0  0  0  0  0  0  0  0  0
    1.5489    1.7628    0.0000 C   0  0  0  0  0  0  0  0  0  0  0  0
    2.2571    1.3497    0.0000 C   0  0  0  0  0  0  0  0  0  0  0  0
    1.1363    0.2349    0.0000 C   0  0  0  0  0  0  0  0  0  0  0  0
   -2.2571    1.7014    0.0000 C   0  0  0  0  0  0  0  0  0  0  0  0
   -1.4458    2.5397    0.0000 O   0  0  0  0  0  0  0  0  0  0  0  0
   -0.7246    2.1390    0.0000 O   0  0  0  0  0  0  0  0  0  0  0  0
   -0.5785   -2.5397    0.0000 C   0  0  0  0  0  0  0  0  0  0  0  0
   -0.8308   -1.7542    0.0000 C   0  0  0  0  0  0  0  0  0  0  0  0
  1  5  1  0
  1  8  1  0
  2  3  2  0
  2  6  1  0
  2  7  1  0
  3  4  1  0
  4  1  2  0
  5  6  2  0
  7 19  1  0
  7 20  2  0
  7 21  2  0
  8  9  2  0
  8 12  1  0
  9 10  1  0
  9 13  1  0
 10 11  1  0
 10 15  2  0
 11 12  1  0
 13 18  1  0
 14 16  1  0
 14 17  1  0
 16 17  1  0
 18 14  1  0
 22 12  1  0
 23 12  1  0
M  END
>  <DRUGBANK_ID>  (1) 
DB09217

>  <COMMON_NAME>  (1) 
Firocoxib

>  <CAS_NUMBER>  (1) 
189954-96-9

>  <UNII>  (1) 
Y6V2W4S4WT

>  <SYNONYMS>  (1) 
Firocoxib

$$$$
