HWG
     RDKit          2D

 29 31  0  0  0  0  0  0  0  0999 V2000
    1.7584   -2.7399    0.0000 C   0  0  0  0  0  0  0  0  0  0  0  0
    1.0439   -2.3274    0.0000 C   0  0  0  0  0  0  0  0  0  0  0  0
    1.0439   -1.5024    0.0000 C   0  0  0  0  0  0  0  0  0  0  0  0
    1.7584   -1.0899    0.0000 C   0  0  0  0  0  0  0  0  0  0  0  0
    2.4729   -1.5024    0.0000 C   0  0  0  0  0  0  0  0  0  0  0  0
    2.4729   -2.3274    0.0000 C   0  0  0  0  0  0  0  0  0  0  0  0
   -1.0995    2.2101    0.0000 C   0  0  0  0  0  0  0  0  0  0  0  0
   -1.8140    2.6226    0.0000 C   0  0  0  0  0  0  0  0  0  0  0  0
   -2.5284    2.2101    0.0000 C   0  0  0  0  0  0  0  0  0  0  0  0
   -2.5284    1.3851    0.0000 C   0  0  0  0  0  0  0  0  0  0  0  0
   -1.8140    0.9726    0.0000 C   0  0  0  0  0  0  0  0  0  0  0  0
   -1.0995    1.3851    0.0000 C   0  0  0  0  0  0  0  0  0  0  0  0
   -3.2429    2.6226    0.0000 O   0  0  0  0  0  0  0  0  0  0  0  0
   -3.9574    2.2101    0.0000 C   0  0  0  0  0  0  0  0  0  0  0  0
   -3.9574    1.3851    0.0000 C   0  0  0  0  0  0  0  0  0  0  0  0
   -3.2429    0.9726    0.0000 O   0  0  0  0  0  0  0  0  0  0  0  0
    1.7584   -3.5649    0.0000 C   0  0  0  0  0  0  0  0  0  0  0  0
    3.1873   -1.0899    0.0000 C   0  0  0  0  0  0  0  0  0  0  0  0
   -1.8140    0.1476    0.0000 C   0  0  0  0  0  0  0  0  0  0  0  0
    0.3294   -1.0899    0.0000 C   0  0  0  0  0  0  0  0  0  0  0  0
   -0.3850    0.9726    0.0000 C   0  0  0  0  0  0  0  0  0  0  0  0
    0.3294   -0.2649    0.0000 N   0  0  0  0  0  0  0  0  0  0  0  0
   -0.3850    0.1476    0.0000 N   0  0  0  0  0  0  0  0  0  0  0  0
   -0.3850   -1.5024    0.0000 O   0  0  0  0  0  0  0  0  0  0  0  0
    0.3294    1.3851    0.0000 O   0  0  0  0  0  0  0  0  0  0  0  0
    1.0439    0.1476    0.0000 C   0  0  0  0  0  0  0  0  0  0  0  0
    1.4564   -0.5668    0.0000 C   0  0  0  0  0  0  0  0  0  0  0  0
    0.6314    0.8621    0.0000 C   0  0  0  0  0  0  0  0  0  0  0  0
    1.7584    0.5601    0.0000 C   0  0  0  0  0  0  0  0  0  0  0  0
  1  2  2  0
  1  6  1  0
  1 17  1  0
  2  3  1  0
  3  4  2  0
  3 20  1  0
  4  5  1  0
  5  6  2  0
  5 18  1  0
  7  8  2  0
  7 12  1  0
  8  9  1  0
  9 10  2  0
  9 13  1  0
 10 11  1  0
 10 16  1  0
 11 12  2  0
 11 19  1  0
 12 21  1  0
 13 14  1  0
 14 15  1  0
 15 16  1  0
 20 22  1  0
 20 24  2  0
 21 23  1  0
 21 25  2  0
 22 23  1  0
 22 26  1  0
 26 27  1  0
 26 28  1  0
 26 29  1  0
M  END
>  <DRUGBANK_ID>  (1) 
DB07929

>  <COMMON_NAME>  (1) 
N-(TERT-BUTYL)-3,5-DIMETHYL-N'-[(5-METHYL-2,3-DIHYDRO-1,4-BENZODIOXIN-6-YL)CARBONYL]BENZOHYDRAZIDE

$$$$
