
     RDKit          2D

 33 36  0  0  1  0  0  0  0  0999 V2000
    6.3035    3.8680    0.0000 C   0  0  0  0  0  0  0  0  0  0  0  0
    6.6390    3.1143    0.0000 O   0  0  0  0  0  0  0  0  0  0  0  0
    6.1541    2.4469    0.0000 C   0  0  0  0  0  0  0  0  0  0  0  0
    6.4897    1.6932    0.0000 C   0  0  0  0  0  0  0  0  0  0  0  0
    6.0047    1.0257    0.0000 C   0  0  0  0  0  0  0  0  0  0  0  0
    6.3403    0.2721    0.0000 Cl  0  0  0  0  0  0  0  0  0  0  0  0
    5.1842    1.1120    0.0000 C   0  0  0  0  0  0  0  0  0  0  0  0
    4.8487    1.8657    0.0000 C   0  0  0  0  0  0  0  0  0  0  0  0
    5.3336    2.5331    0.0000 C   0  0  0  0  0  0  0  0  0  0  0  0
    4.9981    3.2868    0.0000 C   0  0  0  0  0  0  0  0  0  0  0  0
    4.6993    0.4445    0.0000 C   0  0  0  0  0  0  0  0  0  0  0  0
    4.9543   -0.3401    0.0000 N   0  0  0  0  0  0  0  0  0  0  0  0
    4.2868   -0.8250    0.0000 C   0  0  0  0  0  0  0  0  0  0  0  0
    3.6194   -0.3401    0.0000 S   0  0  0  0  0  0  0  0  0  0  0  0
    3.8743    0.4445    0.0000 C   0  0  0  0  0  0  0  0  0  0  0  0
    3.3894    1.1120    0.0000 C   0  0  0  0  0  0  0  0  0  0  0  0
    4.2868   -1.6500    0.0000 N   0  0  0  0  0  0  0  0  0  0  0  0
    3.5724   -2.0625    0.0000 C   0  0  0  0  0  0  0  0  0  0  0  0
    2.8579   -1.6500    0.0000 C   0  0  0  0  0  0  0  0  0  0  0  0
    2.1434   -1.2375    0.0000 C   0  0  0  0  0  0  0  0  0  0  0  0
    5.0013   -2.0625    0.0000 C   0  0  0  0  0  0  0  0  0  0  0  0
    5.7158   -1.6500    0.0000 C   0  0  0  0  0  0  0  0  0  0  0  0
    6.4302   -2.0625    0.0000 C   0  0  0  0  0  0  0  0  0  0  0  0
    7.2552   -2.0625    0.0000 C   0  0  0  0  0  0  0  0  0  0  0  0
    6.8427   -2.7770    0.0000 C   0  0  0  0  0  0  0  0  0  0  0  0
    5.0013   -2.8875    0.0000 C   0  0  0  0  0  0  0  0  0  0  0  0
    5.7158   -3.3000    0.0000 C   0  0  0  0  0  0  0  0  0  0  0  0
    5.7158   -4.1250    0.0000 C   0  0  0  0  0  0  0  0  0  0  0  0
    5.0013   -4.5375    0.0000 C   0  0  0  0  0  0  0  0  0  0  0  0
    5.0013   -5.3625    0.0000 C   0  0  0  0  0  0  0  0  0  0  0  0
    4.2868   -4.1250    0.0000 C   0  0  0  0  0  0  0  0  0  0  0  0
    3.5724   -4.5375    0.0000 F   0  0  0  0  0  0  0  0  0  0  0  0
    4.2868   -3.3000    0.0000 C   0  0  0  0  0  0  0  0  0  0  0  0
  1  2  1  0
  2  3  1  0
  3  4  2  0
  3  9  1  0
  4  5  1  0
  5  6  1  0
  5  7  2  0
  7  8  1  0
  7 11  1  0
  8  9  2  0
  9 10  1  0
 11 12  1  0
 11 15  2  0
 12 13  2  0
 13 14  1  0
 13 17  1  0
 14 15  1  0
 15 16  1  0
 17 18  1  0
 18 19  1  0
 19 20  3  0
 21 17  1  0
 21 22  1  1
 21 26  1  0
 22 23  1  0
 23 24  1  0
 23 25  1  0
 24 25  1  0
 26 27  2  0
 26 33  1  0
 27 28  1  0
 28 29  2  0
 29 30  1  0
 29 31  1  0
 31 32  1  0
 31 33  2  0
M  END
>  <DRUGBANK_ID>  (1) 
DB18518

>  <COMMON_NAME>  (1) 
Crinecerfont

>  <CAS_NUMBER>  (1) 
752253-39-7

>  <UNII>  (1) 
MFT24BX55I

$$$$
