SDT
     RDKit          2D

 23 25  0  0  0  0  0  0  0  0999 V2000
   -1.7851    2.7660    0.0000 O   0  0  0  0  0  0  0  0  0  0  0  0
   -1.5301    1.9814    0.0000 C   0  0  0  0  0  0  0  0  0  0  0  0
   -2.0151    1.3140    0.0000 C   0  0  0  0  0  0  0  0  0  0  0  0
   -1.5301    0.6465    0.0000 C   0  0  0  0  0  0  0  0  0  0  0  0
   -0.7455    0.9015    0.0000 C   0  0  0  0  0  0  0  0  0  0  0  0
   -0.7455    1.7265    0.0000 C   0  0  0  0  0  0  0  0  0  0  0  0
   -0.8317    2.5469    0.0000 C   0  0  0  0  0  0  0  0  0  0  0  0
   -0.0310    2.1390    0.0000 C   0  0  0  0  0  0  0  0  0  0  0  0
    0.6834    1.7265    0.0000 C   0  0  0  0  0  0  0  0  0  0  0  0
   -0.0310    0.4890    0.0000 C   0  0  0  0  0  0  0  0  0  0  0  0
    0.6834    0.9015    0.0000 C   0  0  0  0  0  0  0  0  0  0  0  0
    1.3979    0.4890    0.0000 O   0  0  0  0  0  0  0  0  0  0  0  0
   -0.0310   -0.3360    0.0000 C   0  0  0  0  0  0  0  0  0  0  0  0
    0.6834   -0.7485    0.0000 C   0  0  0  0  0  0  0  0  0  0  0  0
    0.6834   -1.5735    0.0000 C   0  0  0  0  0  0  0  0  0  0  0  0
    1.3979   -1.9860    0.0000 C   0  0  0  0  0  0  0  0  0  0  0  0
    2.1124   -1.5735    0.0000 O   0  0  0  0  0  0  0  0  0  0  0  0
    1.3979   -2.8110    0.0000 C   0  0  0  0  0  0  0  0  0  0  0  0
    2.1124   -3.2235    0.0000 O   0  0  0  0  0  0  0  0  0  0  0  0
    0.6834   -3.2235    0.0000 C   0  0  0  0  0  0  0  0  0  0  0  0
   -0.0310   -2.8110    0.0000 C   0  0  0  0  0  0  0  0  0  0  0  0
   -0.0310   -1.9860    0.0000 C   0  0  0  0  0  0  0  0  0  0  0  0
   -0.7455   -1.5735    0.0000 C   0  0  0  0  0  0  0  0  0  0  0  0
  1  2  2  0
  2  3  1  0
  2  6  1  0
  3  4  1  0
  5  4  1  6
  5  6  1  0
  5 10  1  0
  6  7  1  6
  6  8  1  0
  8  9  1  0
  9 11  1  0
 10 11  1  0
 10 13  1  1
 11 12  2  0
 13 14  1  0
 14 15  1  0
 15 16  2  0
 15 22  1  0
 16 17  1  0
 16 18  1  0
 18 19  1  0
 18 20  2  0
 20 21  1  0
 21 22  2  0
 22 23  1  0
M  END
>  <DRUGBANK_ID>  (1) 
DB08542

>  <COMMON_NAME>  (1) 
3,4-dihydroxy-9,10-secoandrosta-1(10),2,4-triene-9,17-dione

$$$$
