
     RDKit          2D

 21 21  0  0  0  0  0  0  0  0999 V2000
   -1.5365    1.0272    0.0000 C   0  0  0  0  0  0  0  0  0  0  0  0
   -0.7115    1.0272    0.0000 C   0  0  0  0  0  0  0  0  0  0  0  0
   -0.4548    1.8113    0.0000 C   0  0  0  0  0  0  0  0  0  0  0  0
   -1.1240    2.2980    0.0000 N   0  0  0  0  0  0  0  0  0  0  0  0
   -1.7890    1.8113    0.0000 C   0  0  0  0  0  0  0  0  0  0  0  0
    0.2550    2.2272    0.0000 C   0  0  0  0  0  0  0  0  0  0  0  0
    0.9675    1.8147    0.0000 O   0  0  0  0  0  0  0  0  0  0  0  0
    0.2529    3.0521    0.0000 O   0  0  0  0  0  0  0  0  0  0  0  0
   -2.5737    2.0659    0.0000 O   0  0  0  0  0  0  0  0  0  0  0  0
    0.4286   -0.5814    0.0000 C   0  0  0  0  0  0  0  0  0  0  0  0
    0.4274   -1.4087    0.0000 C   0  0  0  0  0  0  0  0  0  0  0  0
    1.1423   -1.8214    0.0000 C   0  0  0  0  0  0  0  0  0  0  0  0
    1.8586   -1.4082    0.0000 C   0  0  0  0  0  0  0  0  0  0  0  0
    1.8557   -0.5777    0.0000 C   0  0  0  0  0  0  0  0  0  0  0  0
    1.1405   -0.1686    0.0000 N   0  0  0  0  0  0  0  0  0  0  0  0
    2.5687   -0.1626    0.0000 C   0  0  0  0  0  0  0  0  0  0  0  0
    2.5737   -1.8196    0.0000 O   0  0  0  0  0  0  0  0  0  0  0  0
    1.1384   -2.6397    0.0000 C   0  0  0  0  0  0  0  0  0  0  0  0
    1.8508   -3.0521    0.0000 O   0  0  0  0  0  0  0  0  0  0  0  0
   -0.2865   -1.8147    0.0000 C   0  0  0  0  0  0  0  0  0  0  0  0
   -0.2865   -2.6355    0.0000 O   0  0  0  0  0  0  0  0  0  0  0  0
  1  2  1  0
  2  3  1  0
  3  6  1  6
  3  4  1  0
  4  5  1  0
  5  1  1  0
  5  9  2  0
  6  7  1  0
  6  8  2  0
 10 11  2  0
 11 12  1  0
 11 20  1  0
 12 13  2  0
 12 18  1  0
 13 14  1  0
 13 17  1  0
 14 15  2  0
 14 16  1  0
 15 10  1  0
 18 19  1  0
 20 21  1  0
M  END
>  <DRUGBANK_ID>  (1) 
DB16554

>  <COMMON_NAME>  (1) 
Metadoxine

>  <CAS_NUMBER>  (1) 
74536-44-0

>  <UNII>  (1) 
EJQ7M98H5J

>  <SYNONYMS>  (1) 
Pyridoxine mixture with Pyrrolidonecarboxylic Acid; Pyridoxine pyroglutamate

$$$$
