AE4
     RDKit          2D

 18 17  0  0  0  0  0  0  0  0999 V2000
   -6.0308   -0.2063    0.0000 C   0  0  0  0  0  0  0  0  0  0  0  0
   -5.3163    0.2062    0.0000 C   0  0  0  0  0  0  0  0  0  0  0  0
   -4.6017   -0.2063    0.0000 O   0  0  0  0  0  0  0  0  0  0  0  0
   -3.8872    0.2062    0.0000 C   0  0  0  0  0  0  0  0  0  0  0  0
   -3.1727   -0.2063    0.0000 C   0  0  0  0  0  0  0  0  0  0  0  0
   -2.4582    0.2062    0.0000 O   0  0  0  0  0  0  0  0  0  0  0  0
   -1.7436   -0.2063    0.0000 C   0  0  0  0  0  0  0  0  0  0  0  0
   -1.0292    0.2062    0.0000 C   0  0  0  0  0  0  0  0  0  0  0  0
    0.3999    0.2062    0.0000 C   0  0  0  0  0  0  0  0  0  0  0  0
   -0.3146   -0.2063    0.0000 O   0  0  0  0  0  0  0  0  0  0  0  0
    1.1145   -0.2063    0.0000 C   0  0  0  0  0  0  0  0  0  0  0  0
    1.8289    0.2062    0.0000 O   0  0  0  0  0  0  0  0  0  0  0  0
    2.5435   -0.2063    0.0000 C   0  0  0  0  0  0  0  0  0  0  0  0
    3.2580    0.2062    0.0000 C   0  0  0  0  0  0  0  0  0  0  0  0
    3.9725   -0.2063    0.0000 O   0  0  0  0  0  0  0  0  0  0  0  0
    4.6870    0.2062    0.0000 C   0  0  0  0  0  0  0  0  0  0  0  0
    5.4016   -0.2063    0.0000 C   0  0  0  0  0  0  0  0  0  0  0  0
    6.1162    0.2062    0.0000 O   0  0  0  0  0  0  0  0  0  0  0  0
  1  2  1  0
  2  3  1  0
  3  4  1  0
  4  5  1  0
  5  6  1  0
  6  7  1  0
  7  8  1  0
  8 10  1  0
  9 10  1  0
  9 11  1  0
 11 12  1  0
 12 13  1  0
 13 14  1  0
 14 15  1  0
 15 16  1  0
 16 17  1  0
 17 18  1  0
M  END
>  <DRUGBANK_ID>  (1) 
DB07344

>  <COMMON_NAME>  (1) 
3,6,9,12,15-PENTAOXAHEPTADECAN-1-OL

>  <UNII>  (1) 
AV4Y6WN88C

$$$$
