3516
     RDKit          2D

 10 10  0  0  0  0  0  0  0  0999 V2000
    2.8075   -0.9034    0.0000 O   0  0  0  0  0  0  0  0  0  0  0  0
    5.6655   -0.9034    0.0000 O   0  0  0  0  0  0  0  0  0  0  0  0
    4.2365   -0.9034    0.0000 N   0  0  0  0  0  0  0  0  0  0  0  0
    4.9509    0.3341    0.0000 N   0  0  0  0  0  0  0  0  0  0  0  0
    3.5220    0.3341    0.0000 C   0  0  0  0  0  0  0  0  0  0  0  0
    3.5220   -0.4909    0.0000 C   0  0  0  0  0  0  0  0  0  0  0  0
    4.2365    0.7466    0.0000 C   0  0  0  0  0  0  0  0  0  0  0  0
    4.9509   -0.4909    0.0000 C   0  0  0  0  0  0  0  0  0  0  0  0
    2.8075    0.7466    0.0000 C   0  0  0  0  0  0  0  0  0  0  0  0
    2.0930    1.1592    0.0000 C   0  0  0  0  0  0  0  0  0  0  0  0
  1  6  2  0
  2  8  2  0
  3  6  1  0
  3  8  1  0
  4  7  1  0
  4  8  1  0
  5  6  1  0
  5  7  2  0
  5  9  1  0
  9 10  3  0
M  END
>  <DRUGBANK_ID>  (1) 
DB03516

>  <SECONDARY_ACCESSION_NUMBERS>  (1) 
EXPT03299

>  <COMMON_NAME>  (1) 
Eniluracil

>  <CAS_NUMBER>  (1) 
59989-18-3

>  <UNII>  (1) 
2E2W0W5XIU

>  <SYNONYMS>  (1) 
5-Ethynyluracil; Eniluracil

$$$$
