744
     RDKit          2D

 23 25  0  0  0  0  0  0  0  0999 V2000
    3.9728    1.3681    0.0000 C   0  0  0  0  0  0  0  0  0  0  0  0
    3.4879    2.0355    0.0000 C   0  0  0  0  0  0  0  0  0  0  0  0
    2.6674    1.9493    0.0000 C   0  0  0  0  0  0  0  0  0  0  0  0
    2.3319    1.1956    0.0000 C   0  0  0  0  0  0  0  0  0  0  0  0
    2.8168    0.5281    0.0000 C   0  0  0  0  0  0  0  0  0  0  0  0
    3.6373    0.6144    0.0000 C   0  0  0  0  0  0  0  0  0  0  0  0
    2.4375    3.4013    0.0000 C   0  0  0  0  0  0  0  0  0  0  0  0
    1.7700    3.8862    0.0000 C   0  0  0  0  0  0  0  0  0  0  0  0
    1.1026    3.4013    0.0000 C   0  0  0  0  0  0  0  0  0  0  0  0
    1.3575    2.6167    0.0000 C   0  0  0  0  0  0  0  0  0  0  0  0
    2.1825    2.6167    0.0000 N   0  0  0  0  0  0  0  0  0  0  0  0
    0.3180    3.6563    0.0000 C   0  0  0  0  0  0  0  0  0  0  0  0
   -0.2951    3.1042    0.0000 N   0  0  0  0  0  0  0  0  0  0  0  0
    0.1464    4.4632    0.0000 O   0  0  0  0  0  0  0  0  0  0  0  0
    3.2221    3.6563    0.0000 O   0  0  0  0  0  0  0  0  0  0  0  0
   -1.0798    3.3592    0.0000 C   0  0  0  0  0  0  0  0  0  0  0  0
   -1.6929    2.8071    0.0000 C   0  0  0  0  0  0  0  0  0  0  0  0
   -1.5213    2.0002    0.0000 C   0  0  0  0  0  0  0  0  0  0  0  0
   -2.4775    3.0621    0.0000 C   0  0  0  0  0  0  0  0  0  0  0  0
   -2.6490    3.8690    0.0000 C   0  0  0  0  0  0  0  0  0  0  0  0
   -2.0359    4.4211    0.0000 C   0  0  0  0  0  0  0  0  0  0  0  0
   -2.2074    5.2280    0.0000 Cl  0  0  0  0  0  0  0  0  0  0  0  0
   -1.2513    4.1661    0.0000 C   0  0  0  0  0  0  0  0  0  0  0  0
  1  6  1  0
  1  2  1  0
  2  3  1  0
  3 11  1  0
  3  4  1  0
  4  5  1  0
  5  6  1  0
  7 11  1  0
  7 15  2  0
  7  8  1  0
  8  9  1  0
  9 12  1  1
  9 10  1  0
 10 11  1  0
 12 13  1  0
 12 14  2  0
 13 16  1  0
 16 17  2  0
 16 23  1  0
 17 19  1  0
 17 18  1  0
 19 20  2  0
 20 21  1  0
 21 22  1  0
 21 23  2  0
M  END
>  <DRUGBANK_ID>  (1) 
DB07222

>  <COMMON_NAME>  (1) 
(3S)-N-(5-CHLORO-2-METHYLPHENYL)-1-CYCLOHEXYL-5-OXOPYRROLIDINE-3-CARBOXAMIDE

$$$$
