
     RDKit          2D

 16 16  0  0  0  0  0  0  0  0999 V2000
   -1.8016    1.0400    0.0000 C   0  0  0  0  0  0  0  0  0  0  0  0
   -1.0772    0.6128    0.0000 C   0  0  0  0  0  0  0  0  0  0  0  0
   -0.3714    1.0400    0.0000 C   0  0  0  0  0  0  0  0  0  0  0  0
    0.3529    0.6128    0.0000 C   0  0  0  0  0  0  0  0  0  0  0  0
    1.0586    1.0400    0.0000 C   0  0  0  0  0  0  0  0  0  0  0  0
    1.7830    0.6128    0.0000 C   0  0  0  0  0  0  0  0  0  0  0  0
   -1.8016    1.8573    0.0000 O   0  0  0  0  0  0  0  0  0  0  0  0
   -2.5073    0.6128    0.0000 O   0  0  0  0  0  0  0  0  0  0  0  0
   -1.0772   -0.2043    0.0000 O   0  0  0  0  0  0  0  0  0  0  0  0
    2.5073    1.0400    0.0000 O   0  0  0  0  0  0  0  0  0  0  0  0
    1.0772   -1.4487    0.0000 C   0  0  0  0  0  0  0  0  0  0  0  0
    1.7830   -1.8573    0.0000 C   0  0  0  0  0  0  0  0  0  0  0  0
    2.5073   -1.4487    0.0000 C   0  0  0  0  0  0  0  0  0  0  0  0
    2.5073   -0.6315    0.0000 C   0  0  0  0  0  0  0  0  0  0  0  0
    1.7830   -0.2043    0.0000 C   0  0  0  0  0  0  0  0  0  0  0  0
    1.0772   -0.6315    0.0000 C   0  0  0  0  0  0  0  0  0  0  0  0
  1  2  1  0
  1  8  1  0
  1  7  2  0
  2  3  2  0
  2  9  1  0
  3  4  1  0
  4  5  2  0
  5  6  1  0
  6 10  2  0
  6 15  1  0
 11 16  2  0
 11 12  1  0
 12 13  2  0
 13 14  1  0
 14 15  2  0
 15 16  1  0
M  END
>  <DRUGBANK_ID>  (1) 
DB07914

>  <COMMON_NAME>  (1) 
2-hydroxy-6-oxo-6-phenyl-2,4-hexadienoic acid

>  <CAS_NUMBER>  (1) 
50480-67-6

$$$$
