
     RDKit          2D

 38 41  0  0  1  0  0  0  0  0999 V2000
    1.0360   -4.1481    0.0000 C   0  0  0  0  0  0  0  0  0  0  0  0
    0.9773   -3.3252    0.0000 C   0  0  0  0  0  0  0  0  0  0  0  0
    1.6085   -2.7940    0.0000 N   0  0  0  0  0  0  0  0  0  0  0  0
    1.2984   -2.0295    0.0000 C   0  0  0  0  0  0  0  0  0  0  0  0
    1.6590   -1.2875    0.0000 C   0  0  0  0  0  0  0  0  0  0  0  0
    1.1967   -0.6042    0.0000 C   0  0  0  0  0  0  0  0  0  0  0  0
    0.3738   -0.6629    0.0000 C   0  0  0  0  0  0  0  0  0  0  0  0
    0.0132   -1.4049    0.0000 C   0  0  0  0  0  0  0  0  0  0  0  0
    0.4755   -2.0882    0.0000 C   0  0  0  0  0  0  0  0  0  0  0  0
    0.2770   -2.8890    0.0000 S   0  0  0  0  0  0  0  0  0  0  0  0
    1.5573    0.1378    0.0000 C   0  0  0  0  0  0  0  0  0  0  0  0
    0.7344    0.0791    0.0000 C   0  0  0  0  0  0  0  0  0  0  0  0
    0.2721    0.7624    0.0000 C   0  0  0  0  0  3  0  0  0  0  0  0
    0.6327    1.5044    0.0000 C   0  0  0  0  0  0  0  0  0  0  0  0
   -0.1902    1.4457    0.0000 O   0  0  0  0  0  0  0  0  0  0  0  0
    1.4556    1.5631    0.0000 C   0  0  0  0  0  0  0  0  0  0  0  0
    1.8162    2.3052    0.0000 C   0  0  0  0  0  0  0  0  0  0  0  0
    2.6391    2.3639    0.0000 C   0  0  0  0  0  0  0  0  0  0  0  0
    2.9997    3.1059    0.0000 C   0  0  0  0  0  0  0  0  0  0  0  0
    3.8226    3.1646    0.0000 C   0  0  0  0  0  0  0  0  0  0  0  0
    4.2849    2.4813    0.0000 C   0  0  0  0  0  0  0  0  0  0  0  0
    3.9243    1.7393    0.0000 C   0  0  0  0  0  0  0  0  0  0  0  0
    3.1014    1.6806    0.0000 O   0  0  0  0  0  0  0  0  0  0  0  0
    4.3866    1.0560    0.0000 C   0  0  0  0  0  0  0  0  0  0  0  0
    4.0260    0.3140    0.0000 C   0  0  0  0  0  0  0  0  0  0  0  0
    3.2031    0.2553    0.0000 C   0  0  0  0  0  0  0  0  0  0  0  0
    2.8425   -0.4868    0.0000 C   0  0  0  0  0  0  0  0  0  0  0  0
    3.3048   -1.1701    0.0000 O   0  0  0  0  0  0  0  0  0  0  0  0
    2.0196   -0.5455    0.0000 O   0  0  0  0  0  0  0  0  0  0  0  0
    4.4883   -0.3693    0.0000 O   0  0  0  0  0  0  0  0  0  0  0  0
    5.0856    1.4942    0.0000 C   0  0  0  0  0  0  0  0  0  0  0  0
    5.1407    0.7215    0.0000 C   0  0  0  0  0  0  0  0  0  0  0  0
    5.1078    2.5400    0.0000 C   0  0  0  0  0  0  0  0  0  0  0  0
    5.5701    1.8567    0.0000 C   0  0  0  0  0  0  0  0  0  0  0  0
    6.3930    1.9155    0.0000 C   0  0  0  0  0  0  0  0  0  0  0  0
    4.1832    3.9066    0.0000 O   0  0  0  0  0  0  0  0  0  0  0  0
    2.5374    3.7892    0.0000 C   0  0  0  0  0  0  0  0  0  0  0  0
    0.5739    2.3273    0.0000 C   0  0  0  0  0  0  0  0  0  0  0  0
  1  2  1  0
  2  3  2  0
  2 10  1  0
  3  4  1  0
  4  5  2  0
  4  9  1  0
  5  6  1  0
  6  7  2  0
  7  8  1  0
  8  9  2  0
  9 10  1  0
 11  6  1  1
 11 12  1  0
 11 29  1  0
 12 13  1  0
 13 14  1  0
 13 15  1  0
 14 15  1  0
 14 16  1  0
 14 38  1  1
 16 17  1  0
 17 18  1  0
 18 19  1  0
 19 20  1  0
 19 37  1  6
 20 21  1  0
 20 36  1  6
 21 22  1  0
 21 33  1  1
 22 23  2  0
 22 24  1  0
 24 25  1  0
 24 31  1  0
 24 32  1  0
 25 26  1  0
 25 30  1  1
 26 27  1  0
 27 28  2  0
 27 29  1  0
 33 34  1  0
 34 35  2  0
M  RAD  1  13   2
M  END
>  <DRUGBANK_ID>  (1) 
DB12391

>  <SECONDARY_ACCESSION_NUMBERS>  (1) 
DB05654

>  <COMMON_NAME>  (1) 
Sagopilone

>  <CAS_NUMBER>  (1) 
305841-29-6

>  <UNII>  (1) 
KY72JU32FO

>  <SYNONYMS>  (1) 
Sagopilone

$$$$
