SBB
     RDKit          2D

 26 28  0  0  0  0  0  0  0  0999 V2000
   -2.4211    0.7752    0.0000 C   0  0  0  0  0  0  0  0  0  0  0  0
   -2.8336    1.4897    0.0000 C   0  0  0  0  0  0  0  0  0  0  0  0
   -2.4211    2.2041    0.0000 C   0  0  0  0  0  0  0  0  0  0  0  0
   -1.5961    2.2041    0.0000 C   0  0  0  0  0  0  0  0  0  0  0  0
   -1.1836    1.4897    0.0000 C   0  0  0  0  0  0  0  0  0  0  0  0
   -1.5961    0.7752    0.0000 C   0  0  0  0  0  0  0  0  0  0  0  0
   -1.1836    0.0607    0.0000 C   0  0  0  0  0  0  0  0  0  0  0  0
   -1.5961   -0.6537    0.0000 O   0  0  0  0  0  0  0  0  0  0  0  0
   -0.3586    0.0607    0.0000 N   0  0  0  0  0  0  0  0  0  0  0  0
    0.0539   -0.6537    0.0000 C   0  0  0  0  0  0  0  0  0  0  0  0
    0.8789   -0.6537    0.0000 C   0  0  0  0  0  0  0  0  0  0  0  0
    1.2914    0.0607    0.0000 C   0  0  0  0  0  0  0  0  0  0  0  0
    2.1164    0.0607    0.0000 C   0  0  0  0  0  0  0  0  0  0  0  0
   -2.8336    2.9186    0.0000 S   0  0  0  0  0  0  0  0  0  0  0  0
   -3.2461    3.6331    0.0000 N   0  0  0  0  0  0  0  0  0  0  0  0
   -3.5481    2.5061    0.0000 O   0  0  0  0  0  0  0  0  0  0  0  0
   -2.1191    3.3311    0.0000 O   0  0  0  0  0  0  0  0  0  0  0  0
    3.3359   -2.2542    0.0000 C   0  0  0  0  0  0  0  0  0  0  0  0
    3.4221   -3.0747    0.0000 C   0  0  0  0  0  0  0  0  0  0  0  0
    2.5289   -2.0827    0.0000 C   0  0  0  0  0  0  0  0  0  0  0  0
    2.6685   -3.4102    0.0000 N   0  0  0  0  0  0  0  0  0  0  0  0
    2.1164   -2.7972    0.0000 C   0  0  0  0  0  0  0  0  0  0  0  0
    2.1164   -1.3682    0.0000 C   0  0  0  0  0  0  0  0  0  0  0  0
    1.2914   -2.7972    0.0000 C   0  0  0  0  0  0  0  0  0  0  0  0
    1.2914   -1.3682    0.0000 C   0  0  0  0  0  0  0  0  0  0  0  0
    0.8789   -2.0827    0.0000 C   0  0  0  0  0  0  0  0  0  0  0  0
  1  2  2  0
  1  6  1  0
  2  3  1  0
  3  4  2  0
  3 14  1  0
  4  5  1  0
  5  6  2  0
  6  7  1  0
  7  8  2  0
  7  9  1  0
  9 10  1  0
 11 10  1  1
 11 12  1  0
 11 25  1  0
 12 13  1  0
 14 15  1  0
 14 16  2  0
 14 17  2  0
 18 19  2  0
 18 20  1  0
 19 21  1  0
 20 22  2  0
 20 23  1  0
 21 22  1  0
 22 24  1  0
 23 25  2  0
 24 26  2  0
 25 26  1  0
M  END
>  <DRUGBANK_ID>  (1) 
DB03596

>  <SECONDARY_ACCESSION_NUMBERS>  (1) 
EXPT02851

>  <COMMON_NAME>  (1) 
N-[2-(1h-Indol-5-Yl)-Butyl]-4-Sulfamoyl-Benzamide

$$$$
