
     RDKit          2D

 20 22  0  0  0  0  0  0  0  0999 V2000
    0.8073    2.5225    0.0000 S   0  0  0  0  0  0  0  0  0  0  0  0
    1.9571   -0.4420    0.0000 O   0  0  0  0  0  0  0  0  0  0  0  0
    1.9603    1.3528    0.0000 O   0  0  0  0  0  0  0  0  0  0  0  0
   -1.2458   -3.3075    0.0000 O   0  0  0  0  0  0  0  0  0  0  0  0
    0.0217    0.4587    0.0000 N   0  0  0  0  0  0  0  0  0  0  0  0
    0.2492   -2.3215    0.0000 N   0  0  0  0  0  0  0  0  0  0  0  0
   -1.2458   -0.8325    0.0000 N   0  0  0  0  0  0  0  0  0  0  0  0
   -1.9603   -2.0700    0.0000 N   0  0  0  0  0  0  0  0  0  0  0  0
    0.5055   -0.2095    0.0000 C   0  0  0  0  0  0  0  0  0  0  0  0
    0.5078    1.1253    0.0000 C   0  0  0  0  0  0  0  0  0  0  0  0
    1.2905    0.0440    0.0000 C   0  0  0  0  0  0  0  0  0  0  0  0
    1.2920    0.8690    0.0000 C   0  0  0  0  0  0  0  0  0  0  0  0
    0.2492   -0.9937    0.0000 C   0  0  0  0  0  0  0  0  0  0  0  0
    0.2543    1.9103    0.0000 C   0  0  0  0  0  0  0  0  0  0  0  0
   -0.5313   -1.2450    0.0000 C   0  0  0  0  0  0  0  0  0  0  0  0
    0.7307   -1.6575    0.0000 C   0  0  0  0  0  0  0  0  0  0  0  0
   -0.5313   -2.0700    0.0000 C   0  0  0  0  0  0  0  0  0  0  0  0
   -1.2458   -2.4825    0.0000 C   0  0  0  0  0  0  0  0  0  0  0  0
    0.5537    3.3075    0.0000 C   0  0  0  0  0  0  0  0  0  0  0  0
   -1.9603   -1.2450    0.0000 C   0  0  0  0  0  0  0  0  0  0  0  0
  1 14  1  0
  1 19  1  0
  4 18  2  0
  5  9  1  0
  5 10  1  0
  6 16  1  0
  6 17  1  0
  7 15  1  0
  7 20  1  0
  8 18  1  0
  8 20  2  0
  9 11  1  0
  9 13  1  6
 10 12  1  0
 10 14  1  6
 11  2  1  1
 11 12  1  0
 12  3  1  1
 13 15  1  0
 13 16  2  0
 15 17  2  0
 17 18  1  0
M  CHG  1   5   1
M  END
>  <DRUGBANK_ID>  (1) 
DB03881

>  <SECONDARY_ACCESSION_NUMBERS>  (1) 
EXPT02245

>  <COMMON_NAME>  (1) 
(2S,3R,4S,5S)-3,4-Dihydroxy-2-[(methylsulfanyl)methyl]-5-(4-oxo-4,5-dihydro-1H-pyrrolo[3,2-d]pyrimidin-7-yl)pyrrolidinium

$$$$
