
     RDKit          2D

 12 12  0  0  0  0  0  0  0  0999 V2000
   -1.4289    0.0000    0.0000 C   0  0  0  0  0  0  0  0  0  0  0  0
   -2.1434   -0.4125    0.0000 O   0  0  0  0  0  0  0  0  0  0  0  0
   -1.4289    0.8249    0.0000 C   0  0  0  0  0  0  0  0  0  0  0  0
   -0.7144    1.2375    0.0000 C   0  0  0  0  0  0  0  0  0  0  0  0
    0.0000    0.8249    0.0000 C   0  0  0  0  0  0  0  0  0  0  0  0
    0.0000    0.0000    0.0000 C   0  0  0  0  0  0  0  0  0  0  0  0
    0.7144   -0.4125    0.0000 C   0  0  0  0  0  0  0  0  0  0  0  0
    1.4289    0.0000    0.0000 N   0  0  0  0  0  0  0  0  0  0  0  0
    2.1434   -0.4125    0.0000 C   0  0  0  0  0  0  0  0  0  0  0  0
    1.4289    0.8249    0.0000 C   0  0  0  0  0  0  0  0  0  0  0  0
    0.7144   -1.2375    0.0000 C   0  0  0  0  0  0  0  0  0  0  0  0
   -0.7144   -0.4125    0.0000 C   0  0  0  0  0  0  0  0  0  0  0  0
  1  2  1  0
  1  3  2  0
  1 12  1  0
  4  3  1  0
  5  4  2  0
  6  5  1  0
  6  7  1  0
  7  8  1  0
  7 11  1  1
  8  9  1  0
  8 10  1  0
 12  6  2  0
M  END
>  <DRUGBANK_ID>  (1) 
DB04556

>  <SECONDARY_ACCESSION_NUMBERS>  (1) 
EXPT02841

>  <COMMON_NAME>  (1) 
NAP-226-90

>  <CAS_NUMBER>  (1) 
139306-10-8

>  <UNII>  (1) 
1608PLR9ZO

>  <SYNONYMS>  (1) 
(-)-3-((1S)-1-(Dimethylamino)ethyl)phenol; 3-((1S)-1-(Dimethylamino)ethyl)phenol

$$$$
