
     RDKit          2D

 26 29  0  0  0  0  0  0  0  0999 V2000
   -2.5345   -1.4401    0.0000 N   0  0  0  0  0  0  0  0  0  0  0  0
   -2.5345   -2.2658    0.0000 C   0  0  0  0  0  0  0  0  0  0  0  0
   -1.8220   -2.6744    0.0000 N   0  0  0  0  0  0  0  0  0  0  0  0
   -1.1095   -2.2658    0.0000 C   0  0  0  0  0  0  0  0  0  0  0  0
   -1.1095   -1.4401    0.0000 C   0  0  0  0  0  0  0  0  0  0  0  0
   -1.8220   -1.0231    0.0000 C   0  0  0  0  0  0  0  0  0  0  0  0
   -0.3901   -1.0287    0.0000 C   0  0  0  0  0  0  0  0  0  0  0  0
    1.0442   -0.2127    0.0000 N   0  0  0  0  0  0  0  0  0  0  0  0
    0.3305    0.2043    0.0000 C   0  0  0  0  0  0  0  0  0  0  0  0
   -0.3896   -0.2044    0.0000 N   0  0  0  0  0  0  0  0  0  0  0  0
    1.0374   -1.0386    0.0000 C   0  0  0  0  0  0  0  0  0  0  0  0
    0.3196   -1.4445    0.0000 C   0  0  0  0  0  0  0  0  0  0  0  0
    0.4838   -2.2528    0.0000 C   0  0  0  0  0  0  0  0  0  0  0  0
    1.3033   -2.3463    0.0000 C   0  0  0  0  0  0  0  0  0  0  0  0
    1.6454   -1.5959    0.0000 N   0  0  0  0  0  0  0  0  0  0  0  0
    0.3382    1.0295    0.0000 N   0  0  0  0  0  0  0  0  0  0  0  0
    1.0576    1.4365    0.0000 C   0  0  0  0  0  0  0  0  0  0  0  0
    1.0648    2.2585    0.0000 C   0  0  0  0  0  0  0  0  0  0  0  0
    0.3542    2.6796    0.0000 O   0  0  0  0  0  0  0  0  0  0  0  0
   -0.3652    2.2727    0.0000 C   0  0  0  0  0  0  0  0  0  0  0  0
   -0.3740    1.4444    0.0000 C   0  0  0  0  0  0  0  0  0  0  0  0
   -3.2490   -2.6796    0.0000 N   0  0  0  0  0  0  0  0  0  0  0  0
    2.4544   -1.4315    0.0000 S   0  0  0  0  0  0  0  0  0  0  0  0
    2.4483   -0.6020    0.0000 O   0  0  0  0  0  0  0  0  0  0  0  0
    3.2490   -1.2107    0.0000 O   0  0  0  0  0  0  0  0  0  0  0  0
    2.6652   -2.2240    0.0000 C   0  0  0  0  0  0  0  0  0  0  0  0
  1  2  2  0
  1  6  1  0
  2  3  1  0
  2 22  1  0
  3  4  2  0
  4  5  1  0
  5  6  2  0
  5  7  1  0
  7 12  1  0
  7 10  2  0
  8  9  2  0
  9 16  1  0
  9 10  1  0
 11  8  1  0
 11 12  2  0
 12 13  1  0
 13 14  1  0
 14 15  1  0
 15 11  1  0
 15 23  1  0
 16 17  1  0
 16 21  1  0
 17 18  1  0
 18 19  1  0
 19 20  1  0
 20 21  1  0
 23 24  2  0
 23 25  2  0
 23 26  1  0
M  END
>  <DRUGBANK_ID>  (1) 
DB13051

>  <COMMON_NAME>  (1) 
CH-5132799

>  <CAS_NUMBER>  (1) 
1007207-67-1

>  <UNII>  (1) 
JCL936W835

$$$$
