
     RDKit          2D

 26 28  0  0  0  0  0  0  0  0999 V2000
   -3.5666    0.6274    0.0000 C   0  0  0  0  0  0  0  0  0  0  0  0
   -2.8526    1.0408    0.0000 C   0  0  0  0  0  0  0  0  0  0  0  0
   -2.1386    0.6274    0.0000 N   0  0  0  0  0  0  0  0  0  0  0  0
   -1.4246    1.0408    0.0000 C   0  0  0  0  0  0  0  0  0  0  0  0
   -0.7107    0.6274    0.0000 C   0  0  0  0  0  0  0  0  0  0  0  0
    0.0032    1.0408    0.0000 C   0  0  0  0  0  0  0  0  0  0  0  0
   -4.2811    1.0420    0.0000 C   0  0  0  0  0  0  0  0  0  0  0  0
   -4.9945    0.6293    0.0000 N   0  0  0  0  0  0  0  0  0  0  0  0
   -4.9940   -0.1965    0.0000 C   0  0  0  0  0  0  0  0  0  0  0  0
   -4.2740   -0.6080    0.0000 C   0  0  0  0  0  0  0  0  0  0  0  0
   -3.5635   -0.1929    0.0000 C   0  0  0  0  0  0  0  0  0  0  0  0
   -2.8526    1.8675    0.0000 O   0  0  0  0  0  0  0  0  0  0  0  0
   -1.4246    1.8675    0.0000 C   0  0  0  0  0  0  0  0  0  0  0  0
    0.7172    0.6274    0.0000 N   0  0  0  0  0  0  0  0  0  0  0  0
    0.7143   -0.1985    0.0000 C   0  0  0  0  0  0  0  0  0  0  0  0
    1.4241   -0.6118    0.0000 C   0  0  0  0  0  0  0  0  0  0  0  0
    2.1415   -0.2036    0.0000 N   0  0  0  0  0  0  0  0  0  0  0  0
    2.1444    0.6222    0.0000 C   0  0  0  0  0  0  0  0  0  0  0  0
    1.4301    1.0401    0.0000 C   0  0  0  0  0  0  0  0  0  0  0  0
    2.8554   -0.6206    0.0000 C   0  0  0  0  0  0  0  0  0  0  0  0
    2.8481   -1.4446    0.0000 C   0  0  0  0  0  0  0  0  0  0  0  0
    3.5612   -1.8613    0.0000 C   0  0  0  0  0  0  0  0  0  0  0  0
    4.2802   -1.4515    0.0000 C   0  0  0  0  0  0  0  0  0  0  0  0
    4.2816   -0.6206    0.0000 C   0  0  0  0  0  0  0  0  0  0  0  0
    3.5680   -0.2074    0.0000 C   0  0  0  0  0  0  0  0  0  0  0  0
    4.9945   -1.8675    0.0000 F   0  0  0  0  0  0  0  0  0  0  0  0
  1  7  2  0
  1  2  1  0
  2  3  1  0
  2 12  2  0
  3  4  1  0
  4 13  1  0
  4  5  1  0
  5  6  1  0
  6 14  1  0
  7  8  1  0
  8  9  2  0
  9 10  1  0
 10 11  2  0
 11  1  1  0
 14 15  1  0
 14 19  1  0
 15 16  1  0
 16 17  1  0
 17 18  1  0
 17 20  1  0
 18 19  1  0
 20 21  2  0
 21 22  1  0
 22 23  2  0
 23 24  1  0
 23 26  1  0
 24 25  2  0
 25 20  1  0
M  END
>  <DRUGBANK_ID>  (1) 
DB13687

>  <COMMON_NAME>  (1) 
Niaprazine

>  <CAS_NUMBER>  (1) 
27367-90-4

>  <UNII>  (1) 
R2H3YN6E3L

>  <SYNONYMS>  (1) 
Niaprazina; Niaprazine; Niaprazinum

$$$$
