
     RDKit          2D

 10 10  0  0  0  0  0  0  0  0999 V2000
   -0.3572    0.4125    0.0000 C   0  0  0  0  0  0  0  0  0  0  0  0
   -1.0717    0.0000    0.0000 C   0  0  0  0  0  0  0  0  0  0  0  0
   -1.0717   -0.8250    0.0000 C   0  0  0  0  0  0  0  0  0  0  0  0
   -0.3572   -1.2374    0.0000 C   0  0  0  0  0  0  0  0  0  0  0  0
    0.3572    0.0000    0.0000 C   0  0  0  0  0  0  0  0  0  0  0  0
    0.3572   -0.8250    0.0000 C   0  0  0  0  0  0  0  0  0  0  0  0
    1.0716    1.2374    0.0000 O   0  0  0  0  0  0  0  0  0  0  0  0
   -1.7861    0.4125    0.0000 O   0  0  0  0  0  0  0  0  0  0  0  0
   -1.7861   -1.2374    0.0000 O   0  0  0  0  0  0  0  0  0  0  0  0
    1.0716    0.4125    0.0000 C   0  0  0  0  0  0  0  0  0  0  0  0
  1  2  2  0
  3  2  1  0
  4  3  2  0
  5  1  1  0
  6  5  2  0
  6  4  1  0
  8  2  1  0
  9  3  1  0
 10  5  1  0
 10  7  2  0
M  END
>  <DRUGBANK_ID>  (1) 
DB11268

>  <COMMON_NAME>  (1) 
Protocatechualdehyde

>  <CAS_NUMBER>  (1) 
139-85-5

>  <UNII>  (1) 
4PVP2HCH4T

>  <SYNONYMS>  (1) 
3,4-dihydroxybenzaldehyde; Protocatechuic aldehyde; Rancinamycin IV

$$$$
