
     RDKit          2D

 36 41  0  0  0  0  0  0  0  0999 V2000
    2.8716    1.9909    0.0000 S   0  0  0  0  0  0  0  0  0  0  0  0
    0.9622    3.0489    0.0000 F   0  0  0  0  0  0  0  0  0  0  0  0
   -1.7543    3.9367    0.0000 F   0  0  0  0  0  0  0  0  0  0  0  0
    3.6557    1.7345    0.0000 O   0  0  0  0  0  0  0  0  0  0  0  0
    2.0873    2.2471    0.0000 O   0  0  0  0  0  0  0  0  0  0  0  0
    2.6151    1.2066    0.0000 N   0  0  0  0  0  0  0  0  0  0  0  0
    0.4879   -0.7020    0.0000 N   0  0  0  0  0  0  0  0  0  0  0  0
    0.4879   -2.0299    0.0000 N   0  0  0  0  0  0  0  0  0  0  0  0
   -3.3293   -3.1830    0.0000 N   0  0  0  0  0  0  0  0  0  0  0  0
   -3.7418   -2.4685    0.0000 N   0  0  0  0  0  0  0  0  0  0  0  0
    3.1278    2.7750    0.0000 C   0  0  0  0  0  0  0  0  0  0  0  0
    3.7418    3.3260    0.0000 C   0  0  0  0  0  0  0  0  0  0  0  0
    2.9577    3.5823    0.0000 C   0  0  0  0  0  0  0  0  0  0  0  0
    1.8080    1.0365    0.0000 C   0  0  0  0  0  0  0  0  0  0  0  0
    1.5515    0.2522    0.0000 C   0  0  0  0  0  0  0  0  0  0  0  0
    1.2569    1.6504    0.0000 C   0  0  0  0  0  0  0  0  0  0  0  0
    0.7444    0.0822    0.0000 C   0  0  0  0  0  0  0  0  0  0  0  0
    0.4496    1.4804    0.0000 C   0  0  0  0  0  0  0  0  0  0  0  0
    0.1933    0.6962    0.0000 C   0  0  0  0  0  0  0  0  0  0  0  0
   -0.2925   -0.9534    0.0000 C   0  0  0  0  0  0  0  0  0  0  0  0
   -0.1013    2.0945    0.0000 C   0  0  0  0  0  0  0  0  0  0  0  0
   -0.2925   -1.7784    0.0000 C   0  0  0  0  0  0  0  0  0  0  0  0
    0.9695   -1.3659    0.0000 C   0  0  0  0  0  0  0  0  0  0  0  0
   -1.0071   -0.5409    0.0000 C   0  0  0  0  0  0  0  0  0  0  0  0
   -1.0071   -2.1909    0.0000 C   0  0  0  0  0  0  0  0  0  0  0  0
   -1.7216   -1.7784    0.0000 C   0  0  0  0  0  0  0  0  0  0  0  0
   -1.7216   -0.9534    0.0000 C   0  0  0  0  0  0  0  0  0  0  0  0
    0.1549    2.8788    0.0000 C   0  0  0  0  0  0  0  0  0  0  0  0
   -0.9086    1.9244    0.0000 C   0  0  0  0  0  0  0  0  0  0  0  0
   -2.4360   -2.1909    0.0000 C   0  0  0  0  0  0  0  0  0  0  0  0
   -0.3960    3.4928    0.0000 C   0  0  0  0  0  0  0  0  0  0  0  0
   -1.4595    2.5384    0.0000 C   0  0  0  0  0  0  0  0  0  0  0  0
   -2.5222   -3.0115    0.0000 C   0  0  0  0  0  0  0  0  0  0  0  0
   -3.1898   -1.8554    0.0000 C   0  0  0  0  0  0  0  0  0  0  0  0
   -1.2033    3.3226    0.0000 C   0  0  0  0  0  0  0  0  0  0  0  0
   -3.6648   -3.9367    0.0000 C   0  0  0  0  0  0  0  0  0  0  0  0
  1  4  2  0
  1  5  2  0
  1  6  1  0
  1 11  1  0
  2 28  1  0
  3 35  1  0
  6 14  1  0
  7 17  1  0
  7 20  1  0
  7 23  1  0
  8 22  1  0
  8 23  2  0
  9 10  1  0
  9 33  1  0
  9 36  1  0
 10 34  2  0
 11 12  1  0
 11 13  1  0
 12 13  1  0
 14 15  2  0
 14 16  1  0
 15 17  1  0
 16 18  2  0
 17 19  2  0
 18 19  1  0
 18 21  1  0
 20 22  2  0
 20 24  1  0
 21 28  2  0
 21 29  1  0
 22 25  1  0
 24 27  2  0
 25 26  2  0
 26 27  1  0
 26 30  1  0
 28 31  1  0
 29 32  2  0
 30 33  2  0
 30 34  1  0
 31 35  2  0
 32 35  1  0
M  END
>  <DRUGBANK_ID>  (1) 
DB16843

>  <COMMON_NAME>  (1) 
ODM-203

>  <CAS_NUMBER>  (1) 
1430723-35-5

>  <UNII>  (1) 
Y7HJ4D4CRT

$$$$
