
     RDKit          2D

 19 18  0  0  0  0  0  0  0  0999 V2000
   -3.9170   -0.8375    0.0000 O   0  0  0  0  0  0  0  0  0  0  0  0
   -3.2045   -0.4208    0.0000 N   0  0  0  0  0  0  0  0  0  0  0  0
   -2.4919   -0.8334    0.0000 C   0  0  0  0  0  0  0  0  0  0  0  0
   -1.7794   -0.4166    0.0000 C   0  0  0  0  0  0  0  0  0  0  0  0
   -1.0667   -0.8292    0.0000 C   0  0  0  0  0  0  0  0  0  0  0  0
   -2.4960   -1.6585    0.0000 C   0  0  0  0  0  0  0  0  0  0  0  0
   -1.7812    0.4083    0.0000 N   0  0  0  0  0  0  0  0  0  0  0  0
   -1.0708    0.8251    0.0000 C   0  0  0  0  0  0  0  0  0  0  0  0
   -0.3583    0.4125    0.0000 C   0  0  0  0  0  0  0  0  0  0  0  0
   -0.7751   -0.3000    0.0000 C   0  0  0  0  0  0  0  0  0  0  0  0
    0.0499   -0.3000    0.0000 C   0  0  0  0  0  0  0  0  0  0  0  0
    0.3542    0.8292    0.0000 C   0  0  0  0  0  0  0  0  0  0  0  0
    1.0667    0.4166    0.0000 N   0  0  0  0  0  0  0  0  0  0  0  0
    1.7794    0.8334    0.0000 C   0  0  0  0  0  0  0  0  0  0  0  0
    2.4919    0.4208    0.0000 C   0  0  0  0  0  0  0  0  0  0  0  0
    2.4877   -0.4041    0.0000 C   0  0  0  0  0  0  0  0  0  0  0  0
    3.2045    0.8376    0.0000 N   0  0  0  0  0  0  0  0  0  0  0  0
    3.9170    0.4251    0.0000 O   0  0  0  0  0  0  0  0  0  0  0  0
    1.7776    1.6585    0.0000 C   0  0  0  0  0  0  0  0  0  0  0  0
  1  2  1  0
  2  3  2  0
  3  6  1  0
  3  4  1  0
  4  7  1  0
  4  5  1  6
  7  8  1  0
  8  9  1  0
  9 10  1  0
  9 11  1  0
  9 12  1  0
 12 13  1  0
 13 14  1  0
 14 15  1  0
 14 19  1  6
 15 16  1  0
 15 17  2  0
 17 18  1  0
M  END
>  <DRUGBANK_ID>  (1) 
DB11179

>  <COMMON_NAME>  (1) 
Exametazime

>  <CAS_NUMBER>  (1) 
105613-48-7

>  <UNII>  (1) 
G29272NCKL

>  <SYNONYMS>  (1) 
Exametazima; Exametazime

$$$$
