
     RDKit          2D

  9  8  0  0  0  0  0  0  0  0999 V2000
   -0.6039   -2.4750    0.0000 C   0  0  0  0  0  0  0  0  0  0  0  0
    0.1105   -2.0625    0.0000 C   0  0  0  0  0  0  0  0  0  0  0  0
    0.8250   -2.4750    0.0000 O   0  0  0  0  0  0  0  0  0  0  0  0
    0.1105   -1.2375    0.0000 O   0  0  0  0  0  0  0  0  0  0  0  0
    0.8250   -0.8250    0.0000 C   0  0  0  0  0  0  0  0  0  0  0  0
    0.8250    0.0000    0.0000 C   0  0  0  0  0  0  0  0  0  0  0  0
    0.8250    0.8250    0.0000 F   0  0  0  0  0  0  0  0  0  0  0  0
    1.6500    0.0000    0.0000 F   0  0  0  0  0  0  0  0  0  0  0  0
    0.0000    0.0000    0.0000 F   0  0  0  0  0  0  0  0  0  0  0  0
  1  2  1  0
  2  3  2  0
  2  4  1  0
  4  5  1  0
  5  6  1  0
  6  7  1  0
  6  8  1  0
  6  9  1  0
M  END
>  <DRUGBANK_ID>  (1) 
DB14629

>  <SECONDARY_ACCESSION_NUMBERS>  (1) 
DBSALT002296

>  <COMMON_NAME>  (1) 
Trifluoroethyl acetate

>  <CAS_NUMBER>  (1) 
406-95-1

>  <UNII>  (1) 
EN07RVL78U

>  <SYNONYMS>  (1) 
2,2,2-trifluoroethanol acetate; 2,2,2-trifluoroethyl acetate

$$$$
