CMW
     RDKit          2D

 24 25  0  0  0  0  0  0  0  0999 V2000
  -12.4524   -1.9679    0.0000 O   0  0  0  0  0  0  0  0  0  0  0  0
  -12.4524   -1.1429    0.0000 C   0  0  0  0  0  0  0  0  0  0  0  0
  -13.1669   -0.7304    0.0000 N   0  0  0  0  0  0  0  0  0  0  0  0
  -13.8813   -1.1429    0.0000 C   0  0  0  0  0  0  0  0  0  0  0  0
  -13.8813   -1.9679    0.0000 C   0  0  0  0  0  0  0  0  0  0  0  0
  -14.5958   -2.3804    0.0000 C   0  0  0  0  0  0  0  0  0  0  0  0
  -15.3103   -1.9679    0.0000 N   0  0  0  0  0  0  0  0  0  0  0  0
  -15.3103   -1.1429    0.0000 C   0  0  0  0  0  0  0  0  0  0  0  0
  -14.5958   -0.7304    0.0000 C   0  0  0  0  0  0  0  0  0  0  0  0
  -11.7379   -0.7304    0.0000 O   0  0  0  0  0  0  0  0  0  0  0  0
  -11.0235   -1.1429    0.0000 C   0  0  0  0  0  0  0  0  0  0  0  0
  -10.3090   -0.7304    0.0000 C   0  0  0  0  0  0  0  0  0  0  0  0
   -9.5945   -1.1429    0.0000 C   0  0  0  0  0  0  0  0  0  0  0  0
   -8.8800   -0.7304    0.0000 N   0  0  0  0  0  0  0  0  0  0  0  0
   -8.1656   -1.1429    0.0000 S   0  0  0  0  0  0  0  0  0  0  0  0
   -8.5781   -1.8574    0.0000 O   0  0  0  0  0  0  0  0  0  0  0  0
   -7.7531   -0.4284    0.0000 O   0  0  0  0  0  0  0  0  0  0  0  0
   -7.4511   -1.5554    0.0000 C   0  0  0  0  0  0  0  0  0  0  0  0
   -6.7366   -1.1429    0.0000 C   0  0  0  0  0  0  0  0  0  0  0  0
   -6.0222   -1.5554    0.0000 C   0  0  0  0  0  0  0  0  0  0  0  0
   -6.0222   -2.3804    0.0000 C   0  0  0  0  0  0  0  0  0  0  0  0
   -5.3077   -2.7929    0.0000 C   0  0  0  0  0  0  0  0  0  0  0  0
   -6.7366   -2.7929    0.0000 C   0  0  0  0  0  0  0  0  0  0  0  0
   -7.4511   -2.3804    0.0000 C   0  0  0  0  0  0  0  0  0  0  0  0
  1  2  2  0
  2  3  1  0
  2 10  1  0
  3  4  1  0
  4  5  2  0
  4  9  1  0
  5  6  1  0
  6  7  2  0
  7  8  1  0
  8  9  2  0
 10 11  1  0
 11 12  1  0
 12 13  1  0
 13 14  1  0
 14 15  1  0
 15 16  2  0
 15 17  2  0
 15 18  1  0
 18 19  2  0
 18 24  1  0
 19 20  1  0
 20 21  2  0
 21 22  1  0
 21 23  1  0
 23 24  2  0
M  END
>  <DRUGBANK_ID>  (1) 
DB07572

>  <COMMON_NAME>  (1) 
3-{[(4-methylphenyl)sulfonyl]amino}propyl pyridin-4-ylcarbamate

$$$$
