
     RDKit          2D

 22 25  0  0  0  0  0  0  0  0999 V2000
    0.1443    0.1600    0.0000 C   0  0  0  0  0  0  0  0  0  0  0  0
    0.1228    0.9936    0.0000 C   0  0  0  0  0  0  0  0  0  0  0  0
    0.7897   -0.3304    0.0000 C   0  0  0  0  0  0  0  0  0  0  0  0
    1.6076   -0.1365    0.0000 N   0  0  0  0  0  0  0  0  0  0  0  0
    1.9398    0.6255    0.0000 C   0  0  0  0  0  0  0  0  0  0  0  0
   -0.5975    1.3852    0.0000 C   0  0  0  0  0  0  0  0  0  0  0  0
   -0.5586   -0.2604    0.0000 C   0  0  0  0  0  0  0  0  0  0  0  0
    0.6258   -1.1392    0.0000 C   0  0  0  0  0  0  0  0  0  0  0  0
   -1.2838    0.1277    0.0000 C   0  0  0  0  0  0  0  0  0  0  0  0
   -1.3029    0.9525    0.0000 C   0  0  0  0  0  0  0  0  0  0  0  0
    1.2506   -1.6890    0.0000 N   0  0  0  0  0  0  0  0  0  0  0  0
   -0.1434   -1.4066    0.0000 C   0  0  0  0  0  0  0  0  0  0  0  0
   -0.3194   -2.2129    0.0000 C   0  0  0  0  0  0  0  0  0  0  0  0
    1.0909   -2.4987    0.0000 C   0  0  0  0  0  0  0  0  0  0  0  0
    0.2980   -2.7569    0.0000 C   0  0  0  0  0  0  0  0  0  0  0  0
    0.7594    1.5248    0.0000 N   0  0  0  0  0  0  0  0  0  0  0  0
    1.5718    1.3559    0.0000 C   0  0  0  0  0  0  0  0  0  0  0  0
    1.9834    2.0764    0.0000 N   0  0  0  0  0  0  0  0  0  0  0  0
    1.4253    2.6906    0.0000 N   0  0  0  0  0  0  0  0  0  0  0  0
    0.6689    2.3495    0.0000 C   0  0  0  0  0  0  0  0  0  0  0  0
   -1.9834   -0.3022    0.0000 Br  0  0  0  0  0  0  0  0  0  0  0  0
   -0.0439    2.7569    0.0000 C   0  0  0  0  0  0  0  0  0  0  0  0
  2  1  2  0
  3  1  1  0
  4  3  2  0
  5  4  1  0
  6  2  1  0
  6 10  2  0
  7  1  1  0
  8  3  1  0
  9  7  2  0
  9 21  1  0
 10  9  1  0
 11  8  2  0
 12  8  1  0
 13 12  2  0
 14 11  1  0
 14 15  2  0
 15 13  1  0
 16  2  1  0
 16 17  1  0
 17  5  1  0
 17 18  2  0
 18 19  1  0
 19 20  2  0
 20 16  1  0
 20 22  1  0
M  END
>  <DRUGBANK_ID>  (1) 
DB14718

>  <COMMON_NAME>  (1) 
Pyrazolam

>  <CAS_NUMBER>  (1) 
39243-02-2

>  <UNII>  (1) 
8LH16383PK

>  <SYNONYMS>  (1) 
Pirazolam

$$$$
