
     RDKit          2D

 39 44  0  0  1  0  0  0  0  0999 V2000
    2.5645    3.3000    0.0000 F   0  0  0  0  0  0  0  0  0  0  0  0
    3.2789    3.7125    0.0000 C   0  0  0  0  0  0  0  0  0  0  0  0
    3.2789    4.5375    0.0000 C   0  0  0  0  0  0  0  0  0  0  0  0
    3.9934    4.9500    0.0000 C   0  0  0  0  0  0  0  0  0  0  0  0
    3.9934    5.7750    0.0000 C   0  0  0  0  0  0  0  0  0  0  0  0
    4.7079    6.1875    0.0000 N   0  0  0  0  0  0  0  0  0  0  0  0
    4.9214    6.9844    0.0000 C   0  0  0  0  0  0  0  0  0  0  0  0
    5.7183    6.7709    0.0000 C   0  0  0  0  0  0  0  0  0  0  0  0
    5.5048    5.9740    0.0000 C   0  0  0  0  0  0  0  0  0  0  0  0
    6.4328    7.1834    0.0000 N   0  0  0  0  0  0  0  0  0  0  0  0
    6.4328    8.0084    0.0000 C   0  0  0  0  0  0  0  0  0  0  0  0
    7.1472    8.4209    0.0000 C   0  0  0  0  0  0  0  0  0  0  0  0
    7.8617    8.0084    0.0000 O   0  0  0  0  0  0  0  0  0  0  0  0
    7.8617    7.1834    0.0000 C   0  0  0  0  0  0  0  0  0  0  0  0
    7.1472    6.7709    0.0000 C   0  0  0  0  0  0  0  0  0  0  0  0
    4.7079    4.5375    0.0000 C   0  0  0  0  0  0  0  0  0  0  0  0
    4.7079    3.7125    0.0000 C   0  0  0  0  0  0  0  0  0  0  0  0
    3.9934    3.3000    0.0000 C   0  0  0  0  0  0  0  0  0  0  0  0
    3.9934    2.4750    0.0000 C   0  0  0  0  0  0  0  0  0  0  0  0
    3.2789    2.0625    0.0000 N   0  0  0  0  0  0  0  0  0  0  0  0
    3.2789    1.2375    0.0000 C   0  0  0  0  0  0  0  0  0  0  0  0
    3.9934    0.8250    0.0000 C   0  0  0  0  0  0  0  0  0  0  0  0
    3.9934    0.0000    0.0000 C   0  0  0  0  0  0  0  0  0  0  0  0
    3.2789   -0.4125    0.0000 C   0  0  0  0  0  0  0  0  0  0  0  0
    2.5645    0.0000    0.0000 C   0  0  0  0  0  0  0  0  0  0  0  0
    1.7798   -0.2549    0.0000 C   0  0  0  0  0  0  0  0  0  0  0  0
    1.5249   -1.0396    0.0000 O   0  0  0  0  0  0  0  0  0  0  0  0
    1.2949    0.4125    0.0000 N   0  0  0  0  0  0  0  0  0  0  0  0
    0.4699    0.4125    0.0000 C   0  0  0  0  0  0  0  0  0  0  0  0
    0.0574   -0.3020    0.0000 C   0  0  0  0  0  0  0  0  0  0  0  0
   -0.7676   -0.3020    0.0000 C   0  0  0  0  0  0  0  0  0  0  0  0
   -1.1801    0.4125    0.0000 C   0  0  0  0  0  0  0  0  0  0  0  0
   -2.0051    0.4125    0.0000 O   0  0  0  0  0  0  0  0  0  0  0  0
   -0.7676    1.1270    0.0000 N   0  0  0  0  0  0  0  0  0  0  0  0
    0.0574    1.1270    0.0000 C   0  0  0  0  0  0  0  0  0  0  0  0
    0.4699    1.8414    0.0000 O   0  0  0  0  0  0  0  0  0  0  0  0
    1.7798    1.0799    0.0000 C   0  0  0  0  0  0  0  0  0  0  0  0
    1.5249    1.8646    0.0000 O   0  0  0  0  0  0  0  0  0  0  0  0
    2.5645    0.8250    0.0000 C   0  0  0  0  0  0  0  0  0  0  0  0
  1  2  1  0
  2  3  2  0
  2 18  1  0
  3  4  1  0
  4  5  1  0
  4 16  2  0
  5  6  1  0
  6  7  1  0
  6  9  1  0
  7  8  1  0
  8  9  1  0
  8 10  1  0
 10 11  1  0
 10 15  1  0
 11 12  1  0
 12 13  1  0
 13 14  1  0
 14 15  1  0
 16 17  1  0
 17 18  2  0
 18 19  1  0
 19 20  1  0
 20 21  1  0
 21 22  2  0
 21 39  1  0
 22 23  1  0
 23 24  2  0
 24 25  1  0
 25 26  1  0
 25 39  2  0
 26 27  2  0
 26 28  1  0
 28 37  1  0
 29 28  1  1
 29 30  1  0
 29 35  1  0
 30 31  1  0
 31 32  1  0
 32 33  2  0
 32 34  1  0
 34 35  1  0
 35 36  2  0
 37 38  2  0
 37 39  1  0
M  END
>  <DRUGBANK_ID>  (1) 
DB18115

>  <COMMON_NAME>  (1) 
Golcadomide

>  <CAS_NUMBER>  (1) 
2379572-34-4

>  <UNII>  (1) 
29HLR8Z5BR

>  <SYNONYMS>  (1) 
2-[(3S)-2,6-dioxopiperidin-3-yl]-4-{[(2-fluoro-4-{[3-(morpholin-4-yl)azetidin-1-yl]methyl} phenyl) methyl]amino}-1H-isoindole-1,3(2H)-dione

$$$$
