
     RDKit          2D

 27 29  0  0  1  0  0  0  0  0999 V2000
   -2.1638   -1.6991    0.0000 O   0  0  0  0  0  0  0  0  0  0  0  0
   -3.6023    0.7702    0.0000 O   0  0  0  0  0  0  0  0  0  0  0  0
   -3.5959   -0.8797    0.0000 O   0  0  0  0  0  0  0  0  0  0  0  0
   -0.7444    0.7812    0.0000 N   0  0  0  0  0  0  0  0  0  0  0  0
    2.8839    2.0414    0.0000 N   0  0  0  0  0  0  0  0  0  0  0  0
    3.5984    0.8038    0.0000 N   0  0  0  0  0  0  0  0  0  0  0  0
    2.8839   -0.4336    0.0000 N   0  0  0  0  0  0  0  0  0  0  0  0
    4.3128    2.0414    0.0000 N   0  0  0  0  0  0  0  0  0  0  0  0
    0.6845    0.7867    0.0000 C   0  0  0  0  0  0  0  0  0  0  0  0
    0.6845    1.6461    0.0000 C   0  0  0  0  0  0  0  0  0  0  0  0
    1.4320    0.3628    0.0000 C   0  0  0  0  0  0  0  0  0  0  0  0
    1.4320    2.0700    0.0000 C   0  0  0  0  0  0  0  0  0  0  0  0
   -0.0283    0.3715    0.0000 C   0  0  0  0  0  0  0  0  0  0  0  0
    2.1695    0.8038    0.0000 C   0  0  0  0  0  0  0  0  0  0  0  0
    2.1695    1.6289    0.0000 C   0  0  0  0  0  0  0  0  0  0  0  0
    2.8839    0.3914    0.0000 C   0  0  0  0  0  0  0  0  0  0  0  0
    3.5984    1.6289    0.0000 C   0  0  0  0  0  0  0  0  0  0  0  0
   -1.4573    0.3660    0.0000 C   0  0  0  0  0  0  0  0  0  0  0  0
   -0.7475    1.6062    0.0000 C   0  0  0  0  0  0  0  0  0  0  0  0
   -2.1733    0.7756    0.0000 C   0  0  0  0  0  0  0  0  0  0  0  0
   -1.4541   -0.4590    0.0000 C   0  0  0  0  0  0  0  0  0  0  0  0
   -2.1669   -0.8742    0.0000 C   0  0  0  0  0  0  0  0  0  0  0  0
   -2.8861    0.3605    0.0000 C   0  0  0  0  0  0  0  0  0  0  0  0
   -2.8830   -0.4645    0.0000 C   0  0  0  0  0  0  0  0  0  0  0  0
   -1.4477   -2.1089    0.0000 C   0  0  0  0  0  0  0  0  0  0  0  0
   -3.6054    1.5953    0.0000 C   0  0  0  0  0  0  0  0  0  0  0  0
   -4.3119   -0.4700    0.0000 C   0  0  0  0  0  0  0  0  0  0  0  0
  1 22  1  0
  1 25  1  0
  2 23  1  0
  2 26  1  0
  3 24  1  0
  3 27  1  0
  4 13  1  0
  4 18  1  0
  4 19  1  0
  5 15  1  0
  5 17  1  0
  6 16  2  0
  6 17  1  0
  7 16  1  0
  9 10  1  0
  9 11  1  0
  9 13  1  1
 10 12  1  0
 11 14  1  0
 12 15  1  0
 14 15  2  0
 14 16  1  0
 17  8  1  1
 18 20  2  0
 18 21  1  0
 20 23  1  0
 21 22  2  0
 22 24  1  0
 23 24  2  0
M  END
>  <DRUGBANK_ID>  (1) 
DB08642

>  <COMMON_NAME>  (1) 
(2R,6S)-6-{[methyl(3,4,5-trimethoxyphenyl)amino]methyl}-1,2,5,6,7,8-hexahydroquinazoline-2,4-diamine

$$$$
