N4D
     RDKit          2D

 27 30  0  0  0  0  0  0  0  0999 V2000
    0.2127   -2.2465    0.0000 C   0  0  0  0  0  0  0  0  0  0  0  0
    2.3561   -1.0090    0.0000 C   0  0  0  0  0  0  0  0  0  0  0  0
   -0.5018   -0.1840    0.0000 C   0  0  0  0  0  0  0  0  0  0  0  0
   -1.2162    1.0535    0.0000 C   0  0  0  0  0  0  0  0  0  0  0  0
    0.2127   -1.4215    0.0000 C   0  0  0  0  0  0  0  0  0  0  0  0
   -0.5018   -2.6590    0.0000 C   0  0  0  0  0  0  0  0  0  0  0  0
    3.7851   -1.0090    0.0000 C   0  0  0  0  0  0  0  0  0  0  0  0
   -1.2162    0.2285    0.0000 C   0  0  0  0  0  0  0  0  0  0  0  0
    1.6416   -1.4215    0.0000 C   0  0  0  0  0  0  0  0  0  0  0  0
   -2.7657    3.6623    0.0000 C   0  0  0  0  0  0  0  0  0  0  0  0
   -1.9587    3.4908    0.0000 C   0  0  0  0  0  0  0  0  0  0  0  0
   -3.3177    3.0492    0.0000 C   0  0  0  0  0  0  0  0  0  0  0  0
    1.6416   -2.2465    0.0000 C   0  0  0  0  0  0  0  0  0  0  0  0
    0.9272   -2.6590    0.0000 C   0  0  0  0  0  0  0  0  0  0  0  0
   -1.7038    2.7062    0.0000 C   0  0  0  0  0  0  0  0  0  0  0  0
   -3.0628    2.2646    0.0000 C   0  0  0  0  0  0  0  0  0  0  0  0
    0.9272   -1.0090    0.0000 C   0  0  0  0  0  0  0  0  0  0  0  0
   -2.0009   -0.0264    0.0000 C   0  0  0  0  0  0  0  0  0  0  0  0
    0.2127    1.0535    0.0000 C   0  0  0  0  0  0  0  0  0  0  0  0
   -2.2558    2.0931    0.0000 C   0  0  0  0  0  0  0  0  0  0  0  0
   -2.4858    0.6410    0.0000 N   0  0  0  0  0  0  0  0  0  0  0  0
   -0.5018    1.4660    0.0000 N   0  0  0  0  0  0  0  0  0  0  0  0
    0.2127    0.2285    0.0000 N   0  0  0  0  0  0  0  0  0  0  0  0
   -2.0009    1.3084    0.0000 N   0  0  0  0  0  0  0  0  0  0  0  0
   -0.5018   -1.0090    0.0000 N   0  0  0  0  0  0  0  0  0  0  0  0
    3.0706   -1.4215    0.0000 N   0  0  0  0  0  0  0  0  0  0  0  0
    2.3561   -0.1840    0.0000 O   0  0  0  0  0  0  0  0  0  0  0  0
  1  5  2  0
  1  6  1  0
  1 14  1  0
  2  9  1  0
  2 26  1  0
  2 27  2  0
  3  8  2  0
  3 23  1  0
  3 25  1  0
  4  8  1  0
  4 22  2  0
  4 24  1  0
  5 17  1  0
  5 25  1  0
  7 26  1  0
  8 18  1  0
  9 13  1  0
  9 17  2  0
 10 11  2  0
 10 12  1  0
 11 15  1  0
 12 16  2  0
 13 14  2  0
 15 20  2  0
 16 20  1  0
 18 21  2  0
 19 22  1  0
 19 23  2  0
 20 24  1  0
 21 24  1  0
M  END
>  <DRUGBANK_ID>  (1) 
DB08242

>  <COMMON_NAME>  (1) 
N,4-dimethyl-3-[(1-phenyl-1H-pyrazolo[3,4-d]pyrimidin-4-yl)amino]benzamide

$$$$
