
     RDKit          2D

 28 30  0  0  0  0  0  0  0  0999 V2000
   -0.1955   -1.1468    0.0000 C   0  0  0  0  0  0  0  0  0  0  0  0
   -0.1990   -0.3219    0.0000 C   0  0  0  0  0  0  0  0  0  0  0  0
    0.5190   -1.5593    0.0000 C   0  0  0  0  0  0  0  0  0  0  0  0
   -0.9066   -1.5629    0.0000 C   0  0  0  0  0  0  0  0  0  0  0  0
   -0.2098   -1.9362    0.0000 C   0  0  0  0  0  0  0  0  0  0  0  0
   -0.9066    0.0906    0.0000 C   0  0  0  0  0  0  0  0  0  0  0  0
    1.2303   -0.3148    0.0000 C   0  0  0  0  0  0  0  0  0  0  0  0
    1.2338   -1.1398    0.0000 C   0  0  0  0  0  0  0  0  0  0  0  0
    0.5190   -2.3878    0.0000 C   0  0  0  0  0  0  0  0  0  0  0  0
   -1.6214   -1.1468    0.0000 C   0  0  0  0  0  0  0  0  0  0  0  0
   -0.9066    0.9190    0.0000 C   0  0  0  0  0  0  0  0  0  0  0  0
   -1.6214   -0.3219    0.0000 C   0  0  0  0  0  0  0  0  0  0  0  0
    1.2374   -2.7931    0.0000 C   0  0  0  0  0  0  0  0  0  0  0  0
   -0.1919   -2.7931    0.0000 C   0  0  0  0  0  0  0  0  0  0  0  0
   -1.6144    1.3315    0.0000 C   0  0  0  0  0  0  0  0  0  0  0  0
    1.9485   -2.3878    0.0000 C   0  0  0  0  0  0  0  0  0  0  0  0
   -2.4408    1.3365    0.0000 C   0  0  0  0  0  0  0  0  0  0  0  0
    2.6668   -2.7931    0.0000 C   0  0  0  0  0  0  0  0  0  0  0  0
   -2.8533    0.6220    0.0000 C   0  0  0  0  0  0  0  0  0  0  0  0
   -2.8650    2.0739    0.0000 C   0  0  0  0  0  0  0  0  0  0  0  0
    3.3851   -2.3878    0.0000 C   0  0  0  0  0  0  0  0  0  0  0  0
   -3.6829    0.6288    0.0000 C   0  0  0  0  0  0  0  0  0  0  0  0
   -2.5467   -0.0163    0.0000 C   0  0  0  0  0  0  0  0  0  0  0  0
   -3.6783    2.0590    0.0000 C   0  0  0  0  0  0  0  0  0  0  0  0
    4.0964   -2.7931    0.0000 C   0  0  0  0  0  0  0  0  0  0  0  0
    3.3851   -1.5593    0.0000 C   0  0  0  0  0  0  0  0  0  0  0  0
   -4.0957    1.3434    0.0000 C   0  0  0  0  0  0  0  0  0  0  0  0
   -4.0964    2.7931    0.0000 O   0  0  0  0  0  0  0  0  0  0  0  0
  1  2  1  0
  1  3  1  0
  1  4  1  0
  1  5  1  6
  2  6  1  0
  2  7  1  6
  3  8  1  6
  3  9  1  0
  4 10  1  0
  6 11  1  0
  6 12  2  0
  7  8  1  0
  9 13  1  0
  9 14  1  1
 10 12  1  0
 11 15  2  0
 13 16  1  0
 15 17  1  0
 16 18  1  0
 17 19  2  0
 17 20  1  0
 18 21  1  0
 19 22  1  0
 19 23  1  0
 20 24  1  0
 21 25  1  0
 21 26  1  0
 22 27  1  0
 24 28  1  6
 24 27  1  0
M  END
>  <DRUGBANK_ID>  (1) 
DB15614

>  <COMMON_NAME>  (1) 
Previtamin D(3)

>  <CAS_NUMBER>  (1) 
1173-13-3

>  <UNII>  (1) 
HDA46400N5

>  <SYNONYMS>  (1) 
Precalciferol; Precholecalciferol; Previtamin D; Previtamin D(3); Previtamin D3

$$$$
