
     RDKit          2D

 41 46  0  0  1  0  0  0  0  0999 V2000
   -1.0215   -6.2741    0.0000 C   0  0  0  0  0  0  0  0  0  0  0  0
   -1.8070   -6.0221    0.0000 O   0  0  0  0  0  0  0  0  0  0  0  0
   -2.4180   -6.5765    0.0000 C   0  0  0  0  0  0  0  0  0  0  0  0
   -3.2036   -6.3245    0.0000 C   0  0  0  0  0  0  0  0  0  0  0  0
   -3.8146   -6.8789    0.0000 C   0  0  0  0  0  0  0  0  0  0  0  0
   -3.6400   -7.6852    0.0000 C   0  0  0  0  0  0  0  0  0  0  0  0
   -2.8545   -7.9371    0.0000 C   0  0  0  0  0  0  0  0  0  0  0  0
   -2.2435   -7.3828    0.0000 C   0  0  0  0  0  0  0  0  0  0  0  0
   -1.4579   -7.6348    0.0000 O   0  0  0  0  0  0  0  0  0  0  0  0
   -0.8469   -7.0804    0.0000 C   0  0  0  0  0  0  0  0  0  0  0  0
   -0.0613   -7.3324    0.0000 C   0  0  0  0  0  0  0  0  0  0  0  0
    0.5497   -6.7780    0.0000 C   0  0  0  0  0  0  0  0  0  0  0  0
    1.3353   -7.0300    0.0000 O   0  0  0  0  0  0  0  0  0  0  0  0
    1.9463   -6.4757    0.0000 C   0  0  0  0  0  0  0  0  0  0  0  0
    2.7319   -6.7276    0.0000 C   0  0  0  0  0  0  0  0  0  0  0  0
    3.3429   -6.1733    0.0000 C   0  0  0  0  0  0  0  0  0  0  0  0
    3.1683   -5.3670    0.0000 C   0  0  0  0  0  0  0  0  0  0  0  0
    2.3827   -5.1150    0.0000 C   0  0  0  0  0  0  0  0  0  0  0  0
    1.7717   -5.6694    0.0000 C   0  0  0  0  0  0  0  0  0  0  0  0
    0.9861   -5.4174    0.0000 O   0  0  0  0  0  0  0  0  0  0  0  0
    0.3751   -5.9717    0.0000 C   0  0  0  0  0  0  0  0  0  0  0  0
    3.6899   -4.7278    0.0000 C   0  0  0  0  0  0  0  0  0  0  0  0
    3.3402   -3.9805    0.0000 O   0  0  0  0  0  0  0  0  0  0  0  0
    4.5148   -4.7370    0.0000 N   0  0  0  0  0  0  0  0  0  0  0  0
    4.9770   -4.0536    0.0000 C   0  0  0  0  0  0  0  0  0  0  0  0
    5.7697   -4.2819    0.0000 C   0  0  0  0  0  0  0  0  0  0  0  0
    6.4204   -3.7748    0.0000 C   0  0  0  0  0  0  0  0  0  0  0  0
    5.7975   -5.1065    0.0000 C   0  0  0  0  0  0  0  0  0  0  0  0
    5.0219   -5.3877    0.0000 C   0  0  0  0  0  0  0  0  0  0  0  0
    4.8294   -6.1899    0.0000 C   0  0  0  0  0  0  0  0  0  0  0  0
    4.0821   -6.5395    0.0000 N   0  0  0  0  0  0  0  0  0  0  0  0
   -4.1616   -8.3244    0.0000 N   0  0  0  0  0  0  0  0  0  0  0  0
   -4.9865   -8.3152    0.0000 C   0  0  0  0  0  0  0  0  0  0  0  0
   -5.4937   -7.6645    0.0000 C   0  0  0  0  0  0  0  0  0  0  0  0
   -6.3161   -7.7292    0.0000 C   0  0  0  0  0  0  0  0  0  0  0  0
   -6.6319   -6.9670    0.0000 C   0  0  0  0  0  0  0  0  0  0  0  0
   -7.4341   -6.7745    0.0000 C   0  0  0  0  0  0  0  0  0  0  0  0
   -6.0046   -6.4312    0.0000 C   0  0  0  0  0  0  0  0  0  0  0  0
   -5.3011   -6.8622    0.0000 N   0  0  0  0  0  0  0  0  0  0  0  0
   -4.5539   -6.5126    0.0000 C   0  0  0  0  0  0  0  0  0  0  0  0
   -4.5446   -5.6877    0.0000 O   0  0  0  0  0  0  0  0  0  0  0  0
  1  2  1  0
  2  3  1  0
  3  4  2  0
  3  8  1  0
  4  5  1  0
  5  6  2  0
  5 40  1  0
  6  7  1  0
  6 32  1  0
  7  8  2  0
  8  9  1  0
  9 10  1  0
 10 11  1  0
 11 12  1  0
 12 13  1  0
 13 14  1  0
 14 15  2  0
 14 19  1  0
 15 16  1  0
 16 17  2  0
 16 31  1  0
 17 18  1  0
 17 22  1  0
 18 19  2  0
 19 20  1  0
 20 21  1  0
 22 23  2  0
 22 24  1  0
 24 25  1  0
 25 26  1  0
 26 27  2  0
 26 28  1  0
 29 28  1  1
 29 24  1  0
 29 30  1  0
 30 31  2  0
 32 33  2  0
 34 33  1  6
 34 35  1  0
 34 39  1  0
 35 36  1  0
 36 37  2  0
 36 38  1  0
 38 39  1  0
 39 40  1  0
 40 41  2  0
M  END
>  <DRUGBANK_ID>  (1) 
DB11965

>  <COMMON_NAME>  (1) 
SJG-136

>  <CAS_NUMBER>  (1) 
232931-57-6

>  <UNII>  (1) 
KT0ZQ64X1A

$$$$
