
     RDKit          2D

 23 23  0  0  0  0  0  0  0  0999 V2000
   -0.9360   -4.0466    0.0000 Cl  0  0  0  0  0  0  0  0  0  0  0  0
   -0.2214    1.3158    0.0000 O   0  0  0  0  0  0  0  0  0  0  0  0
    0.6035    0.4908    0.0000 O   0  0  0  0  0  0  0  0  0  0  0  0
   -1.0464    0.4908    0.0000 O   0  0  0  0  0  0  0  0  0  0  0  0
    1.2074    0.4908    0.0000 O   0  0  0  0  0  0  0  0  0  0  0  0
   -1.6504    3.7908    0.0000 O   0  0  0  0  0  0  0  0  0  0  0  0
   -2.3649    2.5533    0.0000 O   0  0  0  0  0  0  0  0  0  0  0  0
    0.4929   -0.7466    0.0000 N   0  0  0  0  0  0  0  0  0  0  0  0
   -0.2214    2.9658    0.0000 N   0  0  0  0  0  0  0  0  0  0  0  0
   -0.2214   -0.3341    0.0000 C   0  0  0  0  0  0  0  0  0  0  0  0
   -0.9360   -0.7466    0.0000 C   0  0  0  0  0  0  0  0  0  0  0  0
   -0.9360   -1.5716    0.0000 C   0  0  0  0  0  0  0  0  0  0  0  0
   -0.9360    1.7283    0.0000 C   0  0  0  0  0  0  0  0  0  0  0  0
   -0.9360    2.5533    0.0000 C   0  0  0  0  0  0  0  0  0  0  0  0
   -0.2214   -1.9841    0.0000 C   0  0  0  0  0  0  0  0  0  0  0  0
   -1.6504   -1.9841    0.0000 C   0  0  0  0  0  0  0  0  0  0  0  0
    1.2074   -0.3341    0.0000 C   0  0  0  0  0  0  0  0  0  0  0  0
   -0.2214   -2.8091    0.0000 C   0  0  0  0  0  0  0  0  0  0  0  0
   -1.6504   -2.8091    0.0000 C   0  0  0  0  0  0  0  0  0  0  0  0
    1.9219   -0.7466    0.0000 C   0  0  0  0  0  0  0  0  0  0  0  0
   -0.9360   -3.2216    0.0000 C   0  0  0  0  0  0  0  0  0  0  0  0
   -1.6504    2.9658    0.0000 C   0  0  0  0  0  0  0  0  0  0  0  0
   -0.2214    0.4908    0.0000 B   0  0  0  0  0  0  0  0  0  0  0  0
  1 21  1  0
  2 13  1  0
  2 23  1  0
  3 23  1  0
  4 23  1  0
  5 17  2  0
  6 22  1  0
  7 22  2  0
  8 17  1  0
 10  8  1  0
 10 11  1  1
 10 23  1  0
 11 12  1  0
 12 15  2  0
 12 16  1  0
 13 14  1  0
 14  9  1  1
 14 22  1  0
 15 18  1  0
 16 19  2  0
 17 20  1  0
 18 21  2  0
 19 21  1  0
M  CHG  1  23  -1
M  END
>  <DRUGBANK_ID>  (1) 
DB03607

>  <SECONDARY_ACCESSION_NUMBERS>  (1) 
EXPT00936

>  <COMMON_NAME>  (1) 
[(1R)-1-acetamido-2-(4-chlorophenyl)ethyl]-[(2S)-2-amino-3-hydroxy-3-oxo-propoxy]-dihydroxy-boron

$$$$
