
     RDKit          2D

 31 32  0  0  0  0  0  0  0  0999 V2000
   -0.7383   -0.2062    0.0000 C   0  0  0  0  0  0  0  0  0  0  0  0
   -0.0238   -0.6188    0.0000 C   0  0  0  0  0  0  0  0  0  0  0  0
   -0.0238   -1.4438    0.0000 C   0  0  0  0  0  0  0  0  0  0  0  0
    0.6907   -1.8563    0.0000 C   0  0  0  0  0  0  0  0  0  0  0  0
    0.6907   -2.6813    0.0000 C   0  0  0  0  0  0  0  0  0  0  0  0
   -0.0238   -3.0938    0.0000 C   0  0  0  0  0  0  0  0  0  0  0  0
   -0.7383   -2.6813    0.0000 C   0  0  0  0  0  0  0  0  0  0  0  0
   -0.7383   -1.8563    0.0000 C   0  0  0  0  0  0  0  0  0  0  0  0
   -1.4528   -1.4438    0.0000 O   0  0  0  0  0  0  0  0  0  0  0  0
   -1.4528   -0.6188    0.0000 C   0  0  0  0  0  0  0  0  0  0  0  0
   -1.4528   -3.0938    0.0000 O   0  0  0  0  0  0  0  0  0  0  0  0
   -1.4528   -3.9188    0.0000 C   0  0  0  0  0  0  0  0  0  0  0  0
    1.4051   -3.0938    0.0000 Cl  0  0  0  0  0  0  0  0  0  0  0  0
    0.6907   -0.2063    0.0000 N   0  0  0  0  0  0  0  0  0  0  0  0
    0.6907    0.6187    0.0000 C   0  0  0  0  0  0  0  0  0  0  0  0
   -0.0238    1.0313    0.0000 C   0  0  0  0  0  0  0  0  0  0  0  0
   -0.0238    1.8563    0.0000 C   0  0  0  0  0  0  0  0  0  0  0  0
    0.6907    2.2687    0.0000 C   0  0  0  0  0  0  0  0  0  0  0  0
    1.4051    1.8562    0.0000 C   0  0  0  0  0  0  0  0  0  0  0  0
    1.4051    1.0312    0.0000 C   0  0  0  0  0  0  0  0  0  0  0  0
    2.1196    0.6187    0.0000 S   0  0  0  0  0  0  0  0  0  0  0  0
    2.8341    0.2062    0.0000 O   0  0  0  0  0  0  0  0  0  0  0  0
    1.7071   -0.0957    0.0000 O   0  0  0  0  0  0  0  0  0  0  0  0
    2.5321    1.3332    0.0000 C   0  0  0  0  0  0  0  0  0  0  0  0
   -0.7383    2.2688    0.0000 N   0  0  0  0  0  0  0  0  0  0  0  0
   -1.4528    1.8563    0.0000 C   0  0  0  0  0  0  0  0  0  0  0  0
   -2.1672    2.2688    0.0000 C   0  0  0  0  0  0  0  0  0  0  0  0
   -2.1672    3.0938    0.0000 N   0  0  0  0  0  0  0  0  0  0  0  0
   -1.4528    3.5063    0.0000 C   0  0  0  0  0  0  0  0  0  0  0  0
   -0.7383    3.0938    0.0000 C   0  0  0  0  0  0  0  0  0  0  0  0
    4.8376    0.0000    0.0000 Cl  0  0  0  0  0  0  0  0  0  0  0  0
  1  2  1  0
  2  3  1  0
  2 14  1  0
  3  4  2  0
  3  8  1  0
  4  5  1  0
  5  6  2  0
  5 13  1  0
  6  7  1  0
  7  8  2  0
  7 11  1  0
  8  9  1  0
  9 10  1  0
 11 12  1  0
 14 15  1  0
 15 16  2  0
 15 20  1  0
 16 17  1  0
 17 18  2  0
 17 25  1  0
 18 19  1  0
 19 20  2  0
 20 21  1  0
 21 22  2  0
 21 23  2  0
 21 24  1  0
 25 26  1  0
 25 30  1  0
 26 27  1  0
 27 28  1  0
 28 29  1  0
 29 30  1  0
M  END
>  <DRUGBANK_ID>  (1) 
DB05993

>  <COMMON_NAME>  (1) 
PRX-07034

>  <CAS_NUMBER>  (1) 
903580-39-2

>  <UNII>  (1) 
336H22ETCG

$$$$
