
     RDKit          2D

 19 20  0  0  0  0  0  0  0  0999 V2000
   -1.4289   -0.6971    0.0000 O   0  0  0  0  0  0  0  0  0  0  0  0
    0.0000    2.6029    0.0000 N   0  0  0  0  0  0  0  0  0  0  0  0
    0.7145    3.8404    0.0000 N   0  0  0  0  0  0  0  0  0  0  0  0
    1.4289    2.6029    0.0000 N   0  0  0  0  0  0  0  0  0  0  0  0
    0.0000   -0.6971    0.0000 C   0  0  0  0  0  0  0  0  0  0  0  0
    0.0000    0.1278    0.0000 C   0  0  0  0  0  0  0  0  0  0  0  0
   -0.7145   -1.1096    0.0000 C   0  0  0  0  0  0  0  0  0  0  0  0
   -0.7145   -1.9346    0.0000 C   0  0  0  0  0  0  0  0  0  0  0  0
   -0.7145    0.5403    0.0000 C   0  0  0  0  0  0  0  0  0  0  0  0
    0.7145    0.5403    0.0000 C   0  0  0  0  0  0  0  0  0  0  0  0
   -0.7145    1.3654    0.0000 C   0  0  0  0  0  0  0  0  0  0  0  0
    0.7145    1.3654    0.0000 C   0  0  0  0  0  0  0  0  0  0  0  0
    0.0000    1.7779    0.0000 C   0  0  0  0  0  0  0  0  0  0  0  0
   -1.4289   -2.3471    0.0000 C   0  0  0  0  0  0  0  0  0  0  0  0
    0.0000   -2.3471    0.0000 C   0  0  0  0  0  0  0  0  0  0  0  0
   -1.4289   -3.1721    0.0000 C   0  0  0  0  0  0  0  0  0  0  0  0
    0.0000   -3.1721    0.0000 C   0  0  0  0  0  0  0  0  0  0  0  0
   -0.7145   -3.5847    0.0000 C   0  0  0  0  0  0  0  0  0  0  0  0
    0.7145    3.0154    0.0000 C   0  0  0  0  0  0  0  0  0  0  0  0
  1  7  2  0
  2 13  1  0
  2 19  2  3
  3 19  1  0
  4 19  1  0
  5  6  1  0
  5  7  1  0
  6  9  2  0
  6 10  1  0
  7  8  1  0
  8 14  2  0
  8 15  1  0
  9 11  1  0
 10 12  2  0
 11 13  2  0
 12 13  1  0
 14 16  1  0
 15 17  2  0
 16 18  2  0
 17 18  1  0
M  END
>  <DRUGBANK_ID>  (1) 
DB07122

>  <COMMON_NAME>  (1) 
1-[4-(2-oxo-2-phenylethyl)phenyl]guanidine

$$$$
