
     RDKit          2D

 27 30  0  0  0  0  0  0  0  0999 V2000
   -2.9144    7.2674    0.0000 C   0  0  0  0  0  0  0  0  0  0  0  0
   -3.2724    8.0107    0.0000 C   0  0  0  0  0  0  0  0  0  0  0  0
   -2.8077    8.6924    0.0000 C   0  0  0  0  0  0  0  0  0  0  0  0
   -1.9850    8.6307    0.0000 C   0  0  0  0  0  0  0  0  0  0  0  0
   -1.6270    7.8874    0.0000 C   0  0  0  0  0  0  0  0  0  0  0  0
   -2.0918    7.2058    0.0000 C   0  0  0  0  0  0  0  0  0  0  0  0
   -1.7338    6.4625    0.0000 O   0  0  0  0  0  0  0  0  0  0  0  0
   -0.9111    6.4008    0.0000 C   0  0  0  0  0  0  0  0  0  0  0  0
   -0.4464    7.0824    0.0000 C   0  0  0  0  0  0  0  0  0  0  0  0
    0.3763    7.0208    0.0000 C   0  0  0  0  0  0  0  0  0  0  0  0
    0.7343    6.2775    0.0000 C   0  0  0  0  0  0  0  0  0  0  0  0
    0.2695    5.5959    0.0000 C   0  0  0  0  0  0  0  0  0  0  0  0
   -0.5532    5.6575    0.0000 N   0  0  0  0  0  0  0  0  0  0  0  0
    1.5570    6.2158    0.0000 C   0  0  0  0  0  0  0  0  0  0  0  0
    2.0217    6.8975    0.0000 O   0  0  0  0  0  0  0  0  0  0  0  0
    1.9149    5.4725    0.0000 N   0  0  0  0  0  0  0  0  0  0  0  0
    2.7399    5.4725    0.0000 C   0  0  0  0  0  0  0  0  0  0  0  0
    3.2543    4.8275    0.0000 C   0  0  0  0  0  0  0  0  0  0  0  0
    3.0707    4.0232    0.0000 C   0  0  0  0  0  0  0  0  0  0  0  0
    2.3274    3.6653    0.0000 N   0  0  0  0  0  0  0  0  0  0  0  0
    1.5841    4.0232    0.0000 C   0  0  0  0  0  0  0  0  0  0  0  0
    1.4005    4.8275    0.0000 C   0  0  0  0  0  0  0  0  0  0  0  0
    2.3274    2.8403    0.0000 C   0  0  0  0  0  0  0  0  0  0  0  0
    2.9108    2.2569    0.0000 C   0  0  0  0  0  0  0  0  0  0  0  0
    2.3274    1.6735    0.0000 C   0  0  0  0  0  0  0  0  0  0  0  0
    1.7441    2.2569    0.0000 C   0  0  0  0  0  0  0  0  0  0  0  0
   -3.1656    9.4357    0.0000 F   0  0  0  0  0  0  0  0  0  0  0  0
  1  2  2  0
  1  6  1  0
  2  3  1  0
  3  4  2  0
  3 27  1  0
  4  5  1  0
  5  6  2  0
  6  7  1  0
  7  8  1  0
  8  9  2  0
  8 13  1  0
  9 10  1  0
 10 11  2  0
 11 12  1  0
 11 14  1  0
 12 13  2  0
 14 15  2  0
 14 16  1  0
 16 17  1  0
 16 22  1  0
 17 18  1  0
 18 19  1  0
 19 20  1  0
 20 21  1  0
 20 23  1  0
 21 22  1  0
 23 24  1  0
 23 26  1  0
 24 25  1  0
 25 26  1  0
M  END
>  <DRUGBANK_ID>  (1) 
DB12929

>  <COMMON_NAME>  (1) 
JNJ-39220675

>  <CAS_NUMBER>  (1) 
959740-39-7

>  <UNII>  (1) 
41WC0AZ27V

$$$$
