DHG
     RDKit          2D

 28 27  0  0  0  0  0  0  0  0999 V2000
    0.4956   -0.0574    0.0000 C   0  0  0  0  0  0  0  0  0  0  0  0
   -0.1910   -0.5148    0.0000 C   0  0  0  0  0  0  0  0  0  0  0  0
   -0.9304   -0.1489    0.0000 C   0  0  0  0  0  0  0  0  0  0  0  0
   -1.6170   -0.6063    0.0000 C   0  0  0  0  0  0  0  0  0  0  0  0
   -2.3564   -0.2403    0.0000 C   0  0  0  0  0  0  0  0  0  0  0  0
   -3.0430   -0.6977    0.0000 C   0  0  0  0  0  0  0  0  0  0  0  0
   -3.7824   -0.3318    0.0000 C   0  0  0  0  0  0  0  0  0  0  0  0
   -4.4690   -0.7892    0.0000 C   0  0  0  0  0  0  0  0  0  0  0  0
   -5.2084   -0.4233    0.0000 C   0  0  0  0  0  0  0  0  0  0  0  0
   -5.8950   -0.8807    0.0000 C   0  0  0  0  0  0  0  0  0  0  0  0
   -6.6344   -0.5148    0.0000 C   0  0  0  0  0  0  0  0  0  0  0  0
   -7.3210   -0.9722    0.0000 C   0  0  0  0  0  0  0  0  0  0  0  0
    0.4428    0.7659    0.0000 O   0  0  0  0  0  0  0  0  0  0  0  0
    1.2350   -0.4233    0.0000 N   0  0  0  0  0  0  0  0  0  0  0  0
    2.6611   -0.3318    0.0000 C   0  0  0  0  0  0  0  0  0  0  0  0
    1.9216    0.0341    0.0000 C   0  0  0  0  0  0  0  0  0  0  0  0
    1.8688    0.8574    0.0000 C   0  0  0  0  0  0  0  0  0  0  0  0
    2.5554    1.3148    0.0000 C   0  0  0  0  0  0  0  0  0  0  0  0
    2.5026    2.1381    0.0000 C   0  0  0  0  0  0  0  0  0  0  0  0
    3.1892    2.5955    0.0000 C   0  0  0  0  0  0  0  0  0  0  0  0
    3.7211   -0.9798    0.0000 O   0  0  0  0  0  0  0  0  0  0  0  0
    4.4530    0.4991    0.0000 O   0  0  0  0  0  0  0  0  0  0  0  0
    3.3476    0.1256    0.0000 O   0  0  0  0  0  0  0  0  0  0  0  0
    4.0871   -0.2403    0.0000 P   0  0  0  0  0  0  0  0  0  0  0  0
    4.8265   -0.6063    0.0000 O   0  0  0  0  0  0  0  0  0  0  0  0
    5.5131   -0.1489    0.0000 C   0  0  0  0  0  0  0  0  0  0  0  0
    6.2525   -0.5148    0.0000 C   0  0  0  0  0  0  0  0  0  0  0  0
    6.9391   -0.0574    0.0000 O   0  0  0  0  0  0  0  0  0  0  0  0
  1  2  1  0
  1 13  2  0
  1 14  1  0
  2  3  1  0
  3  4  1  0
  4  5  1  0
  5  6  1  0
  6  7  1  0
  7  8  1  0
  8  9  1  0
  9 10  1  0
 10 11  1  0
 11 12  1  0
 16 15  1  6
 15 23  1  0
 16 14  1  0
 16 17  1  0
 17 18  1  0
 18 19  1  0
 19 20  1  0
 24 21  2  0
 24 22  1  0
 24 23  1  0
 24 25  1  0
 25 26  1  0
 26 27  1  0
 27 28  1  0
M  END
>  <DRUGBANK_ID>  (1) 
DB07657

>  <COMMON_NAME>  (1) 
PHOSPHONIC ACID 2-DODECANOYLAMINO-HEXYL ESTER PROPYL ESTER

$$$$
