
     RDKit          2D

 26 29  0  0  1  0  0  0  0  0999 V2000
    1.5767   -0.3873    0.0000 C   0  0  0  0  0  0  0  0  0  0  0  0
   -2.7182    1.1313    0.0000 C   0  0  0  0  0  0  0  0  0  0  0  0
   -3.0569    1.7186    0.0000 C   0  0  0  0  0  0  0  0  0  0  0  0
    1.2677    2.5711    0.0000 C   0  0  0  0  0  0  0  0  0  0  0  0
   -1.2483    2.9732    0.0000 C   0  0  0  0  0  0  0  0  0  0  0  0
    2.8919    2.2807    0.0000 C   0  0  0  0  0  0  0  0  0  0  0  0
    0.4555    2.7164    0.0000 C   0  0  0  0  0  0  0  0  0  0  0  0
    2.0798    2.4259    0.0000 C   0  0  0  0  0  0  0  0  0  0  0  0
   -0.3566    2.8616    0.0000 C   0  0  0  0  0  0  0  0  0  0  0  0
    0.4843    0.5338    0.0000 C   0  0  0  0  0  0  0  0  0  0  0  0
   -1.2594    0.9486    0.0000 C   0  0  0  0  0  0  0  0  0  0  0  0
    2.6404    0.8741    0.0000 C   0  0  0  0  0  0  0  0  0  0  0  0
    1.2964    0.3886    0.0000 C   0  0  0  0  0  0  0  0  0  0  0  0
   -1.9423    1.4116    0.0000 C   0  0  0  0  0  0  0  0  0  0  0  0
   -2.5251    2.3493    0.0000 C   0  0  0  0  0  0  0  0  0  0  0  0
    3.1722    1.5048    0.0000 C   0  0  0  0  0  0  0  0  0  0  0  0
    0.2040    1.3097    0.0000 C   0  0  0  0  0  0  0  0  0  0  0  0
    0.7358    1.9404    0.0000 C   0  0  0  0  0  0  0  0  0  0  0  0
    1.8283    1.0193    0.0000 C   0  0  0  0  0  0  0  0  0  0  0  0
   -0.6081    1.4549    0.0000 C   0  0  0  0  0  0  0  0  0  0  0  0
    1.5480    1.7952    0.0000 C   0  0  0  0  0  0  0  0  0  0  0  0
   -0.8884    2.2309    0.0000 C   0  0  0  0  0  0  0  0  0  0  0  0
   -1.7130    2.2041    0.0000 C   0  0  0  0  0  0  0  0  0  0  0  0
   -2.8054    3.1252    0.0000 O   0  0  0  0  0  0  0  0  0  0  0  0
    3.9843    1.3596    0.0000 O   0  0  0  0  0  0  0  0  0  0  0  0
   -1.6534    3.0269    0.0000 O   0  0  0  0  0  0  0  0  0  0  0  0
  8  6  1  0
  9  7  1  0
 13  1  1  0
 13 10  2  0
 14  2  2  0
 14 11  1  0
 15  3  1  0
 16  6  1  0
 16 12  1  0
 17 10  1  1
 18  7  1  6
 18 17  1  0
 19 12  2  0
 19 13  1  0
 20 11  1  6
 20 17  1  0
 21  4  1  6
 21  8  1  0
 21 18  1  0
 21 19  1  0
 22  5  1  6
 22  9  1  0
 22 20  1  0
 23 14  1  0
 23 15  1  0
 23 22  1  0
 23 26  1  1
 24 15  2  0
 25 16  2  0
M  END
>  <DRUGBANK_ID>  (1) 
DB11529

>  <COMMON_NAME>  (1) 
Melengestrol

>  <CAS_NUMBER>  (1) 
5633-18-1

>  <UNII>  (1) 
BX98J4T6JU

>  <SYNONYMS>  (1) 
Melengesterol; Melengestrel; Melengestrol; Melengestrolo; Melengestrolum

$$$$
