
     RDKit          2D

 38 39  0  0  1  0  0  0  0  0999 V2000
   -4.1503   -0.8486    0.0000 O   0  0  0  0  0  0  0  0  0  0  0  0
   -4.1503   -0.0236    0.0000 S   0  0  0  0  0  0  0  0  0  0  0  0
   -4.1503    0.8013    0.0000 O   0  0  0  0  0  0  0  0  0  0  0  0
   -3.3253   -0.0236    0.0000 O   0  0  0  0  0  0  0  0  0  0  0  0
   -4.9753   -0.0236    0.0000 O   0  0  0  0  0  0  0  0  0  0  0  0
    0.0123    2.4383    0.0000 C   0  0  0  0  0  0  0  0  0  0  0  0
    0.6798    1.9533    0.0000 O   0  0  0  0  0  0  0  0  0  0  0  0
    0.4248    1.1687    0.0000 C   0  0  0  0  0  0  0  0  0  0  0  0
    0.9098    0.5013    0.0000 O   0  0  0  0  0  0  0  0  0  0  0  0
    1.7303    0.5875    0.0000 C   0  0  0  0  0  0  0  0  0  0  0  0
    2.0658    1.3412    0.0000 C   0  0  0  0  0  0  0  0  0  0  0  0
    1.5809    2.0086    0.0000 O   0  0  0  0  0  0  0  0  0  0  0  0
    2.8863    1.4274    0.0000 C   0  0  0  0  0  0  0  0  0  0  0  0
    3.2218    2.1811    0.0000 N   0  0  0  0  0  0  0  0  0  0  0  0
    3.3712    0.7600    0.0000 C   0  0  0  0  0  0  0  0  0  0  0  0
    3.0356    0.0063    0.0000 C   0  0  0  0  0  0  0  0  0  0  0  0
    3.5206   -0.6610    0.0000 N   0  0  0  0  0  0  0  0  0  0  0  0
    2.2152   -0.0798    0.0000 C   0  0  0  0  0  0  0  0  0  0  0  0
    1.8796   -0.8335    0.0000 O   0  0  0  0  0  0  0  0  0  0  0  0
    2.3645   -1.5010    0.0000 C   0  0  0  0  0  0  0  0  0  0  0  0
    3.1850   -1.4147    0.0000 O   0  0  0  0  0  0  0  0  0  0  0  0
    3.6699   -2.0822    0.0000 C   0  0  0  0  0  0  0  0  0  0  0  0
    4.4904   -1.9959    0.0000 C   0  0  0  0  0  0  0  0  0  0  0  0
    4.9753   -2.6634    0.0000 C   0  0  0  0  0  0  0  0  0  0  0  0
    4.8260   -1.2422    0.0000 O   0  0  0  0  0  0  0  0  0  0  0  0
    3.3343   -2.8358    0.0000 C   0  0  0  0  0  0  0  0  0  0  0  0
    3.8193   -3.5033    0.0000 O   0  0  0  0  0  0  0  0  0  0  0  0
    2.5139   -2.9221    0.0000 C   0  0  0  0  0  0  0  0  0  0  0  0
    2.1783   -3.6758    0.0000 O   0  0  0  0  0  0  0  0  0  0  0  0
    2.0290   -2.2546    0.0000 C   0  0  0  0  0  0  0  0  0  0  0  0
    1.2085   -2.3409    0.0000 N   0  0  0  0  0  0  0  0  0  0  0  0
   -0.4001    1.1687    0.0000 C   0  0  0  0  0  0  0  0  0  0  0  0
   -0.8850    0.5013    0.0000 O   0  0  0  0  0  0  0  0  0  0  0  0
   -0.6550    1.9533    0.0000 C   0  0  0  0  0  0  0  0  0  0  0  0
   -1.4396    2.2083    0.0000 O   0  0  0  0  0  0  0  0  0  0  0  0
    0.0123    3.2633    0.0000 C   0  0  0  0  0  0  0  0  0  0  0  0
    0.7268    3.6758    0.0000 C   0  0  0  0  0  0  0  0  0  0  0  0
   -0.7021    3.6758    0.0000 N   0  0  0  0  0  0  0  0  0  0  0  0
  1  2  1  0
  2  3  1  0
  2  4  2  0
  2  5  2  0
  6  7  1  1
  6 34  1  0
  6 36  1  0
  8  7  1  0
  8  9  1  1
 10  9  1  6
 10 11  1  0
 10 18  1  0
 11 12  1  1
 11 13  1  0
 13 14  1  6
 13 15  1  0
 16 15  1  0
 16 17  1  6
 18 16  1  0
 18 19  1  1
 20 19  1  1
 20 21  1  0
 22 21  1  6
 22 23  1  0
 22 26  1  0
 23 24  1  6
 23 25  1  0
 26 27  1  1
 26 28  1  0
 28 29  1  6
 28 30  1  0
 30 20  1  0
 30 31  1  1
 32  8  1  0
 32 33  1  6
 34 32  1  0
 34 35  1  6
 36 37  1  1
 36 38  1  0
M  END
>  <DRUGBANK_ID>  (1) 
DB16951

>  <COMMON_NAME>  (1) 
NB-124 sulfate

>  <CAS_NUMBER>  (1) 
1375073-96-3

>  <UNII>  (1) 
DZ671709NT

>  <SYNONYMS>  (1) 
6'-(r)-methyl-5-o-(5-amino-5,6-dideoxy-a-l-talofuranosyl)- paromamine sulfate; 6'-(r)-methyl-5-o-(5-amino-5,6-dideoxy-alpha-l-talofuranosyl)-paromamine sulfate; D-streptamine, o-5-amino-5,6-dideoxy-.beta.-d-allofuranosyl-(1->5)-o-(2-amino-2,7-dideoxy-d-glycero-.alpha.-d-gluco-heptopyranosyl-(1->4))-2-deoxy-, sulfate; Elx-02 sulfate; Exaluren disulfate; Exaluren sulfate

$$$$
