
     RDKit          2D

 24 25  0  0  1  0  0  0  0  0999 V2000
    0.2214    1.0312    0.0000 O   0  0  0  0  0  0  0  0  0  0  0  0
    0.2214   -2.2687    0.0000 O   0  0  0  0  0  0  0  0  0  0  0  0
    0.9359   -0.2062    0.0000 O   0  0  0  0  0  0  0  0  0  0  0  0
   -0.4930   -0.2062    0.0000 N   0  0  0  0  0  0  0  0  0  0  0  0
    1.6503   -1.4437    0.0000 N   0  0  0  0  0  0  0  0  0  0  0  0
    2.3649   -1.8562    0.0000 N   0  0  0  0  0  0  0  0  0  0  0  0
   -0.4930   -1.0312    0.0000 C   0  0  0  0  0  0  0  0  0  0  0  0
   -1.2075   -1.4437    0.0000 C   0  0  0  0  0  0  0  0  0  0  0  0
   -1.2075   -2.2687    0.0000 C   0  0  0  0  0  0  0  0  0  0  0  0
    0.2214   -1.4437    0.0000 C   0  0  0  0  0  0  0  0  0  0  0  0
   -1.9219   -2.6812    0.0000 C   0  0  0  0  0  0  0  0  0  0  0  0
   -0.4930   -2.6812    0.0000 C   0  0  0  0  0  0  0  0  0  0  0  0
    0.9359   -1.0312    0.0000 C   0  0  0  0  0  0  0  0  0  0  0  0
    0.2214    0.2062    0.0000 C   0  0  0  0  0  0  0  0  0  0  0  0
   -1.9219   -3.5062    0.0000 C   0  0  0  0  0  0  0  0  0  0  0  0
   -0.4930   -3.5062    0.0000 C   0  0  0  0  0  0  0  0  0  0  0  0
   -1.2075   -3.9187    0.0000 C   0  0  0  0  0  0  0  0  0  0  0  0
    0.9359    1.4437    0.0000 C   0  0  0  0  0  0  0  0  0  0  0  0
    0.9359    2.2687    0.0000 C   0  0  0  0  0  0  0  0  0  0  0  0
    0.2214    2.6812    0.0000 C   0  0  0  0  0  0  0  0  0  0  0  0
    1.6503    2.6812    0.0000 C   0  0  0  0  0  0  0  0  0  0  0  0
    0.2214    3.5062    0.0000 C   0  0  0  0  0  0  0  0  0  0  0  0
    1.6503    3.5062    0.0000 C   0  0  0  0  0  0  0  0  0  0  0  0
    0.9359    3.9187    0.0000 C   0  0  0  0  0  0  0  0  0  0  0  0
  1 14  1  0
  1 18  1  0
  2 10  2  0
  3 14  2  0
  4 14  1  0
  5  6  3  0
  5 13  1  0
  7  4  1  0
  7  8  1  1
  7 10  1  0
  8  9  1  0
  9 11  2  0
  9 12  1  0
 10 13  1  0
 11 15  1  0
 12 16  2  0
 15 17  2  0
 16 17  1  0
 18 19  1  0
 19 20  2  0
 19 21  1  0
 20 22  1  0
 21 23  2  0
 22 24  2  0
 23 24  1  0
M  CHG  1   5   1
M  END
>  <DRUGBANK_ID>  (1) 
DB02766

>  <SECONDARY_ACCESSION_NUMBERS>  (1) 
EXPT03288

>  <COMMON_NAME>  (1) 
(3R)-3-{[(Benzyloxy)carbonyl]amino}-2-oxo-4-phenylbutane-1-diazonium

$$$$
