EED
     RDKit          2D

 23 26  0  0  0  0  0  0  0  0999 V2000
    0.4026    0.1232    0.0000 C   0  0  0  0  0  0  0  0  0  0  0  0
    1.2147    0.2685    0.0000 C   0  0  0  0  0  0  0  0  0  0  0  0
    1.7465   -0.3623    0.0000 C   0  0  0  0  0  0  0  0  0  0  0  0
    2.5586   -0.2170    0.0000 C   0  0  0  0  0  0  0  0  0  0  0  0
    2.8389    0.5589    0.0000 C   0  0  0  0  0  0  0  0  0  0  0  0
    3.6510    0.7041    0.0000 O   0  0  0  0  0  0  0  0  0  0  0  0
    2.3071    1.1896    0.0000 C   0  0  0  0  0  0  0  0  0  0  0  0
    1.4950    1.0444    0.0000 C   0  0  0  0  0  0  0  0  0  0  0  0
    0.9632    1.6751    0.0000 C   0  0  0  0  0  0  0  0  0  0  0  0
    0.1510    1.5299    0.0000 C   0  0  0  0  0  0  0  0  0  0  0  0
   -0.1293    0.7539    0.0000 C   0  0  0  0  0  0  0  0  0  0  0  0
   -0.9414    0.6087    0.0000 C   0  0  0  0  0  0  0  0  0  0  0  0
   -1.5927    1.1151    0.0000 C   0  0  0  0  0  0  0  0  0  0  0  0
   -2.2756    0.6521    0.0000 C   0  0  0  0  0  0  0  0  0  0  0  0
   -2.0462   -0.1404    0.0000 C   0  0  0  0  0  0  0  0  0  0  0  0
   -2.5526   -0.7917    0.0000 O   0  0  0  0  0  0  0  0  0  0  0  0
   -1.2217   -0.1672    0.0000 C   0  0  0  0  0  0  0  0  0  0  0  0
   -1.5816   -0.9096    0.0000 C   0  0  0  0  0  0  0  0  0  0  0  0
   -0.6899   -0.7979    0.0000 C   0  0  0  0  0  0  0  0  0  0  0  0
    0.1223   -0.6527    0.0000 C   0  0  0  0  0  0  0  0  0  0  0  0
    0.6541   -1.2834    0.0000 C   0  0  0  0  0  0  0  0  0  0  0  0
    1.4662   -1.1382    0.0000 O   0  0  0  0  0  0  0  0  0  0  0  0
    1.9980   -1.7689    0.0000 C   0  0  0  0  0  0  0  0  0  0  0  0
  1 20  1  0
  1 11  1  0
  1  2  1  1
  2  3  2  0
  2  8  1  0
  3  4  1  0
  4  5  2  0
  5  7  1  0
  5  6  1  0
  7  8  2  0
  8  9  1  0
  9 10  1  0
 11 10  1  6
 11 12  1  0
 12 17  1  0
 12 13  1  1
 13 14  1  0
 14 15  1  0
 15 16  1  1
 15 17  1  0
 17 19  1  0
 17 18  1  1
 19 20  1  0
 20 21  1  1
 21 22  1  0
 22 23  1  0
M  END
>  <DRUGBANK_ID>  (1) 
DB07707

>  <COMMON_NAME>  (1) 
(9BETA,11ALPHA,13ALPHA,14BETA,17ALPHA)-11-(METHOXYMETHYL)ESTRA-1(10),2,4-TRIENE-3,17-DIOL

$$$$
