074
     RDKit          2D

 27 27  0  0  0  0  0  0  0  0999 V2000
   -5.3793    0.7044    0.0000 C   0  0  0  0  0  0  0  0  0  0  0  0
   -4.5866    0.9332    0.0000 C   0  0  0  0  0  0  0  0  0  0  0  0
   -3.9922    0.3611    0.0000 C   0  0  0  0  0  0  0  0  0  0  0  0
   -3.1995    0.5899    0.0000 N   0  0  0  0  0  0  0  0  0  0  0  0
   -2.6051    0.0179    0.0000 C   0  0  0  0  0  0  0  0  0  0  0  0
   -2.8032   -0.7829    0.0000 O   0  0  0  0  0  0  0  0  0  0  0  0
   -1.8124    0.2467    0.0000 C   0  0  0  0  0  0  0  0  0  0  0  0
   -1.2180   -0.3253    0.0000 C   0  0  0  0  0  0  0  0  0  0  0  0
   -1.6143    1.0476    0.0000 O   0  0  0  0  0  0  0  0  0  0  0  0
   -0.4253   -0.0965    0.0000 C   0  0  0  0  0  0  0  0  0  0  0  0
   -0.2272    0.7044    0.0000 O   0  0  0  0  0  0  0  0  0  0  0  0
    0.1692   -0.6685    0.0000 N   0  0  0  0  0  0  0  0  0  0  0  0
    0.9618   -0.4397    0.0000 C   0  0  0  0  0  0  0  0  0  0  0  0
    1.1600    0.3611    0.0000 C   0  0  0  0  0  0  0  0  0  0  0  0
    1.9526    0.5899    0.0000 C   0  0  0  0  0  0  0  0  0  0  0  0
    0.5655    0.9332    0.0000 C   0  0  0  0  0  0  0  0  0  0  0  0
    0.7636    1.7340    0.0000 C   0  0  0  0  0  0  0  0  0  0  0  0
    1.5563   -1.0118    0.0000 C   0  0  0  0  0  0  0  0  0  0  0  0
    1.3581   -1.8126    0.0000 O   0  0  0  0  0  0  0  0  0  0  0  0
    2.3489   -0.7829    0.0000 N   0  0  0  0  0  0  0  0  0  0  0  0
    2.6297   -0.0072    0.0000 C   0  0  0  0  0  0  0  0  0  0  0  0
    3.4542   -0.0345    0.0000 C   0  0  0  0  0  0  0  0  0  0  0  0
    3.6830   -0.8271    0.0000 C   0  0  0  0  0  0  0  0  0  0  0  0
    2.9999   -1.2897    0.0000 C   0  0  0  0  0  0  0  0  0  0  0  0
    2.9726   -2.1142    0.0000 C   0  0  0  0  0  0  0  0  0  0  0  0
    3.6730   -2.5502    0.0000 O   0  0  0  0  0  0  0  0  0  0  0  0
    2.2449   -2.5029    0.0000 O   0  0  0  0  0  0  0  0  0  0  0  0
  1  2  1  0
  2  3  1  0
  3  4  1  0
  4  5  1  0
  5  6  2  0
  5  7  1  0
  7  8  1  0
  7  9  1  1
  8 10  1  0
 10 11  2  0
 10 12  1  0
 13 12  1  1
 13 14  1  0
 13 18  1  0
 14 15  1  6
 14 16  1  0
 16 17  1  0
 18 19  2  0
 18 20  1  0
 20 21  1  0
 20 24  1  0
 21 22  1  0
 22 23  1  0
 23 24  1  0
 24 25  1  1
 25 26  2  0
 25 27  1  0
M  END
>  <DRUGBANK_ID>  (1) 
DB02855

>  <SECONDARY_ACCESSION_NUMBERS>  (1) 
EXPT00003

>  <COMMON_NAME>  (1) 
N-(3-Propylcarbamoyloxirane-2-Carbonyl)-Isoleucyl-Proline

>  <CAS_NUMBER>  (1) 
134448-10-5

>  <SYNONYMS>  (1) 
N-(3-Propylcarbamoyloxirane-2-carbonyl)-isoleucyl-proline

$$$$
