BPZ
     RDKit          2D

 20 22  0  0  0  0  0  0  0  0999 V2000
    0.2357    3.1151    0.0000 O   0  0  0  0  0  0  0  0  0  0  0  0
    0.2357    2.2901    0.0000 C   0  0  0  0  0  0  0  0  0  0  0  0
   -0.4788    1.8776    0.0000 C   0  0  0  0  0  0  0  0  0  0  0  0
   -0.4788    1.0526    0.0000 C   0  0  0  0  0  0  0  0  0  0  0  0
    0.9502    1.8776    0.0000 C   0  0  0  0  0  0  0  0  0  0  0  0
    0.9502    1.0526    0.0000 C   0  0  0  0  0  0  0  0  0  0  0  0
    0.2357    0.6401    0.0000 C   0  0  0  0  0  0  0  0  0  0  0  0
    0.2357   -0.1849    0.0000 C   0  0  0  0  0  0  0  0  0  0  0  0
   -0.0465   -0.9602    0.0000 C   0  0  0  0  0  0  0  0  0  0  0  0
    0.4838   -1.5922    0.0000 C   0  0  0  0  0  0  0  0  0  0  0  0
    1.0482   -0.0417    0.0000 C   0  0  0  0  0  0  0  0  0  0  0  0
    1.5785   -0.6737    0.0000 C   0  0  0  0  0  0  0  0  0  0  0  0
    1.2963   -1.4489    0.0000 C   0  0  0  0  0  0  0  0  0  0  0  0
   -0.5768   -0.0417    0.0000 C   0  0  0  0  0  0  0  0  0  0  0  0
   -0.8589    0.7336    0.0000 C   0  0  0  0  0  0  0  0  0  0  0  0
   -1.6714    0.8768    0.0000 C   0  0  0  0  0  0  0  0  0  0  0  0
   -2.2017    0.2448    0.0000 C   0  0  0  0  0  0  0  0  0  0  0  0
   -3.0142    0.3881    0.0000 O   0  0  0  0  0  0  0  0  0  0  0  0
   -1.9195   -0.5304    0.0000 C   0  0  0  0  0  0  0  0  0  0  0  0
   -1.1071   -0.6737    0.0000 C   0  0  0  0  0  0  0  0  0  0  0  0
  1  2  1  0
  2  5  2  0
  2  3  1  0
  3  4  2  0
  4  7  1  0
  5  6  1  0
  6  7  2  0
  7  8  1  0
  8 14  1  0
  8 11  1  0
  8  9  1  0
  9 10  1  0
 10 13  1  0
 12 11  1  0
 12 13  1  0
 14 20  1  0
 15 14  2  0
 15 16  1  0
 16 17  2  0
 17 18  1  0
 17 19  1  0
 20 19  2  0
M  END
>  <DRUGBANK_ID>  (1) 
DB07485

>  <COMMON_NAME>  (1) 
Bisphenol Z

>  <CAS_NUMBER>  (1) 
843-55-0

>  <UNII>  (1) 
64ZF6464QY

>  <SYNONYMS>  (1) 
4,4'-cyclohexane-1,1-diyldiphenol; 4,4'-cyclohexylidenebisphenol; Antigene W; Bis-Z

$$$$
