
     RDKit          2D

 26 29  0  0  1  0  0  0  0  0999 V2000
    5.5251   -1.9861    0.0000 N   0  0  0  0  0  0  0  0  0  0  0  0
    4.7046   -1.8998    0.0000 C   0  0  0  0  0  0  0  0  0  0  0  0
    4.2197   -2.5673    0.0000 N   0  0  0  0  0  0  0  0  0  0  0  0
    3.3992   -2.4810    0.0000 C   0  0  0  0  0  0  0  0  0  0  0  0
    2.9143   -3.1485    0.0000 O   0  0  0  0  0  0  0  0  0  0  0  0
    3.0637   -1.7273    0.0000 C   0  0  0  0  0  0  0  0  0  0  0  0
    3.5486   -1.0599    0.0000 C   0  0  0  0  0  0  0  0  0  0  0  0
    4.3691   -1.1461    0.0000 N   0  0  0  0  0  0  0  0  0  0  0  0
    3.0637   -0.3925    0.0000 N   0  0  0  0  0  0  0  0  0  0  0  0
    2.2790   -0.6474    0.0000 C   0  0  0  0  0  0  0  0  0  0  0  0
    2.2790   -1.4724    0.0000 N   0  0  0  0  0  0  0  0  0  0  0  0
    3.3186    0.3922    0.0000 C   0  0  0  0  0  0  0  0  0  0  0  0
    2.8337    1.0596    0.0000 O   0  0  0  0  0  0  0  0  0  0  0  0
    3.3186    1.7270    0.0000 C   0  0  0  0  0  0  0  0  0  0  0  0
    3.0637    2.5117    0.0000 C   0  0  0  0  0  0  0  0  0  0  0  0
    3.6157    3.1248    0.0000 O   0  0  0  0  0  0  0  0  0  0  0  0
    4.1032    1.4721    0.0000 C   0  0  0  0  0  0  0  0  0  0  0  0
    4.8878    1.7270    0.0000 O   0  0  0  0  0  0  0  0  0  0  0  0
    5.3728    1.0596    0.0000 C   0  0  0  0  0  0  0  0  0  0  0  0
    6.1978    1.0596    0.0000 C   0  0  0  0  0  0  0  0  0  0  0  0
    6.6103    1.7741    0.0000 P   0  0  0  0  0  0  0  0  0  0  0  0
    7.0228    2.4885    0.0000 O   0  0  0  0  0  0  0  0  0  0  0  0
    7.3247    1.3616    0.0000 O   0  0  0  0  0  0  0  0  0  0  0  0
    5.8958    2.1866    0.0000 O   0  0  0  0  0  0  0  0  0  0  0  0
    4.8878    0.3922    0.0000 O   0  0  0  0  0  0  0  0  0  0  0  0
    4.1032    0.6471    0.0000 C   0  0  0  0  0  0  0  0  0  0  0  0
  1  2  1  0
  2  3  2  0
  2  8  1  0
  3  4  1  0
  4  5  2  0
  4  6  1  0
  6  7  2  0
  6 11  1  0
  7  8  1  0
  7  9  1  0
  9 10  1  0
 10 11  2  0
 12  9  1  6
 12 13  1  0
 12 26  1  0
 13 14  1  0
 14 15  1  6
 14 17  1  0
 15 16  1  0
 17 18  1  1
 17 26  1  0
 18 19  1  0
 19 20  1  1
 19 25  1  0
 20 21  1  0
 21 22  1  0
 21 23  1  0
 21 24  2  0
 26 25  1  1
M  END
>  <DRUGBANK_ID>  (1) 
DB04754

>  <COMMON_NAME>  (1) 
GUANOSINE-2',3'-O-ETHYLIDENEPHOSPHONATE

$$$$
