LPM
     RDKit          2D

 12 11  0  0  0  0  0  0  0  0999 V2000
   -2.5389    0.1160    0.0000 C   0  0  0  0  0  0  0  0  0  0  0  0
   -3.2534   -0.2965    0.0000 O   0  0  0  0  0  0  0  0  0  0  0  0
   -2.5389    0.9411    0.0000 N   0  0  0  0  0  0  0  0  0  0  0  0
   -1.8244   -0.2965    0.0000 C   0  0  0  0  0  0  0  0  0  0  0  0
   -1.1099    0.1160    0.0000 C   0  0  0  0  0  0  0  0  0  0  0  0
   -0.3953   -0.2965    0.0000 C   0  0  0  0  0  0  0  0  0  0  0  0
    0.3191    0.1160    0.0000 C   0  0  0  0  0  0  0  0  0  0  0  0
    1.0337   -0.2965    0.0000 C   0  0  0  0  0  0  0  0  0  0  0  0
    1.0337   -1.1216    0.0000 S   0  0  0  0  0  0  0  0  0  0  0  0
    1.7482    0.1160    0.0000 C   0  0  0  0  0  0  0  0  0  0  0  0
    2.4628   -0.2965    0.0000 C   0  0  0  0  0  0  0  0  0  0  0  0
    3.1772    0.1160    0.0000 S   0  0  0  0  0  0  0  0  0  0  0  0
  1  2  2  0
  1  3  1  0
  1  4  1  0
  4  5  1  0
  5  6  1  0
  6  7  1  0
  8  7  1  6
  8  9  1  0
  8 10  1  0
 10 11  1  0
 11 12  1  0
M  END
>  <DRUGBANK_ID>  (1) 
DB08120

>  <COMMON_NAME>  (1) 
6,8-DIMERCAPTO-OCTANOIC ACID AMIDE

$$$$
