
     RDKit          2D

 29 32  0  0  1  0  0  0  0  0999 V2000
    0.1536    1.3672    0.0000 C   0  0  0  0  0  0  0  0  0  0  0  0
   -0.3984    0.7541    0.0000 C   0  0  0  0  0  0  0  0  0  0  0  0
   -0.1435   -0.0305    0.0000 C   0  0  0  0  0  0  0  0  0  0  0  0
   -0.6284   -0.6979    0.0000 C   0  0  0  0  0  0  0  0  0  0  0  0
   -0.1435   -1.3654    0.0000 N   0  0  0  0  0  0  0  0  0  0  0  0
    0.6411   -1.1104    0.0000 N   0  0  0  0  0  0  0  0  0  0  0  0
    0.6411   -0.2854    0.0000 C   0  0  0  0  0  0  0  0  0  0  0  0
    1.3556    0.1271    0.0000 N   0  0  0  0  0  0  0  0  0  0  0  0
    2.0701   -0.2854    0.0000 C   0  0  0  0  0  0  0  0  0  0  0  0
    2.0701   -1.1104    0.0000 C   0  0  0  0  0  0  0  0  0  0  0  0
    1.3556   -1.5229    0.0000 C   0  0  0  0  0  0  0  0  0  0  0  0
    1.3556   -2.3479    0.0000 N   0  0  0  0  0  0  0  0  0  0  0  0
    0.6411   -2.7604    0.0000 C   0  0  0  0  0  0  0  0  0  0  0  0
    0.6411   -3.5854    0.0000 C   0  0  0  0  0  0  0  0  0  0  0  0
    1.3556   -3.9979    0.0000 C   0  0  0  0  0  0  0  0  0  0  0  0
    1.3556   -4.8229    0.0000 C   0  0  0  0  0  0  0  0  0  0  0  0
    0.6411   -5.2354    0.0000 C   0  0  0  0  0  0  0  0  0  0  0  0
   -0.0734   -4.8229    0.0000 N   0  0  0  0  0  0  0  0  0  0  0  0
   -0.0734   -3.9979    0.0000 C   0  0  0  0  0  0  0  0  0  0  0  0
   -0.7878   -5.2354    0.0000 O   0  0  0  0  0  0  0  0  0  0  0  0
    2.7845    0.1271    0.0000 N   0  0  0  0  0  0  0  0  0  0  0  0
    2.7845    0.9521    0.0000 C   0  0  0  0  0  0  0  0  0  0  0  0
    3.4990    1.3646    0.0000 C   0  0  0  0  0  0  0  0  0  0  0  0
    4.2135    0.9521    0.0000 C   0  0  0  0  0  0  0  0  0  0  0  0
    4.2135    0.1271    0.0000 C   0  0  0  0  0  0  0  0  0  0  0  0
    3.4990   -0.2854    0.0000 C   0  0  0  0  0  0  0  0  0  0  0  0
    3.4990   -1.1104    0.0000 C   0  0  0  0  0  0  0  0  0  0  0  0
    2.7845   -1.5229    0.0000 C   0  0  0  0  0  0  0  0  0  0  0  0
    2.7845   -2.3479    0.0000 O   0  0  0  0  0  0  0  0  0  0  0  0
  1  2  1  0
  2  3  1  0
  3  4  1  0
  3  7  2  0
  4  5  2  0
  5  6  1  0
  6  7  1  0
  6 11  1  0
  7  8  1  0
  8  9  2  0
  9 10  1  0
  9 21  1  0
 10 11  2  0
 11 12  1  0
 12 13  1  0
 13 14  1  0
 14 15  2  0
 14 19  1  0
 15 16  1  0
 16 17  2  0
 17 18  1  0
 18 19  2  0
 18 20  1  0
 21 22  1  0
 21 26  1  0
 22 23  1  0
 23 24  1  0
 24 25  1  0
 25 26  1  0
 26 27  1  1
 27 28  1  0
 28 29  1  0
M  CHG  2  18   1  20  -1
M  END
>  <DRUGBANK_ID>  (1) 
DB12021

>  <COMMON_NAME>  (1) 
Dinaciclib

>  <CAS_NUMBER>  (1) 
779353-01-4

>  <UNII>  (1) 
4V8ECV0NBQ

>  <SYNONYMS>  (1) 
Dinaciclib

$$$$
