
     RDKit          2D

 28 29  0  0  0  0  0  0  0  0999 V2000
    0.7109   -0.2154    0.0000 C   0  0  0  0  0  0  0  0  0  0  0  0
   -2.1435   -0.2236    0.0000 C   0  0  0  0  0  0  0  0  0  0  0  0
    0.0048   -0.6353    0.0000 C   0  0  0  0  0  0  0  0  0  0  0  0
   -1.4204   -0.6356    0.0000 C   0  0  0  0  0  0  0  0  0  0  0  0
   -0.7099   -0.2229    0.0000 C   0  0  0  0  0  0  0  0  0  0  0  0
    1.4298   -0.6203    0.0000 N   0  0  0  0  0  0  0  0  0  0  0  0
    4.2588    1.0721    0.0000 C   0  0  0  0  0  0  0  0  0  0  0  0
   -2.8454   -0.6485    0.0000 O   0  0  0  0  0  0  0  0  0  0  0  0
    3.5608    0.6525    0.0000 C   0  0  0  0  0  0  0  0  0  0  0  0
    0.7027    0.6098    0.0000 O   0  0  0  0  0  0  0  0  0  0  0  0
   -2.1394    0.6016    0.0000 O   0  0  0  0  0  0  0  0  0  0  0  0
    4.9860    0.6675    0.0000 O   0  0  0  0  0  0  0  0  0  0  0  0
    2.8341    1.0446    0.0000 C   0  0  0  0  0  0  0  0  0  0  0  0
    3.5610   -0.1729    0.0000 C   0  0  0  0  0  0  0  0  0  0  0  0
    2.1487   -0.1998    0.0000 C   0  0  0  0  0  0  0  0  0  0  0  0
    4.2545    1.8973    0.0000 O   0  0  0  0  0  0  0  0  0  0  0  0
    2.1361    0.6250    0.0000 C   0  0  0  0  0  0  0  0  0  0  0  0
    2.8551   -0.6054    0.0000 C   0  0  0  0  0  0  0  0  0  0  0  0
   -1.4152   -1.4604    0.0000 C   0  0  0  0  0  0  0  0  0  0  0  0
   -0.6658   -1.1102    0.0000 C   0  0  0  0  0  0  0  0  0  0  0  0
    0.6795   -1.1102    0.0000 C   0  0  0  0  0  0  0  0  0  0  0  0
   -2.1330   -1.8774    0.0000 O   0  0  0  0  0  0  0  0  0  0  0  0
   -4.2765   -1.4788    0.0000 O   0  0  0  0  0  0  0  0  0  0  0  0
   -3.5617   -1.8867    0.0000 C   0  0  0  0  0  0  0  0  0  0  0  0
   -2.8479   -1.4697    0.0000 C   0  0  0  0  0  0  0  0  0  0  0  0
   -4.9860   -1.8958    0.0000 C   0  0  0  0  0  0  0  0  0  0  0  0
   -0.4158   -1.8973    0.0000 C   0  0  0  0  0  0  0  0  0  0  0  0
    0.4088   -1.8973    0.0000 C   0  0  0  0  0  0  0  0  0  0  0  0
  2  4  1  0
  3  1  1  0
  4  5  1  1
  4 19  1  0
  5  3  1  0
  6  1  1  0
  8  2  1  0
  9  7  1  1
  9 14  1  0
  9 13  1  0
 10  1  2  0
 11  2  2  0
 12  7  1  0
 13 17  1  0
 14 18  1  0
 15  6  1  1
 16  7  2  0
 17 15  1  0
 18 15  1  0
 20  3  1  0
 21  3  1  0
 22 19  1  0
 23 24  1  0
 24 25  1  0
 25 22  1  0
 26 23  1  0
 27 20  1  0
 27 28  1  0
 28 21  1  0
M  END
>  <DRUGBANK_ID>  (1) 
DB11623

>  <COMMON_NAME>  (1) 
Candoxatrilat

>  <CAS_NUMBER>  (1) 
123122-54-3

>  <UNII>  (1) 
7WU8BZ90TH

>  <SYNONYMS>  (1) 
Candoxatrilat; Candoxatrilate

$$$$
