BPX
     RDKit          2D

 19 19  0  0  0  0  0  0  0  0999 V2000
   -2.3003   -0.5957    0.0000 C   0  0  0  0  0  0  0  0  0  0  0  0
   -3.0147   -0.1832    0.0000 C   0  0  0  0  0  0  0  0  0  0  0  0
   -3.0147    0.6418    0.0000 C   0  0  0  0  0  0  0  0  0  0  0  0
   -2.3003    1.0543    0.0000 C   0  0  0  0  0  0  0  0  0  0  0  0
   -1.5858    0.6418    0.0000 C   0  0  0  0  0  0  0  0  0  0  0  0
   -1.5858   -0.1832    0.0000 C   0  0  0  0  0  0  0  0  0  0  0  0
   -0.8713   -0.5957    0.0000 C   0  0  0  0  0  0  0  0  0  0  0  0
   -0.1569   -0.1832    0.0000 C   0  0  0  0  0  0  0  0  0  0  0  0
   -0.1569    0.6418    0.0000 C   0  0  0  0  0  0  0  0  0  0  0  0
   -0.8713    1.0543    0.0000 O   0  0  0  0  0  0  0  0  0  0  0  0
    0.5576    1.0543    0.0000 O   0  0  0  0  0  0  0  0  0  0  0  0
    0.5576   -0.5957    0.0000 C   0  0  0  0  0  0  0  0  0  0  0  0
    1.2721   -0.1832    0.0000 C   0  0  0  0  0  0  0  0  0  0  0  0
    1.6846   -0.8977    0.0000 O   0  0  0  0  0  0  0  0  0  0  0  0
    0.8596    0.5312    0.0000 O   0  0  0  0  0  0  0  0  0  0  0  0
    1.9866    0.2293    0.0000 C   0  0  0  0  0  0  0  0  0  0  0  0
    2.7010   -0.1832    0.0000 N   0  0  0  0  0  0  0  0  0  0  0  0
    3.4155    0.2293    0.0000 O   0  0  0  0  0  0  0  0  0  0  0  0
    2.7010   -1.0082    0.0000 O   0  0  0  0  0  0  0  0  0  0  0  0
  1  2  2  0
  1  6  1  0
  2  3  1  0
  3  4  2  0
  4  5  1  0
  5  6  2  0
  6  7  1  0
  8  7  1  1
  8  9  1  0
  8 12  1  0
  9 10  2  0
  9 11  1  0
 12 13  1  0
 13 14  1  0
 13 15  1  0
 13 16  1  0
 16 17  1  0
 17 18  2  0
 17 19  1  0
M  CHG  2  17   1  19  -1
M  END
>  <DRUGBANK_ID>  (1) 
DB07484

>  <COMMON_NAME>  (1) 
(2R)-4,4-dihydroxy-5-nitro-2-(phenylmethyl)pentanoic acid

$$$$
