
     RDKit          2D

 23 24  0  0  1  0  0  0  0  0999 V2000
   -4.3455   -0.1418    0.0000 C   0  0  0  0  0  0  0  0  0  0  0  0
    0.1298    2.0602    0.0000 C   0  0  0  0  0  0  0  0  0  0  0  0
    0.3957    0.4394    0.0000 C   0  0  0  0  0  0  0  0  0  0  0  0
   -3.0401    0.4394    0.0000 C   0  0  0  0  0  0  0  0  0  0  0  0
   -1.3222    3.1152    0.0000 C   0  0  0  0  0  0  0  0  0  0  0  0
   -3.5251   -0.2280    0.0000 C   0  0  0  0  0  0  0  0  0  0  0  0
   -0.6548    1.8053    0.0000 C   0  0  0  0  0  0  0  0  0  0  0  0
   -1.3222    2.2902    0.0000 C   0  0  0  0  0  0  0  0  0  0  0  0
   -0.9097    1.0206    0.0000 C   0  0  0  0  0  0  0  0  0  0  0  0
   -3.1895   -0.9817    0.0000 C   0  0  0  0  0  0  0  0  0  0  0  0
   -1.7347    1.0206    0.0000 C   0  0  0  0  0  0  0  0  0  0  0  0
   -1.8841   -0.4005    0.0000 C   0  0  0  0  0  0  0  0  0  0  0  0
   -2.3690   -1.0679    0.0000 N   0  0  0  0  0  0  0  0  0  0  0  0
   -2.2197    0.3532    0.0000 N   0  0  0  0  0  0  0  0  0  0  0  0
   -3.6744   -1.6491    0.0000 O   0  0  0  0  0  0  0  0  0  0  0  0
   -1.0636   -0.4867    0.0000 O   0  0  0  0  0  0  0  0  0  0  0  0
   -0.6078    5.1777    0.0000 O   0  0  0  0  0  0  0  0  0  0  0  0
    0.2172    4.3527    0.0000 O   0  0  0  0  0  0  0  0  0  0  0  0
   -1.4328    4.3527    0.0000 O   0  0  0  0  0  0  0  0  0  0  0  0
   -0.4248    0.3532    0.0000 O   0  0  0  0  0  0  0  0  0  0  0  0
   -0.6078    3.5277    0.0000 O   0  0  0  0  0  0  0  0  0  0  0  0
   -1.9897    1.8053    0.0000 O   0  0  0  0  0  0  0  0  0  0  0  0
   -0.6078    4.3527    0.0000 P   0  0  0  0  0  0  0  0  0  0  0  0
  6  1  1  0
  6  4  2  0
  7  2  1  1
  8  5  1  6
  8  7  1  0
  9  7  1  0
  9 20  1  1
 10  6  1  0
 11  9  1  0
 11 14  1  6
 13 10  1  0
 13 12  1  0
 14  4  1  0
 14 12  1  0
 15 10  2  0
 16 12  2  0
 20  3  1  0
 21  5  1  0
 22  8  1  0
 22 11  1  0
 23 17  1  0
 23 18  1  0
 23 19  2  0
 23 21  1  0
M  END
>  <DRUGBANK_ID>  (1) 
DB03249

>  <SECONDARY_ACCESSION_NUMBERS>  (1) 
EXPT02991

>  <COMMON_NAME>  (1) 
2'-O-Methyl-3'-Methyl-3'-Deoxy-Arabinofuranosyl-Thymine-5'-Phosphate

$$$$
