
     RDKit          2D

 12 12  0  0  0  0  0  0  0  0999 V2000
   -0.7144    0.0000    0.0000 C   0  0  0  0  0  0  0  0  0  0  0  0
   -1.4289    0.4126    0.0000 C   0  0  0  0  0  0  0  0  0  0  0  0
    0.0000    0.4126    0.0000 C   0  0  0  0  0  0  0  0  0  0  0  0
   -0.7144   -0.8249    0.0000 C   0  0  0  0  0  0  0  0  0  0  0  0
   -2.1434    0.0000    0.0000 C   0  0  0  0  0  0  0  0  0  0  0  0
    0.7144    0.0000    0.0000 O   0  0  0  0  0  0  0  0  0  0  0  0
    0.0000    1.2375    0.0000 O   0  0  0  0  0  0  0  0  0  0  0  0
   -1.4290   -1.2374    0.0000 C   0  0  0  0  0  0  0  0  0  0  0  0
   -2.1434   -0.8249    0.0000 C   0  0  0  0  0  0  0  0  0  0  0  0
    1.4289    0.4124    0.0000 C   0  0  0  0  0  0  0  0  0  0  0  0
    2.1434    0.0000    0.0000 C   0  0  0  0  0  0  0  0  0  0  0  0
    0.0000   -1.2375    0.0000 O   0  0  0  0  0  0  0  0  0  0  0  0
  1  2  2  0
  1  3  1  0
  1  4  1  0
  2  5  1  0
  3  6  1  0
  3  7  2  0
  4  8  2  0
  4 12  1  0
  5  9  2  0
  6 10  1  0
  8  9  1  0
 10 11  1  0
M  END
>  <DRUGBANK_ID>  (1) 
DB15576

>  <COMMON_NAME>  (1) 
Ethyl salicylate

>  <CAS_NUMBER>  (1) 
118-61-6

>  <UNII>  (1) 
555U6TZ2MV

>  <SYNONYMS>  (1) 
Ethyl 2-hydroxybenzoate; Ethyl o-hydroxybenzoate; Ethyl salicylate; Salicyclic acid, ethyl ester; Salicylic ether; Salicylic ethyl ester

$$$$
