
     RDKit          2D

 38 41  0  0  0  0  0  0  0  0999 V2000
    4.0955    1.0018    0.0000 C   0  0  0  0  0  0  0  0  0  0  0  0
    3.3811    0.5893    0.0000 C   0  0  0  0  0  0  0  0  0  0  0  0
    3.3811   -0.2357    0.0000 C   0  0  0  0  0  0  0  0  0  0  0  0
    4.0955   -0.6482    0.0000 C   0  0  0  0  0  0  0  0  0  0  0  0
    4.8100   -0.2357    0.0000 N   0  0  0  0  0  0  0  0  0  0  0  0
    4.8100    0.5893    0.0000 C   0  0  0  0  0  0  0  0  0  0  0  0
    5.5245   -0.6482    0.0000 C   0  0  0  0  0  0  0  0  0  0  0  0
    5.5245   -1.4732    0.0000 C   0  0  0  0  0  0  0  0  0  0  0  0
    4.8100   -1.8857    0.0000 C   0  0  0  0  0  0  0  0  0  0  0  0
    4.8100   -2.7108    0.0000 N   0  0  0  0  0  0  0  0  0  0  0  0
    5.5245   -3.1233    0.0000 C   0  0  0  0  0  0  0  0  0  0  0  0
    6.2389   -2.7108    0.0000 N   0  0  0  0  0  0  0  0  0  0  0  0
    6.2389   -1.8857    0.0000 C   0  0  0  0  0  0  0  0  0  0  0  0
    2.1436    1.3038    0.0000 C   0  0  0  0  0  0  0  0  0  0  0  0
    1.3186    1.3038    0.0000 C   0  0  0  0  0  0  0  0  0  0  0  0
    0.9061    0.5893    0.0000 N   0  0  0  0  0  0  0  0  0  0  0  0
    1.3186   -0.1252    0.0000 C   0  0  0  0  0  0  0  0  0  0  0  0
    2.1436   -0.1252    0.0000 C   0  0  0  0  0  0  0  0  0  0  0  0
    2.5561    0.5893    0.0000 N   0  0  0  0  0  0  0  0  0  0  0  0
   -0.3314   -1.5542    0.0000 C   0  0  0  0  0  0  0  0  0  0  0  0
   -1.1564   -1.5541    0.0000 C   0  0  0  0  0  0  0  0  0  0  0  0
   -1.5689   -0.8397    0.0000 C   0  0  0  0  0  0  0  0  0  0  0  0
   -1.1564   -0.1252    0.0000 C   0  0  0  0  0  0  0  0  0  0  0  0
   -0.3314   -0.1252    0.0000 C   0  0  0  0  0  0  0  0  0  0  0  0
    0.0811   -0.8397    0.0000 C   0  0  0  0  0  0  0  0  0  0  0  0
    0.0811    0.5893    0.0000 C   0  0  0  0  0  0  0  0  0  0  0  0
   -1.5689   -2.2686    0.0000 C   0  0  0  0  0  0  0  0  0  0  0  0
   -0.8544   -2.6811    0.0000 F   0  0  0  0  0  0  0  0  0  0  0  0
   -2.2834   -1.8561    0.0000 F   0  0  0  0  0  0  0  0  0  0  0  0
   -1.9814   -2.9831    0.0000 F   0  0  0  0  0  0  0  0  0  0  0  0
    4.0955   -1.4732    0.0000 C   0  0  0  0  0  0  0  0  0  0  0  0
    6.9534   -1.4732    0.0000 C   0  0  0  0  0  0  0  0  0  0  0  0
    3.1675    1.3862    0.0000 C   0  0  0  0  0  0  0  0  0  0  0  0
    0.9061    2.0182    0.0000 C   0  0  0  0  0  0  0  0  0  0  0  0
   -0.3314    1.3037    0.0000 C   0  0  0  0  0  0  0  0  0  0  0  0
   -1.1564    1.3037    0.0000 O   0  0  0  0  0  0  0  0  0  0  0  0
   -1.5689    2.0182    0.0000 C   0  0  0  0  0  0  0  0  0  0  0  0
    6.2389   -0.2357    0.0000 O   0  0  0  0  0  0  0  0  0  0  0  0
  1  2  1  0
  1  6  1  0
  2  3  1  0
  2 19  1  0
  2 33  1  0
  3  4  1  0
  4  5  1  0
  5  6  1  0
  5  7  1  0
  7  8  1  0
  7 38  2  0
  8  9  2  0
  8 13  1  0
  9 10  1  0
  9 31  1  0
 10 11  2  0
 11 12  1  0
 12 13  2  0
 13 32  1  0
 14 15  1  0
 14 19  1  0
 15 16  1  0
 15 34  1  1
 16 17  1  0
 16 26  1  0
 17 18  1  0
 18 19  1  0
 20 21  2  0
 20 25  1  0
 21 22  1  0
 21 27  1  0
 22 23  2  0
 23 24  1  0
 24 25  2  0
 26 24  1  0
 26 35  1  6
 27 28  1  0
 27 29  1  0
 27 30  1  0
 35 36  1  0
 36 37  1  0
M  END
>  <DRUGBANK_ID>  (1) 
DB06652

>  <COMMON_NAME>  (1) 
Vicriviroc

>  <CAS_NUMBER>  (1) 
306296-47-9

>  <UNII>  (1) 
TL515DW4QS

>  <SYNONYMS>  (1) 
Vicriviroc

$$$$
