
     RDKit          2D

 35 37  0  0  0  0  0  0  0  0999 V2000
    1.8234   -0.4583    0.0000 C   0  0  0  0  0  0  0  0  0  0  0  0
    2.5378   -0.0458    0.0000 C   0  0  0  0  0  0  0  0  0  0  0  0
    3.2523   -0.4583    0.0000 C   0  0  0  0  0  0  0  0  0  0  0  0
    3.2523   -1.2833    0.0000 C   0  0  0  0  0  0  0  0  0  0  0  0
    2.5378   -1.6958    0.0000 C   0  0  0  0  0  0  0  0  0  0  0  0
    1.8234   -1.2833    0.0000 C   0  0  0  0  0  0  0  0  0  0  0  0
    1.1089   -1.6958    0.0000 C   0  0  0  0  0  0  0  0  0  0  0  0
    0.3944   -1.2833    0.0000 N   0  0  0  0  0  0  0  0  0  0  0  0
   -0.3201   -1.6958    0.0000 C   0  0  0  0  0  0  0  0  0  0  0  0
   -1.0345   -1.2833    0.0000 C   0  0  0  0  0  0  0  0  0  0  0  0
   -1.0345   -0.4583    0.0000 C   0  0  0  0  0  0  0  0  0  0  0  0
   -0.3201   -0.0458    0.0000 C   0  0  0  0  0  0  0  0  0  0  0  0
    0.3944   -0.4583    0.0000 C   0  0  0  0  0  0  0  0  0  0  0  0
   -1.7490   -0.0458    0.0000 N   0  0  0  0  0  0  0  0  0  0  0  0
   -1.7490    0.7792    0.0000 C   0  0  0  0  0  0  0  0  0  0  0  0
   -2.4635    1.1917    0.0000 C   0  0  0  0  0  0  0  0  0  0  0  0
   -3.2481    0.9367    0.0000 C   0  0  0  0  0  0  0  0  0  0  0  0
   -3.7330    1.6042    0.0000 C   0  0  0  0  0  0  0  0  0  0  0  0
   -3.2481    2.2716    0.0000 S   0  0  0  0  0  0  0  0  0  0  0  0
   -2.4635    2.0167    0.0000 C   0  0  0  0  0  0  0  0  0  0  0  0
   -1.7490    2.4292    0.0000 N   0  0  0  0  0  0  0  0  0  0  0  0
   -1.0345    2.0167    0.0000 C   0  0  0  0  0  0  0  0  0  0  0  0
   -1.0345    1.1917    0.0000 N   0  0  0  0  0  0  0  0  0  0  0  0
   -4.5580    1.6042    0.0000 Cl  0  0  0  0  0  0  0  0  0  0  0  0
    3.9668   -1.6958    0.0000 C   0  0  0  0  0  0  0  0  0  0  0  0
    4.6812   -2.1083    0.0000 N   0  0  0  0  0  0  0  0  0  0  0  0
    3.9668   -0.0458    0.0000 F   0  0  0  0  0  0  0  0  0  0  0  0
    8.5116    0.0000    0.0000 C   0  0  0  0  0  0  0  0  0  0  0  0
    7.6866    0.0000    0.0000 C   0  0  0  0  0  0  0  0  0  0  0  0
    7.2741   -0.7145    0.0000 C   0  0  0  0  0  0  0  0  0  0  0  0
    6.4491   -0.7145    0.0000 O   0  0  0  0  0  0  0  0  0  0  0  0
    7.6866   -1.4289    0.0000 O   0  0  0  0  0  0  0  0  0  0  0  0
    8.9241    0.7145    0.0000 C   0  0  0  0  0  0  0  0  0  0  0  0
    8.5116    1.4289    0.0000 O   0  0  0  0  0  0  0  0  0  0  0  0
    9.7491    0.7145    0.0000 O   0  0  0  0  0  0  0  0  0  0  0  0
  1  2  2  0
  1  6  1  0
  2  3  1  0
  3  4  2  0
  3 27  1  0
  4  5  1  0
  4 25  1  0
  5  6  2  0
  6  7  1  0
  7  8  1  0
  8  9  1  0
  8 13  1  0
  9 10  1  0
 10 11  1  0
 11 12  1  0
 11 14  1  0
 12 13  1  0
 14 15  1  0
 15 16  2  0
 15 23  1  0
 16 17  1  0
 16 20  1  0
 17 18  2  0
 18 19  1  0
 18 24  1  0
 19 20  1  0
 20 21  2  0
 21 22  1  0
 22 23  2  0
 25 26  3  0
 28 29  2  0
 28 33  1  0
 29 30  1  0
 30 31  2  0
 30 32  1  0
 33 34  2  0
 33 35  1  0
M  END
>  <DRUGBANK_ID>  (1) 
DB05607

>  <COMMON_NAME>  (1) 
PRX-08066

>  <UNII>  (1) 
92E9B7675Y

>  <SYNONYMS>  (1) 
5-((4-(6-CHLOROTHIENO(2,3-D)PYRIMIDINE-4-YLAMINO)PIPERIDIN-1-YL)METHYL)-2-FLUOROBENZONITRILE MONOFUMURATE; 5-((4-(6-chlorothieno[2,3-d]pyrimidine-4-ylamino)piperidin-1-yl)methyl)-2-fluorobenzonitrile monofumurate

$$$$
