SN2
     RDKit          2D

 22 22  0  0  0  0  0  0  0  0999 V2000
    0.5215   -0.0670    0.0000 C   0  0  0  0  0  0  0  0  0  0  0  0
   -0.1930    0.3455    0.0000 C   0  0  0  0  0  0  0  0  0  0  0  0
   -0.1930    1.1705    0.0000 C   0  0  0  0  0  0  0  0  0  0  0  0
    0.5215    1.5830    0.0000 C   0  0  0  0  0  0  0  0  0  0  0  0
    1.2360    1.1705    0.0000 C   0  0  0  0  0  0  0  0  0  0  0  0
    1.2360    0.3455    0.0000 C   0  0  0  0  0  0  0  0  0  0  0  0
   -0.1930   -1.3045    0.0000 C   0  0  0  0  0  0  0  0  0  0  0  0
    1.2360   -1.3045    0.0000 C   0  0  0  0  0  0  0  0  0  0  0  0
   -0.1930   -2.1295    0.0000 C   0  0  0  0  0  0  0  0  0  0  0  0
    1.2360   -2.1295    0.0000 C   0  0  0  0  0  0  0  0  0  0  0  0
   -0.9074    1.5830    0.0000 C   0  0  0  0  0  0  0  0  0  0  0  0
    1.2360    2.8205    0.0000 O   0  0  0  0  0  0  0  0  0  0  0  0
    2.6649    0.3455    0.0000 O   0  0  0  0  0  0  0  0  0  0  0  0
   -0.1930    2.8205    0.0000 O   0  0  0  0  0  0  0  0  0  0  0  0
   -0.9074    2.4080    0.0000 O   0  0  0  0  0  0  0  0  0  0  0  0
    1.9504   -0.8920    0.0000 O   0  0  0  0  0  0  0  0  0  0  0  0
    0.5215    2.4080    0.0000 N   0  0  0  0  0  0  0  0  0  0  0  0
    1.9504   -0.0670    0.0000 N   0  0  0  0  0  0  0  0  0  0  0  0
    0.5215   -0.8920    0.0000 N   0  0  0  0  0  0  0  0  0  0  0  0
   -1.6219    1.1705    0.0000 N   0  0  0  0  0  0  0  0  0  0  0  0
    1.9504   -2.5420    0.0000 Cl  0  0  0  0  0  0  0  0  0  0  0  0
   -0.9074   -2.5420    0.0000 Cl  0  0  0  0  0  0  0  0  0  0  0  0
  1  2  2  0
  1  6  1  0
  1 19  1  0
  2  3  1  0
  3  4  2  0
  3 11  1  0
  4  5  1  0
  4 17  1  0
  5  6  2  0
  6 18  1  0
  7  9  1  0
  7 19  1  0
  8 10  1  0
  8 19  1  0
  9 22  1  0
 10 21  1  0
 11 15  2  0
 11 20  1  0
 12 17  1  0
 13 18  2  0
 14 17  2  0
 16 18  1  0
M  CHG  4  12  -1  16  -1  17   1  18   1
M  END
>  <DRUGBANK_ID>  (1) 
DB03228

>  <SECONDARY_ACCESSION_NUMBERS>  (1) 
EXPT02926

>  <COMMON_NAME>  (1) 
5-[Bis-2(Chloro-Ethyl)-Amino]-2,4-Dintro-Benzamide

>  <UNII>  (1) 
EB8R4ME372

$$$$
