
     RDKit          2D

 32 36  0  0  0  0  0  0  0  0999 V2000
    3.8066    2.2717    0.0000 C   0  0  0  0  0  0  0  0  0  0  0  0
    4.5491    2.6314    0.0000 C   0  0  0  0  0  0  0  0  0  0  0  0
    4.6945    3.4435    0.0000 N   0  0  0  0  0  0  0  0  0  0  0  0
    5.5117    3.5562    0.0000 N   0  0  0  0  0  0  0  0  0  0  0  0
    5.8714    2.8138    0.0000 C   0  0  0  0  0  0  0  0  0  0  0  0
    5.2765    2.2422    0.0000 C   0  0  0  0  0  0  0  0  0  0  0  0
    5.3892    1.4250    0.0000 C   0  0  0  0  0  0  0  0  0  0  0  0
    4.7378    0.9187    0.0000 N   0  0  0  0  0  0  0  0  0  0  0  0
    4.8505    0.1015    0.0000 C   0  0  0  0  0  0  0  0  0  0  0  0
    4.1990   -0.4048    0.0000 C   0  0  0  0  0  0  0  0  0  0  0  0
    3.4349   -0.0937    0.0000 C   0  0  0  0  0  0  0  0  0  0  0  0
    3.3222    0.7235    0.0000 C   0  0  0  0  0  0  0  0  0  0  0  0
    3.9736    1.2298    0.0000 C   0  0  0  0  0  0  0  0  0  0  0  0
    3.5476   -0.9110    0.0000 O   0  0  0  0  0  0  0  0  0  0  0  0
    2.8962   -1.4172    0.0000 C   0  0  0  0  0  0  0  0  0  0  0  0
    2.1321   -1.1062    0.0000 C   0  0  0  0  0  0  0  0  0  0  0  0
    1.9584   -1.9127    0.0000 F   0  0  0  0  0  0  0  0  0  0  0  0
    1.3076   -1.0753    0.0000 F   0  0  0  0  0  0  0  0  0  0  0  0
    2.0194   -0.2889    0.0000 C   0  0  0  0  0  0  0  0  0  0  0  0
    2.6708    0.2173    0.0000 C   0  0  0  0  0  0  0  0  0  0  0  0
    2.3906    0.9933    0.0000 S   0  0  0  0  0  0  0  0  0  0  0  0
    1.5661    0.9666    0.0000 C   0  0  0  0  0  0  0  0  0  0  0  0
    1.0598    1.6181    0.0000 Cl  0  0  0  0  0  0  0  0  0  0  0  0
    1.3366    0.1742    0.0000 C   0  0  0  0  0  0  0  0  0  0  0  0
    5.9009    4.2836    0.0000 C   0  0  0  0  0  0  0  0  0  0  0  0
    5.4656    4.9844    0.0000 N   0  0  0  0  0  0  0  0  0  0  0  0
    5.8548    5.7118    0.0000 C   0  0  0  0  0  0  0  0  0  0  0  0
    6.6793    5.7385    0.0000 C   0  0  0  0  0  0  0  0  0  0  0  0
    7.1147    5.0377    0.0000 C   0  0  0  0  0  0  0  0  0  0  0  0
    6.7255    4.3103    0.0000 C   0  0  0  0  0  0  0  0  0  0  0  0
    7.1609    3.6095    0.0000 C   0  0  0  0  0  0  0  0  0  0  0  0
    6.7717    2.8821    0.0000 O   0  0  0  0  0  0  0  0  0  0  0  0
  1  2  1  0
  2  3  2  0
  2  6  1  0
  3  4  1  0
  4  5  1  0
  4 25  1  0
  5  6  2  0
  6  7  1  0
  7  8  1  0
  8  9  1  0
  8 13  1  0
  9 10  1  0
 10 11  1  0
 11 12  1  0
 11 14  1  0
 11 20  1  0
 12 13  1  0
 14 15  1  0
 15 16  1  0
 16 17  1  0
 16 18  1  0
 16 19  1  0
 19 20  2  0
 19 24  1  0
 20 21  1  0
 21 22  1  0
 22 23  1  0
 22 24  2  0
 25 26  2  0
 25 30  1  0
 26 27  1  0
 27 28  2  0
 28 29  1  0
 29 30  2  0
 30 31  1  0
 31 32  1  0
M  END
>  <DRUGBANK_ID>  (1) 
DB16048

>  <COMMON_NAME>  (1) 
BTRX-246040

>  <CAS_NUMBER>  (1) 
1307245-86-8

>  <UNII>  (1) 
4I67US2V8Q

$$$$
