
     RDKit          2D

 33 35  0  0  1  0  0  0  0  0999 V2000
    3.8304    6.0060    0.0000 C   0  0  0  0  0  0  0  0  0  0  0  0
    4.3448    5.3610    0.0000 C   0  0  0  0  0  0  0  0  0  0  0  0
    4.8592    4.7160    0.0000 C   0  0  0  0  0  0  0  0  0  0  0  0
    4.9898    5.8754    0.0000 C   0  0  0  0  0  0  0  0  0  0  0  0
    5.7578    5.5739    0.0000 O   0  0  0  0  0  0  0  0  0  0  0  0
    4.8669    6.6911    0.0000 N   0  0  0  0  0  0  0  0  0  0  0  0
    5.5119    7.2055    0.0000 C   0  0  0  0  0  0  0  0  0  0  0  0
    5.3889    8.0213    0.0000 C   0  0  0  0  0  0  0  0  0  0  0  0
    5.2659    8.8371    0.0000 C   0  0  0  0  0  0  0  0  0  0  0  0
    5.1430    9.6529    0.0000 F   0  0  0  0  0  0  0  0  0  0  0  0
    4.4502    8.7141    0.0000 F   0  0  0  0  0  0  0  0  0  0  0  0
    6.0817    8.9601    0.0000 F   0  0  0  0  0  0  0  0  0  0  0  0
    4.5731    7.8983    0.0000 F   0  0  0  0  0  0  0  0  0  0  0  0
    6.2047    8.1443    0.0000 F   0  0  0  0  0  0  0  0  0  0  0  0
    3.6998    4.8466    0.0000 C   0  0  0  0  0  0  0  0  0  0  0  0
    2.9318    5.1480    0.0000 O   0  0  0  0  0  0  0  0  0  0  0  0
    3.8227    4.0308    0.0000 N   0  0  0  0  0  0  0  0  0  0  0  0
    3.1777    3.5164    0.0000 C   0  0  0  0  0  0  0  0  0  0  0  0
    3.3613    2.7121    0.0000 C   0  0  0  0  0  0  0  0  0  0  0  0
    4.1771    2.5892    0.0000 C   0  0  0  0  0  0  0  0  0  0  0  0
    4.4785    1.8212    0.0000 C   0  0  0  0  0  0  0  0  0  0  0  0
    3.9641    1.1762    0.0000 C   0  0  0  0  0  0  0  0  0  0  0  0
    3.1483    1.2991    0.0000 C   0  0  0  0  0  0  0  0  0  0  0  0
    2.8469    2.0671    0.0000 C   0  0  0  0  0  0  0  0  0  0  0  0
    2.0219    2.0671    0.0000 C   0  0  0  0  0  0  0  0  0  0  0  0
    1.7205    1.2991    0.0000 C   0  0  0  0  0  0  0  0  0  0  0  0
    0.9047    1.1762    0.0000 C   0  0  0  0  0  0  0  0  0  0  0  0
    0.3904    1.8212    0.0000 C   0  0  0  0  0  0  0  0  0  0  0  0
    0.6918    2.5892    0.0000 C   0  0  0  0  0  0  0  0  0  0  0  0
    1.5076    2.7121    0.0000 C   0  0  0  0  0  0  0  0  0  0  0  0
    1.6911    3.5164    0.0000 N   0  0  0  0  0  0  0  0  0  0  0  0
    2.4344    3.8744    0.0000 C   0  0  0  0  0  0  0  0  0  0  0  0
    2.4344    4.6994    0.0000 O   0  0  0  0  0  0  0  0  0  0  0  0
  1  2  1  0
  2  3  1  0
  2  4  1  0
  2 15  1  0
  4  5  2  0
  4  6  1  0
  6  7  1  0
  7  8  1  0
  8  9  1  0
  8 13  1  0
  8 14  1  0
  9 10  1  0
  9 11  1  0
  9 12  1  0
 15 16  2  0
 15 17  1  0
 18 17  1  1
 18 19  1  0
 18 32  1  0
 19 20  2  0
 19 24  1  0
 20 21  1  0
 21 22  2  0
 22 23  1  0
 23 24  2  0
 24 25  1  0
 25 26  2  0
 25 30  1  0
 26 27  1  0
 27 28  2  0
 28 29  1  0
 29 30  2  0
 30 31  1  0
 31 32  1  0
 32 33  2  0
M  END
>  <DRUGBANK_ID>  (1) 
DB11870

>  <COMMON_NAME>  (1) 
RG-4733

>  <CAS_NUMBER>  (1) 
847925-91-1

>  <UNII>  (1) 
KK8645V7LE

$$$$
