VX3
     RDKit          2D

 24 27  0  0  0  0  0  0  0  0999 V2000
    2.6872    2.4682    0.0000 O   0  0  0  0  0  0  0  0  0  0  0  0
    0.4736   -0.2617    0.0000 C   0  0  0  0  0  0  0  0  0  0  0  0
   -0.8432   -2.0025    0.0000 C   0  0  0  0  0  0  0  0  0  0  0  0
    1.9727    2.0557    0.0000 C   0  0  0  0  0  0  0  0  0  0  0  0
    1.2583    2.4682    0.0000 O   0  0  0  0  0  0  0  0  0  0  0  0
    1.9727    1.2307    0.0000 C   0  0  0  0  0  0  0  0  0  0  0  0
    1.2583    0.8182    0.0000 C   0  0  0  0  0  0  0  0  0  0  0  0
    0.4736    1.0731    0.0000 N   0  0  0  0  0  0  0  0  0  0  0  0
   -0.0113    0.4057    0.0000 C   0  0  0  0  0  0  0  0  0  0  0  0
   -0.8363    0.4057    0.0000 C   0  0  0  0  0  0  0  0  0  0  0  0
   -1.2488    1.1202    0.0000 C   0  0  0  0  0  0  0  0  0  0  0  0
   -2.0738    1.1202    0.0000 C   0  0  0  0  0  0  0  0  0  0  0  0
   -2.4863    0.4057    0.0000 C   0  0  0  0  0  0  0  0  0  0  0  0
   -2.0738   -0.3088    0.0000 C   0  0  0  0  0  0  0  0  0  0  0  0
   -1.2488   -0.3088    0.0000 C   0  0  0  0  0  0  0  0  0  0  0  0
    0.2187   -1.0464    0.0000 C   0  0  0  0  0  0  0  0  0  0  0  0
   -0.5883   -1.2179    0.0000 C   0  0  0  0  0  0  0  0  0  0  0  0
   -0.2912   -2.6156    0.0000 C   0  0  0  0  0  0  0  0  0  0  0  0
    0.5158   -2.4441    0.0000 C   0  0  0  0  0  0  0  0  0  0  0  0
    0.7707   -1.6595    0.0000 C   0  0  0  0  0  0  0  0  0  0  0  0
    1.2583   -0.0068    0.0000 C   0  0  0  0  0  0  0  0  0  0  0  0
    1.9727   -0.4193    0.0000 C   0  0  0  0  0  0  0  0  0  0  0  0
    2.6872   -0.0068    0.0000 C   0  0  0  0  0  0  0  0  0  0  0  0
    2.6872    0.8182    0.0000 C   0  0  0  0  0  0  0  0  0  0  0  0
  1  4  2  0
  2 21  1  0
  3 17  2  0
  4  5  1  0
  6  4  1  0
  6 24  2  0
  7  6  1  0
  8  7  1  0
  9  2  2  0
  9  8  1  0
 10  9  1  0
 11 10  2  0
 12 11  1  0
 13 12  2  0
 13 14  1  0
 14 15  2  0
 15 10  1  0
 16  2  1  0
 16 17  1  0
 18  3  1  0
 19 18  2  0
 19 20  1  0
 20 16  2  0
 21  7  2  0
 21 22  1  0
 22 23  2  0
 23 24  1  0
M  END
>  <DRUGBANK_ID>  (1) 
DB08709

>  <COMMON_NAME>  (1) 
2,3-diphenyl-1H-indole-7-carboxylic acid

>  <UNII>  (1) 
5BFF2LV9EF

$$$$
