
     RDKit          2D

 21 21  0  0  0  0  0  0  0  0999 V2000
   -4.5964   -0.8839    0.0000 C   0  0  0  0  0  0  0  0  0  0  0  0
   -3.8820   -0.4714    0.0000 C   0  0  0  0  0  0  0  0  0  0  0  0
   -3.1675   -0.8839    0.0000 C   0  0  0  0  0  0  0  0  0  0  0  0
   -2.4530   -0.4714    0.0000 C   0  0  0  0  0  0  0  0  0  0  0  0
   -1.7385   -0.8839    0.0000 N   0  0  0  0  0  0  0  0  0  0  0  0
   -1.0241   -0.4714    0.0000 C   0  0  0  0  0  0  0  0  0  0  0  0
   -0.3096   -0.8839    0.0000 C   0  0  0  0  0  0  0  0  0  0  0  0
    0.4049   -0.4714    0.0000 C   0  0  0  0  0  0  0  0  0  0  0  0
    1.1193    0.7661    0.0000 C   0  0  0  0  0  0  0  0  0  0  0  0
    0.4049    0.3536    0.0000 C   0  0  0  0  0  0  0  0  0  0  0  0
    1.1193   -0.8839    0.0000 C   0  0  0  0  0  0  0  0  0  0  0  0
    1.8338   -0.4714    0.0000 C   0  0  0  0  0  0  0  0  0  0  0  0
    1.8338    0.3536    0.0000 C   0  0  0  0  0  0  0  0  0  0  0  0
   -4.5964   -1.7089    0.0000 O   0  0  0  0  0  0  0  0  0  0  0  0
   -5.3109   -0.4714    0.0000 O   0  0  0  0  0  0  0  0  0  0  0  0
   -3.1675   -1.7089    0.0000 N   0  0  0  0  0  0  0  0  0  0  0  0
   -2.4530    0.3536    0.0000 O   0  0  0  0  0  0  0  0  0  0  0  0
   -1.0241    0.3536    0.0000 C   0  0  0  0  0  0  0  0  0  0  0  0
   -1.7385    0.7661    0.0000 O   0  0  0  0  0  0  0  0  0  0  0  0
   -0.3096    0.7661    0.0000 O   0  0  0  0  0  0  0  0  0  0  0  0
   -0.3096    1.5911    0.0000 C   0  0  0  0  0  0  0  0  0  0  0  0
  1  2  1  0
  1 14  2  0
  1 15  1  0
  2  3  1  0
  3  4  1  0
  3 16  1  1
  4  5  1  0
  4 17  2  0
  5  6  1  0
  6  7  1  6
  6 18  1  0
  7  8  1  0
  8 11  2  0
  9 10  2  0
  9 13  1  0
 10  8  1  0
 11 12  1  0
 12 13  2  0
 18 19  2  0
 18 20  1  0
 20 21  1  0
M  END
>  <DRUGBANK_ID>  (1) 
DB00168

>  <SECONDARY_ACCESSION_NUMBERS>  (1) 
NUTR00046

>  <COMMON_NAME>  (1) 
Aspartame

>  <CAS_NUMBER>  (1) 
22839-47-0

>  <UNII>  (1) 
Z0H242BBR1

>  <SYNONYMS>  (1) 
1-Methyl N-L-alpha-aspartyl-L-phenylalanate; 1-methyl N-L-α-aspartyl-L-phenylalanate; 3-Amino-N-(alpha-carboxyphenethyl)succinamic acid N-methyl ester; 3-Amino-N-(alpha-methoxycarbonylphenethyl) succinamic acid; 3-Amino-N-(α-carboxyphenethyl)succinamic acid N-methyl ester; 3-Amino-N-(α-methoxycarbonylphenethyl) succinamic acid; Asp-phe-ome; Aspartam; Aspartame; Aspartamo; Aspartamum; Aspartylphenylalanine methyl ester; L-Aspartyl-L-phenylalanine methyl ester

$$$$
