303
     RDKit          2D

 29 32  0  0  0  0  0  0  0  0999 V2000
   -4.2527   -2.8942    0.0000 N   0  0  0  0  0  0  0  0  0  0  0  0
   -4.2527   -2.0692    0.0000 C   0  0  0  0  0  0  0  0  0  0  0  0
   -4.9671   -1.6567    0.0000 N   0  0  0  0  0  0  0  0  0  0  0  0
   -3.5382   -1.6567    0.0000 C   0  0  0  0  0  0  0  0  0  0  0  0
   -3.5382   -0.8317    0.0000 C   0  0  0  0  0  0  0  0  0  0  0  0
   -2.8237   -0.4192    0.0000 C   0  0  0  0  0  0  0  0  0  0  0  0
   -2.8237    0.4058    0.0000 C   0  0  0  0  0  0  0  0  0  0  0  0
   -2.1093    0.8183    0.0000 C   0  0  0  0  0  0  0  0  0  0  0  0
   -1.3948    0.4058    0.0000 C   0  0  0  0  0  0  0  0  0  0  0  0
   -1.3948   -0.4192    0.0000 C   0  0  0  0  0  0  0  0  0  0  0  0
   -2.1093   -0.8317    0.0000 C   0  0  0  0  0  0  0  0  0  0  0  0
   -2.1093   -1.6567    0.0000 C   0  0  0  0  0  0  0  0  0  0  0  0
   -2.8237   -2.0692    0.0000 C   0  0  0  0  0  0  0  0  0  0  0  0
   -0.6803    0.8183    0.0000 C   0  0  0  0  0  0  0  0  0  0  0  0
   -0.6803    1.6433    0.0000 O   0  0  0  0  0  0  0  0  0  0  0  0
    0.0342    0.4058    0.0000 N   0  0  0  0  0  0  0  0  0  0  0  0
    0.7486    0.8183    0.0000 C   0  0  0  0  0  0  0  0  0  0  0  0
    1.4631    0.4058    0.0000 C   0  0  0  0  0  0  0  0  0  0  0  0
    2.1776    0.8183    0.0000 C   0  0  0  0  0  0  0  0  0  0  0  0
    2.1776    1.6433    0.0000 C   0  0  0  0  0  0  0  0  0  0  0  0
    1.4631    2.0558    0.0000 C   0  0  0  0  0  0  0  0  0  0  0  0
    0.7486    1.6433    0.0000 C   0  0  0  0  0  0  0  0  0  0  0  0
    2.8920    2.0558    0.0000 C   0  0  0  0  0  0  0  0  0  0  0  0
    3.6065    1.6433    0.0000 C   0  0  0  0  0  0  0  0  0  0  0  0
    3.6065    0.8183    0.0000 N   0  0  0  0  0  0  0  0  0  0  0  0
    2.8920    0.4058    0.0000 C   0  0  0  0  0  0  0  0  0  0  0  0
    2.8920   -0.4192    0.0000 C   0  0  0  0  0  0  0  0  0  0  0  0
    3.6065   -0.8317    0.0000 C   0  0  0  0  0  0  0  0  0  0  0  0
    2.1776   -0.8317    0.0000 C   0  0  0  0  0  0  0  0  0  0  0  0
  1  2  2  0
  2  3  1  0
  2  4  1  0
  4  5  2  0
  4 13  1  0
  5  6  1  0
  6  7  2  0
  6 11  1  0
  7  8  1  0
  8  9  2  0
  9 10  1  0
  9 14  1  0
 10 11  2  0
 11 12  1  0
 12 13  2  0
 14 15  2  0
 14 16  1  0
 16 17  1  0
 17 18  2  0
 17 22  1  0
 18 19  1  0
 19 20  2  0
 19 26  1  0
 20 21  1  0
 20 23  1  0
 21 22  2  0
 23 24  1  0
 24 25  1  0
 25 26  1  0
 26 27  1  1
 27 28  1  0
 27 29  1  0
M  END
>  <DRUGBANK_ID>  (1) 
DB02705

>  <SECONDARY_ACCESSION_NUMBERS>  (1) 
EXPT00148

>  <COMMON_NAME>  (1) 
6-[N-(1-Isopropyl-1,2,3,4-Tetrahydro-7-Isoquinolinyl)Carbamyl]-2-Naphthalenecarboxamidine

$$$$
