
     RDKit          2D

 39 45  0  0  0  0  0  0  0  0999 V2000
    0.0312    0.1661    0.0000 C   0  0  0  0  0  0  0  0  0  0  0  0
    0.8286    0.4179    0.0000 C   0  0  0  0  0  0  0  0  0  0  0  0
    1.4119   -0.1653    0.0000 N   0  0  0  0  0  0  0  0  0  0  0  0
    1.2376   -0.9579    0.0000 C   0  0  0  0  0  0  0  0  0  0  0  0
    0.4403   -1.2095    0.0000 C   0  0  0  0  0  0  0  0  0  0  0  0
   -0.1428   -0.6264    0.0000 N   0  0  0  0  0  0  0  0  0  0  0  0
   -0.9522   -0.8948    0.0000 C   0  0  0  0  0  0  0  0  0  0  0  0
   -1.5312   -0.3117    0.0000 C   0  0  0  0  0  0  0  0  0  0  0  0
   -2.3415   -0.5350    0.0000 C   0  0  0  0  0  0  0  0  0  0  0  0
   -2.9248    0.0480    0.0000 O   0  0  0  0  0  0  0  0  0  0  0  0
   -3.7188   -0.1668    0.0000 C   0  0  0  0  0  0  0  0  0  0  0  0
   -4.3020    0.4164    0.0000 C   0  0  0  0  0  0  0  0  0  0  0  0
   -5.0961    0.2057    0.0000 C   0  0  0  0  0  0  0  0  0  0  0  0
   -5.3110   -0.5924    0.0000 C   0  0  0  0  0  0  0  0  0  0  0  0
   -4.7277   -1.1758    0.0000 C   0  0  0  0  0  0  0  0  0  0  0  0
   -3.9294   -0.9609    0.0000 C   0  0  0  0  0  0  0  0  0  0  0  0
   -3.3505   -1.5440    0.0000 C   0  0  0  0  0  0  0  0  0  0  0  0
   -3.5613   -2.3380    0.0000 C   0  0  0  0  0  0  0  0  0  0  0  0
   -4.3594   -2.5529    0.0000 C   0  0  0  0  0  0  0  0  0  0  0  0
   -4.9427   -1.9697    0.0000 N   0  0  0  0  0  0  0  0  0  0  0  0
   -1.3283    0.4737    0.0000 O   0  0  0  0  0  0  0  0  0  0  0  0
    2.2007    0.0785    0.0000 C   0  0  0  0  0  0  0  0  0  0  0  0
    2.3328    0.9047    0.0000 C   0  0  0  0  0  0  0  0  0  0  0  0
    1.6178    1.3166    0.0000 C   0  0  0  0  0  0  0  0  0  0  0  0
    1.6178    2.1409    0.0000 C   0  0  0  0  0  0  0  0  0  0  0  0
    2.3328    2.5529    0.0000 C   0  0  0  0  0  0  0  0  0  0  0  0
    3.0477    2.1409    0.0000 C   0  0  0  0  0  0  0  0  0  0  0  0
    3.0477    1.3166    0.0000 C   0  0  0  0  0  0  0  0  0  0  0  0
    3.8148    1.0146    0.0000 C   0  0  0  0  0  0  0  0  0  0  0  0
    4.0453    0.2371    0.0000 C   0  0  0  0  0  0  0  0  0  0  0  0
    4.6286    0.8205    0.0000 C   0  0  0  0  0  0  0  0  0  0  0  0
    4.9385    1.5918    0.0000 F   0  0  0  0  0  0  0  0  0  0  0  0
    5.3110    0.3840    0.0000 F   0  0  0  0  0  0  0  0  0  0  0  0
    3.5918   -0.4525    0.0000 C   0  0  0  0  0  0  0  0  0  0  0  0
    4.0579   -1.1346    0.0000 C   0  0  0  0  0  0  0  0  0  0  0  0
    3.6992   -1.8767    0.0000 C   0  0  0  0  0  0  0  0  0  0  0  0
    2.8787   -1.9368    0.0000 C   0  0  0  0  0  0  0  0  0  0  0  0
    2.4126   -1.2589    0.0000 C   0  0  0  0  0  0  0  0  0  0  0  0
    2.7839   -0.5047    0.0000 C   0  0  0  0  0  0  0  0  0  0  0  0
  1  2  1  0
  1  6  1  0
  2  3  1  0
  3  4  1  0
  4  5  1  0
  5  6  1  0
  6  7  1  0
  7  8  1  0
  8  9  1  0
  8 21  1  6
  9 10  1  0
 10 11  1  0
 11 12  2  0
 11 16  1  0
 12 13  1  0
 13 14  2  0
 14 15  1  0
 15 16  2  0
 15 20  1  0
 16 17  1  0
 17 18  2  0
 18 19  1  0
 19 20  2  0
 22  3  1  1
 22 23  1  0
 22 39  1  0
 23 24  2  0
 23 28  1  0
 24 25  1  0
 25 26  2  0
 26 27  1  0
 27 28  2  0
 28 29  1  0
 29 30  1  0
 29 31  1  6
 30 31  1  6
 30 34  1  0
 31 32  1  0
 31 33  1  0
 34 35  2  0
 34 39  1  0
 35 36  1  0
 36 37  2  0
 37 38  1  0
 38 39  2  0
M  END
>  <DRUGBANK_ID>  (1) 
DB06191

>  <COMMON_NAME>  (1) 
Zosuquidar

>  <CAS_NUMBER>  (1) 
167354-41-8

>  <UNII>  (1) 
AB5K82X98Y

>  <SYNONYMS>  (1) 
Zosuquidar

$$$$
