TC8
     RDKit          2D

 21 23  0  0  0  0  0  0  0  0999 V2000
   -1.0434    1.9473    0.0000 C   0  0  0  0  0  0  0  0  0  0  0  0
   -1.0434    1.1223    0.0000 S   0  0  0  0  0  0  0  0  0  0  0  0
   -0.3289    0.7098    0.0000 C   0  0  0  0  0  0  0  0  0  0  0  0
    0.3856    1.1223    0.0000 N   0  0  0  0  0  0  0  0  0  0  0  0
    1.1000    0.7098    0.0000 C   0  0  0  0  0  0  0  0  0  0  0  0
    1.8145    1.1223    0.0000 C   0  0  0  0  0  0  0  0  0  0  0  0
    2.5290    0.7098    0.0000 C   0  0  0  0  0  0  0  0  0  0  0  0
    2.5290   -0.1152    0.0000 C   0  0  0  0  0  0  0  0  0  0  0  0
    1.8145   -0.5277    0.0000 C   0  0  0  0  0  0  0  0  0  0  0  0
    1.1000   -0.1152    0.0000 C   0  0  0  0  0  0  0  0  0  0  0  0
    0.3856   -0.5277    0.0000 C   0  0  0  0  0  0  0  0  0  0  0  0
    0.3856   -1.3527    0.0000 O   0  0  0  0  0  0  0  0  0  0  0  0
   -0.3289   -0.1152    0.0000 N   0  0  0  0  0  0  0  0  0  0  0  0
   -1.0434   -0.5277    0.0000 C   0  0  0  0  0  0  0  0  0  0  0  0
   -1.0434   -1.3527    0.0000 C   0  0  0  0  0  0  0  0  0  0  0  0
   -0.3289   -1.7652    0.0000 F   0  0  0  0  0  0  0  0  0  0  0  0
   -1.7579   -1.7652    0.0000 C   0  0  0  0  0  0  0  0  0  0  0  0
   -2.4723   -1.3527    0.0000 C   0  0  0  0  0  0  0  0  0  0  0  0
   -2.4723   -0.5277    0.0000 C   0  0  0  0  0  0  0  0  0  0  0  0
   -1.7579   -0.1152    0.0000 C   0  0  0  0  0  0  0  0  0  0  0  0
   -1.7579    0.7098    0.0000 F   0  0  0  0  0  0  0  0  0  0  0  0
  1  2  1  0
  2  3  1  0
  3  4  2  0
  3 13  1  0
  4  5  1  0
  5  6  2  0
  5 10  1  0
  6  7  1  0
  7  8  2  0
  8  9  1  0
  9 10  2  0
 10 11  1  0
 11 12  2  0
 11 13  1  0
 13 14  1  0
 14 15  2  0
 14 20  1  0
 15 16  1  0
 15 17  1  0
 17 18  2  0
 18 19  1  0
 19 20  2  0
 20 21  1  0
M  END
>  <DRUGBANK_ID>  (1) 
DB08602

>  <COMMON_NAME>  (1) 
3-(2,6-difluorophenyl)-2-(methylthio)quinazolin-4(3H)-one

$$$$
