
     RDKit          2D

 33 36  0  0  0  0  0  0  0  0999 V2000
    2.3405   -0.2223    0.0000 C   0  0  0  0  0  0  0  0  0  0  0  0
    2.8180   -0.9475    0.0000 O   0  0  0  0  0  0  0  0  0  0  0  0
    3.7458   -1.0734    0.0000 C   0  0  0  0  0  0  0  0  0  0  0  0
    4.2756   -0.7633    0.0000 C   0  0  0  0  0  0  0  0  0  0  0  0
    4.8101   -1.0734    0.0000 C   0  0  0  0  0  0  0  0  0  0  0  0
    5.3359   -0.7633    0.0000 O   0  0  0  0  0  0  0  0  0  0  0  0
    4.3588   -0.1117    0.0000 C   0  0  0  0  0  0  0  0  0  0  0  0
    3.7146    0.3997    0.0000 C   0  0  0  0  0  0  0  0  0  0  0  0
    3.8359    1.2120    0.0000 C   0  0  0  0  0  0  0  0  0  0  0  0
    4.5966    1.5166    0.0000 C   0  0  0  0  0  0  0  0  0  0  0  0
    5.2422    1.0094    0.0000 C   0  0  0  0  0  0  0  0  0  0  0  0
    5.1247    0.1881    0.0000 C   0  0  0  0  0  0  0  0  0  0  0  0
    3.7458   -1.8315    0.0000 O   0  0  0  0  0  0  0  0  0  0  0  0
    2.8565    0.4307    0.0000 C   0  0  0  0  0  0  0  0  0  0  0  0
    2.6685    1.2403    0.0000 C   0  0  0  0  0  0  0  0  0  0  0  0
    1.9161    1.5901    0.0000 C   0  0  0  0  0  0  0  0  0  0  0  0
    1.1744    1.2339    0.0000 C   0  0  0  0  0  0  0  0  0  0  0  0
    0.9944    0.3650    0.0000 C   0  0  0  0  0  0  0  0  0  0  0  0
    1.5168   -0.2223    0.0000 C   0  0  0  0  0  0  0  0  0  0  0  0
    2.0976    0.3650    0.0000 N   0  0  0  0  0  0  0  0  0  0  0  0
    1.5222    1.8315    0.0000 C   0  0  0  0  0  0  0  0  0  0  0  0
    0.5963    1.0495    0.0000 C   0  0  0  0  0  0  0  0  0  0  0  0
   -0.3339    0.5985    0.0000 C   0  0  0  0  0  0  0  0  0  0  0  0
   -1.0475    1.0141    0.0000 C   0  0  0  0  0  0  0  0  0  0  0  0
   -1.7721    0.6073    0.0000 C   0  0  0  0  0  0  0  0  0  0  0  0
   -1.7721   -0.2184    0.0000 C   0  0  0  0  0  0  0  0  0  0  0  0
   -1.0524   -0.6351    0.0000 C   0  0  0  0  0  0  0  0  0  0  0  0
   -0.3339   -0.2256    0.0000 C   0  0  0  0  0  0  0  0  0  0  0  0
   -2.4825   -0.6243    0.0000 O   0  0  0  0  0  0  0  0  0  0  0  0
   -3.1970   -0.2119    0.0000 C   0  0  0  0  0  0  0  0  0  0  0  0
   -3.9115   -0.6243    0.0000 C   0  0  0  0  0  0  0  0  0  0  0  0
   -4.6261   -0.2070    0.0000 C   0  0  0  0  0  0  0  0  0  0  0  0
   -5.3359   -0.6196    0.0000 C   0  0  0  0  0  0  0  0  0  0  0  0
  1  2  1  6
  1 14  1  0
  1 19  1  0
  2  3  1  0
  3  4  1  0
  3 13  2  0
  4  5  1  1
  4  7  1  0
  5  6  1  0
  7 12  1  0
  8  7  2  0
  9  8  1  0
 10  9  2  0
 11 10  1  0
 12 11  2  0
 15 14  1  6
 15 16  1  0
 15 20  1  0
 17 16  1  0
 18 17  1  6
 18 20  1  0
 19 18  1  0
 20 21  1  0
 20 22  1  0
 22 23  1  0
 23 24  2  0
 24 25  1  0
 25 26  2  0
 26 27  1  0
 26 29  1  0
 27 28  2  0
 28 23  1  0
 29 30  1  0
 30 31  1  0
 31 32  1  0
 32 33  1  0
M  CHG  1  20   1
M  END
>  <DRUGBANK_ID>  (1) 
DB15968

>  <COMMON_NAME>  (1) 
Butropium

>  <CAS_NUMBER>  (1) 
107080-63-7

>  <UNII>  (1) 
7WSK03KXXW

$$$$
