
     RDKit          2D

 31 32  0  0  0  0  0  0  0  0999 V2000
   -0.9359   -2.4750    0.0000 S   0  0  0  0  0  0  0  0  0  0  0  0
   -1.6504   -2.8875    0.0000 S   0  0  0  0  0  0  0  0  0  0  0  0
    1.2074   -0.4125    0.0000 O   0  0  0  0  0  0  0  0  0  0  0  0
    1.9219    3.3000    0.0000 O   0  0  0  0  0  0  0  0  0  0  0  0
    3.3509    4.9501    0.0000 O   0  0  0  0  0  0  0  0  0  0  0  0
    2.6364    3.7125    0.0000 O   0  0  0  0  0  0  0  0  0  0  0  0
   -3.7939   -4.9501    0.0000 O   0  0  0  0  0  0  0  0  0  0  0  0
    0.4930    3.3000    0.0000 N   0  0  0  0  0  0  0  0  0  0  0  0
   -0.2215   -0.4125    0.0000 N   0  0  0  0  0  0  0  0  0  0  0  0
    0.4930    4.9501    0.0000 N   0  0  0  0  0  0  0  0  0  0  0  0
    1.9219    5.7751    0.0000 N   0  0  0  0  0  0  0  0  0  0  0  0
   -2.3649   -4.9501    0.0000 N   0  0  0  0  0  0  0  0  0  0  0  0
    0.4930    0.8250    0.0000 C   0  0  0  0  0  0  0  0  0  0  0  0
    0.4930    2.4750    0.0000 C   0  0  0  0  0  0  0  0  0  0  0  0
   -0.2215    1.2375    0.0000 C   0  0  0  0  0  0  0  0  0  0  0  0
    1.2074    1.2375    0.0000 C   0  0  0  0  0  0  0  0  0  0  0  0
   -0.2215    2.0625    0.0000 C   0  0  0  0  0  0  0  0  0  0  0  0
    1.2074    2.0625    0.0000 C   0  0  0  0  0  0  0  0  0  0  0  0
    0.4930    0.0000    0.0000 C   0  0  0  0  0  0  0  0  0  0  0  0
    1.2074    3.7125    0.0000 C   0  0  0  0  0  0  0  0  0  0  0  0
   -0.2215   -1.2375    0.0000 C   0  0  0  0  0  0  0  0  0  0  0  0
    1.2074    4.5375    0.0000 C   0  0  0  0  0  0  0  0  0  0  0  0
   -0.9359   -1.6500    0.0000 C   0  0  0  0  0  0  0  0  0  0  0  0
    1.9219    4.9501    0.0000 C   0  0  0  0  0  0  0  0  0  0  0  0
    0.4930    5.7751    0.0000 C   0  0  0  0  0  0  0  0  0  0  0  0
    2.6364    4.5375    0.0000 C   0  0  0  0  0  0  0  0  0  0  0  0
    1.2074    6.1876    0.0000 C   0  0  0  0  0  0  0  0  0  0  0  0
   -1.6504   -3.7125    0.0000 C   0  0  0  0  0  0  0  0  0  0  0  0
   -2.3649   -4.1250    0.0000 C   0  0  0  0  0  0  0  0  0  0  0  0
   -3.0794   -5.3626    0.0000 C   0  0  0  0  0  0  0  0  0  0  0  0
   -3.0794   -6.1876    0.0000 C   0  0  0  0  0  0  0  0  0  0  0  0
  1  2  1  0
  1 23  1  0
  2 28  1  0
  3 19  2  0
  4 20  2  0
  5 26  1  0
  6 26  2  0
  7 30  2  0
  8 14  1  0
  8 20  1  0
  9 19  1  0
  9 21  1  0
 10 22  2  0
 10 25  1  0
 11 24  2  0
 11 27  1  0
 12 29  1  0
 12 30  1  0
 13 15  1  0
 13 16  1  0
 13 19  1  0
 14 17  1  0
 14 18  1  0
 15 17  1  0
 16 18  1  0
 20 22  1  0
 21 23  1  0
 22 24  1  0
 24 26  1  0
 25 27  2  0
 28 29  1  0
 30 31  1  0
M  END
>  <DRUGBANK_ID>  (1) 
DB02620

>  <SECONDARY_ACCESSION_NUMBERS>  (1) 
EXPT00344

>  <COMMON_NAME>  (1) 
3-(4-{2-[2-(2-bromo-acetylamino)-ethyldisulfanyl]-ethylcarbamoyl}-cyclohexylcarbamoyl)-pyrazine-2-carboxylic acid

$$$$
