
     RDKit          2D

 19 18  0  0  1  0  0  0  0  0999 V2000
    4.3876    0.9096    0.0000 C   0  0  0  0  0  0  0  0  0  0  0  0
    5.0432    1.4103    0.0000 C   0  0  0  0  0  0  0  0  0  0  0  0
    5.8047    1.0928    0.0000 O   0  0  0  0  0  0  0  0  0  0  0  0
    6.4604    1.5936    0.0000 P   0  0  0  0  0  0  0  0  0  0  0  0
    6.9611    0.9379    0.0000 O   0  0  0  0  0  0  0  0  0  0  0  0
    5.9596    2.2492    0.0000 O   0  0  0  0  0  0  0  0  0  0  0  0
    5.1414    2.1434    0.0000 C   0  0  0  0  0  0  0  0  0  0  0  0
    4.6407    2.7991    0.0000 C   0  0  0  0  0  0  0  0  0  0  0  0
    7.1160    2.0943    0.0000 C   0  0  0  0  0  0  0  0  0  0  0  0
    7.0102    2.9125    0.0000 C   0  0  0  0  0  0  0  0  0  0  0  0
    7.8775    1.7769    0.0000 N   0  0  0  0  0  0  0  0  0  0  0  0
    8.5332    2.2776    0.0000 C   0  0  0  0  0  0  0  0  0  0  0  0
    8.4273    3.0958    0.0000 O   0  0  0  0  0  0  0  0  0  0  0  0
    9.2946    1.9601    0.0000 N   0  0  0  0  0  0  0  0  0  0  0  0
    9.9503    2.4609    0.0000 C   0  0  0  0  0  0  0  0  0  0  0  0
   10.7118    2.1434    0.0000 C   0  0  0  0  0  0  0  0  0  0  0  0
   11.3674    2.6441    0.0000 Cl  0  0  0  0  0  0  0  0  0  0  0  0
    9.4005    1.1419    0.0000 N   0  0  0  0  0  0  0  0  0  0  0  0
   10.1619    0.8245    0.0000 O   0  0  0  0  0  0  0  0  0  0  0  0
  1  2  1  0
  2  3  1  0
  3  4  1  0
  4  5  2  0
  4  6  1  0
  4  9  1  0
  6  7  1  0
  7  8  1  0
  9 10  1  1
  9 11  1  0
 11 12  1  0
 12 13  2  0
 12 14  1  0
 14 15  1  0
 14 18  1  0
 15 16  1  0
 16 17  1  0
 18 19  2  0
M  END
>  <DRUGBANK_ID>  (1) 
DB04106

>  <SECONDARY_ACCESSION_NUMBERS>  (1) 
EXPT03300

>  <COMMON_NAME>  (1) 
Fotemustine

>  <CAS_NUMBER>  (1) 
92118-27-9

>  <UNII>  (1) 
GQ7JL9P5I2

>  <SYNONYMS>  (1) 
(+-)-Diethyl (1-(3-(2-chloroethyl)-3-nitrosoureido)ethyl)phosphonate; Diethyl-1-(3-(2-chloroethyl)-3-nitrosoureido)ethylphosphonate; Fotemustina; Fotemustine; Fotemustinum; Mustoforan

$$$$
