F1K
     RDKit          2D

 21 22  0  0  0  0  0  0  0  0999 V2000
    2.2401   -1.2374    0.0000 C   0  0  0  0  0  0  0  0  0  0  0  0
    2.9546   -1.6499    0.0000 C   0  0  0  0  0  0  0  0  0  0  0  0
    2.9546   -2.4749    0.0000 C   0  0  0  0  0  0  0  0  0  0  0  0
    1.5257   -2.4749    0.0000 C   0  0  0  0  0  0  0  0  0  0  0  0
   -3.4756    1.2376    0.0000 C   0  0  0  0  0  0  0  0  0  0  0  0
   -2.7612    0.8251    0.0000 C   0  0  0  0  0  0  0  0  0  0  0  0
   -2.0467    1.2376    0.0000 C   0  0  0  0  0  0  0  0  0  0  0  0
   -0.6177    1.2376    0.0000 C   0  0  0  0  0  0  0  0  0  0  0  0
    0.0967    0.0001    0.0000 C   0  0  0  0  0  0  0  0  0  0  0  0
    0.0967    0.8251    0.0000 C   0  0  0  0  0  0  0  0  0  0  0  0
    1.5257    0.0001    0.0000 C   0  0  0  0  0  0  0  0  0  0  0  0
    1.5257    0.8251    0.0000 C   0  0  0  0  0  0  0  0  0  0  0  0
    3.6691   -2.8874    0.0000 F   0  0  0  0  0  0  0  0  0  0  0  0
    2.2401   -2.8874    0.0000 C   0  0  0  0  0  0  0  0  0  0  0  0
    1.5257   -1.6499    0.0000 C   0  0  0  0  0  0  0  0  0  0  0  0
    0.8112   -1.2374    0.0000 C   0  0  0  0  0  0  0  0  0  0  0  0
    0.8112   -0.4124    0.0000 N   0  0  0  0  0  0  0  0  0  0  0  0
    0.8112    1.2376    0.0000 N   0  0  0  0  0  0  0  0  0  0  0  0
   -0.6177    2.0626    0.0000 O   0  0  0  0  0  0  0  0  0  0  0  0
   -1.3322    0.8251    0.0000 N   0  0  0  0  0  0  0  0  0  0  0  0
   -4.1901    0.8251    0.0000 S   0  0  0  0  0  0  0  0  0  0  0  0
  1  2  2  0
  1 15  1  0
  2  3  1  0
  3 13  1  0
  3 14  2  0
  4 14  1  0
  4 15  2  0
  5  6  1  0
  5 21  1  0
  6  7  1  0
  7 20  1  0
  8 19  2  0
  8 20  1  0
  9 10  1  0
  9 17  1  0
 10  8  1  1
 10 18  1  0
 11 12  1  0
 11 17  1  0
 12 18  1  0
 15 16  1  0
 16 17  1  0
M  END
>  <DRUGBANK_ID>  (1) 
DB07737

>  <COMMON_NAME>  (1) 
(2S)-4-(4-fluorobenzyl)-N-(3-sulfanylpropyl)piperazine-2-carboxamide

$$$$
