W91
     RDKit          2D

 23 25  0  0  0  0  0  0  0  0999 V2000
   -3.6565    1.6596    0.0000 C   0  0  0  0  0  0  0  0  0  0  0  0
   -3.9920    2.4132    0.0000 C   0  0  0  0  0  0  0  0  0  0  0  0
   -2.8495    1.4880    0.0000 C   0  0  0  0  0  0  0  0  0  0  0  0
   -2.7633    0.6676    0.0000 C   0  0  0  0  0  0  0  0  0  0  0  0
   -3.5169    0.3320    0.0000 O   0  0  0  0  0  0  0  0  0  0  0  0
   -4.0690    0.9451    0.0000 N   0  0  0  0  0  0  0  0  0  0  0  0
   -2.0488    0.2551    0.0000 C   0  0  0  0  0  0  0  0  0  0  0  0
   -1.3343    0.6676    0.0000 C   0  0  0  0  0  0  0  0  0  0  0  0
   -0.6198    0.2551    0.0000 C   0  0  0  0  0  0  0  0  0  0  0  0
    0.0946    0.6676    0.0000 O   0  0  0  0  0  0  0  0  0  0  0  0
    0.8091    0.2551    0.0000 C   0  0  0  0  0  0  0  0  0  0  0  0
    1.5236    0.6676    0.0000 C   0  0  0  0  0  0  0  0  0  0  0  0
    1.5236    1.4926    0.0000 Cl  0  0  0  0  0  0  0  0  0  0  0  0
    2.2380    0.2551    0.0000 C   0  0  0  0  0  0  0  0  0  0  0  0
    2.2380   -0.5699    0.0000 C   0  0  0  0  0  0  0  0  0  0  0  0
    1.5236   -0.9824    0.0000 C   0  0  0  0  0  0  0  0  0  0  0  0
    0.8091   -0.5699    0.0000 C   0  0  0  0  0  0  0  0  0  0  0  0
    0.0946   -0.9824    0.0000 Cl  0  0  0  0  0  0  0  0  0  0  0  0
    2.9525   -0.9824    0.0000 C   0  0  0  0  0  0  0  0  0  0  0  0
    3.7062   -0.6469    0.0000 N   0  0  0  0  0  0  0  0  0  0  0  0
    4.2582   -1.2600    0.0000 C   0  0  0  0  0  0  0  0  0  0  0  0
    3.8457   -1.9744    0.0000 C   0  0  0  0  0  0  0  0  0  0  0  0
    3.0387   -1.8029    0.0000 O   0  0  0  0  0  0  0  0  0  0  0  0
  1  2  1  0
  1  3  1  0
  1  6  2  0
  3  4  2  0
  4  5  1  0
  4  7  1  0
  5  6  1  0
  7  8  1  0
  8  9  1  0
  9 10  1  0
 10 11  1  0
 11 12  2  0
 11 17  1  0
 12 13  1  0
 12 14  1  0
 14 15  2  0
 15 16  1  0
 15 19  1  0
 16 17  2  0
 17 18  1  0
 19 20  2  0
 19 23  1  0
 20 21  1  0
 21 22  1  0
 22 23  1  0
M  END
>  <DRUGBANK_ID>  (1) 
DB08728

>  <COMMON_NAME>  (1) 
5-(3-(2,6-dichloro-4-(4,5-dihydro-2-oxazolyl)phenoxy)propyl)-3-methyl isoxazole

>  <UNII>  (1) 
TVM6INF0BB

$$$$
