
     RDKit          2D

 29 32  0  0  1  0  0  0  0  0999 V2000
   -5.5184   -1.7046    0.0000 C   0  0  0  0  0  0  0  0  0  0  0  0
   -4.7338   -1.9596    0.0000 C   0  0  0  0  0  0  0  0  0  0  0  0
   -4.1207   -1.4075    0.0000 O   0  0  0  0  0  0  0  0  0  0  0  0
   -3.3361   -1.6625    0.0000 C   0  0  0  0  0  0  0  0  0  0  0  0
   -2.7230   -1.1104    0.0000 C   0  0  0  0  0  0  0  0  0  0  0  0
   -1.9384   -1.3654    0.0000 C   0  0  0  0  0  0  0  0  0  0  0  0
   -1.7668   -2.1724    0.0000 N   0  0  0  0  0  0  0  0  0  0  0  0
   -2.3799   -2.7244    0.0000 C   0  0  0  0  0  0  0  0  0  0  0  0
   -3.1645   -2.4694    0.0000 N   0  0  0  0  0  0  0  0  0  0  0  0
   -2.2084   -3.5314    0.0000 N   0  0  0  0  0  0  0  0  0  0  0  0
   -1.4534   -0.6979    0.0000 N   0  0  0  0  0  0  0  0  0  0  0  0
   -1.9384   -0.0305    0.0000 C   0  0  0  0  0  0  0  0  0  0  0  0
   -2.7230   -0.2854    0.0000 N   0  0  0  0  0  0  0  0  0  0  0  0
   -0.6284   -0.6979    0.0000 C   0  0  0  0  0  0  0  0  0  0  0  0
   -0.1435   -1.3654    0.0000 C   0  0  0  0  0  0  0  0  0  0  0  0
    0.6411   -1.1104    0.0000 C   0  0  0  0  0  0  0  0  0  0  0  0
    0.6411   -0.2854    0.0000 C   0  0  0  0  0  0  0  0  0  0  0  0
   -0.1435   -0.0305    0.0000 O   0  0  0  0  0  0  0  0  0  0  0  0
    1.3556    0.1271    0.0000 C   0  0  0  0  0  0  0  0  0  0  0  0
    2.0701   -0.2854    0.0000 O   0  0  0  0  0  0  0  0  0  0  0  0
    2.0701   -1.1104    0.0000 P   0  0  0  0  0  0  0  0  0  0  0  0
    2.8825   -0.9672    0.0000 O   0  0  0  0  0  0  0  0  0  0  0  0
    1.3556   -1.5229    0.0000 O   0  0  0  0  0  0  0  0  0  0  0  0
    2.3522   -1.8857    0.0000 O   0  0  0  0  0  0  0  0  0  0  0  0
    1.8219   -2.5177    0.0000 C   0  0  0  0  0  0  0  0  0  0  0  0
    2.1041   -3.2929    0.0000 C   0  0  0  0  0  0  0  0  0  0  0  0
    1.0095   -2.3744    0.0000 C   0  0  0  0  0  0  0  0  0  0  0  0
   -0.7508   -1.9238    0.0000 C   0  0  0  0  0  0  0  0  0  0  0  0
    0.0196   -2.1741    0.0000 F   0  0  0  0  0  0  0  0  0  0  0  0
  1  2  1  0
  2  3  1  0
  3  4  1  0
  4  5  2  0
  4  9  1  0
  5  6  1  0
  5 13  1  0
  6  7  2  0
  6 11  1  0
  7  8  1  0
  8  9  2  0
  8 10  1  0
 11 12  1  0
 12 13  2  0
 14 11  1  6
 14 15  1  0
 14 18  1  0
 15 16  1  0
 15 28  1  6
 15 29  1  0
 16 17  1  0
 16 23  1  1
 17 18  1  0
 17 19  1  6
 19 20  1  0
 21 20  1  0
 21 22  2  0
 21 23  1  0
 21 24  1  0
 24 25  1  0
 25 26  1  0
 25 27  1  0
M  END
>  <DRUGBANK_ID>  (1) 
DB12896

>  <COMMON_NAME>  (1) 
PSI-352938

>  <CAS_NUMBER>  (1) 
1199809-32-9

>  <UNII>  (1) 
3Z30JH9QX1

$$$$
