
     RDKit          2D

 16 16  0  0  1  0  0  0  0  0999 V2000
   -2.0366    0.3892    0.0000 P   0  0  0  0  0  0  0  0  0  0  0  0
   -1.2129    0.3892    0.0000 O   0  0  0  0  0  0  0  0  0  0  0  0
   -2.8566    0.3892    0.0000 O   0  0  0  0  0  0  0  0  0  0  0  0
   -2.0366    1.2129    0.0000 O   0  0  0  0  0  0  0  0  0  0  0  0
   -2.0366   -0.4308    0.0000 O   0  0  0  0  0  0  0  0  0  0  0  0
   -0.5025    0.8010    0.0000 C   0  0  0  0  0  0  0  0  0  0  0  0
    0.2116    0.3892    0.0000 C   0  0  0  0  0  0  0  0  0  0  0  0
    0.2116   -0.4420    0.0000 C   0  0  0  0  0  0  0  0  0  0  0  0
    0.9220    0.8010    0.0000 O   0  0  0  0  0  0  0  0  0  0  0  0
    0.9220   -0.8615    0.0000 C   0  0  0  0  0  0  0  0  0  0  0  0
   -0.5025   -0.8502    0.0000 O   0  0  0  0  0  0  0  0  0  0  0  0
    1.6437    0.3892    0.0000 C   0  0  0  0  0  0  0  0  0  0  0  0
    1.6437   -0.4420    0.0000 C   0  0  0  0  0  0  0  0  0  0  0  0
    0.9220   -1.6852    0.0000 O   0  0  0  0  0  0  0  0  0  0  0  0
    2.3541    0.8010    0.0000 O   0  0  0  0  0  0  0  0  0  0  0  0
    2.3541   -0.8502    0.0000 N   0  0  0  0  0  0  0  0  0  0  0  0
  1  2  1  0
  1  3  1  0
  1  4  1  0
  1  5  2  0
  2  6  1  0
  7  6  1  1
  7  8  1  0
  7  9  1  0
  8 10  1  0
  8 11  1  6
  9 12  1  0
 10 13  1  0
 10 14  1  1
 12 15  1  6
 12 13  1  0
 13 16  1  6
M  END
>  <DRUGBANK_ID>  (1) 
DB02657

>  <SECONDARY_ACCESSION_NUMBERS>  (1) 
EXPT01610

>  <COMMON_NAME>  (1) 
Glucosamine 6-Phosphate

>  <CAS_NUMBER>  (1) 
3616-42-0

>  <UNII>  (1) 
Y5ANY8MJ8J

$$$$
