CTB
     RDKit          2D

 13 13  0  0  0  0  0  0  0  0999 V2000
   -2.4145    0.3116    0.0000 B   0  0  0  0  0  0  0  0  0  0  0  0
   -3.1290   -0.1009    0.0000 O   0  0  0  0  0  0  0  0  0  0  0  0
   -2.4145    1.1366    0.0000 O   0  0  0  0  0  0  0  0  0  0  0  0
   -1.7000   -0.1009    0.0000 C   0  0  0  0  0  0  0  0  0  0  0  0
   -0.9856    0.3116    0.0000 N   0  0  0  0  0  0  0  0  0  0  0  0
   -0.2711   -0.1009    0.0000 C   0  0  0  0  0  0  0  0  0  0  0  0
   -0.2711   -0.9259    0.0000 O   0  0  0  0  0  0  0  0  0  0  0  0
    0.4434    0.3116    0.0000 C   0  0  0  0  0  0  0  0  0  0  0  0
    1.1578   -0.1009    0.0000 C   0  0  0  0  0  0  0  0  0  0  0  0
    1.9115    0.2346    0.0000 C   0  0  0  0  0  0  0  0  0  0  0  0
    2.4636   -0.3785    0.0000 C   0  0  0  0  0  0  0  0  0  0  0  0
    2.0511   -1.0930    0.0000 C   0  0  0  0  0  0  0  0  0  0  0  0
    1.2441   -0.9214    0.0000 S   0  0  0  0  0  0  0  0  0  0  0  0
  1  2  1  0
  1  3  1  0
  1  4  1  0
  4  5  1  0
  5  6  1  0
  6  7  2  0
  6  8  1  0
  8  9  1  0
  9 10  2  0
  9 13  1  0
 10 11  1  0
 11 12  2  0
 12 13  1  0
M  END
>  <DRUGBANK_ID>  (1) 
DB02094

>  <SECONDARY_ACCESSION_NUMBERS>  (1) 
EXPT01048

>  <COMMON_NAME>  (1) 
N-2-Thiophen-2-Yl-Acetamide Boronic Acid

>  <UNII>  (1) 
8KWZ834LZM

$$$$
