
     RDKit          2D

 37 41  0  0  0  0  0  0  0  0999 V2000
   -3.4866    2.4750    0.0000 C   0  0  0  0  0  0  0  0  0  0  0  0
   -3.4866    1.6500    0.0000 N   0  0  0  0  0  0  0  0  0  0  0  0
   -4.2011    1.2375    0.0000 C   0  0  0  0  0  0  0  0  0  0  0  0
   -2.7721    1.2375    0.0000 C   0  0  0  0  0  0  0  0  0  0  0  0
   -2.0577    1.6500    0.0000 C   0  0  0  0  0  0  0  0  0  0  0  0
   -2.7721    0.4125    0.0000 C   0  0  0  0  0  0  0  0  0  0  0  0
   -2.0577    0.0000    0.0000 C   0  0  0  0  0  0  0  0  0  0  0  0
   -1.3432    0.4125    0.0000 C   0  0  0  0  0  0  0  0  0  0  0  0
   -1.3432    1.2375    0.0000 C   0  0  0  0  0  0  0  0  0  0  0  0
   -0.6287    0.0000    0.0000 C   0  0  0  0  0  0  0  0  0  0  0  0
    0.0856    0.4125    0.0000 C   0  0  0  0  0  0  0  0  0  0  0  0
   -0.6287   -0.8250    0.0000 C   0  0  0  0  0  0  0  0  0  0  0  0
    0.0856   -1.2375    0.0000 C   0  0  0  0  0  0  0  0  0  0  0  0
    0.7706   -0.7955    0.0000 C   0  0  0  0  0  0  0  0  0  0  0  0
    0.7706    0.0294    0.0000 C   0  0  0  0  0  0  0  0  0  0  0  0
    1.5552    0.2844    0.0000 C   0  0  0  0  0  0  0  0  0  0  0  0
    1.5553   -1.0504    0.0000 C   0  0  0  0  0  0  0  0  0  0  0  0
    2.0402   -0.3830    0.0000 C   0  0  0  0  0  0  0  0  0  0  0  0
   -1.3727   -1.2375    0.0000 C   0  0  0  0  0  0  0  0  0  0  0  0
   -1.3727   -2.0625    0.0000 C   0  0  0  0  0  0  0  0  0  0  0  0
   -0.6287   -2.4750    0.0000 C   0  0  0  0  0  0  0  0  0  0  0  0
    0.0856   -2.0625    0.0000 C   0  0  0  0  0  0  0  0  0  0  0  0
   -2.0871   -0.8250    0.0000 C   0  0  0  0  0  0  0  0  0  0  0  0
   -2.8016   -1.2375    0.0000 C   0  0  0  0  0  0  0  0  0  0  0  0
   -2.8016   -2.0625    0.0000 C   0  0  0  0  0  0  0  0  0  0  0  0
   -2.0871   -2.4750    0.0000 C   0  0  0  0  0  0  0  0  0  0  0  0
   -3.5161   -2.4750    0.0000 O   0  0  0  0  0  0  0  0  0  0  0  0
    0.7706    0.8544    0.0000 C   0  0  0  0  0  0  0  0  0  0  0  0
    1.9677    0.9989    0.0000 C   0  0  0  0  0  0  0  0  0  0  0  0
    1.5552    1.7133    0.0000 O   0  0  0  0  0  0  0  0  0  0  0  0
    2.7927    0.9989    0.0000 C   0  0  0  0  0  0  0  0  0  0  0  0
    3.3761    1.5822    0.0000 O   0  0  0  0  0  0  0  0  0  0  0  0
    2.3802    0.2844    0.0000 O   0  0  0  0  0  0  0  0  0  0  0  0
    3.0947   -0.1280    0.0000 C   0  0  0  0  0  0  0  0  0  0  0  0
    3.9197   -0.1280    0.0000 C   0  0  0  0  0  0  0  0  0  0  0  0
    3.0947   -0.9530    0.0000 O   0  0  0  0  0  0  0  0  0  0  0  0
    4.2011    1.5822    0.0000 C   0  0  0  0  0  0  0  0  0  0  0  0
  1  2  1  0
  2  3  1  0
  2  4  1  0
  4  6  2  0
  5  4  1  0
  5  9  2  0
  6  7  1  0
  7  8  2  0
  8  9  1  0
 10  8  1  1
 10 12  1  0
 11 10  1  0
 11 15  1  0
 12 13  1  0
 12 19  2  0
 13 14  1  0
 14 17  1  1
 15 14  1  0
 15 28  1  1
 16 15  1  0
 16 18  1  0
 16 29  1  0
 16 33  1  6
 17 18  1  0
 19 20  1  0
 20 21  1  0
 21 22  1  0
 13 22  1  6
 23 19  1  0
 23 24  1  0
 24 25  1  0
 25 26  1  0
 25 27  2  0
 26 20  2  0
 29 30  2  0
 29 31  1  0
 31 32  1  0
 32 37  1  0
 33 34  1  0
 34 35  1  0
 34 36  2  0
M  END
>  <DRUGBANK_ID>  (1) 
DB05253

>  <COMMON_NAME>  (1) 
Telapristone acetate

>  <CAS_NUMBER>  (1) 
198414-31-2

>  <UNII>  (1) 
1K9EYK92PQ

>  <SYNONYMS>  (1) 
17alpha-Acetoxy-11beta-(4-(dimethylamino)phenyl)-21-methoxy-19-norpregna-4,9-dien-3,20-dione; Telapristone acetate

$$$$
