
     RDKit          2D

 23 26  0  0  1  0  0  0  0  0999 V2000
   -2.5855   -1.0164    0.0000 C   0  0  0  0  0  0  0  0  0  0  0  0
   -2.1730   -1.7309    0.0000 C   0  0  0  0  0  0  0  0  0  0  0  0
   -2.1730   -0.3020    0.0000 C   0  0  0  0  0  0  0  0  0  0  0  0
    4.0145    0.4125    0.0000 C   0  0  0  0  0  0  0  0  0  0  0  0
    3.6020   -0.3020    0.0000 C   0  0  0  0  0  0  0  0  0  0  0  0
    3.6020    1.1270    0.0000 C   0  0  0  0  0  0  0  0  0  0  0  0
   -1.3480   -1.7309    0.0000 C   0  0  0  0  0  0  0  0  0  0  0  0
   -1.3480   -0.3020    0.0000 C   0  0  0  0  0  0  0  0  0  0  0  0
    2.7770   -0.3020    0.0000 C   0  0  0  0  0  0  0  0  0  0  0  0
    2.3645    1.8414    0.0000 C   0  0  0  0  0  0  0  0  0  0  0  0
    1.5395    1.8414    0.0000 C   0  0  0  0  0  0  0  0  0  0  0  0
    1.1270   -0.3020    0.0000 C   0  0  0  0  0  0  0  0  0  0  0  0
   -0.1105    0.4125    0.0000 C   0  0  0  0  0  0  0  0  0  0  0  0
    2.7770    1.1270    0.0000 C   0  0  0  0  0  0  0  0  0  0  0  0
   -0.9355   -1.0164    0.0000 C   0  0  0  0  0  0  0  0  0  0  0  0
    2.3645    0.4125    0.0000 C   0  0  0  0  0  0  0  0  0  0  0  0
    1.5395    0.4125    0.0000 C   0  0  0  0  0  0  0  0  0  0  0  0
    0.3020    1.1270    0.0000 C   0  0  0  0  0  0  0  0  0  0  0  0
   -0.1105   -1.0164    0.0000 C   0  0  0  0  0  0  0  0  0  0  0  0
    0.3020   -0.3020    0.0000 N   0  0  0  0  0  0  0  0  0  0  0  0
    1.1270    1.1270    0.0000 N   0  0  0  0  0  0  0  0  0  0  0  0
   -0.1105    1.8414    0.0000 O   0  0  0  0  0  0  0  0  0  0  0  0
    0.3020   -1.7309    0.0000 O   0  0  0  0  0  0  0  0  0  0  0  0
  2  1  1  0
  3  1  1  0
  5  4  2  0
  6  4  1  0
  7  2  1  0
  8  3  1  0
  9  5  1  0
 11 10  1  0
 14  6  2  0
 14 10  1  0
 15  7  1  0
 15  8  1  0
 16  9  2  0
 16 14  1  0
 17 12  1  6
 17 16  1  0
 18 13  1  0
 19 15  1  0
 20 12  1  0
 20 13  1  0
 20 19  1  0
 21 11  1  0
 21 17  1  0
 21 18  1  0
 22 18  2  0
 23 19  2  0
M  END
>  <DRUGBANK_ID>  (1) 
DB11749

>  <COMMON_NAME>  (1) 
(R)-Praziquantel

>  <CAS_NUMBER>  (1) 
57452-98-9

>  <UNII>  (1) 
WF15T5925V

>  <SYNONYMS>  (1) 
(-)-praziquantel; (R)-(-)-praziquantel; L-praziquantel; L-PZQ

$$$$
