
     RDKit          2D

 39 44  0  0  1  0  0  0  0  0999 V2000
    5.8208    2.5459    0.0000 C   0  0  0  0  0  0  0  0  0  0  0  0
    5.5658    3.3305    0.0000 C   0  0  0  0  0  0  0  0  0  0  0  0
    6.0508    3.9979    0.0000 C   0  0  0  0  0  0  0  0  0  0  0  0
    5.5658    4.6654    0.0000 C   0  0  0  0  0  0  0  0  0  0  0  0
    4.7812    4.4104    0.0000 N   0  0  0  0  0  0  0  0  0  0  0  0
    4.7812    3.5854    0.0000 C   0  0  0  0  0  0  0  0  0  0  0  0
    4.0668    3.1729    0.0000 C   0  0  0  0  0  0  0  0  0  0  0  0
    3.3523    3.5854    0.0000 N   0  0  0  0  0  0  0  0  0  0  0  0
    3.3523    4.4104    0.0000 C   0  0  0  0  0  0  0  0  0  0  0  0
    4.0668    4.8229    0.0000 N   0  0  0  0  0  0  0  0  0  0  0  0
    4.0668    2.3479    0.0000 N   0  0  0  0  0  0  0  0  0  0  0  0
    3.3523    1.9354    0.0000 C   0  0  0  0  0  0  0  0  0  0  0  0
    3.3523    1.1104    0.0000 C   0  0  0  0  0  0  0  0  0  0  0  0
    2.6378    0.6979    0.0000 C   0  0  0  0  0  0  0  0  0  0  0  0
    1.9233    1.1104    0.0000 C   0  0  0  0  0  0  0  0  0  0  0  0
    1.9233    1.9354    0.0000 C   0  0  0  0  0  0  0  0  0  0  0  0
    2.6378    2.3479    0.0000 C   0  0  0  0  0  0  0  0  0  0  0  0
    1.1387    2.1904    0.0000 C   0  0  0  0  0  0  0  0  0  0  0  0
    0.6538    1.5229    0.0000 N   0  0  0  0  0  0  0  0  0  0  0  0
    1.1387    0.8555    0.0000 N   0  0  0  0  0  0  0  0  0  0  0  0
    0.8838    0.0709    0.0000 C   0  0  0  0  0  0  0  0  0  0  0  0
    0.0768   -0.1006    0.0000 C   0  0  0  0  0  0  0  0  0  0  0  0
   -0.1781   -0.8853    0.0000 C   0  0  0  0  0  0  0  0  0  0  0  0
   -0.9851   -1.0568    0.0000 C   0  0  0  0  0  0  0  0  0  0  0  0
   -1.5371   -0.4437    0.0000 C   0  0  0  0  0  0  0  0  0  0  0  0
   -1.2822    0.3409    0.0000 C   0  0  0  0  0  0  0  0  0  0  0  0
   -0.4752    0.5124    0.0000 C   0  0  0  0  0  0  0  0  0  0  0  0
   -1.8342    0.9540    0.0000 F   0  0  0  0  0  0  0  0  0  0  0  0
    6.8758    3.9979    0.0000 N   0  0  0  0  0  0  0  0  0  0  0  0
    7.2883    4.7124    0.0000 C   0  0  0  0  0  0  0  0  0  0  0  0
    6.8758    5.4269    0.0000 O   0  0  0  0  0  0  0  0  0  0  0  0
    8.1133    4.7124    0.0000 O   0  0  0  0  0  0  0  0  0  0  0  0
    8.5258    5.4269    0.0000 C   0  0  0  0  0  0  0  0  0  0  0  0
    9.3508    5.4269    0.0000 C   0  0  0  0  0  0  0  0  0  0  0  0
    9.7633    6.1414    0.0000 C   0  0  0  0  0  0  0  0  0  0  0  0
   10.5883    6.1414    0.0000 O   0  0  0  0  0  0  0  0  0  0  0  0
   11.0008    5.4269    0.0000 C   0  0  0  0  0  0  0  0  0  0  0  0
   10.5883    4.7124    0.0000 C   0  0  0  0  0  0  0  0  0  0  0  0
    9.7633    4.7124    0.0000 N   0  0  0  0  0  0  0  0  0  0  0  0
  1  2  1  0
  2  3  1  0
  2  6  2  0
  3  4  2  0
  3 29  1  0
  4  5  1  0
  5  6  1  0
  5 10  1  0
  6  7  1  0
  7  8  2  0
  7 11  1  0
  8  9  1  0
  9 10  2  0
 11 12  1  0
 12 13  2  0
 12 17  1  0
 13 14  1  0
 14 15  2  0
 15 16  1  0
 15 20  1  0
 16 17  2  0
 16 18  1  0
 18 19  2  0
 19 20  1  0
 20 21  1  0
 21 22  1  0
 22 23  2  0
 22 27  1  0
 23 24  1  0
 24 25  2  0
 25 26  1  0
 26 27  2  0
 26 28  1  0
 29 30  1  0
 30 31  2  0
 30 32  1  0
 32 33  1  0
 34 33  1  6
 34 35  1  0
 34 39  1  0
 35 36  1  0
 36 37  1  0
 37 38  1  0
 38 39  1  0
M  END
>  <DRUGBANK_ID>  (1) 
DB12318

>  <COMMON_NAME>  (1) 
BMS-599626

>  <CAS_NUMBER>  (1) 
714971-09-2

>  <UNII>  (1) 
2252724U5N

$$$$
