1055
     RDKit          2D

 14 14  0  0  1  0  0  0  0  0999 V2000
    2.0930    2.2193    0.0000 O   0  0  0  0  0  0  0  0  0  0  0  0
    4.9509   -1.9058    0.0000 O   0  0  0  0  0  0  0  0  0  0  0  0
    3.5220    2.2193    0.0000 O   0  0  0  0  0  0  0  0  0  0  0  0
    3.5220   -2.7308    0.0000 O   0  0  0  0  0  0  0  0  0  0  0  0
    3.5220   -0.2558    0.0000 N   0  0  0  0  0  0  0  0  0  0  0  0
    2.0930    0.5693    0.0000 N   0  0  0  0  0  0  0  0  0  0  0  0
    3.5220    0.5693    0.0000 C   0  0  0  0  0  0  0  0  0  0  0  0
    2.8075    0.9818    0.0000 C   0  0  0  0  0  0  0  0  0  0  0  0
    4.2365   -0.6683    0.0000 C   0  0  0  0  0  0  0  0  0  0  0  0
    2.8075   -0.6683    0.0000 C   0  0  0  0  0  0  0  0  0  0  0  0
    2.8075    1.8068    0.0000 C   0  0  0  0  0  0  0  0  0  0  0  0
    4.2365   -1.4933    0.0000 C   0  0  0  0  0  0  0  0  0  0  0  0
    2.8075   -1.4933    0.0000 C   0  0  0  0  0  0  0  0  0  0  0  0
    3.5220   -1.9058    0.0000 C   0  0  0  0  0  0  0  0  0  0  0  0
  1 11  1  0
  2 12  1  0
  3 11  2  0
  4 14  2  0
  5  7  1  0
  5  9  1  0
  5 10  1  0
  7  8  1  0
  8  6  1  6
  8 11  1  0
  9 12  2  0
 10 13  2  0
 12 14  1  0
 13 14  1  0
M  END
>  <DRUGBANK_ID>  (1) 
DB01055

>  <SECONDARY_ACCESSION_NUMBERS>  (1) 
APRD00647

>  <COMMON_NAME>  (1) 
Mimosine

>  <CAS_NUMBER>  (1) 
500-44-7

>  <UNII>  (1) 
Z46B1LUI5N

>  <SYNONYMS>  (1) 
(L)-Mimosine; (S)-2-amino-3-(3-hydroxy-4-oxo-4H-pyridin-1-yl)propanoate; L-Mimosine; Leucaenine; Leucaenol; Leucenine; Leucenol; Mimosin

$$$$
