PA6
     RDKit          2D

 18 17  0  0  0  0  0  0  0  0999 V2000
    2.2078   -0.3460    0.0000 O   0  0  0  0  0  0  0  0  0  0  0  0
    2.2078    0.4790    0.0000 C   0  0  0  0  0  0  0  0  0  0  0  0
    2.9222    0.8915    0.0000 C   0  0  0  0  0  0  0  0  0  0  0  0
    3.6368    0.4790    0.0000 C   0  0  0  0  0  0  0  0  0  0  0  0
    4.3512    0.8915    0.0000 C   0  0  0  0  0  0  0  0  0  0  0  0
    5.0656    0.4790    0.0000 C   0  0  0  0  0  0  0  0  0  0  0  0
    1.4934    0.8915    0.0000 O   0  0  0  0  0  0  0  0  0  0  0  0
    0.7789    0.4790    0.0000 C   0  0  0  0  0  0  0  0  0  0  0  0
    0.0644    0.8915    0.0000 C   0  0  0  0  0  0  0  0  0  0  0  0
    0.0644    1.7164    0.0000 O   0  0  0  0  0  0  0  0  0  0  0  0
   -0.6499    2.1290    0.0000 C   0  0  0  0  0  0  0  0  0  0  0  0
   -0.6499    2.9539    0.0000 O   0  0  0  0  0  0  0  0  0  0  0  0
   -0.6499    0.4790    0.0000 C   0  0  0  0  0  0  0  0  0  0  0  0
   -1.3645    0.8915    0.0000 O   0  0  0  0  0  0  0  0  0  0  0  0
   -2.0790    0.4790    0.0000 P   0  0  0  0  0  0  0  0  0  0  0  0
   -2.7934    0.0665    0.0000 O   0  0  0  0  0  0  0  0  0  0  0  0
   -2.4915    1.1934    0.0000 O   0  0  0  0  0  0  0  0  0  0  0  0
   -1.6664   -0.2355    0.0000 O   0  0  0  0  0  0  0  0  0  0  0  0
  1  2  2  0
  2  7  1  0
  2  3  1  0
  3  4  1  0
  4  5  1  0
  5  6  1  0
  7  8  1  0
  9  8  1  6
  9 10  1  0
  9 13  1  0
 10 11  1  0
 11 12  2  0
 13 14  1  0
 14 15  1  0
 15 17  2  0
 15 16  1  0
 15 18  1  0
M  END
>  <DRUGBANK_ID>  (1) 
DB08367

>  <COMMON_NAME>  (1) 
(R)-2-(FORMYLOXY)-3-(PHOSPHONOOXY)PROPYL PENTANOATE

$$$$
