
     RDKit          2D

 32 34  0  0  0  0  0  0  0  0999 V2000
    4.5156    2.4648    0.0000 C   0  0  0  0  0  0  0  0  0  0  0  0
    3.6951    2.3786    0.0000 C   0  0  0  0  0  0  0  0  0  0  0  0
    3.2102    3.0460    0.0000 C   0  0  0  0  0  0  0  0  0  0  0  0
   -1.6838    2.4810    0.0000 C   0  0  0  0  0  0  0  0  0  0  0  0
   -0.9074    6.1339    0.0000 C   0  0  0  0  0  0  0  0  0  0  0  0
   -1.0164    1.9961    0.0000 C   0  0  0  0  0  0  0  0  0  0  0  0
   -1.5976    3.3015    0.0000 C   0  0  0  0  0  0  0  0  0  0  0  0
   -1.1623    5.3493    0.0000 C   0  0  0  0  0  0  0  0  0  0  0  0
   -0.1004    6.3055    0.0000 C   0  0  0  0  0  0  0  0  0  0  0  0
   -0.2627    2.3317    0.0000 C   0  0  0  0  0  0  0  0  0  0  0  0
   -0.8439    3.6371    0.0000 C   0  0  0  0  0  0  0  0  0  0  0  0
   -0.6103    4.7362    0.0000 C   0  0  0  0  0  0  0  0  0  0  0  0
    0.4516    5.6924    0.0000 C   0  0  0  0  0  0  0  0  0  0  0  0
    5.4771    4.0397    0.0000 C   0  0  0  0  0  0  0  0  0  0  0  0
    4.7627    3.6272    0.0000 C   0  0  0  0  0  0  0  0  0  0  0  0
    2.3897    2.9598    0.0000 C   0  0  0  0  0  0  0  0  0  0  0  0
    2.6192    4.0397    0.0000 C   0  0  0  0  0  0  0  0  0  0  0  0
   -0.1765    3.1521    0.0000 C   0  0  0  0  0  0  0  0  0  0  0  0
    0.1967    4.9078    0.0000 C   0  0  0  0  0  0  0  0  0  0  0  0
    6.1916    3.6272    0.0000 C   0  0  0  0  0  0  0  0  0  0  0  0
    4.0482    4.0397    0.0000 C   0  0  0  0  0  0  0  0  0  0  0  0
    1.2917    3.0752    0.0000 C   0  0  0  0  0  0  0  0  0  0  0  0
    1.5692    4.3809    0.0000 C   0  0  0  0  0  0  0  0  0  0  0  0
    1.9048    3.6272    0.0000 C   0  0  0  0  0  0  0  0  0  0  0  0
    0.5772    3.4877    0.0000 N   0  0  0  0  0  0  0  0  0  0  0  0
    0.7487    4.2947    0.0000 N   0  0  0  0  0  0  0  0  0  0  0  0
    6.9061    4.0397    0.0000 O   0  0  0  0  0  0  0  0  0  0  0  0
    6.1916    2.8022    0.0000 O   0  0  0  0  0  0  0  0  0  0  0  0
    4.0482    4.8647    0.0000 O   0  0  0  0  0  0  0  0  0  0  0  0
    1.3779    2.2547    0.0000 O   0  0  0  0  0  0  0  0  0  0  0  0
    1.9817    5.0954    0.0000 O   0  0  0  0  0  0  0  0  0  0  0  0
    3.3337    3.6272    0.0000 O   0  0  0  0  0  0  0  0  0  0  0  0
  2  1  1  0
  3  2  1  0
  6  4  2  0
  7  4  1  0
  8  5  2  0
  9  5  1  0
 10  6  1  0
 11  7  2  0
 12  8  1  0
 13  9  2  0
 15 14  1  0
 16  3  1  0
 18 10  2  0
 18 11  1  0
 19 12  2  0
 19 13  1  0
 20 14  1  0
 21 15  1  0
 24 16  1  0
 24 17  1  0
 24 22  1  0
 24 23  1  0
 25 18  1  0
 25 22  1  0
 26 19  1  0
 26 23  1  0
 26 25  1  0
 27 20  2  0
 28 20  1  0
 29 21  2  0
 30 22  2  0
 31 23  2  0
 32 17  1  0
 32 21  1  0
M  END
>  <DRUGBANK_ID>  (1) 
DB13232

>  <COMMON_NAME>  (1) 
Suxibuzone

>  <CAS_NUMBER>  (1) 
27470-51-5

>  <UNII>  (1) 
86TDZ5WP2B

>  <SYNONYMS>  (1) 
suxibuzona; Suxibuzone

$$$$
