
     RDKit          2D

  8  4  0  0  0  0  0  0  0  0999 V2000
    0.0000    0.0000    0.0000 O   0  0  0  0  0  0  0  0  0  0  0  0
    2.3571    0.0000    0.0000 O   0  0  0  0  0  0  0  0  0  0  0  0
    1.1000   -2.4750    0.0000 O   0  0  0  0  0  0  0  0  0  0  0  0
    0.2750   -2.4750    0.0000 P   0  0  0  0  0  0  0  0  0  0  0  0
    0.2750   -1.6500    0.0000 O   0  0  0  0  0  0  0  0  0  0  0  0
   -0.5500   -2.4750    0.0000 O   0  0  0  0  0  0  0  0  0  0  0  0
    0.2750   -3.3000    0.0000 O   0  0  0  0  0  0  0  0  0  0  0  0
   -1.3750   -2.4750    0.0000 Ca  0  0  0  0  0 15  0  0  0  0  0  0
  3  4  1  0
  4  5  2  0
  4  6  1  0
  4  7  1  0
M  CHG  3   6  -1   7  -1   8   2
M  END
>  <DRUGBANK_ID>  (1) 
DB14481

>  <SECONDARY_ACCESSION_NUMBERS>  (1) 
DBSALT001593

>  <COMMON_NAME>  (1) 
Calcium phosphate dihydrate

>  <CAS_NUMBER>  (1) 
7789-77-7

>  <UNII>  (1) 
O7TSZ97GEP

>  <SYNONYMS>  (1) 
Calcium monohydrogen phosphate dihydrate; Calcium phosphate dibasic, hydrous; Calcium phosphate dihydrate, dibasic; Calcium phosphate, dibasic, dihydrate; Calcium phosphate, dibasic, hydrous; D.C.P.; Dibasic calcium phosphate dihydrate; Dibasic calcium phosphate hydrate; Dicalcium phosphate dihydrate

$$$$
