
     RDKit          2D

 42 46  0  0  0  0  0  0  0  0999 V2000
    0.0000   -1.0312    0.0000 N   0  0  0  0  0  0  0  0  0  0  0  0
   -0.7145   -1.4437    0.0000 C   0  0  0  0  0  0  0  0  0  0  0  0
   -1.4289   -1.0312    0.0000 C   0  0  0  0  0  0  0  0  0  0  0  0
   -2.1434   -1.4437    0.0000 C   0  0  0  0  0  0  0  0  0  0  0  0
   -2.1434   -2.2687    0.0000 O   0  0  0  0  0  0  0  0  0  0  0  0
   -1.4289   -2.6812    0.0000 C   0  0  0  0  0  0  0  0  0  0  0  0
   -0.7145   -2.2687    0.0000 C   0  0  0  0  0  0  0  0  0  0  0  0
    0.0000   -0.2062    0.0000 C   0  0  0  0  0  0  0  0  0  0  0  0
    0.7144    0.2062    0.0000 C   0  0  0  0  0  0  0  0  0  0  0  0
    0.7144    1.0312    0.0000 C   0  0  0  0  0  0  0  0  0  0  0  0
    1.4288    1.4436    0.0000 C   0  0  0  0  0  0  0  0  0  0  0  0
    2.1433    1.0312    0.0000 C   0  0  0  0  0  0  0  0  0  0  0  0
    2.8579    1.4436    0.0000 C   0  0  0  0  0  0  0  0  0  0  0  0
    2.8579    2.2686    0.0000 C   0  0  0  0  0  0  0  0  0  0  0  0
    3.5722    2.6811    0.0000 C   0  0  0  0  0  0  0  0  0  0  0  0
    4.2867    2.2686    0.0000 N   0  0  0  0  0  0  0  0  0  0  0  0
    5.0013    2.6811    0.0000 C   0  0  0  0  0  0  0  0  0  0  0  0
    5.7157    2.2686    0.0000 C   0  0  0  0  0  0  0  0  0  0  0  0
    5.7157    1.4436    0.0000 O   0  0  0  0  0  0  0  0  0  0  0  0
    5.0013    1.0312    0.0000 C   0  0  0  0  0  0  0  0  0  0  0  0
    4.2867    1.4436    0.0000 C   0  0  0  0  0  0  0  0  0  0  0  0
    2.1433    2.6811    0.0000 C   0  0  0  0  0  0  0  0  0  0  0  0
    1.4288    2.2686    0.0000 C   0  0  0  0  0  0  0  0  0  0  0  0
    0.0000    1.4437    0.0000 C   0  0  0  0  0  0  0  0  0  0  0  0
   -0.7144    1.0312    0.0000 C   0  0  0  0  0  0  0  0  0  0  0  0
   -1.4289    1.4437    0.0000 C   0  0  0  0  0  0  0  0  0  0  0  0
   -1.4289    2.2686    0.0000 O   0  0  0  0  0  0  0  0  0  0  0  0
   -2.1434    1.0312    0.0000 N   0  0  0  0  0  0  0  0  0  0  0  0
   -2.8579    1.4437    0.0000 C   0  0  0  0  0  0  0  0  0  0  0  0
   -3.5723    1.0312    0.0000 C   0  0  0  0  0  0  0  0  0  0  0  0
   -4.2868    1.4437    0.0000 C   0  0  0  0  0  0  0  0  0  0  0  0
   -4.2868    2.2686    0.0000 O   0  0  0  0  0  0  0  0  0  0  0  0
   -5.0013    1.0312    0.0000 N   0  0  0  0  0  0  0  0  0  0  0  0
   -5.0013    0.2062    0.0000 C   0  0  0  0  0  0  0  0  0  0  0  0
   -5.7157   -0.2062    0.0000 C   0  0  0  0  0  0  0  0  0  0  0  0
   -4.2868   -0.2062    0.0000 C   0  0  0  0  0  0  0  0  0  0  0  0
   -3.5723    0.2062    0.0000 C   0  0  0  0  0  0  0  0  0  0  0  0
   -2.8579   -0.2062    0.0000 C   0  0  0  0  0  0  0  0  0  0  0  0
   -0.7144    0.2062    0.0000 C   0  0  0  0  0  0  0  0  0  0  0  0
   -1.4289   -0.2062    0.0000 C   0  0  0  0  0  0  0  0  0  0  0  0
    0.7144   -1.4437    0.0000 C   0  0  0  0  0  0  0  0  0  0  0  0
    1.4288   -1.0312    0.0000 C   0  0  0  0  0  0  0  0  0  0  0  0
  1  2  1  0
  1  8  1  0
  1 41  1  0
  2  3  1  0
  2  7  1  0
  3  4  1  0
  4  5  1  0
  6  5  1  0
  7  6  1  0
  8  9  2  0
  8 39  1  0
  9 10  1  0
 10 11  1  0
 10 24  2  0
 11 12  2  0
 11 23  1  0
 12 13  1  0
 13 14  2  0
 14 15  1  0
 15 16  1  0
 16 17  1  0
 16 21  1  0
 17 18  1  0
 18 19  1  0
 20 19  1  0
 21 20  1  0
 22 14  1  0
 23 22  2  0
 25 24  1  0
 25 26  1  0
 26 27  2  0
 26 28  1  0
 28 29  1  0
 29 30  1  0
 30 31  1  0
 30 37  2  0
 31 32  2  0
 31 33  1  0
 33 34  1  0
 34 35  1  0
 36 34  2  0
 37 36  1  0
 37 38  1  0
 39 25  2  0
 39 40  1  0
 41 42  1  0
M  END
>  <DRUGBANK_ID>  (1) 
DB12887

>  <COMMON_NAME>  (1) 
Tazemetostat

>  <CAS_NUMBER>  (1) 
1403254-99-8

>  <UNII>  (1) 
Q40W93WPE1

>  <SYNONYMS>  (1) 
Tazemetostat; Tazémétostat; Tazemetostatum

$$$$
