
     RDKit          2D

 20 22  0  0  0  0  0  0  0  0999 V2000
   -0.8884    2.0924    0.0000 C   0  0  0  0  0  0  0  0  0  0  0  0
   -1.6029    1.6799    0.0000 N   0  0  0  0  0  0  0  0  0  0  0  0
   -0.8885    0.4424    0.0000 N   0  0  0  0  0  0  0  0  0  0  0  0
   -0.1740    0.8549    0.0000 C   0  0  0  0  0  0  0  0  0  0  0  0
   -0.1740    1.6799    0.0000 C   0  0  0  0  0  0  0  0  0  0  0  0
    0.6105    1.9348    0.0000 N   0  0  0  0  0  0  0  0  0  0  0  0
    1.0955    1.2673    0.0000 C   0  0  0  0  0  0  0  0  0  0  0  0
    0.6105    0.5999    0.0000 N   0  0  0  0  0  0  0  0  0  0  0  0
    0.8655   -0.1848    0.0000 C   0  0  0  0  0  0  0  0  0  0  0  0
    0.3805   -0.8521    0.0000 O   0  0  0  0  0  0  0  0  0  0  0  0
    0.8654   -1.5197    0.0000 C   0  0  0  0  0  0  0  0  0  0  0  0
    0.6104   -2.3043    0.0000 C   0  0  0  0  0  0  0  0  0  0  0  0
    1.1625   -2.9174    0.0000 O   0  0  0  0  0  0  0  0  0  0  0  0
    1.6500   -1.2647    0.0000 C   0  0  0  0  0  0  0  0  0  0  0  0
    2.3175   -1.7497    0.0000 O   0  0  0  0  0  0  0  0  0  0  0  0
    1.6501   -0.4397    0.0000 C   0  0  0  0  0  0  0  0  0  0  0  0
   -1.6030    0.8549    0.0000 C   0  0  0  0  0  0  0  0  0  0  0  0
   -2.3175    0.4424    0.0000 N   0  0  0  0  0  0  0  0  0  0  0  0
   -0.8884    2.9174    0.0000 O   0  0  0  0  0  0  0  0  0  0  0  0
    1.9205    1.2673    0.0000 O   0  0  0  0  0  0  0  0  0  0  0  0
  1  2  1  0
  1  5  1  0
  2 17  1  0
  3  4  1  0
  4  5  2  0
  4  8  1  0
  5  6  1  0
  6  7  2  0
  7  8  1  0
  7 20  1  0
  9  8  1  1
  9 10  1  0
  9 16  1  0
 10 11  1  0
 11 12  1  1
 11 14  1  0
 12 13  1  0
 14 15  1  6
 14 16  1  0
 17  3  2  0
 17 18  1  0
 19  1  2  0
M  END
>  <DRUGBANK_ID>  (1) 
DB02502

>  <SECONDARY_ACCESSION_NUMBERS>  (1) 
EXPT00333

>  <COMMON_NAME>  (1) 
8-hydroxy-2'-deoxyguanosine

>  <CAS_NUMBER>  (1) 
88847-89-6

>  <UNII>  (1) 
4RGB38T3IB

>  <SYNONYMS>  (1) 
8-Hydroxydeoxyguanosine; 8-OHdG; 8-Oxo-7,8-dihydro-2'-deoxyguanosine; 8-Oxo-dG; 8-Oxoguanosine

$$$$
