
     RDKit          2D

 30 34  0  0  0  0  0  0  0  0999 V2000
   10.5998   -0.7773    0.0000 C   0  0  0  0  0  0  0  0  0  0  0  0
    9.5570    0.1996    0.0000 C   0  0  0  0  0  0  0  0  0  0  0  0
    9.2324   -1.1919    0.0000 C   0  0  0  0  0  0  0  0  0  0  0  0
    5.7792    0.3472    0.0000 C   0  0  0  0  0  0  0  0  0  0  0  0
    1.1751   -1.3698    0.0000 C   0  0  0  0  0  0  0  0  0  0  0  0
    2.3144   -2.2323    0.0000 C   0  0  0  0  0  0  0  0  0  0  0  0
    0.6771   -2.0276    0.0000 C   0  0  0  0  0  0  0  0  0  0  0  0
    1.8164   -2.8901    0.0000 C   0  0  0  0  0  0  0  0  0  0  0  0
    8.7535    0.3870    0.0000 C   0  0  0  0  0  0  0  0  0  0  0  0
    8.4289   -1.0045    0.0000 C   0  0  0  0  0  0  0  0  0  0  0  0
    4.9758    0.5346    0.0000 C   0  0  0  0  0  0  0  0  0  0  0  0
    5.4546   -1.0444    0.0000 C   0  0  0  0  0  0  0  0  0  0  0  0
    3.9743   -1.3287    0.0000 C   0  0  0  0  0  0  0  0  0  0  0  0
    6.8221   -0.6297    0.0000 C   0  0  0  0  0  0  0  0  0  0  0  0
    9.7964   -0.5899    0.0000 C   0  0  0  0  0  0  0  0  0  0  0  0
    6.0186   -0.4423    0.0000 C   0  0  0  0  0  0  0  0  0  0  0  0
    1.9938   -1.4722    0.0000 C   0  0  0  0  0  0  0  0  0  0  0  0
    0.9978   -2.7877    0.0000 C   0  0  0  0  0  0  0  0  0  0  0  0
    4.6512   -0.8570    0.0000 C   0  0  0  0  0  0  0  0  0  0  0  0
    8.1895   -0.2151    0.0000 C   0  0  0  0  0  0  0  0  0  0  0  0
    4.4118   -0.0675    0.0000 C   0  0  0  0  0  0  0  0  0  0  0  0
    3.3166   -0.8307    0.0000 C   0  0  0  0  0  0  0  0  0  0  0  0
    2.4917   -0.8145    0.0000 C   0  0  0  0  0  0  0  0  0  0  0  0
    3.5869   -0.0513    0.0000 C   0  0  0  0  0  0  0  0  0  0  0  0
    0.4998   -3.4455    0.0000 C   0  0  0  0  0  0  0  0  0  0  0  0
    7.3861   -0.0276    0.0000 N   0  0  0  0  0  0  0  0  0  0  0  0
    2.2523   -0.0250    0.0000 N   0  0  0  0  0  0  0  0  0  0  0  0
    2.9292    0.4467    0.0000 N   0  0  0  0  0  0  0  0  0  0  0  0
    0.8204   -4.2056    0.0000 O   0  0  0  0  0  0  0  0  0  0  0  0
   -0.3188   -3.3431    0.0000 O   0  0  0  0  0  0  0  0  0  0  0  0
  7  5  2  0
  8  6  1  0
  9  2  1  0
 10  3  1  0
 11  4  2  0
 15  1  1  6
 15  2  1  0
 15  3  1  0
 16  4  1  0
 16 12  2  0
 16 14  1  0
 17  5  1  0
 17  6  2  0
 18  7  1  0
 18  8  2  0
 19 12  1  0
 19 13  1  0
 20  9  1  0
 20 10  1  0
 20 26  1  6
 21 11  1  0
 21 19  2  0
 22 13  1  0
 23 17  1  0
 23 22  1  0
 24 21  1  0
 24 22  2  0
 25 18  1  0
 26 14  1  0
 27 23  2  0
 28 24  1  0
 28 27  1  0
 29 25  1  0
 30 25  2  0
M  END
>  <DRUGBANK_ID>  (1) 
DB07320

>  <COMMON_NAME>  (1) 
4-(6-{[(4-METHYLCYCLOHEXYL)AMINO]METHYL}-1,4-DIHYDROINDENO[1,2-C]PYRAZOL-3-YL)BENZOIC ACID

$$$$
