
     RDKit          2D

 15 14  0  0  0  0  0  0  0  0999 V2000
    2.1434    2.3966    0.0000 O   0  0  0  0  0  0  0  0  0  0  0  0
    1.4289    3.6341    0.0000 O   0  0  0  0  0  0  0  0  0  0  0  0
   -0.7145   -0.0784    0.0000 N   0  0  0  0  0  0  0  0  0  0  0  0
    0.0000    2.8091    0.0000 N   0  0  0  0  0  0  0  0  0  0  0  0
   -1.4290   -1.3158    0.0000 N   0  0  0  0  0  0  0  0  0  0  0  0
    0.0000   -1.3158    0.0000 N   0  0  0  0  0  0  0  0  0  0  0  0
    0.7144    1.5716    0.0000 C   0  0  0  0  0  0  0  0  0  0  0  0
    0.0000    1.1591    0.0000 C   0  0  0  0  0  0  0  0  0  0  0  0
    0.7144    2.3966    0.0000 C   0  0  0  0  0  0  0  0  0  0  0  0
    0.0000    0.3341    0.0000 C   0  0  0  0  0  0  0  0  0  0  0  0
    1.4289    2.8091    0.0000 C   0  0  0  0  0  0  0  0  0  0  0  0
   -0.7145   -0.9034    0.0000 C   0  0  0  0  0  0  0  0  0  0  0  0
   -1.4290   -2.1408    0.0000 C   0  0  0  0  0  0  0  0  0  0  0  0
   -2.1434   -2.5534    0.0000 C   0  0  0  0  0  0  0  0  0  0  0  0
   -2.1434   -3.3784    0.0000 C   0  0  0  0  0  0  0  0  0  0  0  0
  1 11  1  0
  2 11  2  0
  3 10  1  0
  3 12  2  0
  5 12  1  0
  5 13  1  0
  6 12  1  0
  7  8  1  0
  7  9  1  0
  8 10  1  0
  9  4  1  6
  9 11  1  0
 13 14  1  0
 14 15  2  0
M  CHG  1   3   1
M  END
>  <DRUGBANK_ID>  (1) 
DB03892

>  <SECONDARY_ACCESSION_NUMBERS>  (1) 
EXPT00563

>  <COMMON_NAME>  (1) 
5-N-Allyl-arginine

$$$$
