TOL
     RDKit          2D

 24 25  0  0  0  0  0  0  0  0999 V2000
   -2.2716   -0.0276    0.0000 C   0  0  0  0  0  0  0  0  0  0  0  0
   -2.9861   -0.4401    0.0000 F   0  0  0  0  0  0  0  0  0  0  0  0
   -1.8591   -0.7421    0.0000 F   0  0  0  0  0  0  0  0  0  0  0  0
   -2.6841    0.6868    0.0000 F   0  0  0  0  0  0  0  0  0  0  0  0
   -1.5571    0.3849    0.0000 C   0  0  0  0  0  0  0  0  0  0  0  0
   -1.5571    1.2099    0.0000 C   0  0  0  0  0  0  0  0  0  0  0  0
   -2.2716    1.6224    0.0000 O   0  0  0  0  0  0  0  0  0  0  0  0
   -2.9861    1.2099    0.0000 C   0  0  0  0  0  0  0  0  0  0  0  0
   -0.8426    1.6224    0.0000 C   0  0  0  0  0  0  0  0  0  0  0  0
   -0.1282    1.2099    0.0000 C   0  0  0  0  0  0  0  0  0  0  0  0
   -0.1282    0.3849    0.0000 C   0  0  0  0  0  0  0  0  0  0  0  0
    0.5863   -0.0276    0.0000 C   0  0  0  0  0  0  0  0  0  0  0  0
    0.5863   -0.8526    0.0000 C   0  0  0  0  0  0  0  0  0  0  0  0
   -0.1282   -1.2651    0.0000 C   0  0  0  0  0  0  0  0  0  0  0  0
   -0.8426   -0.8526    0.0000 C   0  0  0  0  0  0  0  0  0  0  0  0
   -0.8426   -0.0276    0.0000 C   0  0  0  0  0  0  0  0  0  0  0  0
    1.3008    0.3849    0.0000 C   0  0  0  0  0  0  0  0  0  0  0  0
    1.3008    1.2099    0.0000 S   0  0  0  0  0  0  0  0  0  0  0  0
    2.0152   -0.0276    0.0000 N   0  0  0  0  0  0  0  0  0  0  0  0
    2.0152   -0.8526    0.0000 C   0  0  0  0  0  0  0  0  0  0  0  0
    2.7297    0.3849    0.0000 C   0  0  0  0  0  0  0  0  0  0  0  0
    3.4442   -0.0276    0.0000 C   0  0  0  0  0  0  0  0  0  0  0  0
    4.1587    0.3849    0.0000 O   0  0  0  0  0  0  0  0  0  0  0  0
    3.4442   -0.8526    0.0000 O   0  0  0  0  0  0  0  0  0  0  0  0
  1  2  1  0
  1  3  1  0
  1  4  1  0
  1  5  1  0
  5  6  2  0
  5 16  1  0
  6  7  1  0
  6  9  1  0
  7  8  1  0
  9 10  2  0
 10 11  1  0
 11 12  1  0
 11 16  2  0
 12 13  2  0
 12 17  1  0
 13 14  1  0
 14 15  2  0
 15 16  1  0
 17 18  2  0
 17 19  1  0
 19 20  1  0
 19 21  1  0
 21 22  1  0
 22 23  2  0
 22 24  1  0
M  END
>  <DRUGBANK_ID>  (1) 
DB02383

>  <SECONDARY_ACCESSION_NUMBERS>  (1) 
EXPT03082

>  <COMMON_NAME>  (1) 
Tolrestat

>  <CAS_NUMBER>  (1) 
82964-04-3

>  <UNII>  (1) 
0T93LG5NMK

>  <SYNONYMS>  (1) 
Tolrestat

$$$$
