
     RDKit          2D

 30 32  0  0  0  0  0  0  0  0999 V2000
   -1.4641    1.7336    0.0000 C   0  0  0  0  0  0  0  0  0  0  0  0
   -1.4641    0.0835    0.0000 C   0  0  0  0  0  0  0  0  0  0  0  0
    0.0349    0.2412    0.0000 C   0  0  0  0  0  0  0  0  0  0  0  0
    0.5199    0.9086    0.0000 C   0  0  0  0  0  0  0  0  0  0  0  0
   -2.1786    1.3211    0.0000 C   0  0  0  0  0  0  0  0  0  0  0  0
   -1.4641   -0.7414    0.0000 C   0  0  0  0  0  0  0  0  0  0  0  0
   -2.1786    0.4961    0.0000 C   0  0  0  0  0  0  0  0  0  0  0  0
   -2.1786   -1.1539    0.0000 C   0  0  0  0  0  0  0  0  0  0  0  0
   -2.1786   -1.9790    0.0000 C   0  0  0  0  0  0  0  0  0  0  0  0
   -1.4641   -2.3915    0.0000 C   0  0  0  0  0  0  0  0  0  0  0  0
   -2.8931   -2.3915    0.0000 C   0  0  0  0  0  0  0  0  0  0  0  0
   -1.4641   -3.2165    0.0000 C   0  0  0  0  0  0  0  0  0  0  0  0
   -0.7496   -1.9790    0.0000 C   0  0  0  0  0  0  0  0  0  0  0  0
   -2.8931   -3.2165    0.0000 C   0  0  0  0  0  0  0  0  0  0  0  0
   -2.1786   -3.6291    0.0000 C   0  0  0  0  0  0  0  0  0  0  0  0
   -3.6076   -3.6291    0.0000 O   0  0  0  0  0  0  0  0  0  0  0  0
   -0.6795    2.8137    0.0000 C   0  0  0  0  0  0  0  0  0  0  0  0
    0.0349    2.4012    0.0000 C   0  0  0  0  0  0  0  0  0  0  0  0
    0.7496    2.8137    0.0000 C   0  0  0  0  0  0  0  0  0  0  0  0
    1.4639    2.4012    0.0000 C   0  0  0  0  0  0  0  0  0  0  0  0
    3.6076    2.8137    0.0000 C   0  0  0  0  0  0  0  0  0  0  0  0
    2.8931    2.4012    0.0000 C   0  0  0  0  0  0  0  0  0  0  0  0
    2.8931    1.5762    0.0000 C   0  0  0  0  0  0  0  0  0  0  0  0
    2.1785    2.8137    0.0000 C   0  0  0  0  0  0  0  0  0  0  0  0
    2.1785    3.6388    0.0000 C   0  0  0  0  0  0  0  0  0  0  0  0
    0.0349    1.5762    0.0000 C   0  0  0  0  0  0  0  0  0  0  0  0
   -0.7496    0.4961    0.0000 C   0  0  0  0  0  0  0  0  0  0  0  0
   -0.7496    1.3211    0.0000 C   0  0  0  0  0  0  0  0  0  0  0  0
   -0.7496    2.1462    0.0000 C   0  0  0  0  0  0  0  0  0  0  0  0
   -0.7492   -3.6388    0.0000 O   0  0  0  0  0  0  0  0  0  0  0  0
  1  5  1  0
  2  6  2  0
  2  7  1  0
  3  4  1  0
  5  7  1  0
  6  8  1  0
  8  9  2  0
  9 10  1  0
  9 11  1  0
 10 12  1  0
 10 13  2  0
 11 14  1  0
 12 15  1  0
 12 30  1  1
 14 16  1  6
 14 15  1  0
 18 17  1  6
 18 19  1  0
 19 20  2  0
 20 24  1  0
 22 21  1  0
 22 23  1  0
 24 22  1  0
 24 25  1  6
 26  4  1  1
 26 18  1  0
 27 28  1  0
 27  2  1  0
 27  3  1  1
 28 26  1  0
 28  1  1  0
 28 29  1  1
M  END
>  <DRUGBANK_ID>  (1) 
DB06410

>  <COMMON_NAME>  (1) 
Doxercalciferol

>  <CAS_NUMBER>  (1) 
54573-75-0

>  <UNII>  (1) 
3DIZ9LF5Y9

>  <SYNONYMS>  (1) 
(1S,3R,5Z,7E,22E)-9,10-Secoergosta-5,7,10,22-tetraene-1,3-diol; 1-Hydroxyergocalciferol; 1-Hydroxyvitamin D2; 1α-Hydroxyergocalciferol; 1α-hydroxyvitamin D2; Doxercalciferol; Doxercalciferolum; Doxercalciférolum

$$$$
