
     RDKit          2D

 21 23  0  0  1  0  0  0  0  0999 V2000
    0.6773   -0.9323    0.0000 C   0  0  0  0  0  0  0  0  0  0  0  0
   -0.1477   -0.9323    0.0000 C   0  0  0  0  0  0  0  0  0  0  0  0
   -0.1477   -0.1073    0.0000 C   0  0  0  0  0  0  0  0  0  0  0  0
   -0.7310    0.4761    0.0000 O   0  0  0  0  0  0  0  0  0  0  0  0
    0.6773   -0.1073    0.0000 N   0  0  0  0  0  0  0  0  0  0  0  0
    1.4620    0.1477    0.0000 C   0  0  0  0  0  0  0  0  0  0  0  0
    1.7169    0.9323    0.0000 C   0  0  0  0  0  0  0  0  0  0  0  0
    2.5239    1.1038    0.0000 O   0  0  0  0  0  0  0  0  0  0  0  0
    1.1649    1.5454    0.0000 O   0  0  0  0  0  0  0  0  0  0  0  0
    1.9469   -0.5198    0.0000 C   0  0  0  0  0  0  0  0  0  0  0  0
    2.5600    0.0323    0.0000 C   0  0  0  0  0  0  0  0  0  0  0  0
    2.5600   -1.0718    0.0000 C   0  0  0  0  0  0  0  0  0  0  0  0
    3.3446   -0.8169    0.0000 N   0  0  0  0  0  0  0  0  0  0  0  0
    3.5995   -0.0323    0.0000 C   0  0  0  0  0  0  0  0  0  0  0  0
    4.4245   -0.0323    0.0000 C   0  0  0  0  0  0  0  0  0  0  0  0
    4.6795   -0.8169    0.0000 N   0  0  0  0  0  0  0  0  0  0  0  0
    5.4641   -1.0718    0.0000 C   0  0  0  0  0  0  0  0  0  0  0  0
    4.0120   -1.3018    0.0000 N   0  0  0  0  0  0  0  0  0  0  0  0
    1.4620   -1.1872    0.0000 S   0  0  0  0  0  0  0  0  0  0  0  0
    2.0692   -1.7456    0.0000 O   0  0  0  0  0  0  0  0  0  0  0  0
    1.2989   -1.9959    0.0000 O   0  0  0  0  0  0  0  0  0  0  0  0
  1  2  1  6
  1  5  1  0
  1 19  1  0
  2  3  1  0
  3  4  2  0
  3  5  1  0
  6  5  1  0
  6  7  1  1
  6 10  1  0
  7  8  1  0
  7  9  2  0
 10 11  1  1
 10 12  1  0
 10 19  1  0
 12 13  1  0
 13 14  1  0
 13 18  1  0
 14 15  2  0
 15 16  1  0
 16 17  1  0
 16 18  2  0
 19 20  2  0
 19 21  2  0
M  CHG  2   8  -1  16   1
M  END
>  <DRUGBANK_ID>  (1) 
DB18716

>  <COMMON_NAME>  (1) 
Enmetazobactam

>  <CAS_NUMBER>  (1) 
1001404-83-6

>  <UNII>  (1) 
80VUN7L00C

>  <SYNONYMS>  (1) 
(2s,3s,5r)-3-methyl-3-((3-methyltriazol-3-ium-1-yl)methyl)-4,4,7-trioxo-4^6-thia-1-azabicyclo(3.2.0)heptane-2-carboxylate; 1h-1,2,3-triazolium, 3-(((2s,3s,5r)-2-carboxy-3-methyl-4,4-dioxido-7-oxo-4-thia-1-azabicyclo(3.2.0)hept-3-yl)methyl)-1-methyl-, inner salt

$$$$
