287
     RDKit          2D

 32 33  0  0  1  0  0  0  0  0999 V2000
   10.0142    3.6771    0.0000 F   0  0  0  0  0  0  0  0  0  0  0  0
   11.6641    3.6771    0.0000 F   0  0  0  0  0  0  0  0  0  0  0  0
   10.8392    4.5021    0.0000 F   0  0  0  0  0  0  0  0  0  0  0  0
    7.0838   -4.0348    0.0000 O   0  0  0  0  0  0  0  0  0  0  0  0
    9.4334   -2.3278    0.0000 O   0  0  0  0  0  0  0  0  0  0  0  0
    7.9813    0.3771    0.0000 O   0  0  0  0  0  0  0  0  0  0  0  0
    9.4103    1.2021    0.0000 O   0  0  0  0  0  0  0  0  0  0  0  0
    2.6062   -1.0532    0.0000 O   0  0  0  0  0  0  0  0  0  0  0  0
    7.3139   -2.5828    0.0000 C   0  0  0  0  0  0  0  0  0  0  0  0
    7.9813   -2.0979    0.0000 C   0  0  0  0  0  0  0  0  0  0  0  0
    7.5688   -3.3674    0.0000 C   0  0  0  0  0  0  0  0  0  0  0  0
    8.6487   -2.5828    0.0000 C   0  0  0  0  0  0  0  0  0  0  0  0
    8.3938   -3.3674    0.0000 C   0  0  0  0  0  0  0  0  0  0  0  0
    6.5293   -2.3278    0.0000 C   0  0  0  0  0  0  0  0  0  0  0  0
    7.9813   -1.2729    0.0000 C   0  0  0  0  0  0  0  0  0  0  0  0
    5.9162   -2.8799    0.0000 C   0  0  0  0  0  0  0  0  0  0  0  0
    8.6958   -0.8604    0.0000 C   0  0  0  0  0  0  0  0  0  0  0  0
    8.6958   -0.0354    0.0000 C   0  0  0  0  0  0  0  0  0  0  0  0
    5.1315   -2.6250    0.0000 C   0  0  0  0  0  0  0  0  0  0  0  0
    4.9600   -1.8180    0.0000 C   0  0  0  0  0  0  0  0  0  0  0  0
    9.4103    0.3771    0.0000 C   0  0  0  0  0  0  0  0  0  0  0  0
    4.1754   -1.5631    0.0000 C   0  0  0  0  0  0  0  0  0  0  0  0
    4.0039   -0.7560    0.0000 C   0  0  0  0  0  0  0  0  0  0  0  0
   10.1247    1.6146    0.0000 C   0  0  0  0  0  0  0  0  0  0  0  0
    3.2192   -0.5011    0.0000 C   0  0  0  0  0  0  0  0  0  0  0  0
   10.1247    2.4396    0.0000 C   0  0  0  0  0  0  0  0  0  0  0  0
   10.8392    1.2021    0.0000 C   0  0  0  0  0  0  0  0  0  0  0  0
   10.8392    2.8521    0.0000 C   0  0  0  0  0  0  0  0  0  0  0  0
   11.5538    1.6146    0.0000 C   0  0  0  0  0  0  0  0  0  0  0  0
   11.5538    2.4396    0.0000 C   0  0  0  0  0  0  0  0  0  0  0  0
   10.8392    3.6771    0.0000 C   0  0  0  0  0  0  0  0  0  0  0  0
    3.0475    0.3058    0.0000 O   0  0  0  0  0  0  0  0  0  0  0  0
  1 31  1  0
  2 31  1  0
  3 31  1  0
  7 21  1  0
  7 24  1  0
  8 25  2  0
  9 10  1  0
  9 11  1  0
  9 14  1  6
 10 12  1  0
 10 15  1  1
 11  4  1  6
 11 13  1  0
 12  5  1  6
 12 13  1  0
 14 16  1  0
 15 17  2  0
 16 19  2  0
 17 18  1  0
 18  6  1  1
 18 21  1  0
 19 20  1  0
 20 22  1  0
 22 23  1  0
 23 25  1  0
 24 26  2  0
 24 27  1  0
 25 32  1  0
 26 28  1  0
 27 29  2  0
 28 30  2  0
 28 31  1  0
 29 30  1  0
M  END
>  <DRUGBANK_ID>  (1) 
DB11519

>  <COMMON_NAME>  (1) 
Fluprostenol

>  <CAS_NUMBER>  (1) 
40666-16-8

>  <UNII>  (1) 
358S7VUE5N

>  <SYNONYMS>  (1) 
Fluprostenol; Fluprostenolum; Travoprost acid; Travoprost free acid

$$$$
