LS5
     RDKit          2D

 25 27  0  0  0  0  0  0  0  0999 V2000
    0.5995   -3.0758    0.0000 N   0  0  0  0  0  0  0  0  0  0  0  0
    0.1146   -2.4084    0.0000 C   0  0  0  0  0  0  0  0  0  0  0  0
    0.5995   -1.7409    0.0000 C   0  0  0  0  0  0  0  0  0  0  0  0
    2.0986   -1.5834    0.0000 C   0  0  0  0  0  0  0  0  0  0  0  0
    2.8131   -1.9959    0.0000 C   0  0  0  0  0  0  0  0  0  0  0  0
    2.8131   -2.8209    0.0000 C   0  0  0  0  0  0  0  0  0  0  0  0
    2.0986   -3.2334    0.0000 C   0  0  0  0  0  0  0  0  0  0  0  0
    1.3841   -2.8209    0.0000 C   0  0  0  0  0  0  0  0  0  0  0  0
    1.3841   -1.9959    0.0000 C   0  0  0  0  0  0  0  0  0  0  0  0
   -0.7104   -2.4084    0.0000 O   0  0  0  0  0  0  0  0  0  0  0  0
    0.3445   -0.9563    0.0000 C   0  0  0  0  0  0  0  0  0  0  0  0
   -0.4624   -0.7848    0.0000 N   0  0  0  0  0  0  0  0  0  0  0  0
   -0.7174   -0.0002    0.0000 C   0  0  0  0  0  0  0  0  0  0  0  0
   -1.5243    0.1714    0.0000 C   0  0  0  0  0  0  0  0  0  0  0  0
   -1.7793    0.9560    0.0000 C   0  0  0  0  0  0  0  0  0  0  0  0
   -1.2272    1.5691    0.0000 C   0  0  0  0  0  0  0  0  0  0  0  0
   -0.4203    1.3975    0.0000 C   0  0  0  0  0  0  0  0  0  0  0  0
   -0.1653    0.6129    0.0000 C   0  0  0  0  0  0  0  0  0  0  0  0
   -1.4822    2.3537    0.0000 S   0  0  0  0  0  0  0  0  0  0  0  0
   -0.6976    2.6086    0.0000 O   0  0  0  0  0  0  0  0  0  0  0  0
   -2.2668    2.0987    0.0000 O   0  0  0  0  0  0  0  0  0  0  0  0
   -1.7371    3.1383    0.0000 N   0  0  0  0  0  0  0  0  0  0  0  0
   -1.1851    3.7514    0.0000 C   0  0  0  0  0  0  0  0  0  0  0  0
   -1.4400    4.5360    0.0000 N   0  0  0  0  0  0  0  0  0  0  0  0
   -0.3781    3.5799    0.0000 N   0  0  0  0  0  0  0  0  0  0  0  0
  1  2  1  0
  1  8  1  0
  2  3  1  0
  2 10  2  0
  3  9  1  0
  3 11  2  0
  4  5  1  0
  4  9  2  0
  5  6  2  0
  6  7  1  0
  7  8  2  0
  8  9  1  0
 11 12  1  0
 12 13  1  0
 13 14  2  0
 13 18  1  0
 14 15  1  0
 15 16  2  0
 16 17  1  0
 16 19  1  0
 17 18  2  0
 19 20  2  0
 19 21  2  0
 19 22  1  0
 22 23  1  0
 23 24  2  0
 23 25  1  0
M  END
>  <DRUGBANK_ID>  (1) 
DB08126

>  <COMMON_NAME>  (1) 
3-{[4-([amino(imino)methyl]aminosulfonyl)anilino]methylene}-2-oxo-2,3-dihydro-1H-indole

$$$$
