PU0
     RDKit          2D

 26 28  0  0  0  0  0  0  0  0999 V2000
    0.6116    2.0466    0.0000 C   0  0  0  0  0  0  0  0  0  0  0  0
   -1.0384    2.0466    0.0000 C   0  0  0  0  0  0  0  0  0  0  0  0
    0.1991    1.3321    0.0000 O   0  0  0  0  0  0  0  0  0  0  0  0
   -0.6259    1.3321    0.0000 C   0  0  0  0  0  0  0  0  0  0  0  0
   -1.8634    2.0466    0.0000 C   0  0  0  0  0  0  0  0  0  0  0  0
   -2.2759    1.3321    0.0000 C   0  0  0  0  0  0  0  0  0  0  0  0
   -3.1009    1.3321    0.0000 O   0  0  0  0  0  0  0  0  0  0  0  0
   -3.5134    2.0466    0.0000 C   0  0  0  0  0  0  0  0  0  0  0  0
   -1.8634    0.6176    0.0000 C   0  0  0  0  0  0  0  0  0  0  0  0
   -1.0384    0.6176    0.0000 C   0  0  0  0  0  0  0  0  0  0  0  0
   -0.6259   -0.0968    0.0000 C   0  0  0  0  0  0  0  0  0  0  0  0
    0.1991   -0.0968    0.0000 C   0  0  0  0  0  0  0  0  0  0  0  0
    0.6841    0.5706    0.0000 N   0  0  0  0  0  0  0  0  0  0  0  0
    1.4687    0.3157    0.0000 C   0  0  0  0  0  0  0  0  0  0  0  0
    2.1831    0.7282    0.0000 C   0  0  0  0  0  0  0  0  0  0  0  0
    2.1831    1.5532    0.0000 N   0  0  0  0  0  0  0  0  0  0  0  0
    1.4687   -0.5093    0.0000 C   0  0  0  0  0  0  0  0  0  0  0  0
    2.1831   -0.9218    0.0000 N   0  0  0  0  0  0  0  0  0  0  0  0
    2.8976   -0.5093    0.0000 C   0  0  0  0  0  0  0  0  0  0  0  0
    2.8976    0.3157    0.0000 N   0  0  0  0  0  0  0  0  0  0  0  0
    0.6841   -0.7643    0.0000 N   0  0  0  0  0  0  0  0  0  0  0  0
    0.4291   -1.5489    0.0000 C   0  0  0  0  0  0  0  0  0  0  0  0
    0.9811   -2.1620    0.0000 C   0  0  0  0  0  0  0  0  0  0  0  0
    0.7262   -2.9466    0.0000 C   0  0  0  0  0  0  0  0  0  0  0  0
    1.2782   -3.5597    0.0000 C   0  0  0  0  0  0  0  0  0  0  0  0
    3.6121   -0.9218    0.0000 F   0  0  0  0  0  0  0  0  0  0  0  0
  1  3  1  0
  2  4  2  0
  2  5  1  0
  3  4  1  0
  4 10  1  0
  5  6  2  0
  6  7  1  0
  6  9  1  0
  7  8  1  0
  9 10  2  0
 10 11  1  0
 11 12  1  0
 12 13  2  0
 12 21  1  0
 13 14  1  0
 14 15  2  0
 14 17  1  0
 15 16  1  0
 15 20  1  0
 17 18  2  0
 17 21  1  0
 18 19  1  0
 19 20  2  0
 19 26  1  0
 21 22  1  0
 22 23  1  0
 23 24  1  0
 24 25  1  0
M  END
>  <DRUGBANK_ID>  (1) 
DB04054

>  <SECONDARY_ACCESSION_NUMBERS>  (1) 
EXPT02691

>  <COMMON_NAME>  (1) 
9-Butyl-8-(2,5-Dimethoxy-Benzyl)-2-Fluoro-9h-Purin-6-Ylamine

$$$$
