
     RDKit          2D

 23 25  0  0  0  0  0  0  0  0999 V2000
    0.5537    2.9152    0.0000 P   0  0  0  0  0  0  0  0  0  0  0  0
    1.9572   -0.8346    0.0000 O   0  0  0  0  0  0  0  0  0  0  0  0
    1.9603    0.9603    0.0000 O   0  0  0  0  0  0  0  0  0  0  0  0
    0.8074    2.1300    0.0000 O   0  0  0  0  0  0  0  0  0  0  0  0
    1.3389    3.1688    0.0000 O   0  0  0  0  0  0  0  0  0  0  0  0
    0.3001    3.7002    0.0000 O   0  0  0  0  0  0  0  0  0  0  0  0
   -1.2459   -3.7002    0.0000 O   0  0  0  0  0  0  0  0  0  0  0  0
   -0.2312    2.6616    0.0000 O   0  0  0  0  0  0  0  0  0  0  0  0
    0.0217    0.0662    0.0000 N   0  0  0  0  0  0  0  0  0  0  0  0
    0.2492   -2.7142    0.0000 N   0  0  0  0  0  0  0  0  0  0  0  0
   -1.2459   -1.2252    0.0000 N   0  0  0  0  0  0  0  0  0  0  0  0
   -1.9603   -2.4627    0.0000 N   0  0  0  0  0  0  0  0  0  0  0  0
    0.5055   -0.6020    0.0000 C   0  0  0  0  0  0  0  0  0  0  0  0
    0.5078    0.7327    0.0000 C   0  0  0  0  0  0  0  0  0  0  0  0
    1.2906   -0.3484    0.0000 C   0  0  0  0  0  0  0  0  0  0  0  0
    1.2921    0.4765    0.0000 C   0  0  0  0  0  0  0  0  0  0  0  0
    0.2492   -1.3863    0.0000 C   0  0  0  0  0  0  0  0  0  0  0  0
    0.2543    1.5179    0.0000 C   0  0  0  0  0  0  0  0  0  0  0  0
   -0.5313   -1.6376    0.0000 C   0  0  0  0  0  0  0  0  0  0  0  0
    0.7307   -2.0501    0.0000 C   0  0  0  0  0  0  0  0  0  0  0  0
   -0.5313   -2.4627    0.0000 C   0  0  0  0  0  0  0  0  0  0  0  0
   -1.2459   -2.8752    0.0000 C   0  0  0  0  0  0  0  0  0  0  0  0
   -1.9603   -1.6376    0.0000 C   0  0  0  0  0  0  0  0  0  0  0  0
  1  4  1  0
  1  5  1  0
  1  6  1  0
  1  8  2  0
  4 18  1  0
  7 22  2  0
  9 13  1  0
  9 14  1  0
 10 20  1  0
 10 21  1  0
 11 19  1  0
 11 23  1  0
 12 22  1  0
 12 23  2  0
 13 15  1  0
 13 17  1  6
 14 16  1  0
 14 18  1  6
 15  2  1  1
 15 16  1  0
 16  3  1  1
 17 19  1  0
 17 20  2  0
 19 21  2  0
 21 22  1  0
M  END
>  <DRUGBANK_ID>  (1) 
DB02075

>  <SECONDARY_ACCESSION_NUMBERS>  (1) 
EXPT01929

>  <COMMON_NAME>  (1) 
[(2R,3R,4S,5S)-3,4-Dihydroxy-5-(4-oxo-4,5-dihydro-1H-pyrrolo[3,2-d]pyrimidin-7-yl)-2-pyrrolidinyl]methyl dihydrogen phosphate

$$$$
