
     RDKit          2D

 33 36  0  0  1  0  0  0  0  0999 V2000
   -1.7029    0.2165    0.0000 C   0  0  0  0  0  0  0  0  0  0  0  0
   -2.4173   -0.1960    0.0000 C   0  0  0  0  0  0  0  0  0  0  0  0
   -1.7029   -1.4335    0.0000 C   0  0  0  0  0  0  0  0  0  0  0  0
   -0.2739   -1.4335    0.0000 C   0  0  0  0  0  0  0  0  0  0  0  0
   -0.9884   -0.1960    0.0000 C   0  0  0  0  0  0  0  0  0  0  0  0
   -0.2739    1.0415    0.0000 C   0  0  0  0  0  0  0  0  0  0  0  0
    1.9396   -0.0384    0.0000 C   0  0  0  0  0  0  0  0  0  0  0  0
    2.4246    0.6290    0.0000 C   0  0  0  0  0  0  0  0  0  0  0  0
   -0.9884    0.6290    0.0000 C   0  0  0  0  0  0  0  0  0  0  0  0
   -0.2739    0.2165    0.0000 C   0  0  0  0  0  0  0  0  0  0  0  0
    0.4405   -0.1960    0.0000 C   0  0  0  0  0  0  0  0  0  0  0  0
    1.1550    0.2165    0.0000 C   0  0  0  0  0  0  0  0  0  0  0  0
    1.1550    1.0415    0.0000 C   0  0  0  0  0  0  0  0  0  0  0  0
    1.1550    1.8665    0.0000 C   0  0  0  0  0  0  0  0  0  0  0  0
   -2.4173   -1.0210    0.0000 C   0  0  0  0  0  0  0  0  0  0  0  0
   -3.1318   -1.4335    0.0000 O   0  0  0  0  0  0  0  0  0  0  0  0
    0.4405   -1.0210    0.0000 C   0  0  0  0  0  0  0  0  0  0  0  0
    1.1550   -1.4335    0.0000 O   0  0  0  0  0  0  0  0  0  0  0  0
   -0.9884   -1.0210    0.0000 C   0  0  0  0  0  0  0  0  0  0  0  0
    3.5821    2.0933    0.0000 C   0  0  0  0  0  0  0  0  0  0  0  0
    2.8676    2.5058    0.0000 C   0  0  0  0  0  0  0  0  0  0  0  0
    4.2965    2.5058    0.0000 C   0  0  0  0  0  0  0  0  0  0  0  0
    4.2965    3.3308    0.0000 O   0  0  0  0  0  0  0  0  0  0  0  0
    1.9396    1.2964    0.0000 C   0  0  0  0  0  0  0  0  0  0  0  0
    0.4405    1.4540    0.0000 C   0  0  0  0  0  0  0  0  0  0  0  0
    0.4405    2.2790    0.0000 O   0  0  0  0  0  0  0  0  0  0  0  0
    2.1531    2.0933    0.0000 C   0  0  0  0  0  0  0  0  0  0  0  0
    1.5698    2.6767    0.0000 C   0  0  0  0  0  0  0  0  0  0  0  0
    5.0109    2.0933    0.0000 N   0  0  0  0  0  0  0  0  0  0  0  0
    5.7254    2.5058    0.0000 C   0  0  0  0  0  0  0  0  0  0  0  0
    6.4398    2.0933    0.0000 C   0  0  0  0  0  0  0  0  0  0  0  0
    6.4398    1.2683    0.0000 O   0  0  0  0  0  0  0  0  0  0  0  0
    7.1543    2.5058    0.0000 O   0  0  0  0  0  0  0  0  0  0  0  0
  2  1  1  0
  4 17  1  0
  5 10  1  0
  5  9  1  1
  5  1  1  0
  6 25  1  0
  8  7  1  0
 10  6  1  1
 10 11  1  0
 11 12  1  0
 11 17  1  6
 12 13  1  0
 12  7  1  1
 13 24  1  0
 13 25  1  0
 13 14  1  1
 15  3  1  0
 15  2  1  0
 15 16  1  6
 17 18  1  6
 19  5  1  0
 19  3  1  6
 19  4  1  0
 20 21  1  0
 20 22  1  0
 22 29  1  0
 22 23  2  0
 24  8  1  1
 24 27  1  0
 25 26  1  6
 27 21  1  0
 27 28  1  6
 29 30  1  0
 30 31  1  0
 31 33  1  0
 31 32  2  0
M  CHG  1  33  -1
M  END
>  <DRUGBANK_ID>  (1) 
DB02691

>  <SECONDARY_ACCESSION_NUMBERS>  (1) 
EXPT01558

>  <COMMON_NAME>  (1) 
Glycocholic acid

>  <CAS_NUMBER>  (1) 
475-31-0

>  <UNII>  (1) 
G59NX3I3RT

>  <SYNONYMS>  (1) 
N-choloylglycine

$$$$
