
     RDKit          2D

 17 17  0  0  0  0  0  0  0  0999 V2000
   -0.0771   -2.4908    0.0000 C   0  0  0  0  0  0  0  0  0  0  0  0
   -0.3465    1.1694    0.0000 O   0  0  0  0  0  0  0  0  0  0  0  0
    0.2247    0.8398    0.0000 C   0  0  0  0  0  0  0  0  0  0  0  0
    0.9390    1.2527    0.0000 O   0  0  0  0  0  0  0  0  0  0  0  0
    0.9390    2.0778    0.0000 C   0  0  0  0  0  0  0  0  0  0  0  0
    1.6533    2.4908    0.0000 C   0  0  0  0  0  0  0  0  0  0  0  0
    1.6667    1.6561    0.0000 C   0  0  0  0  0  0  0  0  0  0  0  0
    0.2244    2.4900    0.0000 C   0  0  0  0  0  0  0  0  0  0  0  0
    0.2248    0.0147    0.0000 N   0  0  0  0  0  0  0  0  0  0  0  0
   -0.4894   -0.3982    0.0000 C   0  0  0  0  0  0  0  0  0  0  0  0
   -1.2040    0.0140    0.0000 C   0  0  0  0  0  0  0  0  0  0  0  0
   -1.6665   -0.7007    0.0000 C   0  0  0  0  0  0  0  0  0  0  0  0
   -1.6667    0.7285    0.0000 C   0  0  0  0  0  0  0  0  0  0  0  0
   -0.4894   -1.2218    0.0000 C   0  0  0  0  0  0  0  0  0  0  0  0
    0.1776   -1.7065    0.0000 O   0  0  0  0  0  0  0  0  0  0  0  0
   -0.9017   -2.4908    0.0000 N   0  0  0  0  0  0  0  0  0  0  0  0
   -1.1564   -1.7065    0.0000 N   0  0  0  0  0  0  0  0  0  0  0  0
  1 15  1  0
  1 16  2  0
  3  2  2  0
  3  9  1  0
  3  4  1  0
  5  4  1  0
  5  6  1  0
  5  7  1  0
  5  8  1  0
 10  9  1  6
 11 10  1  0
 11 12  1  0
 11 13  1  0
 14 10  1  0
 14 15  1  0
 14 17  2  0
 17 16  1  0
M  END
>  <DRUGBANK_ID>  (1) 
DB08337

>  <COMMON_NAME>  (1) 
2-Methyl-2-propanyl [(1S)-2-methyl-1-(1,3,4-oxadiazol-2-yl)propyl]carbamate

$$$$
