
     RDKit          2D

 17 18  0  0  1  0  0  0  0  0999 V2000
   -0.3657   -0.1346    0.0000 C   0  0  0  0  0  0  0  0  0  0  0  0
    0.4244    0.1173    0.0000 N   0  0  0  0  0  0  0  0  0  0  0  0
   -1.0420    0.3796    0.0000 O   0  0  0  0  0  0  0  0  0  0  0  0
   -0.6106   -0.9005    0.0000 C   0  0  0  0  0  0  0  0  0  0  0  0
    1.0213   -0.4417    0.0000 C   0  0  0  0  0  0  0  0  0  0  0  0
    0.6106    0.9177    0.0000 C   0  0  0  0  0  0  0  0  0  0  0  0
   -1.7078   -0.1173    0.0000 C   0  0  0  0  0  0  0  0  0  0  0  0
   -1.4492   -0.9005    0.0000 C   0  0  0  0  0  0  0  0  0  0  0  0
    1.8148   -0.2070    0.0000 N   0  0  0  0  0  0  0  0  0  0  0  0
    0.8384   -1.2524    0.0000 O   0  0  0  0  0  0  0  0  0  0  0  0
    1.4008    1.1628    0.0000 C   0  0  0  0  0  0  0  0  0  0  0  0
   -2.4946    0.1311    0.0000 C   0  0  0  0  0  0  0  0  0  0  0  0
   -1.7044   -1.7078    0.0000 O   0  0  0  0  0  0  0  0  0  0  0  0
    1.9942    0.5900    0.0000 C   0  0  0  0  0  0  0  0  0  0  0  0
    1.5871    1.9632    0.0000 C   0  0  0  0  0  0  0  0  0  0  0  0
   -3.1052   -0.4244    0.0000 O   0  0  0  0  0  0  0  0  0  0  0  0
    2.7844    0.8281    0.0000 O   0  0  0  0  0  0  0  0  0  0  0  0
  1  2  1  1
  1  3  1  0
  1  4  1  0
  2  5  1  0
  2  6  1  0
  3  7  1  0
  4  8  1  0
  5  9  1  0
  5 10  2  0
  6 11  2  0
  7 12  1  1
  7  8  1  0
  8 13  1  6
  9 14  1  0
 11 15  1  0
 11 14  1  0
 12 16  1  0
 14 17  2  0
M  END
>  <DRUGBANK_ID>  (1) 
DB04485

>  <SECONDARY_ACCESSION_NUMBERS>  (1) 
EXPT03053

>  <COMMON_NAME>  (1) 
Thymidine

>  <CAS_NUMBER>  (1) 
50-89-5

>  <UNII>  (1) 
VC2W18DGKR

>  <SYNONYMS>  (1) 
2'-deoxy-5-methyluridine; 2'-deoxythymidine; 2'-thymidine; Deoxyribosylthymine; Deoxythymidine; dThd; Thymidine; Thymine 2'-deoxyriboside; Thymine deoxyriboside

$$$$
