
     RDKit          2D

 29 33  0  0  1  0  0  0  0  0999 V2000
   -2.2557    2.1469    0.0000 C   0  0  0  0  0  0  0  0  0  0  0  0
   -1.5409    1.7344    0.0000 C   0  0  0  0  0  0  0  0  0  0  0  0
   -1.5409    0.9099    0.0000 C   0  0  0  0  0  0  0  0  0  0  0  0
   -2.2557    0.4976    0.0000 C   0  0  0  0  0  0  0  0  0  0  0  0
   -2.5959    1.0112    0.0000 C   0  0  0  0  0  0  0  0  0  0  0  0
   -2.5959    1.6320    0.0000 C   0  0  0  0  0  0  0  0  0  0  0  0
   -2.9704    0.9099    0.0000 C   0  0  0  0  0  0  0  0  0  0  0  0
   -2.9704    1.7344    0.0000 C   0  0  0  0  0  0  0  0  0  0  0  0
   -0.8263    0.4976    0.0000 N   0  0  0  0  0  0  0  0  0  0  0  0
   -0.8263   -0.3314    0.0000 C   0  0  0  0  0  0  0  0  0  0  0  0
   -0.1115   -0.7437    0.0000 N   0  0  0  0  0  0  0  0  0  0  0  0
   -0.1115   -1.5684    0.0000 C   0  0  0  0  0  0  0  0  0  0  0  0
   -0.8263   -1.9806    0.0000 N   0  0  0  0  0  0  0  0  0  0  0  0
   -1.5409   -1.5684    0.0000 C   0  0  0  0  0  0  0  0  0  0  0  0
   -1.5409   -0.7437    0.0000 C   0  0  0  0  0  0  0  0  0  0  0  0
   -2.2557   -0.3314    0.0000 F   0  0  0  0  0  0  0  0  0  0  0  0
    0.6031   -1.9806    0.0000 C   0  0  0  0  0  0  0  0  0  0  0  0
    0.6869   -2.8005    0.0000 C   0  0  0  0  0  0  0  0  0  0  0  0
    1.4966   -2.9715    0.0000 N   0  0  0  0  0  0  0  0  0  0  0  0
    1.9090   -2.2568    0.0000 C   0  0  0  0  0  0  0  0  0  0  0  0
    1.3555   -1.6421    0.0000 C   0  0  0  0  0  0  0  0  0  0  0  0
    1.6118   -0.8610    0.0000 C   0  0  0  0  0  0  0  0  0  0  0  0
    2.4172   -0.6899    0.0000 C   0  0  0  0  0  0  0  0  0  0  0  0
    2.9704   -1.3001    0.0000 C   0  0  0  0  0  0  0  0  0  0  0  0
    2.7141   -2.0858    0.0000 N   0  0  0  0  0  0  0  0  0  0  0  0
    2.6733    0.0956    0.0000 F   0  0  0  0  0  0  0  0  0  0  0  0
   -0.8263    2.1469    0.0000 C   0  0  0  0  0  0  0  0  0  0  0  0
   -0.8263    2.9715    0.0000 O   0  0  0  0  0  0  0  0  0  0  0  0
   -0.1115    1.7344    0.0000 O   0  0  0  0  0  0  0  0  0  0  0  0
  1  2  1  0
  1  6  1  0
  1  8  1  0
  2  3  1  0
  2 27  1  6
  3  4  1  0
  3  9  1  1
  4  5  1  0
  4  7  1  0
  5  6  1  0
  8  7  1  0
  9 10  1  0
 10 15  1  0
 11 10  2  0
 12 11  1  0
 12 13  2  0
 12 17  1  0
 14 13  1  0
 15 14  2  0
 15 16  1  0
 17 18  2  0
 19 18  1  0
 20 19  1  0
 20 21  2  0
 20 25  1  0
 21 22  1  0
 21 17  1  0
 22 23  2  0
 23 24  1  0
 23 26  1  0
 24 25  2  0
 27 28  2  0
 27 29  1  0
M  END
>  <DRUGBANK_ID>  (1) 
DB14974

>  <COMMON_NAME>  (1) 
Pimodivir

>  <CAS_NUMBER>  (1) 
1629869-44-8

>  <UNII>  (1) 
DFC121MXC3

>  <SYNONYMS>  (1) 
JNJ-63623872; Pimodivir

$$$$
