
     RDKit          2D

 27 29  0  0  0  0  0  0  0  0999 V2000
    1.7862    2.2687    0.0000 O   0  0  0  0  0  0  0  0  0  0  0  0
    0.3572   -0.2062    0.0000 N   0  0  0  0  0  0  0  0  0  0  0  0
    0.3572    2.2687    0.0000 N   0  0  0  0  0  0  0  0  0  0  0  0
    0.3572    1.4437    0.0000 C   0  0  0  0  0  0  0  0  0  0  0  0
    1.0717    1.0312    0.0000 C   0  0  0  0  0  0  0  0  0  0  0  0
   -0.3571    0.2062    0.0000 C   0  0  0  0  0  0  0  0  0  0  0  0
   -0.3571    1.0312    0.0000 C   0  0  0  0  0  0  0  0  0  0  0  0
    1.0717    0.2062    0.0000 C   0  0  0  0  0  0  0  0  0  0  0  0
    0.3572   -1.0312    0.0000 C   0  0  0  0  0  0  0  0  0  0  0  0
    1.7862    1.4437    0.0000 C   0  0  0  0  0  0  0  0  0  0  0  0
   -1.0717   -0.2062    0.0000 C   0  0  0  0  0  0  0  0  0  0  0  0
    1.0717   -1.4437    0.0000 C   0  0  0  0  0  0  0  0  0  0  0  0
   -0.3571    2.6813    0.0000 C   0  0  0  0  0  0  0  0  0  0  0  0
    1.0717    2.6813    0.0000 C   0  0  0  0  0  0  0  0  0  0  0  0
    1.0717   -2.2687    0.0000 C   0  0  0  0  0  0  0  0  0  0  0  0
    1.0717    3.5063    0.0000 C   0  0  0  0  0  0  0  0  0  0  0  0
   -1.0717    2.2687    0.0000 C   0  0  0  0  0  0  0  0  0  0  0  0
   -0.3571    3.5063    0.0000 C   0  0  0  0  0  0  0  0  0  0  0  0
    1.7862    3.9188    0.0000 C   0  0  0  0  0  0  0  0  0  0  0  0
    1.7862   -2.6813    0.0000 C   0  0  0  0  0  0  0  0  0  0  0  0
    0.3572   -2.6813    0.0000 C   0  0  0  0  0  0  0  0  0  0  0  0
   -1.7862    2.6813    0.0000 C   0  0  0  0  0  0  0  0  0  0  0  0
   -1.0717    3.9188    0.0000 C   0  0  0  0  0  0  0  0  0  0  0  0
   -1.7862    3.5063    0.0000 C   0  0  0  0  0  0  0  0  0  0  0  0
    1.7862   -3.5063    0.0000 C   0  0  0  0  0  0  0  0  0  0  0  0
    0.3572   -3.5063    0.0000 C   0  0  0  0  0  0  0  0  0  0  0  0
    1.0717   -3.9188    0.0000 C   0  0  0  0  0  0  0  0  0  0  0  0
  1 14  2  0
  2  6  1  0
  2  8  1  0
  2  9  1  0
  3  4  1  0
  3 13  1  0
  3 14  1  0
  4  5  1  0
  4  7  1  0
  5  8  1  0
  5 10  1  0
  6  7  1  0
  6 11  1  0
  9 12  1  0
 12 15  1  0
 13 17  2  0
 13 18  1  0
 14 16  1  0
 15 20  2  0
 15 21  1  0
 16 19  1  0
 17 22  1  0
 18 23  2  0
 20 25  1  0
 21 26  2  0
 22 24  2  0
 23 24  1  0
 25 27  2  0
 26 27  1  0
M  END
>  <DRUGBANK_ID>  (1) 
DB09178

>  <COMMON_NAME>  (1) 
Phenaridine

>  <CAS_NUMBER>  (1) 
42045-97-6

>  <UNII>  (1) 
S07S9928YH

>  <SYNONYMS>  (1) 
2,5-Dimethylfentanyl

$$$$
