
     RDKit          2D

 31 34  0  0  0  0  0  0  0  0999 V2000
   -0.8982   -2.4171    0.0000 C   0  0  0  0  0  0  0  0  0  0  0  0
   -0.8982   -1.6114    0.0000 C   0  0  0  0  0  0  0  0  0  0  0  0
   -1.6277   -1.1868    0.0000 O   0  0  0  0  0  0  0  0  0  0  0  0
   -1.6277   -2.8417    0.0000 N   0  0  0  0  0  0  0  0  0  0  0  0
   -2.3499   -1.5896    0.0000 C   0  0  0  0  0  0  0  0  0  0  0  0
   -2.3499   -2.4388    0.0000 C   0  0  0  0  0  0  0  0  0  0  0  0
   -0.0309   -1.6223    0.0000 C   0  0  0  0  0  0  0  0  0  0  0  0
   -0.8982   -0.7476    0.0000 C   0  0  0  0  0  0  0  0  0  0  0  0
   -0.1470   -2.8417    0.0000 O   0  0  0  0  0  0  0  0  0  0  0  0
   -0.3684    2.0251    0.0000 C   0  0  0  0  0  0  0  0  0  0  0  0
    2.9452   -2.0904    0.0000 C   0  0  0  0  0  0  0  0  0  0  0  0
   -0.8982    1.5134    0.0000 O   0  0  0  0  0  0  0  0  0  0  0  0
    2.4007   -1.5533    0.0000 O   0  0  0  0  0  0  0  0  0  0  0  0
   -0.5317    2.8526    0.0000 O   0  0  0  0  0  0  0  0  0  0  0  0
    2.6293   -2.8526    0.0000 O   0  0  0  0  0  0  0  0  0  0  0  0
    0.3320   -0.8709    0.0000 C   0  0  0  0  0  0  0  0  0  0  0  0
    0.4518   -2.2647    0.0000 C   0  0  0  0  0  0  0  0  0  0  0  0
   -0.1688   -0.3338    0.0000 C   0  0  0  0  0  0  0  0  0  0  0  0
   -1.5732   -0.3048    0.0000 C   0  0  0  0  0  0  0  0  0  0  0  0
   -0.8982    0.8927    0.0000 C   0  0  0  0  0  0  0  0  0  0  0  0
    1.5624   -1.5533    0.0000 C   0  0  0  0  0  0  0  0  0  0  0  0
   -1.5732    0.4573    0.0000 C   0  0  0  0  0  0  0  0  0  0  0  0
    1.1994   -0.8709    0.0000 C   0  0  0  0  0  0  0  0  0  0  0  0
    1.1994   -2.2647    0.0000 C   0  0  0  0  0  0  0  0  0  0  0  0
   -0.1688    0.4573    0.0000 C   0  0  0  0  0  0  0  0  0  0  0  0
   -3.0795   -1.1868    0.0000 C   0  0  0  0  0  0  0  0  0  0  0  0
   -3.0795   -2.8417    0.0000 C   0  0  0  0  0  0  0  0  0  0  0  0
    3.7835   -1.9670    0.0000 C   0  0  0  0  0  0  0  0  0  0  0  0
    0.4192    1.7747    0.0000 C   0  0  0  0  0  0  0  0  0  0  0  0
   -3.7835   -1.6114    0.0000 C   0  0  0  0  0  0  0  0  0  0  0  0
   -3.7835   -2.4171    0.0000 C   0  0  0  0  0  0  0  0  0  0  0  0
  2  1  1  0
  3  2  1  0
  3  5  1  0
  4  1  1  0
  5  6  2  0
  6  4  1  0
  7  2  1  0
  8  2  1  0
  9  1  2  0
 10 12  1  0
 11 13  1  0
 12 20  1  0
 13 21  1  0
 14 10  2  0
 15 11  2  0
 16  7  2  0
 17  7  1  0
 18  8  2  0
 19  8  1  0
 20 22  1  0
 21 24  1  0
 22 19  2  0
 23 16  1  0
 23 21  2  0
 24 17  2  0
 25 18  1  0
 25 20  2  0
 26  5  1  0
 26 30  2  0
 27  6  1  0
 28 11  1  0
 29 10  1  0
 30 31  1  0
 31 27  2  0
M  END
>  <DRUGBANK_ID>  (1) 
DB14654

>  <SECONDARY_ACCESSION_NUMBERS>  (1) 
DBSALT001265

>  <COMMON_NAME>  (1) 
Bisoxatin acetate

>  <CAS_NUMBER>  (1) 
14008-48-1

>  <UNII>  (1) 
79W5LFS83K

>  <SYNONYMS>  (1) 
Bisoxatin acetate

$$$$
