
     RDKit          2D

 13 12  0  0  1  0  0  0  0  0999 V2000
   -3.6020   -1.7309    0.0000 C   0  0  0  0  0  0  0  0  0  0  0  0
   -2.8875   -2.1434    0.0000 C   0  0  0  0  0  0  0  0  0  0  0  0
   -2.1730   -1.7309    0.0000 C   0  0  0  0  0  0  0  0  0  0  0  0
   -1.4586   -2.1434    0.0000 C   0  0  0  0  0  0  0  0  0  0  0  0
   -0.0296   -2.1434    0.0000 C   0  0  0  0  0  0  0  0  0  0  0  0
    1.3993   -2.1434    0.0000 C   0  0  0  0  0  0  0  0  0  0  0  0
   -0.7441   -1.7309    0.0000 C   0  0  0  0  0  0  0  0  0  0  0  0
   -0.7441   -0.9059    0.0000 C   0  0  0  0  0  0  0  0  0  0  0  0
    0.6849   -1.7309    0.0000 N   0  0  0  0  0  0  0  0  0  0  0  0
    2.1138   -1.7309    0.0000 O   0  0  0  0  0  0  0  0  0  0  0  0
   -0.0296   -0.4934    0.0000 O   0  0  0  0  0  0  0  0  0  0  0  0
   -1.4586   -0.4934    0.0000 O   0  0  0  0  0  0  0  0  0  0  0  0
    0.6849   -0.9059    0.0000 O   0  0  0  0  0  0  0  0  0  0  0  0
  2  1  1  0
  3  2  1  0
  4  3  1  0
  7  4  1  1
  7  5  1  0
  7  8  1  0
  9  5  1  0
  9  6  1  0
 10  6  2  0
 11  8  2  0
 12  8  1  0
 13  9  1  0
M  END
>  <DRUGBANK_ID>  (1) 
DB02625

>  <SECONDARY_ACCESSION_NUMBERS>  (1) 
EXPT00756

>  <COMMON_NAME>  (1) 
(2r)-2-{[Formyl(Hydroxy)Amino]Methyl}Hexanoic Acid

$$$$
