
     RDKit          2D

 39 43  0  0  0  0  0  0  0  0999 V2000
   -0.5837   -1.4124    0.0000 C   0  0  0  0  0  0  0  0  0  0  0  0
   -0.1712   -0.6979    0.0000 C   0  0  0  0  0  0  0  0  0  0  0  0
    0.6538   -0.6979    0.0000 C   0  0  0  0  0  0  0  0  0  0  0  0
    1.1387   -0.0305    0.0000 N   0  0  0  0  0  0  0  0  0  0  0  0
    1.9233   -0.2854    0.0000 C   0  0  0  0  0  0  0  0  0  0  0  0
    2.6378    0.1271    0.0000 C   0  0  0  0  0  0  0  0  0  0  0  0
    3.3523   -0.2854    0.0000 C   0  0  0  0  0  0  0  0  0  0  0  0
    3.3523   -1.1104    0.0000 C   0  0  0  0  0  0  0  0  0  0  0  0
    4.0668   -1.5229    0.0000 Cl  0  0  0  0  0  0  0  0  0  0  0  0
    2.6378   -1.5229    0.0000 C   0  0  0  0  0  0  0  0  0  0  0  0
    1.9233   -1.1104    0.0000 N   0  0  0  0  0  0  0  0  0  0  0  0
    1.1387   -1.3654    0.0000 C   0  0  0  0  0  0  0  0  0  0  0  0
    0.8838   -2.1500    0.0000 C   0  0  0  0  0  0  0  0  0  0  0  0
    1.4358   -2.7631    0.0000 O   0  0  0  0  0  0  0  0  0  0  0  0
    0.0768   -2.3215    0.0000 N   0  0  0  0  0  0  0  0  0  0  0  0
   -0.1781   -3.1062    0.0000 C   0  0  0  0  0  0  0  0  0  0  0  0
   -0.9851   -3.2777    0.0000 C   0  0  0  0  0  0  0  0  0  0  0  0
   -1.2400   -4.0623    0.0000 C   0  0  0  0  0  0  0  0  0  0  0  0
   -2.0470   -4.2338    0.0000 C   0  0  0  0  0  0  0  0  0  0  0  0
   -2.5990   -3.6207    0.0000 C   0  0  0  0  0  0  0  0  0  0  0  0
   -2.3441   -2.8361    0.0000 C   0  0  0  0  0  0  0  0  0  0  0  0
   -1.5371   -2.6646    0.0000 C   0  0  0  0  0  0  0  0  0  0  0  0
   -3.4060   -3.7923    0.0000 N   0  0  0  0  0  0  0  0  0  0  0  0
   -3.6610   -4.5769    0.0000 C   0  0  0  0  0  0  0  0  0  0  0  0
   -4.4679   -4.7484    0.0000 C   0  0  0  0  0  0  0  0  0  0  0  0
   -5.0200   -4.1353    0.0000 C   0  0  0  0  0  0  0  0  0  0  0  0
   -4.7650   -3.3507    0.0000 C   0  0  0  0  0  0  0  0  0  0  0  0
   -3.9580   -3.1792    0.0000 C   0  0  0  0  0  0  0  0  0  0  0  0
   -5.8269   -4.3068    0.0000 C   0  0  0  0  0  0  0  0  0  0  0  0
   -6.0819   -5.0915    0.0000 C   0  0  0  0  0  0  0  0  0  0  0  0
   -6.8888   -5.2630    0.0000 C   0  0  0  0  0  0  0  0  0  0  0  0
   -7.4409   -4.6499    0.0000 C   0  0  0  0  0  0  0  0  0  0  0  0
   -8.2478   -4.8214    0.0000 O   0  0  0  0  0  0  0  0  0  0  0  0
   -8.5028   -5.6060    0.0000 C   0  0  0  0  0  0  0  0  0  0  0  0
   -8.7577   -6.3907    0.0000 F   0  0  0  0  0  0  0  0  0  0  0  0
   -9.2874   -5.3511    0.0000 F   0  0  0  0  0  0  0  0  0  0  0  0
   -7.7182   -5.8610    0.0000 F   0  0  0  0  0  0  0  0  0  0  0  0
   -7.1859   -3.8653    0.0000 C   0  0  0  0  0  0  0  0  0  0  0  0
   -6.3790   -3.6937    0.0000 C   0  0  0  0  0  0  0  0  0  0  0  0
  1  2  1  0
  2  3  1  0
  3  4  1  0
  3 12  2  0
  4  5  2  0
  5  6  1  0
  5 11  1  0
  6  7  2  0
  7  8  1  0
  8  9  1  0
  8 10  2  0
 10 11  1  0
 11 12  1  0
 12 13  1  0
 13 14  2  0
 13 15  1  0
 15 16  1  0
 16 17  1  0
 17 18  2  0
 17 22  1  0
 18 19  1  0
 19 20  2  0
 20 21  1  0
 20 23  1  0
 21 22  2  0
 23 24  1  0
 23 28  1  0
 24 25  1  0
 25 26  1  0
 26 27  1  0
 26 29  1  0
 27 28  1  0
 29 30  2  0
 29 39  1  0
 30 31  1  0
 31 32  2  0
 32 33  1  0
 32 38  1  0
 33 34  1  0
 34 35  1  0
 34 36  1  0
 34 37  1  0
 38 39  2  0
M  END
>  <DRUGBANK_ID>  (1) 
DB17754

>  <COMMON_NAME>  (1) 
Telacebec

>  <CAS_NUMBER>  (1) 
1334719-95-7

>  <UNII>  (1) 
55G92WGH3X

>  <SYNONYMS>  (1) 
6-chloro-2-ethyl-n-((4-(4-(4-(trifluoromethoxy)phenyl)-1-piperdinyl)phenyl)methyl)-imidazo(1,2-a)pyridine-3-carboxamide; Imidazo(1,2-a)pyridine-3-carboxamide, 6-chloro-2-ethyl-n-((4-(4-(4-(trifluoromethoxy)phenyl)-1-piperidinyl)phenyl)methyl)-

$$$$
