16P
     RDKit          2D

 20 19  0  0  0  0  0  0  0  0999 V2000
   -6.7880   -0.2068    0.0000 C   0  0  0  0  0  0  0  0  0  0  0  0
   -6.0735    0.2057    0.0000 C   0  0  0  0  0  0  0  0  0  0  0  0
   -5.3589   -0.2068    0.0000 O   0  0  0  0  0  0  0  0  0  0  0  0
   -4.6444    0.2057    0.0000 C   0  0  0  0  0  0  0  0  0  0  0  0
   -3.9299   -0.2068    0.0000 C   0  0  0  0  0  0  0  0  0  0  0  0
   -3.2153    0.2057    0.0000 O   0  0  0  0  0  0  0  0  0  0  0  0
   -2.5008   -0.2068    0.0000 C   0  0  0  0  0  0  0  0  0  0  0  0
   -1.7863    0.2057    0.0000 C   0  0  0  0  0  0  0  0  0  0  0  0
   -1.0718   -0.2068    0.0000 O   0  0  0  0  0  0  0  0  0  0  0  0
   -0.3572    0.2057    0.0000 C   0  0  0  0  0  0  0  0  0  0  0  0
    0.3572   -0.2068    0.0000 C   0  0  0  0  0  0  0  0  0  0  0  0
    1.0718    0.2057    0.0000 O   0  0  0  0  0  0  0  0  0  0  0  0
    1.7863   -0.2068    0.0000 C   0  0  0  0  0  0  0  0  0  0  0  0
    2.5008    0.2057    0.0000 C   0  0  0  0  0  0  0  0  0  0  0  0
    3.2153   -0.2068    0.0000 O   0  0  0  0  0  0  0  0  0  0  0  0
    3.9299    0.2057    0.0000 C   0  0  0  0  0  0  0  0  0  0  0  0
    4.6444   -0.2068    0.0000 C   0  0  0  0  0  0  0  0  0  0  0  0
    5.3589    0.2057    0.0000 O   0  0  0  0  0  0  0  0  0  0  0  0
    6.0735   -0.2068    0.0000 C   0  0  0  0  0  0  0  0  0  0  0  0
    6.7880    0.2057    0.0000 C   0  0  0  0  0  0  0  0  0  0  0  0
  1  2  1  0
  2  3  1  0
  3  4  1  0
  4  5  1  0
  5  6  1  0
  6  7  1  0
  7  8  1  0
  8  9  1  0
  9 10  1  0
 10 11  1  0
 11 12  1  0
 12 13  1  0
 13 14  1  0
 14 15  1  0
 15 16  1  0
 16 17  1  0
 17 18  1  0
 18 19  1  0
 19 20  1  0
M  END
>  <DRUGBANK_ID>  (1) 
DB06867

>  <COMMON_NAME>  (1) 
3,6,9,12,15,18-HEXAOXAICOSANE

>  <UNII>  (1) 
72DU7F2YXZ

$$$$
