
     RDKit          2D

 27 30  0  0  0  0  0  0  0  0999 V2000
   -1.4639   -0.3336    0.0000 C   0  0  0  0  0  0  0  0  0  0  0  0
   -2.1784   -0.7461    0.0000 C   0  0  0  0  0  0  0  0  0  0  0  0
   -2.1784   -1.5712    0.0000 C   0  0  0  0  0  0  0  0  0  0  0  0
   -1.4639   -1.9837    0.0000 C   0  0  0  0  0  0  0  0  0  0  0  0
   -0.7495   -1.5712    0.0000 C   0  0  0  0  0  0  0  0  0  0  0  0
   -0.7495   -0.7461    0.0000 C   0  0  0  0  0  0  0  0  0  0  0  0
   -0.0350   -0.3336    0.0000 C   0  0  0  0  0  0  0  0  0  0  0  0
   -0.0350   -1.9837    0.0000 C   0  0  0  0  0  0  0  0  0  0  0  0
    0.6794   -1.5712    0.0000 C   0  0  0  0  0  0  0  0  0  0  0  0
    0.6794   -0.7461    0.0000 C   0  0  0  0  0  0  0  0  0  0  0  0
    0.6794    0.9038    0.0000 C   0  0  0  0  0  0  0  0  0  0  0  0
   -0.0350    0.4913    0.0000 C   0  0  0  0  0  0  0  0  0  0  0  0
    1.3938   -0.3336    0.0000 C   0  0  0  0  0  0  0  0  0  0  0  0
    1.3938    0.4913    0.0000 C   0  0  0  0  0  0  0  0  0  0  0  0
    2.1785    0.7462    0.0000 C   0  0  0  0  0  0  0  0  0  0  0  0
    2.1785   -0.5885    0.0000 C   0  0  0  0  0  0  0  0  0  0  0  0
    2.6634    0.0788    0.0000 C   0  0  0  0  0  0  0  0  0  0  0  0
   -2.8929   -1.9837    0.0000 O   0  0  0  0  0  0  0  0  0  0  0  0
   -0.7495    0.0788    0.0000 C   0  0  0  0  0  0  0  0  0  0  0  0
    1.3938    1.3163    0.0000 C   0  0  0  0  0  0  0  0  0  0  0  0
   -0.7495    0.9038    0.0000 O   0  0  0  0  0  0  0  0  0  0  0  0
    2.1785    1.5712    0.0000 C   0  0  0  0  0  0  0  0  0  0  0  0
    2.8929    1.1587    0.0000 O   0  0  0  0  0  0  0  0  0  0  0  0
    1.4640    1.9837    0.0000 O   0  0  0  0  0  0  0  0  0  0  0  0
    2.8929    1.9837    0.0000 O   0  0  0  0  0  0  0  0  0  0  0  0
    0.7495    1.5712    0.0000 C   0  0  0  0  0  0  0  0  0  0  0  0
    0.0350    1.9837    0.0000 Cl  0  0  0  0  0  0  0  0  0  0  0  0
  1  2  2  0
  1  6  1  0
  2  3  1  0
  3  4  1  0
  3 18  2  0
  4  5  2  0
  5  8  1  0
  6  5  1  0
  6 19  1  1
  7  6  1  0
  7 10  1  0
  8  9  1  0
 10  9  1  6
 10 13  1  0
 11 12  1  0
 11 14  1  0
  7 12  1  1
 12 21  1  1
 13 16  1  1
 14 13  1  0
 14 20  1  1
 15 14  1  0
 15 17  1  0
 15 22  1  0
 15 23  1  6
 16 17  1  0
 22 24  1  0
 22 25  2  0
 24 26  1  0
 26 27  1  0
M  END
>  <DRUGBANK_ID>  (1) 
DB00873

>  <SECONDARY_ACCESSION_NUMBERS>  (1) 
APRD01078

>  <COMMON_NAME>  (1) 
Loteprednol

>  <CAS_NUMBER>  (1) 
129260-79-3

>  <UNII>  (1) 
Z8CBU6KR16

>  <SYNONYMS>  (1) 
Loteprednol

$$$$
