
     RDKit          2D

 16 18  0  0  1  0  0  0  0  0999 V2000
    3.6111    0.2259    0.0000 C   0  0  0  0  0  0  0  0  0  0  0  0
    2.8966   -0.1866    0.0000 C   0  0  0  0  0  0  0  0  0  0  0  0
    2.1821    0.2259    0.0000 C   0  0  0  0  0  0  0  0  0  0  0  0
    2.1821    1.0509    0.0000 C   0  0  0  0  0  0  0  0  0  0  0  0
    2.8966    1.4634    0.0000 C   0  0  0  0  0  0  0  0  0  0  0  0
    3.6111    1.0509    0.0000 C   0  0  0  0  0  0  0  0  0  0  0  0
    4.3255    1.4634    0.0000 C   0  0  0  0  0  0  0  0  0  0  0  0
    5.0400    1.8759    0.0000 F   0  0  0  0  0  0  0  0  0  0  0  0
    3.9130    2.1778    0.0000 F   0  0  0  0  0  0  0  0  0  0  0  0
    4.7380    0.7489    0.0000 F   0  0  0  0  0  0  0  0  0  0  0  0
    1.5371    1.5652    0.0000 C   0  0  0  0  0  0  0  0  0  0  0  0
    1.3054    0.6384    0.0000 C   0  0  0  0  0  0  0  0  0  0  0  0
    1.5371   -0.2885    0.0000 C   0  0  0  0  0  0  0  0  0  0  0  0
    0.7328   -0.1049    0.0000 C   0  0  0  0  0  0  0  0  0  0  0  0
    0.3748    0.6384    0.0000 N   0  0  0  0  0  0  0  0  0  0  0  0
    0.7328    1.3817    0.0000 C   0  0  0  0  0  0  0  0  0  0  0  0
  1  2  2  0
  1  6  1  0
  2  3  1  0
  3  4  2  0
  3 13  1  0
  4  5  1  0
  4 11  1  0
  5  6  2  0
  6  7  1  0
  7  8  1  0
  7  9  1  0
  7 10  1  0
 11 12  1  0
 11 16  1  6
 13 12  1  0
 13 14  1  6
 14 15  1  0
 15 16  1  0
M  END
>  <DRUGBANK_ID>  (1) 
DB12244

>  <COMMON_NAME>  (1) 
CP-601927

>  <CAS_NUMBER>  (1) 
357425-02-6

>  <UNII>  (1) 
VI5LR1EU47

$$$$
