
     RDKit          2D

 35 39  0  0  0  0  0  0  0  0999 V2000
    0.1579    0.0224    0.0000 C   0  0  0  0  0  0  0  0  0  0  0  0
    0.1579   -0.8025    0.0000 N   0  0  0  0  0  0  0  0  0  0  0  0
    0.8591   -1.2151    0.0000 C   0  0  0  0  0  0  0  0  0  0  0  0
    1.5604   -0.8025    0.0000 C   0  0  0  0  0  0  0  0  0  0  0  0
    1.5604    0.0224    0.0000 C   0  0  0  0  0  0  0  0  0  0  0  0
    0.8591    0.4349    0.0000 S   0  0  0  0  0  0  0  0  0  0  0  0
   -0.6671    0.0224    0.0000 C   0  0  0  0  0  0  0  0  0  0  0  0
   -0.6671   -0.8025    0.0000 C   0  0  0  0  0  0  0  0  0  0  0  0
   -1.4096    0.4349    0.0000 N   0  0  0  0  0  0  0  0  0  0  0  0
   -2.1109    0.0224    0.0000 C   0  0  0  0  0  0  0  0  0  0  0  0
   -2.1109   -0.8025    0.0000 O   0  0  0  0  0  0  0  0  0  0  0  0
   -1.4096   -1.2151    0.0000 O   0  0  0  0  0  0  0  0  0  0  0  0
   -2.8122    0.4349    0.0000 C   0  0  0  0  0  0  0  0  0  0  0  0
    2.3030   -1.2151    0.0000 C   0  0  0  0  0  0  0  0  0  0  0  0
   -3.5547    0.0224    0.0000 C   0  0  0  0  0  0  0  0  0  0  0  0
    3.0043   -0.8025    0.0000 N   0  0  0  0  0  0  0  0  0  0  0  0
   -4.1735    0.5175    0.0000 N   0  0  0  0  0  0  0  0  0  0  0  0
   -4.8747    0.0637    0.0000 S   0  0  0  0  0  0  0  0  0  0  0  0
   -4.6273   -0.7612    0.0000 C   0  0  0  0  0  0  0  0  0  0  0  0
   -3.8023   -0.7612    0.0000 N   0  0  0  0  0  0  0  0  0  0  0  0
   -2.8122    1.2601    0.0000 N   0  0  0  0  0  0  0  0  0  0  0  0
    0.8591   -2.0401    0.0000 C   0  0  0  0  0  0  0  0  0  0  0  0
    1.5604   -2.4527    0.0000 O   0  0  0  0  0  0  0  0  0  0  0  0
    0.1166   -2.4527    0.0000 O   0  0  0  0  0  0  0  0  0  0  0  0
   -5.1223   -1.4213    0.0000 N   0  0  0  0  0  0  0  0  0  0  0  0
    3.6820   -1.2758    0.0000 C   0  0  0  0  0  0  0  0  0  0  0  0
    4.3421   -0.7790    0.0000 N   0  0  0  0  0  0  0  0  0  0  0  0
    4.0738    0.0021    0.0000 C   0  0  0  0  0  0  0  0  0  0  0  0
    3.2478   -0.0116    0.0000 C   0  0  0  0  0  0  0  0  0  0  0  0
    3.6820   -2.1005    0.0000 C   0  0  0  0  0  0  0  0  0  0  0  0
    4.3893   -2.5095    0.0000 C   0  0  0  0  0  0  0  0  0  0  0  0
    5.1223   -2.0869    0.0000 C   0  0  0  0  0  0  0  0  0  0  0  0
    5.1223   -1.2621    0.0000 N   0  0  0  0  0  0  0  0  0  0  0  0
   -2.0749    1.6817    0.0000 O   0  0  0  0  0  0  0  0  0  0  0  0
   -2.0749    2.5095    0.0000 C   0  0  0  0  0  0  0  0  0  0  0  0
  1  2  1  0
  1  6  1  1
  1  7  1  0
  2  3  1  0
  2  8  1  0
  3  4  2  0
  3 22  1  0
  4  5  1  0
  4 14  1  0
  5  6  1  0
  7  8  1  0
  7  9  1  1
  8 12  2  0
  9 10  1  0
 10 11  2  0
 10 13  1  0
 13 15  1  0
 13 21  2  0
 14 16  1  0
 15 17  2  0
 15 20  1  0
 16 26  2  0
 16 29  1  0
 17 18  1  0
 18 19  1  0
 19 20  2  0
 19 25  1  0
 21 34  1  0
 22 23  1  0
 22 24  2  0
 26 27  1  0
 26 30  1  0
 27 28  1  0
 28 29  2  0
 30 31  2  0
 31 32  1  0
 32 33  2  0
 33 27  1  0
 34 35  1  0
M  CHG  2  16   1  23  -1
M  END
>  <DRUGBANK_ID>  (1) 
DB13667

>  <COMMON_NAME>  (1) 
Cefozopran

>  <CAS_NUMBER>  (1) 
113359-04-9

>  <UNII>  (1) 
1LG87K28LW

>  <SYNONYMS>  (1) 
céfozopran; cefozoprán; Cefozopran; cefozopranum

$$$$
