1571
     RDKit          2D

 26 28  0  0  1  0  0  0  0  0999 V2000
    1.6500    2.2688    0.0000 O   0  0  0  0  0  0  0  0  0  0  0  0
    3.0791   -0.2063    0.0000 N   0  0  0  0  0  0  0  0  0  0  0  0
    3.0791    2.2688    0.0000 N   0  0  0  0  0  0  0  0  0  0  0  0
    3.0791    1.4438    0.0000 C   0  0  0  0  0  0  0  0  0  0  0  0
    2.3645    1.0313    0.0000 C   0  0  0  0  0  0  0  0  0  0  0  0
    3.7935    1.0313    0.0000 C   0  0  0  0  0  0  0  0  0  0  0  0
    2.3645    0.2063    0.0000 C   0  0  0  0  0  0  0  0  0  0  0  0
    3.7935    0.2063    0.0000 C   0  0  0  0  0  0  0  0  0  0  0  0
    1.6500    1.4438    0.0000 C   0  0  0  0  0  0  0  0  0  0  0  0
    3.0791   -1.0313    0.0000 C   0  0  0  0  0  0  0  0  0  0  0  0
    2.3645   -1.4438    0.0000 C   0  0  0  0  0  0  0  0  0  0  0  0
    3.7935    2.6813    0.0000 C   0  0  0  0  0  0  0  0  0  0  0  0
    2.3645    2.6813    0.0000 C   0  0  0  0  0  0  0  0  0  0  0  0
    2.3645    3.5063    0.0000 C   0  0  0  0  0  0  0  0  0  0  0  0
    2.3645   -2.2688    0.0000 C   0  0  0  0  0  0  0  0  0  0  0  0
    3.7935    3.5063    0.0000 C   0  0  0  0  0  0  0  0  0  0  0  0
    4.5080    2.2688    0.0000 C   0  0  0  0  0  0  0  0  0  0  0  0
    1.6500    3.9188    0.0000 C   0  0  0  0  0  0  0  0  0  0  0  0
    4.5080    3.9188    0.0000 C   0  0  0  0  0  0  0  0  0  0  0  0
    5.2224    2.6813    0.0000 C   0  0  0  0  0  0  0  0  0  0  0  0
    3.0791   -2.6813    0.0000 C   0  0  0  0  0  0  0  0  0  0  0  0
    1.6500   -2.6813    0.0000 C   0  0  0  0  0  0  0  0  0  0  0  0
    5.2224    3.5063    0.0000 C   0  0  0  0  0  0  0  0  0  0  0  0
    3.0791   -3.5063    0.0000 C   0  0  0  0  0  0  0  0  0  0  0  0
    1.6500   -3.5063    0.0000 C   0  0  0  0  0  0  0  0  0  0  0  0
    2.3645   -3.9188    0.0000 C   0  0  0  0  0  0  0  0  0  0  0  0
  1 13  2  0
  2  7  1  0
  2  8  1  0
  2 10  1  0
  3  4  1  0
  3 12  1  0
  3 13  1  0
  4  5  1  0
  4  6  1  0
  5  7  1  0
  5  9  1  0
  6  8  1  0
 10 11  1  0
 11 15  1  0
 12 16  2  0
 12 17  1  0
 13 14  1  0
 14 18  1  0
 15 21  2  0
 15 22  1  0
 16 19  1  0
 17 20  2  0
 19 23  2  0
 20 23  1  0
 21 24  1  0
 22 25  2  0
 24 26  2  0
 25 26  1  0
M  END
>  <DRUGBANK_ID>  (1) 
DB01571

>  <COMMON_NAME>  (1) 
3-Methylfentanyl

>  <CAS_NUMBER>  (1) 
42045-86-3

>  <UNII>  (1) 
QVU94XE61A

>  <SYNONYMS>  (1) 
3-MF; mefentanyl

$$$$
