RA2
     RDKit          2D

 25 26  0  0  0  0  0  0  0  0999 V2000
   -0.6789   -1.0234    0.0000 C   0  0  0  0  0  0  0  0  0  0  0  0
   -0.3434   -0.2697    0.0000 C   0  0  0  0  0  0  0  0  0  0  0  0
    0.4771   -0.1835    0.0000 C   0  0  0  0  0  0  0  0  0  0  0  0
    0.9620   -0.8509    0.0000 C   0  0  0  0  0  0  0  0  0  0  0  0
    0.6265   -1.6046    0.0000 C   0  0  0  0  0  0  0  0  0  0  0  0
   -0.1940   -1.6909    0.0000 C   0  0  0  0  0  0  0  0  0  0  0  0
    1.1114   -2.2721    0.0000 C   0  0  0  0  0  0  0  0  0  0  0  0
   -0.8283    0.3977    0.0000 N   0  0  0  0  0  0  0  0  0  0  0  0
    0.8127    0.5702    0.0000 N   0  0  0  0  0  0  0  0  0  0  0  0
    1.6332    0.6564    0.0000 C   0  0  0  0  0  0  0  0  0  0  0  0
    1.9687    1.4101    0.0000 C   0  0  0  0  0  0  0  0  0  0  0  0
    2.7892    1.4963    0.0000 C   0  0  0  0  0  0  0  0  0  0  0  0
    2.1181   -0.0110    0.0000 C   0  0  0  0  0  0  0  0  0  0  0  0
    2.9386    0.0752    0.0000 C   0  0  0  0  0  0  0  0  0  0  0  0
   -1.6533    0.3977    0.0000 C   0  0  0  0  0  0  0  0  0  0  0  0
   -1.9082    1.1823    0.0000 C   0  0  0  0  0  0  0  0  0  0  0  0
   -1.2408    1.6672    0.0000 C   0  0  0  0  0  0  0  0  0  0  0  0
   -0.5733    1.1823    0.0000 C   0  0  0  0  0  0  0  0  0  0  0  0
    0.2113    1.4373    0.0000 O   0  0  0  0  0  0  0  0  0  0  0  0
   -1.7481   -0.4218    0.0000 C   0  0  0  0  0  0  0  0  0  0  0  0
   -1.0858   -0.9137    0.0000 O   0  0  0  0  0  0  0  0  0  0  0  0
   -2.4034    0.0543    0.0000 C   0  0  0  0  0  0  0  0  0  0  0  0
   -3.0759    0.5322    0.0000 O   0  0  0  0  0  0  0  0  0  0  0  0
    0.7758   -3.0257    0.0000 O   0  0  0  0  0  0  0  0  0  0  0  0
    1.9319   -2.1858    0.0000 O   0  0  0  0  0  0  0  0  0  0  0  0
  1  2  2  0
  1  6  1  0
  2  3  1  0
  2  8  1  0
  3  4  2  0
  3  9  1  0
  4  5  1  0
  5  6  2  0
  5  7  1  0
  7 24  1  0
  7 25  2  0
  8 15  1  0
  8 18  1  0
  9 10  1  0
 10 11  1  0
 10 13  1  0
 11 12  1  0
 13 14  1  0
 15 16  1  0
 15 20  1  0
 15 22  1  0
 16 17  1  0
 17 18  1  0
 18 19  2  0
 20 21  1  0
 22 23  1  0
M  END
>  <DRUGBANK_ID>  (1) 
DB03475

>  <SECONDARY_ACCESSION_NUMBERS>  (1) 
EXPT02752

>  <COMMON_NAME>  (1) 
1-[4-Carboxy-2-(3-Pentylamino)Phenyl]-5,5'-Di(Hydroxymethyl)Pyrrolidin-2-One

$$$$
