
     RDKit          2D

 28 30  0  0  1  0  0  0  0  0999 V2000
   -0.5683   -1.4940    0.0000 C   0  0  0  0  0  0  0  0  0  0  0  0
    3.3523    1.1104    0.0000 C   0  0  0  0  0  0  0  0  0  0  0  0
    0.0992   -1.0091    0.0000 C   0  0  0  0  0  0  0  0  0  0  0  0
    1.9233    1.9354    0.0000 C   0  0  0  0  0  0  0  0  0  0  0  0
    0.8838   -1.2640    0.0000 C   0  0  0  0  0  0  0  0  0  0  0  0
    1.3687   -0.5966    0.0000 C   0  0  0  0  0  0  0  0  0  0  0  0
    2.6378    2.3479    0.0000 C   0  0  0  0  0  0  0  0  0  0  0  0
    1.9233    1.1104    0.0000 C   0  0  0  0  0  0  0  0  0  0  0  0
    0.8838    0.0709    0.0000 C   0  0  0  0  0  0  0  0  0  0  0  0
    0.6538    1.5229    0.0000 C   0  0  0  0  0  0  0  0  0  0  0  0
   -0.1712    1.5229    0.0000 Br  0  0  0  0  0  0  0  0  0  0  0  0
    2.6378    3.1729    0.0000 N   0  0  0  0  0  0  0  0  0  0  0  0
    3.3523    1.9354    0.0000 N   0  0  0  0  0  0  0  0  0  0  0  0
    2.6378    0.6979    0.0000 N   0  0  0  0  0  0  0  0  0  0  0  0
    1.1387    2.1904    0.0000 N   0  0  0  0  0  0  0  0  0  0  0  0
    1.1387    0.8555    0.0000 N   0  0  0  0  0  0  0  0  0  0  0  0
    1.1387   -2.0486    0.0000 O   0  0  0  0  0  0  0  0  0  0  0  0
    2.1937   -0.5966    0.0000 O   0  0  0  0  0  0  0  0  0  0  0  0
   -1.6444   -4.9253    0.0000 O   0  0  0  0  0  0  0  0  0  0  0  0
   -2.5512   -4.1910    0.0000 O   0  0  0  0  0  0  0  0  0  0  0  0
   -0.9102   -4.0186    0.0000 O   0  0  0  0  0  0  0  0  0  0  0  0
   -1.6344   -2.1319    0.0000 O   0  0  0  0  0  0  0  0  0  0  0  0
   -0.6646   -3.4668    0.0000 O   0  0  0  0  0  0  0  0  0  0  0  0
   -0.4820   -2.3145    0.0000 O   0  0  0  0  0  0  0  0  0  0  0  0
    0.0992   -0.1841    0.0000 O   0  0  0  0  0  0  0  0  0  0  0  0
   -1.8169   -3.2843    0.0000 O   0  0  0  0  0  0  0  0  0  0  0  0
   -1.7307   -4.1048    0.0000 P   0  0  0  0  0  0  0  0  0  0  0  0
   -1.1495   -2.7994    0.0000 P   0  0  0  0  0  0  0  0  0  0  0  0
  3  1  1  1
  5  3  1  0
  5 17  1  6
  6  5  1  0
  6 18  1  6
  7  4  2  0
  8  4  1  0
  9  6  1  0
  9 16  1  1
 11 10  1  0
 12  7  1  0
 13  2  2  0
 13  7  1  0
 14  2  1  0
 14  8  2  0
 15  4  1  0
 15 10  2  0
 16  8  1  0
 16 10  1  0
 24  1  1  0
 25  3  1  0
 25  9  1  0
 27 19  1  0
 27 20  1  0
 27 21  2  0
 27 26  1  0
 28 22  1  0
 28 23  2  0
 28 24  1  0
 28 26  1  0
M  END
>  <DRUGBANK_ID>  (1) 
DB04554

>  <SECONDARY_ACCESSION_NUMBERS>  (1) 
EXPT00401

>  <COMMON_NAME>  (1) 
8-Bromoadenosine-5'-Diphosphate

$$$$
