
     RDKit          2D

 15 15  0  0  0  0  0  0  0  0999 V2000
    1.2299    1.5822    0.0000 C   0  0  0  0  0  0  0  0  0  0  0  0
    1.2381    2.4043    0.0000 O   0  0  0  0  0  0  0  0  0  0  0  0
    0.5228    1.1711    0.0000 C   0  0  0  0  0  0  0  0  0  0  0  0
    1.9452    1.1711    0.0000 O   0  0  0  0  0  0  0  0  0  0  0  0
   -0.1924    1.5822    0.0000 N   0  0  0  0  0  0  0  0  0  0  0  0
    0.9371    0.4576    0.0000 C   0  0  0  0  0  0  0  0  0  0  0  0
    0.1120    0.4555    0.0000 C   0  0  0  0  0  0  0  0  0  0  0  0
    0.5263   -0.2579    0.0000 C   0  0  0  0  0  0  0  0  0  0  0  0
   -0.7129    0.4534    0.0000 C   0  0  0  0  0  0  0  0  0  0  0  0
    0.1156   -0.9734    0.0000 C   0  0  0  0  0  0  0  0  0  0  0  0
   -1.1236   -0.2619    0.0000 C   0  0  0  0  0  0  0  0  0  0  0  0
   -0.7093   -0.9754    0.0000 C   0  0  0  0  0  0  0  0  0  0  0  0
   -1.1201   -1.6910    0.0000 C   0  0  0  0  0  0  0  0  0  0  0  0
   -1.9452   -1.6929    0.0000 O   0  0  0  0  0  0  0  0  0  0  0  0
   -0.7058   -2.4043    0.0000 O   0  0  0  0  0  0  0  0  0  0  0  0
  2  1  2  0
  3  1  1  0
  3  6  1  1
  4  1  1  0
  5  3  1  0
  7  3  1  0
  8  7  2  0
  9  7  1  0
 10  8  1  0
 11  9  2  0
 12 10  2  0
 12 11  1  0
 12 13  1  0
 13 14  1  0
 13 15  2  0
M  END
>  <DRUGBANK_ID>  (1) 
DB04256

>  <SECONDARY_ACCESSION_NUMBERS>  (1) 
EXPT02133

>  <COMMON_NAME>  (1) 
(S)-alpha-methyl-4-carboxyphenylglycine

>  <CAS_NUMBER>  (1) 
150145-89-4

>  <UNII>  (1) 
61F6J48NHR

>  <SYNONYMS>  (1) 
(+)-MCPG; (+)-α-methyl-4-carboxyphenylglycine; (S)-(+)-α-amino-4-carboxy-2-methylbenzeneacetic; (S)-(+)-α-methyl-4-carboxyphenylglycine; (S)-a-methyl-4-carboxyphenylglycine; (S)-MCPG; (S)-α-methyl-4-carboxyphenylglycine

$$$$
