
     RDKit          2D

 32 36  0  0  1  0  0  0  0  0999 V2000
    2.4713   -2.0911    0.0000 Si  0  0  0  0  0  4  0  0  0  0  0  0
    6.5351    3.4162    0.0000 O   0  0  0  0  0  0  0  0  0  0  0  0
    7.6768    1.4080    0.0000 O   0  0  0  0  0  0  0  0  0  0  0  0
    4.3786    2.1216    0.0000 O   0  0  0  0  0  0  0  0  0  0  0  0
    7.9953    3.3963    0.0000 O   0  0  0  0  0  0  0  0  0  0  0  0
    5.0931    0.8842    0.0000 N   0  0  0  0  0  0  0  0  0  0  0  0
    6.1470   -1.0137    0.0000 N   0  0  0  0  0  0  0  0  0  0  0  0
    4.8193   -0.4150    0.0000 C   0  0  0  0  0  0  0  0  0  0  0  0
    4.4851    0.3339    0.0000 C   0  0  0  0  0  0  0  0  0  0  0  0
    4.4592   -1.1897    0.0000 C   0  0  0  0  0  0  0  0  0  0  0  0
    5.8075    0.4717    0.0000 C   0  0  0  0  0  0  0  0  0  0  0  0
    3.2928   -2.0151    0.0000 C   0  0  0  0  0  0  0  0  0  0  0  0
    3.6377   -1.2657    0.0000 C   0  0  0  0  0  0  0  0  0  0  0  0
    5.6349   -0.3301    0.0000 C   0  0  0  0  0  0  0  0  0  0  0  0
    6.5220    1.7092    0.0000 C   0  0  0  0  0  0  0  0  0  0  0  0
    7.2727    2.1272    0.0000 C   0  0  0  0  0  0  0  0  0  0  0  0
    5.8075    2.1216    0.0000 C   0  0  0  0  0  0  0  0  0  0  0  0
    6.5220    0.8842    0.0000 C   0  0  0  0  0  0  0  0  0  0  0  0
    5.0931    1.7092    0.0000 C   0  0  0  0  0  0  0  0  0  0  0  0
    4.9553   -1.8850    0.0000 C   0  0  0  0  0  0  0  0  0  0  0  0
    8.0976    2.1177    0.0000 C   0  0  0  0  0  0  0  0  0  0  0  0
    5.7943    2.9808    0.0000 C   0  0  0  0  0  0  0  0  0  0  0  0
    1.6499   -2.1672    0.0000 C   0  0  0  0  0  0  0  0  0  0  0  0
    2.5474   -2.9126    0.0000 C   0  0  0  0  0  0  0  0  0  0  0  0
    2.3954   -1.2697    0.0000 C   0  0  0  0  0  0  0  0  0  0  0  0
    5.8049   -1.7964    0.0000 C   0  0  0  0  0  0  0  0  0  0  0  0
    7.2793    2.9865    0.0000 C   0  0  0  0  0  0  0  0  0  0  0  0
    4.5802   -2.6918    0.0000 C   0  0  0  0  0  0  0  0  0  0  0  0
    8.5017    1.3986    0.0000 C   0  0  0  0  0  0  0  0  0  0  0  0
    6.3383   -2.5086    0.0000 C   0  0  0  0  0  0  0  0  0  0  0  0
    5.0970   -3.4162    0.0000 C   0  0  0  0  0  0  0  0  0  0  0  0
    5.9820   -3.3239    0.0000 C   0  0  0  0  0  0  0  0  0  0  0  0
  1 12  1  0
  1 23  1  0
  1 24  1  0
  1 25  1  0
  2 22  1  0
  2 27  1  0
  4 19  2  0
  5 27  2  0
  6  9  1  0
  6 11  1  0
  6 19  1  0
  7 14  2  0
  7 26  1  0
  8  9  1  0
  8 10  2  0
  8 14  1  0
 10 13  1  0
 10 20  1  0
 11 14  1  0
 11 18  2  0
 12 13  1  0
 15 16  1  0
 15 17  2  0
 15 18  1  0
 16  3  1  1
 16 21  1  0
 16 27  1  0
 17 19  1  0
 17 22  1  0
 20 26  2  0
 20 28  1  0
 21 29  1  0
 26 30  1  0
 28 31  2  0
 30 32  2  0
 31 32  1  0
M  END
>  <DRUGBANK_ID>  (1) 
DB05806

>  <COMMON_NAME>  (1) 
Cositecan

>  <CAS_NUMBER>  (1) 
203923-89-1

>  <UNII>  (1) 
24R60NVC41

>  <SYNONYMS>  (1) 
Cositecan; Karenitecin

$$$$
