
     RDKit          2D

 20 20  0  0  1  0  0  0  0  0999 V2000
    3.2755    2.0361    0.0000 C   0  0  0  0  0  0  0  0  0  0  0  0
    2.5610    2.4486    0.0000 C   0  0  0  0  0  0  0  0  0  0  0  0
   -1.7086    1.8448    0.0000 C   0  0  0  0  0  0  0  0  0  0  0  0
    3.9899    2.4486    0.0000 C   0  0  0  0  0  0  0  0  0  0  0  0
   -0.8881    1.7586    0.0000 C   0  0  0  0  0  0  0  0  0  0  0  0
    1.8465    2.0361    0.0000 C   0  0  0  0  0  0  0  0  0  0  0  0
   -0.4756    1.0441    0.0000 C   0  0  0  0  0  0  0  0  0  0  0  0
    4.7044    2.0361    0.0000 C   0  0  0  0  0  0  0  0  0  0  0  0
    0.4176    2.0361    0.0000 C   0  0  0  0  0  0  0  0  0  0  0  0
    0.3314    1.2156    0.0000 C   0  0  0  0  0  0  0  0  0  0  0  0
    0.5945    0.4337    0.0000 F   0  0  0  0  0  0  0  0  0  0  0  0
    3.9899    3.2736    0.0000 N   0  0  0  0  0  0  0  0  0  0  0  0
   -2.1935    1.1773    0.0000 O   0  0  0  0  0  0  0  0  0  0  0  0
    1.8465    1.2111    0.0000 O   0  0  0  0  0  0  0  0  0  0  0  0
   -0.8112    0.2904    0.0000 O   0  0  0  0  0  0  0  0  0  0  0  0
    5.4189    2.4486    0.0000 O   0  0  0  0  0  0  0  0  0  0  0  0
    4.7044    1.2111    0.0000 O   0  0  0  0  0  0  0  0  0  0  0  0
    1.1365    1.0356    0.0000 O   0  0  0  0  0  0  0  0  0  0  0  0
   -0.3361    2.3716    0.0000 O   0  0  0  0  0  0  0  0  0  0  0  0
    1.1321    2.4486    0.0000 O   0  0  0  0  0  0  0  0  0  0  0  0
  2  1  1  0
  4  1  1  0
  4 12  1  6
  5  3  1  1
  6  2  1  0
  7  5  1  0
  7 15  1  6
  8  4  1  0
  9 20  1  6
 10  7  1  0
 10  9  1  0
 10 11  1  0
 10 18  1  6
 13  3  1  0
 14  6  2  0
 16  8  2  0
 17  8  1  0
 19  5  1  0
 19  9  1  0
 20  6  1  0
M  END
>  <DRUGBANK_ID>  (1) 
DB03371

>  <SECONDARY_ACCESSION_NUMBERS>  (1) 
EXPT00553

>  <COMMON_NAME>  (1) 
Modified Ribosylated Glutamyl Ester

$$$$
