
     RDKit          2D

  6  5  0  0  0  0  0  0  0  0999 V2000
    1.6500   -1.4289    0.0000 O   0  0  0  0  0  0  0  0  0  0  0  0
    1.2375   -0.7145    0.0000 P   0  0  0  0  0  0  0  0  0  0  0  0
    1.9520   -0.3020    0.0000 O   0  0  0  0  0  0  0  0  0  0  0  0
    0.5230   -1.1270    0.0000 O   0  0  0  0  0  0  0  0  0  0  0  0
    0.8250    0.0000    0.0000 C   0  0  0  0  0  0  0  0  0  0  0  0
    0.0000    0.0000    0.0000 S   0  0  0  0  0  0  0  0  0  0  0  0
  1  2  1  0
  2  3  1  0
  2  4  2  0
  2  5  1  0
  5  6  1  0
M  CHG  2   1  -1   3  -1
M  END
>  <DRUGBANK_ID>  (1) 
DB03498

>  <SECONDARY_ACCESSION_NUMBERS>  (1) 
EXPT02199

>  <COMMON_NAME>  (1) 
Mercaptomethyl Phosphonate

$$$$
