LZ2
     RDKit          2D

 15 16  0  0  0  0  0  0  0  0999 V2000
   13.9116    1.2881    0.0000 N   0  0  0  0  0  0  0  0  0  0  0  0
   13.9116    2.1131    0.0000 S   0  0  0  0  0  0  0  0  0  0  0  0
   14.7366    2.1131    0.0000 O   0  0  0  0  0  0  0  0  0  0  0  0
   13.0866    2.1131    0.0000 O   0  0  0  0  0  0  0  0  0  0  0  0
   13.9116    2.9381    0.0000 C   0  0  0  0  0  0  0  0  0  0  0  0
   13.1971    3.3506    0.0000 C   0  0  0  0  0  0  0  0  0  0  0  0
   13.1971    4.1756    0.0000 C   0  0  0  0  0  0  0  0  0  0  0  0
   13.9116    4.5881    0.0000 C   0  0  0  0  0  0  0  0  0  0  0  0
   14.6260    4.1756    0.0000 C   0  0  0  0  0  0  0  0  0  0  0  0
   15.3405    4.5881    0.0000 C   0  0  0  0  0  0  0  0  0  0  0  0
   15.3405    5.4131    0.0000 O   0  0  0  0  0  0  0  0  0  0  0  0
   16.0550    4.1756    0.0000 C   0  0  0  0  0  0  0  0  0  0  0  0
   16.0550    3.3506    0.0000 C   0  0  0  0  0  0  0  0  0  0  0  0
   15.3405    2.9381    0.0000 C   0  0  0  0  0  0  0  0  0  0  0  0
   14.6260    3.3506    0.0000 C   0  0  0  0  0  0  0  0  0  0  0  0
  1  2  1  0
  2  3  2  0
  2  4  2  0
  2  5  1  0
  5  6  2  0
  5 15  1  0
  6  7  1  0
  7  8  2  0
  8  9  1  0
  9 10  1  0
  9 15  2  0
 10 11  1  0
 10 12  2  0
 12 13  1  0
 13 14  2  0
 14 15  1  0
M  END
>  <DRUGBANK_ID>  (1) 
DB08132

>  <COMMON_NAME>  (1) 
5-hydroxynaphthalene-1-sulfonamide

>  <UNII>  (1) 
5MS1N9V1FR

$$$$
