
     RDKit          2D

  9  9  0  0  0  0  0  0  0  0999 V2000
   -0.3546   -0.8247    0.0000 N   0  0  0  0  0  0  0  0  0  0  0  0
    0.3546   -0.4124    0.0000 C   0  0  0  0  0  0  0  0  0  0  0  0
    0.3546    0.4124    0.0000 N   0  0  0  0  0  0  0  0  0  0  0  0
   -0.3712    0.8248    0.0000 C   0  0  0  0  0  0  0  0  0  0  0  0
   -1.0805    0.4124    0.0000 C   0  0  0  0  0  0  0  0  0  0  0  0
   -1.0805   -0.4288    0.0000 C   0  0  0  0  0  0  0  0  0  0  0  0
    1.0805   -0.8082    0.0000 O   0  0  0  0  0  0  0  0  0  0  0  0
   -0.3712    1.6496    0.0000 N   0  0  0  0  0  0  0  0  0  0  0  0
   -0.3381   -1.6496    0.0000 C   0  0  0  0  0  0  0  0  0  0  0  0
  2  1  1  0
  3  2  1  0
  4  3  2  0
  5  4  1  0
  6  1  1  0
  6  5  2  0
  7  2  2  0
  8  4  1  0
  9  1  1  0
M  END
>  <DRUGBANK_ID>  (1) 
DB04314

>  <SECONDARY_ACCESSION_NUMBERS>  (1) 
EXPT00076

>  <COMMON_NAME>  (1) 
1-Methylcytosine

>  <CAS_NUMBER>  (1) 
1122-47-0

>  <UNII>  (1) 
1J54NE82RV

>  <SYNONYMS>  (1) 
N-Methylcytosine

$$$$
