PTB
     RDKit          2D

 16 17  0  0  0  0  0  0  0  0999 V2000
   -1.2088    1.2560    0.0000 N   0  0  0  0  0  0  0  0  0  0  0  0
   -1.4637    0.4714    0.0000 C   0  0  0  0  0  0  0  0  0  0  0  0
   -0.9788   -0.1961    0.0000 C   0  0  0  0  0  0  0  0  0  0  0  0
   -1.3144   -0.9497    0.0000 O   0  0  0  0  0  0  0  0  0  0  0  0
   -2.2887    0.4714    0.0000 C   0  0  0  0  0  0  0  0  0  0  0  0
   -2.5437    1.2560    0.0000 C   0  0  0  0  0  0  0  0  0  0  0  0
   -1.8762    1.7409    0.0000 C   0  0  0  0  0  0  0  0  0  0  0  0
   -0.1583   -0.1098    0.0000 C   0  0  0  0  0  0  0  0  0  0  0  0
    0.2542    0.6047    0.0000 N   0  0  0  0  0  0  0  0  0  0  0  0
    1.0611    0.4331    0.0000 N   0  0  0  0  0  0  0  0  0  0  0  0
    1.1474   -0.3874    0.0000 C   0  0  0  0  0  0  0  0  0  0  0  0
    0.3937   -0.7229    0.0000 O   0  0  0  0  0  0  0  0  0  0  0  0
    1.8618   -0.7999    0.0000 C   0  0  0  0  0  0  0  0  0  0  0  0
    2.5763   -1.2124    0.0000 C   0  0  0  0  0  0  0  0  0  0  0  0
    1.4493   -1.5143    0.0000 C   0  0  0  0  0  0  0  0  0  0  0  0
    2.2743   -0.0854    0.0000 C   0  0  0  0  0  0  0  0  0  0  0  0
  1  2  1  0
  1  7  1  0
  2  3  1  6
  2  5  1  0
  3  4  2  0
  3  8  1  0
  5  6  1  0
  6  7  1  0
  8  9  2  0
  8 12  1  0
  9 10  1  0
 10 11  2  0
 11 12  1  0
 11 13  1  0
 13 14  1  0
 13 15  1  0
 13 16  1  0
M  END
>  <DRUGBANK_ID>  (1) 
DB03833

>  <SECONDARY_ACCESSION_NUMBERS>  (1) 
EXPT02680

>  <COMMON_NAME>  (1) 
2-Prolyl-5-Tert-Butyl-[1,3,4]Oxadiazole

$$$$
