
     RDKit          2D

 23 25  0  0  1  0  0  0  0  0999 V2000
   -0.9252   -6.0925    0.0000 C   0  0  0  0  0  0  0  0  0  0  0  0
   -0.7537   -5.2856    0.0000 C   0  0  0  0  0  0  0  0  0  0  0  0
   -1.3057   -4.6725    0.0000 C   0  0  0  0  0  0  0  0  0  0  0  0
   -0.8932   -3.9580    0.0000 C   0  0  0  0  0  0  0  0  0  0  0  0
   -0.0862   -4.1295    0.0000 C   0  0  0  0  0  0  0  0  0  0  0  0
    0.0000   -4.9500    0.0000 N   0  0  0  0  0  0  0  0  0  0  0  0
    0.7145   -5.3625    0.0000 C   0  0  0  0  0  0  0  0  0  0  0  0
    1.4289   -4.9500    0.0000 C   0  0  0  0  0  0  0  0  0  0  0  0
    2.1434   -5.3625    0.0000 C   0  0  0  0  0  0  0  0  0  0  0  0
    2.8579   -4.9500    0.0000 O   0  0  0  0  0  0  0  0  0  0  0  0
    3.5724   -5.3625    0.0000 C   0  0  0  0  0  0  0  0  0  0  0  0
    4.2868   -4.9500    0.0000 C   0  0  0  0  0  0  0  0  0  0  0  0
    5.0013   -5.3625    0.0000 C   0  0  0  0  0  0  0  0  0  0  0  0
    5.0013   -6.1875    0.0000 C   0  0  0  0  0  0  0  0  0  0  0  0
    4.2868   -6.6000    0.0000 C   0  0  0  0  0  0  0  0  0  0  0  0
    3.5724   -6.1875    0.0000 C   0  0  0  0  0  0  0  0  0  0  0  0
    5.7158   -6.6000    0.0000 C   0  0  0  0  0  0  0  0  0  0  0  0
    6.4302   -6.1875    0.0000 C   0  0  0  0  0  0  0  0  0  0  0  0
    7.1447   -6.6000    0.0000 C   0  0  0  0  0  0  0  0  0  0  0  0
    7.1447   -7.4250    0.0000 C   0  0  0  0  0  0  0  0  0  0  0  0
    7.8592   -7.8375    0.0000 O   0  0  0  0  0  0  0  0  0  0  0  0
    6.4302   -7.8375    0.0000 N   0  0  0  0  0  0  0  0  0  0  0  0
    5.7158   -7.4250    0.0000 N   0  0  0  0  0  0  0  0  0  0  0  0
  2  1  1  6
  2  3  1  0
  2  6  1  0
  3  4  1  0
  4  5  1  0
  5  6  1  0
  6  7  1  0
  7  8  1  0
  8  9  1  0
  9 10  1  0
 10 11  1  0
 11 12  2  0
 11 16  1  0
 12 13  1  0
 13 14  2  0
 14 15  1  0
 14 17  1  0
 15 16  2  0
 17 18  1  0
 17 23  2  0
 18 19  2  0
 19 20  1  0
 20 21  2  0
 20 22  1  0
 22 23  1  0
M  END
>  <DRUGBANK_ID>  (1) 
DB12900

>  <COMMON_NAME>  (1) 
Irdabisant

>  <CAS_NUMBER>  (1) 
1005402-19-6

>  <UNII>  (1) 
WH7ISP34KA

>  <SYNONYMS>  (1) 
CEP-26401; Irdabisant

$$$$
