2O7
     RDKit          2D

 28 31  0  0  0  0  0  0  0  0999 V2000
    0.2620    2.7485    0.0000 C   0  0  0  0  0  0  0  0  0  0  0  0
   -0.5227    3.8284    0.0000 C   0  0  0  0  0  0  0  0  0  0  0  0
   -0.5227    2.4936    0.0000 C   0  0  0  0  0  0  0  0  0  0  0  0
    1.0466    3.8284    0.0000 C   0  0  0  0  0  0  0  0  0  0  0  0
    1.5315    3.1610    0.0000 C   0  0  0  0  0  0  0  0  0  0  0  0
    1.0466    2.4936    0.0000 C   0  0  0  0  0  0  0  0  0  0  0  0
    1.3015    1.7089    0.0000 C   0  0  0  0  0  0  0  0  0  0  0  0
    3.5940    2.4465    0.0000 C   0  0  0  0  0  0  0  0  0  0  0  0
    4.0065    3.1610    0.0000 C   0  0  0  0  0  0  0  0  0  0  0  0
    2.7690    3.8755    0.0000 C   0  0  0  0  0  0  0  0  0  0  0  0
    1.3015    4.6131    0.0000 O   0  0  0  0  0  0  0  0  0  0  0  0
   -0.4525    1.5110    0.0000 C   0  0  0  0  0  0  0  0  0  0  0  0
   -1.1670    1.9235    0.0000 C   0  0  0  0  0  0  0  0  0  0  0  0
   -1.8815    1.5110    0.0000 C   0  0  0  0  0  0  0  0  0  0  0  0
    0.2620    3.5735    0.0000 N   0  0  0  0  0  0  0  0  0  0  0  0
   -1.0076    3.1610    0.0000 C   0  0  0  0  0  0  0  0  0  0  0  0
    1.5565    0.9243    0.0000 N   0  0  0  0  0  0  0  0  0  0  0  0
    2.3565    3.1610    0.0000 C   0  0  0  0  0  0  0  0  0  0  0  0
    2.7690    2.4465    0.0000 C   0  0  0  0  0  0  0  0  0  0  0  0
    3.5940    3.8755    0.0000 C   0  0  0  0  0  0  0  0  0  0  0  0
    4.0065    4.5899    0.0000 Cl  0  0  0  0  0  0  0  0  0  0  0  0
    4.0065    1.7321    0.0000 Cl  0  0  0  0  0  0  0  0  0  0  0  0
    0.2620    1.9235    0.0000 C   0  0  0  0  0  0  0  0  0  0  0  0
   -1.8815    0.6860    0.0000 C   0  0  0  0  0  0  0  0  0  0  0  0
   -1.1670    0.2735    0.0000 C   0  0  0  0  0  0  0  0  0  0  0  0
   -0.4525    0.6860    0.0000 C   0  0  0  0  0  0  0  0  0  0  0  0
   -2.5959    0.2735    0.0000 C   0  0  0  0  0  0  0  0  0  0  0  0
   -3.3104   -0.1390    0.0000 N   0  0  0  0  0  0  0  0  0  0  0  0
  1 15  1  0
  1  3  1  0
  1 23  1  6
  2 16  1  0
  3 16  1  0
  4 15  1  0
  4 11  2  0
  5  4  1  0
  6  1  1  0
  6  5  2  0
  7  6  1  0
  8 19  2  0
  8 22  1  0
  9  8  1  0
 10 18  2  0
 12 23  1  0
 13 12  2  0
 14 13  1  0
 15  2  1  0
 17  7  3  0
 18  5  1  0
 18 19  1  0
 20 10  1  0
 20  9  2  0
 21 20  1  0
 24 14  2  0
 24 25  1  0
 25 26  2  0
 26 12  1  0
 27 24  1  0
 28 27  3  0
M  END
>  <DRUGBANK_ID>  (1) 
DB06972

>  <COMMON_NAME>  (1) 
7A-[(4-cyanophenyl)methyl]-6-(3,5-dichlorophenyl)-5-oxo-2,3,5,7A-tetrahydro-1H-pyrrolo[1,2-A]pyrrole-7-carbonitrile

$$$$
