
     RDKit          2D

 11 10  0  0  1  0  0  0  0  0999 V2000
    4.0954    0.7145    0.0000 C   0  0  0  0  0  0  0  0  0  0  0  0
    1.2375    0.7145    0.0000 C   0  0  0  0  0  0  0  0  0  0  0  0
    3.3809    1.1270    0.0000 C   0  0  0  0  0  0  0  0  0  0  0  0
    1.9520    1.1270    0.0000 C   0  0  0  0  0  0  0  0  0  0  0  0
    4.8099    1.1270    0.0000 C   0  0  0  0  0  0  0  0  0  0  0  0
    5.5243    0.7145    0.0000 C   0  0  0  0  0  0  0  0  0  0  0  0
    0.5230    1.1270    0.0000 N   0  0  0  0  0  0  0  0  0  0  0  0
    4.8099    1.9520    0.0000 N   0  0  0  0  0  0  0  0  0  0  0  0
    6.2388    1.1270    0.0000 O   0  0  0  0  0  0  0  0  0  0  0  0
    5.5243   -0.1105    0.0000 O   0  0  0  0  0  0  0  0  0  0  0  0
    2.6664    0.7145    0.0000 O   0  0  0  0  0  0  0  0  0  0  0  0
  3  1  1  0
  4  2  1  0
  5  1  1  0
  5  8  1  6
  6  5  1  0
  7  2  1  0
  9  6  2  0
 10  6  1  0
 11  3  1  0
 11  4  1  0
M  END
>  <DRUGBANK_ID>  (1) 
DB02971

>  <SECONDARY_ACCESSION_NUMBERS>  (1) 
EXPT00593

>  <COMMON_NAME>  (1) 
2-Amino-4-(2-Amino-Ethoxy)-Butyric Acid

$$$$
