
     RDKit          2D

  3  0  0  0  0  0  0  0  0  0999 V2000
    0.0000    0.0000    0.0000 Cl  0  0  0  0  0  0  0  0  0  0  0  0
    1.0018    0.0000    0.0000 Cl  0  0  0  0  0  0  0  0  0  0  0  0
    0.0000   -1.6500    0.0000 Sn  0  0  0  0  0 15  0  0  0  0  0  0
M  CHG  3   1  -1   2  -1   3   2
M  END
>  <DRUGBANK_ID>  (1) 
DB11056

>  <COMMON_NAME>  (1) 
Stannous chloride

>  <CAS_NUMBER>  (1) 
7772-99-8

>  <UNII>  (1) 
R30H55TN67

>  <SYNONYMS>  (1) 
Stannous chloride anhydrous; Stannous chloride,anhydrous; Tin dichloride

$$$$
