
     RDKit          2D

 22 25  0  0  0  0  0  0  0  0999 V2000
    0.9398   -1.8038    0.0000 O   0  0  0  0  0  0  0  0  0  0  0  0
    0.7681   -0.9969    0.0000 C   0  0  0  0  0  0  0  0  0  0  0  0
    1.4824   -0.5843    0.0000 C   0  0  0  0  0  0  0  0  0  0  0  0
    2.0956   -1.1361    0.0000 C   0  0  0  0  0  0  0  0  0  0  0  0
    1.7603   -1.8899    0.0000 C   0  0  0  0  0  0  0  0  0  0  0  0
    1.4822    0.2406    0.0000 C   0  0  0  0  0  0  0  0  0  0  0  0
    0.7676    0.6529    0.0000 C   0  0  0  0  0  0  0  0  0  0  0  0
    0.0533    0.2403    0.0000 C   0  0  0  0  0  0  0  0  0  0  0  0
   -0.6611    0.6526    0.0000 C   0  0  0  0  0  0  0  0  0  0  0  0
   -0.6613    1.4776    0.0000 C   0  0  0  0  0  0  0  0  0  0  0  0
   -1.3759    1.8899    0.0000 C   0  0  0  0  0  0  0  0  0  0  0  0
   -2.0902    1.4772    0.0000 C   0  0  0  0  0  0  0  0  0  0  0  0
   -2.0900    0.6522    0.0000 C   0  0  0  0  0  0  0  0  0  0  0  0
   -1.3755    0.2400    0.0000 C   0  0  0  0  0  0  0  0  0  0  0  0
   -1.3753   -0.5849    0.0000 C   0  0  0  0  0  0  0  0  0  0  0  0
   -0.6607   -0.9972    0.0000 C   0  0  0  0  0  0  0  0  0  0  0  0
    0.0535   -0.5846    0.0000 C   0  0  0  0  0  0  0  0  0  0  0  0
    0.7675    1.4779    0.0000 O   0  0  0  0  0  0  0  0  0  0  0  0
    2.1966    0.6533    0.0000 O   0  0  0  0  0  0  0  0  0  0  0  0
   -2.3720   -0.1229    0.0000 C   0  0  0  0  0  0  0  0  0  0  0  0
   -2.9025    0.7953    0.0000 C   0  0  0  0  0  0  0  0  0  0  0  0
    2.9025   -0.9644    0.0000 C   0  0  0  0  0  0  0  0  0  0  0  0
  1  2  1  0
  1  5  1  0
  2  3  2  0
  2 17  1  0
  3  4  1  0
  3  6  1  0
  4  5  1  0
  4 22  1  1
  6  7  1  0
  6 19  2  0
  7  8  1  0
  7 18  2  0
  8  9  2  0
  8 17  1  0
  9 10  1  0
  9 14  1  0
 10 11  1  0
 11 12  1  0
 12 13  1  0
 13 14  1  0
 13 20  1  0
 13 21  1  0
 14 15  2  0
 15 16  1  0
 16 17  2  0
M  END
>  <DRUGBANK_ID>  (1) 
DB15579

>  <COMMON_NAME>  (1) 
Cryptotanshinone

>  <CAS_NUMBER>  (1) 
35825-57-1

>  <UNII>  (1) 
5E9SXT166N

>  <SYNONYMS>  (1) 
Cryptotanshinon; Cryptotanshinone; Tanshinone C

$$$$
