
     RDKit          2D

 37 42  0  0  0  0  0  0  0  0999 V2000
   -0.3984    0.7541    0.0000 C   0  0  0  0  0  0  0  0  0  0  0  0
   -0.1435   -0.0305    0.0000 N   0  0  0  0  0  0  0  0  0  0  0  0
   -0.6284   -0.6979    0.0000 C   0  0  0  0  0  0  0  0  0  0  0  0
   -0.1435   -1.3654    0.0000 C   0  0  0  0  0  0  0  0  0  0  0  0
   -0.3984   -2.1500    0.0000 C   0  0  0  0  0  0  0  0  0  0  0  0
   -1.2054   -2.3215    0.0000 O   0  0  0  0  0  0  0  0  0  0  0  0
    0.1536   -2.7631    0.0000 O   0  0  0  0  0  0  0  0  0  0  0  0
    0.6411   -1.1104    0.0000 C   0  0  0  0  0  0  0  0  0  0  0  0
    0.6411   -0.2854    0.0000 C   0  0  0  0  0  0  0  0  0  0  0  0
    1.3556    0.1271    0.0000 C   0  0  0  0  0  0  0  0  0  0  0  0
    2.0701   -0.2854    0.0000 C   0  0  0  0  0  0  0  0  0  0  0  0
    2.0701   -1.1104    0.0000 C   0  0  0  0  0  0  0  0  0  0  0  0
    1.3556   -1.5229    0.0000 C   0  0  0  0  0  0  0  0  0  0  0  0
    2.7845    0.1271    0.0000 N   0  0  0  0  0  0  0  0  0  0  0  0
    2.7845    0.9521    0.0000 C   0  0  0  0  0  0  0  0  0  0  0  0
    3.4990    1.3646    0.0000 C   0  0  0  0  0  0  0  0  0  0  0  0
    4.2135    0.9521    0.0000 C   0  0  0  0  0  0  0  0  0  0  0  0
    4.2135    0.1271    0.0000 C   0  0  0  0  0  0  0  0  0  0  0  0
    3.4990   -0.2854    0.0000 C   0  0  0  0  0  0  0  0  0  0  0  0
    4.9279    1.3646    0.0000 O   0  0  0  0  0  0  0  0  0  0  0  0
    5.6424    0.9521    0.0000 C   0  0  0  0  0  0  0  0  0  0  0  0
    6.3569    1.3646    0.0000 C   0  0  0  0  0  0  0  0  0  0  0  0
    6.4431    2.1850    0.0000 C   0  0  0  0  0  0  0  0  0  0  0  0
    7.2501    2.3566    0.0000 O   0  0  0  0  0  0  0  0  0  0  0  0
    7.6626    1.6421    0.0000 N   0  0  0  0  0  0  0  0  0  0  0  0
    7.1106    1.0290    0.0000 C   0  0  0  0  0  0  0  0  0  0  0  0
    7.2821    0.2220    0.0000 C   0  0  0  0  0  0  0  0  0  0  0  0
    8.0667   -0.0329    0.0000 C   0  0  0  0  0  0  0  0  0  0  0  0
    8.6798    0.5191    0.0000 Cl  0  0  0  0  0  0  0  0  0  0  0  0
    8.2382   -0.8399    0.0000 C   0  0  0  0  0  0  0  0  0  0  0  0
    7.6251   -1.3919    0.0000 C   0  0  0  0  0  0  0  0  0  0  0  0
    6.8405   -1.1370    0.0000 C   0  0  0  0  0  0  0  0  0  0  0  0
    6.6690   -0.3300    0.0000 C   0  0  0  0  0  0  0  0  0  0  0  0
    5.8844   -0.0751    0.0000 Cl  0  0  0  0  0  0  0  0  0  0  0  0
    5.8300    2.7371    0.0000 C   0  0  0  0  0  0  0  0  0  0  0  0
    5.0231    2.9086    0.0000 C   0  0  0  0  0  0  0  0  0  0  0  0
    5.5751    3.5217    0.0000 C   0  0  0  0  0  0  0  0  0  0  0  0
  1  2  1  0
  2  3  1  0
  2  9  1  0
  3  4  2  0
  4  5  1  0
  4  8  1  0
  5  6  1  0
  5  7  2  0
  8  9  2  0
  8 13  1  0
  9 10  1  0
 10 11  2  0
 11 12  1  0
 11 14  1  0
 12 13  2  0
 14 15  1  0
 14 19  1  0
 15 16  1  0
 16 17  1  0
 17 18  1  0
 17 20  1  0
 18 19  1  0
 20 21  1  0
 21 22  1  0
 22 23  2  0
 22 26  1  0
 23 24  1  0
 23 35  1  0
 24 25  1  0
 25 26  2  0
 26 27  1  0
 27 28  2  0
 27 33  1  0
 28 29  1  0
 28 30  1  0
 30 31  2  0
 31 32  1  0
 32 33  2  0
 33 34  1  0
 35 36  1  0
 35 37  1  0
 36 37  1  0
M  END
>  <DRUGBANK_ID>  (1) 
DB16045

>  <COMMON_NAME>  (1) 
TERN-101

>  <CAS_NUMBER>  (1) 
1103500-20-4

>  <UNII>  (1) 
VVA2ZDV3LX

$$$$
