
     RDKit          2D

 20 22  0  0  0  0  0  0  0  0999 V2000
    5.7158    0.8250    0.0000 C   0  0  0  0  0  0  0  0  0  0  0  0
    4.2868    0.8250    0.0000 C   0  0  0  0  0  0  0  0  0  0  0  0
    5.0013    2.0625    0.0000 C   0  0  0  0  0  0  0  0  0  0  0  0
    1.4289    0.8250    0.0000 C   0  0  0  0  0  0  0  0  0  0  0  0
    0.7145    2.0625    0.0000 C   0  0  0  0  0  0  0  0  0  0  0  0
    5.0013    1.2375    0.0000 C   0  0  0  0  0  0  0  0  0  0  0  0
    0.7145    1.2375    0.0000 C   0  0  0  0  0  0  0  0  0  0  0  0
    3.5724    1.2375    0.0000 C   0  0  0  0  0  0  0  0  0  0  0  0
    2.1434    1.2375    0.0000 C   0  0  0  0  0  0  0  0  0  0  0  0
    4.2868    2.4750    0.0000 C   0  0  0  0  0  0  0  0  0  0  0  0
    1.4289    2.4750    0.0000 C   0  0  0  0  0  0  0  0  0  0  0  0
    3.5724    2.0625    0.0000 C   0  0  0  0  0  0  0  0  0  0  0  0
    2.1434    2.0625    0.0000 C   0  0  0  0  0  0  0  0  0  0  0  0
    2.8579    0.8250    0.0000 C   0  0  0  0  0  0  0  0  0  0  0  0
    2.8579    2.4750    0.0000 C   0  0  0  0  0  0  0  0  0  0  0  0
   -0.0000    0.8250    0.0000 O   0  0  0  0  0  0  0  0  0  0  0  0
    4.2868    3.3000    0.0000 O   0  0  0  0  0  0  0  0  0  0  0  0
    1.4289    3.3000    0.0000 O   0  0  0  0  0  0  0  0  0  0  0  0
    2.8579    0.0000    0.0000 O   0  0  0  0  0  0  0  0  0  0  0  0
    2.8579    3.3000    0.0000 O   0  0  0  0  0  0  0  0  0  0  0  0
  6  1  1  0
  6  2  2  0
  6  3  1  0
  7  4  1  0
  7  5  2  0
  8  2  1  0
  9  4  2  0
 10  3  2  0
 11  5  1  0
 12  8  2  0
 12 10  1  0
 13  9  1  0
 13 11  2  0
 14  8  1  0
 14  9  1  0
 15 12  1  0
 15 13  1  0
 16  7  1  0
 17 10  1  0
 18 11  1  0
 19 14  2  0
 20 15  2  0
M  END
>  <DRUGBANK_ID>  (1) 
DB07715

>  <SECONDARY_ACCESSION_NUMBERS>  (1) 
DB12653

>  <COMMON_NAME>  (1) 
Emodin

>  <CAS_NUMBER>  (1) 
518-82-1

>  <UNII>  (1) 
KA46RNI6HN

>  <SYNONYMS>  (1) 
1,3,8-trihydroxy-6-methyl-9,10-anthracenedione; 1,3,8-trihydroxy-6-methyl-9,10-anthraquinone; Schuttgelb

$$$$
