LZL
     RDKit          2D

 22 25  0  0  0  0  0  0  0  0999 V2000
   -0.9175  -12.9282    0.0000 N   0  0  0  0  0  0  0  0  0  0  0  0
   -0.2031  -12.5157    0.0000 C   0  0  0  0  0  0  0  0  0  0  0  0
   -0.2031  -11.6907    0.0000 N   0  0  0  0  0  0  0  0  0  0  0  0
    0.5114  -11.2782    0.0000 C   0  0  0  0  0  0  0  0  0  0  0  0
    1.2259  -11.6907    0.0000 C   0  0  0  0  0  0  0  0  0  0  0  0
    1.9403  -11.2782    0.0000 C   0  0  0  0  0  0  0  0  0  0  0  0
    0.5114  -12.9282    0.0000 N   0  0  0  0  0  0  0  0  0  0  0  0
    1.2259  -12.5157    0.0000 C   0  0  0  0  0  0  0  0  0  0  0  0
    1.9403  -12.9282    0.0000 N   0  0  0  0  0  0  0  0  0  0  0  0
    2.6548  -12.5157    0.0000 C   0  0  0  0  0  0  0  0  0  0  0  0
    3.3693  -12.9282    0.0000 N   0  0  0  0  0  0  0  0  0  0  0  0
    4.1230  -12.5927    0.0000 C   0  0  0  0  0  0  0  0  0  0  0  0
    4.6750  -13.2058    0.0000 C   0  0  0  0  0  0  0  0  0  0  0  0
    4.2625  -13.9203    0.0000 C   0  0  0  0  0  0  0  0  0  0  0  0
    3.4555  -13.7487    0.0000 C   0  0  0  0  0  0  0  0  0  0  0  0
    2.6548  -11.6907    0.0000 C   0  0  0  0  0  0  0  0  0  0  0  0
    3.3693  -11.2782    0.0000 C   0  0  0  0  0  0  0  0  0  0  0  0
    3.3693  -10.4532    0.0000 C   0  0  0  0  0  0  0  0  0  0  0  0
    4.0838  -10.0407    0.0000 C   0  0  0  0  0  0  0  0  0  0  0  0
    4.7982  -10.4532    0.0000 C   0  0  0  0  0  0  0  0  0  0  0  0
    4.7982  -11.2782    0.0000 C   0  0  0  0  0  0  0  0  0  0  0  0
    4.0838  -11.6907    0.0000 C   0  0  0  0  0  0  0  0  0  0  0  0
  1  2  1  0
  2  3  2  0
  2  7  1  0
  3  4  1  0
  4  5  2  0
  5  6  1  0
  5  8  1  0
  6 16  2  0
  7  8  2  0
  8  9  1  0
  9 10  2  0
 10 11  1  0
 10 16  1  0
 11 12  1  0
 11 15  1  0
 12 13  1  0
 13 14  2  0
 14 15  1  0
 16 17  1  0
 17 18  2  0
 17 22  1  0
 18 19  1  0
 19 20  2  0
 20 21  1  0
 21 22  2  0
M  END
>  <DRUGBANK_ID>  (1) 
DB08146

>  <COMMON_NAME>  (1) 
7-(2,5-dihydropyrrol-1-yl)-6-phenyl-pyrido[6,5-d]pyrimidin-2-amine

$$$$
