
     RDKit          2D

 31 34  0  0  0  0  0  0  0  0999 V2000
    1.1270   -5.1243    0.0000 C   0  0  0  0  0  0  0  0  0  0  0  0
    0.4125   -4.7118    0.0000 C   0  0  0  0  0  0  0  0  0  0  0  0
    0.4125   -3.8868    0.0000 S   0  0  0  0  0  0  0  0  0  0  0  0
    1.2375   -3.8868    0.0000 O   0  0  0  0  0  0  0  0  0  0  0  0
   -0.4125   -3.8868    0.0000 O   0  0  0  0  0  0  0  0  0  0  0  0
    0.4125   -3.0618    0.0000 N   0  0  0  0  0  0  0  0  0  0  0  0
   -0.3020   -2.6493    0.0000 C   0  0  0  0  0  0  0  0  0  0  0  0
   -0.3020   -1.8243    0.0000 C   0  0  0  0  0  0  0  0  0  0  0  0
    0.4125   -1.4118    0.0000 N   0  0  0  0  0  0  0  0  0  0  0  0
    1.1270   -1.8243    0.0000 C   0  0  0  0  0  0  0  0  0  0  0  0
    1.1270   -2.6493    0.0000 C   0  0  0  0  0  0  0  0  0  0  0  0
    0.4125   -0.5868    0.0000 C   0  0  0  0  0  0  0  0  0  0  0  0
   -0.3020   -0.1743    0.0000 C   0  0  0  0  0  0  0  0  0  0  0  0
   -0.3020    0.6507    0.0000 C   0  0  0  0  0  0  0  0  0  0  0  0
    0.4125    1.0632    0.0000 C   0  0  0  0  0  0  0  0  0  0  0  0
    0.4125    1.8882    0.0000 N   0  0  0  0  0  0  0  0  0  0  0  0
    1.1270    2.3007    0.0000 C   0  0  0  0  0  0  0  0  0  0  0  0
    1.1270    3.1257    0.0000 N   0  0  0  0  0  0  0  0  0  0  0  0
    1.8414    3.5382    0.0000 C   0  0  0  0  0  0  0  0  0  0  0  0
    2.5559    3.1257    0.0000 C   0  0  0  0  0  0  0  0  0  0  0  0
    3.2704    3.5382    0.0000 C   0  0  0  0  0  0  0  0  0  0  0  0
    3.2704    4.3632    0.0000 N   0  0  0  0  0  0  0  0  0  0  0  0
    3.9849    3.1257    0.0000 O   0  0  0  0  0  0  0  0  0  0  0  0
    2.5559    2.3007    0.0000 C   0  0  0  0  0  0  0  0  0  0  0  0
    3.2704    1.8882    0.0000 N   0  0  0  0  0  0  0  0  0  0  0  0
    3.2704    1.0632    0.0000 C   0  0  0  0  0  0  0  0  0  0  0  0
    3.6829    0.3487    0.0000 C   0  0  0  0  0  0  0  0  0  0  0  0
    2.8579    0.3487    0.0000 C   0  0  0  0  0  0  0  0  0  0  0  0
    1.8414    1.8882    0.0000 N   0  0  0  0  0  0  0  0  0  0  0  0
    1.1270    0.6507    0.0000 C   0  0  0  0  0  0  0  0  0  0  0  0
    1.1270   -0.1743    0.0000 C   0  0  0  0  0  0  0  0  0  0  0  0
  1  2  1  0
  2  3  1  0
  3  4  2  0
  3  5  2  0
  3  6  1  0
  6  7  1  0
  6 11  1  0
  7  8  1  0
  8  9  1  0
  9 10  1  0
  9 12  1  0
 10 11  1  0
 12 13  2  0
 12 31  1  0
 13 14  1  0
 14 15  2  0
 15 16  1  0
 15 30  1  0
 16 17  1  0
 17 18  2  0
 17 29  1  0
 18 19  1  0
 19 20  2  0
 20 21  1  0
 20 24  1  0
 21 22  1  0
 21 23  2  0
 24 25  1  0
 24 29  2  0
 25 26  1  0
 26 27  1  0
 26 28  1  0
 27 28  1  0
 30 31  2  0
M  END
>  <DRUGBANK_ID>  (1) 
DB15499

>  <COMMON_NAME>  (1) 
Cerdulatinib

>  <CAS_NUMBER>  (1) 
1198300-79-6

>  <UNII>  (1) 
D1LXQ45S1O

>  <SYNONYMS>  (1) 
4-(cyclopropylamino)-2-((4-(4-(ethanesulfonyl)piperazin-1-yl)phenyl)amino)pyrimidine-5-carboxamide; 5-pyrimidinecarboxamide, 4-(cyclopropylamino)-2-((4-(4-(ethylsulfonyl)-1-piperazinyl)phenyl)amino)-; Cerdulatinib

$$$$
