
     RDKit          2D

 24 26  0  0  0  0  0  0  0  0999 V2000
   -1.8001   -1.6502    0.0000 F   0  0  0  0  0  0  0  0  0  0  0  0
    1.0950    1.6551    0.0000 O   0  0  0  0  0  0  0  0  0  0  0  0
    1.0950    0.0000    0.0000 O   0  0  0  0  0  0  0  0  0  0  0  0
   -1.8001    1.6551    0.0000 O   0  0  0  0  0  0  0  0  0  0  0  0
    0.3499   -2.0652    0.0000 O   0  0  0  0  0  0  0  0  0  0  0  0
    2.5002    0.8300    0.0000 N   0  0  0  0  0  0  0  0  0  0  0  0
    0.3499    0.4150    0.0000 C   0  0  0  0  0  0  0  0  0  0  0  0
    1.0950    0.8300    0.0000 C   0  0  0  0  0  0  0  0  0  0  0  0
    0.3499   -0.4100    0.0000 C   0  0  0  0  0  0  0  0  0  0  0  0
   -0.3499    0.8300    0.0000 C   0  0  0  0  0  0  0  0  0  0  0  0
   -1.0550    0.4150    0.0000 C   0  0  0  0  0  0  0  0  0  0  0  0
    1.8001    0.4150    0.0000 C   0  0  0  0  0  0  0  0  0  0  0  0
   -0.3499   -0.8251    0.0000 C   0  0  0  0  0  0  0  0  0  0  0  0
    1.0950   -0.8251    0.0000 C   0  0  0  0  0  0  0  0  0  0  0  0
   -1.8001    0.8300    0.0000 C   0  0  0  0  0  0  0  0  0  0  0  0
   -1.0550   -0.4100    0.0000 C   0  0  0  0  0  0  0  0  0  0  0  0
    1.8001    2.0652    0.0000 C   0  0  0  0  0  0  0  0  0  0  0  0
   -1.8001   -0.8251    0.0000 C   0  0  0  0  0  0  0  0  0  0  0  0
    2.5002    1.6551    0.0000 C   0  0  0  0  0  0  0  0  0  0  0  0
   -2.5002    0.4150    0.0000 C   0  0  0  0  0  0  0  0  0  0  0  0
    1.0950   -1.6502    0.0000 C   0  0  0  0  0  0  0  0  0  0  0  0
   -0.3499   -1.6502    0.0000 C   0  0  0  0  0  0  0  0  0  0  0  0
   -2.5002   -0.4100    0.0000 C   0  0  0  0  0  0  0  0  0  0  0  0
   -1.0550    2.0652    0.0000 C   0  0  0  0  0  0  0  0  0  0  0  0
  1 18  1  0
  2  8  1  0
  2 17  1  0
  4 15  1  0
  4 24  1  0
  5 21  1  0
  5 22  1  0
  6 12  1  0
  6 19  1  0
  7  3  1  1
  7  8  1  0
  7  9  1  0
  7 10  1  0
  8 12  1  1
  9 13  1  0
  9 14  1  0
 10 11  1  0
 11 15  2  0
 11 16  1  0
 13 22  1  0
 14 21  1  0
 15 20  1  0
 16 18  2  0
 17 19  1  0
 18 23  1  0
 20 23  2  0
M  END
>  <DRUGBANK_ID>  (1) 
DB09184

>  <COMMON_NAME>  (1) 
Edivoxetine

>  <CAS_NUMBER>  (1) 
1194508-25-2

>  <UNII>  (1) 
3W9N3F4JOO

>  <SYNONYMS>  (1) 
Edivoxetine

$$$$
