
     RDKit          2D

 26 26  0  0  0  0  0  0  0  0999 V2000
    2.1434   -5.3625    0.0000 C   0  0  0  0  0  0  0  0  0  0  0  0
    2.8579   -4.9500    0.0000 C   0  0  0  0  0  0  0  0  0  0  0  0
    3.5724   -5.3625    0.0000 C   0  0  0  0  0  0  0  0  0  0  0  0
    4.2868   -4.9500    0.0000 C   0  0  0  0  0  0  0  0  0  0  0  0
    5.0013   -5.3625    0.0000 C   0  0  0  0  0  0  0  0  0  0  0  0
    5.7158   -4.9500    0.0000 C   0  0  0  0  0  0  0  0  0  0  0  0
    6.4302   -5.3625    0.0000 C   0  0  0  0  0  0  0  0  0  0  0  0
    7.1447   -4.9500    0.0000 O   0  0  0  0  0  0  0  0  0  0  0  0
    7.8592   -5.3625    0.0000 C   0  0  0  0  0  0  0  0  0  0  0  0
    8.5737   -4.9500    0.0000 C   0  0  0  0  0  0  0  0  0  0  0  0
    9.2881   -5.3625    0.0000 C   0  0  0  0  0  0  0  0  0  0  0  0
    9.2881   -6.1875    0.0000 C   0  0  0  0  0  0  0  0  0  0  0  0
   10.0026   -6.6000    0.0000 C   0  0  0  0  0  0  0  0  0  0  0  0
   10.7171   -6.1875    0.0000 C   0  0  0  0  0  0  0  0  0  0  0  0
   11.4315   -6.6000    0.0000 C   0  0  0  0  0  0  0  0  0  0  0  0
   11.0190   -7.3145    0.0000 N   0  0  0  0  0  0  0  0  0  0  0  0
   12.1460   -7.0125    0.0000 C   0  0  0  0  0  0  0  0  0  0  0  0
   12.8605   -6.6000    0.0000 O   0  0  0  0  0  0  0  0  0  0  0  0
   11.8440   -5.8855    0.0000 C   0  0  0  0  0  0  0  0  0  0  0  0
   12.6690   -5.8855    0.0000 O   0  0  0  0  0  0  0  0  0  0  0  0
    8.5737   -6.6000    0.0000 C   0  0  0  0  0  0  0  0  0  0  0  0
    7.8592   -6.1875    0.0000 C   0  0  0  0  0  0  0  0  0  0  0  0
    7.1447   -6.6000    0.0000 C   0  0  0  0  0  0  0  0  0  0  0  0
    6.4302   -7.0125    0.0000 F   0  0  0  0  0  0  0  0  0  0  0  0
    6.7322   -5.8855    0.0000 F   0  0  0  0  0  0  0  0  0  0  0  0
    7.5572   -7.3145    0.0000 F   0  0  0  0  0  0  0  0  0  0  0  0
  1  2  1  0
  2  3  1  0
  3  4  1  0
  4  5  1  0
  5  6  1  0
  6  7  1  0
  7  8  1  0
  8  9  1  0
  9 10  2  0
  9 22  1  0
 10 11  1  0
 11 12  2  0
 12 13  1  0
 12 21  1  0
 13 14  1  0
 14 15  1  0
 15 16  1  0
 15 17  1  0
 15 19  1  0
 17 18  1  0
 19 20  1  0
 21 22  2  0
 22 23  1  0
 23 24  1  0
 23 25  1  0
 23 26  1  0
M  END
>  <DRUGBANK_ID>  (1) 
DB17074

>  <COMMON_NAME>  (1) 
Amiselimod

>  <CAS_NUMBER>  (1) 
942399-20-4

>  <UNII>  (1) 
358M5150LY

>  <SYNONYMS>  (1) 
1,3-propanediol, 2-amino-2-(2-(4-(heptyloxy)-3-(trifluoromethyl)phenyl)ethyl)-; 2-amino-2-(2-(4-heptyloxy-3-trifluoromethylphenyl)ethyl)propane-1,3-diol; Amiselimod

$$$$
