139
     RDKit          2D

  8  7  0  0  0  0  0  0  0  0999 V2000
    2.0928    0.2063    0.0000 O   0  0  0  0  0  0  0  0  0  0  0  0
    5.6650   -0.2063    0.0000 O   0  0  0  0  0  0  0  0  0  0  0  0
    2.8072   -1.0312    0.0000 O   0  0  0  0  0  0  0  0  0  0  0  0
    4.9504    1.0312    0.0000 O   0  0  0  0  0  0  0  0  0  0  0  0
    3.5217    0.2063    0.0000 C   0  0  0  0  0  0  0  0  0  0  0  0
    4.2361   -0.2063    0.0000 C   0  0  0  0  0  0  0  0  0  0  0  0
    2.8072   -0.2063    0.0000 C   0  0  0  0  0  0  0  0  0  0  0  0
    4.9504    0.2063    0.0000 C   0  0  0  0  0  0  0  0  0  0  0  0
  1  7  1  0
  2  8  1  0
  3  7  2  0
  4  8  2  0
  5  6  1  0
  5  7  1  0
  6  8  1  0
M  END
>  <DRUGBANK_ID>  (1) 
DB00139

>  <SECONDARY_ACCESSION_NUMBERS>  (1) 
NUTR00054

>  <COMMON_NAME>  (1) 
Succinic acid

>  <CAS_NUMBER>  (1) 
110-15-6

>  <UNII>  (1) 
AB6MNQ6J6L

>  <SYNONYMS>  (1) 
1,2-ethanedicarboxylic acid; Acide butanedioïque; Acide succinique; Acidum succinicum; Amber acid; Asuccin; Bernsteinsäure; Butandisäure; Butanedioic acid; Butanedionic acid; Dihydrofumaric acid; Ethylenesuccinic acid; Spirit of amber; Succinic acid

$$$$
