4822
     RDKit          2D

 24 24  0  0  0  0  0  0  0  0999 V2000
    3.6020   -0.6188    0.0000 O   0  0  0  0  0  0  0  0  0  0  0  0
    2.1731   -0.6188    0.0000 O   0  0  0  0  0  0  0  0  0  0  0  0
    4.3166    1.4438    0.0000 O   0  0  0  0  0  0  0  0  0  0  0  0
    5.7455    3.0938    0.0000 N   0  0  0  0  0  0  0  0  0  0  0  0
    2.8876   -1.8563    0.0000 C   0  0  0  0  0  0  0  0  0  0  0  0
    3.7126   -1.8563    0.0000 C   0  0  0  0  0  0  0  0  0  0  0  0
    2.0625   -1.8563    0.0000 C   0  0  0  0  0  0  0  0  0  0  0  0
    2.8876   -2.6813    0.0000 C   0  0  0  0  0  0  0  0  0  0  0  0
    2.8876   -1.0313    0.0000 C   0  0  0  0  0  0  0  0  0  0  0  0
    4.1251   -1.1418    0.0000 C   0  0  0  0  0  0  0  0  0  0  0  0
    1.6500   -1.1418    0.0000 C   0  0  0  0  0  0  0  0  0  0  0  0
    3.6020   -3.0938    0.0000 C   0  0  0  0  0  0  0  0  0  0  0  0
    2.1731   -3.0938    0.0000 C   0  0  0  0  0  0  0  0  0  0  0  0
    3.6020    0.2063    0.0000 C   0  0  0  0  0  0  0  0  0  0  0  0
    3.6020   -3.9188    0.0000 C   0  0  0  0  0  0  0  0  0  0  0  0
    2.1731   -3.9188    0.0000 C   0  0  0  0  0  0  0  0  0  0  0  0
    5.0310    2.6813    0.0000 C   0  0  0  0  0  0  0  0  0  0  0  0
    4.3166    0.6188    0.0000 C   0  0  0  0  0  0  0  0  0  0  0  0
    5.0310    1.8563    0.0000 C   0  0  0  0  0  0  0  0  0  0  0  0
    2.8876   -4.3313    0.0000 C   0  0  0  0  0  0  0  0  0  0  0  0
    5.7455    3.9188    0.0000 C   0  0  0  0  0  0  0  0  0  0  0  0
    6.4600    2.6813    0.0000 C   0  0  0  0  0  0  0  0  0  0  0  0
    6.4600    4.3313    0.0000 C   0  0  0  0  0  0  0  0  0  0  0  0
    7.1745    3.0938    0.0000 C   0  0  0  0  0  0  0  0  0  0  0  0
  1  9  1  0
  1 14  1  0
  2  9  2  0
  3 18  1  0
  3 19  1  0
  4 17  1  0
  4 21  1  0
  4 22  1  0
  5  6  1  0
  5  7  1  0
  5  8  1  0
  5  9  1  0
  6 10  1  0
  7 11  1  0
  8 12  2  0
  8 13  1  0
 12 15  1  0
 13 16  2  0
 14 18  1  0
 15 20  2  0
 16 20  1  0
 17 19  1  0
 21 23  1  0
 22 24  1  0
M  END
>  <DRUGBANK_ID>  (1) 
DB04822

>  <COMMON_NAME>  (1) 
Oxeladin

>  <CAS_NUMBER>  (1) 
468-61-1

>  <UNII>  (1) 
SNC1080T5Y

>  <SYNONYMS>  (1) 
2-(2-Diethylaminoethoxy)ethyl 2-ethyl-2-phenylbutyrate; Oxeladin; Oxeladina; Oxeladine; Oxeladinum

$$$$
