
     RDKit          2D

 24 25  0  0  0  0  0  0  0  0999 V2000
    0.7127   -0.2071    0.0000 C   0  0  0  0  0  0  0  0  0  0  0  0
    0.7139    0.6211    0.0000 C   0  0  0  0  0  0  0  0  0  0  0  0
   -0.0015    1.0344    0.0000 C   0  0  0  0  0  0  0  0  0  0  0  0
   -0.7188    0.6206    0.0000 C   0  0  0  0  0  0  0  0  0  0  0  0
   -0.7159   -0.2107    0.0000 C   0  0  0  0  0  0  0  0  0  0  0  0
    0.0002   -0.6203    0.0000 C   0  0  0  0  0  0  0  0  0  0  0  0
   -1.4284    1.0317    0.0000 C   0  0  0  0  0  0  0  0  0  0  0  0
   -2.1416    0.6187    0.0000 C   0  0  0  0  0  0  0  0  0  0  0  0
   -2.8553    1.0330    0.0000 C   0  0  0  0  0  0  0  0  0  0  0  0
   -3.5683    0.6207    0.0000 N   0  0  0  0  0  0  0  0  0  0  0  0
   -3.5678   -0.2044    0.0000 C   0  0  0  0  0  0  0  0  0  0  0  0
   -2.8484   -0.6153    0.0000 N   0  0  0  0  0  0  0  0  0  0  0  0
   -2.1385   -0.2008    0.0000 C   0  0  0  0  0  0  0  0  0  0  0  0
   -4.2819   -0.6190    0.0000 N   0  0  0  0  0  0  0  0  0  0  0  0
   -2.8548    1.8588    0.0000 N   0  0  0  0  0  0  0  0  0  0  0  0
    0.0023   -1.4459    0.0000 O   0  0  0  0  0  0  0  0  0  0  0  0
   -0.7069   -1.8588    0.0000 C   0  0  0  0  0  0  0  0  0  0  0  0
    1.4288   -0.6200    0.0000 O   0  0  0  0  0  0  0  0  0  0  0  0
    2.1420   -0.2071    0.0000 C   0  0  0  0  0  0  0  0  0  0  0  0
    2.8553   -0.6158    0.0000 C   0  0  0  0  0  0  0  0  0  0  0  0
    3.5687   -0.2030    0.0000 O   0  0  0  0  0  0  0  0  0  0  0  0
    4.2819   -0.6117    0.0000 C   0  0  0  0  0  0  0  0  0  0  0  0
    1.4288    1.0275    0.0000 O   0  0  0  0  0  0  0  0  0  0  0  0
    2.1378    0.6146    0.0000 C   0  0  0  0  0  0  0  0  0  0  0  0
  1  2  2  0
  1 18  1  0
  2  3  1  0
  2 23  1  0
  3  4  2  0
  4  7  1  0
  4  5  1  0
  5  6  2  0
  6  1  1  0
  6 16  1  0
  7  8  1  0
  8  9  2  0
  9 15  1  0
  9 10  1  0
 10 11  2  0
 11 12  1  0
 11 14  1  0
 12 13  2  0
 13  8  1  0
 16 17  1  0
 18 19  1  0
 19 20  1  0
 20 21  1  0
 21 22  1  0
 23 24  1  0
M  END
>  <DRUGBANK_ID>  (1) 
DB15976

>  <COMMON_NAME>  (1) 
Tetroxoprim

>  <CAS_NUMBER>  (1) 
53808-87-0

>  <UNII>  (1) 
5R6712AY0K

>  <SYNONYMS>  (1) 
Tetroxoprim; Tetroxoprima; Tetroxoprime; Tetroxoprimum

$$$$
