WR2
     RDKit          2D

 31 31  0  0  0  0  0  0  0  0999 V2000
    3.0436    7.6271    0.0000 O   0  0  0  0  0  0  0  0  0  0  0  0
    3.0436    6.8021    0.0000 C   0  0  0  0  0  0  0  0  0  0  0  0
    2.3291    6.3896    0.0000 N   0  0  0  0  0  0  0  0  0  0  0  0
    1.6147    6.8021    0.0000 C   0  0  0  0  0  0  0  0  0  0  0  0
    3.7581    6.3896    0.0000 C   0  0  0  0  0  0  0  0  0  0  0  0
    3.7581    5.5646    0.0000 C   0  0  0  0  0  0  0  0  0  0  0  0
    3.7581    4.7396    0.0000 C   0  0  0  0  0  0  0  0  0  0  0  0
    4.5831    5.5646    0.0000 C   0  0  0  0  0  0  0  0  0  0  0  0
    2.9331    5.5646    0.0000 C   0  0  0  0  0  0  0  0  0  0  0  0
    4.4726    6.8021    0.0000 N   0  0  0  0  0  0  0  0  0  0  0  0
    5.1870    6.3896    0.0000 C   0  0  0  0  0  0  0  0  0  0  0  0
    5.1870    5.5646    0.0000 O   0  0  0  0  0  0  0  0  0  0  0  0
    5.9015    6.8021    0.0000 C   0  0  0  0  0  0  0  0  0  0  0  0
    5.9015    7.6271    0.0000 C   0  0  0  0  0  0  0  0  0  0  0  0
    5.1870    8.0396    0.0000 C   0  0  0  0  0  0  0  0  0  0  0  0
    4.4726    7.6271    0.0000 C   0  0  0  0  0  0  0  0  0  0  0  0
    5.1870    8.8646    0.0000 C   0  0  0  0  0  0  0  0  0  0  0  0
    6.6160    6.3896    0.0000 C   0  0  0  0  0  0  0  0  0  0  0  0
    6.6160    5.5646    0.0000 C   0  0  0  0  0  0  0  0  0  0  0  0
    5.9015    5.1521    0.0000 O   0  0  0  0  0  0  0  0  0  0  0  0
    7.3304    5.1521    0.0000 N   0  0  0  0  0  0  0  0  0  0  0  0
    7.3304    4.3271    0.0000 O   0  0  0  0  0  0  0  0  0  0  0  0
    7.3304    6.8021    0.0000 C   0  0  0  0  0  0  0  0  0  0  0  0
    8.0449    6.3896    0.0000 N   0  0  0  0  0  0  0  0  0  0  0  0
    8.7594    6.8021    0.0000 C   0  0  0  0  0  0  0  0  0  0  0  0
    8.7594    7.6271    0.0000 O   0  0  0  0  0  0  0  0  0  0  0  0
    9.4739    6.3896    0.0000 C   0  0  0  0  0  0  0  0  0  0  0  0
   10.2275    6.7252    0.0000 N   0  0  0  0  0  0  0  0  0  0  0  0
   10.7796    6.1121    0.0000 C   0  0  0  0  0  0  0  0  0  0  0  0
   10.3671    5.3976    0.0000 C   0  0  0  0  0  0  0  0  0  0  0  0
    9.5601    5.5691    0.0000 S   0  0  0  0  0  0  0  0  0  0  0  0
  1  2  2  0
  2  3  1  0
  2  5  1  0
  3  4  1  0
  5  6  1  0
  5 10  1  1
  6  7  1  0
  6  8  1  0
  6  9  1  0
 10 11  1  0
 11 12  2  0
 11 13  1  0
 13 14  1  6
 13 18  1  0
 14 15  1  0
 15 16  1  0
 15 17  1  0
 18 19  1  0
 18 23  1  6
 19 20  2  0
 19 21  1  0
 21 22  1  0
 23 24  1  0
 24 25  1  0
 25 26  2  0
 25 27  1  0
 27 28  2  0
 27 31  1  0
 28 29  1  0
 29 30  2  0
 30 31  1  0
M  END
>  <DRUGBANK_ID>  (1) 
DB08733

>  <COMMON_NAME>  (1) 
(2R,3R)-N^1^-[(1S)-2,2-DIMETHYL-1-(METHYLCARBAMOYL)PROPYL]-N^4^-HYDROXY-2-(2-METHYLPROPYL)-3-{[(1,3-THIAZOL-2-YLCARBONYL)AMINO]METHYL}BUTANEDIAMIDE

$$$$
