
     RDKit          2D

 23 24  0  0  0  0  0  0  0  0999 V2000
    4.0034    1.5713    0.0000 C   0  0  0  0  0  0  0  0  0  0  0  0
    1.5986   -0.4726    0.0000 C   0  0  0  0  0  0  0  0  0  0  0  0
    2.4322   -0.4726    0.0000 C   0  0  0  0  0  0  0  0  0  0  0  0
    3.4840    0.9323    0.0000 N   0  0  0  0  0  0  0  0  0  0  0  0
    0.1960   -1.0804    0.0000 O   0  0  0  0  0  0  0  0  0  0  0  0
    3.7099    2.3659    0.0000 O   0  0  0  0  0  0  0  0  0  0  0  0
    0.7674   -0.4726    0.0000 C   0  0  0  0  0  0  0  0  0  0  0  0
    4.7982    1.3738    0.0000 N   0  0  0  0  0  0  0  0  0  0  0  0
   -1.9517   -0.7141    0.0000 O   0  0  0  0  0  0  0  0  0  0  0  0
   -0.5259   -0.7376    0.0000 C   0  0  0  0  0  0  0  0  0  0  0  0
   -2.6633   -1.1271    0.0000 C   0  0  0  0  0  0  0  0  0  0  0  0
   -4.0866   -1.9530    0.0000 C   0  0  0  0  0  0  0  0  0  0  0  0
    2.6789    1.0544    0.0000 O   0  0  0  0  0  0  0  0  0  0  0  0
   -1.2375   -1.1401    0.0000 C   0  0  0  0  0  0  0  0  0  0  0  0
   -4.7982   -2.3659    0.0000 F   0  0  0  0  0  0  0  0  0  0  0  0
   -2.6633   -1.9530    0.0000 C   0  0  0  0  0  0  0  0  0  0  0  0
   -3.3776   -0.7141    0.0000 C   0  0  0  0  0  0  0  0  0  0  0  0
   -3.3776   -2.3659    0.0000 C   0  0  0  0  0  0  0  0  0  0  0  0
   -4.0866   -1.1271    0.0000 C   0  0  0  0  0  0  0  0  0  0  0  0
    0.3622    0.2285    0.0000 C   0  0  0  0  0  0  0  0  0  0  0  0
   -0.4635    0.0649    0.0000 C   0  0  0  0  0  0  0  0  0  0  0  0
    3.2633   -0.4726    0.0000 C   0  0  0  0  0  0  0  0  0  0  0  0
    3.7774    0.1661    0.0000 C   0  0  0  0  0  0  0  0  0  0  0  0
  2  3  3  0
  3 22  1  0
  4  1  1  0
  5  7  1  0
  6  1  2  0
  7  2  1  1
  8  1  1  0
  9 14  1  0
 10  5  1  0
 10 14  1  6
 11  9  1  0
 12 19  2  0
 13  4  1  0
 15 12  1  0
 16 11  1  0
 17 11  2  0
 18 16  2  0
 18 12  1  0
 19 17  1  0
 20  7  1  0
 21 20  1  0
 21 10  1  0
 22 23  1  0
 23  4  1  0
M  END
>  <DRUGBANK_ID>  (1) 
DB05431

>  <COMMON_NAME>  (1) 
MLN-977

>  <CAS_NUMBER>  (1) 
175212-04-1

>  <UNII>  (1) 
VNR0T3Q498

$$$$
