
     RDKit          2D

 16 18  0  0  0  0  0  0  0  0999 V2000
   -1.8212    1.5229    0.0000 C   0  0  0  0  0  0  0  0  0  0  0  0
   -1.4087    0.8085    0.0000 C   0  0  0  0  0  0  0  0  0  0  0  0
   -1.4087    2.2374    0.0000 C   0  0  0  0  0  0  0  0  0  0  0  0
    3.3523    1.1104    0.0000 C   0  0  0  0  0  0  0  0  0  0  0  0
    3.3523    1.9354    0.0000 C   0  0  0  0  0  0  0  0  0  0  0  0
   -0.5837    0.8085    0.0000 C   0  0  0  0  0  0  0  0  0  0  0  0
   -0.5837    2.2374    0.0000 C   0  0  0  0  0  0  0  0  0  0  0  0
    2.6378    0.6979    0.0000 C   0  0  0  0  0  0  0  0  0  0  0  0
    2.6378    2.3479    0.0000 C   0  0  0  0  0  0  0  0  0  0  0  0
   -0.1712    1.5229    0.0000 C   0  0  0  0  0  0  0  0  0  0  0  0
    1.9233    1.1104    0.0000 C   0  0  0  0  0  0  0  0  0  0  0  0
    1.9233    1.9354    0.0000 C   0  0  0  0  0  0  0  0  0  0  0  0
    1.1387    0.8555    0.0000 C   0  0  0  0  0  0  0  0  0  0  0  0
    0.6538    1.5229    0.0000 N   0  0  0  0  0  0  0  0  0  0  0  0
    0.8838    0.0709    0.0000 O   0  0  0  0  0  0  0  0  0  0  0  0
    1.1387    2.1904    0.0000 Se  0  0  0  0  0  2  0  0  0  0  0  0
  2  1  2  0
  3  1  1  0
  5  4  2  0
  6  2  1  0
  7  3  2  0
  8  4  1  0
  9  5  1  0
 10  6  2  0
 10  7  1  0
 11  8  2  0
 12  9  2  0
 12 11  1  0
 13 11  1  0
 14 10  1  0
 14 13  1  0
 15 13  2  0
 16 12  1  0
 16 14  1  0
M  END
>  <DRUGBANK_ID>  (1) 
DB12610

>  <SECONDARY_ACCESSION_NUMBERS>  (1) 
DB05994

>  <COMMON_NAME>  (1) 
Ebselen

>  <CAS_NUMBER>  (1) 
60940-34-3

>  <UNII>  (1) 
40X2P7DPGH

>  <SYNONYMS>  (1) 
Ebselen; ebseleno

$$$$
