
     RDKit          2D

 23 23  0  0  0  0  0  0  0  0999 V2000
   -0.7145    0.0000    0.0000 C   0  0  0  0  0  0  0  0  0  0  0  0
   -1.4289   -0.4124    0.0000 C   0  0  0  0  0  0  0  0  0  0  0  0
   -1.4289   -1.2374    0.0000 C   0  0  0  0  0  0  0  0  0  0  0  0
   -0.7145   -1.6500    0.0000 C   0  0  0  0  0  0  0  0  0  0  0  0
    0.0000   -1.2374    0.0000 C   0  0  0  0  0  0  0  0  0  0  0  0
    0.0000   -0.4124    0.0000 O   0  0  0  0  0  0  0  0  0  0  0  0
   -0.7145    0.8250    0.0000 O   0  0  0  0  0  0  0  0  0  0  0  0
    0.0000    1.2375    0.0000 C   0  0  0  0  0  0  0  0  0  0  0  0
    0.0000    2.0625    0.0000 C   0  0  0  0  0  0  0  0  0  0  0  0
    0.7144    2.4749    0.0000 O   0  0  0  0  0  0  0  0  0  0  0  0
   -0.7145    2.4749    0.0000 C   0  0  0  0  0  0  0  0  0  0  0  0
   -1.4289    2.0625    0.0000 O   0  0  0  0  0  0  0  0  0  0  0  0
    0.7144    0.8250    0.0000 C   0  0  0  0  0  0  0  0  0  0  0  0
    0.7144    0.0000    0.0000 O   0  0  0  0  0  0  0  0  0  0  0  0
    1.4289    1.2375    0.0000 C   0  0  0  0  0  0  0  0  0  0  0  0
    1.4289    2.0625    0.0000 O   0  0  0  0  0  0  0  0  0  0  0  0
    2.1433    0.8250    0.0000 C   0  0  0  0  0  0  0  0  0  0  0  0
    2.1433    0.0000    0.0000 O   0  0  0  0  0  0  0  0  0  0  0  0
    0.7144   -1.6500    0.0000 C   0  0  0  0  0  0  0  0  0  0  0  0
    1.4289   -1.2374    0.0000 O   0  0  0  0  0  0  0  0  0  0  0  0
   -0.7145   -2.4749    0.0000 O   0  0  0  0  0  0  0  0  0  0  0  0
   -2.1433   -1.6500    0.0000 O   0  0  0  0  0  0  0  0  0  0  0  0
   -2.1433    0.0000    0.0000 O   0  0  0  0  0  0  0  0  0  0  0  0
  1  2  1  0
  1  6  1  0
  1  7  1  1
  2  3  1  0
  2 23  1  1
  3  4  1  0
  3 22  1  6
  4  5  1  0
  4 21  1  1
  5  6  1  0
  5 19  1  6
  8  7  1  6
  8  9  1  0
  8 13  1  0
  9 10  1  1
  9 11  1  0
 11 12  1  0
 13 14  1  1
 13 15  1  0
 15 16  1  1
 15 17  1  0
 17 18  1  0
 19 20  1  0
M  END
>  <DRUGBANK_ID>  (1) 
DB16867

>  <COMMON_NAME>  (1) 
Maltitol

>  <CAS_NUMBER>  (1) 
585-88-6

>  <UNII>  (1) 
D65DG142WK

>  <SYNONYMS>  (1) 
Maltitol

$$$$
