
     RDKit          2D

 29 31  0  0  0  0  0  0  0  0999 V2000
   -2.8738    0.8378    0.0000 Cl  0  0  0  0  0  0  0  0  0  0  0  0
    0.7727   -2.0967    0.0000 O   0  0  0  0  0  0  0  0  0  0  0  0
    2.9172   -1.6799    0.0000 N   0  0  0  0  0  0  0  0  0  0  0  0
   -2.1184   -0.4210    0.0000 C   0  0  0  0  0  0  0  0  0  0  0  0
   -1.4065   -0.8377    0.0000 C   0  0  0  0  0  0  0  0  0  0  0  0
   -2.1184    0.4210    0.0000 C   0  0  0  0  0  0  0  0  0  0  0  0
   -2.8304   -0.8377    0.0000 C   0  0  0  0  0  0  0  0  0  0  0  0
   -1.4065    0.8378    0.0000 C   0  0  0  0  0  0  0  0  0  0  0  0
   -0.6512   -0.4210    0.0000 C   0  0  0  0  0  0  0  0  0  0  0  0
   -1.4065   -1.6799    0.0000 C   0  0  0  0  0  0  0  0  0  0  0  0
   -3.6291   -0.4210    0.0000 C   0  0  0  0  0  0  0  0  0  0  0  0
   -2.8304   -1.6799    0.0000 C   0  0  0  0  0  0  0  0  0  0  0  0
    0.0607   -1.6799    0.0000 C   0  0  0  0  0  0  0  0  0  0  0  0
    0.0607   -0.8377    0.0000 C   0  0  0  0  0  0  0  0  0  0  0  0
   -0.6512   -2.0967    0.0000 C   0  0  0  0  0  0  0  0  0  0  0  0
   -0.6946    0.4645    0.0000 C   0  0  0  0  0  0  0  0  0  0  0  0
   -1.4065    1.6800    0.0000 C   0  0  0  0  0  0  0  0  0  0  0  0
   -4.3410   -0.8377    0.0000 C   0  0  0  0  0  0  0  0  0  0  0  0
   -3.6291   -2.0967    0.0000 C   0  0  0  0  0  0  0  0  0  0  0  0
    0.0173    0.8812    0.0000 C   0  0  0  0  0  0  0  0  0  0  0  0
   -0.6946    2.0967    0.0000 C   0  0  0  0  0  0  0  0  0  0  0  0
   -4.3410   -1.6799    0.0000 C   0  0  0  0  0  0  0  0  0  0  0  0
    0.0173    1.7233    0.0000 C   0  0  0  0  0  0  0  0  0  0  0  0
    1.4846   -1.6799    0.0000 C   0  0  0  0  0  0  0  0  0  0  0  0
    2.2053   -2.0967    0.0000 C   0  0  0  0  0  0  0  0  0  0  0  0
    3.6291   -2.0967    0.0000 C   0  0  0  0  0  0  0  0  0  0  0  0
    2.9172   -0.8377    0.0000 C   0  0  0  0  0  0  0  0  0  0  0  0
    4.3410   -1.6799    0.0000 C   0  0  0  0  0  0  0  0  0  0  0  0
    3.6291   -0.4210    0.0000 C   0  0  0  0  0  0  0  0  0  0  0  0
  1  6  1  0
  2 13  1  0
  2 24  1  0
  3 25  1  0
  3 26  1  0
  3 27  1  0
  4  5  1  0
  4  6  2  0
  4  7  1  0
  5  9  2  0
  5 10  1  0
  6  8  1  0
  7 11  2  0
  7 12  1  0
  8 16  2  0
  8 17  1  0
  9 14  1  0
 10 15  2  0
 11 18  1  0
 12 19  2  0
 13 14  2  0
 13 15  1  0
 16 20  1  0
 17 21  2  0
 18 22  2  0
 19 22  1  0
 20 23  2  0
 21 23  1  0
 24 25  1  0
 26 28  1  0
 27 29  1  0
M  END
>  <DRUGBANK_ID>  (1) 
DB06735

>  <COMMON_NAME>  (1) 
Enclomiphene

>  <CAS_NUMBER>  (1) 
15690-57-0

>  <UNII>  (1) 
R6D2UI4FLS

>  <SYNONYMS>  (1) 
Enclomifene; Enclomifeno; Enclomifenum; Enclomiphene; trans-Clomifene; trans-Clomiphene

$$$$
