CCT
     RDKit          2D

 27 29  0  0  0  0  0  0  0  0999 V2000
   -1.7440   -1.5061    0.0000 C   0  0  0  0  0  0  0  0  0  0  0  0
   -2.5645   -1.4199    0.0000 C   0  0  0  0  0  0  0  0  0  0  0  0
   -2.9001   -0.6662    0.0000 C   0  0  0  0  0  0  0  0  0  0  0  0
   -2.4151    0.0013    0.0000 C   0  0  0  0  0  0  0  0  0  0  0  0
   -1.5947   -0.0850    0.0000 C   0  0  0  0  0  0  0  0  0  0  0  0
   -1.2591   -0.8387    0.0000 C   0  0  0  0  0  0  0  0  0  0  0  0
   -0.6972    1.8520    0.0000 C   0  0  0  0  0  0  0  0  0  0  0  0
   -0.0298    1.3671    0.0000 C   0  0  0  0  0  0  0  0  0  0  0  0
   -0.2847    0.5825    0.0000 C   0  0  0  0  0  0  0  0  0  0  0  0
   -1.1097    0.5825    0.0000 C   0  0  0  0  0  0  0  0  0  0  0  0
   -1.3647    1.3671    0.0000 S   0  0  0  0  0  0  0  0  0  0  0  0
   -3.0494   -2.0873    0.0000 C   0  0  0  0  0  0  0  0  0  0  0  0
   -3.5343   -2.7547    0.0000 N   0  0  0  0  0  0  0  0  0  0  0  0
   -0.6972    2.6770    0.0000 C   0  0  0  0  0  0  0  0  0  0  0  0
   -1.4117    3.0895    0.0000 O   0  0  0  0  0  0  0  0  0  0  0  0
    0.0172    3.0895    0.0000 O   0  0  0  0  0  0  0  0  0  0  0  0
    0.7548    1.6220    0.0000 N   0  0  0  0  0  0  0  0  0  0  0  0
    1.3679    1.0700    0.0000 S   0  0  0  0  0  0  0  0  0  0  0  0
    1.8095   -0.2890    0.0000 C   0  0  0  0  0  0  0  0  0  0  0  0
    1.9810    0.5180    0.0000 C   0  0  0  0  0  0  0  0  0  0  0  0
    2.7656    0.7729    0.0000 C   0  0  0  0  0  0  0  0  0  0  0  0
    3.3787    0.2209    0.0000 C   0  0  0  0  0  0  0  0  0  0  0  0
    3.2072   -0.5861    0.0000 C   0  0  0  0  0  0  0  0  0  0  0  0
    2.4226   -0.8411    0.0000 C   0  0  0  0  0  0  0  0  0  0  0  0
    1.0249   -0.5440    0.0000 C   0  0  0  0  0  0  0  0  0  0  0  0
    0.8159    0.4569    0.0000 O   0  0  0  0  0  0  0  0  0  0  0  0
    1.9200    1.6831    0.0000 O   0  0  0  0  0  0  0  0  0  0  0  0
  1  2  2  0
  1  6  1  0
  2  3  1  0
  2 12  1  0
  3  4  2  0
  4  5  1  0
  5  6  2  0
  5 10  1  0
  7  8  2  0
  7 11  1  0
  7 14  1  0
  8  9  1  0
  8 17  1  0
  9 10  2  0
 10 11  1  0
 12 13  3  0
 14 15  1  0
 14 16  2  0
 17 18  1  0
 18 20  1  0
 18 26  2  0
 18 27  2  0
 19 20  2  0
 19 24  1  0
 19 25  1  0
 20 21  1  0
 21 22  2  0
 22 23  1  0
 23 24  2  0
M  END
>  <DRUGBANK_ID>  (1) 
DB07547

>  <COMMON_NAME>  (1) 
5-(4-CYANOPHENYL)-3-{[(2-METHYLPHENYL)SULFONYL]AMINO}THIOPHENE-2-CARBOXYLIC ACID

$$$$
