
     RDKit          2D

 15 17  0  0  0  0  0  0  0  0999 V2000
   -0.1485   -1.5745    0.0000 C   0  0  0  0  0  0  0  0  0  0  0  0
   -0.1485   -0.7495    0.0000 N   0  0  0  0  0  0  0  0  0  0  0  0
    0.5188   -0.2646    0.0000 C   0  0  0  0  0  0  0  0  0  0  0  0
    0.2639    0.5199    0.0000 C   0  0  0  0  0  0  0  0  0  0  0  0
    0.8160    1.1330    0.0000 C   0  0  0  0  0  0  0  0  0  0  0  0
    1.6229    0.9614    0.0000 C   0  0  0  0  0  0  0  0  0  0  0  0
    2.1750    1.5745    0.0000 F   0  0  0  0  0  0  0  0  0  0  0  0
    1.8778    0.1768    0.0000 C   0  0  0  0  0  0  0  0  0  0  0  0
    1.3258   -0.4362    0.0000 C   0  0  0  0  0  0  0  0  0  0  0  0
   -0.5610    0.5199    0.0000 C   0  0  0  0  0  0  0  0  0  0  0  0
   -0.8160   -0.2646    0.0000 C   0  0  0  0  0  0  0  0  0  0  0  0
   -1.6229   -0.4362    0.0000 C   0  0  0  0  0  0  0  0  0  0  0  0
   -2.1750    0.1768    0.0000 N   0  0  0  0  0  0  0  0  0  0  0  0
   -1.9200    0.9614    0.0000 C   0  0  0  0  0  0  0  0  0  0  0  0
   -1.1130    1.1330    0.0000 C   0  0  0  0  0  0  0  0  0  0  0  0
  1  2  1  0
  2  3  1  0
  2 11  1  0
  3  4  2  0
  3  9  1  0
  4  5  1  0
  4 10  1  0
  5  6  2  0
  6  7  1  0
  6  8  1  0
  8  9  2  0
 10 11  2  0
 10 15  1  0
 11 12  1  0
 12 13  2  0
 13 14  1  0
 14 15  2  0
M  END
>  <DRUGBANK_ID>  (1) 
DB18118

>  <COMMON_NAME>  (1) 
6-fluoro-9-methyl-9H-pyrido(3,4-B)-indole

>  <UNII>  (1) 
KT2RT2HH65

>  <SYNONYMS>  (1) 
6-fluoro-9-methyl-9H-pyrido[3,4-b]-indole

$$$$
