
     RDKit          2D

 33 35  0  0  1  0  0  0  0  0999 V2000
    2.4377   -7.2041    0.0000 C   0  0  0  0  0  0  0  0  0  0  0  0
    3.1521   -6.7916    0.0000 O   0  0  0  0  0  0  0  0  0  0  0  0
    3.8666   -7.2041    0.0000 C   0  0  0  0  0  0  0  0  0  0  0  0
    4.5811   -6.7916    0.0000 C   0  0  0  0  0  0  0  0  0  0  0  0
    5.2955   -7.2041    0.0000 C   0  0  0  0  0  0  0  0  0  0  0  0
    6.0100   -6.7916    0.0000 N   0  0  0  0  0  0  0  0  0  0  0  0
    6.0100   -5.9666    0.0000 C   0  0  0  0  0  0  0  0  0  0  0  0
    5.2955   -5.5541    0.0000 O   0  0  0  0  0  0  0  0  0  0  0  0
    6.7245   -5.5541    0.0000 C   0  0  0  0  0  0  0  0  0  0  0  0
    7.4390   -5.9666    0.0000 N   0  0  0  0  0  0  0  0  0  0  0  0
    7.4390   -6.7916    0.0000 N   0  0  0  0  0  0  0  0  0  0  0  0
    6.7245   -7.2041    0.0000 C   0  0  0  0  0  0  0  0  0  0  0  0
    6.7245   -8.0291    0.0000 O   0  0  0  0  0  0  0  0  0  0  0  0
    8.1534   -7.2041    0.0000 C   0  0  0  0  0  0  0  0  0  0  0  0
    8.8679   -6.7916    0.0000 C   0  0  0  0  0  0  0  0  0  0  0  0
    9.5824   -7.2041    0.0000 C   0  0  0  0  0  0  0  0  0  0  0  0
    9.5824   -8.0291    0.0000 C   0  0  0  0  0  0  0  0  0  0  0  0
    8.8679   -8.4416    0.0000 C   0  0  0  0  0  0  0  0  0  0  0  0
    8.1534   -8.0291    0.0000 C   0  0  0  0  0  0  0  0  0  0  0  0
    8.8679   -9.2666    0.0000 C   0  0  0  0  0  0  0  0  0  0  0  0
    8.1534   -9.6791    0.0000 O   0  0  0  0  0  0  0  0  0  0  0  0
    9.5824   -9.6791    0.0000 N   0  0  0  0  0  0  0  0  0  0  0  0
    9.5824  -10.5041    0.0000 C   0  0  0  0  0  0  0  0  0  0  0  0
   10.2968  -10.9166    0.0000 C   0  0  0  0  0  0  0  0  0  0  0  0
   11.1195  -10.9782    0.0000 C   0  0  0  0  0  0  0  0  0  0  0  0
   11.5843  -11.6599    0.0000 C   0  0  0  0  0  0  0  0  0  0  0  0
   11.3411  -12.4482    0.0000 C   0  0  0  0  0  0  0  0  0  0  0  0
   10.5731  -12.7496    0.0000 C   0  0  0  0  0  0  0  0  0  0  0  0
    9.8587  -12.3371    0.0000 C   0  0  0  0  0  0  0  0  0  0  0  0
    9.7357  -11.5213    0.0000 C   0  0  0  0  0  0  0  0  0  0  0  0
   10.5400  -10.1282    0.0000 O   0  0  0  0  0  0  0  0  0  0  0  0
   10.2968   -8.4416    0.0000 Cl  0  0  0  0  0  0  0  0  0  0  0  0
    4.5811   -5.9666    0.0000 O   0  0  0  0  0  0  0  0  0  0  0  0
  1  2  1  0
  2  3  1  0
  3  4  1  0
  4  5  1  0
  4 33  1  6
  5  6  1  0
  6  7  1  0
  6 12  1  0
  7  8  2  0
  7  9  1  0
  9 10  2  0
 10 11  1  0
 11 12  1  0
 11 14  1  0
 12 13  2  0
 14 15  2  0
 14 19  1  0
 15 16  1  0
 16 17  2  0
 17 18  1  0
 17 32  1  0
 18 19  2  0
 18 20  1  0
 20 21  2  0
 20 22  1  0
 22 23  1  0
 23 24  1  0
 24 25  1  0
 24 30  1  0
 24 31  1  0
 25 26  1  0
 26 27  1  0
 27 28  1  0
 28 29  1  0
 29 30  1  0
M  END
>  <DRUGBANK_ID>  (1) 
DB12113

>  <COMMON_NAME>  (1) 
CE-224535

>  <CAS_NUMBER>  (1) 
724424-43-5

>  <UNII>  (1) 
T8B02RAU3C

$$$$
