
     RDKit          2D

 25 28  0  0  1  0  0  0  0  0999 V2000
   -0.6955    3.4867    0.0000 O   0  0  0  0  0  0  0  0  0  0  0  0
   -0.1435    2.8736    0.0000 C   0  0  0  0  0  0  0  0  0  0  0  0
   -0.3984    2.0890    0.0000 C   0  0  0  0  0  0  0  0  0  0  0  0
    0.0865    1.4216    0.0000 O   0  0  0  0  0  0  0  0  0  0  0  0
   -0.3984    0.7541    0.0000 C   0  0  0  0  0  0  0  0  0  0  0  0
   -1.1831    1.0091    0.0000 C   0  0  0  0  0  0  0  0  0  0  0  0
   -1.9677    0.7541    0.0000 O   0  0  0  0  0  0  0  0  0  0  0  0
   -2.4526    1.4216    0.0000 C   0  0  0  0  0  0  0  0  0  0  0  0
   -3.2776    1.4216    0.0000 C   0  0  0  0  0  0  0  0  0  0  0  0
   -3.6901    2.1360    0.0000 P   0  0  0  0  0  0  0  0  0  0  0  0
   -4.1026    2.8505    0.0000 O   0  0  0  0  0  0  0  0  0  0  0  0
   -4.4046    1.7235    0.0000 O   0  0  0  0  0  0  0  0  0  0  0  0
   -2.9756    2.5485    0.0000 O   0  0  0  0  0  0  0  0  0  0  0  0
   -1.9677    2.0890    0.0000 O   0  0  0  0  0  0  0  0  0  0  0  0
   -1.1831    1.8341    0.0000 C   0  0  0  0  0  0  0  0  0  0  0  0
   -0.1435   -0.0305    0.0000 C   0  0  0  0  0  0  0  0  0  0  0  0
   -0.6284   -0.6979    0.0000 C   0  0  0  0  0  0  0  0  0  0  0  0
   -0.1435   -1.3654    0.0000 N   0  0  0  0  0  0  0  0  0  0  0  0
    0.6411   -1.1104    0.0000 C   0  0  0  0  0  0  0  0  0  0  0  0
    0.6411   -0.2854    0.0000 C   0  0  0  0  0  0  0  0  0  0  0  0
    1.3556    0.1271    0.0000 N   0  0  0  0  0  0  0  0  0  0  0  0
    2.0701   -0.2854    0.0000 C   0  0  0  0  0  0  0  0  0  0  0  0
    2.0701   -1.1104    0.0000 N   0  0  0  0  0  0  0  0  0  0  0  0
    1.3556   -1.5229    0.0000 C   0  0  0  0  0  0  0  0  0  0  0  0
    1.3556   -2.3479    0.0000 O   0  0  0  0  0  0  0  0  0  0  0  0
  1  2  1  0
  3  2  1  1
  3  4  1  0
  3 15  1  0
  4  5  1  0
  5  6  1  0
  5 16  1  1
  6  7  1  6
  6 15  1  0
  7  8  1  0
  8  9  1  6
  8 14  1  0
  9 10  1  0
 10 11  1  0
 10 12  1  0
 10 13  2  0
 15 14  1  6
 16 17  2  0
 16 20  1  0
 17 18  1  0
 18 19  1  0
 19 20  2  0
 19 24  1  0
 20 21  1  0
 21 22  1  0
 22 23  2  0
 23 24  1  0
 24 25  2  0
M  END
>  <DRUGBANK_ID>  (1) 
DB04753

>  <COMMON_NAME>  (1) 
9-DEAZAINOSINE-2',3'-O-ETHYLIDENEPHOSPHONATE

$$$$
