
     RDKit          2D

 14 15  0  0  1  0  0  0  0  0999 V2000
    3.6703   -0.2897    0.0000 O   0  0  0  0  0  0  0  0  0  0  0  0
    2.2021    0.6122    0.0000 N   0  0  0  0  0  0  0  0  0  0  0  0
    5.0993   -1.9398    0.0000 N   0  0  0  0  0  0  0  0  0  0  0  0
    2.9558    0.9478    0.0000 C   0  0  0  0  0  0  0  0  0  0  0  0
    2.8695    1.7683    0.0000 C   0  0  0  0  0  0  0  0  0  0  0  0
    2.0625    1.9398    0.0000 C   0  0  0  0  0  0  0  0  0  0  0  0
    1.6500    1.2253    0.0000 C   0  0  0  0  0  0  0  0  0  0  0  0
    3.6703    0.5353    0.0000 C   0  0  0  0  0  0  0  0  0  0  0  0
    4.3847   -0.7023    0.0000 C   0  0  0  0  0  0  0  0  0  0  0  0
    4.3847   -1.5273    0.0000 C   0  0  0  0  0  0  0  0  0  0  0  0
    5.0993   -0.2897    0.0000 C   0  0  0  0  0  0  0  0  0  0  0  0
    3.6703   -1.9398    0.0000 C   0  0  0  0  0  0  0  0  0  0  0  0
    5.8137   -0.7023    0.0000 C   0  0  0  0  0  0  0  0  0  0  0  0
    5.8137   -1.5273    0.0000 C   0  0  0  0  0  0  0  0  0  0  0  0
  1  8  1  0
  1  9  1  0
  2  4  1  0
  2  7  1  0
  3 10  2  0
  3 14  1  0
  4  5  1  0
  4  8  1  1
  5  6  1  0
  6  7  1  0
  9 10  1  0
  9 11  2  0
 10 12  1  0
 11 13  1  0
 13 14  2  0
M  END
>  <DRUGBANK_ID>  (1) 
DB05458

>  <COMMON_NAME>  (1) 
Pozanicline

>  <CAS_NUMBER>  (1) 
161417-03-4

>  <UNII>  (1) 
CL2002R563

>  <SYNONYMS>  (1) 
Pozanicline

$$$$
