
     RDKit          2D

 24 23  0  0  0  0  0  0  0  0999 V2000
   -0.7366   -1.4289    0.0000 C   0  0  0  0  0  0  0  0  0  0  0  0
   -1.5616   -1.4289    0.0000 C   0  0  0  0  0  0  0  0  0  0  0  0
   -1.9741   -2.1434    0.0000 C   0  0  0  0  0  0  0  0  0  0  0  0
   -2.7991   -2.1434    0.0000 C   0  0  0  0  0  0  0  0  0  0  0  0
   -3.2116   -1.4289    0.0000 C   0  0  0  0  0  0  0  0  0  0  0  0
   -2.7991   -0.7144    0.0000 C   0  0  0  0  0  0  0  0  0  0  0  0
   -1.9741   -0.7144    0.0000 C   0  0  0  0  0  0  0  0  0  0  0  0
   -1.5616    0.0000    0.0000 N   0  0  0  0  0  0  0  0  0  0  0  0
   -0.7366    0.0000    0.0000 C   0  0  0  0  0  0  0  0  0  0  0  0
   -0.3241   -0.7144    0.0000 O   0  0  0  0  0  0  0  0  0  0  0  0
   -0.3241    0.7144    0.0000 C   0  0  0  0  0  0  0  0  0  0  0  0
    0.5008    0.7144    0.0000 N   0  0  0  0  0  0  0  0  0  0  0  0
    0.9133    1.4289    0.0000 C   0  0  0  0  0  0  0  0  0  0  0  0
    0.5008    2.1434    0.0000 C   0  0  0  0  0  0  0  0  0  0  0  0
    0.9133    2.8578    0.0000 O   0  0  0  0  0  0  0  0  0  0  0  0
   -0.3241    2.1434    0.0000 O   0  0  0  0  0  0  0  0  0  0  0  0
    0.9133    0.0000    0.0000 C   0  0  0  0  0  0  0  0  0  0  0  0
    1.7383    0.0000    0.0000 C   0  0  0  0  0  0  0  0  0  0  0  0
    2.1508    0.7144    0.0000 O   0  0  0  0  0  0  0  0  0  0  0  0
    2.1508   -0.7144    0.0000 O   0  0  0  0  0  0  0  0  0  0  0  0
   -3.2116    0.0000    0.0000 C   0  0  0  0  0  0  0  0  0  0  0  0
   -4.0366   -1.4289    0.0000 Br  0  0  0  0  0  0  0  0  0  0  0  0
   -3.2116   -2.8578    0.0000 C   0  0  0  0  0  0  0  0  0  0  0  0
    4.0366   -0.2174    0.0000 Tc  0  0  0  0  0 15  0  0  0  0  0  0
  1  2  1  0
  2  3  2  0
  2  7  1  0
  3  4  1  0
  4  5  2  0
  4 23  1  0
  5  6  1  0
  5 22  1  0
  6  7  2  0
  6 21  1  0
  7  8  1  0
  8  9  1  0
  9 10  2  0
  9 11  1  0
 11 12  1  0
 12 13  1  0
 12 17  1  0
 13 14  1  0
 14 15  2  0
 14 16  1  0
 17 18  1  0
 18 19  2  0
 18 20  1  0
M  END
>  <DRUGBANK_ID>  (1) 
DB09137

>  <COMMON_NAME>  (1) 
Technetium Tc-99m mebrofenin

>  <CAS_NUMBER>  (1) 
1415247-71-0

>  <UNII>  (1) 
F2NQ468L52

>  <SYNONYMS>  (1) 
Bis(2-[[2-(3-bromo-2,4,6-trimethylanilino)-2-oxoethyl]-(carboxymethyl)amino]acetate) technetium; Technetium (99mTc) mebrofenin; Technetium Tc 99m diisopropyl-iminodiacetic acid; Technetium Tc 99m DISIDA; Technetium Tc 99m Mebrofenin

$$$$
