LII
     RDKit          2D

 25 27  0  0  0  0  0  0  0  0999 V2000
   -1.2250   -0.7073    0.0000 C   0  0  0  0  0  0  0  0  0  0  0  0
   -1.9394   -1.1198    0.0000 C   0  0  0  0  0  0  0  0  0  0  0  0
   -2.6539    0.1177    0.0000 C   0  0  0  0  0  0  0  0  0  0  0  0
   -1.2250    0.1177    0.0000 C   0  0  0  0  0  0  0  0  0  0  0  0
   -0.5105   -1.1198    0.0000 C   0  0  0  0  0  0  0  0  0  0  0  0
    0.2040   -0.7073    0.0000 C   0  0  0  0  0  0  0  0  0  0  0  0
    0.2040    0.1177    0.0000 C   0  0  0  0  0  0  0  0  0  0  0  0
   -0.5105   -1.9448    0.0000 C   0  0  0  0  0  0  0  0  0  0  0  0
    0.9184   -1.1198    0.0000 C   0  0  0  0  0  0  0  0  0  0  0  0
    1.6329    0.1177    0.0000 C   0  0  0  0  0  0  0  0  0  0  0  0
    2.3474    0.5302    0.0000 C   0  0  0  0  0  0  0  0  0  0  0  0
    2.3474    1.3552    0.0000 C   0  0  0  0  0  0  0  0  0  0  0  0
    1.6329    1.7677    0.0000 C   0  0  0  0  0  0  0  0  0  0  0  0
    0.9184    1.3552    0.0000 C   0  0  0  0  0  0  0  0  0  0  0  0
    0.9184    0.5302    0.0000 C   0  0  0  0  0  0  0  0  0  0  0  0
    1.6329   -0.7073    0.0000 C   0  0  0  0  0  0  0  0  0  0  0  0
    3.7763    0.5302    0.0000 C   0  0  0  0  0  0  0  0  0  0  0  0
   -0.5105    1.3552    0.0000 C   0  0  0  0  0  0  0  0  0  0  0  0
   -2.6539   -0.7073    0.0000 N   0  0  0  0  0  0  0  0  0  0  0  0
   -1.9394    0.5302    0.0000 N   0  0  0  0  0  0  0  0  0  0  0  0
   -0.5105    0.5302    0.0000 N   0  0  0  0  0  0  0  0  0  0  0  0
   -1.9394   -1.9448    0.0000 N   0  0  0  0  0  0  0  0  0  0  0  0
   -3.3684    0.5302    0.0000 N   0  0  0  0  0  0  0  0  0  0  0  0
    3.0618    0.1177    0.0000 O   0  0  0  0  0  0  0  0  0  0  0  0
    0.2040    1.7677    0.0000 O   0  0  0  0  0  0  0  0  0  0  0  0
  1  2  2  0
  1  4  1  0
  1  5  1  0
  2 19  1  0
  2 22  1  0
  3 19  2  0
  3 20  1  0
  3 23  1  0
  4 20  2  0
  4 21  1  0
  5  6  2  0
  5  8  1  0
  6  7  1  0
  6  9  1  0
  7 21  2  0
  9 16  2  0
 10 11  2  0
 10 15  1  0
 10 16  1  0
 11 12  1  0
 11 24  1  0
 12 13  2  0
 13 14  1  0
 14 15  2  0
 14 25  1  0
 17 24  1  0
 18 25  1  0
M  END
>  <DRUGBANK_ID>  (1) 
DB03060

>  <SECONDARY_ACCESSION_NUMBERS>  (1) 
EXPT02032

>  <COMMON_NAME>  (1) 
Sri-9662

$$$$
