
     RDKit          2D

 11 10  0  0  0  0  0  0  0  0999 V2000
   -2.8578    0.8745    0.0000 O   0  0  0  0  0  0  0  0  0  0  0  0
   -2.1433   -0.3630    0.0000 N   0  0  0  0  0  0  0  0  0  0  0  0
    0.0000    0.0495    0.0000 C   0  0  0  0  0  0  0  0  0  0  0  0
   -0.7144   -0.3630    0.0000 C   0  0  0  0  0  0  0  0  0  0  0  0
    0.7145   -0.3630    0.0000 C   0  0  0  0  0  0  0  0  0  0  0  0
   -1.4289    0.0495    0.0000 C   0  0  0  0  0  0  0  0  0  0  0  0
    1.4289    0.0495    0.0000 C   0  0  0  0  0  0  0  0  0  0  0  0
    2.1434   -0.3630    0.0000 C   0  0  0  0  0  0  0  0  0  0  0  0
   -1.4289    0.8745    0.0000 C   0  0  0  0  0  0  0  0  0  0  0  0
    2.8578    0.0495    0.0000 C   0  0  0  0  0  0  0  0  0  0  0  0
   -2.8578    0.0495    0.0000 C   0  0  0  0  0  0  0  0  0  0  0  0
  1 11  2  0
  2 11  1  0
  3  4  1  0
  3  5  1  0
  4  6  1  0
  5  7  1  0
  6  2  1  0
  6  9  1  6
  7  8  1  0
  8 10  1  0
M  END
>  <DRUGBANK_ID>  (1) 
DB02131

>  <SECONDARY_ACCESSION_NUMBERS>  (1) 
EXPT01516

>  <COMMON_NAME>  (1) 
N-1-methylheptylformamide

>  <SYNONYMS>  (1) 
(R)-(-)-2-Octyl isocyanate

$$$$
