L18
     RDKit          2D

 19 20  0  0  0  0  0  0  0  0999 V2000
  -15.4861  -16.2460    0.0000 C   0  0  0  0  0  0  0  0  0  0  0  0
  -15.4861  -15.4210    0.0000 C   0  0  0  0  0  0  0  0  0  0  0  0
  -16.2005  -16.6585    0.0000 C   0  0  0  0  0  0  0  0  0  0  0  0
  -16.9150  -16.2460    0.0000 C   0  0  0  0  0  0  0  0  0  0  0  0
  -16.9150  -15.4210    0.0000 C   0  0  0  0  0  0  0  0  0  0  0  0
  -17.6295  -17.4835    0.0000 C   0  0  0  0  0  0  0  0  0  0  0  0
  -18.3439  -17.8960    0.0000 C   0  0  0  0  0  0  0  0  0  0  0  0
  -19.0584  -17.4835    0.0000 C   0  0  0  0  0  0  0  0  0  0  0  0
  -19.0584  -16.6585    0.0000 C   0  0  0  0  0  0  0  0  0  0  0  0
  -18.3439  -16.2460    0.0000 C   0  0  0  0  0  0  0  0  0  0  0  0
  -17.6295  -16.6585    0.0000 C   0  0  0  0  0  0  0  0  0  0  0  0
  -13.3426  -15.0085    0.0000 C   0  0  0  0  0  0  0  0  0  0  0  0
  -12.6282  -15.4210    0.0000 C   0  0  0  0  0  0  0  0  0  0  0  0
  -12.6282  -16.2460    0.0000 C   0  0  0  0  0  0  0  0  0  0  0  0
  -13.3426  -16.6585    0.0000 C   0  0  0  0  0  0  0  0  0  0  0  0
  -14.0571  -16.2460    0.0000 C   0  0  0  0  0  0  0  0  0  0  0  0
  -14.7716  -16.6585    0.0000 C   0  0  0  0  0  0  0  0  0  0  0  0
  -14.7716  -15.0085    0.0000 C   0  0  0  0  0  0  0  0  0  0  0  0
  -14.0571  -15.4210    0.0000 N   0  0  0  0  0  0  0  0  0  0  0  0
  1  2  1  6
  1  3  1  0
  1 17  1  0
  3  4  1  0
  4  5  1  6
  4 11  1  0
  6  7  2  0
  6 11  1  0
  7  8  1  0
  8  9  2  0
  9 10  1  0
 10 11  2  0
 12 13  1  0
 12 19  1  0
 13 14  1  0
 14 15  1  0
 15 16  1  0
 16 17  1  1
 16 19  1  0
 18 19  1  0
M  END
>  <DRUGBANK_ID>  (1) 
DB08071

>  <COMMON_NAME>  (1) 
(2S)-1-methyl-2-[(2S,4R)-2-methyl-4-phenylpentyl]piperidine

$$$$
