
     RDKit          2D

 18 20  0  0  1  0  0  0  0  0999 V2000
    6.3709   -0.8559    0.0000 O   0  0  0  0  0  0  0  0  0  0  0  0
    6.2603    0.3817    0.0000 O   0  0  0  0  0  0  0  0  0  0  0  0
    2.1506    0.9634    0.0000 O   0  0  0  0  0  0  0  0  0  0  0  0
    4.8314   -1.2684    0.0000 C   0  0  0  0  0  0  0  0  0  0  0  0
    5.2439   -1.9829    0.0000 C   0  0  0  0  0  0  0  0  0  0  0  0
    4.4189   -1.9829    0.0000 C   0  0  0  0  0  0  0  0  0  0  0  0
    5.5459   -0.8559    0.0000 C   0  0  0  0  0  0  0  0  0  0  0  0
    4.1168   -0.8559    0.0000 C   0  0  0  0  0  0  0  0  0  0  0  0
    4.1168   -0.0309    0.0000 C   0  0  0  0  0  0  0  0  0  0  0  0
    5.5459   -0.0309    0.0000 C   0  0  0  0  0  0  0  0  0  0  0  0
    5.9584   -1.5704    0.0000 C   0  0  0  0  0  0  0  0  0  0  0  0
    4.8314    0.3817    0.0000 C   0  0  0  0  0  0  0  0  0  0  0  0
    3.4024   -1.2684    0.0000 C   0  0  0  0  0  0  0  0  0  0  0  0
    3.5088    0.5194    0.0000 C   0  0  0  0  0  0  0  0  0  0  0  0
    4.6588    1.1834    0.0000 C   0  0  0  0  0  0  0  0  0  0  0  0
    3.8430    1.2684    0.0000 C   0  0  0  0  0  0  0  0  0  0  0  0
    2.7015    0.3493    0.0000 C   0  0  0  0  0  0  0  0  0  0  0  0
    3.4305    1.9829    0.0000 C   0  0  0  0  0  0  0  0  0  0  0  0
  2 10  2  0
  3 17  1  0
  4  5  1  0
  4  6  1  0
  4  7  1  0
  4  8  1  0
  5  6  1  0
  7  1  1  0
  7 10  1  0
  7 11  1  1
  8  9  2  0
  8 13  1  0
  9 12  1  0
  9 14  1  0
 10 12  1  0
 12 15  2  0
 14 16  2  0
 14 17  1  0
 15 16  1  0
 16 18  1  0
M  END
>  <DRUGBANK_ID>  (1) 
DB05786

>  <SECONDARY_ACCESSION_NUMBERS>  (1) 
DB11733

>  <COMMON_NAME>  (1) 
Irofulven

>  <CAS_NUMBER>  (1) 
158440-71-2

>  <UNII>  (1) 
6B799IH05A

>  <SYNONYMS>  (1) 
6-hydroxymethylacylfulvene; HMAF; Irofulven

$$$$
