
     RDKit          2D

 13 12  0  0  1  0  0  0  0  0999 V2000
    2.2836    2.3973    0.0000 C   0  0  0  0  0  0  0  0  0  0  0  0
    2.9980    1.9848    0.0000 N   0  0  0  0  0  0  0  0  0  0  0  0
    3.7125    2.3973    0.0000 C   0  0  0  0  0  0  0  0  0  0  0  0
    3.7125    3.2223    0.0000 N   0  0  0  0  0  0  0  0  0  0  0  0
    4.4270    1.9848    0.0000 N   0  0  0  0  0  0  0  0  0  0  0  0
    5.1414    2.3973    0.0000 C   0  0  0  0  0  0  0  0  0  0  0  0
    5.8559    1.9848    0.0000 C   0  0  0  0  0  0  0  0  0  0  0  0
    6.5704    2.3973    0.0000 C   0  0  0  0  0  0  0  0  0  0  0  0
    7.2849    1.9848    0.0000 C   0  0  0  0  0  0  0  0  0  0  0  0
    7.2849    1.1598    0.0000 N   0  0  0  0  0  0  0  0  0  0  0  0
    7.9993    2.3973    0.0000 C   0  0  0  0  0  0  0  0  0  0  0  0
    8.7138    1.9848    0.0000 O   0  0  0  0  0  0  0  0  0  0  0  0
    7.9993    3.2223    0.0000 O   0  0  0  0  0  0  0  0  0  0  0  0
  1  2  1  0
  2  3  1  0
  3  4  2  0
  3  5  1  0
  5  6  1  0
  6  7  1  0
  7  8  1  0
  8  9  1  0
  9 10  1  1
  9 11  1  0
 11 12  1  0
 11 13  2  0
M  END
>  <DRUGBANK_ID>  (1) 
DB11815

>  <COMMON_NAME>  (1) 
Tilarginine

>  <CAS_NUMBER>  (1) 
17035-90-4

>  <UNII>  (1) 
27JT06E6GR

>  <SYNONYMS>  (1) 
L-Monomethylarginine; L-Ng-monomethyl Arginine; L-NMMA; N-Methylarginine; N-Monomethyl-L-arginine; N(G)-Methylarginine; N(G)-Monomethyl-L-arginine; N5-(Methylamidino)-L-ornithine; NG-Monomethyl-L-arginine; omega-N-Methylarginine; omega-N-Monomethylarginine; Targinine; Tilarginine

$$$$
