
     RDKit          2D

 39 44  0  0  1  0  0  0  0  0999 V2000
    6.7602    3.5162    0.0000 C   0  0  0  0  0  0  0  0  0  0  0  0
    7.2920    2.8855    0.0000 C   0  0  0  0  0  0  0  0  0  0  0  0
    8.1041    3.0307    0.0000 C   0  0  0  0  0  0  0  0  0  0  0  0
    8.6360    2.4000    0.0000 C   0  0  0  0  0  0  0  0  0  0  0  0
    8.3557    1.6241    0.0000 C   0  0  0  0  0  0  0  0  0  0  0  0
    7.5435    1.4789    0.0000 C   0  0  0  0  0  0  0  0  0  0  0  0
    7.0117    2.1096    0.0000 O   0  0  0  0  0  0  0  0  0  0  0  0
    7.2632    0.7029    0.0000 O   0  0  0  0  0  0  0  0  0  0  0  0
    6.4511    0.5577    0.0000 C   0  0  0  0  0  0  0  0  0  0  0  0
    6.1708   -0.2182    0.0000 C   0  0  0  0  0  0  0  0  0  0  0  0
    5.3587   -0.3634    0.0000 C   0  0  0  0  0  0  0  0  0  0  0  0
    4.8269    0.2673    0.0000 C   0  0  0  0  0  0  0  0  0  0  0  0
    5.1072    1.0432    0.0000 C   0  0  0  0  0  0  0  0  0  0  0  0
    5.9193    1.1884    0.0000 C   0  0  0  0  0  0  0  0  0  0  0  0
    4.5754    1.6739    0.0000 C   0  0  0  0  0  0  0  0  0  0  0  0
    3.7633    1.5287    0.0000 C   0  0  0  0  0  0  0  0  0  0  0  0
    3.4830    0.7528    0.0000 C   0  0  0  0  0  0  0  0  0  0  0  0
    4.0148    0.1221    0.0000 C   0  0  0  0  0  0  0  0  0  0  0  0
    3.7345   -0.6539    0.0000 C   0  0  0  0  0  0  0  0  0  0  0  0
    2.9224   -0.7991    0.0000 C   0  0  0  0  0  0  0  0  0  0  0  0
    2.3905   -0.1684    0.0000 C   0  0  0  0  0  0  0  0  0  0  0  0
    2.6708    0.6076    0.0000 C   0  0  0  0  0  0  0  0  0  0  0  0
    2.0195    1.1139    0.0000 C   0  0  0  0  0  0  0  0  0  0  0  0
    1.3367    0.6509    0.0000 C   0  0  0  0  0  0  0  0  0  0  0  0
    1.5660   -0.1416    0.0000 C   0  0  0  0  0  0  0  0  0  0  0  0
    1.0596   -0.7929    0.0000 C   0  0  0  0  0  0  0  0  0  0  0  0
    1.2889   -1.5854    0.0000 C   0  0  0  0  0  0  0  0  0  0  0  0
    0.6061   -2.0484    0.0000 C   0  0  0  0  0  0  0  0  0  0  0  0
    0.5793   -2.8729    0.0000 O   0  0  0  0  0  0  0  0  0  0  0  0
   -0.0452   -1.5420    0.0000 O   0  0  0  0  0  0  0  0  0  0  0  0
    0.2351   -0.7661    0.0000 C   0  0  0  0  0  0  0  0  0  0  0  0
    2.8685    1.4085    0.0000 O   0  0  0  0  0  0  0  0  0  0  0  0
    2.0307   -0.9107    0.0000 C   0  0  0  0  0  0  0  0  0  0  0  0
    4.5466   -0.5086    0.0000 C   0  0  0  0  0  0  0  0  0  0  0  0
    5.0784   -1.1393    0.0000 O   0  0  0  0  0  0  0  0  0  0  0  0
    8.8875    0.9934    0.0000 O   0  0  0  0  0  0  0  0  0  0  0  0
    9.4481    2.5452    0.0000 O   0  0  0  0  0  0  0  0  0  0  0  0
    9.7284    3.3211    0.0000 C   0  0  0  0  0  0  0  0  0  0  0  0
    8.3844    3.8066    0.0000 O   0  0  0  0  0  0  0  0  0  0  0  0
  2  1  1  1
  2  3  1  0
  2  7  1  0
  3  4  1  0
  3 39  1  6
  4  5  1  0
  4 37  1  1
  5  6  1  0
  5 36  1  6
  6  7  1  0
  6  8  1  6
  9  8  1  1
  9 10  1  0
  9 14  1  0
 10 11  1  0
 11 12  1  0
 12 13  1  0
 12 18  1  0
 12 34  1  1
 13 14  1  6
 13 15  1  0
 15 16  1  0
 17 16  1  6
 17 18  1  0
 17 22  1  0
 18 19  1  1
 19 20  1  0
 20 21  1  0
 21 22  1  0
 21 25  1  0
 21 33  1  1
 22 23  1  0
 22 32  1  1
 23 24  1  0
 24 25  1  0
 25 26  1  1
 26 27  2  0
 26 31  1  0
 27 28  1  0
 28 29  2  0
 28 30  1  0
 30 31  1  0
 34 35  2  0
 37 38  1  0
M  END
>  <DRUGBANK_ID>  (1) 
DB13756

>  <COMMON_NAME>  (1) 
Peruvoside

>  <CAS_NUMBER>  (1) 
1182-87-2

>  <UNII>  (1) 
CT36KGC6A6

$$$$
