7MR
     RDKit          2D

 27 28  0  0  0  0  0  0  0  0999 V2000
   -0.9017    1.6702    0.0000 C   0  0  0  0  0  0  0  0  0  0  0  0
   -0.9017    2.4952    0.0000 C   0  0  0  0  0  0  0  0  0  0  0  0
   -1.6161    2.9077    0.0000 C   0  0  0  0  0  0  0  0  0  0  0  0
   -2.3306    2.4952    0.0000 C   0  0  0  0  0  0  0  0  0  0  0  0
   -2.3306    1.6702    0.0000 C   0  0  0  0  0  0  0  0  0  0  0  0
   -1.6161    1.2577    0.0000 C   0  0  0  0  0  0  0  0  0  0  0  0
   -1.6161    0.4327    0.0000 O   0  0  0  0  0  0  0  0  0  0  0  0
   -0.9017    0.0202    0.0000 C   0  0  0  0  0  0  0  0  0  0  0  0
   -0.9017   -0.8048    0.0000 C   0  0  0  0  0  0  0  0  0  0  0  0
   -0.1872   -1.2173    0.0000 C   0  0  0  0  0  0  0  0  0  0  0  0
   -0.1872    0.4327    0.0000 C   0  0  0  0  0  0  0  0  0  0  0  0
    0.5273    0.0202    0.0000 C   0  0  0  0  0  0  0  0  0  0  0  0
    0.5273   -0.8048    0.0000 C   0  0  0  0  0  0  0  0  0  0  0  0
    1.2417   -1.2173    0.0000 S   0  0  0  0  0  0  0  0  0  0  0  0
    1.6542   -0.5028    0.0000 O   0  0  0  0  0  0  0  0  0  0  0  0
    0.8292   -1.9318    0.0000 O   0  0  0  0  0  0  0  0  0  0  0  0
    1.9562   -1.6298    0.0000 C   0  0  0  0  0  0  0  0  0  0  0  0
    2.6707   -1.2173    0.0000 C   0  0  0  0  0  0  0  0  0  0  0  0
    3.0832   -1.9318    0.0000 C   0  0  0  0  0  0  0  0  0  0  0  0
    3.4957   -2.6462    0.0000 F   0  0  0  0  0  0  0  0  0  0  0  0
    3.7976   -1.5193    0.0000 F   0  0  0  0  0  0  0  0  0  0  0  0
    2.3687   -2.3443    0.0000 F   0  0  0  0  0  0  0  0  0  0  0  0
    2.2582   -0.5028    0.0000 N   0  0  0  0  0  0  0  0  0  0  0  0
    3.3851   -0.8048    0.0000 C   0  0  0  0  0  0  0  0  0  0  0  0
    3.3851    0.0202    0.0000 O   0  0  0  0  0  0  0  0  0  0  0  0
    4.0996   -1.2173    0.0000 N   0  0  0  0  0  0  0  0  0  0  0  0
    4.8141   -0.8048    0.0000 O   0  0  0  0  0  0  0  0  0  0  0  0
  1  6  2  0
  1  2  1  0
  2  3  2  0
  3  4  1  0
  4  5  2  0
  5  6  1  0
  6  7  1  0
  7  8  1  0
  8 11  1  0
  8  9  2  0
  9 10  1  0
 10 13  2  0
 11 12  2  0
 12 13  1  0
 13 14  1  0
 14 17  1  0
 14 16  2  0
 14 15  2  0
 17 18  1  0
 18 19  1  0
 18 24  1  0
 18 23  1  6
 19 20  1  0
 19 21  1  0
 19 22  1  0
 24 26  1  0
 24 25  2  0
 26 27  1  0
M  END
>  <DRUGBANK_ID>  (1) 
DB07246

>  <COMMON_NAME>  (1) 
(2R)-2-AMINO-3,3,3-TRIFLUORO-N-HYDROXY-2-{[(4-PHENOXYPHENYL)SULFONYL]METHYL}PROPANAMIDE

$$$$
