
     RDKit          2D

 32 34  0  0  1  0  0  0  0  0999 V2000
    2.7991   -5.4659    0.0000 C   0  0  0  0  0  0  0  0  0  0  0  0
    0.6557   -6.7034    0.0000 C   0  0  0  0  0  0  0  0  0  0  0  0
   -0.0588   -5.4659    0.0000 C   0  0  0  0  0  0  0  0  0  0  0  0
    1.3702   -6.2909    0.0000 C   0  0  0  0  0  0  0  0  0  0  0  0
    0.6557   -5.0534    0.0000 C   0  0  0  0  0  0  0  0  0  0  0  0
   -2.9166   -6.2909    0.0000 C   0  0  0  0  0  0  0  0  0  0  0  0
   -3.6311   -6.7034    0.0000 C   0  0  0  0  0  0  0  0  0  0  0  0
    2.0847   -4.2284    0.0000 C   0  0  0  0  0  0  0  0  0  0  0  0
    2.8854   -2.9955    0.0000 C   0  0  0  0  0  0  0  0  0  0  0  0
   -0.0588   -6.2909    0.0000 C   0  0  0  0  0  0  0  0  0  0  0  0
    2.7991   -3.8159    0.0000 C   0  0  0  0  0  0  0  0  0  0  0  0
    1.3702   -5.4659    0.0000 C   0  0  0  0  0  0  0  0  0  0  0  0
   -2.2022   -6.7034    0.0000 C   0  0  0  0  0  0  0  0  0  0  0  0
   -4.3456   -6.2909    0.0000 C   0  0  0  0  0  0  0  0  0  0  0  0
    3.5528   -4.1515    0.0000 C   0  0  0  0  0  0  0  0  0  0  0  0
    3.8077   -4.9361    0.0000 C   0  0  0  0  0  0  0  0  0  0  0  0
   -0.7732   -6.7034    0.0000 C   0  0  0  0  0  0  0  0  0  0  0  0
    4.1048   -3.5384    0.0000 C   0  0  0  0  0  0  0  0  0  0  0  0
   -2.2022   -7.5284    0.0000 C   0  0  0  0  0  0  0  0  0  0  0  0
    5.1668   -4.4946    0.0000 C   0  0  0  0  0  0  0  0  0  0  0  0
    3.2557   -5.5492    0.0000 N   0  0  0  0  0  0  0  0  0  0  0  0
    5.9737   -4.6661    0.0000 N   0  0  0  0  0  0  0  0  0  0  0  0
   -1.4877   -6.2909    0.0000 N   0  0  0  0  0  0  0  0  0  0  0  0
    4.6147   -5.1076    0.0000 N   0  0  0  0  0  0  0  0  0  0  0  0
    4.9118   -3.7099    0.0000 N   0  0  0  0  0  0  0  0  0  0  0  0
    2.0847   -5.0534    0.0000 N   0  0  0  0  0  0  0  0  0  0  0  0
   -5.0600   -6.7034    0.0000 O   0  0  0  0  0  0  0  0  0  0  0  0
   -4.3456   -5.4659    0.0000 O   0  0  0  0  0  0  0  0  0  0  0  0
   -0.7732   -7.5284    0.0000 O   0  0  0  0  0  0  0  0  0  0  0  0
   -1.4877   -7.9409    0.0000 O   0  0  0  0  0  0  0  0  0  0  0  0
   -2.9166   -7.9409    0.0000 O   0  0  0  0  0  0  0  0  0  0  0  0
    3.6923   -2.8239    0.0000 O   0  0  0  0  0  0  0  0  0  0  0  0
  4  2  2  0
  5  3  1  0
  7  6  1  0
 10  2  1  0
 10  3  2  0
 11  8  1  0
 11  9  2  0
 12  4  1  0
 12  5  2  0
 13  6  1  6
 13 23  1  0
 14  7  1  0
 15 11  1  0
 16 15  2  0
 17 10  1  0
 18 15  1  0
 19 13  1  0
 21 16  1  0
 22 20  1  0
 23 17  1  0
 24 16  1  0
 24 20  2  0
 25 18  2  0
 25 20  1  0
 26  1  1  0
 26  8  1  0
 26 12  1  0
 27 14  1  0
 28 14  2  0
 29 17  2  0
 30 19  1  0
 31 19  2  0
 32  9  1  0
 32 18  1  0
M  END
>  <DRUGBANK_ID>  (1) 
DB02026

>  <SECONDARY_ACCESSION_NUMBERS>  (1) 
EXPT00981

>  <COMMON_NAME>  (1) 
Furo[2,3d]Pyrimidine Antifolate

>  <UNII>  (1) 
VBP3BN3U2V

$$$$
