
     RDKit          2D

 40 44  0  0  0  0  0  0  0  0999 V2000
    0.5757    1.2039    0.0000 P   0  0  0  0  0  0  0  0  0  0  0  0
    0.0436   -1.6451    0.0000 O   0  0  0  0  0  0  0  0  0  0  0  0
    1.4203    3.8197    0.0000 O   0  0  0  0  0  0  0  0  0  0  0  0
    0.3221    1.9889    0.0000 O   0  0  0  0  0  0  0  0  0  0  0  0
    0.8292    0.4188    0.0000 O   0  0  0  0  0  0  0  0  0  0  0  0
    1.9822   -0.7510    0.0000 O   0  0  0  0  0  0  0  0  0  0  0  0
    2.1069    1.7983    0.0000 O   0  0  0  0  0  0  0  0  0  0  0  0
    1.9792   -2.5460    0.0000 O   0  0  0  0  0  0  0  0  0  0  0  0
    3.0961    4.2211    0.0000 O   0  0  0  0  0  0  0  0  0  0  0  0
    1.3608    1.4574    0.0000 O   0  0  0  0  0  0  0  0  0  0  0  0
   -0.2094    0.9503    0.0000 O   0  0  0  0  0  0  0  0  0  0  0  0
    0.5354    5.0498    0.0000 O   0  0  0  0  0  0  0  0  0  0  0  0
   -1.2240   -5.4118    0.0000 O   0  0  0  0  0  0  0  0  0  0  0  0
   -2.3075    4.7560    0.0000 O   0  0  0  0  0  0  0  0  0  0  0  0
    0.2711   -3.0977    0.0000 N   0  0  0  0  0  0  0  0  0  0  0  0
   -0.0480    3.7454    0.0000 N   0  0  0  0  0  0  0  0  0  0  0  0
   -1.2240   -2.9366    0.0000 N   0  0  0  0  0  0  0  0  0  0  0  0
    0.2711   -4.4256    0.0000 N   0  0  0  0  0  0  0  0  0  0  0  0
   -0.8860    4.9030    0.0000 N   0  0  0  0  0  0  0  0  0  0  0  0
   -1.9385   -4.1742    0.0000 N   0  0  0  0  0  0  0  0  0  0  0  0
   -2.6531   -2.9366    0.0000 N   0  0  0  0  0  0  0  0  0  0  0  0
    0.8752    2.6011    0.0000 C   0  0  0  0  0  0  0  0  0  0  0  0
    0.5297   -0.9785    0.0000 C   0  0  0  0  0  0  0  0  0  0  0  0
    1.3139   -1.2348    0.0000 C   0  0  0  0  0  0  0  0  0  0  0  0
    1.6956    2.5135    0.0000 C   0  0  0  0  0  0  0  0  0  0  0  0
    1.3125   -2.0599    0.0000 C   0  0  0  0  0  0  0  0  0  0  0  0
    0.5274   -2.3134    0.0000 C   0  0  0  0  0  0  0  0  0  0  0  0
    0.7050    3.4085    0.0000 C   0  0  0  0  0  0  0  0  0  0  0  0
    2.0325    3.2666    0.0000 C   0  0  0  0  0  0  0  0  0  0  0  0
    0.2761   -0.1933    0.0000 C   0  0  0  0  0  0  0  0  0  0  0  0
    2.8398    3.4368    0.0000 C   0  0  0  0  0  0  0  0  0  0  0  0
   -0.5095   -3.3491    0.0000 C   0  0  0  0  0  0  0  0  0  0  0  0
    0.7526   -3.7617    0.0000 C   0  0  0  0  0  0  0  0  0  0  0  0
   -0.1329    4.5661    0.0000 C   0  0  0  0  0  0  0  0  0  0  0  0
   -0.7164    3.2616    0.0000 C   0  0  0  0  0  0  0  0  0  0  0  0
   -0.5095   -4.1742    0.0000 C   0  0  0  0  0  0  0  0  0  0  0  0
   -1.4695    3.5985    0.0000 C   0  0  0  0  0  0  0  0  0  0  0  0
   -1.2240   -4.5867    0.0000 C   0  0  0  0  0  0  0  0  0  0  0  0
   -1.5543    4.4192    0.0000 C   0  0  0  0  0  0  0  0  0  0  0  0
   -1.9385   -3.3491    0.0000 C   0  0  0  0  0  0  0  0  0  0  0  0
  1  4  1  0
  1  5  1  0
  1 10  1  0
  1 11  2  0
  2 23  1  0
  2 27  1  0
  3 28  1  0
  3 29  1  0
  5 30  1  0
  9 31  1  0
 12 34  2  0
 13 38  2  0
 14 39  2  0
 15 32  1  0
 15 33  1  0
 16 34  1  0
 16 35  1  0
 17 32  1  0
 17 40  1  0
 18 33  2  0
 18 36  1  0
 19 34  1  0
 19 39  1  0
 20 38  1  0
 20 40  2  0
 21 40  1  0
 22  4  1  1
 22 25  1  0
 22 28  1  0
 23 24  1  0
 23 30  1  6
 24  6  1  1
 24 26  1  0
 25  7  1  1
 25 29  1  0
 26  8  1  1
 26 27  1  0
 27 15  1  6
 28 16  1  6
 29 31  1  6
 32 36  2  0
 35 37  2  0
 36 38  1  0
 37 39  1  0
M  END
>  <DRUGBANK_ID>  (1) 
DB04514

>  <SECONDARY_ACCESSION_NUMBERS>  (1) 
EXPT03158

>  <COMMON_NAME>  (1) 
Uridylyl-2'-5'-phospho-guanosine

>  <UNII>  (1) 
HEM972VB27

$$$$
