
     RDKit          2D

 27 30  0  0  0  0  0  0  0  0999 V2000
   -0.8046   -0.2255    0.0000 O   0  0  0  0  0  0  0  0  0  0  0  0
   -0.0356    2.1270    0.0000 O   0  0  0  0  0  0  0  0  0  0  0  0
    1.0217   -3.7358    0.0000 O   0  0  0  0  0  0  0  0  0  0  0  0
   -1.1376    3.3552    0.0000 O   0  0  0  0  0  0  0  0  0  0  0  0
   -0.5099   -2.9516    0.0000 N   0  0  0  0  0  0  0  0  0  0  0  0
   -0.2536   -0.8396    0.0000 N   0  0  0  0  0  0  0  0  0  0  0  0
    2.0587   -2.7003    0.0000 N   0  0  0  0  0  0  0  0  0  0  0  0
   -0.0284   -2.2877    0.0000 C   0  0  0  0  0  0  0  0  0  0  0  0
   -0.5099   -1.6238    0.0000 C   0  0  0  0  0  0  0  0  0  0  0  0
   -1.2906   -1.8752    0.0000 C   0  0  0  0  0  0  0  0  0  0  0  0
   -1.2906   -2.7003    0.0000 C   0  0  0  0  0  0  0  0  0  0  0  0
    0.7966   -2.2877    0.0000 C   0  0  0  0  0  0  0  0  0  0  0  0
    1.2780   -1.6238    0.0000 C   0  0  0  0  0  0  0  0  0  0  0  0
   -2.0050   -1.4627    0.0000 C   0  0  0  0  0  0  0  0  0  0  0  0
   -1.0993    1.1726    0.0000 C   0  0  0  0  0  0  0  0  0  0  0  0
    2.0622   -1.8801    0.0000 C   0  0  0  0  0  0  0  0  0  0  0  0
   -2.0050   -3.1128    0.0000 C   0  0  0  0  0  0  0  0  0  0  0  0
    1.2780   -2.9516    0.0000 C   0  0  0  0  0  0  0  0  0  0  0  0
   -0.5482    0.5586    0.0000 C   0  0  0  0  0  0  0  0  0  0  0  0
   -0.8429    1.9568    0.0000 C   0  0  0  0  0  0  0  0  0  0  0  0
    1.1079   -0.8165    0.0000 C   0  0  0  0  0  0  0  0  0  0  0  0
   -2.7195   -1.8752    0.0000 C   0  0  0  0  0  0  0  0  0  0  0  0
   -2.7195   -2.7003    0.0000 C   0  0  0  0  0  0  0  0  0  0  0  0
    2.6763   -1.3291    0.0000 C   0  0  0  0  0  0  0  0  0  0  0  0
   -1.3940    2.5709    0.0000 C   0  0  0  0  0  0  0  0  0  0  0  0
    1.7220   -0.2655    0.0000 C   0  0  0  0  0  0  0  0  0  0  0  0
    2.5062   -0.5218    0.0000 C   0  0  0  0  0  0  0  0  0  0  0  0
  1  6  1  0
  1 19  1  0
  3 18  2  0
  4 25  1  0
  5  8  1  0
  5 11  1  0
  6  9  1  0
  7 16  2  0
  7 18  1  0
  8  9  2  0
  8 12  1  0
  9 10  1  0
 10 11  2  0
 10 14  1  0
 11 17  1  0
 12 13  2  0
 12 18  1  0
 13 16  1  0
 13 21  1  0
 14 22  2  0
 15 19  1  0
 15 20  1  0
 16 24  1  0
 17 23  2  0
 20  2  1  1
 20 25  1  0
 21 26  2  0
 22 23  1  0
 24 27  2  0
 26 27  1  0
M  END
>  <DRUGBANK_ID>  (1) 
DB07676

>  <COMMON_NAME>  (1) 
3-({[(3S)-3,4-dihydroxybutyl]oxy}amino)-1H,2'H-2,3'-biindol-2'-one

$$$$
