
     RDKit          2D

 17 17  0  0  0  0  0  0  0  0999 V2000
   -1.0724   -0.2556    0.0000 C   0  0  0  0  0  0  0  0  0  0  0  0
   -0.3585   -0.6690    0.0000 C   0  0  0  0  0  0  0  0  0  0  0  0
   -0.3595   -1.4940    0.0000 C   0  0  0  0  0  0  0  0  0  0  0  0
   -1.0745   -1.9055    0.0000 C   0  0  0  0  0  0  0  0  0  0  0  0
   -1.7884   -1.4922    0.0000 C   0  0  0  0  0  0  0  0  0  0  0  0
   -1.7874   -0.6672    0.0000 C   0  0  0  0  0  0  0  0  0  0  0  0
   -1.0714    0.5697    0.0000 C   0  0  0  0  0  0  0  0  0  0  0  0
   -0.3563    0.9820    0.0000 C   0  0  0  0  0  0  0  0  0  0  0  0
    1.7884    0.5689    0.0000 C   0  0  0  0  0  0  0  0  0  0  0  0
    1.0736    0.9816    0.0000 C   0  0  0  0  0  0  0  0  0  0  0  0
    0.3585    0.5693    0.0000 N   0  0  0  0  0  0  0  0  0  0  0  0
    1.0738    1.6415    0.0000 O   0  0  0  0  0  0  0  0  0  0  0  0
   -1.2066    1.8510    0.0000 O   0  0  0  0  0  0  0  0  0  0  0  0
    0.0320    2.5655    0.0000 O   0  0  0  0  0  0  0  0  0  0  0  0
    0.3591    2.2199    0.0000 O   0  0  0  0  0  0  0  0  0  0  0  0
   -0.3560    1.8074    0.0000 B   0  0  0  0  0  0  0  0  0  0  0  0
   -1.0753   -2.5655    0.0000 Cl  0  0  0  0  0  0  0  0  0  0  0  0
  1  2  2  0
  1  6  1  0
  1  7  1  0
  2  3  1  0
  3  4  2  0
  4  5  1  0
  4 17  1  0
  5  6  2  0
  8  7  1  6
  8 11  1  0
 10  9  1  0
 10 11  1  0
 10 12  2  0
 16  8  1  0
 16 13  1  0
 16 14  1  0
 16 15  1  0
M  CHG  1  16  -1
M  END
>  <DRUGBANK_ID>  (1) 
DB08692

>  <COMMON_NAME>  (1) 
D-1-(4-chlorophenyl)-2-(acetamido)ethane boronic acid

$$$$
