
     RDKit          2D

  3  1  0  0  0  0  0  0  0  0999 V2000
    1.6500   -0.0000    0.0000 Mg  0  0  0  0  0 15  0  0  0  0  0  0
    2.4750   -0.0000    0.0000 O   0  0  0  0  0  0  0  0  0  0  0  0
    3.3000    0.0000    0.0000 O   0  0  0  0  0  0  0  0  0  0  0  0
  3  2  1  0
M  CHG  3   1   2   2  -1   3  -1
M  END
>  <DRUGBANK_ID>  (1) 
DB13486

>  <COMMON_NAME>  (1) 
Magnesium peroxide

>  <CAS_NUMBER>  (1) 
14452-57-4

>  <UNII>  (1) 
X8YVJ0TN96

$$$$
