
     RDKit          2D

 33 36  0  0  0  0  0  0  0  0999 V2000
    1.1091   -0.5333    0.0000 C   0  0  0  0  0  0  0  0  0  0  0  0
    1.9341   -0.5333    0.0000 C   0  0  0  0  0  0  0  0  0  0  0  0
    2.7591   -0.5333    0.0000 C   0  0  0  0  0  0  0  0  0  0  0  0
    1.9341    0.2917    0.0000 C   0  0  0  0  0  0  0  0  0  0  0  0
    1.2197    0.7042    0.0000 C   0  0  0  0  0  0  0  0  0  0  0  0
    1.2197    1.5292    0.0000 C   0  0  0  0  0  0  0  0  0  0  0  0
    1.2197    2.3542    0.0000 C   0  0  0  0  0  0  0  0  0  0  0  0
    0.5052    2.7667    0.0000 C   0  0  0  0  0  0  0  0  0  0  0  0
    0.5052    3.5917    0.0000 C   0  0  0  0  0  0  0  0  0  0  0  0
    1.2197    4.0042    0.0000 C   0  0  0  0  0  0  0  0  0  0  0  0
    1.9341    3.5917    0.0000 C   0  0  0  0  0  0  0  0  0  0  0  0
    1.9341    2.7667    0.0000 C   0  0  0  0  0  0  0  0  0  0  0  0
    0.3947    1.5292    0.0000 C   0  0  0  0  0  0  0  0  0  0  0  0
   -0.0178    0.8147    0.0000 C   0  0  0  0  0  0  0  0  0  0  0  0
   -0.8428    0.8147    0.0000 C   0  0  0  0  0  0  0  0  0  0  0  0
   -1.2553    1.5292    0.0000 C   0  0  0  0  0  0  0  0  0  0  0  0
   -0.8428    2.2437    0.0000 C   0  0  0  0  0  0  0  0  0  0  0  0
   -0.0178    2.2437    0.0000 C   0  0  0  0  0  0  0  0  0  0  0  0
    2.0447    1.5292    0.0000 C   0  0  0  0  0  0  0  0  0  0  0  0
    2.4572    2.2437    0.0000 O   0  0  0  0  0  0  0  0  0  0  0  0
    2.4572    0.8147    0.0000 N   0  0  0  0  0  0  0  0  0  0  0  0
    1.9341   -1.3583    0.0000 N   0  0  0  0  0  0  0  0  0  0  0  0
    2.5175   -1.9417    0.0000 C   0  0  0  0  0  0  0  0  0  0  0  0
    1.9341   -2.5250    0.0000 C   0  0  0  0  0  0  0  0  0  0  0  0
    1.3508   -1.9417    0.0000 C   0  0  0  0  0  0  0  0  0  0  0  0
    1.9341   -3.3500    0.0000 O   0  0  0  0  0  0  0  0  0  0  0  0
    1.2197   -3.7625    0.0000 C   0  0  0  0  0  0  0  0  0  0  0  0
    1.2197   -4.5875    0.0000 C   0  0  0  0  0  0  0  0  0  0  0  0
    0.5052   -5.0000    0.0000 C   0  0  0  0  0  0  0  0  0  0  0  0
   -0.2093   -4.5875    0.0000 C   0  0  0  0  0  0  0  0  0  0  0  0
   -0.2093   -3.7625    0.0000 C   0  0  0  0  0  0  0  0  0  0  0  0
    0.5052   -3.3500    0.0000 C   0  0  0  0  0  0  0  0  0  0  0  0
   -0.9237   -3.3500    0.0000 O   0  0  0  0  0  0  0  0  0  0  0  0
  1  2  1  0
  2  3  1  0
  2  4  1  0
  2 22  1  0
  4  5  1  0
  5  6  1  0
  6  7  1  0
  6 13  1  0
  6 19  1  0
  7  8  2  0
  7 12  1  0
  8  9  1  0
  9 10  2  0
 10 11  1  0
 11 12  2  0
 13 14  2  0
 13 18  1  0
 14 15  1  0
 15 16  2  0
 16 17  1  0
 17 18  2  0
 19 20  2  0
 19 21  1  0
 22 23  1  0
 22 25  1  0
 23 24  1  0
 24 25  1  0
 24 26  1  0
 26 27  1  0
 27 28  2  0
 27 32  1  0
 28 29  1  0
 29 30  2  0
 30 31  1  0
 31 32  2  0
 31 33  1  0
M  END
>  <DRUGBANK_ID>  (1) 
DB12408

>  <COMMON_NAME>  (1) 
PF-03635659

>  <CAS_NUMBER>  (1) 
931409-24-4

>  <UNII>  (1) 
O0RG3QM34H

$$$$
