KTP
     RDKit          2D

 27 30  0  0  0  0  0  0  0  0999 V2000
   -1.1896   -0.1475    0.0000 P   0  0  0  0  0  0  0  0  0  0  0  0
   -1.6021   -0.8620    0.0000 O   0  0  0  0  0  0  0  0  0  0  0  0
    0.9538   -0.5600    0.0000 O   0  0  0  0  0  0  0  0  0  0  0  0
   -0.4751   -0.5600    0.0000 C   0  0  0  0  0  0  0  0  0  0  0  0
    0.2393   -0.1475    0.0000 C   0  0  0  0  0  0  0  0  0  0  0  0
   -0.7771    0.5670    0.0000 O   0  0  0  0  0  0  0  0  0  0  0  0
   -1.9041    0.2650    0.0000 O   0  0  0  0  0  0  0  0  0  0  0  0
    0.2393    0.6775    0.0000 C   0  0  0  0  0  0  0  0  0  0  0  0
    0.9538    1.0900    0.0000 C   0  0  0  0  0  0  0  0  0  0  0  0
    0.9538    1.9150    0.0000 C   0  0  0  0  0  0  0  0  0  0  0  0
    1.6683    2.3275    0.0000 C   0  0  0  0  0  0  0  0  0  0  0  0
    1.6683    3.1525    0.0000 C   0  0  0  0  0  0  0  0  0  0  0  0
    0.9538    3.5650    0.0000 C   0  0  0  0  0  0  0  0  0  0  0  0
    0.2393    3.1525    0.0000 C   0  0  0  0  0  0  0  0  0  0  0  0
    0.2393    2.3275    0.0000 C   0  0  0  0  0  0  0  0  0  0  0  0
   -0.4751    1.9150    0.0000 C   0  0  0  0  0  0  0  0  0  0  0  0
   -0.4751    1.0900    0.0000 C   0  0  0  0  0  0  0  0  0  0  0  0
   -1.1896   -1.7975    0.0000 C   0  0  0  0  0  0  0  0  0  0  0  0
   -0.4751   -1.3850    0.0000 C   0  0  0  0  0  0  0  0  0  0  0  0
    0.2393   -1.7975    0.0000 C   0  0  0  0  0  0  0  0  0  0  0  0
    0.9538   -1.3850    0.0000 C   0  0  0  0  0  0  0  0  0  0  0  0
    1.6683   -1.7975    0.0000 C   0  0  0  0  0  0  0  0  0  0  0  0
    1.6683   -2.6225    0.0000 C   0  0  0  0  0  0  0  0  0  0  0  0
    0.9538   -3.0350    0.0000 C   0  0  0  0  0  0  0  0  0  0  0  0
    0.2393   -2.6225    0.0000 C   0  0  0  0  0  0  0  0  0  0  0  0
   -0.4751   -3.0350    0.0000 C   0  0  0  0  0  0  0  0  0  0  0  0
   -1.1896   -2.6225    0.0000 C   0  0  0  0  0  0  0  0  0  0  0  0
  1  2  2  0
  1  6  1  0
  1  7  1  0
  3  5  2  0
  4  1  1  0
  4  5  1  1
  4 19  1  0
  5  8  1  0
  8  9  2  0
  8 17  1  0
  9 10  1  0
 10 11  2  0
 10 15  1  0
 11 12  1  0
 12 13  2  0
 13 14  1  0
 14 15  2  0
 15 16  1  0
 16 17  2  0
 18 19  2  0
 18 27  1  0
 19 20  1  0
 20 21  2  0
 20 25  1  0
 21 22  1  0
 22 23  2  0
 23 24  1  0
 24 25  2  0
 25 26  1  0
 26 27  2  0
M  END
>  <DRUGBANK_ID>  (1) 
DB02360

>  <SECONDARY_ACCESSION_NUMBERS>  (1) 
EXPT01984

>  <COMMON_NAME>  (1) 
Bis-Napthyl Beta-Ketophosphonic Acid

$$$$
