BRS
     RDKit          2D

 22 23  0  0  0  0  0  0  0  0999 V2000
   -0.8753    1.9460    0.0000 N   0  0  0  0  0  0  0  0  0  0  0  0
   -0.8753    2.7710    0.0000 O   0  0  0  0  0  0  0  0  0  0  0  0
   -1.5898    1.5335    0.0000 O   0  0  0  0  0  0  0  0  0  0  0  0
    1.9826    1.9460    0.0000 N   0  0  0  0  0  0  0  0  0  0  0  0
    2.6971    1.5335    0.0000 O   0  0  0  0  0  0  0  0  0  0  0  0
    1.9826    2.7710    0.0000 O   0  0  0  0  0  0  0  0  0  0  0  0
    0.5536    1.9460    0.0000 C   0  0  0  0  0  0  0  0  0  0  0  0
    1.2681    1.5335    0.0000 C   0  0  0  0  0  0  0  0  0  0  0  0
    1.2681    0.7085    0.0000 C   0  0  0  0  0  0  0  0  0  0  0  0
    0.5536    0.2960    0.0000 C   0  0  0  0  0  0  0  0  0  0  0  0
   -0.1608    0.7085    0.0000 C   0  0  0  0  0  0  0  0  0  0  0  0
   -0.1608    1.5335    0.0000 C   0  0  0  0  0  0  0  0  0  0  0  0
   -0.8753    0.2960    0.0000 O   0  0  0  0  0  0  0  0  0  0  0  0
   -0.8753   -0.5290    0.0000 C   0  0  0  0  0  0  0  0  0  0  0  0
   -0.1608   -0.9415    0.0000 C   0  0  0  0  0  0  0  0  0  0  0  0
   -0.1608   -1.7665    0.0000 C   0  0  0  0  0  0  0  0  0  0  0  0
   -0.8753   -2.1790    0.0000 C   0  0  0  0  0  0  0  0  0  0  0  0
   -1.5898   -1.7665    0.0000 C   0  0  0  0  0  0  0  0  0  0  0  0
   -1.5898   -0.9415    0.0000 C   0  0  0  0  0  0  0  0  0  0  0  0
   -2.3042   -2.1790    0.0000 Cl  0  0  0  0  0  0  0  0  0  0  0  0
    0.5536   -0.5290    0.0000 C   0  0  0  0  0  0  0  0  0  0  0  0
    1.2681   -0.9415    0.0000 C   0  0  0  0  0  0  0  0  0  0  0  0
  1  2  2  0
  1  3  1  0
  1 12  1  0
  4  5  1  0
  4  6  2  0
  4  8  1  0
  7  8  2  0
  7 12  1  0
  8  9  1  0
  9 10  2  0
 10 11  1  0
 10 21  1  0
 11 12  2  0
 11 13  1  0
 14 15  2  0
 14 19  1  0
 15 16  1  0
 15 21  1  0
 16 17  2  0
 17 18  1  0
 18 19  2  0
 18 20  1  0
 21 22  1  6
M  CHG  4   1   1   3  -1   4   1   5  -1
M  END
>  <DRUGBANK_ID>  (1) 
DB07490

>  <COMMON_NAME>  (1) 
2-[1-(4-CHLORO-PHENYL)-ETHYL]-4,6-DINITRO-PHENOL

$$$$
