
     RDKit          2D

 11 11  0  0  0  0  0  0  0  0999 V2000
    0.3253   -1.1412    0.0000 C   0  0  0  0  0  0  0  0  0  0  0  0
    1.0398   -0.7287    0.0000 C   0  0  0  0  0  0  0  0  0  0  0  0
   -0.3891   -0.7287    0.0000 C   0  0  0  0  0  0  0  0  0  0  0  0
    1.0398    0.0963    0.0000 N   0  0  0  0  0  0  0  0  0  0  0  0
    1.7543   -1.1412    0.0000 O   0  0  0  0  0  0  0  0  0  0  0  0
   -0.3891    0.0963    0.0000 C   0  0  0  0  0  0  0  0  0  0  0  0
    0.3253    0.5088    0.0000 C   0  0  0  0  0  0  0  0  0  0  0  0
    0.3253    1.3339    0.0000 O   0  0  0  0  0  0  0  0  0  0  0  0
   -1.2870   -0.4580    0.0000 C   0  0  0  0  0  0  0  0  0  0  0  0
   -0.9499   -1.3339    0.0000 C   0  0  0  0  0  0  0  0  0  0  0  0
   -1.7543   -1.1509    0.0000 C   0  0  0  0  0  0  0  0  0  0  0  0
  1  2  1  0
  1  3  1  0
  2  4  1  0
  2  5  2  0
  3  6  1  0
  3  9  1  0
  3 10  1  0
  4  7  1  0
  6  7  1  0
  7  8  2  0
 10 11  1  0
M  END
>  <DRUGBANK_ID>  (1) 
DB13740

>  <COMMON_NAME>  (1) 
Bemegride

>  <CAS_NUMBER>  (1) 
64-65-3

>  <UNII>  (1) 
57DQA39DO2

>  <SYNONYMS>  (1) 
Bemegrida; Bemegride; Bemegridum

$$$$
