HS4
     RDKit          2D

 21 22  0  0  0  0  0  0  0  0999 V2000
    2.0767   -0.0744    0.0000 O   0  0  0  0  0  0  0  0  0  0  0  0
    1.6642   -0.7889    0.0000 S   0  0  0  0  0  0  0  0  0  0  0  0
    1.2517   -1.5033    0.0000 O   0  0  0  0  0  0  0  0  0  0  0  0
    2.3787   -1.2014    0.0000 N   0  0  0  0  0  0  0  0  0  0  0  0
    3.0932   -0.7889    0.0000 C   0  0  0  0  0  0  0  0  0  0  0  0
    3.8076   -1.2014    0.0000 C   0  0  0  0  0  0  0  0  0  0  0  0
    3.8076   -2.0264    0.0000 O   0  0  0  0  0  0  0  0  0  0  0  0
    4.5221   -0.7889    0.0000 N   0  0  0  0  0  0  0  0  0  0  0  0
    5.2366   -1.2014    0.0000 O   0  0  0  0  0  0  0  0  0  0  0  0
    0.9498   -0.3764    0.0000 C   0  0  0  0  0  0  0  0  0  0  0  0
    0.2353   -0.7889    0.0000 C   0  0  0  0  0  0  0  0  0  0  0  0
   -0.4792   -0.3764    0.0000 C   0  0  0  0  0  0  0  0  0  0  0  0
    0.9498    0.4486    0.0000 C   0  0  0  0  0  0  0  0  0  0  0  0
    0.2353    0.8611    0.0000 C   0  0  0  0  0  0  0  0  0  0  0  0
   -0.4792    0.4486    0.0000 C   0  0  0  0  0  0  0  0  0  0  0  0
   -1.1936    0.8611    0.0000 C   0  0  0  0  0  0  0  0  0  0  0  0
   -1.9081    0.4486    0.0000 C   0  0  0  0  0  0  0  0  0  0  0  0
   -2.6226    0.8611    0.0000 C   0  0  0  0  0  0  0  0  0  0  0  0
   -2.6226    1.6861    0.0000 C   0  0  0  0  0  0  0  0  0  0  0  0
   -1.9081    2.0986    0.0000 C   0  0  0  0  0  0  0  0  0  0  0  0
   -1.1936    1.6861    0.0000 C   0  0  0  0  0  0  0  0  0  0  0  0
  1  2  2  0
  2  3  2  0
  2  4  1  0
  2 10  1  0
  4  5  1  0
  5  6  1  0
  6  7  2  0
  6  8  1  0
  8  9  2  0
 10 11  2  0
 10 13  1  0
 11 12  1  0
 12 15  2  0
 13 14  2  0
 14 15  1  0
 15 16  1  0
 16 17  2  0
 16 21  1  0
 17 18  1  0
 18 19  2  0
 19 20  1  0
 20 21  2  0
M  END
>  <DRUGBANK_ID>  (1) 
DB07920

>  <COMMON_NAME>  (1) 
N-oxo-2-[(4-phenylphenyl)sulfonylamino]ethanamide

$$$$
