
     RDKit          2D

 33 35  0  0  0  0  0  0  0  0999 V2000
   -4.6771    1.8625    0.0000 C   0  0  0  0  0  0  0  0  0  0  0  0
   -4.6771    1.0375    0.0000 C   0  0  0  0  0  0  0  0  0  0  0  0
   -3.9650    0.6291    0.0000 C   0  0  0  0  0  0  0  0  0  0  0  0
   -3.2530    1.0375    0.0000 C   0  0  0  0  0  0  0  0  0  0  0  0
   -3.2530    1.8625    0.0000 C   0  0  0  0  0  0  0  0  0  0  0  0
   -3.9650    2.2791    0.0000 C   0  0  0  0  0  0  0  0  0  0  0  0
   -5.3937    2.2750    0.0000 O   0  0  0  0  0  0  0  0  0  0  0  0
   -3.9729   -0.1958    0.0000 O   0  0  0  0  0  0  0  0  0  0  0  0
   -2.5437    0.6250    0.0000 C   0  0  0  0  0  0  0  0  0  0  0  0
   -2.4312    1.8625    0.0000 C   0  0  0  0  0  0  0  0  0  0  0  0
   -1.7187    1.4500    0.0000 C   0  0  0  0  0  0  0  0  0  0  0  0
   -1.7229    0.6250    0.0000 C   0  0  0  0  0  0  0  0  0  0  0  0
   -2.4413    0.2173    0.0000 C   0  0  0  0  0  0  0  0  0  0  0  0
   -2.4474   -0.6040    0.0000 C   0  0  0  0  0  0  0  0  0  0  0  0
   -1.7369   -1.0239    0.0000 C   0  0  0  0  0  0  0  0  0  0  0  0
   -1.0106    0.2112    0.0000 C   0  0  0  0  0  0  0  0  0  0  0  0
   -1.0188   -0.6166    0.0000 C   0  0  0  0  0  0  0  0  0  0  0  0
    0.4106   -0.6306    0.0000 C   0  0  0  0  0  0  0  0  0  0  0  0
    0.4187    0.1972    0.0000 C   0  0  0  0  0  0  0  0  0  0  0  0
   -0.2941    0.6228    0.0000 C   0  0  0  0  0  0  0  0  0  0  0  0
   -1.0271   -1.4416    0.0000 C   0  0  0  0  0  0  0  0  0  0  0  0
    1.1228   -1.0416    0.0000 C   0  0  0  0  0  0  0  0  0  0  0  0
    1.8353   -0.6249    0.0000 C   0  0  0  0  0  0  0  0  0  0  0  0
    1.1187   -1.8666    0.0000 O   0  0  0  0  0  0  0  0  0  0  0  0
    1.8312   -2.2791    0.0000 C   0  0  0  0  0  0  0  0  0  0  0  0
    2.5437   -1.8624    0.0000 C   0  0  0  0  0  0  0  0  0  0  0  0
    3.2562   -2.2749    0.0000 C   0  0  0  0  0  0  0  0  0  0  0  0
    3.9687   -1.8583    0.0000 C   0  0  0  0  0  0  0  0  0  0  0  0
    4.6812   -2.2708    0.0000 C   0  0  0  0  0  0  0  0  0  0  0  0
    5.3937   -1.8541    0.0000 C   0  0  0  0  0  0  0  0  0  0  0  0
    3.5520   -1.1416    0.0000 O   0  0  0  0  0  0  0  0  0  0  0  0
    4.3770   -1.1416    0.0000 C   0  0  0  0  0  0  0  0  0  0  0  0
    5.0895   -0.7249    0.0000 C   0  0  0  0  0  0  0  0  0  0  0  0
  1  6  1  0
  1  7  1  6
  1  2  1  0
  2  3  1  0
  3  8  1  1
  3  4  1  0
  4  9  2  0
  4  5  1  0
  5 10  2  0
  5  6  1  0
 10 11  1  0
 11 12  2  0
 12 13  1  0
 12 16  1  0
 13 14  1  0
 14 15  1  0
 15 17  1  0
 16 17  1  0
 17 18  1  0
 17 21  1  6
 18 19  1  6
 18 22  1  0
 19 20  1  0
 16 20  1  6
 22 23  1  1
 22 24  1  0
 24 25  1  0
 25 26  1  0
 26 27  1  0
 27 28  1  0
 28 29  1  0
 28 31  1  0
 28 32  1  0
 29 30  1  0
 32 33  1  0
M  END
>  <DRUGBANK_ID>  (1) 
DB03451

>  <SECONDARY_ACCESSION_NUMBERS>  (1) 
EXPT01970

>  <COMMON_NAME>  (1) 
Lexacalcitol

>  <CAS_NUMBER>  (1) 
131875-08-6

>  <UNII>  (1) 
9G3DCA3958

>  <SYNONYMS>  (1) 
Lexacalcitol

$$$$
