
     RDKit          2D

 45 51  0  0  1  0  0  0  0  0999 V2000
    1.8563   -3.1101    0.0000 C   0  0  0  0  0  0  0  0  0  0  0  0
    1.1357   -3.5118    0.0000 C   0  0  0  0  0  0  0  0  0  0  0  0
    1.1234   -4.3368    0.0000 C   0  0  0  0  0  0  0  0  0  0  0  0
    0.4275   -3.0887    0.0000 N   0  0  0  0  0  0  0  0  0  0  0  0
   -0.2931   -3.4905    0.0000 C   0  0  0  0  0  0  0  0  0  0  0  0
   -0.3054   -4.3154    0.0000 C   0  0  0  0  0  0  0  0  0  0  0  0
    0.4028   -4.7385    0.0000 C   0  0  0  0  0  0  0  0  0  0  0  0
    0.3905   -5.5634    0.0000 C   0  0  0  0  0  0  0  0  0  0  0  0
   -0.3301   -5.9652    0.0000 C   0  0  0  0  0  0  0  0  0  0  0  0
   -1.0383   -5.5421    0.0000 C   0  0  0  0  0  0  0  0  0  0  0  0
   -1.0260   -4.7171    0.0000 C   0  0  0  0  0  0  0  0  0  0  0  0
    0.4398   -2.2638    0.0000 C   0  0  0  0  0  0  0  0  0  0  0  0
   -0.2684   -1.8407    0.0000 O   0  0  0  0  0  0  0  0  0  0  0  0
    1.1604   -1.8620    0.0000 C   0  0  0  0  0  0  0  0  0  0  0  0
    1.1727   -1.0371    0.0000 N   0  0  0  0  0  0  0  0  0  0  0  0
    0.4349   -0.6681    0.0000 C   0  0  0  0  0  0  0  0  0  0  0  0
   -0.1782   -1.2201    0.0000 C   0  0  0  0  0  0  0  0  0  0  0  0
   -0.9628   -0.9652    0.0000 C   0  0  0  0  0  0  0  0  0  0  0  0
   -1.1344   -0.1582    0.0000 C   0  0  0  0  0  0  0  0  0  0  0  0
   -0.5213    0.3938    0.0000 C   0  0  0  0  0  0  0  0  0  0  0  0
    0.2633    0.1389    0.0000 C   0  0  0  0  0  0  0  0  0  0  0  0
    0.7873    0.7761    0.0000 N   0  0  0  0  0  0  0  0  0  0  0  0
    0.5441    1.5645    0.0000 C   0  0  0  0  0  0  0  0  0  0  0  0
    1.2188    2.0394    0.0000 N   0  0  0  0  0  0  0  0  0  0  0  0
    1.8789    1.5445    0.0000 N   0  0  0  0  0  0  0  0  0  0  0  0
    1.6122    0.7638    0.0000 C   0  0  0  0  0  0  0  0  0  0  0  0
    2.1169    0.1111    0.0000 C   0  0  0  0  0  0  0  0  0  0  0  0
    1.9213   -0.6903    0.0000 C   0  0  0  0  0  0  0  0  0  0  0  0
    2.5586   -1.2143    0.0000 O   0  0  0  0  0  0  0  0  0  0  0  0
    2.9239    0.2827    0.0000 C   0  0  0  0  0  0  0  0  0  0  0  0
    3.1788    1.0673    0.0000 C   0  0  0  0  0  0  0  0  0  0  0  0
    2.6939    1.7347    0.0000 C   0  0  0  0  0  0  0  0  0  0  0  0
    3.1788    2.4022    0.0000 N   0  0  0  0  0  0  0  0  0  0  0  0
    3.9634    2.1472    0.0000 C   0  0  0  0  0  0  0  0  0  0  0  0
    3.9634    1.3222    0.0000 C   0  0  0  0  0  0  0  0  0  0  0  0
    4.6779    0.9097    0.0000 C   0  0  0  0  0  0  0  0  0  0  0  0
    5.3924    1.3222    0.0000 C   0  0  0  0  0  0  0  0  0  0  0  0
    5.3924    2.1472    0.0000 C   0  0  0  0  0  0  0  0  0  0  0  0
    4.6779    2.5597    0.0000 C   0  0  0  0  0  0  0  0  0  0  0  0
   -0.2366    1.8311    0.0000 C   0  0  0  0  0  0  0  0  0  0  0  0
   -0.8579    1.2883    0.0000 C   0  0  0  0  0  0  0  0  0  0  0  0
   -1.6386    1.5550    0.0000 C   0  0  0  0  0  0  0  0  0  0  0  0
   -1.7980    2.3644    0.0000 C   0  0  0  0  0  0  0  0  0  0  0  0
   -1.1767    2.9072    0.0000 C   0  0  0  0  0  0  0  0  0  0  0  0
   -0.3960    2.6406    0.0000 C   0  0  0  0  0  0  0  0  0  0  0  0
  1  2  1  0
  2  3  1  0
  2  4  1  0
  4  5  1  0
  4 12  1  0
  5  6  1  0
  6  7  2  0
  6 11  1  0
  7  8  1  0
  8  9  2  0
  9 10  1  0
 10 11  2  0
 12 13  2  0
 12 14  1  0
 14 15  1  0
 15 16  1  0
 15 28  1  0
 16 17  2  0
 16 21  1  0
 17 18  1  0
 18 19  2  0
 19 20  1  0
 20 21  2  0
 21 22  1  0
 22 23  1  0
 22 26  1  0
 23 24  2  0
 23 40  1  0
 24 25  1  0
 25 26  2  0
 26 27  1  0
 27 28  1  0
 27 30  1  6
 28 29  2  0
 30 31  1  0
 31 32  2  0
 31 35  1  0
 32 33  1  0
 33 34  1  0
 34 35  2  0
 34 39  1  0
 35 36  1  0
 36 37  2  0
 37 38  1  0
 38 39  2  0
 40 41  2  0
 40 45  1  0
 41 42  1  0
 42 43  2  0
 43 44  1  0
 44 45  2  0
M  END
>  <DRUGBANK_ID>  (1) 
DB12694

>  <COMMON_NAME>  (1) 
CE-326597

>  <CAS_NUMBER>  (1) 
870615-40-0

>  <UNII>  (1) 
1FGZ6L9SF2

$$$$
