
     RDKit          2D

 29 32  0  0  1  0  0  0  0  0999 V2000
   -0.7144   -3.0937    0.0000 O   0  0  0  0  0  0  0  0  0  0  0  0
   -0.7144   -2.2687    0.0000 C   0  0  0  0  0  0  0  0  0  0  0  0
   -1.4289   -1.8562    0.0000 C   0  0  0  0  0  0  0  0  0  0  0  0
   -1.4289   -1.0312    0.0000 C   0  0  0  0  0  0  0  0  0  0  0  0
   -2.1434   -0.6187    0.0000 C   0  0  0  0  0  0  0  0  0  0  0  0
   -2.1434    0.2062    0.0000 N   0  0  0  0  0  0  0  0  0  0  0  0
   -1.4289    0.6187    0.0000 C   0  0  0  0  0  0  0  0  0  0  0  0
   -1.4289    1.4437    0.0000 C   0  0  0  0  0  0  0  0  0  0  0  0
   -0.7144    1.8562    0.0000 C   0  0  0  0  0  0  0  0  0  0  0  0
    0.0000    1.4437    0.0000 C   0  0  0  0  0  0  0  0  0  0  0  0
    0.7144    1.8562    0.0000 C   0  0  0  0  0  0  0  0  0  0  0  0
    0.7144    2.6812    0.0000 O   0  0  0  0  0  0  0  0  0  0  0  0
    1.4289    3.0937    0.0000 C   0  0  0  0  0  0  0  0  0  0  0  0
    1.4289    1.4437    0.0000 C   0  0  0  0  0  0  0  0  0  0  0  0
    1.4289    0.6187    0.0000 C   0  0  0  0  0  0  0  0  0  0  0  0
    0.7144    0.2062    0.0000 C   0  0  0  0  0  0  0  0  0  0  0  0
    0.0000    0.6187    0.0000 C   0  0  0  0  0  0  0  0  0  0  0  0
   -0.7144    0.2062    0.0000 C   0  0  0  0  0  0  0  0  0  0  0  0
   -0.7144   -0.6187    0.0000 N   0  0  0  0  0  0  0  0  0  0  0  0
   -2.8578   -1.0312    0.0000 C   0  0  0  0  0  0  0  0  0  0  0  0
   -2.8578   -1.8562    0.0000 C   0  0  0  0  0  0  0  0  0  0  0  0
   -2.1434   -2.2687    0.0000 C   0  0  0  0  0  0  0  0  0  0  0  0
    0.0000   -1.8562    0.0000 N   0  0  0  0  0  0  0  0  0  0  0  0
    0.7144   -2.2687    0.0000 C   0  0  0  0  0  0  0  0  0  0  0  0
    0.7144   -3.0937    0.0000 C   0  0  0  0  0  0  0  0  0  0  0  0
    1.4289   -1.8562    0.0000 C   0  0  0  0  0  0  0  0  0  0  0  0
    2.1434   -2.2687    0.0000 N   0  0  0  0  0  0  0  0  0  0  0  0
    2.8578   -1.8562    0.0000 C   0  0  0  0  0  0  0  0  0  0  0  0
    2.1434   -3.0937    0.0000 C   0  0  0  0  0  0  0  0  0  0  0  0
  1  2  2  0
  2  3  1  0
  2 23  1  0
  3  4  2  0
  3 22  1  0
  4  5  1  0
  4 19  1  0
  5  6  1  0
  5 20  2  0
  6  7  2  0
  7  8  1  0
  7 18  1  0
  8  9  2  0
  9 10  1  0
 10 11  1  0
 10 17  2  0
 11 12  1  0
 11 14  2  0
 12 13  1  0
 14 15  1  0
 15 16  2  0
 16 17  1  0
 17 18  1  0
 18 19  2  0
 20 21  1  0
 21 22  2  0
 24 23  1  0
 24 25  1  1
 24 26  1  0
 26 27  1  0
 27 28  1  0
 27 29  1  0
M  END
>  <DRUGBANK_ID>  (1) 
DB06517

>  <COMMON_NAME>  (1) 
MLN576

>  <CAS_NUMBER>  (1) 
346689-77-8

>  <UNII>  (1) 
Q2L4XU3YX6

$$$$
