1IG
     RDKit          2D

 29 31  0  0  0  0  0  0  0  0999 V2000
   -1.9404    2.1404    0.0000 C   0  0  0  0  0  0  0  0  0  0  0  0
   -1.9404    2.9654    0.0000 N   0  0  0  0  0  0  0  0  0  0  0  0
   -1.2259    3.3779    0.0000 C   0  0  0  0  0  0  0  0  0  0  0  0
   -0.5115    2.9654    0.0000 N   0  0  0  0  0  0  0  0  0  0  0  0
   -0.5115    2.1404    0.0000 C   0  0  0  0  0  0  0  0  0  0  0  0
   -1.2259    1.7279    0.0000 C   0  0  0  0  0  0  0  0  0  0  0  0
   -2.6549    1.7279    0.0000 N   0  0  0  0  0  0  0  0  0  0  0  0
   -1.2259    4.2029    0.0000 N   0  0  0  0  0  0  0  0  0  0  0  0
    0.2030    1.7279    0.0000 C   0  0  0  0  0  0  0  0  0  0  0  0
    0.2030    0.9029    0.0000 C   0  0  0  0  0  0  0  0  0  0  0  0
   -1.9404    0.4904    0.0000 C   0  0  0  0  0  0  0  0  0  0  0  0
   -1.9404   -0.3346    0.0000 C   0  0  0  0  0  0  0  0  0  0  0  0
   -1.2259   -0.7471    0.0000 C   0  0  0  0  0  0  0  0  0  0  0  0
   -0.5115   -0.3346    0.0000 C   0  0  0  0  0  0  0  0  0  0  0  0
   -0.5115    0.4904    0.0000 C   0  0  0  0  0  0  0  0  0  0  0  0
   -1.2259    0.9029    0.0000 C   0  0  0  0  0  0  0  0  0  0  0  0
   -1.2259   -1.5721    0.0000 S   0  0  0  0  0  0  0  0  0  0  0  0
   -0.5115   -1.9846    0.0000 C   0  0  0  0  0  0  0  0  0  0  0  0
    0.2030   -1.5721    0.0000 C   0  0  0  0  0  0  0  0  0  0  0  0
    0.2030   -0.7471    0.0000 N   0  0  0  0  0  0  0  0  0  0  0  0
    0.9175   -0.3346    0.0000 C   0  0  0  0  0  0  0  0  0  0  0  0
    1.6319   -0.7471    0.0000 C   0  0  0  0  0  0  0  0  0  0  0  0
    2.3464   -0.3346    0.0000 N   0  0  0  0  0  0  0  0  0  0  0  0
    3.0609   -0.7471    0.0000 C   0  0  0  0  0  0  0  0  0  0  0  0
    3.7753   -0.3346    0.0000 C   0  0  0  0  0  0  0  0  0  0  0  0
   -0.8988   -2.7130    0.0000 C   0  0  0  0  0  0  0  0  0  0  0  0
   -0.1242   -2.7130    0.0000 C   0  0  0  0  0  0  0  0  0  0  0  0
    0.9175   -1.9846    0.0000 O   0  0  0  0  0  0  0  0  0  0  0  0
    3.0609   -1.5721    0.0000 O   0  0  0  0  0  0  0  0  0  0  0  0
  1  2  2  0
  1  6  1  0
  1  7  1  0
  2  3  1  0
  3  4  2  0
  3  8  1  0
  4  5  1  0
  5  6  2  0
  5  9  1  0
  6 16  1  0
  9 10  1  0
 11 12  2  0
 11 16  1  0
 12 13  1  0
 13 14  2  0
 13 17  1  0
 14 15  1  0
 14 20  1  0
 15 16  2  0
 17 18  1  0
 18 19  1  0
 18 26  1  0
 18 27  1  0
 19 20  1  0
 19 28  2  0
 20 21  1  0
 21 22  1  0
 22 23  1  0
 23 24  1  0
 24 25  1  0
 24 29  2  0
M  END
>  <DRUGBANK_ID>  (1) 
DB06899

>  <COMMON_NAME>  (1) 
N-{2-[6-(2,4-DIAMINO-6-ETHYLPYRIMIDIN-5-YL)-2,2-DIMETHYL-3-OXO-2,3-DIHYDRO-4H-1,4-BENZOTHIAZIN-4-YL]ETHYL}ACETAMIDE

$$$$
