
     RDKit          2D

 20 23  0  0  0  0  0  0  0  0999 V2000
    1.5083    0.9260    0.0000 C   0  0  0  0  0  0  0  0  0  0  0  0
    1.5083    0.0992    0.0000 C   0  0  0  0  0  0  0  0  0  0  0  0
    0.7943   -0.3142    0.0000 C   0  0  0  0  0  0  0  0  0  0  0  0
    0.0803    0.0992    0.0000 C   0  0  0  0  0  0  0  0  0  0  0  0
   -0.6335   -0.3142    0.0000 C   0  0  0  0  0  0  0  0  0  0  0  0
   -0.6335   -1.1364    0.0000 C   0  0  0  0  0  0  0  0  0  0  0  0
   -1.3475   -1.5499    0.0000 C   0  0  0  0  0  0  0  0  0  0  0  0
   -2.0614   -1.1364    0.0000 C   0  0  0  0  0  0  0  0  0  0  0  0
   -2.7754   -1.5499    0.0000 O   0  0  0  0  0  0  0  0  0  0  0  0
   -2.0614   -0.3142    0.0000 C   0  0  0  0  0  0  0  0  0  0  0  0
   -1.3475    0.0992    0.0000 C   0  0  0  0  0  0  0  0  0  0  0  0
    0.0803   -1.5499    0.0000 C   0  0  0  0  0  0  0  0  0  0  0  0
    0.7943   -1.1364    0.0000 C   0  0  0  0  0  0  0  0  0  0  0  0
    0.0803    0.9260    0.0000 C   0  0  0  0  0  0  0  0  0  0  0  0
    0.7943    1.3349    0.0000 C   0  0  0  0  0  0  0  0  0  0  0  0
    2.2909   -0.1551    0.0000 C   0  0  0  0  0  0  0  0  0  0  0  0
    2.7754    0.5126    0.0000 C   0  0  0  0  0  0  0  0  0  0  0  0
    2.2909    1.1805    0.0000 C   0  0  0  0  0  0  0  0  0  0  0  0
    2.5453    1.9632    0.0000 O   0  0  0  0  0  0  0  0  0  0  0  0
    1.5928    1.7438    0.0000 C   0  0  0  0  0  0  0  0  0  0  0  0
  1 20  1  1
  2  1  1  0
  3  2  1  0
  4  3  1  0
  5  4  1  0
  6  5  1  0
  6  7  1  1
  8  7  1  0
  8  9  2  0
  8 10  1  0
 10 11  1  0
  5 11  1  6
 12  6  1  0
 12 13  1  0
  3 13  1  6
  4 14  1  1
 14 15  1  0
 15  1  1  0
  2 16  1  1
 17 16  1  0
 17 18  1  0
 18  1  1  0
 18 19  2  0
M  END
>  <DRUGBANK_ID>  (1) 
DB04693

>  <COMMON_NAME>  (1) 
Estrane-3,17-dione

>  <CAS_NUMBER>  (1) 
5696-58-2

>  <UNII>  (1) 
M6NR2239PB

>  <SYNONYMS>  (1) 
(5alpha)-Estrane-3,17-dione; Estrane-3,17-dione

$$$$
