
     RDKit          2D

 11 10  0  0  0  0  0  0  0  0999 V2000
    1.7605   -1.0164    0.0000 C   0  0  0  0  0  0  0  0  0  0  0  0
    2.4750   -1.4289    0.0000 N   0  0  0  0  0  0  0  0  0  0  0  0
    2.0625   -2.1434    0.0000 C   0  0  0  0  0  0  0  0  0  0  0  0
    2.8875   -0.7145    0.0000 C   0  0  0  0  0  0  0  0  0  0  0  0
    3.1895   -1.8414    0.0000 C   0  0  0  0  0  0  0  0  0  0  0  0
    3.9039   -1.4289    0.0000 C   0  0  0  0  0  0  0  0  0  0  0  0
    4.6184   -1.8414    0.0000 O   0  0  0  0  0  0  0  0  0  0  0  0
    5.3329   -1.4289    0.0000 P   0  0  0  0  0  0  0  0  0  0  0  0
    6.0474   -1.0164    0.0000 O   0  0  0  0  0  0  0  0  0  0  0  0
    5.7454   -2.1434    0.0000 O   0  0  0  0  0  0  0  0  0  0  0  0
    4.9204   -0.7145    0.0000 O   0  0  0  0  0  0  0  0  0  0  0  0
  1  2  1  0
  2  3  1  0
  2  4  1  0
  2  5  1  0
  5  6  1  0
  6  7  1  0
  7  8  1  0
  8  9  1  0
  8 10  1  0
  8 11  2  0
M  CHG  1   2   1
M  END
>  <DRUGBANK_ID>  (1) 
DB03945

>  <SECONDARY_ACCESSION_NUMBERS>  (1) 
EXPT02629

>  <COMMON_NAME>  (1) 
N,N,N-Trimethyl-2-(phosphonooxy)ethanaminium

>  <CAS_NUMBER>  (1) 
3616-04-4

>  <SYNONYMS>  (1) 
Choline, dihydrogen phosphate (ester) (8CI); Ethanaminium, N,N,N-trimethyl-2-(phosphonooxy)-; Phosphocholine cation

$$$$
