4BC
     RDKit          2D

 27 30  0  0  0  0  0  0  0  0999 V2000
    0.0324    0.3572    0.0000 C   0  0  0  0  0  0  0  0  0  0  0  0
   -0.6821    0.7697    0.0000 C   0  0  0  0  0  0  0  0  0  0  0  0
   -1.4667    0.5148    0.0000 O   0  0  0  0  0  0  0  0  0  0  0  0
   -1.9516    1.1822    0.0000 C   0  0  0  0  0  0  0  0  0  0  0  0
   -1.4667    1.8497    0.0000 O   0  0  0  0  0  0  0  0  0  0  0  0
   -0.6821    1.5947    0.0000 C   0  0  0  0  0  0  0  0  0  0  0  0
    0.0324    2.0072    0.0000 C   0  0  0  0  0  0  0  0  0  0  0  0
    0.7469    1.5947    0.0000 C   0  0  0  0  0  0  0  0  0  0  0  0
    0.7469    0.7697    0.0000 C   0  0  0  0  0  0  0  0  0  0  0  0
    1.4613    0.3572    0.0000 C   0  0  0  0  0  0  0  0  0  0  0  0
    2.2150    0.6928    0.0000 C   0  0  0  0  0  0  0  0  0  0  0  0
    2.3865    1.4998    0.0000 C   0  0  0  0  0  0  0  0  0  0  0  0
    1.7734    2.0518    0.0000 O   0  0  0  0  0  0  0  0  0  0  0  0
    3.1711    1.7547    0.0000 O   0  0  0  0  0  0  0  0  0  0  0  0
    2.7670    0.0797    0.0000 N   0  0  0  0  0  0  0  0  0  0  0  0
    1.5476   -0.4632    0.0000 C   0  0  0  0  0  0  0  0  0  0  0  0
    2.3545   -0.6348    0.0000 N   0  0  0  0  0  0  0  0  0  0  0  0
    0.9345   -1.0153    0.0000 C   0  0  0  0  0  0  0  0  0  0  0  0
    0.1498   -0.7603    0.0000 C   0  0  0  0  0  0  0  0  0  0  0  0
   -0.4632   -1.3124    0.0000 C   0  0  0  0  0  0  0  0  0  0  0  0
   -1.2479   -1.0574    0.0000 C   0  0  0  0  0  0  0  0  0  0  0  0
   -1.4194   -0.2505    0.0000 C   0  0  0  0  0  0  0  0  0  0  0  0
   -0.2917   -2.1193    0.0000 C   0  0  0  0  0  0  0  0  0  0  0  0
   -0.9048   -2.6714    0.0000 O   0  0  0  0  0  0  0  0  0  0  0  0
    0.4929   -2.3743    0.0000 C   0  0  0  0  0  0  0  0  0  0  0  0
    1.1060   -1.8222    0.0000 C   0  0  0  0  0  0  0  0  0  0  0  0
    1.8906   -2.0772    0.0000 O   0  0  0  0  0  0  0  0  0  0  0  0
  1  2  2  0
  1  9  1  0
  2  3  1  0
  2  6  1  0
  3  4  1  0
  4  5  1  0
  5  6  1  0
  6  7  2  0
  7  8  1  0
  8  9  2  0
  9 10  1  0
 10 11  2  0
 10 16  1  0
 11 12  1  0
 11 15  1  0
 12 13  1  0
 12 14  2  0
 15 17  1  0
 16 17  2  0
 16 18  1  0
 18 19  2  0
 18 26  1  0
 19 20  1  0
 20 21  1  0
 20 23  2  0
 21 22  1  0
 23 24  1  0
 23 25  1  0
 25 26  2  0
 26 27  1  0
M  END
>  <DRUGBANK_ID>  (1) 
DB02840

>  <SECONDARY_ACCESSION_NUMBERS>  (1) 
EXPT00204

>  <COMMON_NAME>  (1) 
4-(1,3-Benzodioxol-5-Yl)-5-(5-Ethyl-2,4-Dihydroxyphenyl)-2h-Pyrazole-3-Carboxylic Acid

$$$$
