80A
     RDKit          2D

 22 24  0  0  0  0  0  0  0  0999 V2000
    0.3570    1.2109    0.0000 C   0  0  0  0  0  0  0  0  0  0  0  0
    0.1854    0.4040    0.0000 C   0  0  0  0  0  0  0  0  0  0  0  0
    0.7985   -0.1481    0.0000 C   0  0  0  0  0  0  0  0  0  0  0  0
    1.5832    0.1069    0.0000 C   0  0  0  0  0  0  0  0  0  0  0  0
    1.7547    0.9138    0.0000 C   0  0  0  0  0  0  0  0  0  0  0  0
    1.1416    1.4659    0.0000 C   0  0  0  0  0  0  0  0  0  0  0  0
    1.3131    2.2728    0.0000 C   0  0  0  0  0  0  0  0  0  0  0  0
    0.7000    2.8249    0.0000 O   0  0  0  0  0  0  0  0  0  0  0  0
    2.0977    2.5278    0.0000 C   0  0  0  0  0  0  0  0  0  0  0  0
    2.7108    1.9757    0.0000 C   0  0  0  0  0  0  0  0  0  0  0  0
    3.4955    2.2307    0.0000 C   0  0  0  0  0  0  0  0  0  0  0  0
    3.6670    3.0377    0.0000 N   0  0  0  0  0  0  0  0  0  0  0  0
    3.0539    3.5897    0.0000 C   0  0  0  0  0  0  0  0  0  0  0  0
    2.2693    3.3348    0.0000 C   0  0  0  0  0  0  0  0  0  0  0  0
    0.6270   -0.9550    0.0000 O   0  0  0  0  0  0  0  0  0  0  0  0
   -0.1576   -1.2100    0.0000 C   0  0  0  0  0  0  0  0  0  0  0  0
   -0.3291   -2.0170    0.0000 C   0  0  0  0  0  0  0  0  0  0  0  0
   -1.1138   -2.2719    0.0000 N   0  0  0  0  0  0  0  0  0  0  0  0
   -1.3687   -3.0565    0.0000 C   0  0  0  0  0  0  0  0  0  0  0  0
   -2.1937   -3.0565    0.0000 C   0  0  0  0  0  0  0  0  0  0  0  0
   -2.4486   -2.2719    0.0000 C   0  0  0  0  0  0  0  0  0  0  0  0
   -1.7812   -1.7870    0.0000 C   0  0  0  0  0  0  0  0  0  0  0  0
  1  6  2  0
  1  2  1  0
  2  3  2  0
  3  4  1  0
  3 15  1  0
  5  4  2  0
  6  5  1  0
  7  6  1  0
  7  8  1  1
  9  7  1  0
  9 14  1  0
 10  9  2  0
 11 10  1  0
 11 12  2  0
 12 13  1  0
 13 14  2  0
 16 15  1  0
 16 17  1  0
 18 17  1  0
 18 19  1  0
 20 19  1  0
 21 20  1  0
 21 22  1  0
 22 18  1  0
M  END
>  <DRUGBANK_ID>  (1) 
DB07258

>  <COMMON_NAME>  (1) 
(R)-pyridin-4-yl[4-(2-pyrrolidin-1-ylethoxy)phenyl]methanol

$$$$
