
     RDKit          2D

 25 24  0  0  1  0  0  0  0  0999 V2000
    1.0461   -1.4289    0.0000 C   0  0  0  0  0  0  0  0  0  0  0  0
    1.7605   -1.8414    0.0000 C   0  0  0  0  0  0  0  0  0  0  0  0
    2.4750   -1.4289    0.0000 O   0  0  0  0  0  0  0  0  0  0  0  0
    3.1895   -1.8414    0.0000 C   0  0  0  0  0  0  0  0  0  0  0  0
    3.1895   -2.6664    0.0000 O   0  0  0  0  0  0  0  0  0  0  0  0
    3.9039   -1.4289    0.0000 C   0  0  0  0  0  0  0  0  0  0  0  0
    4.6184   -1.8414    0.0000 C   0  0  0  0  0  0  0  0  0  0  0  0
    5.3329   -1.4289    0.0000 C   0  0  0  0  0  0  0  0  0  0  0  0
    5.3329   -0.6039    0.0000 C   0  0  0  0  0  0  0  0  0  0  0  0
    4.6184   -0.1914    0.0000 C   0  0  0  0  0  0  0  0  0  0  0  0
    3.9039   -0.6039    0.0000 C   0  0  0  0  0  0  0  0  0  0  0  0
    3.1895   -0.1914    0.0000 C   0  0  0  0  0  0  0  0  0  0  0  0
    3.1895    0.6336    0.0000 C   0  0  0  0  0  0  0  0  0  0  0  0
    3.9039    1.0461    0.0000 C   0  0  0  0  0  0  0  0  0  0  0  0
    4.6184    0.6336    0.0000 C   0  0  0  0  0  0  0  0  0  0  0  0
    5.3329    1.0461    0.0000 C   0  0  0  0  0  0  0  0  0  0  0  0
    5.3329    1.8711    0.0000 C   0  0  0  0  0  0  0  0  0  0  0  0
    6.0474    2.2836    0.0000 C   0  0  0  0  0  0  0  0  0  0  0  0
    6.0474    3.1086    0.0000 C   0  0  0  0  0  0  0  0  0  0  0  0
    6.7618    3.5211    0.0000 O   0  0  0  0  0  0  0  0  0  0  0  0
    5.3329    3.5211    0.0000 C   0  0  0  0  0  0  0  0  0  0  0  0
    5.3329    4.3461    0.0000 C   0  0  0  0  0  0  0  0  0  0  0  0
    4.6184    4.7586    0.0000 C   0  0  0  0  0  0  0  0  0  0  0  0
    3.9039    4.3461    0.0000 C   0  0  0  0  0  0  0  0  0  0  0  0
    3.1895    4.7586    0.0000 C   0  0  0  0  0  0  0  0  0  0  0  0
  1  2  1  0
  2  3  1  0
  3  4  1  0
  4  5  2  0
  4  6  1  0
  6  7  1  0
  7  8  1  0
  8  9  1  0
  9 10  2  0
 10 11  1  0
 11 12  1  0
 12 13  2  0
 13 14  1  0
 14 15  1  0
 15 16  2  0
 16 17  1  0
 17 18  2  0
 19 18  1  0
 19 20  1  6
 19 21  1  0
 21 22  1  0
 22 23  2  0
 23 24  1  0
 24 25  1  0
M  END
>  <DRUGBANK_ID>  (1) 
DB18100

>  <COMMON_NAME>  (1) 
Epeleuton

>  <CAS_NUMBER>  (1) 
1667760-39-5

>  <UNII>  (1) 
FA9BPX1T6V

>  <SYNONYMS>  (1) 
15(s)-hydroxy-(5z,8z,11z,13e,17z)-eicosapentaenoic acid ethyl ester; 5,8,11,13,17-eicosapentaenoic acid, 15-hydroxy-, ethyl ester, (5z,8z,11z,13e,15s,17z)-

$$$$
