509
     RDKit          2D

 20 21  0  0  0  0  0  0  0  0999 V2000
   -0.6236    3.0007    0.0000 C   0  0  0  0  0  0  0  0  0  0  0  0
    0.0909    2.5882    0.0000 C   0  0  0  0  0  0  0  0  0  0  0  0
    0.0909    1.7632    0.0000 C   0  0  0  0  0  0  0  0  0  0  0  0
   -0.6236    1.3507    0.0000 C   0  0  0  0  0  0  0  0  0  0  0  0
   -1.3381    1.7632    0.0000 C   0  0  0  0  0  0  0  0  0  0  0  0
   -1.3381    2.5882    0.0000 C   0  0  0  0  0  0  0  0  0  0  0  0
   -0.6236    0.5257    0.0000 C   0  0  0  0  0  0  0  0  0  0  0  0
    0.0439    0.0408    0.0000 C   0  0  0  0  0  0  0  0  0  0  0  0
   -0.2111   -0.7439    0.0000 C   0  0  0  0  0  0  0  0  0  0  0  0
   -1.0361   -0.7439    0.0000 C   0  0  0  0  0  0  0  0  0  0  0  0
   -1.2910    0.0408    0.0000 S   0  0  0  0  0  0  0  0  0  0  0  0
   -1.5210   -1.4113    0.0000 C   0  0  0  0  0  0  0  0  0  0  0  0
   -2.3415   -1.3251    0.0000 O   0  0  0  0  0  0  0  0  0  0  0  0
   -1.1855   -2.1650    0.0000 O   0  0  0  0  0  0  0  0  0  0  0  0
    0.2738   -1.4113    0.0000 O   0  0  0  0  0  0  0  0  0  0  0  0
    1.0943   -1.3251    0.0000 C   0  0  0  0  0  0  0  0  0  0  0  0
    1.5792   -1.9925    0.0000 C   0  0  0  0  0  0  0  0  0  0  0  0
    2.3997   -1.9063    0.0000 O   0  0  0  0  0  0  0  0  0  0  0  0
    1.2437   -2.7462    0.0000 O   0  0  0  0  0  0  0  0  0  0  0  0
    0.8285    0.2957    0.0000 Br  0  0  0  0  0  0  0  0  0  0  0  0
  1  2  2  0
  1  6  1  0
  2  3  1  0
  3  4  2  0
  4  5  1  0
  4  7  1  0
  5  6  2  0
  7  8  2  0
  7 11  1  0
  8  9  1  0
  8 20  1  0
  9 10  2  0
  9 15  1  0
 10 11  1  0
 10 12  1  0
 12 13  2  0
 12 14  1  0
 15 16  1  0
 16 17  1  0
 17 18  2  0
 17 19  1  0
M  END
>  <DRUGBANK_ID>  (1) 
DB07130

>  <COMMON_NAME>  (1) 
4-BROMO-3-(CARBOXYMETHOXY)-5-PHENYLTHIOPHENE-2-CARBOXYLIC ACID

$$$$
