
     RDKit          2D

 37 38  0  0  1  0  0  0  0  0999 V2000
    5.9370   -0.8250    0.0000 S   0  0  0  0  0  0  0  0  0  0  0  0
    3.0791   -0.8250    0.0000 O   0  0  0  0  0  0  0  0  0  0  0  0
    5.9370    0.0000    0.0000 O   0  0  0  0  0  0  0  0  0  0  0  0
    2.3645   -1.2375    0.0000 O   0  0  0  0  0  0  0  0  0  0  0  0
    6.6515    3.7126    0.0000 O   0  0  0  0  0  0  0  0  0  0  0  0
    1.6500   -2.4751    0.0000 O   0  0  0  0  0  0  0  0  0  0  0  0
    7.3659    2.4751    0.0000 O   0  0  0  0  0  0  0  0  0  0  0  0
    4.5080    0.0000    0.0000 N   0  0  0  0  0  0  0  0  0  0  0  0
    3.7935   -2.0625    0.0000 N   0  0  0  0  0  0  0  0  0  0  0  0
    5.2224    2.8876    0.0000 N   0  0  0  0  0  0  0  0  0  0  0  0
    4.5080   -0.8250    0.0000 C   0  0  0  0  0  0  0  0  0  0  0  0
    5.9370    1.6500    0.0000 C   0  0  0  0  0  0  0  0  0  0  0  0
    5.2224    1.2375    0.0000 C   0  0  0  0  0  0  0  0  0  0  0  0
    5.2224   -1.2375    0.0000 C   0  0  0  0  0  0  0  0  0  0  0  0
    3.7935   -1.2375    0.0000 C   0  0  0  0  0  0  0  0  0  0  0  0
    3.0791   -2.4751    0.0000 C   0  0  0  0  0  0  0  0  0  0  0  0
    5.9370    2.4751    0.0000 C   0  0  0  0  0  0  0  0  0  0  0  0
    5.2224    0.4125    0.0000 C   0  0  0  0  0  0  0  0  0  0  0  0
    3.0791   -3.3001    0.0000 C   0  0  0  0  0  0  0  0  0  0  0  0
    2.3645   -2.0625    0.0000 C   0  0  0  0  0  0  0  0  0  0  0  0
    6.6515    2.8876    0.0000 C   0  0  0  0  0  0  0  0  0  0  0  0
    6.6515   -1.2375    0.0000 C   0  0  0  0  0  0  0  0  0  0  0  0
    3.7935   -3.7126    0.0000 C   0  0  0  0  0  0  0  0  0  0  0  0
    2.3645   -3.7126    0.0000 C   0  0  0  0  0  0  0  0  0  0  0  0
    7.3659   -0.8250    0.0000 C   0  0  0  0  0  0  0  0  0  0  0  0
    3.7935   -4.5376    0.0000 C   0  0  0  0  0  0  0  0  0  0  0  0
    2.3645   -4.5376    0.0000 C   0  0  0  0  0  0  0  0  0  0  0  0
    3.0791   -4.9501    0.0000 C   0  0  0  0  0  0  0  0  0  0  0  0
    7.3659    0.0000    0.0000 C   0  0  0  0  0  0  0  0  0  0  0  0
    8.0804   -1.2375    0.0000 C   0  0  0  0  0  0  0  0  0  0  0  0
    1.6500   -0.8250    0.0000 C   0  0  0  0  0  0  0  0  0  0  0  0
    7.3659    4.1251    0.0000 C   0  0  0  0  0  0  0  0  0  0  0  0
    8.0804    0.4125    0.0000 C   0  0  0  0  0  0  0  0  0  0  0  0
    8.7949   -0.8250    0.0000 C   0  0  0  0  0  0  0  0  0  0  0  0
    8.7949    0.0000    0.0000 C   0  0  0  0  0  0  0  0  0  0  0  0
    1.6500    0.0000    0.0000 C   0  0  0  0  0  0  0  0  0  0  0  0
    7.3659    4.9501    0.0000 C   0  0  0  0  0  0  0  0  0  0  0  0
  1 14  1  0
  1 22  1  0
  2 15  2  0
  3 18  2  0
  4 20  1  0
  4 31  1  0
  5 21  1  0
  5 32  1  0
  6 20  2  0
  7 21  2  0
  8 18  1  0
  9 15  1  0
 11  8  1  0
 11 14  1  1
 11 15  1  0
 12 13  1  0
 12 17  1  0
 13 18  1  0
 16  9  1  6
 16 19  1  0
 16 20  1  0
 17 10  1  6
 17 21  1  0
 19 23  2  0
 19 24  1  0
 22 25  1  0
 23 26  1  0
 24 27  2  0
 25 29  2  0
 25 30  1  0
 26 28  2  0
 27 28  1  0
 29 33  1  0
 30 34  2  0
 31 36  1  0
 32 37  1  0
 33 35  2  0
 34 35  1  0
M  END
>  <DRUGBANK_ID>  (1) 
DB05460

>  <SECONDARY_ACCESSION_NUMBERS>  (1) 
DB12215

>  <COMMON_NAME>  (1) 
Ezatiostat

>  <CAS_NUMBER>  (1) 
168682-53-9

>  <UNII>  (1) 
057D10I8S8

>  <SYNONYMS>  (1) 
Ezatiostat; gamma-Glutamyl-S-(benzyl)-cysteinyl-R(-)-phenylglycine diethyl ester

$$$$
