
     RDKit          2D

 10 10  0  0  0  0  0  0  0  0999 V2000
   -0.7094    0.2062    0.0000 C   0  0  0  0  0  0  0  0  0  0  0  0
    0.0163   -0.1976    0.0000 C   0  0  0  0  0  0  0  0  0  0  0  0
   -1.4122   -0.1976    0.0000 C   0  0  0  0  0  0  0  0  0  0  0  0
   -0.7094    1.0312    0.0000 C   0  0  0  0  0  0  0  0  0  0  0  0
    0.0163   -1.0226    0.0000 C   0  0  0  0  0  0  0  0  0  0  0  0
   -1.4122   -1.0226    0.0000 C   0  0  0  0  0  0  0  0  0  0  0  0
    0.0048    1.4395    0.0000 N   0  0  0  0  0  0  0  0  0  0  0  0
   -0.7094   -1.4395    0.0000 C   0  0  0  0  0  0  0  0  0  0  0  0
    0.7078    1.0112    0.0000 C   0  0  0  0  0  0  0  0  0  0  0  0
    1.4122    0.5817    0.0000 S   0  0  0  0  0  0  0  0  0  0  0  0
  1  2  2  0
  1  3  1  0
  1  4  1  0
  2  5  1  0
  3  6  2  0
  4  7  1  0
  5  8  2  0
  6  8  1  0
  7  9  2  0
  9 10  2  0
M  END
>  <DRUGBANK_ID>  (1) 
DB16860

>  <COMMON_NAME>  (1) 
Benzyl isothiocyanate

>  <CAS_NUMBER>  (1) 
622-78-6

>  <UNII>  (1) 
871J6YOR8Q

>  <SYNONYMS>  (1) 
Benzyl mustard oil

$$$$
