
     RDKit          2D

 39 41  0  0  0  0  0  0  0  0999 V2000
    1.6499    1.0996    0.0000 O   0  0  0  0  0  0  0  0  0  0  0  0
    1.2374    1.8141    0.0000 O   0  0  0  0  0  0  0  0  0  0  0  0
   -3.2999   -1.7581    0.0000 O   0  0  0  0  0  0  0  0  0  0  0  0
   -4.9499   -1.7581    0.0000 O   0  0  0  0  0  0  0  0  0  0  0  0
   -2.8112    2.4424    0.0000 O   0  0  0  0  0  0  0  0  0  0  0  0
   -4.9499   -0.3291    0.0000 O   0  0  0  0  0  0  0  0  0  0  0  0
   -1.8927    1.3478    0.0000 O   0  0  0  0  0  0  0  0  0  0  0  0
    0.0000    1.0996    0.0000 N   0  0  0  0  0  0  0  0  0  0  0  0
    1.6499   -0.3290    0.0000 N   0  0  0  0  0  0  0  0  0  0  0  0
   -3.2999   -0.3291    0.0000 N   0  0  0  0  0  0  0  0  0  0  0  0
    0.0000   -0.3291    0.0000 C   0  0  0  0  0  0  0  0  0  0  0  0
    0.4124    0.3852    0.0000 C   0  0  0  0  0  0  0  0  0  0  0  0
   -0.8250   -0.3291    0.0000 C   0  0  0  0  0  0  0  0  0  0  0  0
   -1.2374   -1.0436    0.0000 C   0  0  0  0  0  0  0  0  0  0  0  0
   -2.0625   -1.0436    0.0000 C   0  0  0  0  0  0  0  0  0  0  0  0
   -2.4749   -0.3291    0.0000 C   0  0  0  0  0  0  0  0  0  0  0  0
   -1.2374    0.3851    0.0000 C   0  0  0  0  0  0  0  0  0  0  0  0
    1.2374    0.3852    0.0000 C   0  0  0  0  0  0  0  0  0  0  0  0
   -2.0625    0.3851    0.0000 C   0  0  0  0  0  0  0  0  0  0  0  0
    2.4749   -0.3290    0.0000 C   0  0  0  0  0  0  0  0  0  0  0  0
    2.8875   -1.0435    0.0000 C   0  0  0  0  0  0  0  0  0  0  0  0
   -0.7963   -1.7812    0.0000 C   0  0  0  0  0  0  0  0  0  0  0  0
    3.7125   -1.0435    0.0000 C   0  0  0  0  0  0  0  0  0  0  0  0
   -2.5036   -1.7812    0.0000 C   0  0  0  0  0  0  0  0  0  0  0  0
    4.1250   -1.7580    0.0000 C   0  0  0  0  0  0  0  0  0  0  0  0
   -1.2202   -2.5287    0.0000 C   0  0  0  0  0  0  0  0  0  0  0  0
   -2.0796   -2.5287    0.0000 C   0  0  0  0  0  0  0  0  0  0  0  0
   -3.7125    0.3851    0.0000 C   0  0  0  0  0  0  0  0  0  0  0  0
    0.4123    1.8141    0.0000 C   0  0  0  0  0  0  0  0  0  0  0  0
   -3.7125   -1.0436    0.0000 C   0  0  0  0  0  0  0  0  0  0  0  0
   -3.2999    1.0996    0.0000 C   0  0  0  0  0  0  0  0  0  0  0  0
    4.9499   -1.7580    0.0000 C   0  0  0  0  0  0  0  0  0  0  0  0
   -4.5375    0.3851    0.0000 C   0  0  0  0  0  0  0  0  0  0  0  0
    0.0000    2.5287    0.0000 C   0  0  0  0  0  0  0  0  0  0  0  0
   -3.7125    1.8141    0.0000 C   0  0  0  0  0  0  0  0  0  0  0  0
   -4.9499    1.0996    0.0000 C   0  0  0  0  0  0  0  0  0  0  0  0
   -4.5375    1.8141    0.0000 C   0  0  0  0  0  0  0  0  0  0  0  0
   -4.5375   -1.0436    0.0000 C   0  0  0  0  0  0  0  0  0  0  0  0
   -2.6680    1.6298    0.0000 C   0  0  0  0  0  0  0  0  0  0  0  0
  1 18  2  0
  2 29  2  0
  3 30  2  0
  4 38  1  0
  5 39  1  0
  6 38  2  0
  7 39  2  0
  8 29  1  0
  9 18  1  0
  9 20  1  0
 10 16  1  0
 10 28  1  0
 10 30  1  0
 12 11  1  6
 11 13  1  0
 12  8  1  0
 12 18  1  0
 13 14  2  0
 13 17  1  0
 14 15  1  0
 14 22  1  0
 15 16  2  0
 15 24  1  0
 16 19  1  0
 17 19  2  0
 20 21  1  0
 21 23  1  0
 22 26  2  0
 23 25  1  0
 24 27  2  0
 25 32  1  0
 26 27  1  0
 28 31  2  0
 28 33  1  0
 29 34  1  0
 30 38  1  0
 31 35  1  0
 31 39  1  0
 33 36  2  0
 35 37  2  0
 36 37  1  0
M  END
>  <DRUGBANK_ID>  (1) 
DB01820

>  <SECONDARY_ACCESSION_NUMBERS>  (1) 
EXPT00349

>  <COMMON_NAME>  (1) 
2-{[4-(2-Acetylamino-2-pentylcarbamoyl-ethyl)-naphthalen-1-YL]-oxalyl-amino}-benzoic acid

$$$$
