
     RDKit          2D

 26 29  0  0  0  0  0  0  0  0999 V2000
   -3.2700   -0.2685    0.0000 C   0  0  0  0  0  0  0  0  0  0  0  0
   -3.8098   -0.8736    0.0000 C   0  0  0  0  0  0  0  0  0  0  0  0
   -3.6988   -1.7387    0.0000 O   0  0  0  0  0  0  0  0  0  0  0  0
   -2.8464   -2.0278    0.0000 C   0  0  0  0  0  0  0  0  0  0  0  0
   -2.2474   -1.4750    0.0000 C   0  0  0  0  0  0  0  0  0  0  0  0
   -2.3970   -0.5757    0.0000 N   0  0  0  0  0  0  0  0  0  0  0  0
   -1.7321   -0.0424    0.0000 C   0  0  0  0  0  0  0  0  0  0  0  0
   -1.9085    0.7553    0.0000 C   0  0  0  0  0  0  0  0  0  0  0  0
   -1.2653    1.2886    0.0000 C   0  0  0  0  0  0  0  0  0  0  0  0
   -0.9070   -0.3115    0.0000 C   0  0  0  0  0  0  0  0  0  0  0  0
   -0.2639    0.2218    0.0000 C   0  0  0  0  0  0  0  0  0  0  0  0
   -0.4409    1.0276    0.0000 C   0  0  0  0  0  0  0  0  0  0  0  0
    0.1555    1.5566    0.0000 N   0  0  0  0  0  0  0  0  0  0  0  0
    0.9412    1.5161    0.0000 C   0  0  0  0  0  0  0  0  0  0  0  0
    1.2553    0.7932    0.0000 N   0  0  0  0  0  0  0  0  0  0  0  0
    1.4198    2.2016    0.0000 N   0  0  0  0  0  0  0  0  0  0  0  0
    2.2038    2.1867    0.0000 C   0  0  0  0  0  0  0  0  0  0  0  0
    2.5491    1.4494    0.0000 C   0  0  0  0  0  0  0  0  0  0  0  0
    2.0518    0.7372    0.0000 C   0  0  0  0  0  0  0  0  0  0  0  0
    2.3491   -0.0105    0.0000 C   0  0  0  0  0  0  0  0  0  0  0  0
    1.7863   -0.9017    0.0000 S   0  0  0  0  0  0  0  0  0  0  0  0
    3.1361   -0.1433    0.0000 C   0  0  0  0  0  0  0  0  0  0  0  0
    3.8098    0.5284    0.0000 C   0  0  0  0  0  0  0  0  0  0  0  0
    3.2626   -0.9092    0.0000 N   0  0  0  0  0  0  0  0  0  0  0  0
    2.5977   -1.4158    0.0000 C   0  0  0  0  0  0  0  0  0  0  0  0
    2.5715   -2.2016    0.0000 N   0  0  0  0  0  0  0  0  0  0  0  0
  1  2  1  0
  1  6  1  0
  2  3  1  0
  3  4  1  0
  4  5  1  0
  5  6  1  0
  6  7  1  0
  7  8  2  0
  7 10  1  0
  8  9  1  0
  9 12  2  0
 10 11  2  0
 11 12  1  0
 12 13  1  0
 13 14  2  0
 14 15  1  0
 14 16  1  0
 15 19  2  0
 16 17  2  0
 17 18  1  0
 18 19  1  0
 19 20  1  0
 20 21  1  0
 20 22  2  0
 21 25  1  0
 22 23  1  0
 22 24  1  0
 24 25  2  0
 25 26  1  0
M  END
>  <DRUGBANK_ID>  (1) 
DB08219

>  <COMMON_NAME>  (1) 
4-Methyl-5-[(2Z)-2-{[4-(4-morpholinyl)phenyl]imino}-2,5-dihydro-4-pyrimidinyl]-1,3-thiazol-2-amine

>  <CAS_NUMBER>  (1) 
1059105-22-4

$$$$
