
     RDKit          2D

 30 30  0  0  0  0  0  0  0  0999 V2000
    3.2151   -2.8874    0.0000 N   0  0  0  0  0  0  0  0  0  0  0  0
    3.2151   -2.0624    0.0000 C   0  0  0  0  0  0  0  0  0  0  0  0
    2.5006   -1.6499    0.0000 C   0  0  0  0  0  0  0  0  0  0  0  0
    1.7861   -2.0624    0.0000 C   0  0  0  0  0  0  0  0  0  0  0  0
    1.0717   -1.6499    0.0000 C   0  0  0  0  0  0  0  0  0  0  0  0
    1.0717   -0.8249    0.0000 O   0  0  0  0  0  0  0  0  0  0  0  0
    0.3572   -2.0624    0.0000 N   0  0  0  0  0  0  0  0  0  0  0  0
   -0.3573   -1.6499    0.0000 C   0  0  0  0  0  0  0  0  0  0  0  0
   -0.3573   -0.8249    0.0000 C   0  0  0  0  0  0  0  0  0  0  0  0
   -1.0716   -0.4124    0.0000 S   0  0  0  0  0  0  0  0  0  0  0  0
   -1.0716   -2.0626    0.0000 C   0  0  0  0  0  0  0  0  0  0  0  0
   -1.0716   -2.8876    0.0000 O   0  0  0  0  0  0  0  0  0  0  0  0
   -1.7862   -1.6501    0.0000 N   0  0  0  0  0  0  0  0  0  0  0  0
   -2.5006   -2.0626    0.0000 C   0  0  0  0  0  0  0  0  0  0  0  0
   -3.2151   -1.6501    0.0000 C   0  0  0  0  0  0  0  0  0  0  0  0
   -3.2151   -0.8251    0.0000 O   0  0  0  0  0  0  0  0  0  0  0  0
   -3.9295   -2.0626    0.0000 O   0  0  0  0  0  0  0  0  0  0  0  0
    3.9296   -1.6501    0.0000 C   0  0  0  0  0  0  0  0  0  0  0  0
    3.9296   -0.8249    0.0000 O   0  0  0  0  0  0  0  0  0  0  0  0
    4.6440   -2.0626    0.0000 O   0  0  0  0  0  0  0  0  0  0  0  0
   -1.0715    0.4125    0.0000 C   0  0  0  0  0  0  0  0  0  0  0  0
   -1.7860    0.8251    0.0000 C   0  0  0  0  0  0  0  0  0  0  0  0
   -2.5005    0.4126    0.0000 C   0  0  0  0  0  0  0  0  0  0  0  0
   -3.2150    0.8251    0.0000 C   0  0  0  0  0  0  0  0  0  0  0  0
   -3.2150    1.6501    0.0000 C   0  0  0  0  0  0  0  0  0  0  0  0
   -2.5005    2.0626    0.0000 C   0  0  0  0  0  0  0  0  0  0  0  0
   -1.7860    1.6500    0.0000 C   0  0  0  0  0  0  0  0  0  0  0  0
   -3.9294    2.0626    0.0000 N   0  0  0  0  0  0  0  0  0  0  0  0
   -3.9294    2.8876    0.0000 O   0  0  0  0  0  0  0  0  0  0  0  0
   -4.6440    1.6501    0.0000 O   0  0  0  0  0  0  0  0  0  0  0  0
  2  1  1  1
  2  3  1  0
  2 18  1  0
  3  4  1  0
  4  5  1  0
  5  6  2  0
  5  7  1  0
  7  8  1  0
  8  9  1  6
  8 11  1  0
  9 10  1  0
 10 21  1  0
 11 12  2  0
 11 13  1  0
 13 14  1  0
 14 15  1  0
 15 16  2  0
 15 17  1  0
 18 19  2  0
 18 20  1  0
 21 22  1  0
 22 23  2  0
 23 24  1  0
 24 25  2  0
 25 26  1  0
 25 28  1  0
 26 27  2  0
 27 22  1  0
 28 29  2  0
 28 30  1  0
M  CHG  2  28   1  30  -1
M  END
>  <DRUGBANK_ID>  (1) 
DB03686

>  <SECONDARY_ACCESSION_NUMBERS>  (1) 
EXPT01653

>  <COMMON_NAME>  (1) 
S-(4-nitrobenzyl)glutathione

>  <CAS_NUMBER>  (1) 
6803-19-6

>  <SYNONYMS>  (1) 
S-(p-nitrobenzyl)glutathione

$$$$
