
     RDKit          2D

 28 31  0  0  0  0  0  0  0  0999 V2000
    0.3522    0.8344    0.0000 C   0  0  0  0  0  0  0  0  0  0  0  0
    0.3522    0.0092    0.0000 C   0  0  0  0  0  0  0  0  0  0  0  0
    0.3522   -0.8242    0.0000 C   0  0  0  0  0  0  0  0  0  0  0  0
    1.0669    0.4249    0.0000 C   0  0  0  0  0  0  0  0  0  0  0  0
   -0.3604    0.4249    0.0000 C   0  0  0  0  0  0  0  0  0  0  0  0
   -0.3604   -1.2398    0.0000 C   0  0  0  0  0  0  0  0  0  0  0  0
    1.7794   -0.8242    0.0000 C   0  0  0  0  0  0  0  0  0  0  0  0
    1.0669    1.2501    0.0000 C   0  0  0  0  0  0  0  0  0  0  0  0
    1.7814    0.8365    0.0000 O   0  0  0  0  0  0  0  0  0  0  0  0
    1.7794    0.0092    0.0000 C   0  0  0  0  0  0  0  0  0  0  0  0
   -1.0730    0.0092    0.0000 C   0  0  0  0  0  0  0  0  0  0  0  0
   -1.0730   -0.8242    0.0000 C   0  0  0  0  0  0  0  0  0  0  0  0
   -0.3604   -2.0712    0.0000 C   0  0  0  0  0  0  0  0  0  0  0  0
    1.7814    1.6617    0.0000 C   0  0  0  0  0  0  0  0  0  0  0  0
    0.3502    1.6617    0.0000 O   0  0  0  0  0  0  0  0  0  0  0  0
   -1.7855   -1.2398    0.0000 C   0  0  0  0  0  0  0  0  0  0  0  0
   -1.0730   -2.4869    0.0000 C   0  0  0  0  0  0  0  0  0  0  0  0
    2.4961    1.2501    0.0000 O   0  0  0  0  0  0  0  0  0  0  0  0
   -1.7855   -0.4146    0.0000 C   0  0  0  0  0  0  0  0  0  0  0  0
   -1.7855   -2.0712    0.0000 C   0  0  0  0  0  0  0  0  0  0  0  0
   -2.4981   -0.8242    0.0000 C   0  0  0  0  0  0  0  0  0  0  0  0
    3.2108    1.6617    0.0000 C   0  0  0  0  0  0  0  0  0  0  0  0
   -2.4981   -2.4869    0.0000 C   0  0  0  0  0  0  0  0  0  0  0  0
   -3.2108   -1.2398    0.0000 C   0  0  0  0  0  0  0  0  0  0  0  0
    3.9254    1.2501    0.0000 C   0  0  0  0  0  0  0  0  0  0  0  0
    3.2108    2.4869    0.0000 O   0  0  0  0  0  0  0  0  0  0  0  0
   -3.2108   -2.0712    0.0000 C   0  0  0  0  0  0  0  0  0  0  0  0
   -3.9254   -2.4828    0.0000 O   0  0  0  0  0  0  0  0  0  0  0  0
  2  1  1  1
  2  4  1  0
  2  5  1  0
  3  2  1  0
  3  7  1  1
  4  8  1  0
  4  9  1  6
  4 10  1  0
  5 11  1  0
  6  3  1  0
  6 12  1  0
  6 13  1  6
  7 10  1  0
  8 14  1  0
  8 15  2  0
 11 12  2  0
 13 17  1  0
 14 18  1  0
 16 12  1  0
 16 19  1  1
 16 20  1  0
 16 21  1  0
 17 20  1  0
 18 22  1  0
 20 23  2  0
 21 24  1  0
 22 25  1  0
 22 26  2  0
 23 27  1  0
 24 27  1  0
 27 28  2  0
M  END
>  <DRUGBANK_ID>  (1) 
DB05288

>  <COMMON_NAME>  (1) 
Anecortave acetate

>  <CAS_NUMBER>  (1) 
7753-60-8

>  <UNII>  (1) 
Y0PC411K4T

>  <SYNONYMS>  (1) 
Anecortave acetate

$$$$
