
     RDKit          2D

 11 10  0  0  1  0  0  0  0  0999 V2000
    4.6184    2.6664    0.0000 C   0  0  0  0  0  0  0  0  0  0  0  0
    4.6184    1.8414    0.0000 C   0  0  0  0  0  0  0  0  0  0  0  0
    3.9039    1.4289    0.0000 C   0  0  0  0  0  0  0  0  0  0  0  0
    3.1895    1.8414    0.0000 C   0  0  0  0  0  0  0  0  0  0  0  0
    2.4750    1.4289    0.0000 C   0  0  0  0  0  0  0  0  0  0  0  0
    1.7605    1.8414    0.0000 C   0  0  0  0  0  0  0  0  0  0  0  0
    1.0461    2.2539    0.0000 C   0  0  0  0  0  0  0  0  0  0  0  0
    1.3480    1.1270    0.0000 C   0  0  0  0  0  0  0  0  0  0  0  0
    2.1730    2.5559    0.0000 O   0  0  0  0  0  0  0  0  0  0  0  0
    5.3329    1.4289    0.0000 C   0  0  0  0  0  0  0  0  0  0  0  0
    6.0474    1.8414    0.0000 C   0  0  0  0  0  0  0  0  0  0  0  0
  2  1  1  6
  2  3  1  0
  2 10  1  0
  3  4  1  0
  4  5  1  0
  5  6  1  0
  6  7  1  0
  6  8  1  0
  6  9  1  0
 10 11  2  0
M  END
>  <DRUGBANK_ID>  (1) 
DB02273

>  <SECONDARY_ACCESSION_NUMBERS>  (1) 
EXPT01192

>  <COMMON_NAME>  (1) 
2,6-Dimethyl-7-Octen-2-Ol

>  <CAS_NUMBER>  (1) 
18479-58-8

>  <UNII>  (1) 
46L1B02ND9

$$$$
