
     RDKit          2D

 34 33  0  0  1  0  0  0  0  0999 V2000
    2.6348    0.3350    0.0000 Cr  0  0  0  0  0 15  0  0  0  0  0  0
    0.4914    0.7475    0.0000 N   0  0  0  0  0  0  0  0  0  0  0  0
    0.4914   -0.0775    0.0000 C   0  0  0  0  0  0  0  0  0  0  0  0
   -0.2231   -0.4900    0.0000 C   0  0  0  0  0  0  0  0  0  0  0  0
   -0.9375   -0.0775    0.0000 C   0  0  0  0  0  0  0  0  0  0  0  0
   -1.6912   -0.4130    0.0000 C   0  0  0  0  0  0  0  0  0  0  0  0
   -2.2433    0.2001    0.0000 N   0  0  0  0  0  0  0  0  0  0  0  0
   -1.8308    0.9146    0.0000 C   0  0  0  0  0  0  0  0  0  0  0  0
   -1.0238    0.7430    0.0000 N   0  0  0  0  0  0  0  0  0  0  0  0
    1.2059   -0.4900    0.0000 C   0  0  0  0  0  0  0  0  0  0  0  0
    1.9203   -0.0775    0.0000 O   0  0  0  0  0  0  0  0  0  0  0  0
    1.2059   -1.3150    0.0000 O   0  0  0  0  0  0  0  0  0  0  0  0
    4.9919    0.2440    0.0000 N   0  0  0  0  0  0  0  0  0  0  0  0
    5.7064    0.6565    0.0000 C   0  0  0  0  0  0  0  0  0  0  0  0
    6.4209    0.2440    0.0000 C   0  0  0  0  0  0  0  0  0  0  0  0
    6.4209   -0.5810    0.0000 C   0  0  0  0  0  0  0  0  0  0  0  0
    7.0883   -1.0659    0.0000 C   0  0  0  0  0  0  0  0  0  0  0  0
    6.8334   -1.8506    0.0000 N   0  0  0  0  0  0  0  0  0  0  0  0
    6.0084   -1.8506    0.0000 C   0  0  0  0  0  0  0  0  0  0  0  0
    5.7535   -1.0659    0.0000 N   0  0  0  0  0  0  0  0  0  0  0  0
    5.7064    1.4815    0.0000 C   0  0  0  0  0  0  0  0  0  0  0  0
    4.9919    1.8940    0.0000 O   0  0  0  0  0  0  0  0  0  0  0  0
    6.4209    1.8940    0.0000 O   0  0  0  0  0  0  0  0  0  0  0  0
   -1.0392   -5.1506    0.0000 N   0  0  0  0  0  0  0  0  0  0  0  0
   -0.3248   -4.7381    0.0000 C   0  0  0  0  0  0  0  0  0  0  0  0
    0.3897   -5.1506    0.0000 C   0  0  0  0  0  0  0  0  0  0  0  0
    0.3897   -5.9756    0.0000 C   0  0  0  0  0  0  0  0  0  0  0  0
    1.0572   -6.4605    0.0000 C   0  0  0  0  0  0  0  0  0  0  0  0
    0.8022   -7.2451    0.0000 N   0  0  0  0  0  0  0  0  0  0  0  0
   -0.0228   -7.2451    0.0000 C   0  0  0  0  0  0  0  0  0  0  0  0
   -0.2777   -6.4605    0.0000 N   0  0  0  0  0  0  0  0  0  0  0  0
   -0.3248   -3.9131    0.0000 C   0  0  0  0  0  0  0  0  0  0  0  0
   -1.0392   -3.5006    0.0000 O   0  0  0  0  0  0  0  0  0  0  0  0
    0.3897   -3.5006    0.0000 O   0  0  0  0  0  0  0  0  0  0  0  0
  3  2  1  6
  3  4  1  0
  3 10  1  0
  4  5  1  0
  5  6  2  0
  5  9  1  0
  6  7  1  0
  7  8  2  0
  8  9  1  0
 10 11  1  0
 10 12  2  0
 14 13  1  6
 14 15  1  0
 14 21  1  0
 15 16  1  0
 16 17  2  0
 16 20  1  0
 17 18  1  0
 18 19  2  0
 19 20  1  0
 21 22  1  0
 21 23  2  0
 25 24  1  6
 25 26  1  0
 25 32  1  0
 26 27  1  0
 27 28  2  0
 27 31  1  0
 28 29  1  0
 29 30  2  0
 30 31  1  0
 32 33  1  0
 32 34  2  0
M  CHG  4   1   3  11  -1  22  -1  33  -1
M  END
>  <DRUGBANK_ID>  (1) 
DB18516

>  <COMMON_NAME>  (1) 
Chromium histidinate

>  <CAS_NUMBER>  (1) 
18984-90-2

>  <UNII>  (1) 
1BY3EP7D99

>  <SYNONYMS>  (1) 
Chromium, tris(histidinato)-; Chromium, tris(l-histidinato-n,o)-; Chromium, tris(l-histidinato)-

$$$$
