
     RDKit          2D

 17 18  0  0  0  0  0  0  0  0999 V2000
   -3.0992    0.3555    0.0000 O   0  0  0  0  0  0  0  0  0  0  0  0
   -1.8581    1.0738    0.0000 O   0  0  0  0  0  0  0  0  0  0  0  0
   -1.8581   -0.3555    0.0000 C   0  0  0  0  0  0  0  0  0  0  0  0
   -1.0354   -0.3555    0.0000 C   0  0  0  0  0  0  0  0  0  0  0  0
    0.6240   -0.3555    0.0000 C   0  0  0  0  0  0  0  0  0  0  0  0
   -0.6170   -1.0738    0.0000 C   0  0  0  0  0  0  0  0  0  0  0  0
   -0.6170    0.3555    0.0000 C   0  0  0  0  0  0  0  0  0  0  0  0
    0.2056   -1.0738    0.0000 C   0  0  0  0  0  0  0  0  0  0  0  0
    0.2056    0.3555    0.0000 C   0  0  0  0  0  0  0  0  0  0  0  0
   -2.2765   -1.0738    0.0000 C   0  0  0  0  0  0  0  0  0  0  0  0
    1.4467   -0.3555    0.0000 C   0  0  0  0  0  0  0  0  0  0  0  0
   -2.2765    0.3555    0.0000 C   0  0  0  0  0  0  0  0  0  0  0  0
    1.8651    0.3555    0.0000 C   0  0  0  0  0  0  0  0  0  0  0  0
    1.8651   -1.0738    0.0000 C   0  0  0  0  0  0  0  0  0  0  0  0
    2.6879    0.3555    0.0000 C   0  0  0  0  0  0  0  0  0  0  0  0
    2.6879   -1.0738    0.0000 C   0  0  0  0  0  0  0  0  0  0  0  0
    3.0992   -0.3555    0.0000 C   0  0  0  0  0  0  0  0  0  0  0  0
  1 12  1  0
  2 12  2  0
  3  4  1  0
  3 10  1  6
  3 12  1  0
  4  6  2  0
  4  7  1  0
  5  8  2  0
  5  9  1  0
  5 11  1  0
  6  8  1  0
  7  9  2  0
 11 13  2  0
 11 14  1  0
 13 15  1  0
 14 16  2  0
 15 17  2  0
 16 17  1  0
M  END
>  <DRUGBANK_ID>  (1) 
DB02047

>  <SECONDARY_ACCESSION_NUMBERS>  (1) 
EXPT00679

>  <COMMON_NAME>  (1) 
(+)-2-(4-biphenyl)propionic acid

>  <CAS_NUMBER>  (1) 
10532-14-6

>  <UNII>  (1) 
E4ZV1V9C3W

>  <SYNONYMS>  (1) 
(2S)-2-(4-Biphenylyl)propanoic acid; 2-(1,1'-biphenyl-4-yl)propanoic acid

$$$$
