PRB
     RDKit          2D

 29 32  0  0  0  0  0  0  0  0999 V2000
    1.5670    0.5942    0.0000 C   0  0  0  0  0  0  0  0  0  0  0  0
    2.3423    0.3124    0.0000 C   0  0  0  0  0  0  0  0  0  0  0  0
    2.3139   -0.5121    0.0000 C   0  0  0  0  0  0  0  0  0  0  0  0
    2.9643   -1.0197    0.0000 O   0  0  0  0  0  0  0  0  0  0  0  0
    1.5210   -0.7399    0.0000 C   0  0  0  0  0  0  0  0  0  0  0  0
    2.0974   -1.3302    0.0000 O   0  0  0  0  0  0  0  0  0  0  0  0
    1.2743   -1.5272    0.0000 C   0  0  0  0  0  0  0  0  0  0  0  0
    0.5050   -1.8251    0.0000 C   0  0  0  0  0  0  0  0  0  0  0  0
   -0.2076   -1.4094    0.0000 C   0  0  0  0  0  0  0  0  0  0  0  0
   -0.3269   -0.5931    0.0000 C   0  0  0  0  0  0  0  0  0  0  0  0
    0.2369    0.0092    0.0000 C   0  0  0  0  0  0  0  0  0  0  0  0
    0.7542    0.6519    0.0000 O   0  0  0  0  0  0  0  0  0  0  0  0
    1.0594   -0.0562    0.0000 C   0  0  0  0  0  0  0  0  0  0  0  0
   -0.0027    0.7986    0.0000 C   0  0  0  0  0  0  0  0  0  0  0  0
   -0.8062    0.9858    0.0000 C   0  0  0  0  0  0  0  0  0  0  0  0
   -1.0458    1.7752    0.0000 O   0  0  0  0  0  0  0  0  0  0  0  0
   -1.3700    0.3836    0.0000 C   0  0  0  0  0  0  0  0  0  0  0  0
   -1.1304   -0.4059    0.0000 C   0  0  0  0  0  0  0  0  0  0  0  0
   -1.9339   -0.2187    0.0000 C   0  0  0  0  0  0  0  0  0  0  0  0
   -2.7180    0.0378    0.0000 C   0  0  0  0  0  0  0  0  0  0  0  0
   -2.4431   -0.8678    0.0000 C   0  0  0  0  0  0  0  0  0  0  0  0
    0.5612    1.4008    0.0000 C   0  0  0  0  0  0  0  0  0  0  0  0
    3.0261    0.7741    0.0000 C   0  0  0  0  0  0  0  0  0  0  0  0
    0.4396   -2.6475    0.0000 C   0  0  0  0  0  0  0  0  0  0  0  0
   -0.3053   -3.0021    0.0000 O   0  0  0  0  0  0  0  0  0  0  0  0
   -1.9723    0.9474    0.0000 O   0  0  0  0  0  0  0  0  0  0  0  0
   -1.7851    1.7509    0.0000 C   0  0  0  0  0  0  0  0  0  0  0  0
   -2.3873    2.3148    0.0000 O   0  0  0  0  0  0  0  0  0  0  0  0
   -1.1083    2.2227    0.0000 C   0  0  0  0  0  0  0  0  0  0  0  0
  1  2  2  0
 13  1  1  6
  2  3  1  0
  2 23  1  0
  3  4  2  0
  3  5  1  0
  5  6  1  6
  5  7  1  0
  5 13  1  0
  7  8  1  0
  8  9  2  0
  8 24  1  0
 10  9  1  1
 10 11  1  0
 10 18  1  0
 11 12  1  1
 11 13  1  0
 11 14  1  0
 14 15  1  0
 14 22  1  1
 15 16  1  6
 15 17  1  0
 17 18  1  0
 17 19  1  0
 17 26  1  1
 18 19  1  6
 19 20  1  0
 19 21  1  0
 24 25  1  0
 26 27  1  0
 27 28  2  0
 27 29  1  0
M  END
>  <DRUGBANK_ID>  (1) 
DB04376

>  <SECONDARY_ACCESSION_NUMBERS>  (1) 
EXPT02656

>  <COMMON_NAME>  (1) 
13-Acetylphorbol

$$$$
