
     RDKit          2D

 29 33  0  0  0  0  0  0  0  0999 V2000
    0.4768    0.3981    0.0000 C   0  0  0  0  0  0  0  0  0  0  0  0
    1.1902   -0.0143    0.0000 N   0  0  0  0  0  0  0  0  0  0  0  0
    1.9036    0.3981    0.0000 C   0  0  0  0  0  0  0  0  0  0  0  0
    1.9036    1.2231    0.0000 C   0  0  0  0  0  0  0  0  0  0  0  0
    1.1902    1.6356    0.0000 C   0  0  0  0  0  0  0  0  0  0  0  0
    0.4768    1.2231    0.0000 N   0  0  0  0  0  0  0  0  0  0  0  0
    3.1727    0.8106    0.0000 N   0  0  0  0  0  0  0  0  0  0  0  0
    2.6897    0.1459    0.0000 N   0  0  0  0  0  0  0  0  0  0  0  0
    2.6897    1.4795    0.0000 C   0  0  0  0  0  0  0  0  0  0  0  0
    1.1902    2.4606    0.0000 O   0  0  0  0  0  0  0  0  0  0  0  0
    4.0078   -1.5943    0.0000 C   0  0  0  0  0  0  0  0  0  0  0  0
    3.7515   -0.8124    0.0000 C   0  0  0  0  0  0  0  0  0  0  0  0
    2.9462   -0.6401    0.0000 C   0  0  0  0  0  0  0  0  0  0  0  0
    2.3931   -1.2540    0.0000 C   0  0  0  0  0  0  0  0  0  0  0  0
    2.6452   -2.0360    0.0000 C   0  0  0  0  0  0  0  0  0  0  0  0
    3.4546   -2.2082    0.0000 O   0  0  0  0  0  0  0  0  0  0  0  0
   -1.1327   -1.0034    0.0000 N   0  0  0  0  0  0  0  0  0  0  0  0
   -0.3231   -0.8353    0.0000 C   0  0  0  0  0  0  0  0  0  0  0  0
   -0.2365   -0.0143    0.0000 C   0  0  0  0  0  0  0  0  0  0  0  0
   -0.9920    0.3237    0.0000 C   0  0  0  0  0  0  0  0  0  0  0  0
   -1.5451   -0.2900    0.0000 C   0  0  0  0  0  0  0  0  0  0  0  0
   -1.1642    1.1291    0.0000 C   0  0  0  0  0  0  0  0  0  0  0  0
   -1.5375   -1.7224    0.0000 C   0  0  0  0  0  0  0  0  0  0  0  0
   -2.3625   -1.7313    0.0000 C   0  0  0  0  0  0  0  0  0  0  0  0
   -2.7780   -1.0204    0.0000 N   0  0  0  0  0  0  0  0  0  0  0  0
   -3.6022   -1.0289    0.0000 C   0  0  0  0  0  0  0  0  0  0  0  0
   -4.0078   -1.7483    0.0000 C   0  0  0  0  0  0  0  0  0  0  0  0
   -3.5832   -2.4606    0.0000 C   0  0  0  0  0  0  0  0  0  0  0  0
   -2.7604   -2.4485    0.0000 N   0  0  0  0  0  0  0  0  0  0  0  0
  1  2  2  0
  1  6  1  0
  2  3  1  0
  3  4  2  0
  3  8  1  0
  4  5  1  0
  4  9  1  0
  5  6  1  0
  5 10  2  0
  7  8  1  0
  7  9  2  0
  8 13  1  0
 11 12  1  0
 11 16  1  0
 12 13  1  0
 13 14  1  0
 14 15  1  0
 15 16  1  0
 17 18  1  0
 17 21  1  0
 17 23  1  0
 18 19  1  0
 19 20  1  0
 19  1  1  6
 20 21  1  0
 20 22  1  1
 23 24  1  0
 24 25  2  0
 25 26  1  0
 26 27  2  0
 27 28  1  0
 28 29  2  0
 29 24  1  0
M  END
>  <DRUGBANK_ID>  (1) 
DB11953

>  <COMMON_NAME>  (1) 
PF-04447943

>  <CAS_NUMBER>  (1) 
1082744-20-4

>  <UNII>  (1) 
7N969W8Y4O

>  <SYNONYMS>  (1) 
4H-pyrazolo(3,4-d)pyrimidin-4-one, 1,5-dihydro-6-((3S,4S)-4-methyl-1-(2-pyrimidinylmethyl)-3-pyrrolidinyl)-1-(tetrahydro-2H-pyran-4-yl)-; 6-((3S,4S)-4-Methyl-1-(pyrimidin-2-ylmethyl)pyrrolidin-3-yl)-1-(tetrahydro-2H-pyran-4-yl)-1,5-dihydro-4H-pyrazolo(3,4-d)pyrimidin-4-one

$$$$
