
     RDKit          2D

 29 28  0  0  0  0  0  0  0  0999 V2000
   -2.4752   -0.8044    0.0000 O   0  0  0  0  0  0  0  0  0  0  0  0
   -2.0626   -1.5469    0.0000 C   0  0  0  0  0  0  0  0  0  0  0  0
   -1.2375   -1.5469    0.0000 C   0  0  0  0  0  0  0  0  0  0  0  0
   -0.8250   -0.8044    0.0000 N   0  0  0  0  0  0  0  0  0  0  0  0
    1.2375   -1.5469    0.0000 C   0  0  0  0  0  0  0  0  0  0  0  0
    2.0626   -1.5469    0.0000 C   0  0  0  0  0  0  0  0  0  0  0  0
    2.4752   -0.8456    0.0000 O   0  0  0  0  0  0  0  0  0  0  0  0
    0.8250   -0.8456    0.0000 N   0  0  0  0  0  0  0  0  0  0  0  0
   -0.8250    0.8456    0.0000 N   0  0  0  0  0  0  0  0  0  0  0  0
   -1.2375    1.5469    0.0000 C   0  0  0  0  0  0  0  0  0  0  0  0
   -2.0626    1.5469    0.0000 C   0  0  0  0  0  0  0  0  0  0  0  0
   -2.4752    0.8456    0.0000 O   0  0  0  0  0  0  0  0  0  0  0  0
    2.4752    0.8456    0.0000 O   0  0  0  0  0  0  0  0  0  0  0  0
    2.0626    1.5469    0.0000 C   0  0  0  0  0  0  0  0  0  0  0  0
    1.2375    1.5469    0.0000 C   0  0  0  0  0  0  0  0  0  0  0  0
    0.8250    0.8456    0.0000 N   0  0  0  0  0  0  0  0  0  0  0  0
    1.5263   -0.4332    0.0000 C   0  0  0  0  0  0  0  0  0  0  0  0
    1.5263    0.3918    0.0000 C   0  0  0  0  0  0  0  0  0  0  0  0
   -0.4125   -1.5469    0.0000 C   0  0  0  0  0  0  0  0  0  0  0  0
    0.4125   -1.5469    0.0000 C   0  0  0  0  0  0  0  0  0  0  0  0
   -1.5676    0.4332    0.0000 C   0  0  0  0  0  0  0  0  0  0  0  0
   -1.5676   -0.3918    0.0000 C   0  0  0  0  0  0  0  0  0  0  0  0
    0.4125    1.5469    0.0000 C   0  0  0  0  0  0  0  0  0  0  0  0
   -0.4125    1.5469    0.0000 C   0  0  0  0  0  0  0  0  0  0  0  0
    2.4752    2.2483    0.0000 O   0  0  0  0  0  0  0  0  0  0  0  0
    2.4752   -2.2483    0.0000 O   0  0  0  0  0  0  0  0  0  0  0  0
   -2.4752   -2.2483    0.0000 O   0  0  0  0  0  0  0  0  0  0  0  0
   -2.4752    2.2483    0.0000 O   0  0  0  0  0  0  0  0  0  0  0  0
   -0.1650   -0.1444    0.0000 Gd  0  0  0  0  0 15  0  0  0  0  0  0
  1  2  1  0
  2  3  1  0
  2 27  2  0
  3  4  1  0
  4 19  1  0
  5  6  1  0
  6  7  1  0
  6 26  2  0
  8 17  1  0
  8  5  1  0
  9 10  1  0
  9 21  1  0
 10 11  1  0
 11 12  1  0
 11 28  2  0
 13 14  1  0
 14 25  2  0
 14 15  1  0
 15 16  1  0
 16 23  1  0
 17 18  1  0
 18 16  1  0
 19 20  1  0
 20  8  1  0
 21 22  1  0
 22  4  1  0
 23 24  1  0
 24  9  1  0
M  CHG  4   1  -1  12  -1  13  -1  29   3
M  END
>  <DRUGBANK_ID>  (1) 
DB09132

>  <COMMON_NAME>  (1) 
Gadoteric acid

>  <CAS_NUMBER>  (1) 
72573-82-1

>  <UNII>  (1) 
QVF9Y6955W

>  <SYNONYMS>  (1) 
[2,2',2'',2'''-(1,4,7,10-tetraazacyclododecane-1,4,7,10-tetrayl-κ4N1,N4,N7,N10)tetraacetato(3−)]gadolinium; DOTA-Gd; Gadoterate; Gadoteric acid; Gd-DOTA

$$$$
