
     RDKit          2D

 17 18  0  0  0  0  0  0  0  0999 V2000
   -0.2505    0.9320    0.0000 C   0  0  0  0  0  0  0  0  0  0  0  0
    0.4639    0.5194    0.0000 C   0  0  0  0  0  0  0  0  0  0  0  0
    0.4639   -0.3055    0.0000 C   0  0  0  0  0  0  0  0  0  0  0  0
   -0.2505   -0.7181    0.0000 C   0  0  0  0  0  0  0  0  0  0  0  0
   -0.9651   -0.3055    0.0000 N   0  0  0  0  0  0  0  0  0  0  0  0
   -0.9651    0.5194    0.0000 C   0  0  0  0  0  0  0  0  0  0  0  0
   -0.7515   -1.1026    0.0000 C   0  0  0  0  0  0  0  0  0  0  0  0
    0.2504   -1.1026    0.0000 N   0  0  0  0  0  0  0  0  0  0  0  0
   -1.6795    0.9320    0.0000 C   0  0  0  0  0  0  0  0  0  0  0  0
   -1.6795    1.7571    0.0000 O   0  0  0  0  0  0  0  0  0  0  0  0
   -2.3942    0.5194    0.0000 N   0  0  0  0  0  0  0  0  0  0  0  0
   -1.2538   -1.7571    0.0000 O   0  0  0  0  0  0  0  0  0  0  0  0
    0.9650   -1.5151    0.0000 O   0  0  0  0  0  0  0  0  0  0  0  0
    1.6794   -1.1026    0.0000 S   0  0  0  0  0  0  0  0  0  0  0  0
    2.3942   -1.5151    0.0000 O   0  0  0  0  0  0  0  0  0  0  0  0
    2.0920   -0.3880    0.0000 O   0  0  0  0  0  0  0  0  0  0  0  0
    1.2669   -0.3880    0.0000 O   0  0  0  0  0  0  0  0  0  0  0  0
  1  2  1  0
  3  2  1  1
  3  4  1  0
  3  8  1  0
  4  5  1  0
  5  6  1  0
  5  7  1  0
  6  1  1  0
  6  9  1  6
  7  8  1  0
  7 12  2  0
  8 13  1  0
  9 10  2  0
  9 11  1  0
 13 14  1  0
 14 15  1  0
 14 16  2  0
 14 17  2  0
M  END
>  <DRUGBANK_ID>  (1) 
DB09060

>  <COMMON_NAME>  (1) 
Avibactam

>  <CAS_NUMBER>  (1) 
1192500-31-4

>  <UNII>  (1) 
7352665165

>  <SYNONYMS>  (1) 
Avibactam

$$$$
