
     RDKit          2D

 11  9  0  0  0  0  0  0  0  0999 V2000
    3.7125   -0.7145    0.0000 C   0  0  0  0  0  0  0  0  0  0  0  0
    2.4750   -1.4289    0.0000 C   0  0  0  0  0  0  0  0  0  0  0  0
    2.8875   -0.7145    0.0000 C   0  0  0  0  0  0  0  0  0  0  0  0
    4.1250   -1.4289    0.0000 O   0  0  0  0  0  0  0  0  0  0  0  0
    2.8875   -2.1434    0.0000 O   0  0  0  0  0  0  0  0  0  0  0  0
    0.8250    0.0000    0.0000 O   0  0  0  0  0  0  0  0  0  0  0  0
    1.6500    0.8250    0.0000 O   0  0  0  0  0  0  0  0  0  0  0  0
    1.6500   -0.8250    0.0000 O   0  0  0  0  0  0  0  0  0  0  0  0
    2.4750    0.0000    0.0000 O   0  0  0  0  0  0  0  0  0  0  0  0
    1.6500    0.0000    0.0000 P   0  0  0  0  0  0  0  0  0  0  0  0
    0.0000    0.0000    0.0000 Ca  0  0  0  0  0 15  0  0  0  0  0  0
  3  1  1  0
  3  2  1  0
  4  1  1  0
  5  2  1  0
  9  3  1  0
 10  6  1  0
 10  7  1  0
 10  8  2  0
 10  9  1  0
M  CHG  3   6  -1   7  -1  11   2
M  END
>  <DRUGBANK_ID>  (1) 
DB11264

>  <SECONDARY_ACCESSION_NUMBERS>  (1) 
DBSALT002553

>  <COMMON_NAME>  (1) 
Calcium glycerophosphate

>  <CAS_NUMBER>  (1) 
27214-00-2

>  <UNII>  (1) 
Y56W30YB7O

>  <SYNONYMS>  (1) 
1,2,3-Propanetriol, mono(dihydrogen phosphate) calcium salt; 1,2,3-Propanetriol, mono(dihydrogen phosphate), calcium salt; Calcium beta-glycerophosphate; calcium β-glycerophosphate; β-glycerophosphoric acid calcium salt

$$$$
