
     RDKit          2D

 27 30  0  0  0  0  0  0  0  0999 V2000
    0.2995    0.8498    0.0000 N   0  0  0  0  0  0  0  0  0  0  0  0
    0.2995    0.0248    0.0000 C   0  0  0  0  0  0  0  0  0  0  0  0
   -0.4148   -0.3876    0.0000 N   0  0  0  0  0  0  0  0  0  0  0  0
   -0.4148   -1.2126    0.0000 C   0  0  0  0  0  0  0  0  0  0  0  0
    0.2995   -1.6250    0.0000 N   0  0  0  0  0  0  0  0  0  0  0  0
    1.0140   -1.2125    0.0000 C   0  0  0  0  0  0  0  0  0  0  0  0
    1.0140   -0.3875    0.0000 C   0  0  0  0  0  0  0  0  0  0  0  0
    1.7285   -1.6250    0.0000 N   0  0  0  0  0  0  0  0  0  0  0  0
    1.7285   -2.4501    0.0000 C   0  0  0  0  0  0  0  0  0  0  0  0
    2.4429   -2.8626    0.0000 C   0  0  0  0  0  0  0  0  0  0  0  0
    3.1574   -2.4501    0.0000 O   0  0  0  0  0  0  0  0  0  0  0  0
    3.1574   -1.6250    0.0000 C   0  0  0  0  0  0  0  0  0  0  0  0
    2.4429   -1.2125    0.0000 C   0  0  0  0  0  0  0  0  0  0  0  0
   -1.1294   -1.6250    0.0000 N   0  0  0  0  0  0  0  0  0  0  0  0
   -1.8830   -1.2895    0.0000 N   0  0  0  0  0  0  0  0  0  0  0  0
   -2.4350   -1.9026    0.0000 C   0  0  0  0  0  0  0  0  0  0  0  0
   -2.0225   -2.6171    0.0000 C   0  0  0  0  0  0  0  0  0  0  0  0
   -1.2155   -2.4455    0.0000 C   0  0  0  0  0  0  0  0  0  0  0  0
   -3.2555   -1.8164    0.0000 C   0  0  0  0  0  0  0  0  0  0  0  0
    1.0140    1.2624    0.0000 C   0  0  0  0  0  0  0  0  0  0  0  0
    1.0140    2.0873    0.0000 C   0  0  0  0  0  0  0  0  0  0  0  0
    1.7285    2.4998    0.0000 C   0  0  0  0  0  0  0  0  0  0  0  0
    2.4429    2.0873    0.0000 C   0  0  0  0  0  0  0  0  0  0  0  0
    2.4429    1.2624    0.0000 C   0  0  0  0  0  0  0  0  0  0  0  0
    1.7285    0.8498    0.0000 C   0  0  0  0  0  0  0  0  0  0  0  0
    3.2555    1.9441    0.0000 F   0  0  0  0  0  0  0  0  0  0  0  0
    2.7251    2.8626    0.0000 F   0  0  0  0  0  0  0  0  0  0  0  0
  1  2  1  0
  1 20  1  0
  2  3  2  0
  2  7  1  0
  3  4  1  0
  4  5  2  0
  4 14  1  0
  6  5  1  0
  6  8  1  0
  7  6  2  0
  8  9  1  0
  8 13  1  0
  9 10  1  0
 10 11  1  0
 12 11  1  0
 13 12  1  0
 14 15  1  0
 14 18  1  0
 15 16  2  0
 16 17  1  0
 16 19  1  0
 18 17  2  0
 20 21  1  0
 20 25  1  0
 21 22  1  0
 22 23  1  0
 23 26  1  0
 23 27  1  0
 24 23  1  0
 25 24  1  0
M  END
>  <DRUGBANK_ID>  (1) 
DB16733

>  <COMMON_NAME>  (1) 
Rimtuzalcap

>  <CAS_NUMBER>  (1) 
2167246-24-2

>  <UNII>  (1) 
USO2D5J77R

>  <SYNONYMS>  (1) 
N-(4,4-difluorocyclohexyl)-2-(3-methyl-1H-pyrazol-1-yl)-6-morpholinopyrimidin-4-amine; Rimtuzalcap

$$$$
