
     RDKit          2D

 11 12  0  0  1  0  0  0  0  0999 V2000
    0.2085    0.3661    0.0000 C   0  0  0  0  0  0  0  0  0  0  0  0
    0.9988    0.1293    0.0000 C   0  0  0  0  0  0  0  0  0  0  0  0
    0.2085   -0.1075    0.0000 C   0  0  0  0  0  0  0  0  0  0  0  0
    1.2050    0.9543    0.0000 C   0  0  0  0  0  0  0  0  0  0  0  0
    0.4906    0.5418    0.0000 C   0  0  0  0  0  0  0  0  0  0  0  0
    0.4906   -0.2832    0.0000 C   0  0  0  0  0  0  0  0  0  0  0  0
    1.2050   -0.6957    0.0000 C   0  0  0  0  0  0  0  0  0  0  0  0
    1.2050   -1.5207    0.0000 C   0  0  0  0  0  0  0  0  0  0  0  0
    1.9195   -0.2832    0.0000 C   0  0  0  0  0  0  0  0  0  0  0  0
    2.6340   -0.6957    0.0000 O   0  0  0  0  0  0  0  0  0  0  0  0
    1.9195    0.5418    0.0000 C   0  0  0  0  0  0  0  0  0  0  0  0
  1  2  1  0
  2  3  1  0
  4  2  1  0
  4  5  1  6
  4 11  1  0
  5  6  1  0
  7  6  1  0
  7  2  1  0
  7  8  1  1
  7  9  1  0
  9 10  1  6
  9 11  1  0
M  END
>  <DRUGBANK_ID>  (1) 
DB17066

>  <COMMON_NAME>  (1) 
D-Borneol

>  <CAS_NUMBER>  (1) 
464-43-7

>  <UNII>  (1) 
8D24LWT4FK

>  <SYNONYMS>  (1) 
(1r,2s,4r)-borneol; Borneol d-form; Borneol, (+)-; Borneol, d-; D-camphanol

$$$$
