347
     RDKit          2D

 32 33  0  0  0  0  0  0  0  0999 V2000
   -1.0239    5.8892    0.0000 C   0  0  0  0  0  0  0  0  0  0  0  0
   -1.0239    5.0642    0.0000 C   0  0  0  0  0  0  0  0  0  0  0  0
   -1.0239    4.2392    0.0000 C   0  0  0  0  0  0  0  0  0  0  0  0
   -1.0239    3.4142    0.0000 C   0  0  0  0  0  0  0  0  0  0  0  0
   -0.3094    3.0017    0.0000 N   0  0  0  0  0  0  0  0  0  0  0  0
   -0.3094    2.1767    0.0000 C   0  0  0  0  0  0  0  0  0  0  0  0
    0.4050    1.7642    0.0000 C   0  0  0  0  0  0  0  0  0  0  0  0
    0.4050    0.9392    0.0000 C   0  0  0  0  0  0  0  0  0  0  0  0
   -0.3094    0.5267    0.0000 C   0  0  0  0  0  0  0  0  0  0  0  0
   -1.0239    0.9392    0.0000 C   0  0  0  0  0  0  0  0  0  0  0  0
   -1.0239    1.7642    0.0000 C   0  0  0  0  0  0  0  0  0  0  0  0
   -0.3094   -0.2983    0.0000 S   0  0  0  0  0  0  0  0  0  0  0  0
   -1.1344   -0.2983    0.0000 O   0  0  0  0  0  0  0  0  0  0  0  0
   -0.3094   -1.1233    0.0000 O   0  0  0  0  0  0  0  0  0  0  0  0
    0.5156   -0.2983    0.0000 C   0  0  0  0  0  0  0  0  0  0  0  0
    0.9281   -1.0128    0.0000 C   0  0  0  0  0  0  0  0  0  0  0  0
    1.5600   -1.5431    0.0000 C   0  0  0  0  0  0  0  0  0  0  0  0
    1.4168   -2.3555    0.0000 C   0  0  0  0  0  0  0  0  0  0  0  0
    0.6415   -2.6377    0.0000 N   0  0  0  0  0  0  0  0  0  0  0  0
    0.0095   -2.1074    0.0000 C   0  0  0  0  0  0  0  0  0  0  0  0
    0.1528   -1.2949    0.0000 C   0  0  0  0  0  0  0  0  0  0  0  0
    0.4983   -3.4502    0.0000 C   0  0  0  0  0  0  0  0  0  0  0  0
    1.1303   -3.9805    0.0000 O   0  0  0  0  0  0  0  0  0  0  0  0
   -0.2770   -3.7323    0.0000 O   0  0  0  0  0  0  0  0  0  0  0  0
   -0.9090   -3.2020    0.0000 C   0  0  0  0  0  0  0  0  0  0  0  0
   -1.5409   -2.6717    0.0000 C   0  0  0  0  0  0  0  0  0  0  0  0
   -0.3787   -2.5700    0.0000 C   0  0  0  0  0  0  0  0  0  0  0  0
   -1.4393   -3.8340    0.0000 C   0  0  0  0  0  0  0  0  0  0  0  0
    1.5600   -0.4825    0.0000 C   0  0  0  0  0  0  0  0  0  0  0  0
    2.3353   -0.7646    0.0000 O   0  0  0  0  0  0  0  0  0  0  0  0
    1.4168    0.3300    0.0000 N   0  0  0  0  0  0  0  0  0  0  0  0
    0.6415    0.6122    0.0000 O   0  0  0  0  0  0  0  0  0  0  0  0
  1  2  1  0
  2  3  3  0
  3  4  1  0
  4  5  1  0
  5  6  1  0
  6  7  2  0
  6 11  1  0
  7  8  1  0
  8  9  2  0
  9 12  1  0
  9 10  1  0
 10 11  2  0
 12 13  2  0
 12 14  2  0
 12 15  1  0
 15 16  1  0
 16 17  1  0
 16 29  1  0
 16 21  1  0
 17 18  1  0
 18 19  1  0
 19 22  1  0
 19 20  1  0
 20 21  1  0
 22 23  2  0
 22 24  1  0
 24 25  1  0
 25 27  1  0
 25 26  1  0
 25 28  1  0
 29 31  1  0
 29 30  2  0
 31 32  1  0
M  END
>  <DRUGBANK_ID>  (1) 
DB07013

>  <COMMON_NAME>  (1) 
TERT-BUTYL 4-({[4-(BUT-2-YN-1-YLAMINO)PHENYL]SULFONYL}METHYL)-4-[(HYDROXYAMINO)CARBONYL]PIPERIDINE-1-CARBOXYLATE

$$$$
