IHX
     RDKit          2D

 28 31  0  0  0  0  0  0  0  0999 V2000
   -2.9353   -1.6486    0.0000 C   0  0  0  0  0  0  0  0  0  0  0  0
   -2.9353   -0.8236    0.0000 C   0  0  0  0  0  0  0  0  0  0  0  0
   -2.2209   -2.0611    0.0000 C   0  0  0  0  0  0  0  0  0  0  0  0
   -2.2209   -0.4111    0.0000 C   0  0  0  0  0  0  0  0  0  0  0  0
   -1.5064   -1.6486    0.0000 C   0  0  0  0  0  0  0  0  0  0  0  0
   -1.5064   -0.8236    0.0000 C   0  0  0  0  0  0  0  0  0  0  0  0
   -2.2209    0.4139    0.0000 C   0  0  0  0  0  0  0  0  0  0  0  0
   -1.5064    0.8264    0.0000 C   0  0  0  0  0  0  0  0  0  0  0  0
   -2.9353    0.8264    0.0000 C   0  0  0  0  0  0  0  0  0  0  0  0
   -2.9353    1.6514    0.0000 C   0  0  0  0  0  0  0  0  0  0  0  0
   -0.0774    0.8264    0.0000 C   0  0  0  0  0  0  0  0  0  0  0  0
   -0.0774    1.6514    0.0000 C   0  0  0  0  0  0  0  0  0  0  0  0
    0.6370    0.4139    0.0000 N   0  0  0  0  0  0  0  0  0  0  0  0
    1.3515   -0.8236    0.0000 C   0  0  0  0  0  0  0  0  0  0  0  0
    1.3515    0.8264    0.0000 C   0  0  0  0  0  0  0  0  0  0  0  0
   -4.3643    2.4764    0.0000 F   0  0  0  0  0  0  0  0  0  0  0  0
   -3.6498    2.0639    0.0000 C   0  0  0  0  0  0  0  0  0  0  0  0
   -3.2373    2.7784    0.0000 F   0  0  0  0  0  0  0  0  0  0  0  0
   -4.0623    1.3495    0.0000 F   0  0  0  0  0  0  0  0  0  0  0  0
   -0.7919   -2.0611    0.0000 O   0  0  0  0  0  0  0  0  0  0  0  0
   -2.2209    2.0639    0.0000 C   0  0  0  0  0  0  0  0  0  0  0  0
   -1.5064    1.6514    0.0000 C   0  0  0  0  0  0  0  0  0  0  0  0
   -0.7919    2.0639    0.0000 N   0  0  0  0  0  0  0  0  0  0  0  0
   -0.7919    0.4139    0.0000 N   0  0  0  0  0  0  0  0  0  0  0  0
    2.0660    0.4139    0.0000 C   0  0  0  0  0  0  0  0  0  0  0  0
    2.0660   -0.4111    0.0000 N   0  0  0  0  0  0  0  0  0  0  0  0
    2.7804   -0.8236    0.0000 C   0  0  0  0  0  0  0  0  0  0  0  0
    0.6370   -0.4111    0.0000 C   0  0  0  0  0  0  0  0  0  0  0  0
  1  2  2  0
  1  3  1  0
  2  4  1  0
  3  5  2  0
  4  6  2  0
  4  7  1  0
  5  6  1  0
  5 20  1  0
  7  8  1  0
  7  9  2  0
  8 22  2  0
  8 24  1  0
  9 10  1  0
 10 17  1  0
 10 21  2  0
 11 12  1  0
 11 13  1  0
 11 24  2  0
 12 23  2  0
 13 15  1  0
 13 28  1  0
 14 26  1  0
 14 28  1  0
 15 25  1  0
 16 17  1  0
 17 18  1  0
 17 19  1  0
 21 22  1  0
 22 23  1  0
 25 26  1  0
 26 27  1  0
M  END
>  <DRUGBANK_ID>  (1) 
DB07969

>  <COMMON_NAME>  (1) 
3-[3-(4-methylpiperazin-1-yl)-7-(trifluoromethyl)quinoxalin-5-yl]phenol

$$$$
