
     RDKit          2D

 36 40  0  0  0  0  0  0  0  0999 V2000
   -1.8497   -1.7522    0.0000 F   0  0  0  0  0  0  0  0  0  0  0  0
    0.9016    0.8319    0.0000 O   0  0  0  0  0  0  0  0  0  0  0  0
   -2.4074    0.4043    0.0000 O   0  0  0  0  0  0  0  0  0  0  0  0
   -0.4089    1.7614    0.0000 O   0  0  0  0  0  0  0  0  0  0  0  0
    1.7568    1.3338    0.0000 O   0  0  0  0  0  0  0  0  0  0  0  0
   -4.6476   -2.5979    0.0000 O   0  0  0  0  0  0  0  0  0  0  0  0
    2.4725    2.5979    0.0000 O   0  0  0  0  0  0  0  0  0  0  0  0
    4.6476    0.4787    0.0000 N   0  0  0  0  0  0  0  0  0  0  0  0
   -0.4089   -0.9899    0.0000 C   0  0  0  0  0  0  0  0  0  0  0  0
   -1.1339   -1.3710    0.0000 C   0  0  0  0  0  0  0  0  0  0  0  0
   -0.4089   -0.1440    0.0000 C   0  0  0  0  0  0  0  0  0  0  0  0
   -1.8497   -0.9899    0.0000 C   0  0  0  0  0  0  0  0  0  0  0  0
    0.3067    0.2370    0.0000 C   0  0  0  0  0  0  0  0  0  0  0  0
   -2.5283   -1.3710    0.0000 C   0  0  0  0  0  0  0  0  0  0  0  0
   -1.8497   -0.1440    0.0000 C   0  0  0  0  0  0  0  0  0  0  0  0
   -1.1339    0.2370    0.0000 C   0  0  0  0  0  0  0  0  0  0  0  0
    1.0317   -0.9899    0.0000 C   0  0  0  0  0  0  0  0  0  0  0  0
    1.0317   -0.1440    0.0000 C   0  0  0  0  0  0  0  0  0  0  0  0
   -1.1339   -2.1703    0.0000 C   0  0  0  0  0  0  0  0  0  0  0  0
   -2.5283   -2.1703    0.0000 C   0  0  0  0  0  0  0  0  0  0  0  0
    0.3067    1.3431    0.0000 C   0  0  0  0  0  0  0  0  0  0  0  0
   -0.4089    0.6646    0.0000 C   0  0  0  0  0  0  0  0  0  0  0  0
   -1.8497   -2.5979    0.0000 C   0  0  0  0  0  0  0  0  0  0  0  0
   -3.2533   -0.9899    0.0000 C   0  0  0  0  0  0  0  0  0  0  0  0
   -2.5283   -0.5623    0.0000 C   0  0  0  0  0  0  0  0  0  0  0  0
   -3.2533   -2.5979    0.0000 C   0  0  0  0  0  0  0  0  0  0  0  0
    1.7381    0.2835    0.0000 C   0  0  0  0  0  0  0  0  0  0  0  0
    1.0317    1.7521    0.0000 C   0  0  0  0  0  0  0  0  0  0  0  0
   -3.9691   -1.3710    0.0000 C   0  0  0  0  0  0  0  0  0  0  0  0
   -3.9691   -2.1703    0.0000 C   0  0  0  0  0  0  0  0  0  0  0  0
    2.4725    1.7427    0.0000 C   0  0  0  0  0  0  0  0  0  0  0  0
    3.1882    1.3245    0.0000 C   0  0  0  0  0  0  0  0  0  0  0  0
    3.1789    0.4787    0.0000 C   0  0  0  0  0  0  0  0  0  0  0  0
    3.9226    1.7427    0.0000 C   0  0  0  0  0  0  0  0  0  0  0  0
    3.9132    0.0604    0.0000 C   0  0  0  0  0  0  0  0  0  0  0  0
    4.6476    1.3245    0.0000 C   0  0  0  0  0  0  0  0  0  0  0  0
  4 21  2  0
  5 28  1  0
  5 31  1  0
  6 30  2  0
  7 31  2  0
  8 35  2  0
  8 36  1  0
  9 10  1  0
  9 11  1  0
  9 17  1  1
 10 12  1  0
 10 19  1  6
 11 13  1  0
 11 16  1  0
 11 22  1  1
 12  1  1  6
 12 14  1  0
 12 15  1  0
 13  2  1  6
 13 18  1  0
 13 21  1  0
 14 20  1  0
 14 24  1  0
 14 25  1  1
 15  3  1  1
 15 16  1  0
 17 18  1  0
 18 27  1  6
 19 23  1  0
 20 23  1  0
 20 26  2  0
 21 28  1  0
 24 29  2  0
 26 30  1  0
 29 30  1  0
 31 32  1  0
 32 33  2  0
 32 34  1  0
 33 35  1  0
 34 36  2  0
M  END
>  <DRUGBANK_ID>  (1) 
DB11487

>  <COMMON_NAME>  (1) 
Dexamethasone isonicotinate

>  <CAS_NUMBER>  (1) 
2265-64-7

>  <UNII>  (1) 
8LGC0BOA71

>  <SYNONYMS>  (1) 
Dexamethasone 21-(4-Pyridinecarboxylate); Dexamethasone-21-isonicotinate

$$$$
