
     RDKit          2D

 23 25  0  0  0  0  0  0  0  0999 V2000
    1.1326    2.7585    0.0000 P   0  0  0  0  0  0  0  0  0  0  0  0
    0.6005   -0.0905    0.0000 O   0  0  0  0  0  0  0  0  0  0  0  0
    2.5361   -0.9914    0.0000 O   0  0  0  0  0  0  0  0  0  0  0  0
    2.5392    0.8036    0.0000 O   0  0  0  0  0  0  0  0  0  0  0  0
    1.3861    1.9733    0.0000 O   0  0  0  0  0  0  0  0  0  0  0  0
    1.9177    3.0121    0.0000 O   0  0  0  0  0  0  0  0  0  0  0  0
    0.8790    3.5437    0.0000 O   0  0  0  0  0  0  0  0  0  0  0  0
    0.3474    2.5049    0.0000 O   0  0  0  0  0  0  0  0  0  0  0  0
    0.8280   -1.5431    0.0000 N   0  0  0  0  0  0  0  0  0  0  0  0
    0.8280   -2.8710    0.0000 N   0  0  0  0  0  0  0  0  0  0  0  0
   -0.6671   -3.0321    0.0000 N   0  0  0  0  0  0  0  0  0  0  0  0
   -1.3816   -1.7944    0.0000 N   0  0  0  0  0  0  0  0  0  0  0  0
   -2.0963   -3.0321    0.0000 N   0  0  0  0  0  0  0  0  0  0  0  0
    1.8694   -0.5052    0.0000 C   0  0  0  0  0  0  0  0  0  0  0  0
    1.8708    0.3197    0.0000 C   0  0  0  0  0  0  0  0  0  0  0  0
    1.0844   -0.7589    0.0000 C   0  0  0  0  0  0  0  0  0  0  0  0
    1.0867    0.5760    0.0000 C   0  0  0  0  0  0  0  0  0  0  0  0
    0.8331    1.3612    0.0000 C   0  0  0  0  0  0  0  0  0  0  0  0
    0.0473   -1.7944    0.0000 C   0  0  0  0  0  0  0  0  0  0  0  0
    1.3095   -2.2071    0.0000 C   0  0  0  0  0  0  0  0  0  0  0  0
    0.0473   -2.6196    0.0000 C   0  0  0  0  0  0  0  0  0  0  0  0
   -0.6671   -1.3819    0.0000 C   0  0  0  0  0  0  0  0  0  0  0  0
   -1.3816   -2.6196    0.0000 C   0  0  0  0  0  0  0  0  0  0  0  0
  1  5  1  0
  1  6  1  0
  1  7  1  0
  1  8  2  0
  2 16  1  0
  2 17  1  0
  5 18  1  0
  9 19  1  0
  9 20  1  0
 10 20  2  0
 10 21  1  0
 11 21  2  0
 11 23  1  0
 12 22  1  0
 12 23  2  0
 13 23  1  0
 14  3  1  1
 14 15  1  0
 14 16  1  0
 15  4  1  1
 15 17  1  0
 16  9  1  1
 17 18  1  6
 19 21  1  0
 19 22  2  0
M  END
>  <DRUGBANK_ID>  (1) 
DB02770

>  <SECONDARY_ACCESSION_NUMBERS>  (1) 
EXPT00315

>  <COMMON_NAME>  (1) 
7-alpha-D-Ribofuranosyl-2-aminopurine-5'-phosphate

$$$$
