
     RDKit          2D

 30 34  0  0  0  0  0  0  0  0999 V2000
    0.0753   -0.7167    0.0000 C   0  0  0  0  0  0  0  0  0  0  0  0
    0.8600   -0.9717    0.0000 C   0  0  0  0  0  0  0  0  0  0  0  0
    1.4730   -0.4196    0.0000 N   0  0  0  0  0  0  0  0  0  0  0  0
    2.2577   -0.6746    0.0000 C   0  0  0  0  0  0  0  0  0  0  0  0
    2.4292   -1.4815    0.0000 C   0  0  0  0  0  0  0  0  0  0  0  0
    1.8161   -2.0336    0.0000 C   0  0  0  0  0  0  0  0  0  0  0  0
    1.0315   -1.7786    0.0000 C   0  0  0  0  0  0  0  0  0  0  0  0
    2.8708   -0.1225    0.0000 C   0  0  0  0  0  0  0  0  0  0  0  0
    2.7845    0.6979    0.0000 C   0  0  0  0  0  0  0  0  0  0  0  0
    3.5382    1.0335    0.0000 N   0  0  0  0  0  0  0  0  0  0  0  0
    4.0902    0.4204    0.0000 C   0  0  0  0  0  0  0  0  0  0  0  0
    4.9107    0.5066    0.0000 C   0  0  0  0  0  0  0  0  0  0  0  0
    5.3956   -0.1608    0.0000 N   0  0  0  0  0  0  0  0  0  0  0  0
    6.2161   -0.0746    0.0000 C   0  0  0  0  0  0  0  0  0  0  0  0
    6.5517    0.6791    0.0000 C   0  0  0  0  0  0  0  0  0  0  0  0
    6.0668    1.3466    0.0000 F   0  0  0  0  0  0  0  0  0  0  0  0
    7.3722    0.7653    0.0000 C   0  0  0  0  0  0  0  0  0  0  0  0
    7.8571    0.0979    0.0000 C   0  0  0  0  0  0  0  0  0  0  0  0
    7.5215   -0.6558    0.0000 C   0  0  0  0  0  0  0  0  0  0  0  0
    6.7010   -0.7420    0.0000 C   0  0  0  0  0  0  0  0  0  0  0  0
    3.6777   -0.2941    0.0000 N   0  0  0  0  0  0  0  0  0  0  0  0
    2.0701    1.1104    0.0000 C   0  0  0  0  0  0  0  0  0  0  0  0
    1.3556    0.6979    0.0000 C   0  0  0  0  0  0  0  0  0  0  0  0
    0.6411    1.1104    0.0000 N   0  0  0  0  0  0  0  0  0  0  0  0
   -0.1435    0.8555    0.0000 N   0  0  0  0  0  0  0  0  0  0  0  0
   -0.6284    1.5229    0.0000 C   0  0  0  0  0  0  0  0  0  0  0  0
   -0.1435    2.1904    0.0000 N   0  0  0  0  0  0  0  0  0  0  0  0
    0.6411    1.9354    0.0000 C   0  0  0  0  0  0  0  0  0  0  0  0
    1.3556    2.3479    0.0000 C   0  0  0  0  0  0  0  0  0  0  0  0
    2.0701    1.9354    0.0000 C   0  0  0  0  0  0  0  0  0  0  0  0
  1  2  1  0
  2  3  2  0
  2  7  1  0
  3  4  1  0
  4  5  2  0
  4  8  1  0
  5  6  1  0
  6  7  2  0
  8  9  2  0
  8 21  1  0
  9 10  1  0
  9 22  1  0
 10 11  2  0
 11 12  1  0
 11 21  1  0
 12 13  1  0
 13 14  1  0
 14 15  2  0
 14 20  1  0
 15 16  1  0
 15 17  1  0
 17 18  2  0
 18 19  1  0
 19 20  2  0
 22 23  2  0
 22 30  1  0
 23 24  1  0
 24 25  1  0
 24 28  1  0
 25 26  2  0
 26 27  1  0
 27 28  2  0
 28 29  1  0
 29 30  2  0
M  END
>  <DRUGBANK_ID>  (1) 
DB15310

>  <COMMON_NAME>  (1) 
Vactosertib

>  <CAS_NUMBER>  (1) 
1352608-82-2

>  <UNII>  (1) 
6T4O391P5Y

>  <SYNONYMS>  (1) 
2-fluoro-N-[[5-(6-methylpyridin-2-yl)-4-([1,2,4]triazolo[1,5-a]pyridin-6-yl)-1H-imidazol-2-yl]methyl]aniline; Vactosertib

$$$$
