VG2
     RDKit          2D

 28 30  0  0  0  0  0  0  0  0999 V2000
   11.2016    5.8985    0.0000 N   0  0  0  0  0  0  0  0  0  0  0  0
   11.2016    5.0735    0.0000 C   0  0  0  0  0  0  0  0  0  0  0  0
   10.4872    4.6610    0.0000 C   0  0  0  0  0  0  0  0  0  0  0  0
    9.7727    5.0735    0.0000 C   0  0  0  0  0  0  0  0  0  0  0  0
    9.7727    5.8985    0.0000 C   0  0  0  0  0  0  0  0  0  0  0  0
   10.4872    6.3110    0.0000 C   0  0  0  0  0  0  0  0  0  0  0  0
   11.9161    6.3110    0.0000 C   0  0  0  0  0  0  0  0  0  0  0  0
   11.9161    7.1360    0.0000 C   0  0  0  0  0  0  0  0  0  0  0  0
   12.6306    7.5485    0.0000 C   0  0  0  0  0  0  0  0  0  0  0  0
   12.6306    8.3735    0.0000 Cl  0  0  0  0  0  0  0  0  0  0  0  0
   13.3451    7.1360    0.0000 C   0  0  0  0  0  0  0  0  0  0  0  0
   13.3451    6.3110    0.0000 C   0  0  0  0  0  0  0  0  0  0  0  0
   14.0595    5.8985    0.0000 N   0  0  0  0  0  0  0  0  0  0  0  0
   14.7740    6.3110    0.0000 C   0  0  0  0  0  0  0  0  0  0  0  0
   14.7740    7.1360    0.0000 O   0  0  0  0  0  0  0  0  0  0  0  0
   15.4885    5.8985    0.0000 C   0  0  0  0  0  0  0  0  0  0  0  0
   16.2029    6.3110    0.0000 C   0  0  0  0  0  0  0  0  0  0  0  0
   16.9174    5.8985    0.0000 C   0  0  0  0  0  0  0  0  0  0  0  0
   17.6319    6.3110    0.0000 C   0  0  0  0  0  0  0  0  0  0  0  0
   16.9174    5.0735    0.0000 C   0  0  0  0  0  0  0  0  0  0  0  0
   17.6319    4.6610    0.0000 O   0  0  0  0  0  0  0  0  0  0  0  0
   18.3464    5.0735    0.0000 C   0  0  0  0  0  0  0  0  0  0  0  0
   19.0608    4.6610    0.0000 C   0  0  0  0  0  0  0  0  0  0  0  0
   19.7753    5.0735    0.0000 N   0  0  0  0  0  0  0  0  0  0  0  0
   16.2029    4.6610    0.0000 C   0  0  0  0  0  0  0  0  0  0  0  0
   16.2029    3.8360    0.0000 C   0  0  0  0  0  0  0  0  0  0  0  0
   15.4885    5.0735    0.0000 C   0  0  0  0  0  0  0  0  0  0  0  0
   12.6306    5.8985    0.0000 C   0  0  0  0  0  0  0  0  0  0  0  0
  1  2  1  0
  1  6  1  0
  1  7  1  0
  2  3  1  0
  3  4  1  0
  4  5  1  0
  5  6  1  0
  7  8  2  0
  7 28  1  0
  8  9  1  0
  9 10  1  0
  9 11  2  0
 11 12  1  0
 12 13  1  0
 12 28  2  0
 13 14  1  0
 14 15  2  0
 14 16  1  0
 16 17  2  0
 16 27  1  0
 17 18  1  0
 18 19  1  0
 18 20  2  0
 20 21  1  0
 20 25  1  0
 21 22  1  0
 22 23  1  0
 23 24  1  0
 25 26  1  0
 25 27  2  0
M  END
>  <DRUGBANK_ID>  (1) 
DB08697

>  <COMMON_NAME>  (1) 
4-(2-aminoethoxy)-N-(3-chloro-5-piperidin-1-ylphenyl)-3,5-dimethylbenzamide

$$$$
