
     RDKit          2D

 23 25  0  0  0  0  0  0  0  0999 V2000
   -2.1449   -0.0035    0.0000 C   0  0  0  0  0  0  0  0  0  0  0  0
   -1.4299   -0.4091    0.0000 C   0  0  0  0  0  0  0  0  0  0  0  0
   -2.8564   -0.4160    0.0000 C   0  0  0  0  0  0  0  0  0  0  0  0
   -2.1449    0.8250    0.0000 C   0  0  0  0  0  0  0  0  0  0  0  0
   -1.4264   -1.2410    0.0000 C   0  0  0  0  0  0  0  0  0  0  0  0
   -0.7150    0.0034    0.0000 C   0  0  0  0  0  0  0  0  0  0  0  0
   -2.8530   -1.2444    0.0000 C   0  0  0  0  0  0  0  0  0  0  0  0
   -3.5715   -0.0035    0.0000 C   0  0  0  0  0  0  0  0  0  0  0  0
   -2.8564    1.2409    0.0000 C   0  0  0  0  0  0  0  0  0  0  0  0
   -2.1415   -1.6535    0.0000 O   0  0  0  0  0  0  0  0  0  0  0  0
   -0.7115   -1.6500    0.0000 C   0  0  0  0  0  0  0  0  0  0  0  0
    0.0034   -0.4091    0.0000 C   0  0  0  0  0  0  0  0  0  0  0  0
   -0.7150    0.8284    0.0000 O   0  0  0  0  0  0  0  0  0  0  0  0
   -2.8599   -2.0659    0.0000 C   0  0  0  0  0  0  0  0  0  0  0  0
   -3.5715   -0.8250    0.0000 C   0  0  0  0  0  0  0  0  0  0  0  0
   -3.5715    0.8250    0.0000 C   0  0  0  0  0  0  0  0  0  0  0  0
   -2.8530    2.0659    0.0000 C   0  0  0  0  0  0  0  0  0  0  0  0
    0.0034   -1.2341    0.0000 C   0  0  0  0  0  0  0  0  0  0  0  0
    0.7185   -1.6431    0.0000 C   0  0  0  0  0  0  0  0  0  0  0  0
    1.4334   -1.2272    0.0000 C   0  0  0  0  0  0  0  0  0  0  0  0
    2.1450   -1.6397    0.0000 C   0  0  0  0  0  0  0  0  0  0  0  0
    2.8565   -1.2237    0.0000 C   0  0  0  0  0  0  0  0  0  0  0  0
    3.5715   -1.6328    0.0000 C   0  0  0  0  0  0  0  0  0  0  0  0
  1  2  1  0
  1  3  1  0
  1  4  2  0
  2  5  2  0
  2  6  1  0
  3  7  1  0
  3  8  2  0
  4  9  1  0
  5 10  1  0
  5 11  1  0
  6 12  2  0
  6 13  1  0
  7 14  1  0
  7 15  1  0
  7 10  1  0
  8 16  1  0
  9 17  1  0
  9 16  2  0
 11 18  2  0
 12 18  1  0
 18 19  1  0
 19 20  1  0
 20 21  1  0
 21 22  1  0
 22 23  1  0
M  END
>  <DRUGBANK_ID>  (1) 
DB14737

>  <COMMON_NAME>  (1) 
Cannabinol

>  <CAS_NUMBER>  (1) 
521-35-7

>  <UNII>  (1) 
7UYP6MC9GH

>  <SYNONYMS>  (1) 
6,6,9-Trimethyl-3-pentyl-6H-dibenzo(b,d)pyran-1-ol; Cannabinol; Cannabinolo; Cannabinolum; CBN

$$$$
