259
     RDKit          2D

 11 11  0  0  0  0  0  0  0  0999 V2000
    2.4751    1.2375    0.0000 S   0  0  0  0  0  0  0  0  0  0  0  0
    1.6500    1.2375    0.0000 O   0  0  0  0  0  0  0  0  0  0  0  0
    3.3001    1.2375    0.0000 O   0  0  0  0  0  0  0  0  0  0  0  0
    2.4751    2.0625    0.0000 N   0  0  0  0  0  0  0  0  0  0  0  0
    2.4751   -2.0625    0.0000 N   0  0  0  0  0  0  0  0  0  0  0  0
    2.4751    0.4125    0.0000 C   0  0  0  0  0  0  0  0  0  0  0  0
    1.7606    0.0000    0.0000 C   0  0  0  0  0  0  0  0  0  0  0  0
    3.1895    0.0000    0.0000 C   0  0  0  0  0  0  0  0  0  0  0  0
    2.4751   -1.2375    0.0000 C   0  0  0  0  0  0  0  0  0  0  0  0
    1.7606   -0.8250    0.0000 C   0  0  0  0  0  0  0  0  0  0  0  0
    3.1895   -0.8250    0.0000 C   0  0  0  0  0  0  0  0  0  0  0  0
  1  2  2  0
  1  3  2  0
  1  4  1  0
  1  6  1  0
  5  9  1  0
  6  7  2  0
  6  8  1  0
  7 10  1  0
  8 11  2  0
  9 10  2  0
  9 11  1  0
M  END
>  <DRUGBANK_ID>  (1) 
DB00259

>  <SECONDARY_ACCESSION_NUMBERS>  (1) 
APRD00438

>  <COMMON_NAME>  (1) 
Sulfanilamide

>  <CAS_NUMBER>  (1) 
63-74-1

>  <UNII>  (1) 
21240MF57M

>  <SYNONYMS>  (1) 
4-aminobenzene sulfonic acid amide; 4-azanylbenzenesulfonamide; p-aminobenzenesulfamide; p-aminobenzenesulfonamide; para-aminobenzenesulfonamide; Prontosil album; SA; Streptocide; Sulfamine; Sulfanilamida; Sulfanilamide; Sulfanilamidum; Sulphanilamide

$$$$
