
     RDKit          2D

 17 17  0  0  0  0  0  0  0  0999 V2000
    0.7148   -0.4221    0.0000 C   0  0  0  0  0  0  0  0  0  0  0  0
    1.4338   -0.8210    0.0000 N   0  0  0  0  0  0  0  0  0  0  0  0
    2.1501   -0.4221    0.0000 C   0  0  0  0  0  0  0  0  0  0  0  0
    0.7148    0.4105    0.0000 C   0  0  0  0  0  0  0  0  0  0  0  0
    2.1501    0.4105    0.0000 C   0  0  0  0  0  0  0  0  0  0  0  0
    1.4338    0.8210    0.0000 C   0  0  0  0  0  0  0  0  0  0  0  0
   -0.0043   -0.8268    0.0000 C   0  0  0  0  0  0  0  0  0  0  0  0
    2.8721   -0.8210    0.0000 O   0  0  0  0  0  0  0  0  0  0  0  0
    1.4338   -1.6449    0.0000 O   0  0  0  0  0  0  0  0  0  0  0  0
   -2.1646   -0.4221    0.0000 C   0  0  0  0  0  0  0  0  0  0  0  0
   -1.4454   -0.8239    0.0000 C   0  0  0  0  0  0  0  0  0  0  0  0
   -0.7234   -0.4251    0.0000 C   0  0  0  0  0  0  0  0  0  0  0  0
    1.4338    1.6449    0.0000 C   0  0  0  0  0  0  0  0  0  0  0  0
   -0.7234    0.3988    0.0000 C   0  0  0  0  0  0  0  0  0  0  0  0
   -2.7032    0.3549    0.0000 C   0  0  0  0  0  0  0  0  0  0  0  0
   -2.8721   -0.8441    0.0000 C   0  0  0  0  0  0  0  0  0  0  0  0
   -1.8522    0.3752    0.0000 C   0  0  0  0  0  0  0  0  0  0  0  0
  2  1  1  0
  3  2  1  0
  4  1  2  0
  5  6  2  0
  5  3  1  0
  6  4  1  0
  7  1  1  0
  8  3  2  0
  9  2  1  0
 10 11  1  0
 10 15  1  0
 10 16  1  0
 10 17  1  0
 11 12  1  0
 12  7  1  0
 13  6  1  0
 14 12  1  0
M  END
>  <DRUGBANK_ID>  (1) 
DB15946

>  <COMMON_NAME>  (1) 
Piroctone

>  <CAS_NUMBER>  (1) 
50650-76-5

>  <UNII>  (1) 
R49EFA73Q7

>  <SYNONYMS>  (1) 
Piroctona; Piroctone; Piroctonol; Piroctonum

$$$$
