
     RDKit          2D

 16 16  0  0  0  0  0  0  0  0999 V2000
   -3.6037    0.1862    0.0000 C   0  0  0  0  0  0  0  0  0  0  0  0
   -2.8501   -0.1494    0.0000 C   0  0  0  0  0  0  0  0  0  0  0  0
   -2.9363   -0.9698    0.0000 N   0  0  0  0  0  0  0  0  0  0  0  0
   -3.7433   -1.1414    0.0000 C   0  0  0  0  0  0  0  0  0  0  0  0
   -4.1558   -0.4269    0.0000 N   0  0  0  0  0  0  0  0  0  0  0  0
   -2.1356    0.2631    0.0000 C   0  0  0  0  0  0  0  0  0  0  0  0
   -1.4211   -0.1494    0.0000 C   0  0  0  0  0  0  0  0  0  0  0  0
   -0.7066    0.2631    0.0000 N   0  0  0  0  0  0  0  0  0  0  0  0
    0.0078   -0.1494    0.0000 C   0  0  0  0  0  0  0  0  0  0  0  0
    0.0078   -0.9744    0.0000 O   0  0  0  0  0  0  0  0  0  0  0  0
    0.7223    0.2631    0.0000 C   0  0  0  0  0  0  0  0  0  0  0  0
    1.4368   -0.1494    0.0000 C   0  0  0  0  0  0  0  0  0  0  0  0
    2.1512    0.2631    0.0000 C   0  0  0  0  0  0  0  0  0  0  0  0
    2.8657   -0.1494    0.0000 C   0  0  0  0  0  0  0  0  0  0  0  0
    3.5802    0.2631    0.0000 O   0  0  0  0  0  0  0  0  0  0  0  0
    2.8657   -0.9744    0.0000 O   0  0  0  0  0  0  0  0  0  0  0  0
  1  2  2  0
  1  5  1  0
  2  3  1  0
  2  6  1  0
  3  4  2  0
  4  5  1  0
  6  7  1  0
  7  8  1  0
  8  9  1  0
  9 10  2  0
  9 11  1  0
 11 12  1  0
 12 13  1  0
 13 14  1  0
 14 15  2  0
 14 16  1  0
M  END
>  <DRUGBANK_ID>  (1) 
DB11944

>  <COMMON_NAME>  (1) 
Ingavirin

>  <CAS_NUMBER>  (1) 
219694-63-0

>  <UNII>  (1) 
3CM03MUJ69

>  <SYNONYMS>  (1) 
IMIDAZOLYL ETHANAMIDE PENTANDIOIC ACID

$$$$
