
     RDKit          2D

  9  8  0  0  0  0  0  0  0  0999 V2000
    0.8250   -0.8250    0.0000 C   0  0  0  0  0  0  0  0  0  0  0  0
    1.6500   -0.0000    0.0000 C   0  0  0  0  0  0  0  0  0  0  0  0
    0.8250    0.8250    0.0000 C   0  0  0  0  0  0  0  0  0  0  0  0
    1.5395    1.2375    0.0000 C   0  0  0  0  0  0  0  0  0  0  0  0
    0.8250    0.0000    0.0000 C   0  0  0  0  0  0  0  0  0  0  0  0
    0.1105    1.2375    0.0000 N   0  0  0  0  0  0  0  0  0  0  0  0
    1.5395    2.0625    0.0000 O   0  0  0  0  0  0  0  0  0  0  0  0
    2.2539    0.8250    0.0000 O   0  0  0  0  0  0  0  0  0  0  0  0
    0.0000    0.0000    0.0000 S   0  0  0  0  0  0  0  0  0  0  0  0
  3  6  1  1
  4  3  1  0
  5  1  1  0
  5  2  1  0
  5  3  1  0
  7  4  2  0
  8  4  1  0
  9  5  1  0
M  END
>  <DRUGBANK_ID>  (1) 
DB00859

>  <SECONDARY_ACCESSION_NUMBERS>  (1) 
APRD01171

>  <COMMON_NAME>  (1) 
Penicillamine

>  <CAS_NUMBER>  (1) 
52-67-5

>  <UNII>  (1) 
GNN1DV99GX

>  <SYNONYMS>  (1) 
(−)-penicillamine; (S)-2-amino-3-mercapto-3-methylbutanoic acid; (S)-3,3-dimethylcysteine; 3-mercapto-D-valine; D-(−)-penicillamine; D-penicillamine; D-β,β-dimethylcysteine; penicilamina; Penicillamine

$$$$
