
     RDKit          2D

 13 14  0  0  0  0  0  0  0  0999 V2000
   -0.1637    1.6642    0.0000 O   0  0  0  0  0  0  0  0  0  0  0  0
   -0.1637   -0.8107    0.0000 N   0  0  0  0  0  0  0  0  0  0  0  0
   -0.8782    0.4267    0.0000 N   0  0  0  0  0  0  0  0  0  0  0  0
   -1.5927   -0.8107    0.0000 N   0  0  0  0  0  0  0  0  0  0  0  0
    0.5506   -0.3982    0.0000 C   0  0  0  0  0  0  0  0  0  0  0  0
    0.5506    0.4267    0.0000 C   0  0  0  0  0  0  0  0  0  0  0  0
    1.2882   -0.8393    0.0000 C   0  0  0  0  0  0  0  0  0  0  0  0
    1.2882    0.8679    0.0000 C   0  0  0  0  0  0  0  0  0  0  0  0
    2.0356   -0.4153    0.0000 C   0  0  0  0  0  0  0  0  0  0  0  0
   -0.1637    0.8392    0.0000 C   0  0  0  0  0  0  0  0  0  0  0  0
    2.0356    0.4439    0.0000 C   0  0  0  0  0  0  0  0  0  0  0  0
    1.2786   -1.6642    0.0000 C   0  0  0  0  0  0  0  0  0  0  0  0
   -0.8782   -0.3982    0.0000 C   0  0  0  0  0  0  0  0  0  0  0  0
  1 10  2  0
  2  5  1  0
  2 13  1  0
  3 10  1  0
  3 13  2  0
  4 13  1  0
  5  6  2  0
  5  7  1  0
  6  8  1  0
  6 10  1  0
  7  9  2  0
  7 12  1  0
  8 11  2  0
  9 11  1  0
M  END
>  <DRUGBANK_ID>  (1) 
DB01825

>  <SECONDARY_ACCESSION_NUMBERS>  (1) 
EXPT02114

>  <COMMON_NAME>  (1) 
2-amino-8-methyl-4(1H)-quinazolinone

>  <CAS_NUMBER>  (1) 
116836-27-2

>  <UNII>  (1) 
X6X2DD92TW

$$$$
