
     RDKit          2D

 41 45  0  0  1  0  0  0  0  0999 V2000
   -0.3121    0.0446    0.0000 C   0  0  0  0  0  0  0  0  0  0  0  0
   -0.9252   -0.5075    0.0000 C   0  0  0  0  0  0  0  0  0  0  0  0
   -1.7098   -0.2525    0.0000 C   0  0  0  0  0  0  0  0  0  0  0  0
   -2.3229   -0.8046    0.0000 C   0  0  0  0  0  0  0  0  0  0  0  0
   -3.1075   -0.5496    0.0000 C   0  0  0  0  0  0  0  0  0  0  0  0
   -3.2791    0.2573    0.0000 C   0  0  0  0  0  0  0  0  0  0  0  0
   -2.6660    0.8094    0.0000 C   0  0  0  0  0  0  0  0  0  0  0  0
   -1.8814    0.5544    0.0000 C   0  0  0  0  0  0  0  0  0  0  0  0
   -4.0637    0.5123    0.0000 C   0  0  0  0  0  0  0  0  0  0  0  0
   -4.6768   -0.0397    0.0000 O   0  0  0  0  0  0  0  0  0  0  0  0
   -4.2352    1.3193    0.0000 N   0  0  0  0  0  0  0  0  0  0  0  0
   -5.0198    1.5742    0.0000 C   0  0  0  0  0  0  0  0  0  0  0  0
   -5.1914    2.3812    0.0000 C   0  0  0  0  0  0  0  0  0  0  0  0
   -5.9760    2.6361    0.0000 C   0  0  0  0  0  0  0  0  0  0  0  0
   -6.1475    3.4431    0.0000 O   0  0  0  0  0  0  0  0  0  0  0  0
   -6.5891    2.0841    0.0000 O   0  0  0  0  0  0  0  0  0  0  0  0
   -0.7537   -1.3144    0.0000 N   0  0  0  0  0  0  0  0  0  0  0  0
    0.0000   -1.6500    0.0000 C   0  0  0  0  0  0  0  0  0  0  0  0
   -0.0862   -2.4705    0.0000 C   0  0  0  0  0  0  0  0  0  0  0  0
   -0.8932   -2.6420    0.0000 C   0  0  0  0  0  0  0  0  0  0  0  0
   -1.3057   -1.9275    0.0000 N   0  0  0  0  0  0  0  0  0  0  0  0
   -1.2288   -3.3957    0.0000 C   0  0  0  0  0  0  0  0  0  0  0  0
   -0.7438   -4.0631    0.0000 C   0  0  0  0  0  0  0  0  0  0  0  0
   -1.0794   -4.8168    0.0000 C   0  0  0  0  0  0  0  0  0  0  0  0
   -1.8999   -4.9030    0.0000 C   0  0  0  0  0  0  0  0  0  0  0  0
   -2.3848   -4.2356    0.0000 C   0  0  0  0  0  0  0  0  0  0  0  0
   -2.0492   -3.4819    0.0000 C   0  0  0  0  0  0  0  0  0  0  0  0
   -3.2053   -4.3218    0.0000 Cl  0  0  0  0  0  0  0  0  0  0  0  0
   -0.5945   -5.4842    0.0000 Cl  0  0  0  0  0  0  0  0  0  0  0  0
    0.7145   -1.2375    0.0000 C   0  0  0  0  0  0  0  0  0  0  0  0
    0.7145   -0.4125    0.0000 C   0  0  0  0  0  0  0  0  0  0  0  0
    1.4289    0.0000    0.0000 C   0  0  0  0  0  0  0  0  0  0  0  0
    2.1434   -0.4125    0.0000 C   0  0  0  0  0  0  0  0  0  0  0  0
    2.8579    0.0000    0.0000 C   0  0  0  0  0  0  0  0  0  0  0  0
    3.5724   -0.4125    0.0000 C   0  0  0  0  0  0  0  0  0  0  0  0
    3.5724   -1.2375    0.0000 C   0  0  0  0  0  0  0  0  0  0  0  0
    2.8579   -1.6500    0.0000 C   0  0  0  0  0  0  0  0  0  0  0  0
    2.1434   -1.2375    0.0000 C   0  0  0  0  0  0  0  0  0  0  0  0
    1.4289   -1.6500    0.0000 C   0  0  0  0  0  0  0  0  0  0  0  0
    4.2868   -0.0000    0.0000 O   0  0  0  0  0  0  0  0  0  0  0  0
    5.0013   -0.4125    0.0000 C   0  0  0  0  0  0  0  0  0  0  0  0
  2  1  1  6
  2  3  1  0
  2 17  1  0
  3  4  2  0
  3  8  1  0
  4  5  1  0
  5  6  2  0
  6  7  1  0
  6  9  1  0
  7  8  2  0
  9 10  2  0
  9 11  1  0
 11 12  1  0
 12 13  1  0
 13 14  1  0
 14 15  2  0
 14 16  1  0
 17 18  1  0
 17 21  1  0
 18 19  2  0
 18 30  1  0
 19 20  1  0
 20 21  2  0
 20 22  1  0
 22 23  2  0
 22 27  1  0
 23 24  1  0
 24 25  2  0
 24 29  1  0
 25 26  1  0
 26 27  2  0
 26 28  1  0
 30 31  2  0
 30 39  1  0
 31 32  1  0
 32 33  2  0
 33 34  1  0
 33 38  1  0
 34 35  2  0
 35 36  1  0
 35 40  1  0
 36 37  2  0
 37 38  1  0
 38 39  2  0
 40 41  1  0
M  END
>  <DRUGBANK_ID>  (1) 
DB12044

>  <COMMON_NAME>  (1) 
MK-0893

>  <UNII>  (1) 
CCP2U6LWTP

$$$$
