
     RDKit          2D

 25 27  0  0  0  0  0  0  0  0999 V2000
    0.7145    2.0625    0.0000 C   0  0  0  0  0  0  0  0  0  0  0  0
    2.6852    3.2940    0.0000 C   0  0  0  0  0  0  0  0  0  0  0  0
    2.0013    2.8326    0.0000 C   0  0  0  0  0  0  0  0  0  0  0  0
    3.4267    2.9323    0.0000 C   0  0  0  0  0  0  0  0  0  0  0  0
    2.0588    2.0096    0.0000 C   0  0  0  0  0  0  0  0  0  0  0  0
    3.4843    2.1093    0.0000 C   0  0  0  0  0  0  0  0  0  0  0  0
   -0.0000    0.8250    0.0000 C   0  0  0  0  0  0  0  0  0  0  0  0
    3.6824    0.8538    0.0000 C   0  0  0  0  0  0  0  0  0  0  0  0
    2.4706    0.0966    0.0000 C   0  0  0  0  0  0  0  0  0  0  0  0
   -0.7145    1.2375    0.0000 C   0  0  0  0  0  0  0  0  0  0  0  0
   -2.1434    1.2375    0.0000 C   0  0  0  0  0  0  0  0  0  0  0  0
   -1.4289    0.0000    0.0000 C   0  0  0  0  0  0  0  0  0  0  0  0
    4.1196    0.1542    0.0000 C   0  0  0  0  0  0  0  0  0  0  0  0
    2.9078   -0.6031    0.0000 C   0  0  0  0  0  0  0  0  0  0  0  0
   -2.8579    0.8250    0.0000 C   0  0  0  0  0  0  0  0  0  0  0  0
   -2.1434   -0.4125    0.0000 C   0  0  0  0  0  0  0  0  0  0  0  0
    0.7145    1.2375    0.0000 C   0  0  0  0  0  0  0  0  0  0  0  0
    2.8003    1.6480    0.0000 C   0  0  0  0  0  0  0  0  0  0  0  0
    2.1434    1.2375    0.0000 C   0  0  0  0  0  0  0  0  0  0  0  0
    2.8579    0.8250    0.0000 C   0  0  0  0  0  0  0  0  0  0  0  0
   -1.4289    0.8250    0.0000 N   0  0  0  0  0  0  0  0  0  0  0  0
    1.6585    1.9049    0.0000 O   0  0  0  0  0  0  0  0  0  0  0  0
    3.7323   -0.5743    0.0000 O   0  0  0  0  0  0  0  0  0  0  0  0
   -2.8579   -0.0000    0.0000 O   0  0  0  0  0  0  0  0  0  0  0  0
    1.4289    0.8250    0.0000 O   0  0  0  0  0  0  0  0  0  0  0  0
  3  2  2  0
  4  2  1  0
  5  3  1  0
  6  4  2  0
 10  7  1  0
 13  8  1  0
 14  9  1  0
 15 11  1  0
 16 12  1  0
 17  1  1  0
 17  7  1  0
 18  5  2  0
 18  6  1  0
 20  8  1  0
 20  9  1  0
 20 18  1  0
 20 19  1  0
 21 10  1  0
 21 11  1  0
 21 12  1  0
 22 19  2  0
 23 13  1  0
 23 14  1  0
 24 15  1  0
 24 16  1  0
 25 17  1  0
 25 19  1  0
M  END
>  <DRUGBANK_ID>  (1) 
DB13825

>  <COMMON_NAME>  (1) 
Fedrilate

>  <CAS_NUMBER>  (1) 
23271-74-1

>  <UNII>  (1) 
NT86R8M7J5

>  <SYNONYMS>  (1) 
Fedrilate

$$$$
