
     RDKit          2D

 25 27  0  0  0  0  0  0  0  0999 V2000
   -2.0817   -4.1728    0.0000 C   0  0  0  0  0  0  0  0  0  0  0  0
   -1.3673   -3.7603    0.0000 C   0  0  0  0  0  0  0  0  0  0  0  0
   -1.3673   -1.2853    0.0000 C   0  0  0  0  0  0  0  0  0  0  0  0
    0.0616   -1.2853    0.0000 C   0  0  0  0  0  0  0  0  0  0  0  0
   -0.7903   -1.1478    0.0000 C   0  0  0  0  0  0  0  0  0  0  0  0
   -1.3673   -0.4603    0.0000 C   0  0  0  0  0  0  0  0  0  0  0  0
    0.0616   -0.4603    0.0000 C   0  0  0  0  0  0  0  0  0  0  0  0
   -0.7903   -0.5978    0.0000 C   0  0  0  0  0  0  0  0  0  0  0  0
    2.0817    2.7046    0.0000 C   0  0  0  0  0  0  0  0  0  0  0  0
    1.7012    1.2846    0.0000 C   0  0  0  0  0  0  0  0  0  0  0  0
    0.0616    1.1896    0.0000 C   0  0  0  0  0  0  0  0  0  0  0  0
    0.8623    3.2476    0.0000 C   0  0  0  0  0  0  0  0  0  0  0  0
    1.6692    3.4191    0.0000 C   0  0  0  0  0  0  0  0  0  0  0  0
    1.5297    2.0916    0.0000 C   0  0  0  0  0  0  0  0  0  0  0  0
    0.0616    2.0146    0.0000 C   0  0  0  0  0  0  0  0  0  0  0  0
   -0.6528   -2.5228    0.0000 C   0  0  0  0  0  0  0  0  0  0  0  0
   -0.6528   -1.6978    0.0000 C   0  0  0  0  0  0  0  0  0  0  0  0
   -0.6528   -0.0478    0.0000 C   0  0  0  0  0  0  0  0  0  0  0  0
    2.0048    4.1728    0.0000 F   0  0  0  0  0  0  0  0  0  0  0  0
    1.8728    0.4776    0.0000 N   0  0  0  0  0  0  0  0  0  0  0  0
   -0.6528    0.7771    0.0000 N   0  0  0  0  0  0  0  0  0  0  0  0
    0.7760    2.4271    0.0000 N   0  0  0  0  0  0  0  0  0  0  0  0
   -0.6528    2.4271    0.0000 O   0  0  0  0  0  0  0  0  0  0  0  0
    0.0616   -2.9353    0.0000 O   0  0  0  0  0  0  0  0  0  0  0  0
   -1.3673   -2.9353    0.0000 O   0  0  0  0  0  0  0  0  0  0  0  0
  2  1  1  0
  6  3  1  0
  7  4  1  0
  8  5  1  0
 13  9  1  0
 13 12  1  0
 13 19  1  1
 14  9  1  0
 14 10  1  1
 14 22  1  0
 15 11  1  0
 17  3  1  0
 17  4  1  0
 17  5  1  0
 17 16  1  0
 18  6  1  0
 18  7  1  0
 18  8  1  0
 20 10  3  0
 21 11  1  0
 21 18  1  0
 22 12  1  0
 22 15  1  0
 23 15  2  0
 24 16  2  0
 25  2  1  0
 25 16  1  0
M  END
>  <DRUGBANK_ID>  (1) 
DB06127

>  <COMMON_NAME>  (1) 
Bisegliptin

>  <CAS_NUMBER>  (1) 
862501-61-9

>  <UNII>  (1) 
9U5KQ79OK6

>  <SYNONYMS>  (1) 
Bisegliptin

$$$$
