FOS
     RDKit          2D

 16 16  0  0  0  0  0  0  0  0999 V2000
   -1.5125    0.0589    0.0000 C   0  0  0  0  0  0  0  0  0  0  0  0
   -2.2269   -0.3536    0.0000 C   0  0  0  0  0  0  0  0  0  0  0  0
   -2.9414    0.0589    0.0000 C   0  0  0  0  0  0  0  0  0  0  0  0
   -2.9414    0.8839    0.0000 C   0  0  0  0  0  0  0  0  0  0  0  0
   -2.2269    1.2964    0.0000 C   0  0  0  0  0  0  0  0  0  0  0  0
   -1.5125    0.8839    0.0000 C   0  0  0  0  0  0  0  0  0  0  0  0
   -0.7980   -0.3536    0.0000 C   0  0  0  0  0  0  0  0  0  0  0  0
   -0.0835    0.0589    0.0000 O   0  0  0  0  0  0  0  0  0  0  0  0
    0.6310   -0.3536    0.0000 C   0  0  0  0  0  0  0  0  0  0  0  0
    0.6310   -1.1786    0.0000 O   0  0  0  0  0  0  0  0  0  0  0  0
    1.3454    0.0589    0.0000 N   0  0  0  0  0  0  0  0  0  0  0  0
    2.0599   -0.3536    0.0000 C   0  0  0  0  0  0  0  0  0  0  0  0
    2.7744    0.0589    0.0000 P   0  0  0  0  0  0  0  0  0  0  0  0
    3.4888    0.4714    0.0000 O   0  0  0  0  0  0  0  0  0  0  0  0
    3.1869   -0.6556    0.0000 O   0  0  0  0  0  0  0  0  0  0  0  0
    2.3619    0.7734    0.0000 O   0  0  0  0  0  0  0  0  0  0  0  0
  1  2  2  0
  1  6  1  0
  1  7  1  0
  2  3  1  0
  3  4  2  0
  4  5  1  0
  5  6  2  0
  7  8  1  0
  8  9  1  0
  9 10  2  0
  9 11  1  0
 11 12  1  0
 12 13  1  0
 13 14  2  0
 13 15  1  0
 13 16  1  0
M  END
>  <DRUGBANK_ID>  (1) 
DB02642

>  <SECONDARY_ACCESSION_NUMBERS>  (1) 
EXPT01473

>  <COMMON_NAME>  (1) 
[[N-(Benzyloxycarbonyl)Amino]Methyl]Phosphate

$$$$
