
     RDKit          2D

 31 33  0  0  0  0  0  0  0  0999 V2000
   -1.5103    0.8299    0.0000 C   0  0  0  0  0  0  0  0  0  0  0  0
   -0.6873    0.8298    0.0000 C   0  0  0  0  0  0  0  0  0  0  0  0
   -1.8478   -0.6128    0.0000 C   0  0  0  0  0  0  0  0  0  0  0  0
   -2.0267    0.1873    0.0000 C   0  0  0  0  0  0  0  0  0  0  0  0
   -2.4535   -1.1786    0.0000 C   0  0  0  0  0  0  0  0  0  0  0  0
   -3.2370   -0.9363    0.0000 C   0  0  0  0  0  0  0  0  0  0  0  0
   -3.4193   -0.1315    0.0000 C   0  0  0  0  0  0  0  0  0  0  0  0
   -2.8180    0.4308    0.0000 C   0  0  0  0  0  0  0  0  0  0  0  0
   -1.1017   -0.9763    0.0000 N   0  0  0  0  0  0  0  0  0  0  0  0
   -1.1060   -1.8028    0.0000 C   0  0  0  0  0  0  0  0  0  0  0  0
    0.3242   -1.8057    0.0000 O   0  0  0  0  0  0  0  0  0  0  0  0
   -0.3889   -2.2180    0.0000 C   0  0  0  0  0  0  0  0  0  0  0  0
   -0.3933   -3.0443    0.0000 O   0  0  0  0  0  0  0  0  0  0  0  0
   -0.3592   -0.6183    0.0000 C   0  0  0  0  0  0  0  0  0  0  0  0
    0.2833   -1.1346    0.0000 O   0  0  0  0  0  0  0  0  0  0  0  0
   -0.1769    0.1877    0.0000 C   0  0  0  0  0  0  0  0  0  0  0  0
    0.5474    0.5765    0.0000 N   0  0  0  0  0  0  0  0  0  0  0  0
    1.2703    2.6499    0.0000 O   0  0  0  0  0  0  0  0  0  0  0  0
    1.2709    1.8213    0.0000 C   0  0  0  0  0  0  0  0  0  0  0  0
    1.9886    1.4150    0.0000 O   0  0  0  0  0  0  0  0  0  0  0  0
    2.7064    1.8319    0.0000 C   0  0  0  0  0  0  0  0  0  0  0  0
    3.4193    1.4198    0.0000 C   0  0  0  0  0  0  0  0  0  0  0  0
    0.5585    1.4045    0.0000 C   0  0  0  0  0  0  0  0  0  0  0  0
   -0.1556    1.8126    0.0000 C   0  0  0  0  0  0  0  0  0  0  0  0
   -0.8672    1.3957    0.0000 C   0  0  0  0  0  0  0  0  0  0  0  0
   -1.5866    1.8062    0.0000 C   0  0  0  0  0  0  0  0  0  0  0  0
   -2.3015    3.0443    0.0000 C   0  0  0  0  0  0  0  0  0  0  0  0
   -1.5895    2.6313    0.0000 C   0  0  0  0  0  0  0  0  0  0  0  0
   -2.2983    1.3891    0.0000 C   0  0  0  0  0  0  0  0  0  0  0  0
   -3.0176    1.7995    0.0000 C   0  0  0  0  0  0  0  0  0  0  0  0
   -3.0181    2.6298    0.0000 C   0  0  0  0  0  0  0  0  0  0  0  0
  1  2  1  0
  2 16  1  0
  4  1  1  0
  4  3  2  0
  5  3  1  0
  5  6  2  0
  6  7  1  0
  7  8  2  0
  8  4  1  0
  9  3  1  0
  9 10  1  0
 10 12  1  0
 12 11  1  0
 12 13  2  0
 14  9  1  0
 14 15  2  0
 16 14  1  0
 16 17  1  6
 17 23  1  0
 19 18  2  0
 19 20  1  0
 20 21  1  0
 21 22  1  0
 23 19  1  0
 23 24  1  1
 24 25  1  0
 25 26  1  0
 26 29  2  0
 27 28  2  0
 27 31  1  0
 28 26  1  0
 29 30  1  0
 30 31  2  0
M  END
>  <DRUGBANK_ID>  (1) 
DB00542

>  <SECONDARY_ACCESSION_NUMBERS>  (1) 
APRD00063

>  <COMMON_NAME>  (1) 
Benazepril

>  <CAS_NUMBER>  (1) 
86541-75-5

>  <UNII>  (1) 
UDM7Q7QWP8

>  <SYNONYMS>  (1) 
Bénazépril; Benazepril; Benazeprilum

$$$$
