
     RDKit          2D

 39 43  0  0  0  0  0  0  0  0999 V2000
    6.4041   -8.2809    0.0000 C   0  0  0  0  0  0  0  0  0  0  0  0
    5.5971   -8.4525    0.0000 N   0  0  0  0  0  0  0  0  0  0  0  0
    5.3422   -9.2371    0.0000 C   0  0  0  0  0  0  0  0  0  0  0  0
    4.5352   -9.4086    0.0000 C   0  0  0  0  0  0  0  0  0  0  0  0
    3.9832   -8.7955    0.0000 N   0  0  0  0  0  0  0  0  0  0  0  0
    3.1762   -8.9671    0.0000 C   0  0  0  0  0  0  0  0  0  0  0  0
    2.6242   -8.3540    0.0000 C   0  0  0  0  0  0  0  0  0  0  0  0
    1.8172   -8.5255    0.0000 C   0  0  0  0  0  0  0  0  0  0  0  0
    1.2652   -7.9124    0.0000 C   0  0  0  0  0  0  0  0  0  0  0  0
    1.5201   -7.1278    0.0000 C   0  0  0  0  0  0  0  0  0  0  0  0
    0.9681   -6.5147    0.0000 N   0  0  0  0  0  0  0  0  0  0  0  0
    1.2230   -5.7301    0.0000 C   0  0  0  0  0  0  0  0  0  0  0  0
    2.0300   -5.5585    0.0000 O   0  0  0  0  0  0  0  0  0  0  0  0
    0.6710   -5.1170    0.0000 C   0  0  0  0  0  0  0  0  0  0  0  0
   -0.1360   -5.2885    0.0000 C   0  0  0  0  0  0  0  0  0  0  0  0
   -0.6880   -4.6754    0.0000 C   0  0  0  0  0  0  0  0  0  0  0  0
   -0.4331   -3.8908    0.0000 C   0  0  0  0  0  0  0  0  0  0  0  0
   -0.9851   -3.2777    0.0000 C   0  0  0  0  0  0  0  0  0  0  0  0
    0.3739   -3.7192    0.0000 C   0  0  0  0  0  0  0  0  0  0  0  0
    0.9259   -4.3323    0.0000 C   0  0  0  0  0  0  0  0  0  0  0  0
    0.6288   -2.9346    0.0000 C   0  0  0  0  0  0  0  0  0  0  0  0
    0.8838   -2.1500    0.0000 C   0  0  0  0  0  0  0  0  0  0  0  0
    1.1387   -1.3654    0.0000 C   0  0  0  0  0  0  0  0  0  0  0  0
    0.6538   -0.6979    0.0000 N   0  0  0  0  0  0  0  0  0  0  0  0
    1.1387   -0.0305    0.0000 N   0  0  0  0  0  0  0  0  0  0  0  0
    1.9233   -0.2854    0.0000 C   0  0  0  0  0  0  0  0  0  0  0  0
    2.6378    0.1271    0.0000 C   0  0  0  0  0  0  0  0  0  0  0  0
    3.3523   -0.2854    0.0000 C   0  0  0  0  0  0  0  0  0  0  0  0
    3.3523   -1.1104    0.0000 C   0  0  0  0  0  0  0  0  0  0  0  0
    2.6378   -1.5229    0.0000 C   0  0  0  0  0  0  0  0  0  0  0  0
    1.9233   -1.1104    0.0000 N   0  0  0  0  0  0  0  0  0  0  0  0
    2.3271   -6.9562    0.0000 C   0  0  0  0  0  0  0  0  0  0  0  0
    2.8791   -7.5693    0.0000 C   0  0  0  0  0  0  0  0  0  0  0  0
    1.5623   -9.3101    0.0000 C   0  0  0  0  0  0  0  0  0  0  0  0
    1.3073  -10.0947    0.0000 F   0  0  0  0  0  0  0  0  0  0  0  0
    0.7777   -9.0552    0.0000 F   0  0  0  0  0  0  0  0  0  0  0  0
    2.3469   -9.5650    0.0000 F   0  0  0  0  0  0  0  0  0  0  0  0
    4.2381   -8.0109    0.0000 C   0  0  0  0  0  0  0  0  0  0  0  0
    5.0451   -7.8394    0.0000 C   0  0  0  0  0  0  0  0  0  0  0  0
  1  2  1  0
  2  3  1  0
  2 39  1  0
  3  4  1  0
  4  5  1  0
  5  6  1  0
  5 38  1  0
  6  7  1  0
  7  8  2  0
  7 33  1  0
  8  9  1  0
  8 34  1  0
  9 10  2  0
 10 11  1  0
 10 32  1  0
 11 12  1  0
 12 13  2  0
 12 14  1  0
 14 15  2  0
 14 20  1  0
 15 16  1  0
 16 17  2  0
 17 18  1  0
 17 19  1  0
 19 20  2  0
 19 21  1  0
 21 22  3  0
 22 23  1  0
 23 24  2  0
 23 31  1  0
 24 25  1  0
 25 26  2  0
 26 27  1  0
 26 31  1  0
 27 28  2  0
 28 29  1  0
 29 30  2  0
 30 31  1  0
 32 33  2  0
 34 35  1  0
 34 36  1  0
 34 37  1  0
 38 39  1  0
M  END
>  <DRUGBANK_ID>  (1) 
DB15396

>  <COMMON_NAME>  (1) 
Vamotinib

>  <CAS_NUMBER>  (1) 
1416241-23-0

>  <UNII>  (1) 
I8C3R768IZ

>  <SYNONYMS>  (1) 
Vamotinib

$$$$
