3BD
     RDKit          2D

 30 33  0  0  0  0  0  0  0  0999 V2000
    2.6958    0.7570    0.0000 C   0  0  0  0  0  0  0  0  0  0  0  0
    0.5524   -0.4805    0.0000 C   0  0  0  0  0  0  0  0  0  0  0  0
   -1.5910    2.4070    0.0000 C   0  0  0  0  0  0  0  0  0  0  0  0
   -2.3055    2.8195    0.0000 C   0  0  0  0  0  0  0  0  0  0  0  0
   -2.0035    1.6926    0.0000 C   0  0  0  0  0  0  0  0  0  0  0  0
   -1.1785    3.1215    0.0000 C   0  0  0  0  0  0  0  0  0  0  0  0
    0.5524   -1.3055    0.0000 C   0  0  0  0  0  0  0  0  0  0  0  0
   -0.8766   -1.3055    0.0000 C   0  0  0  0  0  0  0  0  0  0  0  0
    3.4103    1.1695    0.0000 O   0  0  0  0  0  0  0  0  0  0  0  0
   -0.1621    2.4070    0.0000 N   0  0  0  0  0  0  0  0  0  0  0  0
    1.9813    1.9945    0.0000 C   0  0  0  0  0  0  0  0  0  0  0  0
    1.9813    1.1695    0.0000 C   0  0  0  0  0  0  0  0  0  0  0  0
    1.2669    0.7570    0.0000 C   0  0  0  0  0  0  0  0  0  0  0  0
    0.5524    1.9945    0.0000 C   0  0  0  0  0  0  0  0  0  0  0  0
   -0.8766    1.9945    0.0000 C   0  0  0  0  0  0  0  0  0  0  0  0
    1.2669    2.4070    0.0000 N   0  0  0  0  0  0  0  0  0  0  0  0
   -0.8766    1.1695    0.0000 N   0  0  0  0  0  0  0  0  0  0  0  0
    0.5524    1.1695    0.0000 C   0  0  0  0  0  0  0  0  0  0  0  0
   -0.1621    0.7570    0.0000 C   0  0  0  0  0  0  0  0  0  0  0  0
    2.6958    2.4070    0.0000 N   0  0  0  0  0  0  0  0  0  0  0  0
    2.6958   -0.0680    0.0000 N   0  0  0  0  0  0  0  0  0  0  0  0
   -0.1621   -0.0680    0.0000 N   0  0  0  0  0  0  0  0  0  0  0  0
   -0.1621   -1.7180    0.0000 N   0  0  0  0  0  0  0  0  0  0  0  0
   -0.8766   -0.4805    0.0000 C   0  0  0  0  0  0  0  0  0  0  0  0
   -0.1621   -2.5430    0.0000 C   0  0  0  0  0  0  0  0  0  0  0  0
    0.5524   -2.9555    0.0000 N   0  0  0  0  0  0  0  0  0  0  0  0
    0.5524   -3.7805    0.0000 C   0  0  0  0  0  0  0  0  0  0  0  0
   -0.1621   -4.1930    0.0000 C   0  0  0  0  0  0  0  0  0  0  0  0
   -0.8766   -3.7805    0.0000 C   0  0  0  0  0  0  0  0  0  0  0  0
   -0.8766   -2.9555    0.0000 N   0  0  0  0  0  0  0  0  0  0  0  0
  1  9  2  0
  1 12  1  0
  1 21  1  0
  2  7  1  0
  2 22  1  0
  3  4  1  0
  3  5  1  0
  3  6  1  0
  3 15  1  0
  7 23  1  0
  8 23  1  0
  8 24  1  0
 10 14  2  0
 10 15  1  0
 11 12  1  0
 11 16  2  0
 11 20  1  0
 12 13  2  0
 13 18  1  0
 14 16  1  0
 14 18  1  0
 15 17  2  0
 17 19  1  0
 18 19  2  0
 19 22  1  0
 22 24  1  0
 23 25  1  0
 25 26  2  0
 25 30  1  0
 26 27  1  0
 27 28  2  0
 28 29  1  0
 29 30  2  0
M  END
>  <DRUGBANK_ID>  (1) 
DB07043

>  <COMMON_NAME>  (1) 
7-amino-2-tert-butyl-4-(4-pyrimidin-2-ylpiperazin-1-yl)pyrido[2,3-d]pyrimidine-6-carboxamide

$$$$
