ZAP
     RDKit          2D

 25 26  0  0  0  0  0  0  0  0999 V2000
    2.6732    2.7452    0.0000 C   0  0  0  0  0  0  0  0  0  0  0  0
    2.2607    2.0307    0.0000 C   0  0  0  0  0  0  0  0  0  0  0  0
    2.6732    1.3162    0.0000 C   0  0  0  0  0  0  0  0  0  0  0  0
    2.2607    0.6018    0.0000 C   0  0  0  0  0  0  0  0  0  0  0  0
    1.4357    0.6018    0.0000 C   0  0  0  0  0  0  0  0  0  0  0  0
    1.0232    1.3162    0.0000 C   0  0  0  0  0  0  0  0  0  0  0  0
    1.4357    2.0307    0.0000 C   0  0  0  0  0  0  0  0  0  0  0  0
    1.0232   -0.1127    0.0000 C   0  0  0  0  0  0  0  0  0  0  0  0
   -0.2143   -0.8272    0.0000 C   0  0  0  0  0  0  0  0  0  0  0  0
   -1.4518   -1.5417    0.0000 C   0  0  0  0  0  0  0  0  0  0  0  0
   -2.2768   -1.5417    0.0000 C   0  0  0  0  0  0  0  0  0  0  0  0
   -2.6893   -2.2561    0.0000 C   0  0  0  0  0  0  0  0  0  0  0  0
   -3.5143   -2.2561    0.0000 C   0  0  0  0  0  0  0  0  0  0  0  0
   -3.9268   -1.5417    0.0000 C   0  0  0  0  0  0  0  0  0  0  0  0
   -3.5143   -0.8272    0.0000 C   0  0  0  0  0  0  0  0  0  0  0  0
   -2.6893   -0.8272    0.0000 C   0  0  0  0  0  0  0  0  0  0  0  0
    2.2607    3.4596    0.0000 N   0  0  0  0  0  0  0  0  0  0  0  0
    3.4982    2.7452    0.0000 N   0  0  0  0  0  0  0  0  0  0  0  0
    0.1982   -0.1127    0.0000 N   0  0  0  0  0  0  0  0  0  0  0  0
    0.1982   -1.5417    0.0000 O   0  0  0  0  0  0  0  0  0  0  0  0
   -1.0393   -0.8272    0.0000 O   0  0  0  0  0  0  0  0  0  0  0  0
    0.7212   -1.2397    0.0000 O   0  0  0  0  0  0  0  0  0  0  0  0
    2.1502   -0.4147    0.0000 O   0  0  0  0  0  0  0  0  0  0  0  0
    1.8482   -1.5417    0.0000 O   0  0  0  0  0  0  0  0  0  0  0  0
    1.4357   -0.8272    0.0000 P   0  0  0  0  0  0  0  0  0  0  0  0
  1  2  1  0
  1 17  2  0
  1 18  1  0
  2  3  2  0
  2  7  1  0
  3  4  1  0
  4  5  2  0
  5  6  1  0
  5  8  1  0
  6  7  2  0
  8 19  1  1
  8 25  1  0
  9 19  1  0
  9 20  2  0
  9 21  1  0
 10 11  1  0
 10 21  1  0
 11 12  2  0
 11 16  1  0
 12 13  1  0
 13 14  2  0
 14 15  1  0
 15 16  2  0
 22 25  2  0
 23 25  1  0
 24 25  1  0
M  END
>  <DRUGBANK_ID>  (1) 
DB08763

>  <COMMON_NAME>  (1) 
[N-(BENZYLOXYCARBONYL)AMINO](4-AMIDINOPHENYL)METHANE-PHOSPHONATE

$$$$
