PZ2
     RDKit          2D

 27 30  0  0  0  0  0  0  0  0999 V2000
    2.7928   -0.8191    0.0000 C   0  0  0  0  0  0  0  0  0  0  0  0
    3.5072   -0.4066    0.0000 C   0  0  0  0  0  0  0  0  0  0  0  0
    4.2217   -0.8191    0.0000 C   0  0  0  0  0  0  0  0  0  0  0  0
    4.2217   -1.6441    0.0000 N   0  0  0  0  0  0  0  0  0  0  0  0
    3.5072   -2.0566    0.0000 N   0  0  0  0  0  0  0  0  0  0  0  0
    2.7928   -1.6441    0.0000 C   0  0  0  0  0  0  0  0  0  0  0  0
    2.0081   -0.5642    0.0000 C   0  0  0  0  0  0  0  0  0  0  0  0
    2.0081   -1.8991    0.0000 N   0  0  0  0  0  0  0  0  0  0  0  0
    1.5232   -1.2316    0.0000 N   0  0  0  0  0  0  0  0  0  0  0  0
   -0.6677    0.7350    0.0000 C   0  0  0  0  0  0  0  0  0  0  0  0
   -0.1157    1.3481    0.0000 C   0  0  0  0  0  0  0  0  0  0  0  0
    0.6913    1.1766    0.0000 C   0  0  0  0  0  0  0  0  0  0  0  0
    0.9462    0.3919    0.0000 C   0  0  0  0  0  0  0  0  0  0  0  0
    0.3942   -0.2212    0.0000 C   0  0  0  0  0  0  0  0  0  0  0  0
   -0.4128   -0.0496    0.0000 C   0  0  0  0  0  0  0  0  0  0  0  0
   -2.3238   -1.1043    0.0000 C   0  0  0  0  0  0  0  0  0  0  0  0
   -3.1308   -0.9328    0.0000 C   0  0  0  0  0  0  0  0  0  0  0  0
   -3.3857   -0.1481    0.0000 C   0  0  0  0  0  0  0  0  0  0  0  0
   -2.8337    0.4650    0.0000 C   0  0  0  0  0  0  0  0  0  0  0  0
   -2.0267    0.2934    0.0000 C   0  0  0  0  0  0  0  0  0  0  0  0
   -1.7718   -0.4912    0.0000 C   0  0  0  0  0  0  0  0  0  0  0  0
   -2.0689   -1.8889    0.0000 C   0  0  0  0  0  0  0  0  0  0  0  0
   -4.1927    0.0234    0.0000 C   0  0  0  0  0  0  0  0  0  0  0  0
   -4.9997    0.1949    0.0000 N   0  0  0  0  0  0  0  0  0  0  0  0
   -1.4747    0.9065    0.0000 O   0  0  0  0  0  0  0  0  0  0  0  0
   -0.3706    2.1327    0.0000 Br  0  0  0  0  0  0  0  0  0  0  0  0
    1.7532    0.2204    0.0000 C   0  0  0  0  0  0  0  0  0  0  0  0
  1  2  2  0
  1  6  1  0
  1  7  1  0
  2  3  1  0
  3  4  2  0
  4  5  1  0
  5  6  2  0
  6  8  1  0
  7  9  2  0
  7 27  1  0
  8  9  1  0
 10 11  2  0
 10 15  1  0
 10 25  1  0
 11 12  1  0
 11 26  1  0
 12 13  2  0
 13 14  1  0
 13 27  1  0
 14 15  2  0
 16 17  2  0
 16 21  1  0
 16 22  1  0
 17 18  1  0
 18 19  2  0
 18 23  1  0
 19 20  1  0
 20 21  2  0
 20 25  1  0
 23 24  3  0
M  END
>  <DRUGBANK_ID>  (1) 
DB08444

>  <COMMON_NAME>  (1) 
3-[2-bromo-4-(1H-pyrazolo[3,4-c]pyridazin-3-ylmethyl)phenoxy]-5-methylbenzonitrile

$$$$
