
     RDKit          2D

 19 22  0  0  0  0  0  0  0  0999 V2000
   -0.0121   -1.4491    0.0000 C   0  0  0  0  0  0  0  0  0  0  0  0
    0.6963   -1.8612    0.0000 C   0  0  0  0  0  0  0  0  0  0  0  0
    1.4144   -1.4491    0.0000 C   0  0  0  0  0  0  0  0  0  0  0  0
    1.4144   -0.6251    0.0000 N   0  0  0  0  0  0  0  0  0  0  0  0
   -0.0121   -0.6251    0.0000 C   0  0  0  0  0  0  0  0  0  0  0  0
    0.6963   -0.2132    0.0000 C   0  0  0  0  0  0  0  0  0  0  0  0
    0.6922    0.6036    0.0000 C   0  0  0  0  0  0  0  0  0  0  0  0
   -0.0187    1.0150    0.0000 C   0  0  0  0  0  0  0  0  0  0  0  0
   -0.7248   -0.2251    0.0000 C   0  0  0  0  0  0  0  0  0  0  0  0
   -0.7236    0.6000    0.0000 C   0  0  0  0  0  0  0  0  0  0  0  0
   -1.4322    1.0136    0.0000 C   0  0  0  0  0  0  0  0  0  0  0  0
   -2.1472    0.6020    0.0000 C   0  0  0  0  0  0  0  0  0  0  0  0
   -2.1484   -0.2230    0.0000 C   0  0  0  0  0  0  0  0  0  0  0  0
   -1.4347   -0.6366    0.0000 N   0  0  0  0  0  0  0  0  0  0  0  0
    0.0166    0.2132    0.0000 C   0  0  0  0  0  0  0  0  0  0  0  0
   -0.0265    1.8755    0.0000 C   0  0  0  0  0  0  0  0  0  0  0  0
    2.1484   -1.8755    0.0000 O   0  0  0  0  0  0  0  0  0  0  0  0
    0.7160    1.4492    0.0000 C   0  0  0  0  0  0  0  0  0  0  0  0
    1.5448    1.6744    0.0000 C   0  0  0  0  0  0  0  0  0  0  0  0
  1  2  2  0
  2  3  1  0
  3  4  1  0
  3 17  2  0
  4  6  1  0
  5  6  2  0
  5  1  1  0
  6  7  1  0
  8  7  1  1
  8 16  1  0
  8 10  1  0
  9 14  1  0
  9 15  1  1
  9  5  1  0
  9 10  1  0
 10 11  1  6
 11 12  1  0
 12 13  1  0
 13 14  1  0
 15 18  1  0
 16 18  2  0
 18 19  1  0
M  END
>  <DRUGBANK_ID>  (1) 
DB03348

>  <SECONDARY_ACCESSION_NUMBERS>  (1) 
EXPT01794

>  <COMMON_NAME>  (1) 
Huperzine B

>  <CAS_NUMBER>  (1) 
103548-82-9

>  <UNII>  (1) 
DC3Z5425Y5

>  <SYNONYMS>  (1) 
HupB

$$$$
