
     RDKit          2D

 28 32  0  0  0  0  0  0  0  0999 V2000
   -1.6198   -0.9571    0.0000 C   0  0  0  0  0  0  0  0  0  0  0  0
   -2.3342   -1.3697    0.0000 C   0  0  0  0  0  0  0  0  0  0  0  0
   -1.6198   -2.6071    0.0000 C   0  0  0  0  0  0  0  0  0  0  0  0
   -0.1908   -2.6071    0.0000 C   0  0  0  0  0  0  0  0  0  0  0  0
    0.5235   -2.1946    0.0000 C   0  0  0  0  0  0  0  0  0  0  0  0
   -0.1908   -0.1321    0.0000 C   0  0  0  0  0  0  0  0  0  0  0  0
    2.0226   -1.2120    0.0000 C   0  0  0  0  0  0  0  0  0  0  0  0
    2.5075   -0.5446    0.0000 C   0  0  0  0  0  0  0  0  0  0  0  0
   -2.3342   -2.1946    0.0000 C   0  0  0  0  0  0  0  0  0  0  0  0
   -3.0487   -2.6071    0.0000 O   0  0  0  0  0  0  0  0  0  0  0  0
   -0.9053   -2.1946    0.0000 C   0  0  0  0  0  0  0  0  0  0  0  0
   -0.9053   -1.3697    0.0000 C   0  0  0  0  0  0  0  0  0  0  0  0
   -0.9053   -0.5446    0.0000 C   0  0  0  0  0  0  0  0  0  0  0  0
   -0.1908   -0.9571    0.0000 C   0  0  0  0  0  0  0  0  0  0  0  0
    1.2380   -0.9571    0.0000 C   0  0  0  0  0  0  0  0  0  0  0  0
    1.2380   -1.7821    0.0000 O   0  0  0  0  0  0  0  0  0  0  0  0
    0.5235    0.2803    0.0000 C   0  0  0  0  0  0  0  0  0  0  0  0
    0.5235    1.1053    0.0000 O   0  0  0  0  0  0  0  0  0  0  0  0
    1.2380   -0.1321    0.0000 C   0  0  0  0  0  0  0  0  0  0  0  0
    1.2380    0.6928    0.0000 C   0  0  0  0  0  0  0  0  0  0  0  0
    3.0272    1.1539    0.0000 C   0  0  0  0  0  0  0  0  0  0  0  0
    1.7689    1.5996    0.0000 C   0  0  0  0  0  0  0  0  0  0  0  0
    2.2362    0.9197    0.0000 C   0  0  0  0  0  0  0  0  0  0  0  0
    3.0488    1.9786    0.0000 O   0  0  0  0  0  0  0  0  0  0  0  0
    2.2712    2.2541    0.0000 C   0  0  0  0  0  0  0  0  0  0  0  0
    1.9952    3.0197    0.0000 O   0  0  0  0  0  0  0  0  0  0  0  0
    2.0226    0.1228    0.0000 C   0  0  0  0  0  0  0  0  0  0  0  0
    0.5235   -1.3697    0.0000 C   0  0  0  0  0  0  0  0  0  0  0  0
  1  2  1  0
  1 12  1  0
  2  9  1  0
 11  3  1  6
  4  5  1  0
 28  5  1  6
 14  6  1  1
  7  8  1  0
  9  3  1  0
  9 10  1  1
 11  4  1  0
 12 11  1  0
 12 13  1  1
 14 12  1  0
 14 28  1  0
 15  7  1  0
 15 16  1  1
 17  6  1  0
 17 19  1  0
 17 18  1  1
 19 15  1  0
 19 20  1  1
 21 24  1  0
 21 23  1  0
 22 23  2  0
 24 25  1  0
 25 22  1  0
 25 26  2  0
 27 19  1  0
 27  8  1  0
 27 23  1  1
 28 15  1  0
M  END
>  <DRUGBANK_ID>  (1) 
DB03671

>  <SECONDARY_ACCESSION_NUMBERS>  (1) 
EXPT01244

>  <COMMON_NAME>  (1) 
Digoxigenin

>  <CAS_NUMBER>  (1) 
1672-46-4

>  <UNII>  (1) 
NQ1SX9LNAU

>  <SYNONYMS>  (1) 
Lanadigenin

$$$$
