N41
     RDKit          2D

 27 30  0  0  0  0  0  0  0  0999 V2000
    1.0930    0.8481    0.0000 C   0  0  0  0  0  0  0  0  0  0  0  0
   -0.3360   -1.6269    0.0000 C   0  0  0  0  0  0  0  0  0  0  0  0
   -0.3360   -2.4519    0.0000 C   0  0  0  0  0  0  0  0  0  0  0  0
    0.3785   -2.8644    0.0000 C   0  0  0  0  0  0  0  0  0  0  0  0
    0.3785   -3.6894    0.0000 C   0  0  0  0  0  0  0  0  0  0  0  0
   -0.3360   -4.1019    0.0000 C   0  0  0  0  0  0  0  0  0  0  0  0
   -1.0504   -3.6894    0.0000 C   0  0  0  0  0  0  0  0  0  0  0  0
   -1.0504   -2.8644    0.0000 C   0  0  0  0  0  0  0  0  0  0  0  0
    1.0930    3.3231    0.0000 C   0  0  0  0  0  0  0  0  0  0  0  0
    1.8074    3.7356    0.0000 C   0  0  0  0  0  0  0  0  0  0  0  0
    2.5219    3.3231    0.0000 C   0  0  0  0  0  0  0  0  0  0  0  0
    2.5219    2.4981    0.0000 C   0  0  0  0  0  0  0  0  0  0  0  0
    1.0930    4.9731    0.0000 N   0  0  0  0  0  0  0  0  0  0  0  0
    1.0930    0.0231    0.0000 N   0  0  0  0  0  0  0  0  0  0  0  0
    0.3785   -0.3894    0.0000 C   0  0  0  0  0  0  0  0  0  0  0  0
    0.3785   -1.2144    0.0000 O   0  0  0  0  0  0  0  0  0  0  0  0
   -0.3360    0.0231    0.0000 C   0  0  0  0  0  0  0  0  0  0  0  0
   -1.1206   -0.2319    0.0000 N   0  0  0  0  0  0  0  0  0  0  0  0
   -1.1206    1.1030    0.0000 N   0  0  0  0  0  0  0  0  0  0  0  0
   -0.3360    0.8481    0.0000 C   0  0  0  0  0  0  0  0  0  0  0  0
    0.3785    1.2606    0.0000 N   0  0  0  0  0  0  0  0  0  0  0  0
    1.8074    1.2606    0.0000 N   0  0  0  0  0  0  0  0  0  0  0  0
    1.8074    2.0856    0.0000 C   0  0  0  0  0  0  0  0  0  0  0  0
    1.0930    2.4981    0.0000 C   0  0  0  0  0  0  0  0  0  0  0  0
    1.8074    4.5606    0.0000 C   0  0  0  0  0  0  0  0  0  0  0  0
   -1.6055    0.4356    0.0000 C   0  0  0  0  0  0  0  0  0  0  0  0
    2.5219    4.9731    0.0000 O   0  0  0  0  0  0  0  0  0  0  0  0
  1 14  2  0
  1 21  1  0
  1 22  1  0
  2  3  1  0
  2 16  1  0
  3  4  1  0
  3  8  1  0
  4  5  1  0
  5  6  1  0
  6  7  1  0
  7  8  1  0
  9 10  2  0
  9 24  1  0
 10 11  1  0
 10 25  1  0
 11 12  2  0
 12 23  1  0
 13 25  1  0
 14 15  1  0
 15 16  1  0
 15 17  2  0
 17 18  1  0
 17 20  1  0
 18 26  2  0
 19 20  1  0
 19 26  1  0
 20 21  2  0
 22 23  1  0
 23 24  2  0
 25 27  2  0
M  END
>  <DRUGBANK_ID>  (1) 
DB08241

>  <COMMON_NAME>  (1) 
4-(6-CYCLOHEXYLMETHOXY-9H-PURIN-2-YLAMINO)--BENZAMIDE

$$$$
