
     RDKit          2D

 29 31  0  0  0  0  0  0  0  0999 V2000
   -0.4768   -3.8121    0.0000 C   0  0  0  0  0  0  0  0  0  0  0  0
   -0.3053   -3.0051    0.0000 N   0  0  0  0  0  0  0  0  0  0  0  0
   -0.9184   -2.4531    0.0000 C   0  0  0  0  0  0  0  0  0  0  0  0
    0.4793   -2.7502    0.0000 C   0  0  0  0  0  0  0  0  0  0  0  0
    0.6508   -1.9432    0.0000 C   0  0  0  0  0  0  0  0  0  0  0  0
    0.0988   -1.3301    0.0000 C   0  0  0  0  0  0  0  0  0  0  0  0
   -0.7262   -1.3301    0.0000 C   0  0  0  0  0  0  0  0  0  0  0  0
   -1.1387   -0.6157    0.0000 C   0  0  0  0  0  0  0  0  0  0  0  0
   -0.7262    0.0988    0.0000 C   0  0  0  0  0  0  0  0  0  0  0  0
    0.0988    0.0988    0.0000 C   0  0  0  0  0  0  0  0  0  0  0  0
    0.5113   -0.6157    0.0000 C   0  0  0  0  0  0  0  0  0  0  0  0
    1.3183   -0.7872    0.0000 O   0  0  0  0  0  0  0  0  0  0  0  0
    1.4045   -1.6077    0.0000 C   0  0  0  0  0  0  0  0  0  0  0  0
    2.1190   -2.0202    0.0000 C   0  0  0  0  0  0  0  0  0  0  0  0
    2.8334   -1.6077    0.0000 O   0  0  0  0  0  0  0  0  0  0  0  0
    2.1190   -2.8452    0.0000 N   0  0  0  0  0  0  0  0  0  0  0  0
    2.8334   -3.2577    0.0000 C   0  0  0  0  0  0  0  0  0  0  0  0
    3.5479   -2.8452    0.0000 C   0  0  0  0  0  0  0  0  0  0  0  0
    3.5479   -2.0202    0.0000 O   0  0  0  0  0  0  0  0  0  0  0  0
    4.2624   -1.6077    0.0000 C   0  0  0  0  0  0  0  0  0  0  0  0
    4.2624   -0.7827    0.0000 C   0  0  0  0  0  0  0  0  0  0  0  0
    4.9769   -0.3702    0.0000 C   0  0  0  0  0  0  0  0  0  0  0  0
    5.6913   -0.7827    0.0000 C   0  0  0  0  0  0  0  0  0  0  0  0
    5.6913   -1.6077    0.0000 C   0  0  0  0  0  0  0  0  0  0  0  0
    4.9769   -2.0202    0.0000 C   0  0  0  0  0  0  0  0  0  0  0  0
    6.4058   -0.3702    0.0000 C   0  0  0  0  0  0  0  0  0  0  0  0
    6.4058    0.4548    0.0000 O   0  0  0  0  0  0  0  0  0  0  0  0
    7.1203   -0.7827    0.0000 N   0  0  0  0  0  0  0  0  0  0  0  0
    7.8347   -0.3702    0.0000 O   0  0  0  0  0  0  0  0  0  0  0  0
  1  2  1  0
  2  3  1  0
  2  4  1  0
  4  5  1  0
  5  6  1  0
  5 13  2  0
  6  7  2  0
  6 11  1  0
  7  8  1  0
  8  9  2  0
  9 10  1  0
 10 11  2  0
 11 12  1  0
 12 13  1  0
 13 14  1  0
 14 15  2  0
 14 16  1  0
 16 17  1  0
 17 18  1  0
 18 19  1  0
 19 20  1  0
 20 21  2  0
 20 25  1  0
 21 22  1  0
 22 23  2  0
 23 24  1  0
 23 26  1  0
 24 25  2  0
 26 27  2  0
 26 28  1  0
 28 29  1  0
M  END
>  <DRUGBANK_ID>  (1) 
DB12565

>  <SECONDARY_ACCESSION_NUMBERS>  (1) 
DB05921

>  <COMMON_NAME>  (1) 
Abexinostat

>  <CAS_NUMBER>  (1) 
783355-60-2

>  <UNII>  (1) 
IYO470654U

>  <SYNONYMS>  (1) 
Abexinostat

$$$$
