
     RDKit          2D

 25 27  0  0  1  0  0  0  0  0999 V2000
   -2.4860   -2.9486    0.0000 C   0  0  0  0  0  0  0  0  0  0  0  0
   -1.7014   -3.2036    0.0000 C   0  0  0  0  0  0  0  0  0  0  0  0
   -1.4464   -3.9882    0.0000 C   0  0  0  0  0  0  0  0  0  0  0  0
   -0.6214   -3.9882    0.0000 C   0  0  0  0  0  0  0  0  0  0  0  0
   -0.3665   -3.2036    0.0000 C   0  0  0  0  0  0  0  0  0  0  0  0
   -1.0339   -2.7186    0.0000 N   0  0  0  0  0  0  0  0  0  0  0  0
   -1.0339   -1.8936    0.0000 C   0  0  0  0  0  0  0  0  0  0  0  0
   -1.7484   -1.4811    0.0000 O   0  0  0  0  0  0  0  0  0  0  0  0
   -0.3194   -1.4811    0.0000 C   0  0  0  0  0  0  0  0  0  0  0  0
   -0.3194   -0.6561    0.0000 C   0  0  0  0  0  0  0  0  0  0  0  0
   -1.0339   -0.2436    0.0000 C   0  0  0  0  0  0  0  0  0  0  0  0
   -1.7876   -0.5792    0.0000 C   0  0  0  0  0  0  0  0  0  0  0  0
   -2.3396    0.0339    0.0000 S   0  0  0  0  0  0  0  0  0  0  0  0
   -1.9271    0.7484    0.0000 C   0  0  0  0  0  0  0  0  0  0  0  0
   -1.1202    0.5769    0.0000 N   0  0  0  0  0  0  0  0  0  0  0  0
    0.3950   -1.8936    0.0000 N   0  0  0  0  0  0  0  0  0  0  0  0
    1.1095   -1.4811    0.0000 C   0  0  0  0  0  0  0  0  0  0  0  0
    1.8240   -1.8936    0.0000 O   0  0  0  0  0  0  0  0  0  0  0  0
    1.1095   -0.6561    0.0000 C   0  0  0  0  0  0  0  0  0  0  0  0
    0.4421   -0.1712    0.0000 N   0  0  0  0  0  0  0  0  0  0  0  0
    0.6970    0.6134    0.0000 C   0  0  0  0  0  0  0  0  0  0  0  0
    0.2121    1.2809    0.0000 O   0  0  0  0  0  0  0  0  0  0  0  0
    1.5220    0.6134    0.0000 O   0  0  0  0  0  0  0  0  0  0  0  0
    1.7769   -0.1712    0.0000 C   0  0  0  0  0  0  0  0  0  0  0  0
    2.5616   -0.4261    0.0000 C   0  0  0  0  0  0  0  0  0  0  0  0
  2  1  1  1
  2  3  1  0
  2  6  1  0
  3  4  1  0
  4  5  1  0
  5  6  1  0
  6  7  1  0
  7  8  2  0
  9  7  1  0
  9 10  1  6
  9 16  1  0
 10 11  1  0
 11 12  2  0
 11 15  1  0
 12 13  1  0
 13 14  1  0
 14 15  2  0
 16 17  1  0
 17 18  2  0
 19 17  1  1
 19 20  1  0
 19 24  1  0
 20 21  1  0
 21 22  2  0
 21 23  1  0
 24 23  1  0
 24 25  1  1
M  END
>  <DRUGBANK_ID>  (1) 
DB15338

>  <COMMON_NAME>  (1) 
Rovatirelin

>  <CAS_NUMBER>  (1) 
204386-76-5

>  <UNII>  (1) 
9DL0X410PY

>  <SYNONYMS>  (1) 
Rovatirelin

$$$$
