888
     RDKit          2D

  8  7  0  0  0  0  0  0  0  0999 V2000
    5.9370    0.6188    0.0000 Cl  0  0  0  0  0  0  0  0  0  0  0  0
    1.6500    0.6188    0.0000 Cl  0  0  0  0  0  0  0  0  0  0  0  0
    3.7935    0.2063    0.0000 N   0  0  0  0  0  0  0  0  0  0  0  0
    4.5080    0.6188    0.0000 C   0  0  0  0  0  0  0  0  0  0  0  0
    3.0791    0.6188    0.0000 C   0  0  0  0  0  0  0  0  0  0  0  0
    3.7935   -0.6188    0.0000 C   0  0  0  0  0  0  0  0  0  0  0  0
    5.2224    0.2063    0.0000 C   0  0  0  0  0  0  0  0  0  0  0  0
    2.3645    0.2063    0.0000 C   0  0  0  0  0  0  0  0  0  0  0  0
  1  7  1  0
  2  8  1  0
  3  4  1  0
  3  5  1  0
  3  6  1  0
  4  7  1  0
  5  8  1  0
M  END
>  <DRUGBANK_ID>  (1) 
DB00888

>  <SECONDARY_ACCESSION_NUMBERS>  (1) 
APRD00249

>  <COMMON_NAME>  (1) 
Mechlorethamine

>  <CAS_NUMBER>  (1) 
51-75-2

>  <UNII>  (1) 
50D9XSG0VR

>  <SYNONYMS>  (1) 
2,2'-dichloro-N-methyldiethylamine; bis(2-chloroethyl)methylamine; bis(β-chloroethyl)methylamine; Chlormethine; Chlormethinum; Clormetina; Mechlorethamine; methylbis(2-chloroethyl)amine; methylbis(β-chloroethyl)amine; Mustine; N-methyl-bis(2-chloroethyl)amine; N-methyl-bis(β-chloroethyl)amine; Nitrogen mustard; β,β'-dichlorodiethyl-N-methylamine

$$$$
