
     RDKit          2D

 12 12  0  0  0  0  0  0  0  0999 V2000
    1.0715    1.0317    0.0000 O   0  0  0  0  0  0  0  0  0  0  0  0
    0.3573    0.6185    0.0000 C   0  0  0  0  0  0  0  0  0  0  0  0
   -0.3604    1.0310    0.0000 C   0  0  0  0  0  0  0  0  0  0  0  0
   -1.0700    0.6185    0.0000 C   0  0  0  0  0  0  0  0  0  0  0  0
   -1.7853    1.0300    0.0000 O   0  0  0  0  0  0  0  0  0  0  0  0
   -1.7865    1.8551    0.0000 C   0  0  0  0  0  0  0  0  0  0  0  0
   -1.0700   -0.2065    0.0000 C   0  0  0  0  0  0  0  0  0  0  0  0
   -0.3604   -0.6192    0.0000 C   0  0  0  0  0  0  0  0  0  0  0  0
   -0.3624   -1.4443    0.0000 O   0  0  0  0  0  0  0  0  0  0  0  0
   -1.0781   -1.8551    0.0000 C   0  0  0  0  0  0  0  0  0  0  0  0
    0.3573   -0.2065    0.0000 C   0  0  0  0  0  0  0  0  0  0  0  0
    1.7865    0.6199    0.0000 C   0  0  0  0  0  0  0  0  0  0  0  0
  1  2  1  0
  1 12  1  0
  2  3  2  0
  3  4  1  0
  4  5  1  0
  4  7  2  0
  5  6  1  0
  7  8  1  0
  8  9  1  0
  8 11  2  0
  9 10  1  0
 11  2  1  0
M  END
>  <DRUGBANK_ID>  (1) 
DB15875

>  <COMMON_NAME>  (1) 
1,3,5-Trimethoxybenzene

>  <CAS_NUMBER>  (1) 
621-23-8

>  <UNII>  (1) 
00VJI3VG3D

>  <SYNONYMS>  (1) 
1,3,5-Trimethoxybenzene; 1,3,5-Trimethyoxybenzene; Phloroglucinol trimethyl ether; sym-Trimethoxybenzene

$$$$
