
     RDKit          2D

 40 42  0  0  0  0  0  0  0  0999 V2000
   -2.3446   -0.0726    0.0000 N   0  0  0  0  0  0  0  0  0  0  0  0
   -2.3495    0.7460    0.0000 C   0  0  0  0  0  0  0  0  0  0  0  0
   -3.1730   -0.0823    0.0000 C   0  0  0  0  0  0  0  0  0  0  0  0
   -3.1730    0.7460    0.0000 C   0  0  0  0  0  0  0  0  0  0  0  0
   -1.5598   -0.3293    0.0000 C   0  0  0  0  0  0  0  0  0  0  0  0
   -1.5647    1.0028    0.0000 S   0  0  0  0  0  0  0  0  0  0  0  0
   -1.0803    0.3391    0.0000 C   0  0  0  0  0  0  0  0  0  0  0  0
   -3.8901    1.1626    0.0000 N   0  0  0  0  0  0  0  0  0  0  0  0
   -1.5647   -1.1481    0.0000 C   0  0  0  0  0  0  0  0  0  0  0  0
   -4.6119    0.7460    0.0000 C   0  0  0  0  0  0  0  0  0  0  0  0
    3.2651    0.2761    0.0000 C   0  0  0  0  0  0  0  0  0  0  0  0
   -3.7544   -0.6636    0.0000 O   0  0  0  0  0  0  0  0  0  0  0  0
    2.5675   -0.1307    0.0000 C   0  0  0  0  0  0  0  0  0  0  0  0
   -2.2865   -1.5550    0.0000 O   0  0  0  0  0  0  0  0  0  0  0  0
   -4.6119   -0.0726    0.0000 O   0  0  0  0  0  0  0  0  0  0  0  0
    3.2360    1.0609    0.0000 O   0  0  0  0  0  0  0  0  0  0  0  0
   -5.3239    1.1626    0.0000 C   0  0  0  0  0  0  0  0  0  0  0  0
    2.5529   -1.0172    0.0000 C   0  0  0  0  0  0  0  0  0  0  0  0
    1.7972    0.3052    0.0000 C   0  0  0  0  0  0  0  0  0  0  0  0
    3.9627   -0.1404    0.0000 O   0  0  0  0  0  0  0  0  0  0  0  0
   -0.8622   -1.5695    0.0000 O   0  0  0  0  0  0  0  0  0  0  0  0
    1.0561   -0.9882    0.0000 C   0  0  0  0  0  0  0  0  0  0  0  0
   -0.3681   -0.0726    0.0000 C   0  0  0  0  0  0  0  0  0  0  0  0
   -0.3681    0.7556    0.0000 C   0  0  0  0  0  0  0  0  0  0  0  0
    6.0652    0.2665    0.0000 N   0  0  0  0  0  0  0  0  0  0  0  0
    0.3439   -1.3952    0.0000 N   0  0  0  0  0  0  0  0  0  0  0  0
    1.8069   -1.4339    0.0000 C   0  0  0  0  0  0  0  0  0  0  0  0
    1.0561   -0.1162    0.0000 C   0  0  0  0  0  0  0  0  0  0  0  0
   -6.0361    0.7460    0.0000 C   0  0  0  0  0  0  0  0  0  0  0  0
    4.6699    0.2615    0.0000 C   0  0  0  0  0  0  0  0  0  0  0  0
    5.3579   -0.1307    0.0000 C   0  0  0  0  0  0  0  0  0  0  0  0
    6.0410    1.0754    0.0000 C   0  0  0  0  0  0  0  0  0  0  0  0
    6.7433   -0.1453    0.0000 C   0  0  0  0  0  0  0  0  0  0  0  0
   -6.0361   -0.0677    0.0000 C   0  0  0  0  0  0  0  0  0  0  0  0
   -6.7482    1.1626    0.0000 C   0  0  0  0  0  0  0  0  0  0  0  0
    6.7385    1.4873    0.0000 C   0  0  0  0  0  0  0  0  0  0  0  0
    7.4603    0.2470    0.0000 C   0  0  0  0  0  0  0  0  0  0  0  0
   -7.4603    0.7556    0.0000 C   0  0  0  0  0  0  0  0  0  0  0  0
   -6.7385   -0.4795    0.0000 C   0  0  0  0  0  0  0  0  0  0  0  0
   -7.4603   -0.0726    0.0000 C   0  0  0  0  0  0  0  0  0  0  0  0
  2  1  1  0
  3  1  1  0
  4  3  1  0
  4  8  1  1
  4  2  1  0
  5  1  1  0
  5  9  1  6
  2  6  1  1
  6  7  1  0
  7  5  1  0
 10  8  1  0
 12  3  2  0
 13 11  1  0
 14  9  2  0
 15 10  2  0
 16 11  2  0
 17 10  1  0
 18 13  2  0
 19 13  1  0
 20 11  1  0
 21  9  1  0
 22 28  1  0
 22 27  2  0
 23  7  1  0
 24  7  1  0
 25 31  1  0
 26 22  1  0
 27 18  1  0
 28 19  2  0
 29 17  1  0
 30 20  1  0
 31 30  1  0
 32 25  1  0
 33 25  1  0
 34 29  2  0
 35 29  1  0
 36 32  1  0
 37 33  1  0
 38 35  2  0
 39 34  1  0
 40 38  1  0
 40 39  2  0
M  END
>  <DRUGBANK_ID>  (1) 
DB09320

>  <COMMON_NAME>  (1) 
Procaine benzylpenicillin

>  <CAS_NUMBER>  (1) 
54-35-3

>  <UNII>  (1) 
1LW5K9CIR1

>  <SYNONYMS>  (1) 
Bencilpenicilina proca√≠na; Penicillin G procaine

$$$$
