
     RDKit          2D

 32 35  0  0  0  0  0  0  0  0999 V2000
    0.6078   11.7777    0.0000 C   0  0  0  0  0  0  0  0  0  0  0  0
    0.6078   10.9527    0.0000 C   0  0  0  0  0  0  0  0  0  0  0  0
   -0.1067   10.5402    0.0000 C   0  0  0  0  0  0  0  0  0  0  0  0
    1.3222   10.5402    0.0000 N   0  0  0  0  0  0  0  0  0  0  0  0
    1.3222    9.7152    0.0000 C   0  0  0  0  0  0  0  0  0  0  0  0
    2.0367    9.3027    0.0000 N   0  0  0  0  0  0  0  0  0  0  0  0
    2.0367    8.4777    0.0000 C   0  0  0  0  0  0  0  0  0  0  0  0
    1.3222    8.0652    0.0000 C   0  0  0  0  0  0  0  0  0  0  0  0
    1.3222    7.2402    0.0000 C   0  0  0  0  0  0  0  0  0  0  0  0
    2.0367    6.8277    0.0000 C   0  0  0  0  0  0  0  0  0  0  0  0
    2.0367    6.0027    0.0000 C   0  0  0  0  0  0  0  0  0  0  0  0
    1.3222    5.5902    0.0000 C   0  0  0  0  0  0  0  0  0  0  0  0
    1.3222    4.7652    0.0000 O   0  0  0  0  0  0  0  0  0  0  0  0
    2.0367    4.3527    0.0000 C   0  0  0  0  0  0  0  0  0  0  0  0
    2.7512    4.7652    0.0000 C   0  0  0  0  0  0  0  0  0  0  0  0
    3.4656    4.3527    0.0000 C   0  0  0  0  0  0  0  0  0  0  0  0
    3.4656    3.5277    0.0000 N   0  0  0  0  0  0  0  0  0  0  0  0
    2.7512    3.1152    0.0000 C   0  0  0  0  0  0  0  0  0  0  0  0
    2.0367    3.5277    0.0000 C   0  0  0  0  0  0  0  0  0  0  0  0
    2.7512    2.2902    0.0000 C   0  0  0  0  0  0  0  0  0  0  0  0
    3.4186    1.8053    0.0000 C   0  0  0  0  0  0  0  0  0  0  0  0
    3.1637    1.0206    0.0000 N   0  0  0  0  0  0  0  0  0  0  0  0
    2.3387    1.0206    0.0000 N   0  0  0  0  0  0  0  0  0  0  0  0
    1.8538    0.3532    0.0000 C   0  0  0  0  0  0  0  0  0  0  0  0
    2.0837    1.8053    0.0000 C   0  0  0  0  0  0  0  0  0  0  0  0
    0.6078    6.0027    0.0000 C   0  0  0  0  0  0  0  0  0  0  0  0
   -0.1067    5.5902    0.0000 C   0  0  0  0  0  0  0  0  0  0  0  0
    0.6078    6.8277    0.0000 N   0  0  0  0  0  0  0  0  0  0  0  0
    0.6078    8.4777    0.0000 C   0  0  0  0  0  0  0  0  0  0  0  0
   -0.1067    8.0652    0.0000 O   0  0  0  0  0  0  0  0  0  0  0  0
    0.6078    9.3027    0.0000 N   0  0  0  0  0  0  0  0  0  0  0  0
   -0.1067    9.7152    0.0000 C   0  0  0  0  0  0  0  0  0  0  0  0
  1  2  1  0
  2  3  1  0
  2  4  1  0
  4  5  1  0
  5  6  2  0
  5 31  1  0
  6  7  1  0
  7  8  2  0
  8  9  1  0
  8 29  1  0
  9 10  2  0
  9 28  1  0
 10 11  1  0
 11 12  2  0
 12 13  1  0
 12 26  1  0
 13 14  1  0
 14 15  2  0
 14 19  1  0
 15 16  1  0
 16 17  2  0
 17 18  1  0
 18 19  2  0
 18 20  1  0
 20 21  1  0
 20 25  2  0
 21 22  2  0
 22 23  1  0
 23 24  1  0
 23 25  1  0
 26 27  1  0
 26 28  2  0
 29 30  2  0
 29 31  1  0
 31 32  1  0
M  END
>  <DRUGBANK_ID>  (1) 
DB17520

>  <COMMON_NAME>  (1) 
Vimseltinib

>  <CAS_NUMBER>  (1) 
1628606-05-2

>  <UNII>  (1) 
PX9FTM69BF

>  <SYNONYMS>  (1) 
2-(isopropylamino)-3-methyl-5-(6-methyl-5-((2-(1-methyl-1h-pyrazol-4-yl)pyridin-4-yl)oxy)pyridin-2-yl)pyrimidin-4(3h)-one; 3-methyl-2-((1-methylethyl)amino)-5-(6-methyl-5-((2-(1-methyl-1h-pyrazol-4-yl)-4-pyridinyl)oxy)-2-pyridinyl)-4(3h)-pyrimidinone; 4(3h)-pyrimidinone, 3-methyl-2-((1-methylethyl)amino)-5-(6-methyl-5-((2-(1-methyl-1h-pyrazol-4-yl)-4-pyridinyl)oxy)-2-pyridinyl)-

$$$$
