NFT
     RDKit          2D

 33 34  0  0  0  0  0  0  0  0999 V2000
   -1.3767    0.1309    0.0000 C   0  0  0  0  0  0  0  0  0  0  0  0
    0.0523    0.1309    0.0000 C   0  0  0  0  0  0  0  0  0  0  0  0
   -0.6622   -0.2816    0.0000 C   0  0  0  0  0  0  0  0  0  0  0  0
   -0.6622   -1.1066    0.0000 C   0  0  0  0  0  0  0  0  0  0  0  0
    0.0523   -1.5191    0.0000 C   0  0  0  0  0  0  0  0  0  0  0  0
    0.7667   -0.2816    0.0000 C   0  0  0  0  0  0  0  0  0  0  0  0
    0.7667   -1.1066    0.0000 C   0  0  0  0  0  0  0  0  0  0  0  0
    1.4812   -1.5191    0.0000 C   0  0  0  0  0  0  0  0  0  0  0  0
    1.4812   -2.3441    0.0000 C   0  0  0  0  0  0  0  0  0  0  0  0
    0.6562   -2.3441    0.0000 F   0  0  0  0  0  0  0  0  0  0  0  0
    1.4812   -3.1691    0.0000 F   0  0  0  0  0  0  0  0  0  0  0  0
    2.3062   -2.3441    0.0000 F   0  0  0  0  0  0  0  0  0  0  0  0
    4.3391   -1.5191    0.0000 N   0  0  0  0  0  0  0  0  0  0  0  0
    5.0536   -1.1066    0.0000 C   0  0  0  0  0  0  0  0  0  0  0  0
    2.1957   -1.1066    0.0000 N   0  0  0  0  0  0  0  0  0  0  0  0
    2.9102   -1.5191    0.0000 C   0  0  0  0  0  0  0  0  0  0  0  0
    2.9102   -2.3441    0.0000 C   0  0  0  0  0  0  0  0  0  0  0  0
    3.6246   -2.7566    0.0000 C   0  0  0  0  0  0  0  0  0  0  0  0
    4.3391   -2.3441    0.0000 C   0  0  0  0  0  0  0  0  0  0  0  0
    3.6246   -3.5816    0.0000 C   0  0  0  0  0  0  0  0  0  0  0  0
    3.6246   -1.1066    0.0000 C   0  0  0  0  0  0  0  0  0  0  0  0
    3.6246   -0.2816    0.0000 O   0  0  0  0  0  0  0  0  0  0  0  0
   -2.0911   -0.2816    0.0000 C   0  0  0  0  0  0  0  0  0  0  0  0
   -2.8056    0.1309    0.0000 C   0  0  0  0  0  0  0  0  0  0  0  0
   -2.8056    0.9559    0.0000 C   0  0  0  0  0  0  0  0  0  0  0  0
   -2.0911    1.3684    0.0000 C   0  0  0  0  0  0  0  0  0  0  0  0
   -1.3767    0.9559    0.0000 C   0  0  0  0  0  0  0  0  0  0  0  0
   -3.5201    1.3684    0.0000 S   0  0  0  0  0  0  0  0  0  0  0  0
   -4.2345    1.7809    0.0000 N   0  0  0  0  0  0  0  0  0  0  0  0
   -3.1076    2.0828    0.0000 O   0  0  0  0  0  0  0  0  0  0  0  0
   -3.9326    0.6539    0.0000 O   0  0  0  0  0  0  0  0  0  0  0  0
    5.7680   -1.5191    0.0000 C   0  0  0  0  0  0  0  0  0  0  0  0
    6.4825   -1.1066    0.0000 N   0  0  0  0  0  0  0  0  0  0  0  0
  1  3  1  0
  1 23  2  0
  1 27  1  0
  2  6  2  0
  2  3  1  0
  3  4  2  0
  4  5  1  0
  5  7  2  0
  6  7  1  0
  7  8  1  0
  8  9  1  0
  8 15  1  6
  9 10  1  0
  9 12  1  0
  9 11  1  0
 13 14  1  0
 13 21  1  0
 14 32  1  0
 16 15  1  0
 16 21  1  0
 16 17  1  6
 17 18  1  0
 18 19  1  0
 18 20  1  0
 21 22  2  0
 23 24  1  0
 24 25  2  0
 25 26  1  0
 25 28  1  0
 26 27  2  0
 28 31  2  0
 28 30  2  0
 28 29  1  0
 32 33  1  0
M  END
>  <DRUGBANK_ID>  (1) 
DB08270

>  <COMMON_NAME>  (1) 
N-(2-AMINOETHYL)-N~2~-{(1S)-1-[4'-(AMINOSULFONYL)BIPHENYL-4-YL]-2,2,2-TRIFLUOROETHYL}-L-LEUCINAMIDE

$$$$
