
     RDKit          2D

 27 30  0  0  0  0  0  0  0  0999 V2000
   -2.5297   -0.7425    0.0000 C   0  0  0  0  0  0  0  0  0  0  0  0
   -2.5297   -1.5676    0.0000 C   0  0  0  0  0  0  0  0  0  0  0  0
   -1.8284   -1.9802    0.0000 C   0  0  0  0  0  0  0  0  0  0  0  0
   -1.0857   -1.5676    0.0000 C   0  0  0  0  0  0  0  0  0  0  0  0
   -1.0857   -0.7425    0.0000 C   0  0  0  0  0  0  0  0  0  0  0  0
   -1.8284   -0.3300    0.0000 C   0  0  0  0  0  0  0  0  0  0  0  0
   -0.3844   -1.9802    0.0000 C   0  0  0  0  0  0  0  0  0  0  0  0
    0.3168   -1.5676    0.0000 C   0  0  0  0  0  0  0  0  0  0  0  0
    0.3168   -0.7425    0.0000 C   0  0  0  0  0  0  0  0  0  0  0  0
   -0.3844   -0.3300    0.0000 C   0  0  0  0  0  0  0  0  0  0  0  0
    1.0182   -0.3300    0.0000 C   0  0  0  0  0  0  0  0  0  0  0  0
    1.0182    0.4951    0.0000 C   0  0  0  0  0  0  0  0  0  0  0  0
    0.3168    0.9076    0.0000 C   0  0  0  0  0  0  0  0  0  0  0  0
   -0.3844    0.4951    0.0000 C   0  0  0  0  0  0  0  0  0  0  0  0
    1.8020   -0.5775    0.0000 C   0  0  0  0  0  0  0  0  0  0  0  0
    2.2971    0.0825    0.0000 C   0  0  0  0  0  0  0  0  0  0  0  0
    1.8020    0.7425    0.0000 C   0  0  0  0  0  0  0  0  0  0  0  0
   -3.2311   -1.9802    0.0000 O   0  0  0  0  0  0  0  0  0  0  0  0
   -1.0857    0.9076    0.0000 O   0  0  0  0  0  0  0  0  0  0  0  0
    1.0182    1.3202    0.0000 C   0  0  0  0  0  0  0  0  0  0  0  0
   -0.3844   -1.1551    0.0000 F   0  0  0  0  0  0  0  0  0  0  0  0
    2.5859    0.9489    0.0000 O   0  0  0  0  0  0  0  0  0  0  0  0
   -1.0857    0.0825    0.0000 C   0  0  0  0  0  0  0  0  0  0  0  0
    1.8020    1.5677    0.0000 C   0  0  0  0  0  0  0  0  0  0  0  0
    1.0874    1.9802    0.0000 O   0  0  0  0  0  0  0  0  0  0  0  0
    2.5166    1.9802    0.0000 C   0  0  0  0  0  0  0  0  0  0  0  0
    3.2311    1.5677    0.0000 O   0  0  0  0  0  0  0  0  0  0  0  0
  1  2  1  0
  1  6  1  0
  2  3  1  0
  2 18  2  0
  3  4  2  0
  4  5  1  0
  4  7  1  0
  5  6  1  0
  5 10  1  0
  5 23  1  1
  7  8  1  0
  9  8  1  6
  9 10  1  0
  9 11  1  0
 10 14  1  0
 10 21  1  6
 11 12  1  0
 11 15  1  1
 12 13  1  0
 12 17  1  0
 12 20  1  1
 13 14  1  0
 14 19  1  1
 15 16  1  0
 16 17  1  0
 17 22  1  6
 17 24  1  0
 24 25  2  0
 24 26  1  0
 26 27  1  0
M  END
>  <DRUGBANK_ID>  (1) 
DB00687

>  <SECONDARY_ACCESSION_NUMBERS>  (1) 
APRD00756; DB02478

>  <COMMON_NAME>  (1) 
Fludrocortisone

>  <CAS_NUMBER>  (1) 
127-31-1

>  <UNII>  (1) 
U0476M545B

>  <SYNONYMS>  (1) 
9alpha-Fluorocortisol; Fludrocortison; Fludrocortisona; Fludrocortisone; Fludrocortisonum; Fluohydrocortisone

$$$$
