
     RDKit          2D

 11 10  0  0  1  0  0  0  0  0999 V2000
    1.6500    0.0000    0.0000 C   0  0  0  0  0  0  0  0  0  0  0  0
    0.8250    0.8250    0.0000 C   0  0  0  0  0  0  0  0  0  0  0  0
   -0.4125    0.7145    0.0000 C   0  0  0  0  0  0  0  0  0  0  0  0
   -1.2375    0.7145    0.0000 C   0  0  0  0  0  0  0  0  0  0  0  0
   -1.6500    1.4289    0.0000 C   0  0  0  0  0  0  0  0  0  0  0  0
    0.8250    0.0000    0.0000 As  0  0  0  0  0  5  0  0  0  0  0  0
   -1.6500    0.0000    0.0000 N   0  0  0  0  0  0  0  0  0  0  0  0
   -2.4750    1.4289    0.0000 O   0  0  0  0  0  0  0  0  0  0  0  0
   -1.2375    2.1434    0.0000 O   0  0  0  0  0  0  0  0  0  0  0  0
    0.8250   -0.8250    0.0000 O   0  0  0  0  0  0  0  0  0  0  0  0
    0.0000    0.0000    0.0000 S   0  0  0  0  0  0  0  0  0  0  0  0
  4  3  1  0
  4  7  1  6
  5  4  1  0
  6  1  1  0
  6  2  1  0
  8  5  2  0
  9  5  1  0
 10  6  2  0
 11  3  1  0
 11  6  1  0
M  END
>  <DRUGBANK_ID>  (1) 
DB03676

>  <SECONDARY_ACCESSION_NUMBERS>  (1) 
EXPT00825

>  <COMMON_NAME>  (1) 
Cystein-S-Yl Cacodylate

$$$$
