
     RDKit          2D

 32 35  0  0  1  0  0  0  0  0999 V2000
   -3.2995    0.4274    0.0000 C   0  0  0  0  0  0  0  0  0  0  0  0
   -2.4790    0.3412    0.0000 C   0  0  0  0  0  0  0  0  0  0  0  0
   -1.9940    1.0086    0.0000 C   0  0  0  0  0  0  0  0  0  0  0  0
   -2.1434   -0.4125    0.0000 C   0  0  0  0  0  0  0  0  0  0  0  0
   -1.6585   -1.0799    0.0000 C   0  0  0  0  0  0  0  0  0  0  0  0
   -2.1434   -1.7474    0.0000 C   0  0  0  0  0  0  0  0  0  0  0  0
   -2.9280   -1.4924    0.0000 C   0  0  0  0  0  0  0  0  0  0  0  0
   -2.9280   -0.6674    0.0000 C   0  0  0  0  0  0  0  0  0  0  0  0
   -3.5955   -1.9774    0.0000 N   0  0  0  0  0  0  0  0  0  0  0  0
   -3.5092   -2.7978    0.0000 C   0  0  0  0  0  0  0  0  0  0  0  0
   -2.7556   -3.1334    0.0000 C   0  0  0  0  0  0  0  0  0  0  0  0
   -2.6693   -3.9539    0.0000 C   0  0  0  0  0  0  0  0  0  0  0  0
   -3.3368   -4.4388    0.0000 O   0  0  0  0  0  0  0  0  0  0  0  0
   -4.0904   -4.1032    0.0000 C   0  0  0  0  0  0  0  0  0  0  0  0
   -4.1767   -3.2828    0.0000 C   0  0  0  0  0  0  0  0  0  0  0  0
   -4.9304   -2.9472    0.0000 O   0  0  0  0  0  0  0  0  0  0  0  0
   -5.0166   -2.1267    0.0000 C   0  0  0  0  0  0  0  0  0  0  0  0
   -1.4289    0.0000    0.0000 C   0  0  0  0  0  0  0  0  0  0  0  0
   -0.7145   -0.4125    0.0000 N   0  0  0  0  0  0  0  0  0  0  0  0
   -0.7145   -1.2375    0.0000 C   0  0  0  0  0  0  0  0  0  0  0  0
    0.0000   -1.6500    0.0000 C   0  0  0  0  0  0  0  0  0  0  0  0
    0.7145   -1.2375    0.0000 C   0  0  0  0  0  0  0  0  0  0  0  0
    0.7145   -0.4125    0.0000 C   0  0  0  0  0  0  0  0  0  0  0  0
    1.4289   -0.0000    0.0000 C   0  0  0  0  0  0  0  0  0  0  0  0
    2.1434   -0.4125    0.0000 C   0  0  0  0  0  0  0  0  0  0  0  0
    2.1434   -1.2375    0.0000 C   0  0  0  0  0  0  0  0  0  0  0  0
    1.4289   -1.6500    0.0000 N   0  0  0  0  0  0  0  0  0  0  0  0
    2.8579   -0.0000    0.0000 C   0  0  0  0  0  0  0  0  0  0  0  0
    3.5724    0.4125    0.0000 F   0  0  0  0  0  0  0  0  0  0  0  0
    3.2704   -0.7145    0.0000 F   0  0  0  0  0  0  0  0  0  0  0  0
    2.4454    0.7145    0.0000 F   0  0  0  0  0  0  0  0  0  0  0  0
    0.0000   -0.0000    0.0000 C   0  0  0  0  0  0  0  0  0  0  0  0
  1  2  1  0
  2  3  1  0
  4  2  1  0
  4  5  1  0
  4  8  1  0
  4 18  1  1
  5  6  1  0
  6  7  1  0
  7  8  1  0
  7  9  1  1
 10  9  1  1
 10 11  1  0
 10 15  1  0
 11 12  1  0
 12 13  1  0
 13 14  1  0
 14 15  1  0
 15 16  1  1
 16 17  1  0
 18 19  1  0
 19 20  1  0
 19 32  1  0
 20 21  1  0
 21 22  1  0
 22 23  2  0
 22 27  1  0
 23 24  1  0
 23 32  1  0
 24 25  2  0
 25 26  1  0
 25 28  1  0
 26 27  2  0
 28 29  1  0
 28 30  1  0
 28 31  1  0
M  END
>  <DRUGBANK_ID>  (1) 
DB11990

>  <COMMON_NAME>  (1) 
MK-0812

>  <CAS_NUMBER>  (1) 
624733-88-6

>  <UNII>  (1) 
P3LKY4ZL5O

$$$$
