
     RDKit          2D

 22 25  0  0  0  0  0  0  0  0999 V2000
    0.7145    1.2376    0.0000 C   0  0  0  0  0  0  0  0  0  0  0  0
    0.7145    0.4125    0.0000 C   0  0  0  0  0  0  0  0  0  0  0  0
    0.0000    1.6500    0.0000 C   0  0  0  0  0  0  0  0  0  0  0  0
    0.0000    0.0000    0.0000 C   0  0  0  0  0  0  0  0  0  0  0  0
   -0.7144    1.2376    0.0000 C   0  0  0  0  0  0  0  0  0  0  0  0
   -0.7144    0.4125    0.0000 C   0  0  0  0  0  0  0  0  0  0  0  0
    1.4290    1.6499    0.0000 C   0  0  0  0  0  0  0  0  0  0  0  0
    2.1434    1.2375    0.0000 C   0  0  0  0  0  0  0  0  0  0  0  0
    1.4289    0.0000    0.0000 C   0  0  0  0  0  0  0  0  0  0  0  0
    2.1434    0.4125    0.0000 C   0  0  0  0  0  0  0  0  0  0  0  0
   -1.4289    1.6499    0.0000 C   0  0  0  0  0  0  0  0  0  0  0  0
   -2.1434    1.2375    0.0000 C   0  0  0  0  0  0  0  0  0  0  0  0
   -1.4289    0.0000    0.0000 C   0  0  0  0  0  0  0  0  0  0  0  0
   -2.1434    0.4125    0.0000 C   0  0  0  0  0  0  0  0  0  0  0  0
    0.3081    1.1133    0.0000 O   0  0  0  0  0  0  0  0  0  0  0  0
    0.3081    0.5865    0.0000 O   0  0  0  0  0  0  0  0  0  0  0  0
    0.0000   -0.8249    0.0000 C   0  0  0  0  0  0  0  0  0  0  0  0
   -0.7145   -1.2375    0.0000 C   0  0  0  0  0  0  0  0  0  0  0  0
   -0.7145   -2.0625    0.0000 C   0  0  0  0  0  0  0  0  0  0  0  0
   -1.4291   -2.4750    0.0000 O   0  0  0  0  0  0  0  0  0  0  0  0
    0.0000    2.4750    0.0000 C   0  0  0  0  0  0  0  0  0  0  0  0
    0.0000   -2.4750    0.0000 O   0  0  0  0  0  0  0  0  0  0  0  0
  2  1  1  0
  3  1  1  0
  3 15  1  0
  3 21  1  1
  4  2  1  0
  4 16  1  0
  4 17  1  1
  5  3  1  0
  6  4  1  0
  6  5  2  0
  7  1  2  0
  8  7  1  0
  9  2  2  0
 10  8  2  0
 10  9  1  0
 11  5  1  0
 12 11  2  0
 13  6  1  0
 14 12  1  0
 14 13  2  0
 15 16  1  0
 17 18  1  0
 18 19  1  0
 19 20  1  0
 19 22  2  0
M  END
>  <DRUGBANK_ID>  (1) 
DB08332

>  <COMMON_NAME>  (1) 
9-(2-carboxyethyl)-10-methylanthracene endoperoxide

>  <SYNONYMS>  (1) 
[2'-CARBOXYLETHYL]-10-METHYL-ANTHRACENE ENDOPEROXIDE

$$$$
