MGI
     RDKit          2D

 22 23  0  0  0  0  0  0  0  0999 V2000
   -1.4967    2.8025    0.0000 O   0  0  0  0  0  0  0  0  0  0  0  0
   -0.7822    2.3900    0.0000 C   0  0  0  0  0  0  0  0  0  0  0  0
   -0.0677    2.8025    0.0000 O   0  0  0  0  0  0  0  0  0  0  0  0
   -0.0677    3.6275    0.0000 C   0  0  0  0  0  0  0  0  0  0  0  0
   -0.7822    1.5650    0.0000 C   0  0  0  0  0  0  0  0  0  0  0  0
   -1.4967    1.1525    0.0000 C   0  0  0  0  0  0  0  0  0  0  0  0
   -2.2111    1.5650    0.0000 O   0  0  0  0  0  0  0  0  0  0  0  0
   -1.4967    0.3275    0.0000 C   0  0  0  0  0  0  0  0  0  0  0  0
   -0.0677    1.1525    0.0000 C   0  0  0  0  0  0  0  0  0  0  0  0
    0.6467    1.5650    0.0000 C   0  0  0  0  0  0  0  0  0  0  0  0
   -0.0677    0.3275    0.0000 C   0  0  0  0  0  0  0  0  0  0  0  0
   -0.7822   -0.0850    0.0000 C   0  0  0  0  0  0  0  0  0  0  0  0
   -0.7822   -0.9100    0.0000 O   0  0  0  0  0  0  0  0  0  0  0  0
   -0.0677   -1.3225    0.0000 C   0  0  0  0  0  0  0  0  0  0  0  0
    0.6467   -0.9100    0.0000 C   0  0  0  0  0  0  0  0  0  0  0  0
   -0.0677   -2.1475    0.0000 C   0  0  0  0  0  0  0  0  0  0  0  0
   -0.7822   -2.5600    0.0000 O   0  0  0  0  0  0  0  0  0  0  0  0
    0.6467   -2.5600    0.0000 C   0  0  0  0  0  0  0  0  0  0  0  0
    0.6467   -3.3850    0.0000 O   0  0  0  0  0  0  0  0  0  0  0  0
    1.3612   -2.1475    0.0000 C   0  0  0  0  0  0  0  0  0  0  0  0
    1.3612   -1.3225    0.0000 C   0  0  0  0  0  0  0  0  0  0  0  0
    2.0757   -0.9100    0.0000 C   0  0  0  0  0  0  0  0  0  0  0  0
  1  2  2  0
  2  3  1  0
  2  5  1  0
  3  4  1  0
  5  9  2  0
  5  6  1  0
  6  8  2  0
  6  7  1  0
  8 12  1  0
  9 10  1  0
  9 11  1  0
 11 12  2  0
 12 13  1  0
 13 14  1  0
 14 15  2  0
 14 16  1  0
 15 21  1  0
 16 18  2  0
 16 17  1  0
 18 20  1  0
 18 19  1  0
 20 21  2  0
 21 22  1  0
M  END
>  <DRUGBANK_ID>  (1) 
DB08179

>  <COMMON_NAME>  (1) 
methyl 4-(2,3-dihydroxy-5-methylphenoxy)-2-hydroxy-6-methylbenzoate

>  <UNII>  (1) 
JWQ46YJR3Q

$$$$
