S11
     RDKit          2D

 29 31  0  0  0  0  0  0  0  0999 V2000
    1.6663   -0.0583    0.0000 N   0  0  0  0  0  0  0  0  0  0  0  0
    1.4113   -0.8429    0.0000 C   0  0  0  0  0  0  0  0  0  0  0  0
    0.5863   -0.8429    0.0000 C   0  0  0  0  0  0  0  0  0  0  0  0
    0.3314   -0.0583    0.0000 N   0  0  0  0  0  0  0  0  0  0  0  0
    0.9988    0.4267    0.0000 C   0  0  0  0  0  0  0  0  0  0  0  0
   -0.7191   -1.4241    0.0000 C   0  0  0  0  0  0  0  0  0  0  0  0
    0.1014   -1.5103    0.0000 S   0  0  0  0  0  0  0  0  0  0  0  0
   -1.2040   -2.0915    0.0000 C   0  0  0  0  0  0  0  0  0  0  0  0
   -2.0245   -2.0053    0.0000 C   0  0  0  0  0  0  0  0  0  0  0  0
   -2.5094   -2.6727    0.0000 Cl  0  0  0  0  0  0  0  0  0  0  0  0
   -2.3600   -1.2516    0.0000 C   0  0  0  0  0  0  0  0  0  0  0  0
   -1.8751   -0.5842    0.0000 C   0  0  0  0  0  0  0  0  0  0  0  0
   -2.2107    0.1695    0.0000 Cl  0  0  0  0  0  0  0  0  0  0  0  0
   -1.0546   -0.6704    0.0000 C   0  0  0  0  0  0  0  0  0  0  0  0
    1.8962   -1.5103    0.0000 C   0  0  0  0  0  0  0  0  0  0  0  0
    1.5607   -2.2640    0.0000 C   0  0  0  0  0  0  0  0  0  0  0  0
    2.7167   -1.4241    0.0000 C   0  0  0  0  0  0  0  0  0  0  0  0
   -0.4532    0.1967    0.0000 C   0  0  0  0  0  0  0  0  0  0  0  0
   -0.6248    1.0037    0.0000 C   0  0  0  0  0  0  0  0  0  0  0  0
   -1.4094    1.2586    0.0000 C   0  0  0  0  0  0  0  0  0  0  0  0
   -1.5809    2.0656    0.0000 C   0  0  0  0  0  0  0  0  0  0  0  0
   -0.9678    2.6176    0.0000 N   0  0  0  0  0  0  0  0  0  0  0  0
   -0.1832    2.3627    0.0000 C   0  0  0  0  0  0  0  0  0  0  0  0
   -0.0117    1.5557    0.0000 C   0  0  0  0  0  0  0  0  0  0  0  0
    0.9988    1.2517    0.0000 C   0  0  0  0  0  0  0  0  0  0  0  0
    1.7133    1.6642    0.0000 O   0  0  0  0  0  0  0  0  0  0  0  0
    1.7133    2.4892    0.0000 C   0  0  0  0  0  0  0  0  0  0  0  0
    0.9988    2.9017    0.0000 N   0  0  0  0  0  0  0  0  0  0  0  0
    2.4278    2.9017    0.0000 O   0  0  0  0  0  0  0  0  0  0  0  0
  1  2  1  0
  1  5  2  0
  2  3  2  0
  2 15  1  0
  3  4  1  0
  3  7  1  0
  4  5  1  0
  4 18  1  0
  5 25  1  0
  6  7  1  0
  6  8  2  0
  6 14  1  0
  8  9  1  0
  9 10  1  0
  9 11  2  0
 11 12  1  0
 12 13  1  0
 12 14  2  0
 15 16  1  0
 15 17  1  0
 18 19  1  0
 19 20  2  0
 19 24  1  0
 20 21  1  0
 21 22  2  0
 22 23  1  0
 23 24  2  0
 25 26  1  0
 26 27  1  0
 27 28  1  0
 27 29  2  0
M  END
>  <DRUGBANK_ID>  (1) 
DB08502

>  <SECONDARY_ACCESSION_NUMBERS>  (1) 
DB06456

>  <COMMON_NAME>  (1) 
Capravirine

>  <CAS_NUMBER>  (1) 
178979-85-6

>  <UNII>  (1) 
VHC779598X

>  <SYNONYMS>  (1) 
Capravirina; Capravirine; Capravirinum

$$$$
