A37
     RDKit          2D

 22 24  0  0  0  0  0  0  0  0999 V2000
   -1.5738   -1.8866    0.0000 C   0  0  0  0  0  0  0  0  0  0  0  0
   -2.3988   -1.8866    0.0000 C   0  0  0  0  0  0  0  0  0  0  0  0
   -2.8113   -1.1722    0.0000 C   0  0  0  0  0  0  0  0  0  0  0  0
   -2.3988   -0.4577    0.0000 C   0  0  0  0  0  0  0  0  0  0  0  0
   -1.5738   -0.4577    0.0000 C   0  0  0  0  0  0  0  0  0  0  0  0
   -1.1613   -1.1722    0.0000 C   0  0  0  0  0  0  0  0  0  0  0  0
   -1.1613    0.2568    0.0000 S   0  0  0  0  0  0  0  0  0  0  0  0
   -0.4468   -0.1557    0.0000 O   0  0  0  0  0  0  0  0  0  0  0  0
   -1.8758    0.6693    0.0000 O   0  0  0  0  0  0  0  0  0  0  0  0
   -0.7488    0.9713    0.0000 N   0  0  0  0  0  0  0  0  0  0  0  0
    0.0762    0.9713    0.0000 C   0  0  0  0  0  0  0  0  0  0  0  0
    0.5611    1.6387    0.0000 N   0  0  0  0  0  0  0  0  0  0  0  0
    1.3458    1.3838    0.0000 C   0  0  0  0  0  0  0  0  0  0  0  0
    2.0602    1.7963    0.0000 C   0  0  0  0  0  0  0  0  0  0  0  0
    2.7747    1.3838    0.0000 C   0  0  0  0  0  0  0  0  0  0  0  0
    3.4892    1.7963    0.0000 Cl  0  0  0  0  0  0  0  0  0  0  0  0
    2.7747    0.5588    0.0000 C   0  0  0  0  0  0  0  0  0  0  0  0
    2.0602    0.1463    0.0000 C   0  0  0  0  0  0  0  0  0  0  0  0
    1.3458    0.5588    0.0000 C   0  0  0  0  0  0  0  0  0  0  0  0
    0.5611    0.3038    0.0000 O   0  0  0  0  0  0  0  0  0  0  0  0
   -3.6363   -1.1722    0.0000 Cl  0  0  0  0  0  0  0  0  0  0  0  0
   -0.3363   -1.1722    0.0000 Cl  0  0  0  0  0  0  0  0  0  0  0  0
  1  2  2  0
  1  6  1  0
  2  3  1  0
  3  4  2  0
  3 21  1  0
  4  5  1  0
  5  6  2  0
  5  7  1  0
  6 22  1  0
  7  8  2  0
  7  9  2  0
  7 10  1  0
 10 11  1  0
 11 12  2  0
 11 20  1  0
 12 13  1  0
 13 14  2  0
 13 19  1  0
 14 15  1  0
 15 16  1  0
 15 17  2  0
 17 18  1  0
 18 19  2  0
 19 20  1  0
M  END
>  <DRUGBANK_ID>  (1) 
DB07312

>  <COMMON_NAME>  (1) 
2,5-DICHLORO-N-(5-CHLORO-1,3-BENZOXAZOL-2-YL)BENZENESULFONAMIDE

$$$$
