BLZ
     RDKit          2D

 31 34  0  0  0  0  0  0  0  0999 V2000
    2.5859   -4.3233    0.0000 C   0  0  0  0  0  0  0  0  0  0  0  0
    1.8715   -4.7358    0.0000 O   0  0  0  0  0  0  0  0  0  0  0  0
    1.1570   -4.3233    0.0000 C   0  0  0  0  0  0  0  0  0  0  0  0
    0.4425   -4.7358    0.0000 C   0  0  0  0  0  0  0  0  0  0  0  0
   -0.2719   -4.3233    0.0000 C   0  0  0  0  0  0  0  0  0  0  0  0
   -1.0566   -4.5782    0.0000 N   0  0  0  0  0  0  0  0  0  0  0  0
   -1.5415   -3.9108    0.0000 C   0  0  0  0  0  0  0  0  0  0  0  0
   -1.0566   -3.2433    0.0000 N   0  0  0  0  0  0  0  0  0  0  0  0
   -1.3115   -2.4587    0.0000 C   0  0  0  0  0  0  0  0  0  0  0  0
   -0.8266   -1.7913    0.0000 C   0  0  0  0  0  0  0  0  0  0  0  0
   -1.3115   -1.1238    0.0000 C   0  0  0  0  0  0  0  0  0  0  0  0
   -1.0566   -0.3392    0.0000 O   0  0  0  0  0  0  0  0  0  0  0  0
   -0.2496   -0.1677    0.0000 C   0  0  0  0  0  0  0  0  0  0  0  0
    0.3024   -0.7808    0.0000 C   0  0  0  0  0  0  0  0  0  0  0  0
    0.0053    0.6169    0.0000 C   0  0  0  0  0  0  0  0  0  0  0  0
   -0.5467    1.2300    0.0000 C   0  0  0  0  0  0  0  0  0  0  0  0
   -0.2917    2.0147    0.0000 C   0  0  0  0  0  0  0  0  0  0  0  0
    0.5152    2.1862    0.0000 C   0  0  0  0  0  0  0  0  0  0  0  0
    1.0673    1.5731    0.0000 C   0  0  0  0  0  0  0  0  0  0  0  0
    0.8123    0.7885    0.0000 C   0  0  0  0  0  0  0  0  0  0  0  0
    1.3644    0.1754    0.0000 Cl  0  0  0  0  0  0  0  0  0  0  0  0
   -2.0961   -1.3788    0.0000 C   0  0  0  0  0  0  0  0  0  0  0  0
   -2.0961   -2.2038    0.0000 S   0  0  0  0  0  0  0  0  0  0  0  0
   -2.7636   -0.8938    0.0000 C   0  0  0  0  0  0  0  0  0  0  0  0
   -3.5172   -1.2294    0.0000 O   0  0  0  0  0  0  0  0  0  0  0  0
   -2.6773   -0.0734    0.0000 N   0  0  0  0  0  0  0  0  0  0  0  0
   -0.2719   -3.4983    0.0000 C   0  0  0  0  0  0  0  0  0  0  0  0
    0.4425   -3.0858    0.0000 C   0  0  0  0  0  0  0  0  0  0  0  0
    1.1570   -3.4983    0.0000 C   0  0  0  0  0  0  0  0  0  0  0  0
    1.8715   -3.0858    0.0000 O   0  0  0  0  0  0  0  0  0  0  0  0
    1.8715   -2.2608    0.0000 C   0  0  0  0  0  0  0  0  0  0  0  0
  1  2  1  0
  2  3  1  0
  3  4  2  0
  3 29  1  0
  4  5  1  0
  5  6  1  0
  5 27  2  0
  6  7  2  0
  7  8  1  0
  8 27  1  0
  8  9  1  0
  9 23  1  0
  9 10  2  0
 10 11  1  0
 11 22  2  0
 11 12  1  0
 12 13  1  0
 13 15  1  0
 13 14  1  1
 15 16  2  0
 15 20  1  0
 16 17  1  0
 17 18  2  0
 18 19  1  0
 19 20  2  0
 20 21  1  0
 22 23  1  0
 22 24  1  0
 24 25  2  0
 24 26  1  0
 27 28  1  0
 28 29  2  0
 29 30  1  0
 30 31  1  0
M  END
>  <DRUGBANK_ID>  (1) 
DB07471

>  <COMMON_NAME>  (1) 
5-[5,6-BIS(METHYLOXY)-1H-BENZIMIDAZOL-1-YL]-3-{[1-(2-CHLOROPHENYL)ETHYL]OXY}-2-THIOPHENECARBOXAMIDE

$$$$
