
     RDKit          2D

 24 26  0  0  0  0  0  0  0  0999 V2000
    2.4606    2.0085    0.0000 P   0  0  0  0  0  0  0  0  0  0  0  0
    0.3696    0.5529    0.0000 O   0  0  0  0  0  0  0  0  0  0  0  0
   -1.7242    0.9690    0.0000 O   0  0  0  0  0  0  0  0  0  0  0  0
   -0.6667    2.4192    0.0000 O   0  0  0  0  0  0  0  0  0  0  0  0
    1.7924    1.5247    0.0000 O   0  0  0  0  0  0  0  0  0  0  0  0
   -2.1669   -2.7987    0.0000 O   0  0  0  0  0  0  0  0  0  0  0  0
   -3.5959   -0.3238    0.0000 O   0  0  0  0  0  0  0  0  0  0  0  0
    3.1289    2.4923    0.0000 O   0  0  0  0  0  0  0  0  0  0  0  0
    2.9444    1.3403    0.0000 O   0  0  0  0  0  0  0  0  0  0  0  0
    1.9768    2.6768    0.0000 O   0  0  0  0  0  0  0  0  0  0  0  0
   -0.6718   -0.4848    0.0000 N   0  0  0  0  0  0  0  0  0  0  0  0
   -0.6718   -1.8127    0.0000 N   0  0  0  0  0  0  0  0  0  0  0  0
   -2.1669   -0.3238    0.0000 N   0  0  0  0  0  0  0  0  0  0  0  0
   -2.8814   -1.5612    0.0000 N   0  0  0  0  0  0  0  0  0  0  0  0
   -0.4154    0.2993    0.0000 C   0  0  0  0  0  0  0  0  0  0  0  0
   -0.8992    0.9675    0.0000 C   0  0  0  0  0  0  0  0  0  0  0  0
   -0.4131    1.6341    0.0000 C   0  0  0  0  0  0  0  0  0  0  0  0
    0.3710    1.3779    0.0000 C   0  0  0  0  0  0  0  0  0  0  0  0
    1.0392    1.8617    0.0000 C   0  0  0  0  0  0  0  0  0  0  0  0
   -1.4524   -0.7363    0.0000 C   0  0  0  0  0  0  0  0  0  0  0  0
   -0.1903   -1.1487    0.0000 C   0  0  0  0  0  0  0  0  0  0  0  0
   -1.4524   -1.5612    0.0000 C   0  0  0  0  0  0  0  0  0  0  0  0
   -2.1669   -1.9738    0.0000 C   0  0  0  0  0  0  0  0  0  0  0  0
   -2.8814   -0.7363    0.0000 C   0  0  0  0  0  0  0  0  0  0  0  0
  1  5  1  0
  1  8  1  0
  1  9  1  0
  1 10  2  0
  2 15  1  0
  2 18  1  0
  5 19  1  0
  6 23  2  0
  7 24  2  0
 11 20  1  0
 11 21  2  0
 12 21  1  0
 12 22  1  0
 13 20  1  0
 13 24  1  0
 14 23  1  0
 14 24  1  0
 15 11  1  1
 15 16  1  0
 16  3  1  6
 16 17  1  0
 17  4  1  6
 17 18  1  0
 18 19  1  1
 20 22  2  0
 22 23  1  0
M  CHG  1  11   1
M  END
>  <DRUGBANK_ID>  (1) 
DB02309

>  <SECONDARY_ACCESSION_NUMBERS>  (1) 
EXPT03260

>  <COMMON_NAME>  (1) 
5-monophosphate-9-beta-D-ribofuranosyl xanthine

$$$$
