
     RDKit          2D

 11 11  0  0  0  0  0  0  0  0999 V2000
    1.0735   -0.3907    0.0000 N   0  0  0  0  0  0  0  0  0  0  0  0
    0.3643    0.8250    0.0000 C   0  0  0  0  0  0  0  0  0  0  0  0
   -0.3497    0.4053    0.0000 C   0  0  0  0  0  0  0  0  0  0  0  0
    1.0735    0.4197    0.0000 C   0  0  0  0  0  0  0  0  0  0  0  0
    1.7682   -0.7961    0.0000 C   0  0  0  0  0  0  0  0  0  0  0  0
   -1.0687    0.8250    0.0000 C   0  0  0  0  0  0  0  0  0  0  0  0
   -0.3497   -0.4197    0.0000 C   0  0  0  0  0  0  0  0  0  0  0  0
    1.7779    0.8395    0.0000 C   0  0  0  0  0  0  0  0  0  0  0  0
   -1.7779    0.4053    0.0000 C   0  0  0  0  0  0  0  0  0  0  0  0
   -1.0687   -0.8395    0.0000 C   0  0  0  0  0  0  0  0  0  0  0  0
   -1.7779   -0.4197    0.0000 C   0  0  0  0  0  0  0  0  0  0  0  0
  2  4  1  0
  3  2  1  0
  4  1  1  0
  5  1  1  0
  6  3  2  0
  7  3  1  0
  4  8  1  6
  9  6  1  0
 10  7  2  0
 11  9  2  0
 11 10  1  0
M  END
>  <DRUGBANK_ID>  (1) 
DB01577

>  <COMMON_NAME>  (1) 
Metamfetamine

>  <CAS_NUMBER>  (1) 
537-46-2

>  <UNII>  (1) 
44RAL3456C

>  <SYNONYMS>  (1) 
(+)-(S)-N-α-dimethylphenethylamine; (S)-N,α-dimethylbenzeneethanamine; (αS)-N,α-dimethylbenzeneethanamine; d-1-phenyl-2-methylaminopropane; d-deoxyephedrine; d-desoxyephedrine; d-N-methylamphetamine; d-phenylisopropylmethylamine; Dextromethamphetamine; Métamfétamine; Metamfetamine; Metamfetaminum; Metanfetamina; Methamphetamine; Methamphetaminum; methyl-β-phenylisopropylamine

$$$$
