1527
     RDKit          2D

 12 12  0  0  0  0  0  0  0  0999 V2000
    1.6500   -0.2558    0.0000 Cl  0  0  0  0  0  0  0  0  0  0  0  0
    4.5080    1.3943    0.0000 N   0  0  0  0  0  0  0  0  0  0  0  0
    3.7935    0.9818    0.0000 C   0  0  0  0  0  0  0  0  0  0  0  0
    3.0791    0.5693    0.0000 C   0  0  0  0  0  0  0  0  0  0  0  0
    3.3810    1.6962    0.0000 C   0  0  0  0  0  0  0  0  0  0  0  0
    4.2060    0.2673    0.0000 C   0  0  0  0  0  0  0  0  0  0  0  0
    3.0791   -0.2558    0.0000 C   0  0  0  0  0  0  0  0  0  0  0  0
    2.3645   -0.6683    0.0000 C   0  0  0  0  0  0  0  0  0  0  0  0
    3.7935   -0.6683    0.0000 C   0  0  0  0  0  0  0  0  0  0  0  0
    2.3645   -1.4933    0.0000 C   0  0  0  0  0  0  0  0  0  0  0  0
    3.7935   -1.4933    0.0000 C   0  0  0  0  0  0  0  0  0  0  0  0
    3.0791   -1.9058    0.0000 C   0  0  0  0  0  0  0  0  0  0  0  0
  1  8  1  0
  2  3  1  0
  3  4  1  0
  3  5  1  0
  3  6  1  0
  4  7  1  0
  7  8  2  0
  7  9  1  0
  8 10  1  0
  9 11  2  0
 10 12  2  0
 11 12  1  0
M  END
>  <DRUGBANK_ID>  (1) 
DB01527

>  <COMMON_NAME>  (1) 
Clortermine

>  <CAS_NUMBER>  (1) 
10389-73-8

>  <UNII>  (1) 
4FA88HM3IX

>  <SYNONYMS>  (1) 
Clortermine

$$$$
