
     RDKit          2D

  1  0  0  0  0  0  0  0  0  0999 V2000
    0.0000    0.0000    0.0000 Tl  0  0  0  0  0  3  0  0  0  0  0  0
M  ISO  1   1 201
M  END
>  <DRUGBANK_ID>  (1) 
DB15361

>  <COMMON_NAME>  (1) 
Thallium Tl-201

>  <CAS_NUMBER>  (1) 
15064-65-0

>  <UNII>  (1) 
H91Z8HBK1B

>  <SYNONYMS>  (1) 
THALLIUM-201

$$$$
