3GV
     RDKit          2D

 16 17  0  0  0  0  0  0  0  0999 V2000
    1.1034    1.1401    0.0000 O   0  0  0  0  0  0  0  0  0  0  0  0
    0.3188    0.8852    0.0000 C   0  0  0  0  0  0  0  0  0  0  0  0
   -0.3487    1.3701    0.0000 C   0  0  0  0  0  0  0  0  0  0  0  0
    0.0638    0.1006    0.0000 N   0  0  0  0  0  0  0  0  0  0  0  0
   -0.7612    0.1006    0.0000 C   0  0  0  0  0  0  0  0  0  0  0  0
   -1.0161    0.8852    0.0000 C   0  0  0  0  0  0  0  0  0  0  0  0
   -1.8007    1.1401    0.0000 C   0  0  0  0  0  0  0  0  0  0  0  0
   -1.9722    1.9471    0.0000 O   0  0  0  0  0  0  0  0  0  0  0  0
   -2.4138    0.5881    0.0000 O   0  0  0  0  0  0  0  0  0  0  0  0
    0.5488   -0.5669    0.0000 C   0  0  0  0  0  0  0  0  0  0  0  0
    1.3692   -0.4806    0.0000 C   0  0  0  0  0  0  0  0  0  0  0  0
    1.7048    0.2730    0.0000 O   0  0  0  0  0  0  0  0  0  0  0  0
    1.8542   -1.1481    0.0000 C   0  0  0  0  0  0  0  0  0  0  0  0
    1.5186   -1.9018    0.0000 C   0  0  0  0  0  0  0  0  0  0  0  0
    0.6981   -1.9880    0.0000 C   0  0  0  0  0  0  0  0  0  0  0  0
    0.2132   -1.3206    0.0000 C   0  0  0  0  0  0  0  0  0  0  0  0
  2  1  2  0
  2  4  1  0
  3  2  1  0
  4 10  1  0
  5  4  1  0
  6  3  1  0
  6  5  1  0
  6  7  1  1
  7  8  1  0
  9  7  2  0
 10 11  2  0
 10 16  1  0
 11 13  1  0
 12 11  1  0
 13 14  2  0
 15 14  1  0
 16 15  2  0
M  END
>  <DRUGBANK_ID>  (1) 
DB07057

>  <COMMON_NAME>  (1) 
(3S)-1-(2-hydroxyphenyl)-5-oxopyrrolidine-3-carboxylic acid

$$$$
