BAP
     RDKit          2D

 23 27  0  0  0  0  0  0  0  0999 V2000
   -2.8172   -0.4647    0.0000 C   0  0  0  0  0  0  0  0  0  0  0  0
   -3.0872    0.3148    0.0000 C   0  0  0  0  0  0  0  0  0  0  0  0
   -2.5471    0.9385    0.0000 C   0  0  0  0  0  0  0  0  0  0  0  0
   -1.7370    0.7825    0.0000 C   0  0  0  0  0  0  0  0  0  0  0  0
   -1.1969    1.4062    0.0000 C   0  0  0  0  0  0  0  0  0  0  0  0
   -0.3868    1.2503    0.0000 C   0  0  0  0  0  0  0  0  0  0  0  0
   -0.1167    0.4707    0.0000 C   0  0  0  0  0  0  0  0  0  0  0  0
    0.6934    0.3148    0.0000 C   0  0  0  0  0  0  0  0  0  0  0  0
    0.9635   -0.4647    0.0000 C   0  0  0  0  0  0  0  0  0  0  0  0
    0.4234   -1.0884    0.0000 C   0  0  0  0  0  0  0  0  0  0  0  0
   -0.3868   -0.9325    0.0000 C   0  0  0  0  0  0  0  0  0  0  0  0
   -0.9269   -1.5561    0.0000 C   0  0  0  0  0  0  0  0  0  0  0  0
   -1.7370   -1.4002    0.0000 C   0  0  0  0  0  0  0  0  0  0  0  0
   -2.0070   -0.6206    0.0000 C   0  0  0  0  0  0  0  0  0  0  0  0
   -1.4669    0.0030    0.0000 C   0  0  0  0  0  0  0  0  0  0  0  0
   -0.6568   -0.1529    0.0000 C   0  0  0  0  0  0  0  0  0  0  0  0
    1.7736   -0.6206    0.0000 C   0  0  0  0  0  0  0  0  0  0  0  0
    2.0436   -1.4002    0.0000 O   0  0  0  0  0  0  0  0  0  0  0  0
    2.3137    0.0030    0.0000 C   0  0  0  0  0  0  0  0  0  0  0  0
    3.1238   -0.1529    0.0000 O   0  0  0  0  0  0  0  0  0  0  0  0
    2.0436    0.7825    0.0000 C   0  0  0  0  0  0  0  0  0  0  0  0
    2.5837    1.4062    0.0000 O   0  0  0  0  0  0  0  0  0  0  0  0
    1.2335    0.9385    0.0000 C   0  0  0  0  0  0  0  0  0  0  0  0
  1  2  2  0
  1 14  1  0
  2  3  1  0
  3  4  2  0
  4  5  1  0
  4 15  1  0
  5  6  2  0
  6  7  1  0
  7  8  2  0
  7 16  1  0
  8  9  1  0
  8 23  1  0
  9 10  2  0
  9 17  1  0
 10 11  1  0
 11 12  2  0
 11 16  1  0
 12 13  1  0
 13 14  2  0
 14 15  1  0
 15 16  2  0
 17 18  1  6
 17 19  1  0
 19 20  1  1
 19 21  1  0
 21 22  1  1
 21 23  1  0
M  END
>  <DRUGBANK_ID>  (1) 
DB07435

>  <COMMON_NAME>  (1) 
1,2,3-TRIHYDROXY-1,2,3,4-TETRAHYDROBENZO[A]PYRENE

$$$$
