
     RDKit          2D

 34 36  0  0  0  0  0  0  0  0999 V2000
   -0.1372    0.6317    0.0000 P   0  0  0  0  0  0  0  0  0  0  0  0
   -0.8517    1.8691    0.0000 P   0  0  0  0  0  0  0  0  0  0  0  0
    1.2446   -1.9157    0.0000 O   0  0  0  0  0  0  0  0  0  0  0  0
   -0.8748   -1.6608    0.0000 O   0  0  0  0  0  0  0  0  0  0  0  0
   -0.3201   -3.3678    0.0000 O   0  0  0  0  0  0  0  0  0  0  0  0
   -0.8517    3.5191    0.0000 O   0  0  0  0  0  0  0  0  0  0  0  0
   -0.1372   -0.1932    0.0000 O   0  0  0  0  0  0  0  0  0  0  0  0
   -1.5661    2.2816    0.0000 O   0  0  0  0  0  0  0  0  0  0  0  0
   -2.9951    4.7566    0.0000 O   0  0  0  0  0  0  0  0  0  0  0  0
   -2.9951    3.1066    0.0000 O   0  0  0  0  0  0  0  0  0  0  0  0
   -1.5661    5.5816    0.0000 O   0  0  0  0  0  0  0  0  0  0  0  0
   -0.1372    1.4566    0.0000 O   0  0  0  0  0  0  0  0  0  0  0  0
    0.3186   -4.2077    0.0000 O   0  0  0  0  0  0  0  0  0  0  0  0
    0.6877    0.6317    0.0000 O   0  0  0  0  0  0  0  0  0  0  0  0
   -1.2642    1.1546    0.0000 O   0  0  0  0  0  0  0  0  0  0  0  0
   -0.9622    0.6317    0.0000 O   0  0  0  0  0  0  0  0  0  0  0  0
   -0.4392    2.5836    0.0000 O   0  0  0  0  0  0  0  0  0  0  0  0
    1.4746   -3.3678    0.0000 N   0  0  0  0  0  0  0  0  0  0  0  0
    1.6240   -4.7889    0.0000 N   0  0  0  0  0  0  0  0  0  0  0  0
    2.9294   -5.3701    0.0000 N   0  0  0  0  0  0  0  0  0  0  0  0
   -0.0902   -1.9157    0.0000 C   0  0  0  0  0  0  0  0  0  0  0  0
    0.1647   -2.7003    0.0000 C   0  0  0  0  0  0  0  0  0  0  0  0
    0.5772   -1.4308    0.0000 C   0  0  0  0  0  0  0  0  0  0  0  0
    0.9897   -2.7003    0.0000 C   0  0  0  0  0  0  0  0  0  0  0  0
    0.5772   -0.6057    0.0000 C   0  0  0  0  0  0  0  0  0  0  0  0
   -2.2806    4.3441    0.0000 C   0  0  0  0  0  0  0  0  0  0  0  0
   -2.2806    3.5191    0.0000 C   0  0  0  0  0  0  0  0  0  0  0  0
   -1.5661    4.7566    0.0000 C   0  0  0  0  0  0  0  0  0  0  0  0
   -1.5661    3.1066    0.0000 C   0  0  0  0  0  0  0  0  0  0  0  0
   -0.8517    4.3441    0.0000 C   0  0  0  0  0  0  0  0  0  0  0  0
    2.2951   -3.2816    0.0000 C   0  0  0  0  0  0  0  0  0  0  0  0
    1.1390   -4.1215    0.0000 C   0  0  0  0  0  0  0  0  0  0  0  0
    2.7800   -3.9490    0.0000 C   0  0  0  0  0  0  0  0  0  0  0  0
    2.4444   -4.7026    0.0000 C   0  0  0  0  0  0  0  0  0  0  0  0
  1  7  1  0
  1 12  1  0
  1 14  1  0
  1 16  2  0
  2  8  1  0
  2 12  1  0
  2 15  1  0
  2 17  2  0
  3 23  1  0
  3 24  1  0
  6 29  1  0
  6 30  1  0
  7 25  1  0
 13 32  2  0
 18 31  1  0
 18 32  1  0
 19 32  1  0
 19 34  2  0
 20 34  1  0
 21  4  1  6
 21 22  1  0
 21 23  1  0
 22  5  1  6
 22 24  1  0
 23 25  1  1
 24 18  1  1
 26  9  1  1
 26 27  1  0
 26 28  1  0
 27 10  1  6
 27 29  1  0
 28 11  1  6
 28 30  1  0
 29  8  1  6
 31 33  2  0
 33 34  1  0
M  END
>  <DRUGBANK_ID>  (1) 
DB03069

>  <SECONDARY_ACCESSION_NUMBERS>  (1) 
EXPT01072

>  <COMMON_NAME>  (1) 
Cytidine-5'-diphospho-beta-D-xylose

$$$$
