S10
     RDKit          2D

 15 14  0  0  0  0  0  0  0  0999 V2000
   -2.1433   -0.8562    0.0000 O   0  0  0  0  0  0  0  0  0  0  0  0
   -2.1433   -0.0312    0.0000 C   0  0  0  0  0  0  0  0  0  0  0  0
   -2.8578    0.3813    0.0000 O   0  0  0  0  0  0  0  0  0  0  0  0
   -3.5723   -0.0312    0.0000 C   0  0  0  0  0  0  0  0  0  0  0  0
   -4.2866    0.3813    0.0000 C   0  0  0  0  0  0  0  0  0  0  0  0
   -1.4288    0.3813    0.0000 N   0  0  0  0  0  0  0  0  0  0  0  0
   -0.7145   -0.0312    0.0000 C   0  0  0  0  0  0  0  0  0  0  0  0
    0.0000    0.3813    0.0000 C   0  0  0  0  0  0  0  0  0  0  0  0
    0.7145   -0.0312    0.0000 C   0  0  0  0  0  0  0  0  0  0  0  0
    1.4288    0.3813    0.0000 N   0  0  0  0  0  0  0  0  0  0  0  0
    2.1433   -0.0312    0.0000 C   0  0  0  0  0  0  0  0  0  0  0  0
    2.1433   -0.8562    0.0000 O   0  0  0  0  0  0  0  0  0  0  0  0
    2.8578    0.3813    0.0000 O   0  0  0  0  0  0  0  0  0  0  0  0
    3.5723   -0.0312    0.0000 C   0  0  0  0  0  0  0  0  0  0  0  0
    4.2866    0.3813    0.0000 C   0  0  0  0  0  0  0  0  0  0  0  0
  1  2  2  0
  2  3  1  0
  2  6  1  0
  3  4  1  0
  4  5  1  0
  6  7  1  0
  7  8  1  0
  8  9  1  0
  9 10  1  0
 10 11  1  0
 11 12  2  0
 11 13  1  0
 13 14  1  0
 14 15  1  0
M  END
>  <DRUGBANK_ID>  (1) 
DB08501

>  <COMMON_NAME>  (1) 
DIETHYL PROPANE-1,3-DIYLBISCARBAMATE

>  <UNII>  (1) 
F54CSU6844

$$$$
