
     RDKit          2D

 13 13  0  0  0  0  0  0  0  0999 V2000
   -4.0992   -4.7732    0.0000 C   0  0  0  0  0  0  0  0  0  0  0  0
   -4.9242   -4.7732    0.0000 C   0  0  0  0  0  0  0  0  0  0  0  0
   -5.3367   -5.4877    0.0000 C   0  0  0  0  0  0  0  0  0  0  0  0
   -4.9242   -6.2022    0.0000 C   0  0  0  0  0  0  0  0  0  0  0  0
   -4.0992   -6.2022    0.0000 C   0  0  0  0  0  0  0  0  0  0  0  0
   -3.6867   -5.4877    0.0000 C   0  0  0  0  0  0  0  0  0  0  0  0
   -3.6867   -4.0587    0.0000 O   0  0  0  0  0  0  0  0  0  0  0  0
   -2.8617   -5.4877    0.0000 O   0  0  0  0  0  0  0  0  0  0  0  0
   -3.6867   -6.9166    0.0000 O   0  0  0  0  0  0  0  0  0  0  0  0
   -5.3367   -6.9166    0.0000 O   0  0  0  0  0  0  0  0  0  0  0  0
   -6.1617   -5.4877    0.0000 O   0  0  0  0  0  0  0  0  0  0  0  0
   -5.3367   -4.0587    0.0000 O   0  0  0  0  0  0  0  0  0  0  0  0
   -6.5742   -6.2021    0.0000 C   0  0  0  0  0  0  0  0  0  0  0  0
  1  2  1  0
  1  6  1  0
  1  7  1  1
  2  3  1  0
  2 12  1  1
  3  4  1  0
  3 11  1  6
  4  5  1  0
  4 10  1  1
  5  6  1  0
  5  9  1  6
  6  8  1  6
 11 13  1  0
M  END
>  <DRUGBANK_ID>  (1) 
DB12969

>  <COMMON_NAME>  (1) 
Methylinositol

>  <CAS_NUMBER>  (1) 
10284-63-6

>  <UNII>  (1) 
TF9HZN9T0M

>  <SYNONYMS>  (1) 
Pinitol

$$$$
