
     RDKit          2D

 14 15  0  0  1  0  0  0  0  0999 V2000
    1.3222   -0.0616    0.0000 O   0  0  0  0  0  0  0  0  0  0  0  0
    2.0367   -0.4741    0.0000 C   0  0  0  0  0  0  0  0  0  0  0  0
    2.0367   -1.2991    0.0000 C   0  0  0  0  0  0  0  0  0  0  0  0
    2.7041   -1.7840    0.0000 C   0  0  0  0  0  0  0  0  0  0  0  0
    2.4492   -2.5687    0.0000 C   0  0  0  0  0  0  0  0  0  0  0  0
    1.6242   -2.5687    0.0000 C   0  0  0  0  0  0  0  0  0  0  0  0
    1.1393   -3.2361    0.0000 O   0  0  0  0  0  0  0  0  0  0  0  0
    1.3693   -1.7840    0.0000 N   0  0  0  0  0  0  0  0  0  0  0  0
    2.7512   -0.0616    0.0000 N   0  0  0  0  0  0  0  0  0  0  0  0
    2.7512    0.7634    0.0000 C   0  0  0  0  0  0  0  0  0  0  0  0
    3.4656    1.1759    0.0000 C   0  0  0  0  0  0  0  0  0  0  0  0
    4.1801    0.7634    0.0000 C   0  0  0  0  0  0  0  0  0  0  0  0
    4.1801   -0.0616    0.0000 C   0  0  0  0  0  0  0  0  0  0  0  0
    3.4656   -0.4741    0.0000 C   0  0  0  0  0  0  0  0  0  0  0  0
  1  2  2  0
  2  9  1  0
  3  2  1  1
  3  4  1  0
  3  8  1  0
  4  5  1  0
  5  6  1  0
  6  7  2  0
  6  8  1  0
  9 10  1  0
  9 14  1  0
 10 11  1  0
 11 12  1  0
 12 13  1  0
 13 14  1  0
M  END
>  <DRUGBANK_ID>  (1) 
DB16163

>  <COMMON_NAME>  (1) 
Fasoracetam

>  <CAS_NUMBER>  (1) 
110958-19-5

>  <UNII>  (1) 
42O8UF5CJB

>  <SYNONYMS>  (1) 
Fasoracetam

$$$$
