I24
     RDKit          2D

 32 35  0  0  0  0  0  0  0  0999 V2000
    5.2472   27.4288    0.0000 N   0  0  0  0  0  0  0  0  0  0  0  0
    5.9617   27.0163    0.0000 C   0  0  0  0  0  0  0  0  0  0  0  0
    5.9617   26.1913    0.0000 N   0  0  0  0  0  0  0  0  0  0  0  0
    5.2472   25.7788    0.0000 C   0  0  0  0  0  0  0  0  0  0  0  0
    4.5327   27.0163    0.0000 C   0  0  0  0  0  0  0  0  0  0  0  0
    4.5327   26.1913    0.0000 C   0  0  0  0  0  0  0  0  0  0  0  0
    3.7481   25.9363    0.0000 N   0  0  0  0  0  0  0  0  0  0  0  0
    3.2632   26.6038    0.0000 C   0  0  0  0  0  0  0  0  0  0  0  0
    3.7481   27.2712    0.0000 N   0  0  0  0  0  0  0  0  0  0  0  0
    5.2472   24.9538    0.0000 N   0  0  0  0  0  0  0  0  0  0  0  0
    6.6761   27.4288    0.0000 O   0  0  0  0  0  0  0  0  0  0  0  0
    4.5327   24.5413    0.0000 C   0  0  0  0  0  0  0  0  0  0  0  0
    3.8183   24.9538    0.0000 C   0  0  0  0  0  0  0  0  0  0  0  0
    3.1038   24.5413    0.0000 N   0  0  0  0  0  0  0  0  0  0  0  0
    3.1038   23.7163    0.0000 C   0  0  0  0  0  0  0  0  0  0  0  0
    2.3893   23.3038    0.0000 C   0  0  0  0  0  0  0  0  0  0  0  0
    1.6749   23.7163    0.0000 O   0  0  0  0  0  0  0  0  0  0  0  0
    1.6749   24.5413    0.0000 C   0  0  0  0  0  0  0  0  0  0  0  0
    2.3893   24.9538    0.0000 C   0  0  0  0  0  0  0  0  0  0  0  0
    6.6761   28.2538    0.0000 C   0  0  0  0  0  0  0  0  0  0  0  0
    7.3906   28.6663    0.0000 C   0  0  0  0  0  0  0  0  0  0  0  0
    7.3906   29.4913    0.0000 C   0  0  0  0  0  0  0  0  0  0  0  0
    8.1051   29.9038    0.0000 C   0  0  0  0  0  0  0  0  0  0  0  0
    3.4932   28.0558    0.0000 C   0  0  0  0  0  0  0  0  0  0  0  0
    2.6862   28.2274    0.0000 C   0  0  0  0  0  0  0  0  0  0  0  0
    2.1342   27.6143    0.0000 C   0  0  0  0  0  0  0  0  0  0  0  0
    1.3272   27.7858    0.0000 C   0  0  0  0  0  0  0  0  0  0  0  0
    1.0723   28.5704    0.0000 C   0  0  0  0  0  0  0  0  0  0  0  0
    1.6243   29.1835    0.0000 C   0  0  0  0  0  0  0  0  0  0  0  0
    2.4313   29.0120    0.0000 C   0  0  0  0  0  0  0  0  0  0  0  0
    2.3891   26.8296    0.0000 F   0  0  0  0  0  0  0  0  0  0  0  0
    2.9833   29.6251    0.0000 F   0  0  0  0  0  0  0  0  0  0  0  0
  1  2  2  0
  1  5  1  0
  2  3  1  0
  2 11  1  0
  3  4  2  0
  4  6  1  0
  4 10  1  0
  5  6  2  0
  5  9  1  0
  6  7  1  0
  7  8  2  0
  8  9  1  0
  9 24  1  0
 10 12  1  0
 11 20  1  0
 12 13  1  0
 13 14  1  0
 14 15  1  0
 14 19  1  0
 15 16  1  0
 16 17  1  0
 17 18  1  0
 18 19  1  0
 20 21  1  0
 21 22  1  0
 22 23  1  0
 24 25  1  0
 25 26  2  0
 25 30  1  0
 26 27  1  0
 26 31  1  0
 27 28  2  0
 28 29  1  0
 29 30  2  0
 30 32  1  0
M  END
>  <DRUGBANK_ID>  (1) 
DB07937

>  <COMMON_NAME>  (1) 
2-butoxy-9-(2,6-difluorobenzyl)-N-(2-morpholin-4-ylethyl)-9H-purin-6-amine

$$$$
