DBY
     RDKit          2D

 15 15  0  0  0  0  0  0  0  0999 V2000
    0.0327    1.2318    0.0000 N   0  0  0  0  0  0  0  0  0  0  0  0
    0.7472    0.8193    0.0000 C   0  0  0  0  0  0  0  0  0  0  0  0
    1.4617    1.2318    0.0000 C   0  0  0  0  0  0  0  0  0  0  0  0
    1.4617    2.0568    0.0000 O   0  0  0  0  0  0  0  0  0  0  0  0
    0.7472   -0.0057    0.0000 C   0  0  0  0  0  0  0  0  0  0  0  0
    0.0327   -0.4182    0.0000 C   0  0  0  0  0  0  0  0  0  0  0  0
    0.0327   -1.2432    0.0000 C   0  0  0  0  0  0  0  0  0  0  0  0
   -0.6817   -1.6557    0.0000 C   0  0  0  0  0  0  0  0  0  0  0  0
   -0.6817   -0.0057    0.0000 C   0  0  0  0  0  0  0  0  0  0  0  0
   -1.3962   -0.4182    0.0000 C   0  0  0  0  0  0  0  0  0  0  0  0
   -1.3962   -1.2432    0.0000 C   0  0  0  0  0  0  0  0  0  0  0  0
   -2.1107   -1.6557    0.0000 O   0  0  0  0  0  0  0  0  0  0  0  0
   -0.6817   -2.4807    0.0000 Br  0  0  0  0  0  0  0  0  0  0  0  0
   -2.1107   -0.0057    0.0000 Br  0  0  0  0  0  0  0  0  0  0  0  0
    2.1761    0.8193    0.0000 O   0  0  0  0  0  0  0  0  0  0  0  0
  2  1  1  6
  2  3  1  0
  2  5  1  0
  3  4  2  0
  3 15  1  0
  5  6  1  0
  6  7  2  0
  6  9  1  0
  7  8  1  0
  8 11  2  0
  8 13  1  0
  9 10  2  0
 10 11  1  0
 10 14  1  0
 11 12  1  0
M  END
>  <DRUGBANK_ID>  (1) 
DB07637

>  <COMMON_NAME>  (1) 
Dibromotyrosine

>  <CAS_NUMBER>  (1) 
300-38-9

>  <UNII>  (1) 
QD49LEP46E

>  <SYNONYMS>  (1) 
3,5-dibromo-L-tyrosine

$$$$
