
     RDKit          2D

  9  8  0  0  0  0  0  0  0  0999 V2000
    1.2375   -0.7145    0.0000 N   0  0  0  0  0  0  0  0  0  0  0  0
    0.8250    0.0000    0.0000 C   0  0  0  0  0  0  0  0  0  0  0  0
    1.2375    0.7145    0.0000 N   0  0  0  0  0  0  0  0  0  0  0  0
    2.0625    0.7145    0.0000 O   0  0  0  0  0  0  0  0  0  0  0  0
    0.0000    0.0000    0.0000 N   0  0  0  0  0  0  0  0  0  0  0  0
   -0.4125   -0.7145    0.0000 C   0  0  0  0  0  0  0  0  0  0  0  0
    0.0000   -1.4289    0.0000 C   0  0  0  0  0  0  0  0  0  0  0  0
   -0.4125   -2.1434    0.0000 C   0  0  0  0  0  0  0  0  0  0  0  0
    0.0000   -2.8579    0.0000 N   0  0  0  0  0  0  0  0  0  0  0  0
  1  2  1  0
  2  3  1  0
  2  5  2  0
  3  4  1  0
  5  6  1  0
  6  7  1  0
  7  8  1  0
  8  9  1  0
M  CHG  1   9   1
M  END
>  <DRUGBANK_ID>  (1) 
DB04197

>  <SECONDARY_ACCESSION_NUMBERS>  (1) 
EXPT00467

>  <COMMON_NAME>  (1) 
Descarboxy-nor-N(Omega)-Hydroxy-L-Arginine

$$$$
