55F
     RDKit          2D

 27 30  0  0  0  0  0  0  0  0999 V2000
   -3.4085    0.0275    0.0000 C   0  0  0  0  0  0  0  0  0  0  0  0
   -3.4085   -0.7975    0.0000 C   0  0  0  0  0  0  0  0  0  0  0  0
   -2.6940   -1.2100    0.0000 N   0  0  0  0  0  0  0  0  0  0  0  0
   -1.9795   -0.7975    0.0000 C   0  0  0  0  0  0  0  0  0  0  0  0
   -1.9795    0.0275    0.0000 C   0  0  0  0  0  0  0  0  0  0  0  0
   -2.6940    0.4400    0.0000 N   0  0  0  0  0  0  0  0  0  0  0  0
   -1.2651   -1.2100    0.0000 C   0  0  0  0  0  0  0  0  0  0  0  0
   -0.5506   -0.7975    0.0000 C   0  0  0  0  0  0  0  0  0  0  0  0
   -0.5506    0.0275    0.0000 C   0  0  0  0  0  0  0  0  0  0  0  0
   -1.2651    0.4400    0.0000 C   0  0  0  0  0  0  0  0  0  0  0  0
    0.1639    0.4400    0.0000 C   0  0  0  0  0  0  0  0  0  0  0  0
    0.9176    0.1044    0.0000 C   0  0  0  0  0  0  0  0  0  0  0  0
    1.4696    0.7175    0.0000 N   0  0  0  0  0  0  0  0  0  0  0  0
    1.0571    1.4320    0.0000 C   0  0  0  0  0  0  0  0  0  0  0  0
    0.2501    1.2604    0.0000 N   0  0  0  0  0  0  0  0  0  0  0  0
    1.0891   -0.7026    0.0000 C   0  0  0  0  0  0  0  0  0  0  0  0
    1.8737   -0.9575    0.0000 C   0  0  0  0  0  0  0  0  0  0  0  0
    2.0452   -1.7645    0.0000 C   0  0  0  0  0  0  0  0  0  0  0  0
    1.4321   -2.3165    0.0000 C   0  0  0  0  0  0  0  0  0  0  0  0
    0.6475   -2.0616    0.0000 C   0  0  0  0  0  0  0  0  0  0  0  0
    0.4760   -1.2546    0.0000 N   0  0  0  0  0  0  0  0  0  0  0  0
    1.3926    2.1856    0.0000 N   0  0  0  0  0  0  0  0  0  0  0  0
    0.0344   -2.6136    0.0000 C   0  0  0  0  0  0  0  0  0  0  0  0
    1.6037   -3.1235    0.0000 F   0  0  0  0  0  0  0  0  0  0  0  0
    0.9077    2.8531    0.0000 C   0  0  0  0  0  0  0  0  0  0  0  0
    0.0872    2.7668    0.0000 O   0  0  0  0  0  0  0  0  0  0  0  0
    1.2433    3.6067    0.0000 C   0  0  0  0  0  0  0  0  0  0  0  0
  2  1  2  0
  3  2  1  0
  4  3  2  0
  4  5  1  0
  5  6  2  0
  6  1  1  0
  7  4  1  0
  8  7  2  0
  8  9  1  0
  9 10  2  0
 10  5  1  0
 11  9  1  0
 11 15  1  0
 12 11  2  0
 13 12  1  0
 13 14  2  0
 14 22  1  0
 14 15  1  0
 16 12  1  0
 16 17  2  0
 18 17  1  0
 19 18  2  0
 20 19  1  0
 20 21  2  0
 21 16  1  0
 22 25  1  0
 23 20  1  0
 24 19  1  0
 25 26  2  0
 27 25  1  0
M  END
>  <DRUGBANK_ID>  (1) 
DB07152

>  <COMMON_NAME>  (1) 
N-[4-(5-fluoro-6-methylpyridin-2-yl)-5-quinoxalin-6-yl-1H-imidazol-2-yl]acetamide

>  <UNII>  (1) 
3QF3J56NXP

$$$$
