4MB
     RDKit          2D

 14 14  0  0  0  0  0  0  0  0999 V2000
    0.4846    0.8337    0.0000 C   0  0  0  0  0  0  0  0  0  0  0  0
   -0.9443    0.8337    0.0000 C   0  0  0  0  0  0  0  0  0  0  0  0
    1.1991   -0.4038    0.0000 N   0  0  0  0  0  0  0  0  0  0  0  0
    0.4846    0.0087    0.0000 C   0  0  0  0  0  0  0  0  0  0  0  0
   -0.2298    1.2462    0.0000 C   0  0  0  0  0  0  0  0  0  0  0  0
   -1.6588    1.2462    0.0000 C   0  0  0  0  0  0  0  0  0  0  0  0
   -0.9443    0.0087    0.0000 C   0  0  0  0  0  0  0  0  0  0  0  0
    1.1991   -2.0538    0.0000 C   0  0  0  0  0  0  0  0  0  0  0  0
   -0.2298   -0.4038    0.0000 C   0  0  0  0  0  0  0  0  0  0  0  0
   -2.3732    0.8337    0.0000 O   0  0  0  0  0  0  0  0  0  0  0  0
   -1.6588    2.0712    0.0000 O   0  0  0  0  0  0  0  0  0  0  0  0
    1.1991   -1.2288    0.0000 S   0  0  0  0  0  0  0  0  0  0  0  0
    2.0241   -1.2288    0.0000 O   0  0  0  0  0  0  0  0  0  0  0  0
    0.3741   -1.2288    0.0000 O   0  0  0  0  0  0  0  0  0  0  0  0
  1  4  2  0
  1  5  1  0
  2  5  2  0
  2  6  1  0
  2  7  1  0
  3  4  1  0
  3 12  1  0
  4  9  1  0
  6 10  2  0
  6 11  1  0
  7  9  2  0
  8 12  1  0
 12 13  2  0
 12 14  2  0
M  END
>  <DRUGBANK_ID>  (1) 
DB07114

>  <COMMON_NAME>  (1) 
4-[(METHYLSULFONYL)AMINO]BENZOIC ACID

>  <UNII>  (1) 
UHN43WS7FF

$$$$
