
     RDKit          2D

  7  5  0  0  0  0  0  0  0  0999 V2000
   -0.1930   -0.2049    0.0000 C   0  0  0  0  0  0  0  0  0  0  0  0
    0.5210    0.2098    0.0000 O   0  0  0  0  0  0  0  0  0  0  0  0
   -0.1930   -1.0299    0.0000 O   0  0  0  0  0  0  0  0  0  0  0  0
   -0.9022    0.2049    0.0000 C   0  0  0  0  0  0  0  0  0  0  0  0
    1.6160    0.0940    0.0000 K   0  0  0  0  0 15  0  0  0  0  0  0
   -0.9069    1.0299    0.0000 O   0  0  0  0  0  0  0  0  0  0  0  0
   -1.6160   -0.2098    0.0000 C   0  0  0  0  0  0  0  0  0  0  0  0
  2  1  1  0
  3  1  2  0
  4  1  1  0
  6  4  1  0
  7  4  1  0
M  CHG  2   2  -1   5   1
M  END
>  <DRUGBANK_ID>  (1) 
DB09483

>  <COMMON_NAME>  (1) 
Potassium lactate

>  <CAS_NUMBER>  (1) 
996-31-6

>  <UNII>  (1) 
276897E67U

>  <SYNONYMS>  (1) 
Lactic acid, potassium salt; Monopotassium 2-hydroxypropanoate; Monopotassium lactate

$$$$
