
     RDKit          2D

 21 22  0  0  0  0  0  0  0  0999 V2000
   -0.0272    2.6802    0.0000 C   0  0  0  0  0  0  0  0  0  0  0  0
   -0.6404    2.1282    0.0000 C   0  0  0  0  0  0  0  0  0  0  0  0
   -0.1864   -2.0447    0.0000 C   0  0  0  0  0  0  0  0  0  0  0  0
   -0.6714   -2.7121    0.0000 C   0  0  0  0  0  0  0  0  0  0  0  0
   -1.4919   -2.6259    0.0000 C   0  0  0  0  0  0  0  0  0  0  0  0
   -1.8275   -1.8722    0.0000 C   0  0  0  0  0  0  0  0  0  0  0  0
   -1.3426   -1.2047    0.0000 C   0  0  0  0  0  0  0  0  0  0  0  0
   -0.5220   -1.2910    0.0000 C   0  0  0  0  0  0  0  0  0  0  0  0
   -0.3726    0.1301    0.0000 N   0  0  0  0  0  0  0  0  0  0  0  0
   -0.0370   -0.6235    0.0000 C   0  0  0  0  0  0  0  0  0  0  0  0
    0.1122    0.7976    0.0000 C   0  0  0  0  0  0  0  0  0  0  0  0
   -0.1426    1.5822    0.0000 S   0  0  0  0  0  0  0  0  0  0  0  0
    0.5247    2.0671    0.0000 C   0  0  0  0  0  0  0  0  0  0  0  0
    1.1922    1.5822    0.0000 C   0  0  0  0  0  0  0  0  0  0  0  0
    0.9372    0.7976    0.0000 N   0  0  0  0  0  0  0  0  0  0  0  0
    1.9768    1.8371    0.0000 O   0  0  0  0  0  0  0  0  0  0  0  0
    1.0768    2.6802    0.0000 C   0  0  0  0  0  0  0  0  0  0  0  0
   -1.9768   -3.2933    0.0000 F   0  0  0  0  0  0  0  0  0  0  0  0
    0.7833   -0.7098    0.0000 C   0  0  0  0  0  0  0  0  0  0  0  0
    0.5858    3.2322    0.0000 O   0  0  0  0  0  0  0  0  0  0  0  0
   -0.5793    3.2933    0.0000 C   0  0  0  0  0  0  0  0  0  0  0  0
  1  2  1  0
  1 20  1  0
  1 21  1  0
  3  4  2  0
  3  8  1  0
  4  5  1  0
  5  6  2  0
  5 18  1  0
  6  7  1  0
  7  8  2  0
 10  8  1  0
 10  9  1  0
 10 19  1  1
 11  9  1  0
 11 12  1  0
 11 15  2  0
 13  1  1  0
 13 12  1  0
 13 14  1  0
 13 17  1  6
 14 15  1  0
 14 16  2  0
M  END
>  <DRUGBANK_ID>  (1) 
DB07017

>  <COMMON_NAME>  (1) 
(5S)-2-{[(1S)-1-(4-Fluorophenyl)ethyl]amino}-5-(2-hydroxy-2-propanyl)-5-methyl-1,3-thiazol-4(5H)-one

$$$$
