
     RDKit          2D

 23 25  0  0  0  0  0  0  0  0999 V2000
   -0.8482   -0.6258    0.0000 N   0  0  0  0  0  0  0  0  0  0  0  0
   -0.8482   -2.2758    0.0000 S   0  0  0  0  0  0  0  0  0  0  0  0
   -2.9917   -1.0384    0.0000 C   0  0  0  0  0  0  0  0  0  0  0  0
   -2.9917   -1.8633    0.0000 C   0  0  0  0  0  0  0  0  0  0  0  0
   -2.2771   -2.2758    0.0000 C   0  0  0  0  0  0  0  0  0  0  0  0
   -1.5627   -1.8634    0.0000 C   0  0  0  0  0  0  0  0  0  0  0  0
   -1.5627   -1.0384    0.0000 C   0  0  0  0  0  0  0  0  0  0  0  0
   -2.2772   -0.6258    0.0000 C   0  0  0  0  0  0  0  0  0  0  0  0
    0.5806   -0.6258    0.0000 C   0  0  0  0  0  0  0  0  0  0  0  0
   -0.1337   -1.0383    0.0000 C   0  0  0  0  0  0  0  0  0  0  0  0
   -0.1337   -1.8634    0.0000 C   0  0  0  0  0  0  0  0  0  0  0  0
    0.5806   -2.2759    0.0000 C   0  0  0  0  0  0  0  0  0  0  0  0
    1.2951   -1.8634    0.0000 C   0  0  0  0  0  0  0  0  0  0  0  0
    1.2951   -1.0383    0.0000 C   0  0  0  0  0  0  0  0  0  0  0  0
   -0.8482    0.1991    0.0000 C   0  0  0  0  0  0  0  0  0  0  0  0
   -1.5627    0.6115    0.0000 C   0  0  0  0  0  0  0  0  0  0  0  0
   -2.2771    0.1990    0.0000 C   0  0  0  0  0  0  0  0  0  0  0  0
   -1.5627    1.4365    0.0000 N   0  0  0  0  0  0  0  0  0  0  0  0
   -2.2772    1.8490    0.0000 C   0  0  0  0  0  0  0  0  0  0  0  0
   -0.8482    1.8491    0.0000 C   0  0  0  0  0  0  0  0  0  0  0  0
   -1.5627    2.2615    0.0000 C   0  0  0  0  0  0  0  0  0  0  0  0
   -2.9916    1.4365    0.0000 C   0  0  0  0  0  0  0  0  0  0  0  0
   -3.7061    1.8490    0.0000 O   0  0  0  0  0  0  0  0  0  0  0  0
  1  7  1  0
  1 10  1  0
  1 15  1  0
  2 11  1  0
  3  4  2  0
  4  5  1  0
  5  6  2  0
  6  7  1  0
  6  2  1  0
  7  8  2  0
  8  3  1  0
  9 10  2  0
 10 11  1  0
 11 12  2  0
 12 13  1  0
 13 14  2  0
 14  9  1  0
 15 16  1  0
 16 17  1  0
 16 18  1  0
 18 19  1  0
 18 20  1  0
 18 21  1  0
 19 22  1  0
 22 23  1  0
M  CHG  1  18   1
M  END
>  <DRUGBANK_ID>  (1) 
DB13840

>  <COMMON_NAME>  (1) 
Hydroxyethylpromethazine

>  <CAS_NUMBER>  (1) 
7647-63-4

>  <UNII>  (1) 
571559SLAJ

>  <SYNONYMS>  (1) 
Promethazine hydroxyethyl

$$$$
