
     RDKit          2D

 13 14  0  0  0  0  0  0  0  0999 V2000
   -0.6284    1.5229    0.0000 C   0  0  0  0  0  0  0  0  0  0  0  0
   -0.1435    0.8555    0.0000 C   0  0  0  0  0  0  0  0  0  0  0  0
    1.3556    0.6979    0.0000 C   0  0  0  0  0  0  0  0  0  0  0  0
   -0.1435    2.1904    0.0000 C   0  0  0  0  0  0  0  0  0  0  0  0
    2.0701    1.1104    0.0000 C   0  0  0  0  0  0  0  0  0  0  0  0
    0.6411    1.9354    0.0000 C   0  0  0  0  0  0  0  0  0  0  0  0
    2.0701    1.9354    0.0000 C   0  0  0  0  0  0  0  0  0  0  0  0
    1.3556    2.3479    0.0000 C   0  0  0  0  0  0  0  0  0  0  0  0
    0.6411    1.1104    0.0000 N   0  0  0  0  0  0  0  0  0  0  0  0
   -0.3984    2.9750    0.0000 O   0  0  0  0  0  0  0  0  0  0  0  0
    2.7845    0.6979    0.0000 O   0  0  0  0  0  0  0  0  0  0  0  0
    2.7845    2.3479    0.0000 O   0  0  0  0  0  0  0  0  0  0  0  0
    1.3556    3.1729    0.0000 O   0  0  0  0  0  0  0  0  0  0  0  0
  2  1  1  0
  4  1  1  0
  4 10  1  6
  5  3  1  0
  5 11  1  1
  6  4  1  0
  7  5  1  0
  7 12  1  6
  8  6  1  0
  8  7  1  0
  8 13  1  1
  9  2  1  0
  9  3  1  0
  6  9  1  6
M  END
>  <DRUGBANK_ID>  (1) 
DB01816

>  <SECONDARY_ACCESSION_NUMBERS>  (1) 
EXPT01055

>  <COMMON_NAME>  (1) 
Castanospermine

>  <CAS_NUMBER>  (1) 
79831-76-8

>  <UNII>  (1) 
Q0I3184XM7

>  <SYNONYMS>  (1) 
(1S-(1α,6β,7α,8β,8αβ))-octahydro-1,6,7,8-indolizinetetrol; (1S,6S,7R,8R,8aR)-1,6,7,8-tetrahydroxyindolizidine; 1,6,7,8-tetrahydroxyoctahydroindolizine

$$$$
