
     RDKit          2D

 41 44  0  0  0  0  0  0  0  0999 V2000
   -2.1707   -0.2062    0.0000 O   0  0  0  0  0  0  0  0  0  0  0  0
   -1.4562   -1.4437    0.0000 O   0  0  0  0  0  0  0  0  0  0  0  0
   -0.0272    0.2062    0.0000 O   0  0  0  0  0  0  0  0  0  0  0  0
   -2.1707    1.4437    0.0000 O   0  0  0  0  0  0  0  0  0  0  0  0
    0.6872    1.4437    0.0000 O   0  0  0  0  0  0  0  0  0  0  0  0
   -3.5996   -2.6813    0.0000 O   0  0  0  0  0  0  0  0  0  0  0  0
   -2.1707   -3.5063    0.0000 O   0  0  0  0  0  0  0  0  0  0  0  0
   -0.0272   -1.4437    0.0000 O   0  0  0  0  0  0  0  0  0  0  0  0
   -0.7416   -3.5063    0.0000 O   0  0  0  0  0  0  0  0  0  0  0  0
   -4.3141   -2.2687    0.0000 O   0  0  0  0  0  0  0  0  0  0  0  0
   -2.1707    2.2687    0.0000 O   0  0  0  0  0  0  0  0  0  0  0  0
    3.5682    1.4724    0.0000 O   0  0  0  0  0  0  0  0  0  0  0  0
    5.0286    1.4636    0.0000 O   0  0  0  0  0  0  0  0  0  0  0  0
   -3.5996   -1.0312    0.0000 N   0  0  0  0  0  0  0  0  0  0  0  0
   -0.7416    2.2687    0.0000 N   0  0  0  0  0  0  0  0  0  0  0  0
   -1.4562    0.2062    0.0000 C   0  0  0  0  0  0  0  0  0  0  0  0
   -1.4562    1.0312    0.0000 C   0  0  0  0  0  0  0  0  0  0  0  0
   -2.8851   -1.4437    0.0000 C   0  0  0  0  0  0  0  0  0  0  0  0
   -2.1707   -1.0312    0.0000 C   0  0  0  0  0  0  0  0  0  0  0  0
   -0.7416    1.4437    0.0000 C   0  0  0  0  0  0  0  0  0  0  0  0
   -0.7416   -0.2062    0.0000 C   0  0  0  0  0  0  0  0  0  0  0  0
   -2.8851   -2.2687    0.0000 C   0  0  0  0  0  0  0  0  0  0  0  0
   -2.1707   -2.6813    0.0000 C   0  0  0  0  0  0  0  0  0  0  0  0
   -0.0272    1.0312    0.0000 C   0  0  0  0  0  0  0  0  0  0  0  0
   -1.4562   -2.2687    0.0000 C   0  0  0  0  0  0  0  0  0  0  0  0
   -0.7416   -1.0312    0.0000 C   0  0  0  0  0  0  0  0  0  0  0  0
   -0.7416   -2.6813    0.0000 C   0  0  0  0  0  0  0  0  0  0  0  0
   -4.3141   -1.4437    0.0000 C   0  0  0  0  0  0  0  0  0  0  0  0
   -1.4562    2.6813    0.0000 C   0  0  0  0  0  0  0  0  0  0  0  0
    1.4017    1.0312    0.0000 C   0  0  0  0  0  0  0  0  0  0  0  0
   -5.0286   -1.0312    0.0000 C   0  0  0  0  0  0  0  0  0  0  0  0
   -1.4562    3.5063    0.0000 C   0  0  0  0  0  0  0  0  0  0  0  0
    2.1162    1.4437    0.0000 C   0  0  0  0  0  0  0  0  0  0  0  0
    1.4017    0.2062    0.0000 C   0  0  0  0  0  0  0  0  0  0  0  0
    2.8307    1.0312    0.0000 C   0  0  0  0  0  0  0  0  0  0  0  0
    2.1162   -0.2062    0.0000 C   0  0  0  0  0  0  0  0  0  0  0  0
    2.8307    0.2062    0.0000 C   0  0  0  0  0  0  0  0  0  0  0  0
    3.5682   -0.2348    0.0000 C   0  0  0  0  0  0  0  0  0  0  0  0
    4.3157    0.1890    0.0000 C   0  0  0  0  0  0  0  0  0  0  0  0
    4.3157    1.0484    0.0000 C   0  0  0  0  0  0  0  0  0  0  0  0
    3.5587   -1.0598    0.0000 C   0  0  0  0  0  0  0  0  0  0  0  0
  2 19  1  0
  2 25  1  0
  3 21  1  0
  3 24  1  0
  5 30  1  0
  8 26  1  0
  9 27  1  0
 10 28  2  0
 11 29  2  0
 12 35  1  0
 12 40  1  0
 13 40  2  0
 14 28  1  0
 15 29  1  0
 16  1  1  1
 16 17  1  0
 16 21  1  0
 17  4  1  6
 17 20  1  0
 18 14  1  1
 18 19  1  0
 18 22  1  0
 19  1  1  6
 20 15  1  1
 20 24  1  0
 21 26  1  6
 22  6  1  6
 22 23  1  0
 23  7  1  1
 23 25  1  0
 24  5  1  6
 25 27  1  6
 28 31  1  0
 29 32  1  0
 30 33  1  0
 30 34  2  0
 33 35  2  0
 34 36  1  0
 35 37  1  0
 36 37  2  0
 37 38  1  0
 38 39  2  0
 38 41  1  0
 39 40  1  0
M  END
>  <DRUGBANK_ID>  (1) 
DB02759

>  <SECONDARY_ACCESSION_NUMBERS>  (1) 
EXPT01671

>  <COMMON_NAME>  (1) 
4-methyl-umbelliferyl-N-acetyl-chitobiose

>  <CAS_NUMBER>  (1) 
53643-12-2

>  <UNII>  (1) 
SYW68VG2T6

>  <SYNONYMS>  (1) 
4-methylumbelliferyl-N,N-diacetylchitobioside; 4-Mudacb

$$$$
