
     RDKit          2D

 26 26  0  0  1  0  0  0  0  0999 V2000
   -0.4599   -1.3871    0.0000 C   0  0  0  0  0  0  0  0  0  0  0  0
    0.1121   -0.7926    0.0000 C   0  0  0  0  0  0  0  0  0  0  0  0
   -0.1167    0.0000    0.0000 N   0  0  0  0  0  0  0  0  0  0  0  0
    0.4553    0.5945    0.0000 C   0  0  0  0  0  0  0  0  0  0  0  0
    1.2562    0.3963    0.0000 C   0  0  0  0  0  0  0  0  0  0  0  0
    1.8282    0.9908    0.0000 C   0  0  0  0  0  0  0  0  0  0  0  0
    1.5994    1.7834    0.0000 O   0  0  0  0  0  0  0  0  0  0  0  0
    2.1714    2.3779    0.0000 P   0  0  0  0  0  0  0  0  0  0  0  0
    2.7435    2.9724    0.0000 O   0  0  0  0  0  0  0  0  0  0  0  0
    1.5770    2.9499    0.0000 O   0  0  0  0  0  0  0  0  0  0  0  0
    2.7659    1.8059    0.0000 O   0  0  0  0  0  0  0  0  0  0  0  0
    1.4850   -0.3963    0.0000 C   0  0  0  0  0  0  0  0  0  0  0  0
    2.2858   -0.5945    0.0000 C   0  0  0  0  0  0  0  0  0  0  0  0
    2.8579    0.0000    0.0000 N   0  0  0  0  0  0  0  0  0  0  0  0
    3.6587   -0.1982    0.0000 C   0  0  0  0  0  0  0  0  0  0  0  0
    3.4606   -0.9990    0.0000 C   0  0  0  0  0  0  0  0  0  0  0  0
    4.4596   -0.3963    0.0000 C   0  0  0  0  0  0  0  0  0  0  0  0
    5.0316    0.1982    0.0000 C   0  0  0  0  0  0  0  0  0  0  0  0
    5.8325    0.0000    0.0000 C   0  0  0  0  0  0  0  0  0  0  0  0
    6.4045    0.5945    0.0000 O   0  0  0  0  0  0  0  0  0  0  0  0
    6.0613   -0.7926    0.0000 O   0  0  0  0  0  0  0  0  0  0  0  0
    3.8569    0.6027    0.0000 C   0  0  0  0  0  0  0  0  0  0  0  0
    4.6495    0.8315    0.0000 O   0  0  0  0  0  0  0  0  0  0  0  0
    3.2624    1.1747    0.0000 O   0  0  0  0  0  0  0  0  0  0  0  0
    0.9130   -0.9908    0.0000 C   0  0  0  0  0  0  0  0  0  0  0  0
    1.1418   -1.7834    0.0000 O   0  0  0  0  0  0  0  0  0  0  0  0
  1  2  1  0
  2  3  2  0
  2 25  1  0
  3  4  1  0
  4  5  2  0
  5  6  1  0
  5 12  1  0
  6  7  1  0
  7  8  1  0
  8  9  1  0
  8 10  1  0
  8 11  2  0
 12 13  1  0
 12 25  2  0
 13 14  1  0
 15 14  1  0
 15 16  1  1
 15 17  1  0
 15 22  1  0
 17 18  1  0
 18 19  1  0
 19 20  1  0
 19 21  2  0
 22 23  1  0
 22 24  2  0
 25 26  1  0
M  END
>  <DRUGBANK_ID>  (1) 
DB04765

>  <COMMON_NAME>  (1) 
N-PYRIDOXYL-2-METHYL-L-GLUTAMIC ACID-5'-MONOPHOSPHATE

$$$$
