BFU
     RDKit          2D

 26 28  0  0  0  0  0  0  0  0999 V2000
    4.2894    3.4471    0.0000 Br  0  0  0  0  0  0  0  0  0  0  0  0
    3.5750    3.0346    0.0000 C   0  0  0  0  0  0  0  0  0  0  0  0
    3.5750    2.2096    0.0000 C   0  0  0  0  0  0  0  0  0  0  0  0
    2.8605    1.7971    0.0000 N   0  0  0  0  0  0  0  0  0  0  0  0
    2.1460    2.2096    0.0000 C   0  0  0  0  0  0  0  0  0  0  0  0
    2.1460    3.0346    0.0000 C   0  0  0  0  0  0  0  0  0  0  0  0
    2.8605    3.4471    0.0000 C   0  0  0  0  0  0  0  0  0  0  0  0
    1.4315    1.7971    0.0000 N   0  0  0  0  0  0  0  0  0  0  0  0
    1.4315    0.9721    0.0000 C   0  0  0  0  0  0  0  0  0  0  0  0
    2.1460    0.5596    0.0000 O   0  0  0  0  0  0  0  0  0  0  0  0
    0.7171    0.5596    0.0000 N   0  0  0  0  0  0  0  0  0  0  0  0
    0.7171   -0.2654    0.0000 C   0  0  0  0  0  0  0  0  0  0  0  0
    1.1296   -0.9799    0.0000 C   0  0  0  0  0  0  0  0  0  0  0  0
    0.3046   -0.9799    0.0000 C   0  0  0  0  0  0  0  0  0  0  0  0
   -0.4099   -1.3924    0.0000 C   0  0  0  0  0  0  0  0  0  0  0  0
   -0.4099   -2.2174    0.0000 C   0  0  0  0  0  0  0  0  0  0  0  0
    0.3046   -2.6299    0.0000 F   0  0  0  0  0  0  0  0  0  0  0  0
   -1.1244   -2.6299    0.0000 C   0  0  0  0  0  0  0  0  0  0  0  0
   -1.8388   -2.2174    0.0000 C   0  0  0  0  0  0  0  0  0  0  0  0
   -1.8388   -1.3924    0.0000 C   0  0  0  0  0  0  0  0  0  0  0  0
   -1.1244   -0.9799    0.0000 C   0  0  0  0  0  0  0  0  0  0  0  0
   -1.1244   -0.1549    0.0000 O   0  0  0  0  0  0  0  0  0  0  0  0
   -2.5533   -0.9799    0.0000 C   0  0  0  0  0  0  0  0  0  0  0  0
   -2.5533   -0.1549    0.0000 O   0  0  0  0  0  0  0  0  0  0  0  0
   -3.2678   -1.3924    0.0000 C   0  0  0  0  0  0  0  0  0  0  0  0
   -3.2678   -2.2174    0.0000 C   0  0  0  0  0  0  0  0  0  0  0  0
  1  2  1  0
  2  3  2  0
  2  7  1  0
  3  4  1  0
  4  5  2  0
  5  6  1  0
  5  8  1  0
  6  7  2  0
  8  9  1  0
  9 10  2  0
  9 11  1  0
 12 11  1  1
 12 13  1  0
 12 14  1  0
 13 14  1  0
 14 15  1  1
 15 16  2  0
 15 21  1  0
 16 17  1  0
 16 18  1  0
 18 19  2  0
 19 20  1  0
 20 21  2  0
 20 23  1  0
 21 22  1  0
 23 24  2  0
 23 25  1  0
 25 26  1  0
M  END
>  <DRUGBANK_ID>  (1) 
DB07451

>  <COMMON_NAME>  (1) 
1-(5-BROMO-PYRIDIN-2-YL)-3-[2-(6-FLUORO-2-HYDROXY-3-PROPIONYL-PHENYL)-CYCLOPROPYL]-UREA

$$$$
