Carotene-beta
     RDKit          2D

 21 21  0  0  0  0  0  0  0  0999 V2000
   -6.7893   -0.2309    0.0000 C   0  0  0  0  0  0  0  0  0  0  0  0
   -6.0748    0.1816    0.0000 C   0  0  0  0  0  0  0  0  0  0  0  0
   -7.5038   -1.4684    0.0000 C   0  0  0  0  0  0  0  0  0  0  0  0
   -8.2182   -0.2309    0.0000 C   0  0  0  0  0  0  0  0  0  0  0  0
   -5.3602   -0.2309    0.0000 C   0  0  0  0  0  0  0  0  0  0  0  0
   -8.2182   -1.0559    0.0000 C   0  0  0  0  0  0  0  0  0  0  0  0
   -4.6459    0.1816    0.0000 C   0  0  0  0  0  0  0  0  0  0  0  0
   -3.9314   -0.2309    0.0000 C   0  0  0  0  0  0  0  0  0  0  0  0
   -4.6459    1.0066    0.0000 C   0  0  0  0  0  0  0  0  0  0  0  0
   -3.2169    0.1816    0.0000 C   0  0  0  0  0  0  0  0  0  0  0  0
   -2.5025   -0.2309    0.0000 C   0  0  0  0  0  0  0  0  0  0  0  0
   -1.7880    0.1816    0.0000 C   0  0  0  0  0  0  0  0  0  0  0  0
   -1.0734   -0.2309    0.0000 C   0  0  0  0  0  0  0  0  0  0  0  0
   -1.7880    1.0066    0.0000 C   0  0  0  0  0  0  0  0  0  0  0  0
   -0.3590    0.1816    0.0000 C   0  0  0  0  0  0  0  0  0  0  0  0
   -6.7893   -1.0559    0.0000 C   0  0  0  0  0  0  0  0  0  0  0  0
   -6.0748   -1.4684    0.0000 C   0  0  0  0  0  0  0  0  0  0  0  0
   -7.9163    0.8961    0.0000 C   0  0  0  0  0  0  0  0  0  0  0  0
   -7.5038    0.1816    0.0000 C   0  0  0  0  0  0  0  0  0  0  0  0
   -7.0913    0.8961    0.0000 C   0  0  0  0  0  0  0  0  0  0  0  0
    0.3553   -0.2308    0.0000 O   0  0  0  0  0  0  0  0  0  0  0  0
  1 16  2  0
  1 19  1  0
  1  2  1  0
  2  5  2  0
  3  6  1  0
  4  6  1  0
  5  7  1  0
  7  8  2  0
  7  9  1  0
  8 10  1  0
 10 11  2  0
 11 12  1  0
 12 13  2  0
 12 14  1  0
 13 15  1  0
 15 21  1  0
 16  3  1  0
 16 17  1  0
 19  4  1  0
 19 18  1  0
 19 20  1  0
M  END
>  <DRUGBANK_ID>  (1) 
DB00162

>  <SECONDARY_ACCESSION_NUMBERS>  (1) 
NUTR00007; APRD00486

>  <COMMON_NAME>  (1) 
Vitamin A

>  <CAS_NUMBER>  (1) 
68-26-8

>  <UNII>  (1) 
G2SH0XKK91

>  <SYNONYMS>  (1) 
(2E,4E,6E,8E)-3,7-dimethyl-9-(2,6,6-trimethylcyclohex-1-en-1-yl)nona-2,4,6,8-tetraen-1-ol; all-trans-retinol; all-trans-retinyl alcohol; all-trans-vitamin A alcohol; Retinol; Retinolum; Vitamin A1

$$$$
