
     RDKit          2D

 12 13  0  0  0  0  0  0  0  0999 V2000
    3.3523    1.1104    0.0000 C   0  0  0  0  0  0  0  0  0  0  0  0
    3.3523    1.9354    0.0000 C   0  0  0  0  0  0  0  0  0  0  0  0
    2.6378    0.6979    0.0000 C   0  0  0  0  0  0  0  0  0  0  0  0
    1.1387    0.8555    0.0000 C   0  0  0  0  0  0  0  0  0  0  0  0
    2.6378    2.3479    0.0000 C   0  0  0  0  0  0  0  0  0  0  0  0
    0.6538    1.5229    0.0000 C   0  0  0  0  0  0  0  0  0  0  0  0
    1.9233    1.9354    0.0000 C   0  0  0  0  0  0  0  0  0  0  0  0
    1.1387    2.1904    0.0000 C   0  0  0  0  0  0  0  0  0  0  0  0
    1.9233    1.1104    0.0000 N   0  0  0  0  0  0  0  0  0  0  0  0
    2.6378    3.1729    0.0000 O   0  0  0  0  0  0  0  0  0  0  0  0
   -0.1712    1.5229    0.0000 O   0  0  0  0  0  0  0  0  0  0  0  0
    0.8838    2.9750    0.0000 O   0  0  0  0  0  0  0  0  0  0  0  0
  2  1  1  0
  3  1  1  0
  5  2  1  0
  5 10  1  6
  6  4  1  0
  6 11  1  1
  7  5  1  0
  8  6  1  0
  8  7  1  0
  8 12  1  1
  9  3  1  0
  9  4  1  0
  7  9  1  1
M  END
>  <DRUGBANK_ID>  (1) 
DB02034

>  <SECONDARY_ACCESSION_NUMBERS>  (1) 
EXPT02983; DB06425

>  <COMMON_NAME>  (1) 
Tridolgosir

>  <CAS_NUMBER>  (1) 
72741-87-8

>  <UNII>  (1) 
RSY4RK37KQ

>  <SYNONYMS>  (1) 
(1S,2R,8R,8AR)-octahydro-1,2,8-indolizinetriol; Swainosine; Tridolgosir

$$$$
