KR2
     RDKit          2D

 30 32  0  0  0  0  0  0  0  0999 V2000
   -4.2088   -1.9522    0.0000 C   0  0  0  0  0  0  0  0  0  0  0  0
   -4.9768   -2.2537    0.0000 C   0  0  0  0  0  0  0  0  0  0  0  0
   -5.6218   -1.7393    0.0000 C   0  0  0  0  0  0  0  0  0  0  0  0
   -5.4988   -0.9235    0.0000 C   0  0  0  0  0  0  0  0  0  0  0  0
   -4.7309   -0.6221    0.0000 C   0  0  0  0  0  0  0  0  0  0  0  0
   -4.0858   -1.1365    0.0000 C   0  0  0  0  0  0  0  0  0  0  0  0
   -3.3179   -0.8351    0.0000 C   0  0  0  0  0  0  0  0  0  0  0  0
   -3.1949   -0.0193    0.0000 O   0  0  0  0  0  0  0  0  0  0  0  0
   -2.6729   -1.3494    0.0000 N   0  0  0  0  0  0  0  0  0  0  0  0
   -2.8564   -2.1537    0.0000 C   0  0  0  0  0  0  0  0  0  0  0  0
   -2.3421   -2.7988    0.0000 C   0  0  0  0  0  0  0  0  0  0  0  0
   -1.5171   -2.7988    0.0000 C   0  0  0  0  0  0  0  0  0  0  0  0
   -1.0027   -2.1537    0.0000 C   0  0  0  0  0  0  0  0  0  0  0  0
   -1.1863   -1.3494    0.0000 C   0  0  0  0  0  0  0  0  0  0  0  0
   -1.9296   -0.9915    0.0000 N   0  0  0  0  0  0  0  0  0  0  0  0
   -1.9296   -0.1665    0.0000 C   0  0  0  0  0  0  0  0  0  0  0  0
   -2.6440    0.2460    0.0000 O   0  0  0  0  0  0  0  0  0  0  0  0
   -1.2151    0.2460    0.0000 C   0  0  0  0  0  0  0  0  0  0  0  0
   -0.5006   -0.1665    0.0000 C   0  0  0  0  0  0  0  0  0  0  0  0
   -0.5006   -0.9915    0.0000 N   0  0  0  0  0  0  0  0  0  0  0  0
    0.2138    0.2460    0.0000 C   0  0  0  0  0  0  0  0  0  0  0  0
    0.9283   -0.1665    0.0000 C   0  0  0  0  0  0  0  0  0  0  0  0
    1.6428    0.2460    0.0000 C   0  0  0  0  0  0  0  0  0  0  0  0
    2.3573   -0.1665    0.0000 C   0  0  0  0  0  0  0  0  0  0  0  0
    3.0717    0.2460    0.0000 F   0  0  0  0  0  0  0  0  0  0  0  0
    2.3573   -0.9915    0.0000 C   0  0  0  0  0  0  0  0  0  0  0  0
    3.0717   -1.4040    0.0000 F   0  0  0  0  0  0  0  0  0  0  0  0
    1.6428   -1.4040    0.0000 C   0  0  0  0  0  0  0  0  0  0  0  0
    0.9283   -0.9915    0.0000 C   0  0  0  0  0  0  0  0  0  0  0  0
    0.2138   -1.4040    0.0000 F   0  0  0  0  0  0  0  0  0  0  0  0
  1  2  2  0
  1  6  1  0
  2  3  1  0
  3  4  2  0
  4  5  1  0
  5  6  2  0
  6  7  1  0
  7  9  1  0
  7  8  2  0
  9 15  1  0
  9 10  1  0
 10 11  1  0
 11 12  1  0
 12 13  1  0
 13 14  1  0
 14 15  1  0
 15 16  1  0
 16 18  1  0
 16 17  2  0
 18 19  1  0
 19 20  1  1
 19 21  1  0
 21 22  1  0
 22 23  2  0
 22 29  1  0
 23 24  1  0
 24 25  1  0
 24 26  2  0
 26 27  1  0
 26 28  1  0
 28 29  2  0
 29 30  1  0
M  END
>  <DRUGBANK_ID>  (1) 
DB08051

>  <COMMON_NAME>  (1) 
(2R)-4-(2-BENZOYL-1,2-DIAZEPAN-1-YL)-4-OXO-1-(2,4,5-TRIFLUOROPHENYL)BUTAN-2-AMINE

$$$$
