
     RDKit          2D

  1  0  0  0  0  0  0  0  0  0999 V2000
    0.0000    0.0000    0.0000 Ta  0  0  0  0  0 15  0  0  0  0  0  0
M  END
>  <DRUGBANK_ID>  (1) 
DB12859

>  <COMMON_NAME>  (1) 
Tantalum

>  <CAS_NUMBER>  (1) 
7440-25-7

>  <UNII>  (1) 
6424HBN274

>  <SYNONYMS>  (1) 
Ta; t√°ntalo

$$$$
