
     RDKit          2D

 41 44  0  0  1  0  0  0  0  0999 V2000
    0.4580   -1.1056    0.0000 C   0  0  0  0  0  0  0  0  0  0  0  0
   -0.3266   -1.3606    0.0000 C   0  0  0  0  0  0  0  0  0  0  0  0
   -0.8116   -0.6931    0.0000 C   0  0  0  0  0  0  0  0  0  0  0  0
   -0.3266   -0.0257    0.0000 C   0  0  0  0  0  0  0  0  0  0  0  0
    0.4580   -0.2806    0.0000 N   0  0  0  0  0  0  0  0  0  0  0  0
    1.0413    0.3027    0.0000 C   0  0  0  0  0  0  0  0  0  0  0  0
    0.7256    1.0649    0.0000 O   0  0  0  0  0  0  0  0  0  0  0  0
    1.8663    0.3027    0.0000 C   0  0  0  0  0  0  0  0  0  0  0  0
    2.4497   -0.2806    0.0000 C   0  0  0  0  0  0  0  0  0  0  0  0
    2.4497   -1.1056    0.0000 N   0  0  0  0  0  0  0  0  0  0  0  0
    1.8663   -1.6890    0.0000 C   0  0  0  0  0  0  0  0  0  0  0  0
    1.0413   -1.6890    0.0000 C   0  0  0  0  0  0  0  0  0  0  0  0
    3.2119   -1.4214    0.0000 C   0  0  0  0  0  0  0  0  0  0  0  0
    3.8664   -0.9191    0.0000 O   0  0  0  0  0  0  0  0  0  0  0  0
    3.3196   -2.2393    0.0000 C   0  0  0  0  0  0  0  0  0  0  0  0
    4.0818   -2.5550    0.0000 C   0  0  0  0  0  0  0  0  0  0  0  0
    4.1895   -3.3730    0.0000 C   0  0  0  0  0  0  0  0  0  0  0  0
    4.7363   -2.0528    0.0000 C   0  0  0  0  0  0  0  0  0  0  0  0
    2.1821    1.0649    0.0000 N   0  0  0  0  0  0  0  0  0  0  0  0
    1.6798    1.7194    0.0000 C   0  0  0  0  0  0  0  0  0  0  0  0
    0.8619    1.6117    0.0000 O   0  0  0  0  0  0  0  0  0  0  0  0
    1.9955    2.4816    0.0000 C   0  0  0  0  0  0  0  0  0  0  0  0
    2.8135    2.5893    0.0000 C   0  0  0  0  0  0  0  0  0  0  0  0
    1.4933    3.1362    0.0000 N   0  0  0  0  0  0  0  0  0  0  0  0
    0.6754    3.0285    0.0000 C   0  0  0  0  0  0  0  0  0  0  0  0
   -0.5816    0.7589    0.0000 C   0  0  0  0  0  0  0  0  0  0  0  0
   -0.0296    1.3720    0.0000 O   0  0  0  0  0  0  0  0  0  0  0  0
   -1.3886    0.9304    0.0000 N   0  0  0  0  0  0  0  0  0  0  0  0
   -1.6435    1.7151    0.0000 C   0  0  0  0  0  0  0  0  0  0  0  0
   -2.4505    1.8866    0.0000 C   0  0  0  0  0  0  0  0  0  0  0  0
   -3.0025    1.2735    0.0000 C   0  0  0  0  0  0  0  0  0  0  0  0
   -3.8095    1.4450    0.0000 C   0  0  0  0  0  0  0  0  0  0  0  0
   -4.0644    2.2296    0.0000 C   0  0  0  0  0  0  0  0  0  0  0  0
   -3.5124    2.8427    0.0000 C   0  0  0  0  0  0  0  0  0  0  0  0
   -2.7054    2.6712    0.0000 C   0  0  0  0  0  0  0  0  0  0  0  0
   -1.0915    2.3282    0.0000 C   0  0  0  0  0  0  0  0  0  0  0  0
   -1.3464    3.1128    0.0000 C   0  0  0  0  0  0  0  0  0  0  0  0
   -0.7944    3.7259    0.0000 C   0  0  0  0  0  0  0  0  0  0  0  0
    0.0126    3.5543    0.0000 C   0  0  0  0  0  0  0  0  0  0  0  0
    0.2675    2.7697    0.0000 C   0  0  0  0  0  0  0  0  0  0  0  0
   -0.2845    2.1566    0.0000 C   0  0  0  0  0  0  0  0  0  0  0  0
  1  2  1  1
  1  5  1  0
  1 12  1  0
  2  3  1  0
  4  3  1  0
  4  5  1  0
  4 26  1  1
  5  6  1  0
  6  7  2  0
  8  6  1  0
  8  9  1  0
  8 19  1  1
  9 10  1  0
 10 11  1  0
 10 13  1  0
 11 12  1  0
 13 14  2  0
 13 15  1  0
 15 16  1  0
 16 17  1  0
 16 18  1  0
 19 20  1  0
 20 21  2  0
 22 20  1  0
 22 23  1  1
 22 24  1  0
 24 25  1  0
 26 27  2  0
 26 28  1  0
 28 29  1  0
 29 30  1  0
 29 36  1  0
 30 31  2  0
 30 35  1  0
 31 32  1  0
 32 33  2  0
 33 34  1  0
 34 35  2  0
 36 37  2  0
 36 41  1  0
 37 38  1  0
 38 39  2  0
 39 40  1  0
 40 41  2  0
M  END
>  <DRUGBANK_ID>  (1) 
DB16305

>  <COMMON_NAME>  (1) 
Xevinapant

>  <CAS_NUMBER>  (1) 
1071992-99-8

>  <UNII>  (1) 
N65WC8PXDD

>  <SYNONYMS>  (1) 
(5S,8S, 10aR)-N-benzhydryl-5-((S)-2-(methylamino)propanamido)-3-(3-methylbutanoyl)-6-oxodecahydropyrrolo[1,2-a][1,5] diazocine-8-carboxyamide; Iap inhibitor at-406; PYRROLO(1,2-A)(1,5)DIAZOCINE-8-CARBOXAMIDE, N-(DIPHENYLMETHYL)DECAHYDRO-5-(((2S)-2-(METHYLAMINO)-1-OXOPROPYL)AMINO)-3-(3-METHYL-1-OXOBUTYL)-6-OXO-, (5S,8S,10AR)-; Xevinapant

$$$$
