EES
     RDKit          2D

 18 20  0  0  0  0  0  0  0  0999 V2000
    0.0654   -1.2170    0.0000 Cl  0  0  0  0  0  0  0  0  0  0  0  0
    0.3203   -0.4324    0.0000 C   0  0  0  0  0  0  0  0  0  0  0  0
    1.1050   -0.1775    0.0000 C   0  0  0  0  0  0  0  0  0  0  0  0
    1.8194   -0.5900    0.0000 C   0  0  0  0  0  0  0  0  0  0  0  0
    2.5339   -0.1775    0.0000 C   0  0  0  0  0  0  0  0  0  0  0  0
    3.2484   -0.5900    0.0000 O   0  0  0  0  0  0  0  0  0  0  0  0
    2.5339    0.6475    0.0000 C   0  0  0  0  0  0  0  0  0  0  0  0
    1.8194    1.0600    0.0000 C   0  0  0  0  0  0  0  0  0  0  0  0
    1.1050    0.6475    0.0000 C   0  0  0  0  0  0  0  0  0  0  0  0
    0.3203    0.9025    0.0000 N   0  0  0  0  0  0  0  0  0  0  0  0
   -0.1646    0.2350    0.0000 N   0  0  0  0  0  0  0  0  0  0  0  0
   -0.9896    0.2350    0.0000 C   0  0  0  0  0  0  0  0  0  0  0  0
   -1.4021    0.9495    0.0000 C   0  0  0  0  0  0  0  0  0  0  0  0
   -2.2271    0.9495    0.0000 C   0  0  0  0  0  0  0  0  0  0  0  0
   -1.4021   -0.4794    0.0000 C   0  0  0  0  0  0  0  0  0  0  0  0
   -2.2271   -0.4794    0.0000 C   0  0  0  0  0  0  0  0  0  0  0  0
   -2.6396    0.2350    0.0000 C   0  0  0  0  0  0  0  0  0  0  0  0
   -3.4646    0.2350    0.0000 O   0  0  0  0  0  0  0  0  0  0  0  0
  1  2  1  0
  2  3  2  0
  2 11  1  0
  3  9  1  0
  3  4  1  0
  4  5  2  0
  5  7  1  0
  5  6  1  0
  7  8  2  0
  8  9  1  0
  9 10  2  0
 10 11  1  0
 11 12  1  0
 12 15  1  0
 12 13  2  0
 13 14  1  0
 14 17  2  0
 15 16  2  0
 16 17  1  0
 17 18  1  0
M  END
>  <DRUGBANK_ID>  (1) 
DB07708

>  <COMMON_NAME>  (1) 
3-CHLORO-2-(4-HYDROXYPHENYL)-2H-INDAZOL-5-OL

$$$$
