
     RDKit          2D

 40 44  0  0  0  0  0  0  0  0999 V2000
    4.7142    0.5133    0.0000 S   0  0  0  0  0  0  0  0  0  0  0  0
   -2.6498   -1.1095    0.0000 F   0  0  0  0  0  0  0  0  0  0  0  0
    0.3973    0.6679    0.0000 O   0  0  0  0  0  0  0  0  0  0  0  0
   -3.3784    0.8335    0.0000 O   0  0  0  0  0  0  0  0  0  0  0  0
   -0.7949    2.0700    0.0000 O   0  0  0  0  0  0  0  0  0  0  0  0
    1.1702    1.0874    0.0000 O   0  0  0  0  0  0  0  0  0  0  0  0
   -5.5202   -2.0811    0.0000 O   0  0  0  0  0  0  0  0  0  0  0  0
    2.1970    2.0811    0.0000 O   0  0  0  0  0  0  0  0  0  0  0  0
    5.5202    0.7231    0.0000 O   0  0  0  0  0  0  0  0  0  0  0  0
    4.5156    1.3194    0.0000 O   0  0  0  0  0  0  0  0  0  0  0  0
    4.9240   -0.2815    0.0000 O   0  0  0  0  0  0  0  0  0  0  0  0
   -1.2254   -0.4140    0.0000 C   0  0  0  0  0  0  0  0  0  0  0  0
   -1.9320   -0.8335    0.0000 C   0  0  0  0  0  0  0  0  0  0  0  0
   -1.2254    0.4140    0.0000 C   0  0  0  0  0  0  0  0  0  0  0  0
   -2.6387   -0.4140    0.0000 C   0  0  0  0  0  0  0  0  0  0  0  0
   -0.4305    0.6679    0.0000 C   0  0  0  0  0  0  0  0  0  0  0  0
   -3.3563   -0.8335    0.0000 C   0  0  0  0  0  0  0  0  0  0  0  0
   -2.6387    0.4140    0.0000 C   0  0  0  0  0  0  0  0  0  0  0  0
   -1.9320    0.8225    0.0000 C   0  0  0  0  0  0  0  0  0  0  0  0
   -0.4305   -0.6569    0.0000 C   0  0  0  0  0  0  0  0  0  0  0  0
    0.0551   -0.0055    0.0000 C   0  0  0  0  0  0  0  0  0  0  0  0
   -1.9320   -1.6506    0.0000 C   0  0  0  0  0  0  0  0  0  0  0  0
   -3.3563   -1.6506    0.0000 C   0  0  0  0  0  0  0  0  0  0  0  0
   -0.2098    1.4738    0.0000 C   0  0  0  0  0  0  0  0  0  0  0  0
   -1.2254    1.2531    0.0000 C   0  0  0  0  0  0  0  0  0  0  0  0
   -2.6387   -2.0701    0.0000 C   0  0  0  0  0  0  0  0  0  0  0  0
   -4.0739   -0.4140    0.0000 C   0  0  0  0  0  0  0  0  0  0  0  0
   -3.3563   -0.0055    0.0000 C   0  0  0  0  0  0  0  0  0  0  0  0
   -4.0739   -2.0701    0.0000 C   0  0  0  0  0  0  0  0  0  0  0  0
    0.8832    0.0055    0.0000 C   0  0  0  0  0  0  0  0  0  0  0  0
    0.5851    1.6726    0.0000 C   0  0  0  0  0  0  0  0  0  0  0  0
   -4.7804   -0.8335    0.0000 C   0  0  0  0  0  0  0  0  0  0  0  0
   -4.7804   -1.6506    0.0000 C   0  0  0  0  0  0  0  0  0  0  0  0
    1.9651    1.2862    0.0000 C   0  0  0  0  0  0  0  0  0  0  0  0
    2.5393    0.7010    0.0000 C   0  0  0  0  0  0  0  0  0  0  0  0
    3.3452    0.8997    0.0000 C   0  0  0  0  0  0  0  0  0  0  0  0
    2.3183   -0.0939    0.0000 C   0  0  0  0  0  0  0  0  0  0  0  0
    3.9193    0.3146    0.0000 C   0  0  0  0  0  0  0  0  0  0  0  0
    2.9035   -0.6900    0.0000 C   0  0  0  0  0  0  0  0  0  0  0  0
    3.6985   -0.4803    0.0000 C   0  0  0  0  0  0  0  0  0  0  0  0
  1  9  1  0
  1 10  2  0
  1 11  2  0
  1 38  1  0
  5 24  2  0
  6 31  1  0
  6 34  1  0
  7 33  2  0
  8 34  2  0
 12 13  1  0
 12 14  1  0
 12 20  1  1
 13 15  1  0
 13 22  1  6
 14 16  1  0
 14 19  1  0
 14 25  1  1
 15  2  1  6
 15 17  1  0
 15 18  1  0
 16  3  1  6
 16 21  1  0
 16 24  1  0
 17 23  1  0
 17 27  1  0
 17 28  1  1
 18  4  1  1
 18 19  1  0
 20 21  1  0
 21 30  1  6
 22 26  1  0
 23 26  1  0
 23 29  2  0
 24 31  1  0
 27 32  2  0
 29 33  1  0
 32 33  1  0
 34 35  1  0
 35 36  2  0
 35 37  1  0
 36 38  1  0
 37 39  2  0
 38 40  2  0
 39 40  1  0
M  END
>  <DRUGBANK_ID>  (1) 
DB14703

>  <COMMON_NAME>  (1) 
Dexamethasone metasulfobenzoate

>  <CAS_NUMBER>  (1) 
16978-57-7

>  <UNII>  (1) 
C67221CB9Q

>  <SYNONYMS>  (1) 
Dexamethasone m-sulfobenzoate; Dexamethasone-21-sulfobenzoate

$$$$
