
     RDKit          2D

 34 39  0  0  1  0  0  0  0  0999 V2000
   -1.7224    5.7750    0.0000 C   0  0  0  0  0  0  0  0  0  0  0  0
   -1.7224    4.9500    0.0000 C   0  0  0  0  0  0  0  0  0  0  0  0
   -2.4368    4.5375    0.0000 C   0  0  0  0  0  0  0  0  0  0  0  0
   -1.0079    4.5375    0.0000 N   0  0  0  0  0  0  0  0  0  0  0  0
   -1.0079    3.7125    0.0000 C   0  0  0  0  0  0  0  0  0  0  0  0
   -0.2934    3.3000    0.0000 C   0  0  0  0  0  0  0  0  0  0  0  0
   -0.4997    4.1250    0.0000 C   0  0  0  0  0  0  0  0  0  0  0  0
   -0.2934    4.9500    0.0000 C   0  0  0  0  0  0  0  0  0  0  0  0
    0.4210    4.5375    0.0000 C   0  0  0  0  0  0  0  0  0  0  0  0
    0.4210    3.7125    0.0000 N   0  0  0  0  0  0  0  0  0  0  0  0
    1.1355    3.3000    0.0000 C   0  0  0  0  0  0  0  0  0  0  0  0
    1.8500    3.7125    0.0000 C   0  0  0  0  0  0  0  0  0  0  0  0
    2.5645    3.3000    0.0000 C   0  0  0  0  0  0  0  0  0  0  0  0
    2.5645    2.4750    0.0000 C   0  0  0  0  0  0  0  0  0  0  0  0
    3.2789    2.0625    0.0000 N   0  0  0  0  0  0  0  0  0  0  0  0
    3.2789    1.2375    0.0000 C   0  0  0  0  0  0  0  0  0  0  0  0
    3.9934    0.8250    0.0000 N   0  0  0  0  0  0  0  0  0  0  0  0
    3.9934    0.0000    0.0000 C   0  0  0  0  0  0  0  0  0  0  0  0
    3.2789   -0.4125    0.0000 C   0  0  0  0  0  0  0  0  0  0  0  0
    2.5645    0.0000    0.0000 N   0  0  0  0  0  0  0  0  0  0  0  0
    1.7798   -0.2549    0.0000 N   0  0  0  0  0  0  0  0  0  0  0  0
    1.2949    0.4125    0.0000 C   0  0  0  0  0  0  0  0  0  0  0  0
    1.7798    1.0799    0.0000 N   0  0  0  0  0  0  0  0  0  0  0  0
    2.5645    0.8250    0.0000 C   0  0  0  0  0  0  0  0  0  0  0  0
    3.2789   -1.2375    0.0000 C   0  0  0  0  0  0  0  0  0  0  0  0
    3.9464   -1.7224    0.0000 C   0  0  0  0  0  0  0  0  0  0  0  0
    3.6914   -2.5070    0.0000 O   0  0  0  0  0  0  0  0  0  0  0  0
    2.8664   -2.5070    0.0000 C   0  0  0  0  0  0  0  0  0  0  0  0
    2.6115   -1.7224    0.0000 C   0  0  0  0  0  0  0  0  0  0  0  0
    2.3815   -3.1745    0.0000 C   0  0  0  0  0  0  0  0  0  0  0  0
    2.7171   -3.9282    0.0000 N   0  0  0  0  0  0  0  0  0  0  0  0
    1.5610   -3.0882    0.0000 O   0  0  0  0  0  0  0  0  0  0  0  0
    1.8500    2.0625    0.0000 C   0  0  0  0  0  0  0  0  0  0  0  0
    1.1355    2.4750    0.0000 C   0  0  0  0  0  0  0  0  0  0  0  0
  1  2  1  0
  2  3  1  0
  2  4  1  0
  4  5  1  0
  6  5  1  6
  6  7  1  0
  6 10  1  0
  8  7  1  0
  8  4  1  0
  8  9  1  6
  9 10  1  0
 10 11  1  0
 11 12  2  0
 11 34  1  0
 12 13  1  0
 13 14  2  0
 14 15  1  0
 14 33  1  0
 15 16  1  0
 16 17  2  0
 16 24  1  0
 17 18  1  0
 18 19  2  0
 19 20  1  0
 19 25  1  0
 20 21  1  0
 20 24  1  0
 21 22  2  0
 22 23  1  0
 23 24  2  0
 25 26  2  0
 25 29  1  0
 26 27  1  0
 27 28  1  0
 28 29  2  0
 28 30  1  0
 30 31  1  0
 30 32  2  0
 33 34  2  0
M  END
>  <DRUGBANK_ID>  (1) 
DB15190

>  <COMMON_NAME>  (1) 
GLPG-0259

>  <CAS_NUMBER>  (1) 
1195065-29-2

>  <UNII>  (1) 
52EG7RFE6Y

$$$$
