
     RDKit          2D

 16 15  0  0  1  0  0  0  0  0999 V2000
    9.1577  -10.8077    0.0000 O   0  0  0  0  0  0  0  0  0  0  0  0
    9.8722  -10.3952    0.0000 C   0  0  0  0  0  0  0  0  0  0  0  0
   10.5867  -10.8077    0.0000 C   0  0  0  0  0  0  0  0  0  0  0  0
   11.3012  -10.3952    0.0000 C   0  0  0  0  0  0  0  0  0  0  0  0
   12.0156  -10.8077    0.0000 C   0  0  0  0  0  0  0  0  0  0  0  0
   12.7301  -10.3952    0.0000 C   0  0  0  0  0  0  0  0  0  0  0  0
   13.4446  -10.8077    0.0000 C   0  0  0  0  0  0  0  0  0  0  0  0
   14.1591  -10.3952    0.0000 O   0  0  0  0  0  0  0  0  0  0  0  0
   10.5867  -11.6326    0.0000 O   0  0  0  0  0  0  0  0  0  0  0  0
   11.3012   -9.5702    0.0000 O   0  0  0  0  0  0  0  0  0  0  0  0
   12.0156  -11.6327    0.0000 O   0  0  0  0  0  0  0  0  0  0  0  0
   12.7301   -9.5704    0.0000 O   0  0  0  0  0  0  0  0  0  0  0  0
   14.9841  -10.3952    0.0000 P   0  0  0  0  0  0  0  0  0  0  0  0
   15.8091  -10.3952    0.0000 O   0  0  0  0  0  0  0  0  0  0  0  0
   14.9841   -9.5702    0.0000 O   0  0  0  0  0  0  0  0  0  0  0  0
   14.9841  -11.2202    0.0000 O   0  0  0  0  0  0  0  0  0  0  0  0
  1  2  1  0
  2  3  1  0
  3  4  1  0
  3  9  1  1
  4  5  1  0
  4 10  1  1
  5  6  1  0
  5 11  1  1
  6  7  1  0
  6 12  1  6
  7  8  1  0
  8 13  1  0
 13 14  1  0
 13 15  2  0
 13 16  1  0
M  END
>  <DRUGBANK_ID>  (1) 
DB02548

>  <SECONDARY_ACCESSION_NUMBERS>  (1) 
EXPT02834

>  <COMMON_NAME>  (1) 
D-glucitol 6-phosphate

>  <CAS_NUMBER>  (1) 
20479-58-7

>  <SYNONYMS>  (1) 
D-Glucitol, 6-(dihydrogen phosphate); D-Sorbitol 6-phosphate; D-sorbitol-6-phosphate; Sorbitol 6-phosphate; Sorbitol-6-phosphate

$$$$
