
     RDKit          2D

 35 38  0  0  0  0  0  0  0  0999 V2000
   -2.1432    1.4290    0.0000 C   0  0  0  0  0  0  0  0  0  0  0  0
   -2.8577    1.0165    0.0000 C   0  0  0  0  0  0  0  0  0  0  0  0
   -2.8577    0.1915    0.0000 C   0  0  0  0  0  0  0  0  0  0  0  0
   -2.1433   -0.2209    0.0000 C   0  0  0  0  0  0  0  0  0  0  0  0
   -1.4289    0.1915    0.0000 C   0  0  0  0  0  0  0  0  0  0  0  0
   -1.4289    1.0165    0.0000 C   0  0  0  0  0  0  0  0  0  0  0  0
   -0.7143    1.4290    0.0000 C   0  0  0  0  0  0  0  0  0  0  0  0
   -0.7144   -0.2209    0.0000 C   0  0  0  0  0  0  0  0  0  0  0  0
    0.0000    0.1914    0.0000 C   0  0  0  0  0  0  0  0  0  0  0  0
    0.0000    1.0164    0.0000 C   0  0  0  0  0  0  0  0  0  0  0  0
    0.7145    1.4289    0.0000 C   0  0  0  0  0  0  0  0  0  0  0  0
    0.7144   -0.2210    0.0000 C   0  0  0  0  0  0  0  0  0  0  0  0
    1.4289    0.2209    0.0000 C   0  0  0  0  0  0  0  0  0  0  0  0
    1.4289    1.0459    0.0000 C   0  0  0  0  0  0  0  0  0  0  0  0
    2.1435    1.4584    0.0000 C   0  0  0  0  0  0  0  0  0  0  0  0
    2.1434   -0.1916    0.0000 C   0  0  0  0  0  0  0  0  0  0  0  0
    2.8577    0.2208    0.0000 C   0  0  0  0  0  0  0  0  0  0  0  0
    2.8577    1.0458    0.0000 C   0  0  0  0  0  0  0  0  0  0  0  0
   -2.1432    2.2540    0.0000 O   0  0  0  0  0  0  0  0  0  0  0  0
   -0.7143    2.2540    0.0000 O   0  0  0  0  0  0  0  0  0  0  0  0
    0.7145    2.2539    0.0000 O   0  0  0  0  0  0  0  0  0  0  0  0
    2.1435    2.2834    0.0000 O   0  0  0  0  0  0  0  0  0  0  0  0
    3.5723    1.4583    0.0000 C   0  0  0  0  0  0  0  0  0  0  0  0
    3.5723    2.2833    0.0000 O   0  0  0  0  0  0  0  0  0  0  0  0
    4.2867    1.0458    0.0000 N   0  0  0  0  0  0  0  0  0  0  0  0
    3.5722   -0.1916    0.0000 O   0  0  0  0  0  0  0  0  0  0  0  0
    2.1434   -1.0166    0.0000 N   0  0  0  0  0  0  0  0  0  0  0  0
    2.8577   -1.4292    0.0000 C   0  0  0  0  0  0  0  0  0  0  0  0
    1.4289   -1.4291    0.0000 C   0  0  0  0  0  0  0  0  0  0  0  0
   -2.1433   -1.0459    0.0000 C   0  0  0  0  0  0  0  0  0  0  0  0
   -2.8577   -1.4584    0.0000 N   0  0  0  0  0  0  0  0  0  0  0  0
   -3.5722   -1.0459    0.0000 O   0  0  0  0  0  0  0  0  0  0  0  0
   -4.2867   -1.4583    0.0000 C   0  0  0  0  0  0  0  0  0  0  0  0
   -2.8577   -2.2834    0.0000 C   0  0  0  0  0  0  0  0  0  0  0  0
    1.4290    1.8708    0.0000 O   0  0  0  0  0  0  0  0  0  0  0  0
  1  2  2  0
  1  6  1  0
  1 19  1  0
  2  3  1  0
  3  4  2  0
  4  5  1  0
  4 30  1  0
  5  8  1  0
  6  5  2  0
  7  6  1  0
  7 10  1  0
  7 20  2  0
  9  8  1  6
  9 12  1  0
 10  9  1  0
 11 10  2  0
 11 14  1  0
 11 21  1  0
 13 12  1  6
 13 16  1  0
 14 13  1  0
 14 35  1  1
 15 14  1  0
 15 18  1  0
 15 22  2  0
 16 17  1  0
 16 27  1  1
 17 18  2  0
 17 26  1  0
 18 23  1  0
 23 24  2  0
 23 25  1  0
 27 28  1  0
 27 29  1  0
 30 31  1  0
 31 32  1  0
 31 34  1  0
 32 33  1  0
M  END
>  <DRUGBANK_ID>  (1) 
DB12035

>  <COMMON_NAME>  (1) 
Sarecycline

>  <CAS_NUMBER>  (1) 
1035654-66-0

>  <UNII>  (1) 
94O110CX2E

>  <SYNONYMS>  (1) 
Sareciclina; Sarecycline; SarÃ©cycline; Sarecyclinum

$$$$
