
     RDKit          2D

 35 34  0  0  0  0  0  0  0  0999 V2000
   -6.4780   -6.6275    0.0000 S   0  0  0  0  0  0  0  0  0  0  0  0
   -3.6202   -6.6275    0.0000 P   0  0  0  0  0  0  0  0  0  0  0  0
   -0.7623   -4.9775    0.0000 O   0  0  0  0  0  0  0  0  0  0  0  0
   -2.9057   -6.2150    0.0000 O   0  0  0  0  0  0  0  0  0  0  0  0
   -4.3347   -7.0400    0.0000 O   0  0  0  0  0  0  0  0  0  0  0  0
   -0.0478   -5.3900    0.0000 O   0  0  0  0  0  0  0  0  0  0  0  0
   -4.0326   -5.9131    0.0000 O   0  0  0  0  0  0  0  0  0  0  0  0
   -3.2077   -7.3420    0.0000 O   0  0  0  0  0  0  0  0  0  0  0  0
   -0.7623   -6.6274    0.0000 N   0  0  0  0  0  0  0  0  0  0  0  0
    2.0953    0.7972    0.0000 C   0  0  0  0  0  0  0  0  0  0  0  0
    2.0954   -0.0276    0.0000 C   0  0  0  0  0  0  0  0  0  0  0  0
    2.8099    1.2098    0.0000 C   0  0  0  0  0  0  0  0  0  0  0  0
    1.3809   -0.4401    0.0000 C   0  0  0  0  0  0  0  0  0  0  0  0
    2.8099    2.0349    0.0000 C   0  0  0  0  0  0  0  0  0  0  0  0
    1.3809   -1.2651    0.0000 C   0  0  0  0  0  0  0  0  0  0  0  0
    3.5243    2.4473    0.0000 C   0  0  0  0  0  0  0  0  0  0  0  0
    0.6665   -1.6774    0.0000 C   0  0  0  0  0  0  0  0  0  0  0  0
    3.5243    3.2723    0.0000 C   0  0  0  0  0  0  0  0  0  0  0  0
    0.6665   -2.5025    0.0000 C   0  0  0  0  0  0  0  0  0  0  0  0
    4.2388    3.6847    0.0000 C   0  0  0  0  0  0  0  0  0  0  0  0
   -0.0478   -2.9149    0.0000 C   0  0  0  0  0  0  0  0  0  0  0  0
    4.2388    4.5099    0.0000 C   0  0  0  0  0  0  0  0  0  0  0  0
   -0.0478   -3.7399    0.0000 C   0  0  0  0  0  0  0  0  0  0  0  0
    4.9532    4.9224    0.0000 C   0  0  0  0  0  0  0  0  0  0  0  0
   -0.7623   -4.1524    0.0000 C   0  0  0  0  0  0  0  0  0  0  0  0
    4.9532    5.7474    0.0000 C   0  0  0  0  0  0  0  0  0  0  0  0
   -1.4768   -5.3900    0.0000 C   0  0  0  0  0  0  0  0  0  0  0  0
   -1.4768   -6.2149    0.0000 C   0  0  0  0  0  0  0  0  0  0  0  0
    5.6678    6.1598    0.0000 C   0  0  0  0  0  0  0  0  0  0  0  0
   -2.1913   -6.6275    0.0000 C   0  0  0  0  0  0  0  0  0  0  0  0
   -0.0478   -6.2149    0.0000 C   0  0  0  0  0  0  0  0  0  0  0  0
    0.6665   -6.6275    0.0000 C   0  0  0  0  0  0  0  0  0  0  0  0
   -5.0490   -6.6275    0.0000 C   0  0  0  0  0  0  0  0  0  0  0  0
   -5.7636   -7.0401    0.0000 C   0  0  0  0  0  0  0  0  0  0  0  0
   -7.1925   -7.0401    0.0000 C   0  0  0  0  0  0  0  0  0  0  0  0
  1 34  1  0
  1 35  1  0
  2  4  1  0
  2  5  1  0
  2  7  1  0
  2  8  2  0
  3 25  1  0
  3 27  1  0
  4 30  1  0
  5 33  1  0
  6 31  2  0
  9 31  1  0
 10 11  1  0
 10 12  1  0
 11 13  1  0
 12 14  1  0
 13 15  1  0
 14 16  1  0
 15 17  1  0
 16 18  1  0
 17 19  1  0
 18 20  1  0
 19 21  1  0
 20 22  1  0
 21 23  1  0
 22 24  1  0
 23 25  1  0
 24 26  1  0
 26 29  1  0
 28 27  1  1
 28  9  1  0
 28 30  1  0
 31 32  1  0
 33 34  1  0
M  END
>  <DRUGBANK_ID>  (1) 
DB04112

>  <SECONDARY_ACCESSION_NUMBERS>  (1) 
EXPT01881

>  <COMMON_NAME>  (1) 
(2R)-2-Acetamido-3-(octadecyloxy)propyl 2-(methylsulfanyl)ethyl hydrogen phosphate

>  <SYNONYMS>  (1) 
1-Octadecyl-2-acetamido-2-deoxy-SN-glycerol-3-phosphoethylmethyl sulfide

$$$$
