SAV
     RDKit          2D

 30 33  0  0  0  0  0  0  0  0999 V2000
    1.4597   -0.3352    0.0000 N   0  0  0  0  0  0  0  0  0  0  0  0
    0.0307    2.1398    0.0000 N   0  0  0  0  0  0  0  0  0  0  0  0
    1.4597   -1.1602    0.0000 C   0  0  0  0  0  0  0  0  0  0  0  0
    0.7452    0.0773    0.0000 C   0  0  0  0  0  0  0  0  0  0  0  0
   -0.6837    0.0773    0.0000 C   0  0  0  0  0  0  0  0  0  0  0  0
   -0.6837    0.9023    0.0000 C   0  0  0  0  0  0  0  0  0  0  0  0
    0.0307    1.3148    0.0000 C   0  0  0  0  0  0  0  0  0  0  0  0
   -0.6837    3.3773    0.0000 C   0  0  0  0  0  0  0  0  0  0  0  0
   -2.8973    3.6323    0.0000 C   0  0  0  0  0  0  0  0  0  0  0  0
   -2.1127    2.5523    0.0000 C   0  0  0  0  0  0  0  0  0  0  0  0
    2.1741   -1.5727    0.0000 C   0  0  0  0  0  0  0  0  0  0  0  0
    1.4597   -2.8102    0.0000 C   0  0  0  0  0  0  0  0  0  0  0  0
    2.1741   -4.0477    0.0000 C   0  0  0  0  0  0  0  0  0  0  0  0
   -0.6837   -2.3977    0.0000 C   0  0  0  0  0  0  0  0  0  0  0  0
    0.0307   -2.8102    0.0000 O   0  0  0  0  0  0  0  0  0  0  0  0
    0.7452   -2.3977    0.0000 C   0  0  0  0  0  0  0  0  0  0  0  0
    0.7452   -1.5727    0.0000 C   0  0  0  0  0  0  0  0  0  0  0  0
    0.0307   -0.3352    0.0000 N   0  0  0  0  0  0  0  0  0  0  0  0
   -0.6837    2.5523    0.0000 C   0  0  0  0  0  0  0  0  0  0  0  0
   -1.3982    3.7898    0.0000 C   0  0  0  0  0  0  0  0  0  0  0  0
   -2.1127    3.3773    0.0000 C   0  0  0  0  0  0  0  0  0  0  0  0
   -3.1522    4.4169    0.0000 C   0  0  0  0  0  0  0  0  0  0  0  0
   -3.3822    2.9648    0.0000 N   0  0  0  0  0  0  0  0  0  0  0  0
   -2.8973    2.2974    0.0000 N   0  0  0  0  0  0  0  0  0  0  0  0
   -1.3982    2.1398    0.0000 C   0  0  0  0  0  0  0  0  0  0  0  0
    0.7452    0.9023    0.0000 N   0  0  0  0  0  0  0  0  0  0  0  0
    2.1741   -2.3977    0.0000 C   0  0  0  0  0  0  0  0  0  0  0  0
    2.8886   -2.8102    0.0000 O   0  0  0  0  0  0  0  0  0  0  0  0
    2.8886   -3.6352    0.0000 C   0  0  0  0  0  0  0  0  0  0  0  0
    1.4597   -3.6352    0.0000 O   0  0  0  0  0  0  0  0  0  0  0  0
  1  3  1  0
  1  4  1  0
  2  7  1  0
  2 19  1  0
  3 11  2  0
  3 17  1  0
  4 18  2  0
  4 26  1  0
  5  6  2  0
  5 18  1  0
  6  7  1  0
  7 26  2  0
  8 19  2  0
  8 20  1  0
  9 21  1  0
  9 22  1  0
  9 23  2  0
 10 21  1  0
 10 24  1  0
 10 25  2  0
 11 27  1  0
 12 16  1  0
 12 27  2  0
 12 30  1  0
 13 30  1  0
 14 15  1  0
 15 16  1  0
 16 17  2  0
 19 25  1  0
 20 21  2  0
 23 24  1  0
 27 28  1  0
 28 29  1  0
M  END
>  <DRUGBANK_ID>  (1) 
DB08519

>  <COMMON_NAME>  (1) 
N~4~-(3-methyl-1H-indazol-6-yl)-N~2~-(3,4,5-trimethoxyphenyl)pyrimidine-2,4-diamine

$$$$
