NNI
     RDKit          2D

 24 26  0  0  0  0  0  0  0  0999 V2000
    2.6046   33.2656    0.0000 C   0  0  0  0  0  0  0  0  0  0  0  0
    1.8901   33.6781    0.0000 C   0  0  0  0  0  0  0  0  0  0  0  0
    1.8901   34.5031    0.0000 C   0  0  0  0  0  0  0  0  0  0  0  0
    1.1757   34.9156    0.0000 I   0  0  0  0  0  0  0  0  0  0  0  0
    2.6046   34.9156    0.0000 C   0  0  0  0  0  0  0  0  0  0  0  0
    3.3191   34.5031    0.0000 C   0  0  0  0  0  0  0  0  0  0  0  0
    3.3191   33.6781    0.0000 C   0  0  0  0  0  0  0  0  0  0  0  0
    4.0335   33.2656    0.0000 N   0  0  0  0  0  0  0  0  0  0  0  0
    4.7480   33.6781    0.0000 C   0  0  0  0  0  0  0  0  0  0  0  0
    4.7480   34.5031    0.0000 S   0  0  0  0  0  0  0  0  0  0  0  0
    5.4625   33.2656    0.0000 O   0  0  0  0  0  0  0  0  0  0  0  0
    6.1770   33.6781    0.0000 C   0  0  0  0  0  0  0  0  0  0  0  0
    6.8914   33.2656    0.0000 C   0  0  0  0  0  0  0  0  0  0  0  0
    7.6059   33.6781    0.0000 N   0  0  0  0  0  0  0  0  0  0  0  0
    8.3596   33.3425    0.0000 C   0  0  0  0  0  0  0  0  0  0  0  0
    8.5311   32.5355    0.0000 O   0  0  0  0  0  0  0  0  0  0  0  0
    8.9116   33.9556    0.0000 C   0  0  0  0  0  0  0  0  0  0  0  0
    9.7366   33.9556    0.0000 C   0  0  0  0  0  0  0  0  0  0  0  0
   10.1491   34.6701    0.0000 C   0  0  0  0  0  0  0  0  0  0  0  0
    9.7366   35.3845    0.0000 C   0  0  0  0  0  0  0  0  0  0  0  0
    8.9116   35.3845    0.0000 C   0  0  0  0  0  0  0  0  0  0  0  0
    8.4991   34.6701    0.0000 C   0  0  0  0  0  0  0  0  0  0  0  0
    7.6921   34.4985    0.0000 C   0  0  0  0  0  0  0  0  0  0  0  0
    7.0790   35.0506    0.0000 O   0  0  0  0  0  0  0  0  0  0  0  0
  1  2  2  0
  1  7  1  0
  2  3  1  0
  3  4  1  0
  3  5  2  0
  5  6  1  0
  6  7  2  0
  7  8  1  0
  8  9  1  0
  9 10  2  0
  9 11  1  0
 11 12  1  0
 12 13  1  0
 13 14  1  0
 14 23  1  0
 14 15  1  0
 15 16  2  0
 17 15  1  0
 18 17  2  0
 19 18  1  0
 20 19  2  0
 21 20  1  0
 22 21  2  0
 22 17  1  0
 23 24  2  0
 23 22  1  0
M  END
>  <DRUGBANK_ID>  (1) 
DB08284

>  <COMMON_NAME>  (1) 
O-[2-(1,3-dioxo-1,3-dihydro-2H-isoindol-2-yl)ethyl] (4-iodophenyl)thiocarbamate

$$$$
