
     RDKit          2D

 10 10  0  0  1  0  0  0  0  0999 V2000
   -1.0717   -0.8250    0.0000 O   0  0  0  0  0  0  0  0  0  0  0  0
   -0.3572   -0.4125    0.0000 C   0  0  0  0  0  0  0  0  0  0  0  0
    0.3572   -0.8250    0.0000 C   0  0  0  0  0  0  0  0  0  0  0  0
    0.3572   -1.6500    0.0000 O   0  0  0  0  0  0  0  0  0  0  0  0
    1.0717   -0.4125    0.0000 C   0  0  0  0  0  0  0  0  0  0  0  0
    1.0717    0.4125    0.0000 O   0  0  0  0  0  0  0  0  0  0  0  0
    0.3572    0.8250    0.0000 C   0  0  0  0  0  0  0  0  0  0  0  0
    0.3572    1.6500    0.0000 O   0  0  0  0  0  0  0  0  0  0  0  0
   -0.3572    0.4125    0.0000 C   0  0  0  0  0  0  0  0  0  0  0  0
   -1.0717    0.8250    0.0000 O   0  0  0  0  0  0  0  0  0  0  0  0
  2  1  1  6
  2  3  1  0
  2  9  1  0
  3  4  1  6
  3  5  1  0
  5  6  1  0
  7  6  1  0
  7  8  1  1
  9  7  1  0
  9 10  1  1
M  END
>  <DRUGBANK_ID>  (1) 
DB03246

>  <SECONDARY_ACCESSION_NUMBERS>  (1) 
EXPT00555

>  <COMMON_NAME>  (1) 
Beta-L-Arabinose

>  <CAS_NUMBER>  (1) 
7296-56-2

>  <UNII>  (1) 
194RG7YBRS

$$$$
