PB3
     RDKit          2D

 28 30  0  0  0  0  0  0  0  0999 V2000
    0.0312    0.6561    0.0000 C   0  0  0  0  0  0  0  0  0  0  0  0
    0.7457    0.2436    0.0000 C   0  0  0  0  0  0  0  0  0  0  0  0
    0.7457   -0.5814    0.0000 C   0  0  0  0  0  0  0  0  0  0  0  0
   -0.6833    0.2436    0.0000 N   0  0  0  0  0  0  0  0  0  0  0  0
    0.7457   -4.7064    0.0000 C   0  0  0  0  0  0  0  0  0  0  0  0
   -2.1122    5.1936    0.0000 C   0  0  0  0  0  0  0  0  0  0  0  0
    1.4602   -0.9939    0.0000 C   0  0  0  0  0  0  0  0  0  0  0  0
    2.1746   -2.2314    0.0000 C   0  0  0  0  0  0  0  0  0  0  0  0
    2.1746   -3.0564    0.0000 C   0  0  0  0  0  0  0  0  0  0  0  0
    0.0312    1.4811    0.0000 C   0  0  0  0  0  0  0  0  0  0  0  0
   -1.3977    3.9561    0.0000 C   0  0  0  0  0  0  0  0  0  0  0  0
   -2.8267    3.1311    0.0000 C   0  0  0  0  0  0  0  0  0  0  0  0
    2.8891   -3.4689    0.0000 C   0  0  0  0  0  0  0  0  0  0  0  0
    2.8891   -4.2939    0.0000 C   0  0  0  0  0  0  0  0  0  0  0  0
    2.1746   -4.7064    0.0000 C   0  0  0  0  0  0  0  0  0  0  0  0
    1.4602   -3.4689    0.0000 C   0  0  0  0  0  0  0  0  0  0  0  0
    0.0312   -0.9939    0.0000 N   0  0  0  0  0  0  0  0  0  0  0  0
   -0.6833   -0.5814    0.0000 C   0  0  0  0  0  0  0  0  0  0  0  0
    1.4602   -1.8189    0.0000 N   0  0  0  0  0  0  0  0  0  0  0  0
   -0.6833    1.8936    0.0000 N   0  0  0  0  0  0  0  0  0  0  0  0
   -0.6833    2.7186    0.0000 C   0  0  0  0  0  0  0  0  0  0  0  0
   -1.3977    3.1311    0.0000 C   0  0  0  0  0  0  0  0  0  0  0  0
   -2.1122    4.3686    0.0000 C   0  0  0  0  0  0  0  0  0  0  0  0
   -2.8267    3.9561    0.0000 C   0  0  0  0  0  0  0  0  0  0  0  0
   -2.1122    2.7186    0.0000 C   0  0  0  0  0  0  0  0  0  0  0  0
    1.4602   -4.2939    0.0000 C   0  0  0  0  0  0  0  0  0  0  0  0
    0.7457    1.8936    0.0000 O   0  0  0  0  0  0  0  0  0  0  0  0
    2.1746   -0.5814    0.0000 O   0  0  0  0  0  0  0  0  0  0  0  0
  1  2  2  0
  1  4  1  0
  1 10  1  0
  2  3  1  0
  3  7  1  0
  3 17  2  0
  4 18  2  0
  5 26  1  0
  6 23  1  0
  7 19  1  0
  7 28  2  0
  8  9  1  0
  8 19  1  0
  9 13  2  0
  9 16  1  0
 10 20  1  0
 10 27  2  0
 11 22  2  0
 11 23  1  0
 12 24  1  0
 12 25  2  0
 13 14  1  0
 14 15  2  0
 15 26  1  0
 16 26  2  0
 17 18  1  0
 20 21  1  0
 21 22  1  0
 22 25  1  0
 23 24  2  0
M  END
>  <DRUGBANK_ID>  (1) 
DB04759

>  <COMMON_NAME>  (1) 
PYRIMIDINE-4,6-DICARBOXYLIC ACID BIS-(3-METHYL-BENZYLAMIDE)

>  <UNII>  (1) 
X969YB2837

$$$$
