
     RDKit          2D

 31 37  0  0  0  0  0  0  0  0999 V2000
    2.7717   -1.3258    0.0000 C   0  0  0  0  0  0  0  0  0  0  0  0
    1.7359   -1.7951    0.0000 C   0  0  0  0  0  0  0  0  0  0  0  0
    1.2488   -2.5495    0.0000 C   0  0  0  0  0  0  0  0  0  0  0  0
   -2.7041    2.5495    0.0000 C   0  0  0  0  0  0  0  0  0  0  0  0
   -2.5110    1.7690    0.0000 C   0  0  0  0  0  0  0  0  0  0  0  0
   -2.5834    0.2074    0.0000 C   0  0  0  0  0  0  0  0  0  0  0  0
   -2.7717   -0.5958    0.0000 C   0  0  0  0  0  0  0  0  0  0  0  0
    0.3694   -0.0639    0.0000 C   0  0  0  0  0  0  0  0  0  0  0  0
    0.7053   -0.6813    0.0000 C   0  0  0  0  0  0  0  0  0  0  0  0
    0.0111    1.0183    0.0000 C   0  0  0  0  0  0  0  0  0  0  0  0
    0.2059    1.8316    0.0000 C   0  0  0  0  0  0  0  0  0  0  0  0
   -1.3482    1.1444    0.0000 C   0  0  0  0  0  0  0  0  0  0  0  0
    1.1176    0.1300    0.0000 C   0  0  0  0  0  0  0  0  0  0  0  0
   -1.1510    2.5195    0.0000 C   0  0  0  0  0  0  0  0  0  0  0  0
   -1.9316    2.3264    0.0000 C   0  0  0  0  0  0  0  0  0  0  0  0
   -1.7799    0.4367    0.0000 C   0  0  0  0  0  0  0  0  0  0  0  0
   -2.1810   -1.1654    0.0000 C   0  0  0  0  0  0  0  0  0  0  0  0
    1.2666   -0.7594    0.0000 C   0  0  0  0  0  0  0  0  0  0  0  0
   -0.5128    1.1029    0.0000 C   0  0  0  0  0  0  0  0  0  0  0  0
   -1.1250   -0.0813    0.0000 C   0  0  0  0  0  0  0  0  0  0  0  0
   -1.4098   -0.8763    0.0000 C   0  0  0  0  0  0  0  0  0  0  0  0
   -0.1515   -0.7810    0.0000 C   0  0  0  0  0  0  0  0  0  0  0  0
    2.0191   -1.0426    0.0000 C   0  0  0  0  0  0  0  0  0  0  0  0
    0.3666    0.6455    0.0000 C   0  0  0  0  0  0  0  0  0  0  0  0
   -0.2948    0.1382    0.0000 C   0  0  0  0  0  0  0  0  0  0  0  0
    0.5487   -1.3456    0.0000 C   0  0  0  0  0  0  0  0  0  0  0  0
   -0.5935    1.9401    0.0000 N   0  0  0  0  0  0  0  0  0  0  0  0
   -2.3442   -1.9527    0.0000 O   0  0  0  0  0  0  0  0  0  0  0  0
    2.3025   -0.2901    0.0000 O   0  0  0  0  0  0  0  0  0  0  0  0
    0.5513   -2.1497    0.0000 O   0  0  0  0  0  0  0  0  0  0  0  0
   -0.7419   -1.3508    0.0000 O   0  0  0  0  0  0  0  0  0  0  0  0
  5  4  1  0
  7  6  2  0
  9  8  2  0
 11 10  1  0
 15  4  1  0
 15  5  1  0
 15 14  1  0
 16  6  1  0
 16 12  1  0
 17  7  1  0
 18 13  1  0
 18 23  1  6
 19 12  1  1
 20 16  2  0
 21 17  2  0
 21 20  1  0
 23  1  1  0
 23  2  1  0
 24  8  1  6
 24 13  1  0
 24 19  1  0
 25 10  1  1
 25 20  1  0
 25 22  1  0
 25 24  1  0
 26  9  1  0
 26 18  1  0
 26 22  1  0
 26 30  1  6
 27 11  1  0
 27 14  1  0
 27 19  1  0
 28 17  1  0
 29 23  1  0
 30  3  1  0
 31 21  1  0
 22 31  1  6
M  END
>  <DRUGBANK_ID>  (1) 
DB01480

>  <COMMON_NAME>  (1) 
Cyprenorphine

>  <CAS_NUMBER>  (1) 
4406-22-8

>  <UNII>  (1) 
1P6HEG5ZHS

>  <SYNONYMS>  (1) 
Cyprenorphine

$$$$
