
     RDKit          2D

 35 38  0  0  1  0  0  0  0  0999 V2000
   -1.3738   -2.2495    0.0000 C   0  0  0  0  0  0  0  0  0  0  0  0
   -1.3738   -3.0745    0.0000 C   0  0  0  0  0  0  0  0  0  0  0  0
   -2.0883   -3.4870    0.0000 C   0  0  0  0  0  0  0  0  0  0  0  0
   -2.0883   -4.3120    0.0000 O   0  0  0  0  0  0  0  0  0  0  0  0
   -2.8027   -3.0745    0.0000 N   0  0  0  0  0  0  0  0  0  0  0  0
   -3.5172   -3.4870    0.0000 C   0  0  0  0  0  0  0  0  0  0  0  0
   -3.5172   -4.3120    0.0000 C   0  0  0  0  0  0  0  0  0  0  0  0
   -2.8027   -4.7245    0.0000 C   0  0  0  0  0  0  0  0  0  0  0  0
   -2.8027   -5.5495    0.0000 C   0  0  0  0  0  0  0  0  0  0  0  0
   -3.5172   -5.9620    0.0000 C   0  0  0  0  0  0  0  0  0  0  0  0
   -4.2317   -5.5495    0.0000 C   0  0  0  0  0  0  0  0  0  0  0  0
   -4.2317   -4.7245    0.0000 C   0  0  0  0  0  0  0  0  0  0  0  0
   -4.2317   -3.0745    0.0000 C   0  0  0  0  0  0  0  0  0  0  0  0
   -4.2317   -2.2495    0.0000 O   0  0  0  0  0  0  0  0  0  0  0  0
   -4.9462   -3.4870    0.0000 N   0  0  0  0  0  0  0  0  0  0  0  0
   -5.0324   -4.3075    0.0000 C   0  0  0  0  0  0  0  0  0  0  0  0
   -5.8394   -4.4790    0.0000 C   0  0  0  0  0  0  0  0  0  0  0  0
   -6.2519   -3.7645    0.0000 C   0  0  0  0  0  0  0  0  0  0  0  0
   -5.6998   -3.1514    0.0000 C   0  0  0  0  0  0  0  0  0  0  0  0
   -5.8714   -2.3445    0.0000 C   0  0  0  0  0  0  0  0  0  0  0  0
   -5.2583   -1.7924    0.0000 O   0  0  0  0  0  0  0  0  0  0  0  0
   -6.6560   -2.0895    0.0000 N   0  0  0  0  0  0  0  0  0  0  0  0
   -6.8275   -1.2826    0.0000 C   0  0  0  0  0  0  0  0  0  0  0  0
   -7.5812   -0.9470    0.0000 C   0  0  0  0  0  0  0  0  0  0  0  0
   -7.4949   -0.1265    0.0000 N   0  0  0  0  0  0  0  0  0  0  0  0
   -6.6880    0.0450    0.0000 N   0  0  0  0  0  0  0  0  0  0  0  0
   -6.2755   -0.6695    0.0000 S   0  0  0  0  0  0  0  0  0  0  0  0
   -8.2957   -1.3595    0.0000 C   0  0  0  0  0  0  0  0  0  0  0  0
   -8.2957   -2.1845    0.0000 C   0  0  0  0  0  0  0  0  0  0  0  0
   -9.0101   -2.5970    0.0000 C   0  0  0  0  0  0  0  0  0  0  0  0
   -9.7246   -2.1845    0.0000 C   0  0  0  0  0  0  0  0  0  0  0  0
   -9.7246   -1.3595    0.0000 C   0  0  0  0  0  0  0  0  0  0  0  0
   -9.0101   -0.9470    0.0000 C   0  0  0  0  0  0  0  0  0  0  0  0
   -0.6593   -3.4870    0.0000 N   0  0  0  0  0  0  0  0  0  0  0  0
    0.0551   -3.0745    0.0000 C   0  0  0  0  0  0  0  0  0  0  0  0
  2  1  1  6
  2  3  1  0
  2 34  1  0
  3  4  2  0
  3  5  1  0
  6  5  1  1
  6  7  1  0
  6 13  1  0
  7  8  1  0
  7 12  1  0
  8  9  1  0
  9 10  1  0
 10 11  1  0
 11 12  1  0
 13 14  2  0
 13 15  1  0
 15 16  1  0
 15 19  1  0
 16 17  1  0
 17 18  1  0
 18 19  1  0
 19 20  1  1
 20 21  2  0
 20 22  1  0
 22 23  1  0
 23 24  2  0
 23 27  1  0
 24 25  1  0
 24 28  1  0
 25 26  2  0
 26 27  1  0
 28 29  2  0
 28 33  1  0
 29 30  1  0
 30 31  2  0
 31 32  1  0
 32 33  2  0
 34 35  1  0
M  END
>  <DRUGBANK_ID>  (1) 
DB12380

>  <COMMON_NAME>  (1) 
GDC-0152

>  <CAS_NUMBER>  (1) 
873652-48-3

>  <UNII>  (1) 
4KW1M48SHS

$$$$
