417
     RDKit          2D

 24 26  0  0  1  0  0  0  0  0999 V2000
    7.9871    0.3798    0.0000 S   0  0  0  0  0  0  0  0  0  0  0  0
    5.7885   -1.2881    0.0000 O   0  0  0  0  0  0  0  0  0  0  0  0
    7.6900   -2.3527    0.0000 O   0  0  0  0  0  0  0  0  0  0  0  0
    9.0491   -1.9112    0.0000 O   0  0  0  0  0  0  0  0  0  0  0  0
    4.7760   -0.2954    0.0000 O   0  0  0  0  0  0  0  0  0  0  0  0
    3.6117    0.8737    0.0000 O   0  0  0  0  0  0  0  0  0  0  0  0
    7.2025   -0.7001    0.0000 N   0  0  0  0  0  0  0  0  0  0  0  0
    5.7885    0.7129    0.0000 N   0  0  0  0  0  0  0  0  0  0  0  0
    7.2025    0.1249    0.0000 C   0  0  0  0  0  0  0  0  0  0  0  0
    8.4721   -0.2876    0.0000 C   0  0  0  0  0  0  0  0  0  0  0  0
    7.9871   -0.9550    0.0000 C   0  0  0  0  0  0  0  0  0  0  0  0
    6.3707    0.1283    0.0000 C   0  0  0  0  0  0  0  0  0  0  0  0
    6.3707   -0.7036    0.0000 C   0  0  0  0  0  0  0  0  0  0  0  0
    9.1395   -0.7725    0.0000 C   0  0  0  0  0  0  0  0  0  0  0  0
    9.1395    0.1973    0.0000 C   0  0  0  0  0  0  0  0  0  0  0  0
    8.2420   -1.7397    0.0000 C   0  0  0  0  0  0  0  0  0  0  0  0
    4.9912    0.5010    0.0000 C   0  0  0  0  0  0  0  0  0  0  0  0
    4.4090    1.0855    0.0000 C   0  0  0  0  0  0  0  0  0  0  0  0
    3.0295    1.4582    0.0000 C   0  0  0  0  0  0  0  0  0  0  0  0
    2.2322    1.2463    0.0000 C   0  0  0  0  0  0  0  0  0  0  0  0
    3.2447    2.2547    0.0000 C   0  0  0  0  0  0  0  0  0  0  0  0
    1.6500    1.8309    0.0000 C   0  0  0  0  0  0  0  0  0  0  0  0
    2.6625    2.8393    0.0000 C   0  0  0  0  0  0  0  0  0  0  0  0
    1.8652    2.6274    0.0000 C   0  0  0  0  0  0  0  0  0  0  0  0
  9  1  1  1
  1 10  1  0
  2 13  2  0
  3 16  1  0
  4 16  2  0
  5 17  2  0
  6 18  1  0
  6 19  1  0
  7  9  1  0
  7 11  1  0
  7 13  1  0
  8 17  1  0
  9 12  1  0
 10 11  1  0
 10 14  1  0
 10 15  1  0
 11 16  1  6
 12  8  1  1
 12 13  1  0
 17 18  1  0
 19 20  2  0
 19 21  1  0
 20 22  1  0
 21 23  2  0
 22 24  2  0
 23 24  1  0
M  END
>  <DRUGBANK_ID>  (1) 
DB00417

>  <SECONDARY_ACCESSION_NUMBERS>  (1) 
APRD00423; DB08415

>  <COMMON_NAME>  (1) 
Phenoxymethylpenicillin

>  <CAS_NUMBER>  (1) 
87-08-1

>  <UNII>  (1) 
Z61I075U2W

>  <SYNONYMS>  (1) 
(2S,5R,6R)-3,3-DIMETHYL-7-OXO-6-(2-PHENOXYACETAMIDO)-4-THIA-1- AZABICYCLO(3.2.0)HEPTANE-2-CARBOXYLIC ACID; (2S,5R,6R)-3,3-dimethyl-7-oxo-6-[(phenoxyacetyl)amino]-4-thia-1-azabicyclo[3.2.0]heptane-2-carboxylic acid; 6-phenoxyacetamidopenicillanic acid; Fenoximetilpenicilina; Oracillin; Penicillin Phenoxymethyl; Penicillin V; Phenoxomethylpenicillin; Phenoxymethyl Penicillin; Phenoxymethylenepenicillinic acid; Phenoxymethylpenicillin; Phénoxyméthylpénicilline; Phenoxymethylpenicillinum; PV

$$$$
