
     RDKit          2D

 15 16  0  0  0  0  0  0  0  0999 V2000
   -0.3375    0.8240    0.0000 O   0  0  0  0  0  0  0  0  0  0  0  0
    1.0821    0.8191    0.0000 O   0  0  0  0  0  0  0  0  0  0  0  0
    1.7821    0.4120    0.0000 O   0  0  0  0  0  0  0  0  0  0  0  0
    0.3772   -0.4121    0.0000 N   0  0  0  0  0  0  0  0  0  0  0  0
    2.4820   -0.8191    0.0000 N   0  0  0  0  0  0  0  0  0  0  0  0
   -1.0523   -0.4121    0.0000 C   0  0  0  0  0  0  0  0  0  0  0  0
   -1.0523    0.4120    0.0000 C   0  0  0  0  0  0  0  0  0  0  0  0
    0.3772    0.4120    0.0000 C   0  0  0  0  0  0  0  0  0  0  0  0
   -0.3375   -0.8240    0.0000 C   0  0  0  0  0  0  0  0  0  0  0  0
    1.0821   -0.8191    0.0000 C   0  0  0  0  0  0  0  0  0  0  0  0
   -1.7672   -0.8240    0.0000 C   0  0  0  0  0  0  0  0  0  0  0  0
   -1.7672    0.8240    0.0000 C   0  0  0  0  0  0  0  0  0  0  0  0
    1.7821   -0.4170    0.0000 C   0  0  0  0  0  0  0  0  0  0  0  0
   -2.4820   -0.4121    0.0000 C   0  0  0  0  0  0  0  0  0  0  0  0
   -2.4820    0.4120    0.0000 C   0  0  0  0  0  0  0  0  0  0  0  0
  1  7  1  0
  1  8  1  0
  2  8  2  0
  3 13  2  0
  4  8  1  0
  4  9  1  0
  4 10  1  0
  5 13  1  0
  6  7  2  0
  6  9  1  0
  6 11  1  0
  7 12  1  0
 10 13  1  0
 11 14  2  0
 12 15  2  0
 14 15  1  0
M  END
>  <DRUGBANK_ID>  (1) 
DB09254

>  <COMMON_NAME>  (1) 
Caroxazone

>  <CAS_NUMBER>  (1) 
18464-39-6

>  <UNII>  (1) 
807N226MNL

>  <SYNONYMS>  (1) 
Caroxazone

$$$$
