
     RDKit          2D

 16 15  0  0  0  0  0  0  0  0999 V2000
    1.7866   -0.2064    0.0000 C   0  0  0  0  0  0  0  0  0  0  0  0
    1.0670    0.2030    0.0000 C   0  0  0  0  0  0  0  0  0  0  0  0
    2.5026    0.2065    0.0000 C   0  0  0  0  0  0  0  0  0  0  0  0
    1.7900   -1.0326    0.0000 N   0  0  0  0  0  0  0  0  0  0  0  0
    0.3579   -0.2099    0.0000 C   0  0  0  0  0  0  0  0  0  0  0  0
    3.2152   -0.2030    0.0000 O   0  0  0  0  0  0  0  0  0  0  0  0
    2.4992    1.0326    0.0000 O   0  0  0  0  0  0  0  0  0  0  0  0
   -0.3580    0.1962    0.0000 C   0  0  0  0  0  0  0  0  0  0  0  0
    3.9312    0.2134    0.0000 C   0  0  0  0  0  0  0  0  0  0  0  0
   -1.0706   -0.2133    0.0000 N   0  0  0  0  0  0  0  0  0  0  0  0
   -1.7866    0.1928    0.0000 C   0  0  0  0  0  0  0  0  0  0  0  0
   -2.5027   -0.2169    0.0000 N   0  0  0  0  0  0  0  0  0  0  0  0
   -1.7901    1.0224    0.0000 N   0  0  0  0  0  0  0  0  0  0  0  0
   -3.2153    0.1962    0.0000 N   0  0  0  0  0  0  0  0  0  0  0  0
   -3.9312   -0.2099    0.0000 O   0  0  0  0  0  0  0  0  0  0  0  0
   -3.2118    1.0224    0.0000 O   0  0  0  0  0  0  0  0  0  0  0  0
  1  2  1  0
  1  3  1  0
  1  4  1  1
  2  5  1  0
  3  6  1  0
  3  7  2  0
  5  8  1  0
  6  9  1  0
  8 10  1  0
 10 11  1  0
 11 12  1  0
 11 13  2  0
 12 14  1  0
 14 15  2  0
 14 16  1  0
M  CHG  2  14   1  16  -1
M  END
>  <DRUGBANK_ID>  (1) 
DB12750

>  <COMMON_NAME>  (1) 
N-omega-nitro-L-arginine methyl ester

>  <CAS_NUMBER>  (1) 
50903-99-6

>  <UNII>  (1) 
V55S2QJN2X

>  <SYNONYMS>  (1) 
L-NAME; N-nitro-arginine methyl ester; NG-nitro-L-arginine methyl ester; NG-Nitroarginine methyl ester

$$$$
