NU1
     RDKit          2D

 13 14  0  0  0  0  0  0  0  0999 V2000
   -0.9166    0.6423    0.0000 C   0  0  0  0  0  0  0  0  0  0  0  0
   -0.9166    1.4673    0.0000 O   0  0  0  0  0  0  0  0  0  0  0  0
   -0.2021    0.2298    0.0000 C   0  0  0  0  0  0  0  0  0  0  0  0
    0.5124    0.6423    0.0000 N   0  0  0  0  0  0  0  0  0  0  0  0
    1.2269    0.2298    0.0000 C   0  0  0  0  0  0  0  0  0  0  0  0
    1.9413    0.6423    0.0000 C   0  0  0  0  0  0  0  0  0  0  0  0
    1.2269   -0.5952    0.0000 N   0  0  0  0  0  0  0  0  0  0  0  0
    0.5124   -1.0077    0.0000 C   0  0  0  0  0  0  0  0  0  0  0  0
    0.5124   -1.8327    0.0000 O   0  0  0  0  0  0  0  0  0  0  0  0
   -0.2021   -0.5952    0.0000 C   0  0  0  0  0  0  0  0  0  0  0  0
   -0.9166   -1.0077    0.0000 C   0  0  0  0  0  0  0  0  0  0  0  0
   -1.6310   -0.5952    0.0000 C   0  0  0  0  0  0  0  0  0  0  0  0
   -1.6310    0.2298    0.0000 C   0  0  0  0  0  0  0  0  0  0  0  0
  1  2  1  0
  1  3  2  0
  1 13  1  0
  3  4  1  0
  3 10  1  0
  4  5  2  0
  5  6  1  0
  5  7  1  0
  7  8  1  0
  8  9  2  0
  8 10  1  0
 10 11  2  0
 11 12  1  0
 12 13  2  0
M  END
>  <DRUGBANK_ID>  (1) 
DB02690

>  <SECONDARY_ACCESSION_NUMBERS>  (1) 
EXPT02396

>  <COMMON_NAME>  (1) 
NU1025

>  <CAS_NUMBER>  (1) 
90417-38-2

>  <UNII>  (1) 
X5ZL2C7V9B

$$$$
