
     RDKit          2D

 21 24  0  0  0  0  0  0  0  0999 V2000
   -1.3390   -0.0234    0.0000 C   0  0  0  0  0  0  0  0  0  0  0  0
   -2.0620   -0.4200    0.0000 C   0  0  0  0  0  0  0  0  0  0  0  0
   -2.0620   -1.2519    0.0000 C   0  0  0  0  0  0  0  0  0  0  0  0
   -1.3390   -1.6639    0.0000 C   0  0  0  0  0  0  0  0  0  0  0  0
   -0.6315   -1.2519    0.0000 C   0  0  0  0  0  0  0  0  0  0  0  0
    0.0837   -1.6639    0.0000 C   0  0  0  0  0  0  0  0  0  0  0  0
    0.8146   -1.2519    0.0000 C   0  0  0  0  0  0  0  0  0  0  0  0
    0.8146   -0.4200    0.0000 C   0  0  0  0  0  0  0  0  0  0  0  0
    0.0837   -0.0234    0.0000 C   0  0  0  0  0  0  0  0  0  0  0  0
   -0.6315   -0.4200    0.0000 C   0  0  0  0  0  0  0  0  0  0  0  0
    0.0837    0.7851    0.0000 C   0  0  0  0  0  0  0  0  0  0  0  0
    0.8146    1.2048    0.0000 C   0  0  0  0  0  0  0  0  0  0  0  0
    1.5142    0.7851    0.0000 C   0  0  0  0  0  0  0  0  0  0  0  0
    1.5142   -0.0234    0.0000 C   0  0  0  0  0  0  0  0  0  0  0  0
    2.2995   -0.2800    0.0000 C   0  0  0  0  0  0  0  0  0  0  0  0
    2.7659    0.3729    0.0000 C   0  0  0  0  0  0  0  0  0  0  0  0
    2.2995    1.0416    0.0000 C   0  0  0  0  0  0  0  0  0  0  0  0
    1.5142    1.6324    0.0000 C   0  0  0  0  0  0  0  0  0  0  0  0
   -0.6315    0.3885    0.0000 C   0  0  0  0  0  0  0  0  0  0  0  0
   -2.7659   -1.6571    0.0000 O   0  0  0  0  0  0  0  0  0  0  0  0
    2.5352    1.9005    0.0000 O   0  0  0  0  0  0  0  0  0  0  0  0
  1 10  1  0
  2  1  1  0
  3  4  1  0
  3  2  1  0
  5  4  1  6
  5 10  1  0
  6  7  1  0
  6  5  1  0
  8  7  1  6
  8 14  1  0
  8  9  1  0
 10  9  1  0
 10 19  1  1
  9 11  1  1
 11 12  1  0
 12 13  1  0
 13 18  1  1
 14 13  1  0
 14 15  1  1
 16 17  1  0
 16 15  1  0
 17 13  1  0
 20  3  2  0
 21 17  2  0
M  END
>  <DRUGBANK_ID>  (1) 
DB07375

>  <COMMON_NAME>  (1) 
Etiocholanedione

>  <CAS_NUMBER>  (1) 
1229-12-5

>  <UNII>  (1) 
213MVW2TZD

>  <SYNONYMS>  (1) 
5beta-androstane-3,17-dione; 5Î²-androstane-3,17-dione; Etiocholane-3,17-dione

$$$$
