
     RDKit          2D

 14 14  0  0  0  0  0  0  0  0999 V2000
    2.3825    1.1136    0.0000 O   0  0  0  0  0  0  0  0  0  0  0  0
    1.5675    0.9684    0.0000 C   0  0  0  0  0  0  0  0  0  0  0  0
    1.2888    0.1965    0.0000 O   0  0  0  0  0  0  0  0  0  0  0  0
    0.4738    0.0514    0.0000 C   0  0  0  0  0  0  0  0  0  0  0  0
   -0.2401   -0.3617    0.0000 C   0  0  0  0  0  0  0  0  0  0  0  0
   -0.9579    0.0506    0.0000 C   0  0  0  0  0  0  0  0  0  0  0  0
   -1.6673   -0.3617    0.0000 C   0  0  0  0  0  0  0  0  0  0  0  0
   -1.6673   -1.1868    0.0000 C   0  0  0  0  0  0  0  0  0  0  0  0
   -0.9579   -1.5993    0.0000 C   0  0  0  0  0  0  0  0  0  0  0  0
   -0.2401   -1.1868    0.0000 C   0  0  0  0  0  0  0  0  0  0  0  0
   -2.3825   -1.5981    0.0000 C   0  0  0  0  0  0  0  0  0  0  0  0
   -0.0540    0.6796    0.0000 C   0  0  0  0  0  0  0  0  0  0  0  0
    0.7570   -0.7234    0.0000 C   0  0  0  0  0  0  0  0  0  0  0  0
    1.0358    1.5993    0.0000 C   0  0  0  0  0  0  0  0  0  0  0  0
  1  2  2  0
  2  3  1  0
  2 14  1  0
  3  4  1  0
  4  5  1  0
  4 12  1  0
  4 13  1  0
  5  6  1  0
  6  7  1  0
  7  8  2  0
  8  9  1  0
  8 11  1  0
  9 10  1  0
 10  5  1  0
M  END
>  <DRUGBANK_ID>  (1) 
DB15957

>  <COMMON_NAME>  (1) 
Terpinyl acetate

>  <CAS_NUMBER>  (1) 
8007-35-0

>  <UNII>  (1) 
9RXE0I9F2J

>  <SYNONYMS>  (1) 
Terpineol acetate

$$$$
