815
     RDKit          2D

 31 35  0  0  0  0  0  0  0  0999 V2000
   -3.0543   -1.2850    0.0000 C   0  0  0  0  0  0  0  0  0  0  0  0
   -3.1406   -2.1055    0.0000 C   0  0  0  0  0  0  0  0  0  0  0  0
   -2.4731   -2.5904    0.0000 C   0  0  0  0  0  0  0  0  0  0  0  0
   -1.7194   -2.2549    0.0000 C   0  0  0  0  0  0  0  0  0  0  0  0
   -1.6332   -1.4344    0.0000 C   0  0  0  0  0  0  0  0  0  0  0  0
   -2.3007   -0.9495    0.0000 C   0  0  0  0  0  0  0  0  0  0  0  0
   -2.5594   -3.4109    0.0000 C   0  0  0  0  0  0  0  0  0  0  0  0
   -1.8919   -3.8958    0.0000 C   0  0  0  0  0  0  0  0  0  0  0  0
   -1.1382   -3.5603    0.0000 N   0  0  0  0  0  0  0  0  0  0  0  0
   -1.0520   -2.7398    0.0000 C   0  0  0  0  0  0  0  0  0  0  0  0
    2.8633    2.2268    0.0000 C   0  0  0  0  0  0  0  0  0  0  0  0
    3.5778    2.6393    0.0000 C   0  0  0  0  0  0  0  0  0  0  0  0
    4.2923    2.2268    0.0000 C   0  0  0  0  0  0  0  0  0  0  0  0
    4.2923    1.4018    0.0000 C   0  0  0  0  0  0  0  0  0  0  0  0
    3.5778    0.9893    0.0000 N   0  0  0  0  0  0  0  0  0  0  0  0
    2.8633    1.4018    0.0000 C   0  0  0  0  0  0  0  0  0  0  0  0
    2.0787    1.1468    0.0000 C   0  0  0  0  0  0  0  0  0  0  0  0
    1.5938    1.8143    0.0000 C   0  0  0  0  0  0  0  0  0  0  0  0
    2.0787    2.4817    0.0000 S   0  0  0  0  0  0  0  0  0  0  0  0
   -1.4607    0.2066    0.0000 N   0  0  0  0  0  0  0  0  0  0  0  0
   -1.2892    1.0136    0.0000 C   0  0  0  0  0  0  0  0  0  0  0  0
   -0.4687    1.0998    0.0000 C   0  0  0  0  0  0  0  0  0  0  0  0
   -0.1332    0.3461    0.0000 C   0  0  0  0  0  0  0  0  0  0  0  0
   -0.7463   -0.2059    0.0000 C   0  0  0  0  0  0  0  0  0  0  0  0
   -0.0562    1.8143    0.0000 N   0  0  0  0  0  0  0  0  0  0  0  0
    0.7688    1.8143    0.0000 S   0  0  0  0  0  0  0  0  0  0  0  0
    0.7688    0.9893    0.0000 O   0  0  0  0  0  0  0  0  0  0  0  0
    0.7688    2.6393    0.0000 O   0  0  0  0  0  0  0  0  0  0  0  0
   -1.8412    1.6266    0.0000 O   0  0  0  0  0  0  0  0  0  0  0  0
   -0.2983   -2.4042    0.0000 N   0  0  0  0  0  0  0  0  0  0  0  0
   -2.2144   -0.1290    0.0000 C   0  0  0  0  0  0  0  0  0  0  0  0
  1  2  2  0
  1  6  1  0
  2  3  1  0
  3  4  2  0
  3  7  1  0
  4  5  1  0
  4 10  1  0
  5  6  2  0
  6 31  1  0
  7  8  2  0
  8  9  1  0
  9 10  2  0
 10 30  1  0
 11 12  2  0
 11 16  1  0
 11 19  1  0
 12 13  1  0
 13 14  2  0
 14 15  1  0
 15 16  2  0
 16 17  1  0
 17 18  2  0
 18 19  1  0
 18 26  1  0
 20 21  1  0
 20 24  1  0
 20 31  1  0
 21 22  1  0
 21 29  2  0
 22 23  1  0
 22 25  1  1
 23 24  1  0
 25 26  1  0
 26 27  2  0
 26 28  2  0
M  END
>  <DRUGBANK_ID>  (1) 
DB07261

>  <COMMON_NAME>  (1) 
THIENO[3,2-B]PYRIDINE-2-SULFONIC ACID [1-(1-AMINO-ISOQUINOLIN-7-YLMETHYL)-2-OXO-PYRROLDIN-3-YL]-AMIDE

$$$$
