
     RDKit          2D

 19 20  0  0  0  0  0  0  0  0999 V2000
   -0.3511    0.8263    0.0000 C   0  0  0  0  0  0  0  0  0  0  0  0
   -1.0639    1.2429    0.0000 O   0  0  0  0  0  0  0  0  0  0  0  0
   -0.3511   -0.0033    0.0000 C   0  0  0  0  0  0  0  0  0  0  0  0
    0.3648    1.2395    0.0000 O   0  0  0  0  0  0  0  0  0  0  0  0
   -1.7835    0.8263    0.0000 C   0  0  0  0  0  0  0  0  0  0  0  0
   -1.0639   -0.4132    0.0000 C   0  0  0  0  0  0  0  0  0  0  0  0
    0.3648   -0.4132    0.0000 O   0  0  0  0  0  0  0  0  0  0  0  0
    1.0776    0.8297    0.0000 C   0  0  0  0  0  0  0  0  0  0  0  0
   -1.7835   -0.0033    0.0000 C   0  0  0  0  0  0  0  0  0  0  0  0
   -2.5031    1.2429    0.0000 C   0  0  0  0  0  0  0  0  0  0  0  0
   -1.0639   -1.2429    0.0000 O   0  0  0  0  0  0  0  0  0  0  0  0
    1.0776    0.0068    0.0000 C   0  0  0  0  0  0  0  0  0  0  0  0
    1.7937    1.2429    0.0000 C   0  0  0  0  0  0  0  0  0  0  0  0
   -2.5031   -0.4166    0.0000 O   0  0  0  0  0  0  0  0  0  0  0  0
   -3.2193    0.8263    0.0000 O   0  0  0  0  0  0  0  0  0  0  0  0
    1.7937   -0.4028    0.0000 C   0  0  0  0  0  0  0  0  0  0  0  0
    2.5065    0.8297    0.0000 C   0  0  0  0  0  0  0  0  0  0  0  0
    2.5065    0.0068    0.0000 C   0  0  0  0  0  0  0  0  0  0  0  0
    3.2193   -0.4028    0.0000 O   0  0  0  0  0  0  0  0  0  0  0  0
  1  2  1  0
  1  3  1  0
  1  4  1  6
  2  5  1  0
  3  6  1  0
  3  7  1  6
  4  8  1  0
  5  9  1  0
  5 10  1  1
  6 11  1  1
  6  9  1  0
  8 12  2  0
  8 13  1  0
  9 14  1  6
 10 15  1  0
 12 16  1  0
 13 17  2  0
 16 18  2  0
 17 18  1  0
 18 19  1  0
M  END
>  <DRUGBANK_ID>  (1) 
DB14109

>  <COMMON_NAME>  (1) 
alpha-Arbutin

>  <CAS_NUMBER>  (1) 
84380-01-8

>  <UNII>  (1) 
72VUP07IT5

>  <SYNONYMS>  (1) 
Alpha Arbutin; alpha-D-Glucopyranoside, 4-hydroxyphenyl; Î±-Arbutin

$$$$
