
     RDKit          2D

 19 22  0  0  0  0  0  0  0  0999 V2000
   -0.0088   -0.6842    0.0000 C   0  0  0  0  0  0  0  0  0  0  0  0
    0.7981   -0.5127    0.0000 N   0  0  0  0  0  0  0  0  0  0  0  0
    1.0531    0.2719    0.0000 C   0  0  0  0  0  0  0  0  0  0  0  0
    1.8600    0.4434    0.0000 C   0  0  0  0  0  0  0  0  0  0  0  0
    2.4121   -0.1696    0.0000 N   0  0  0  0  0  0  0  0  0  0  0  0
    3.2371   -0.1696    0.0000 C   0  0  0  0  0  0  0  0  0  0  0  0
    3.4920   -0.9543    0.0000 C   0  0  0  0  0  0  0  0  0  0  0  0
    4.2990   -1.1258    0.0000 C   0  0  0  0  0  0  0  0  0  0  0  0
    4.8510   -0.5127    0.0000 C   0  0  0  0  0  0  0  0  0  0  0  0
    4.5961    0.2719    0.0000 C   0  0  0  0  0  0  0  0  0  0  0  0
    3.7891    0.4434    0.0000 C   0  0  0  0  0  0  0  0  0  0  0  0
    5.6580   -0.6842    0.0000 O   0  0  0  0  0  0  0  0  0  0  0  0
    6.2100   -0.0711    0.0000 C   0  0  0  0  0  0  0  0  0  0  0  0
    2.8246   -1.4392    0.0000 C   0  0  0  0  0  0  0  0  0  0  0  0
    2.1571   -0.9543    0.0000 C   0  0  0  0  0  0  0  0  0  0  0  0
    1.3502   -1.1258    0.0000 C   0  0  0  0  0  0  0  0  0  0  0  0
    1.3172   -2.1103    0.0000 N   0  0  0  0  0  0  0  0  0  0  0  0
    1.9847   -2.5952    0.0000 C   0  0  0  0  0  0  0  0  0  0  0  0
    2.7383   -2.2597    0.0000 C   0  0  0  0  0  0  0  0  0  0  0  0
  1  2  1  0
  2  3  1  0
  2 16  1  0
  3  4  1  0
  4  5  1  0
  5  6  1  0
  5 15  1  0
  6  7  2  0
  6 11  1  0
  7  8  1  0
  7 14  1  0
  8  9  2  0
  9 10  1  0
  9 12  1  0
 10 11  2  0
 12 13  1  0
 14 15  2  0
 14 19  1  0
 15 16  1  0
 16 17  2  0
 17 18  1  0
 18 19  1  0
M  END
>  <DRUGBANK_ID>  (1) 
DB09306

>  <COMMON_NAME>  (1) 
Metralindole

>  <CAS_NUMBER>  (1) 
54188-38-4

>  <UNII>  (1) 
2QW3FL6OPA

>  <SYNONYMS>  (1) 
Incasan; Inkazan; Metralindole

$$$$
