
     RDKit          2D

 34 37  0  0  0  0  0  0  0  0999 V2000
    1.0669    1.6627    0.0000 C   0  0  0  0  0  0  0  0  0  0  0  0
    1.7814    2.0743    0.0000 C   0  0  0  0  0  0  0  0  0  0  0  0
    0.3502    2.0743    0.0000 O   0  0  0  0  0  0  0  0  0  0  0  0
    1.0669    0.8375    0.0000 C   0  0  0  0  0  0  0  0  0  0  0  0
    2.4961    1.6627    0.0000 O   0  0  0  0  0  0  0  0  0  0  0  0
    1.7814    1.2491    0.0000 O   0  0  0  0  0  0  0  0  0  0  0  0
    0.3522    0.4218    0.0000 C   0  0  0  0  0  0  0  0  0  0  0  0
    1.7794    0.4218    0.0000 C   0  0  0  0  0  0  0  0  0  0  0  0
    3.2107    2.0743    0.0000 C   0  0  0  0  0  0  0  0  0  0  0  0
    2.4961    0.8375    0.0000 C   0  0  0  0  0  0  0  0  0  0  0  0
    0.3522    1.2471    0.0000 C   0  0  0  0  0  0  0  0  0  0  0  0
    0.3522   -0.4115    0.0000 C   0  0  0  0  0  0  0  0  0  0  0  0
   -0.3603    0.8375    0.0000 C   0  0  0  0  0  0  0  0  0  0  0  0
    1.7794   -0.4115    0.0000 C   0  0  0  0  0  0  0  0  0  0  0  0
    3.9254    1.6627    0.0000 C   0  0  0  0  0  0  0  0  0  0  0  0
    3.2107    2.8995    0.0000 O   0  0  0  0  0  0  0  0  0  0  0  0
    3.2107    1.2491    0.0000 C   0  0  0  0  0  0  0  0  0  0  0  0
    2.4961    0.0123    0.0000 O   0  0  0  0  0  0  0  0  0  0  0  0
   -0.3603   -0.8272    0.0000 C   0  0  0  0  0  0  0  0  0  0  0  0
   -1.0729    0.4218    0.0000 C   0  0  0  0  0  0  0  0  0  0  0  0
    3.9254    0.8375    0.0000 C   0  0  0  0  0  0  0  0  0  0  0  0
   -1.0729   -0.4115    0.0000 C   0  0  0  0  0  0  0  0  0  0  0  0
   -0.3603   -1.6585    0.0000 C   0  0  0  0  0  0  0  0  0  0  0  0
   -1.7876    0.8334    0.0000 O   0  0  0  0  0  0  0  0  0  0  0  0
   -1.7855   -0.8272    0.0000 C   0  0  0  0  0  0  0  0  0  0  0  0
   -1.0729   -2.0742    0.0000 C   0  0  0  0  0  0  0  0  0  0  0  0
   -1.7855   -0.0020    0.0000 C   0  0  0  0  0  0  0  0  0  0  0  0
   -1.7855   -1.6585    0.0000 C   0  0  0  0  0  0  0  0  0  0  0  0
   -2.4981   -0.4115    0.0000 C   0  0  0  0  0  0  0  0  0  0  0  0
   -1.0729   -2.8995    0.0000 C   0  0  0  0  0  0  0  0  0  0  0  0
   -2.4981   -2.0742    0.0000 C   0  0  0  0  0  0  0  0  0  0  0  0
   -3.2107   -0.8272    0.0000 C   0  0  0  0  0  0  0  0  0  0  0  0
   -3.2107   -1.6585    0.0000 C   0  0  0  0  0  0  0  0  0  0  0  0
   -3.9254   -2.0701    0.0000 O   0  0  0  0  0  0  0  0  0  0  0  0
  1  2  1  0
  1  3  2  0
  2  5  1  0
  4  1  1  0
  4  6  1  6
  4  8  1  0
  5  9  1  0
  6 10  1  0
  7  4  1  0
  7 11  1  1
  7 13  1  0
  8 14  1  0
  9 15  1  0
  9 16  2  0
 10 17  1  0
 10 18  2  0
 12  7  1  0
 12 14  1  1
 12 19  1  0
 17 21  1  0
 19 22  1  0
 19 23  1  6
 20 13  1  0
 20 24  1  1
 22 20  1  1
 22 25  1  0
 25 27  1  1
 25 28  1  0
 25 29  1  0
 26 23  1  0
 26 28  1  0
 26 30  1  6
 28 31  2  0
 29 32  2  0
 31 33  1  0
 32 33  1  0
 33 34  2  0
M  END
>  <DRUGBANK_ID>  (1) 
DB14643

>  <SECONDARY_ACCESSION_NUMBERS>  (1) 
DBSALT002468

>  <COMMON_NAME>  (1) 
Methylprednisolone aceponate

>  <CAS_NUMBER>  (1) 
86401-95-8

>  <UNII>  (1) 
ET54W9J4U2

>  <SYNONYMS>  (1) 
Aceponato de metilprednisolona; Methylprednisolone aceponate; Methylprednisoloni aceponas

$$$$
