PMD
     RDKit          2D

 28 32  0  0  0  0  0  0  0  0999 V2000
    2.2217    2.5957    0.0000 C   0  0  0  0  0  0  0  0  0  0  0  0
    0.7928    2.5957    0.0000 C   0  0  0  0  0  0  0  0  0  0  0  0
    0.7928    1.7707    0.0000 C   0  0  0  0  0  0  0  0  0  0  0  0
    0.0783    0.5332    0.0000 C   0  0  0  0  0  0  0  0  0  0  0  0
    0.7928    0.1207    0.0000 C   0  0  0  0  0  0  0  0  0  0  0  0
    1.5072    1.3582    0.0000 C   0  0  0  0  0  0  0  0  0  0  0  0
   -0.6362    0.1207    0.0000 C   0  0  0  0  0  0  0  0  0  0  0  0
    0.1071   -1.0623    0.0000 C   0  0  0  0  0  0  0  0  0  0  0  0
    0.7119   -0.5011    0.0000 C   0  0  0  0  0  0  0  0  0  0  0  0
    1.5002   -0.7443    0.0000 C   0  0  0  0  0  0  0  0  0  0  0  0
    1.6838   -1.5486    0.0000 C   0  0  0  0  0  0  0  0  0  0  0  0
    1.0791   -2.1098    0.0000 C   0  0  0  0  0  0  0  0  0  0  0  0
    0.2907   -1.8666    0.0000 C   0  0  0  0  0  0  0  0  0  0  0  0
   -0.2237   -2.5116    0.0000 C   0  0  0  0  0  0  0  0  0  0  0  0
   -1.0487   -2.5116    0.0000 C   0  0  0  0  0  0  0  0  0  0  0  0
   -1.5631   -1.8666    0.0000 C   0  0  0  0  0  0  0  0  0  0  0  0
   -2.3514   -2.1098    0.0000 C   0  0  0  0  0  0  0  0  0  0  0  0
   -2.9562   -1.5486    0.0000 C   0  0  0  0  0  0  0  0  0  0  0  0
   -2.7726   -0.7443    0.0000 C   0  0  0  0  0  0  0  0  0  0  0  0
   -1.9842   -0.5011    0.0000 C   0  0  0  0  0  0  0  0  0  0  0  0
   -1.3795   -1.0623    0.0000 C   0  0  0  0  0  0  0  0  0  0  0  0
    2.2217    1.7707    0.0000 N   0  0  0  0  0  0  0  0  0  0  0  0
    2.9362    3.0082    0.0000 N   0  0  0  0  0  0  0  0  0  0  0  0
    1.5072    3.0082    0.0000 N   0  0  0  0  0  0  0  0  0  0  0  0
    0.0783    3.0082    0.0000 N   0  0  0  0  0  0  0  0  0  0  0  0
    0.0783    1.3582    0.0000 N   0  0  0  0  0  0  0  0  0  0  0  0
    1.5072    0.5332    0.0000 N   0  0  0  0  0  0  0  0  0  0  0  0
   -0.6362   -0.7043    0.0000 N   0  0  0  0  0  0  0  0  0  0  0  0
  1 22  2  0
  1 23  1  0
  1 24  1  0
  2  3  1  0
  2 24  2  0
  2 25  1  0
  3  6  2  0
  3 26  1  0
  4  5  1  0
  4  7  1  0
  4 26  2  0
  5 27  2  0
  6 22  1  0
  6 27  1  0
  7 28  1  0
  8  9  2  0
  8 13  1  0
  8 28  1  0
  9 10  1  0
 10 11  2  0
 11 12  1  0
 12 13  2  0
 13 14  1  0
 14 15  2  0
 15 16  1  0
 16 17  1  0
 16 21  2  0
 17 18  2  0
 18 19  1  0
 19 20  2  0
 20 21  1  0
 21 28  1  0
M  END
>  <DRUGBANK_ID>  (1) 
DB08406

>  <COMMON_NAME>  (1) 
[N-(2,4-DIAMINOPTERIDIN-6-YL)-METHYL]-DIBENZ[B,F]AZEPINE

$$$$
