
     RDKit          2D

 25 26  0  0  0  0  0  0  0  0999 V2000
   -0.4125   -0.3572    0.0000 C   0  0  0  0  0  0  0  0  0  0  0  0
   -1.2375   -0.3572    0.0000 C   0  0  0  0  0  0  0  0  0  0  0  0
   -1.6500    0.3572    0.0000 C   0  0  0  0  0  0  0  0  0  0  0  0
    0.0000   -1.0716    0.0000 O   0  0  0  0  0  0  0  0  0  0  0  0
    0.0000    0.3572    0.0000 N   0  0  0  0  0  0  0  0  0  0  0  0
    0.8250    0.3572    0.0000 C   0  0  0  0  0  0  0  0  0  0  0  0
    1.2375   -0.3572    0.0000 C   0  0  0  0  0  0  0  0  0  0  0  0
    2.0625   -0.3572    0.0000 C   0  0  0  0  0  0  0  0  0  0  0  0
    2.4750   -1.0716    0.0000 C   0  0  0  0  0  0  0  0  0  0  0  0
    3.3000   -1.0716    0.0000 C   0  0  0  0  0  0  0  0  0  0  0  0
    3.7125   -0.3572    0.0000 C   0  0  0  0  0  0  0  0  0  0  0  0
    4.5375   -0.3572    0.0000 C   0  0  0  0  0  0  0  0  0  0  0  0
    4.9500   -1.0716    0.0000 C   0  0  0  0  0  0  0  0  0  0  0  0
    4.5375   -1.7861    0.0000 C   0  0  0  0  0  0  0  0  0  0  0  0
    3.7125   -1.7861    0.0000 C   0  0  0  0  0  0  0  0  0  0  0  0
   -2.4750    0.3572    0.0000 C   0  0  0  0  0  0  0  0  0  0  0  0
   -2.8875    1.0716    0.0000 C   0  0  0  0  0  0  0  0  0  0  0  0
   -3.7125    1.0716    0.0000 C   0  0  0  0  0  0  0  0  0  0  0  0
   -4.1250    0.3572    0.0000 C   0  0  0  0  0  0  0  0  0  0  0  0
   -3.7125   -0.3572    0.0000 C   0  0  0  0  0  0  0  0  0  0  0  0
   -2.8875   -0.3572    0.0000 C   0  0  0  0  0  0  0  0  0  0  0  0
   -4.9500    0.3572    0.0000 O   0  0  0  0  0  0  0  0  0  0  0  0
   -4.1250    1.7861    0.0000 O   0  0  0  0  0  0  0  0  0  0  0  0
   -1.6500   -1.0716    0.0000 C   0  0  0  0  0  0  0  0  0  0  0  0
   -2.0625   -1.7861    0.0000 N   0  0  0  0  0  0  0  0  0  0  0  0
  1  2  1  0
  1  4  2  0
  1  5  1  0
  2  3  2  0
  2 24  1  0
  3 16  1  0
  5  6  1  0
  6  7  1  0
  7  8  1  0
  8  9  1  0
  9 10  1  0
 10 11  2  0
 10 15  1  0
 11 12  1  0
 12 13  2  0
 13 14  1  0
 14 15  2  0
 16 17  2  0
 16 21  1  0
 17 18  1  0
 18 19  2  0
 18 23  1  0
 19 20  1  0
 19 22  1  0
 20 21  2  0
 24 25  3  0
M  END
>  <DRUGBANK_ID>  (1) 
DB16775

>  <COMMON_NAME>  (1) 
Tyrphostin B56

>  <CAS_NUMBER>  (1) 
149092-35-3

>  <SYNONYMS>  (1) 
AG 556; AG-556; AG556; Tyrphostin AG-556; Tyrphostin AG556

$$$$
