
     RDKit          2D

 21 18  0  0  0  0  0  0  0  0999 V2000
    1.4320   -1.2423    0.0000 S   0  0  0  0  0  0  0  0  0  0  0  0
   -2.8641   -1.2423    0.0000 S   0  0  0  0  0  0  0  0  0  0  0  0
    0.0000    0.4078    0.0000 Mg  0  0  0  0  0 15  0  0  0  0  0  0
    0.7207    0.0000    0.0000 O   0  0  0  0  0  0  0  0  0  0  0  0
    1.4320    1.2423    0.0000 O   0  0  0  0  0  0  0  0  0  0  0  0
   -0.7207    0.0000    0.0000 O   0  0  0  0  0  0  0  0  0  0  0  0
   -1.4320    1.2423    0.0000 O   0  0  0  0  0  0  0  0  0  0  0  0
    3.5849   -0.8250    0.0000 O   0  0  0  0  0  0  0  0  0  0  0  0
   -3.5849   -0.8250    0.0000 O   0  0  0  0  0  0  0  0  0  0  0  0
    2.8641    0.4078    0.0000 N   0  0  0  0  0  0  0  0  0  0  0  0
   -2.8641    0.4078    0.0000 N   0  0  0  0  0  0  0  0  0  0  0  0
    2.1529    0.0000    0.0000 C   0  0  0  0  0  0  0  0  0  0  0  0
   -2.1529    0.0000    0.0000 C   0  0  0  0  0  0  0  0  0  0  0  0
    2.1529   -0.8250    0.0000 C   0  0  0  0  0  0  0  0  0  0  0  0
   -2.1529   -0.8250    0.0000 C   0  0  0  0  0  0  0  0  0  0  0  0
    1.4320    0.4078    0.0000 C   0  0  0  0  0  0  0  0  0  0  0  0
   -1.4320    0.4078    0.0000 C   0  0  0  0  0  0  0  0  0  0  0  0
    3.5849    0.0000    0.0000 C   0  0  0  0  0  0  0  0  0  0  0  0
   -3.5849    0.0000    0.0000 C   0  0  0  0  0  0  0  0  0  0  0  0
    4.2962    0.4078    0.0000 C   0  0  0  0  0  0  0  0  0  0  0  0
   -4.2962    0.4078    0.0000 C   0  0  0  0  0  0  0  0  0  0  0  0
  1 14  1  0
  2 15  1  0
  4 16  1  0
  5 16  2  0
  6 17  1  0
  7 17  2  0
  8 18  2  0
  9 19  2  0
 10 18  1  0
 11 19  1  0
 12 10  1  0
 12 14  1  1
 12 16  1  0
 13 11  1  0
 13 15  1  6
 13 17  1  0
 18 20  1  0
 19 21  1  0
M  CHG  3   3   2   4  -1   6  -1
M  END
>  <DRUGBANK_ID>  (1) 
DB14080

>  <COMMON_NAME>  (1) 
Acetylcysteine magnesium

>  <CAS_NUMBER>  (1) 
36330-79-7

>  <UNII>  (1) 
038D8XOK12

>  <SYNONYMS>  (1) 
Magnesium acetylcysteinate; Magnesium acetylcysteine

$$$$
