
     RDKit          2D

 30 31  0  0  0  0  0  0  0  0999 V2000
   -0.5409   -2.1651    0.0000 P   0  0  0  0  0  0  0  0  0  0  0  0
    0.7644   -2.7463    0.0000 P   0  0  0  0  0  0  0  0  0  0  0  0
   -2.0763   -0.1318    0.0000 O   0  0  0  0  0  0  0  0  0  0  0  0
   -3.6411   -1.5839    0.0000 O   0  0  0  0  0  0  0  0  0  0  0  0
   -4.1958    0.1230    0.0000 O   0  0  0  0  0  0  0  0  0  0  0  0
   -1.0258   -1.4977    0.0000 O   0  0  0  0  0  0  0  0  0  0  0  0
   -0.0559   -2.8325    0.0000 O   0  0  0  0  0  0  0  0  0  0  0  0
   -4.1726    1.1780    0.0000 O   0  0  0  0  0  0  0  0  0  0  0  0
    0.1265   -1.6802    0.0000 O   0  0  0  0  0  0  0  0  0  0  0  0
   -1.2083   -2.6500    0.0000 O   0  0  0  0  0  0  0  0  0  0  0  0
    1.5849   -2.6601    0.0000 O   0  0  0  0  0  0  0  0  0  0  0  0
    0.8507   -3.5668    0.0000 O   0  0  0  0  0  0  0  0  0  0  0  0
    0.6782   -1.9258    0.0000 O   0  0  0  0  0  0  0  0  0  0  0  0
    3.2259   -2.4876    0.0000 O   0  0  0  0  0  0  0  0  0  0  0  0
    4.1958   -3.8224    0.0000 O   0  0  0  0  0  0  0  0  0  0  0  0
   -2.7437    1.1780    0.0000 N   0  0  0  0  0  0  0  0  0  0  0  0
   -3.4582    2.4155    0.0000 N   0  0  0  0  0  0  0  0  0  0  0  0
   -2.7437    3.6530    0.0000 N   0  0  0  0  0  0  0  0  0  0  0  0
   -3.1562   -0.9164    0.0000 C   0  0  0  0  0  0  0  0  0  0  0  0
   -3.4111   -0.1318    0.0000 C   0  0  0  0  0  0  0  0  0  0  0  0
   -2.3312   -0.9164    0.0000 C   0  0  0  0  0  0  0  0  0  0  0  0
   -2.7437    0.3530    0.0000 C   0  0  0  0  0  0  0  0  0  0  0  0
   -1.8463   -1.5839    0.0000 C   0  0  0  0  0  0  0  0  0  0  0  0
   -2.0293    1.5905    0.0000 C   0  0  0  0  0  0  0  0  0  0  0  0
   -3.4582    1.5905    0.0000 C   0  0  0  0  0  0  0  0  0  0  0  0
   -2.0293    2.4155    0.0000 C   0  0  0  0  0  0  0  0  0  0  0  0
   -2.7437    2.8280    0.0000 C   0  0  0  0  0  0  0  0  0  0  0  0
    2.0698   -3.3275    0.0000 C   0  0  0  0  0  0  0  0  0  0  0  0
    2.8904   -3.2413    0.0000 C   0  0  0  0  0  0  0  0  0  0  0  0
    3.3752   -3.9087    0.0000 C   0  0  0  0  0  0  0  0  0  0  0  0
  1  6  1  0
  1  7  1  0
  1  9  1  0
  1 10  2  0
  2  7  1  0
  2 11  1  0
  2 12  1  0
  2 13  2  0
  3 21  1  0
  3 22  1  0
  6 23  1  0
  8 25  2  0
 11 28  1  0
 15 30  1  0
 16 24  1  0
 16 25  1  0
 17 25  1  0
 17 27  2  0
 18 27  1  0
 19  4  1  1
 19 20  1  0
 19 21  1  0
 20  5  1  1
 20 22  1  0
 21 23  1  6
 22 16  1  6
 24 26  2  0
 26 27  1  0
 28 29  1  0
 29 14  1  1
 29 30  1  0
M  END
>  <DRUGBANK_ID>  (1) 
DB02484

>  <SECONDARY_ACCESSION_NUMBERS>  (1) 
EXPT00805

>  <COMMON_NAME>  (1) 
Cytidine 5'-diphosphoglycerol

$$$$
