474
     RDKit          2D

 32 35  0  0  0  0  0  0  0  0999 V2000
   -0.3256   -0.7389    0.0000 C   0  0  0  0  0  0  0  0  0  0  0  0
   -1.1506   -0.7389    0.0000 C   0  0  0  0  0  0  0  0  0  0  0  0
   -1.5631   -1.4534    0.0000 C   0  0  0  0  0  0  0  0  0  0  0  0
   -2.3881   -1.4534    0.0000 N   0  0  0  0  0  0  0  0  0  0  0  0
    0.0869   -1.4534    0.0000 C   0  0  0  0  0  0  0  0  0  0  0  0
   -1.5631   -0.0244    0.0000 N   0  0  0  0  0  0  0  0  0  0  0  0
   -1.1506   -2.1679    0.0000 O   0  0  0  0  0  0  0  0  0  0  0  0
   -0.3256   -2.1679    0.0000 O   0  0  0  0  0  0  0  0  0  0  0  0
    0.9119   -1.4534    0.0000 N   0  0  0  0  0  0  0  0  0  0  0  0
    1.3244   -0.7389    0.0000 C   0  0  0  0  0  0  0  0  0  0  0  0
    1.3244   -2.1679    0.0000 C   0  0  0  0  0  0  0  0  0  0  0  0
   -2.8730   -0.7859    0.0000 C   0  0  0  0  0  0  0  0  0  0  0  0
   -3.6576   -1.0409    0.0000 C   0  0  0  0  0  0  0  0  0  0  0  0
   -3.6576   -1.8659    0.0000 C   0  0  0  0  0  0  0  0  0  0  0  0
   -2.8730   -2.1208    0.0000 C   0  0  0  0  0  0  0  0  0  0  0  0
   -4.4772   -0.9461    0.0000 F   0  0  0  0  0  0  0  0  0  0  0  0
    0.9119    1.4045    0.0000 C   0  0  0  0  0  0  0  0  0  0  0  0
    1.3244    0.6900    0.0000 C   0  0  0  0  0  0  0  0  0  0  0  0
    0.9119   -0.0244    0.0000 C   0  0  0  0  0  0  0  0  0  0  0  0
    0.0869   -0.0244    0.0000 C   0  0  0  0  0  0  0  0  0  0  0  0
   -0.3256    0.6900    0.0000 C   0  0  0  0  0  0  0  0  0  0  0  0
    0.0869    1.4045    0.0000 C   0  0  0  0  0  0  0  0  0  0  0  0
    2.1494    3.5479    0.0000 C   0  0  0  0  0  0  0  0  0  0  0  0
    1.3244    3.5479    0.0000 C   0  0  0  0  0  0  0  0  0  0  0  0
    0.9119    2.8334    0.0000 C   0  0  0  0  0  0  0  0  0  0  0  0
    1.3244    2.1190    0.0000 C   0  0  0  0  0  0  0  0  0  0  0  0
    2.1494    2.1190    0.0000 C   0  0  0  0  0  0  0  0  0  0  0  0
    2.5619    2.8334    0.0000 N   0  0  0  0  0  0  0  0  0  0  0  0
    3.3689    3.0050    0.0000 N   0  0  0  0  0  0  0  0  0  0  0  0
    3.4551    3.8254    0.0000 C   0  0  0  0  0  0  0  0  0  0  0  0
    2.7014    4.1610    0.0000 N   0  0  0  0  0  0  0  0  0  0  0  0
   -4.0011   -0.2908    0.0000 F   0  0  0  0  0  0  0  0  0  0  0  0
  1  2  1  0
  1  5  1  6
  2  6  1  1
  2  3  1  0
  3  7  2  0
  3  4  1  0
  4 15  1  0
  4 12  1  0
  5  8  2  0
  5  9  1  0
  9 10  1  0
  9 11  1  0
 12 13  1  0
 13 14  1  0
 13 32  1  0
 13 16  1  0
 14 15  1  0
 17 18  1  0
 17 26  1  1
 17 22  1  0
 18 19  1  0
 20 19  1  6
 20  1  1  0
 20 21  1  0
 21 22  1  0
 23 28  1  0
 23 31  2  0
 23 24  1  0
 24 25  2  0
 25 26  1  0
 26 27  2  0
 27 28  1  0
 28 29  1  0
 29 30  2  0
 30 31  1  0
M  END
>  <DRUGBANK_ID>  (1) 
DB07092

>  <COMMON_NAME>  (1) 
(2S,3S)-3-AMINO-4-(3,3-DIFLUOROPYRROLIDIN-1-YL)-N,N-DIMETHYL-4-OXO-2-(TRANS-4-[1,2,4]TRIAZOLO[1,5-A]PYRIDIN-6-YLCYCLOHEXYL)BUTANAMIDE

$$$$
