
     RDKit          2D

 11 11  0  0  0  0  0  0  0  0999 V2000
    0.0000    1.2374    0.0000 O   0  0  0  0  0  0  0  0  0  0  0  0
   -0.7144    0.8250    0.0000 C   0  0  0  0  0  0  0  0  0  0  0  0
    0.7145    0.8250    0.0000 C   0  0  0  0  0  0  0  0  0  0  0  0
    0.7145    0.0000    0.0000 C   0  0  0  0  0  0  0  0  0  0  0  0
    0.0000   -0.4125    0.0000 C   0  0  0  0  0  0  0  0  0  0  0  0
   -0.7144    0.0000    0.0000 C   0  0  0  0  0  0  0  0  0  0  0  0
    1.4289    1.2374    0.0000 O   0  0  0  0  0  0  0  0  0  0  0  0
    1.4289   -0.4125    0.0000 O   0  0  0  0  0  0  0  0  0  0  0  0
    0.0000   -1.2374    0.0000 O   0  0  0  0  0  0  0  0  0  0  0  0
   -1.4288   -0.4125    0.0000 O   0  0  0  0  0  0  0  0  0  0  0  0
   -1.4289    1.2374    0.0000 C   0  0  0  0  0  0  0  0  0  0  0  0
  2  1  1  0
  2 11  1  6
  3  1  1  0
  3  7  1  1
  3  4  1  0
  4  8  1  1
  4  5  1  0
  5  9  1  6
  5  6  1  0
  6  2  1  0
  6 10  1  6
M  END
>  <DRUGBANK_ID>  (1) 
DB04473

>  <SECONDARY_ACCESSION_NUMBERS>  (1) 
EXPT00452

>  <COMMON_NAME>  (1) 
alpha-L-fucose

>  <CAS_NUMBER>  (1) 
6696-41-9

>  <UNII>  (1) 
OF086I9H7W

>  <SYNONYMS>  (1) 
α-L-Fuc; α-L-fucose; α-L-Fucp

$$$$
