GN8
     RDKit          2D

 25 27  0  0  0  0  0  0  0  0999 V2000
    0.6159    0.9679    0.0000 O   0  0  0  0  0  0  0  0  0  0  0  0
    0.6159    0.1429    0.0000 C   0  0  0  0  0  0  0  0  0  0  0  0
   -0.0515   -0.3421    0.0000 C   0  0  0  0  0  0  0  0  0  0  0  0
   -0.8361   -0.0871    0.0000 C   0  0  0  0  0  0  0  0  0  0  0  0
   -1.4492   -0.6392    0.0000 C   0  0  0  0  0  0  0  0  0  0  0  0
   -1.2777   -1.4461    0.0000 C   0  0  0  0  0  0  0  0  0  0  0  0
   -0.4931   -1.7011    0.0000 O   0  0  0  0  0  0  0  0  0  0  0  0
   -1.8908   -1.9982    0.0000 C   0  0  0  0  0  0  0  0  0  0  0  0
   -1.7193   -2.8051    0.0000 N   0  0  0  0  0  0  0  0  0  0  0  0
   -2.3324   -3.3572    0.0000 O   0  0  0  0  0  0  0  0  0  0  0  0
   -0.9347   -3.0601    0.0000 O   0  0  0  0  0  0  0  0  0  0  0  0
   -2.6754   -1.7432    0.0000 C   0  0  0  0  0  0  0  0  0  0  0  0
   -2.8470   -0.9362    0.0000 C   0  0  0  0  0  0  0  0  0  0  0  0
   -2.2339   -0.3842    0.0000 C   0  0  0  0  0  0  0  0  0  0  0  0
    0.2034   -1.1267    0.0000 S   0  0  0  0  0  0  0  0  0  0  0  0
    1.0284   -1.1267    0.0000 C   0  0  0  0  0  0  0  0  0  0  0  0
    1.5133   -1.7941    0.0000 S   0  0  0  0  0  0  0  0  0  0  0  0
    1.2834   -0.3421    0.0000 N   0  0  0  0  0  0  0  0  0  0  0  0
    2.0680   -0.0871    0.0000 C   0  0  0  0  0  0  0  0  0  0  0  0
    2.6811   -0.6392    0.0000 C   0  0  0  0  0  0  0  0  0  0  0  0
    2.5095   -1.4461    0.0000 C   0  0  0  0  0  0  0  0  0  0  0  0
    3.4657   -0.3842    0.0000 C   0  0  0  0  0  0  0  0  0  0  0  0
    4.0788   -0.9362    0.0000 C   0  0  0  0  0  0  0  0  0  0  0  0
    3.9073   -1.7432    0.0000 C   0  0  0  0  0  0  0  0  0  0  0  0
    3.1226   -1.9982    0.0000 C   0  0  0  0  0  0  0  0  0  0  0  0
  1  2  2  0
  2 18  1  0
  2  3  1  0
  3  4  2  0
  3 15  1  0
  4  5  1  0
  5  6  2  0
  5 14  1  0
  6  7  1  0
  6  8  1  0
  8 12  2  0
  8  9  1  0
  9 10  2  0
  9 11  1  0
 12 13  1  0
 13 14  2  0
 15 16  1  0
 16 17  2  0
 16 18  1  0
 18 19  1  0
 19 20  1  0
 20 22  1  0
 20 21  2  0
 21 25  1  0
 22 23  2  0
 23 24  1  0
 24 25  2  0
M  CHG  2   9   1  11  -1
M  END
>  <DRUGBANK_ID>  (1) 
DB07838

>  <COMMON_NAME>  (1) 
(Z)-3-BENZYL-5-(2-HYDROXY-3-NITROBENZYLIDENE)-2-THIOXOTHIAZOLIDIN-4-ONE

$$$$
