
     RDKit          2D

 35 34  0  0  0  0  0  0  0  0999 V2000
    8.4711    5.7158    0.0000 C   0  0  0  0  0  0  0  0  0  0  0  0
    9.1855    6.1283    0.0000 O   0  0  0  0  0  0  0  0  0  0  0  0
    9.9000    5.7158    0.0000 C   0  0  0  0  0  0  0  0  0  0  0  0
   10.6145    6.1283    0.0000 C   0  0  0  0  0  0  0  0  0  0  0  0
   11.3289    5.7158    0.0000 O   0  0  0  0  0  0  0  0  0  0  0  0
   12.0434    6.1283    0.0000 C   0  0  0  0  0  0  0  0  0  0  0  0
   12.0434    6.9533    0.0000 O   0  0  0  0  0  0  0  0  0  0  0  0
   12.7579    5.7158    0.0000 N   0  0  0  0  0  0  0  0  0  0  0  0
   13.4724    6.1283    0.0000 C   0  0  0  0  0  0  0  0  0  0  0  0
   14.1868    5.7158    0.0000 C   0  0  0  0  0  0  0  0  0  0  0  0
   14.9013    6.1283    0.0000 C   0  0  0  0  0  0  0  0  0  0  0  0
   15.6158    5.7158    0.0000 C   0  0  0  0  0  0  0  0  0  0  0  0
   16.3302    6.1283    0.0000 C   0  0  0  0  0  0  0  0  0  0  0  0
   17.0447    5.7158    0.0000 C   0  0  0  0  0  0  0  0  0  0  0  0
   17.0447    4.8908    0.0000 O   0  0  0  0  0  0  0  0  0  0  0  0
   17.7592    6.1283    0.0000 N   0  0  0  0  0  0  0  0  0  0  0  0
   18.4737    5.7158    0.0000 C   0  0  0  0  0  0  0  0  0  0  0  0
   19.1881    6.1283    0.0000 C   0  0  0  0  0  0  0  0  0  0  0  0
   19.9026    5.7158    0.0000 C   0  0  0  0  0  0  0  0  0  0  0  0
   20.6171    6.1283    0.0000 C   0  0  0  0  0  0  0  0  0  0  0  0
   21.3315    5.7158    0.0000 C   0  0  0  0  0  0  0  0  0  0  0  0
   22.0460    6.1283    0.0000 C   0  0  0  0  0  0  0  0  0  0  0  0
   22.7605    5.7158    0.0000 O   0  0  0  0  0  0  0  0  0  0  0  0
   23.4749    6.1283    0.0000 P   0  0  0  0  0  0  0  0  0  0  0  0
   24.1894    6.5408    0.0000 O   0  0  0  0  0  0  0  0  0  0  0  0
   23.8874    5.4138    0.0000 O   0  0  0  0  0  0  0  0  0  0  0  0
   23.0624    6.8427    0.0000 O   0  0  0  0  0  0  0  0  0  0  0  0
   16.3302    6.9533    0.0000 N   0  0  0  0  0  0  0  0  0  0  0  0
   15.6158    7.3658    0.0000 C   0  0  0  0  0  0  0  0  0  0  0  0
   14.9013    6.9533    0.0000 O   0  0  0  0  0  0  0  0  0  0  0  0
   15.6158    8.1908    0.0000 O   0  0  0  0  0  0  0  0  0  0  0  0
   14.9013    8.6033    0.0000 C   0  0  0  0  0  0  0  0  0  0  0  0
   14.9013    9.4283    0.0000 C   0  0  0  0  0  0  0  0  0  0  0  0
   14.1868    9.8408    0.0000 O   0  0  0  0  0  0  0  0  0  0  0  0
   14.1868   10.6658    0.0000 C   0  0  0  0  0  0  0  0  0  0  0  0
  1  2  1  0
  2  3  1  0
  3  4  1  0
  4  5  1  0
  5  6  1  0
  6  7  2  0
  6  8  1  0
  8  9  1  0
  9 10  1  0
 10 11  1  0
 11 12  1  0
 12 13  1  0
 13 14  1  0
 13 28  1  0
 14 15  2  0
 14 16  1  0
 16 17  1  0
 17 18  1  0
 18 19  1  0
 19 20  1  0
 20 21  1  0
 21 22  1  0
 22 23  1  0
 23 24  1  0
 24 25  2  0
 24 26  1  0
 24 27  1  0
 28 29  1  0
 29 30  2  0
 29 31  1  0
 31 32  1  0
 32 33  1  0
 33 34  1  0
 34 35  1  0
M  END
>  <DRUGBANK_ID>  (1) 
DB06293

>  <COMMON_NAME>  (1) 
Pegnivacogin

>  <CAS_NUMBER>  (1) 
959716-28-0

>  <UNII>  (1) 
AYC3D1NPYB

>  <SYNONYMS>  (1) 
Pegnivacogin

$$$$
