
     RDKit          2D

  6  5  0  0  0  0  0  0  0  0999 V2000
   -1.4290   -0.6187    0.0000 C   0  0  0  0  0  0  0  0  0  0  0  0
    0.0000   -0.6187    0.0000 C   0  0  0  0  0  0  0  0  0  0  0  0
    0.7146   -0.2062    0.0000 C   0  0  0  0  0  0  0  0  0  0  0  0
    1.4290   -0.6187    0.0000 O   0  0  0  0  0  0  0  0  0  0  0  0
   -0.7146   -0.2062    0.0000 C   0  0  0  0  0  0  0  0  0  0  0  0
   -0.7146    0.6187    0.0000 C   0  0  0  0  0  0  0  0  0  0  0  0
  1  5  1  0
  2  5  1  0
  3  2  1  0
  4  3  1  0
  5  6  1  0
M  END
>  <DRUGBANK_ID>  (1) 
DB02296

>  <SECONDARY_ACCESSION_NUMBERS>  (1) 
EXPT01910

>  <COMMON_NAME>  (1) 
Isoamyl alcohol

>  <CAS_NUMBER>  (1) 
123-51-3

>  <UNII>  (1) 
DEM9NIT1J4

>  <SYNONYMS>  (1) 
2-methyl-4-butanol; 3-methyl-1-butanol; 3-Methylbutanol; Isoamylol; Isobutylcarbinol; Isopentanol; Isopentyl alcohol

$$$$
