HA3
     RDKit          2D

 26 29  0  0  0  0  0  0  0  0999 V2000
    8.5222   -5.6124    0.0000 C   0  0  0  0  0  0  0  0  0  0  0  0
    8.2672   -6.3970    0.0000 C   0  0  0  0  0  0  0  0  0  0  0  0
    7.4603   -6.5685    0.0000 C   0  0  0  0  0  0  0  0  0  0  0  0
    6.9082   -5.9554    0.0000 C   0  0  0  0  0  0  0  0  0  0  0  0
    7.1632   -5.1708    0.0000 C   0  0  0  0  0  0  0  0  0  0  0  0
    7.9701   -4.9993    0.0000 C   0  0  0  0  0  0  0  0  0  0  0  0
    8.2251   -4.2147    0.0000 C   0  0  0  0  0  0  0  0  0  0  0  0
    7.7402   -3.5472    0.0000 C   0  0  0  0  0  0  0  0  0  0  0  0
    8.2251   -2.8798    0.0000 N   0  0  0  0  0  0  0  0  0  0  0  0
    9.0097   -3.1347    0.0000 C   0  0  0  0  0  0  0  0  0  0  0  0
    9.7242   -2.7222    0.0000 C   0  0  0  0  0  0  0  0  0  0  0  0
    9.0097   -3.9597    0.0000 N   0  0  0  0  0  0  0  0  0  0  0  0
    9.7242   -4.3722    0.0000 C   0  0  0  0  0  0  0  0  0  0  0  0
   10.4386   -3.9597    0.0000 C   0  0  0  0  0  0  0  0  0  0  0  0
   10.4386   -3.1347    0.0000 N   0  0  0  0  0  0  0  0  0  0  0  0
   11.1531   -2.7222    0.0000 C   0  0  0  0  0  0  0  0  0  0  0  0
   11.1531   -1.8972    0.0000 O   0  0  0  0  0  0  0  0  0  0  0  0
   11.8676   -3.1347    0.0000 C   0  0  0  0  0  0  0  0  0  0  0  0
   12.6213   -2.7992    0.0000 S   0  0  0  0  0  0  0  0  0  0  0  0
   11.9538   -3.9552    0.0000 C   0  0  0  0  0  0  0  0  0  0  0  0
   12.7608   -4.1267    0.0000 C   0  0  0  0  0  0  0  0  0  0  0  0
   13.1733   -3.4123    0.0000 C   0  0  0  0  0  0  0  0  0  0  0  0
   13.9938   -3.3260    0.0000 C   0  0  0  0  0  0  0  0  0  0  0  0
   14.3293   -2.5724    0.0000 O   0  0  0  0  0  0  0  0  0  0  0  0
   14.4787   -3.9935    0.0000 N   0  0  0  0  0  0  0  0  0  0  0  0
   15.2992   -3.9072    0.0000 O   0  0  0  0  0  0  0  0  0  0  0  0
  1  2  2  0
  1  6  1  0
  2  3  1  0
  3  4  2  0
  4  5  1  0
  5  6  2  0
  6  7  1  0
  7  8  2  0
  7 12  1  0
  8  9  1  0
  9 10  2  0
 10 11  1  0
 10 12  1  0
 11 15  1  0
 12 13  1  0
 13 14  1  0
 14 15  1  0
 15 16  1  0
 16 17  2  0
 16 18  1  0
 18 19  1  0
 18 20  2  0
 19 22  1  0
 20 21  1  0
 21 22  2  0
 22 23  1  0
 23 24  2  0
 23 25  1  0
 25 26  1  0
M  END
>  <DRUGBANK_ID>  (1) 
DB07879

>  <COMMON_NAME>  (1) 
N-hydroxy-5-[(3-phenyl-5,6-dihydroimidazo[1,2-a]pyrazin-7(8H)-yl)carbonyl]thiophene-2-carboxamide

$$$$
