
     RDKit          2D

 24 24  0  0  0  0  0  0  0  0999 V2000
   -5.3279    0.8307    0.0000 C   0  0  0  0  0  0  0  0  0  0  0  0
   -5.3291    0.0010    0.0000 C   0  0  0  0  0  0  0  0  0  0  0  0
   -4.6124   -0.4127    0.0000 C   0  0  0  0  0  0  0  0  0  0  0  0
   -4.6142    1.2445    0.0000 C   0  0  0  0  0  0  0  0  0  0  0  0
   -3.8970    0.8342    0.0000 C   0  0  0  0  0  0  0  0  0  0  0  0
   -3.8981    0.0036    0.0000 C   0  0  0  0  0  0  0  0  0  0  0  0
   -3.1833   -0.4103    0.0000 C   0  0  0  0  0  0  0  0  0  0  0  0
   -2.4650    0.0036    0.0000 N   0  0  0  0  0  0  0  0  0  0  0  0
   -1.7530   -0.4113    0.0000 C   0  0  0  0  0  0  0  0  0  0  0  0
   -1.0363   -0.0004    0.0000 N   0  0  0  0  0  0  0  0  0  0  0  0
   -0.3275   -0.4172    0.0000 C   0  0  0  0  0  0  0  0  0  0  0  0
    0.3881   -0.0086    0.0000 N   0  0  0  0  0  0  0  0  0  0  0  0
    1.0919   -0.4276    0.0000 C   0  0  0  0  0  0  0  0  0  0  0  0
    1.8086   -0.0256    0.0000 C   0  0  0  0  0  0  0  0  0  0  0  0
    2.5094   -0.4455    0.0000 C   0  0  0  0  0  0  0  0  0  0  0  0
    3.2248   -0.0463    0.0000 C   0  0  0  0  0  0  0  0  0  0  0  0
    3.9220   -0.4681    0.0000 C   0  0  0  0  0  0  0  0  0  0  0  0
    4.6369   -0.0713    0.0000 C   0  0  0  0  0  0  0  0  0  0  0  0
    5.3290   -0.4940    0.0000 C   0  0  0  0  0  0  0  0  0  0  0  0
    6.0458   -0.1060    0.0000 C   0  0  0  0  0  0  0  0  0  0  0  0
   -6.0444    1.2440    0.0000 Cl  0  0  0  0  0  0  0  0  0  0  0  0
   -6.0458   -0.4118    0.0000 Cl  0  0  0  0  0  0  0  0  0  0  0  0
   -1.7561   -1.2385    0.0000 N   0  0  0  0  0  0  0  0  0  0  0  0
   -0.3329   -1.2445    0.0000 N   0  0  0  0  0  0  0  0  0  0  0  0
  1  2  2  0
  1 21  1  0
  2  3  1  0
  2 22  1  0
  3  6  2  0
  4  1  1  0
  5  4  2  0
  5  6  1  0
  6  7  1  0
  7  8  1  0
  8  9  1  0
  9 10  1  0
  9 23  2  0
 10 11  1  0
 11 12  1  0
 11 24  2  0
 12 13  1  0
 13 14  1  0
 14 15  1  0
 15 16  1  0
 16 17  1  0
 17 18  1  0
 18 19  1  0
 19 20  1  0
M  END
>  <DRUGBANK_ID>  (1) 
DB16889

>  <COMMON_NAME>  (1) 
Olanexidine

>  <CAS_NUMBER>  (1) 
146510-36-3

>  <UNII>  (1) 
92C2328G7P

$$$$
