
     RDKit          2D

 36 39  0  0  1  0  0  0  0  0999 V2000
   -0.2233   -4.7759    0.0000 C   0  0  0  0  0  0  0  0  0  0  0  0
   -2.5706   -2.9487    0.0000 C   0  0  0  0  0  0  0  0  0  0  0  0
   -2.4844   -3.7692    0.0000 C   0  0  0  0  0  0  0  0  0  0  0  0
   -1.9032   -2.4638    0.0000 C   0  0  0  0  0  0  0  0  0  0  0  0
   -1.7307   -4.1048    0.0000 C   0  0  0  0  0  0  0  0  0  0  0  0
    0.0992   -0.1841    0.0000 C   0  0  0  0  0  0  0  0  0  0  0  0
    1.1387   -2.0486    0.0000 C   0  0  0  0  0  0  0  0  0  0  0  0
    3.3523    1.1104    0.0000 C   0  0  0  0  0  0  0  0  0  0  0  0
    0.6538    1.5229    0.0000 C   0  0  0  0  0  0  0  0  0  0  0  0
   -1.1495   -2.7994    0.0000 C   0  0  0  0  0  0  0  0  0  0  0  0
   -1.0632   -3.6199    0.0000 C   0  0  0  0  0  0  0  0  0  0  0  0
    0.0992   -1.0091    0.0000 C   0  0  0  0  0  0  0  0  0  0  0  0
    0.8838   -1.2640    0.0000 C   0  0  0  0  0  0  0  0  0  0  0  0
    0.8838    0.0709    0.0000 C   0  0  0  0  0  0  0  0  0  0  0  0
    1.9233    1.9354    0.0000 C   0  0  0  0  0  0  0  0  0  0  0  0
    2.6378    2.3479    0.0000 C   0  0  0  0  0  0  0  0  0  0  0  0
    1.9233    1.1104    0.0000 C   0  0  0  0  0  0  0  0  0  0  0  0
   -0.4820   -2.3145    0.0000 C   0  0  0  0  0  0  0  0  0  0  0  0
    2.6378    3.1729    0.0000 N   0  0  0  0  0  0  0  0  0  0  0  0
   -0.3096   -3.9554    0.0000 N   0  0  0  0  0  0  0  0  0  0  0  0
    3.3523    1.9354    0.0000 N   0  0  0  0  0  0  0  0  0  0  0  0
    2.6378    0.6979    0.0000 N   0  0  0  0  0  0  0  0  0  0  0  0
    1.1387    2.1904    0.0000 N   0  0  0  0  0  0  0  0  0  0  0  0
    1.1387    0.8555    0.0000 N   0  0  0  0  0  0  0  0  0  0  0  0
    0.2716   -2.6500    0.0000 O   0  0  0  0  0  0  0  0  0  0  0  0
    2.7678   -3.7730    0.0000 O   0  0  0  0  0  0  0  0  0  0  0  0
    3.7463   -3.1376    0.0000 O   0  0  0  0  0  0  0  0  0  0  0  0
    2.1323   -2.7945    0.0000 O   0  0  0  0  0  0  0  0  0  0  0  0
    3.0498   -0.9940    0.0000 O   0  0  0  0  0  0  0  0  0  0  0  0
    1.8846   -1.0550    0.0000 O   0  0  0  0  0  0  0  0  0  0  0  0
    1.9457   -2.2201    0.0000 O   0  0  0  0  0  0  0  0  0  0  0  0
    1.3687   -0.5966    0.0000 O   0  0  0  0  0  0  0  0  0  0  0  0
   -0.5683   -1.4940    0.0000 O   0  0  0  0  0  0  0  0  0  0  0  0
    3.1108   -2.1591    0.0000 O   0  0  0  0  0  0  0  0  0  0  0  0
    2.9393   -2.9661    0.0000 P   0  0  0  0  0  0  0  0  0  0  0  0
    2.4977   -1.6071    0.0000 P   0  0  0  0  0  0  0  0  0  0  0  0
  3  2  2  0
  4  2  1  0
  5  3  1  0
 10  4  2  0
 11  5  2  0
 11 10  1  0
 12  6  1  0
 12 33  1  1
 13  7  1  6
 13 12  1  0
 14  6  1  0
 14 24  1  6
 16 15  2  0
 17 15  1  0
 18 10  1  0
 19 16  1  0
 20  1  1  0
 20 11  1  0
 21  8  2  0
 21 16  1  0
 22  8  1  0
 22 17  2  0
 23  9  2  0
 23 15  1  0
 24  9  1  0
 24 17  1  0
 25 18  2  0
 31  7  1  0
 32 13  1  0
 32 14  1  0
 33 18  1  0
 35 26  1  0
 35 27  1  0
 35 28  2  0
 35 34  1  0
 36 29  1  0
 36 30  2  0
 36 31  1  0
 36 34  1  0
M  END
>  <DRUGBANK_ID>  (1) 
DB03126

>  <SECONDARY_ACCESSION_NUMBERS>  (1) 
EXPT02204

>  <COMMON_NAME>  (1) 
Mant-Adp

$$$$
