
     RDKit          2D

 27 28  0  0  0  0  0  0  0  0999 V2000
   -2.5006   -0.4125    0.0000 C   0  0  0  0  0  0  0  0  0  0  0  0
   -2.5006   -1.2375    0.0000 C   0  0  0  0  0  0  0  0  0  0  0  0
    0.3572   -0.4125    0.0000 C   0  0  0  0  0  0  0  0  0  0  0  0
    3.2151   -0.4125    0.0000 C   0  0  0  0  0  0  0  0  0  0  0  0
   -1.7861    0.0000    0.0000 C   0  0  0  0  0  0  0  0  0  0  0  0
    1.0717    0.0000    0.0000 C   0  0  0  0  0  0  0  0  0  0  0  0
    2.5006    0.0000    0.0000 C   0  0  0  0  0  0  0  0  0  0  0  0
   -3.2151   -1.6500    0.0000 C   0  0  0  0  0  0  0  0  0  0  0  0
   -1.0717    1.2375    0.0000 C   0  0  0  0  0  0  0  0  0  0  0  0
    1.7861   -0.4125    0.0000 C   0  0  0  0  0  0  0  0  0  0  0  0
   -0.3572    0.8250    0.0000 C   0  0  0  0  0  0  0  0  0  0  0  0
   -1.0717    2.0625    0.0000 C   0  0  0  0  0  0  0  0  0  0  0  0
   -1.0717   -0.4125    0.0000 C   0  0  0  0  0  0  0  0  0  0  0  0
    0.3572    2.0625    0.0000 C   0  0  0  0  0  0  0  0  0  0  0  0
   -1.7861    0.8250    0.0000 N   0  0  0  0  0  0  0  0  0  0  0  0
    0.3572    1.2375    0.0000 N   0  0  0  0  0  0  0  0  0  0  0  0
   -0.3572    2.4750    0.0000 N   0  0  0  0  0  0  0  0  0  0  0  0
   -0.3572    0.0000    0.0000 N   0  0  0  0  0  0  0  0  0  0  0  0
    3.9295    0.0000    0.0000 O   0  0  0  0  0  0  0  0  0  0  0  0
    1.0717    0.8250    0.0000 O   0  0  0  0  0  0  0  0  0  0  0  0
    2.5006    0.8250    0.0000 O   0  0  0  0  0  0  0  0  0  0  0  0
   -3.2151   -2.4750    0.0000 O   0  0  0  0  0  0  0  0  0  0  0  0
   -3.9295   -1.2375    0.0000 O   0  0  0  0  0  0  0  0  0  0  0  0
    1.7861   -1.2375    0.0000 O   0  0  0  0  0  0  0  0  0  0  0  0
   -1.7861    2.4750    0.0000 O   0  0  0  0  0  0  0  0  0  0  0  0
   -1.0717   -1.2375    0.0000 O   0  0  0  0  0  0  0  0  0  0  0  0
    1.0717    2.4750    0.0000 O   0  0  0  0  0  0  0  0  0  0  0  0
  2  1  1  0
  5  1  1  0
  6  3  1  0
  6 20  1  6
  7  4  1  0
  7 21  1  6
  8  2  1  0
 10  6  1  0
 10  7  1  0
 10 24  1  1
 11  9  1  0
 12  9  1  0
 13  5  2  0
 15  5  1  0
 15  9  2  0
 16 11  2  0
 16 14  1  0
 17 12  2  0
 17 14  1  0
 18  3  1  0
 18 11  1  0
 18 13  1  0
 19  4  1  0
 22  8  2  0
 23  8  1  0
 25 12  1  0
 26 13  1  0
 27 14  2  0
M  END
>  <DRUGBANK_ID>  (1) 
DB04262

>  <SECONDARY_ACCESSION_NUMBERS>  (1) 
EXPT02791

>  <COMMON_NAME>  (1) 
3-(7-hydroxy-8-ribityllumazine-6-yl) propionic acid

$$$$
