
     RDKit          2D

 37 42  0  0  1  0  0  0  0  0999 V2000
    5.2942    1.4420    0.0000 C   0  0  0  0  0  0  0  0  0  0  0  0
    5.3805    0.6215    0.0000 N   0  0  0  0  0  0  0  0  0  0  0  0
    6.0949    0.2090    0.0000 N   0  0  0  0  0  0  0  0  0  0  0  0
    5.9234   -0.5980    0.0000 N   0  0  0  0  0  0  0  0  0  0  0  0
    5.1029   -0.6842    0.0000 C   0  0  0  0  0  0  0  0  0  0  0  0
    4.6904   -1.3987    0.0000 C   0  0  0  0  0  0  0  0  0  0  0  0
    4.7674    0.0694    0.0000 C   0  0  0  0  0  0  0  0  0  0  0  0
    3.9604    0.2410    0.0000 C   0  0  0  0  0  0  0  0  0  0  0  0
    3.4084   -0.3721    0.0000 C   0  0  0  0  0  0  0  0  0  0  0  0
    2.6014   -0.2006    0.0000 C   0  0  0  0  0  0  0  0  0  0  0  0
    2.3464    0.5840    0.0000 C   0  0  0  0  0  0  0  0  0  0  0  0
    2.8985    1.1971    0.0000 N   0  0  0  0  0  0  0  0  0  0  0  0
    3.7054    1.0256    0.0000 C   0  0  0  0  0  0  0  0  0  0  0  0
    1.5214    0.5840    0.0000 C   0  0  0  0  0  0  0  0  0  0  0  0
    1.2665   -0.2006    0.0000 C   0  0  0  0  0  0  0  0  0  0  0  0
    0.4595   -0.3721    0.0000 C   0  0  0  0  0  0  0  0  0  0  0  0
   -0.0925    0.2410    0.0000 C   0  0  0  0  0  0  0  0  0  0  0  0
    0.1624    1.0256    0.0000 C   0  0  0  0  0  0  0  0  0  0  0  0
    0.9694    1.1971    0.0000 C   0  0  0  0  0  0  0  0  0  0  0  0
   -0.8995    0.0694    0.0000 C   0  0  0  0  0  0  0  0  0  0  0  0
   -1.7064   -0.1021    0.0000 C   0  0  0  0  0  0  0  0  0  0  0  0
   -1.0710    0.8764    0.0000 C   0  0  0  0  0  0  0  0  0  0  0  0
   -0.7279   -0.7375    0.0000 O   0  0  0  0  0  0  0  0  0  0  0  0
    1.9339   -0.6855    0.0000 N   0  0  0  0  0  0  0  0  0  0  0  0
    1.9339   -1.5105    0.0000 C   0  0  0  0  0  0  0  0  0  0  0  0
    2.6484   -1.9230    0.0000 C   0  0  0  0  0  0  0  0  0  0  0  0
    3.3629   -1.5105    0.0000 C   0  0  0  0  0  0  0  0  0  0  0  0
    4.0774   -1.9230    0.0000 C   0  0  0  0  0  0  0  0  0  0  0  0
    4.0774   -2.7480    0.0000 O   0  0  0  0  0  0  0  0  0  0  0  0
    3.3629   -3.1605    0.0000 C   0  0  0  0  0  0  0  0  0  0  0  0
    2.6484   -2.7480    0.0000 C   0  0  0  0  0  0  0  0  0  0  0  0
    1.2195   -1.9230    0.0000 C   0  0  0  0  0  0  0  0  0  0  0  0
    1.2195   -2.7480    0.0000 C   0  0  0  0  0  0  0  0  0  0  0  0
    0.5050   -3.1605    0.0000 C   0  0  0  0  0  0  0  0  0  0  0  0
   -0.2095   -2.7480    0.0000 C   0  0  0  0  0  0  0  0  0  0  0  0
   -0.2095   -1.9230    0.0000 C   0  0  0  0  0  0  0  0  0  0  0  0
    0.5050   -1.5105    0.0000 C   0  0  0  0  0  0  0  0  0  0  0  0
  1  2  1  0
  2  3  1  0
  2  7  1  0
  3  4  2  0
  4  5  1  0
  5  6  1  0
  5  7  2  0
  7  8  1  0
  8  9  2  0
  8 13  1  0
  9 10  1  0
 10 11  2  0
 10 24  1  0
 11 12  1  0
 11 14  1  0
 12 13  2  0
 14 15  2  0
 14 19  1  0
 15 16  1  0
 15 24  1  0
 16 17  2  0
 17 18  1  0
 17 20  1  0
 18 19  2  0
 20 21  1  0
 20 22  1  0
 20 23  1  0
 25 24  1  0
 25 26  1  1
 25 32  1  0
 26 27  1  0
 26 31  1  0
 27 28  1  0
 28 29  1  0
 29 30  1  0
 30 31  1  0
 32 33  2  0
 32 37  1  0
 33 34  1  0
 34 35  2  0
 35 36  1  0
 36 37  2  0
M  END
>  <DRUGBANK_ID>  (1) 
DB15435

>  <COMMON_NAME>  (1) 
BMS-986158

>  <CAS_NUMBER>  (1) 
1800340-40-2

>  <UNII>  (1) 
X8BW0MQ5PI

$$$$
