SX4
     RDKit          2D

 23 25  0  0  0  0  0  0  0  0999 V2000
   -1.9064    1.1817    0.0000 Cl  0  0  0  0  0  0  0  0  0  0  0  0
   -1.2933    1.7338    0.0000 C   0  0  0  0  0  0  0  0  0  0  0  0
   -1.4648    2.5407    0.0000 C   0  0  0  0  0  0  0  0  0  0  0  0
   -0.8517    3.0928    0.0000 C   0  0  0  0  0  0  0  0  0  0  0  0
   -0.0671    2.8378    0.0000 C   0  0  0  0  0  0  0  0  0  0  0  0
    0.1044    2.0309    0.0000 C   0  0  0  0  0  0  0  0  0  0  0  0
   -0.5087    1.4788    0.0000 C   0  0  0  0  0  0  0  0  0  0  0  0
   -0.3371    0.6718    0.0000 C   0  0  0  0  0  0  0  0  0  0  0  0
    0.4475    0.4169    0.0000 C   0  0  0  0  0  0  0  0  0  0  0  0
    1.1149    0.9018    0.0000 C   0  0  0  0  0  0  0  0  0  0  0  0
    1.7824    0.4169    0.0000 C   0  0  0  0  0  0  0  0  0  0  0  0
    1.5274   -0.3677    0.0000 C   0  0  0  0  0  0  0  0  0  0  0  0
    0.7024   -0.3677    0.0000 N   0  0  0  0  0  0  0  0  0  0  0  0
    0.2175   -1.0352    0.0000 C   0  0  0  0  0  0  0  0  0  0  0  0
   -0.6030   -0.9489    0.0000 O   0  0  0  0  0  0  0  0  0  0  0  0
    0.5531   -1.7888    0.0000 C   0  0  0  0  0  0  0  0  0  0  0  0
    1.3735   -1.8751    0.0000 C   0  0  0  0  0  0  0  0  0  0  0  0
    1.8585   -1.2076    0.0000 N   0  0  0  0  0  0  0  0  0  0  0  0
    0.0681   -2.4563    0.0000 C   0  0  0  0  0  0  0  0  0  0  0  0
    0.4037   -3.2099    0.0000 C   0  0  0  0  0  0  0  0  0  0  0  0
   -0.0812   -3.8774    0.0000 Br  0  0  0  0  0  0  0  0  0  0  0  0
    1.2242   -3.2962    0.0000 C   0  0  0  0  0  0  0  0  0  0  0  0
    1.7091   -2.6287    0.0000 C   0  0  0  0  0  0  0  0  0  0  0  0
  1  2  1  0
  2  3  2  0
  3  4  1  0
  5  4  2  0
  6  5  1  0
  7  2  1  0
  7  6  2  0
  8  7  1  0
  9  8  1  1
 10  9  1  0
 11 10  1  0
 11 12  1  0
 12 13  1  0
 13  9  1  0
 14 13  1  0
 14 16  1  0
 15 14  2  0
 16 17  2  0
 17 23  1  0
 17 18  1  0
 19 16  1  0
 19 20  2  0
 20 22  1  0
 21 20  1  0
 22 23  2  0
M  END
>  <DRUGBANK_ID>  (1) 
DB08580

>  <COMMON_NAME>  (1) 
4-bromo-2-{[(2R)-2-(2-chlorobenzyl)pyrrolidin-1-yl]carbonyl}aniline

$$$$
