
     RDKit          2D

 28 32  0  0  0  0  0  0  0  0999 V2000
    4.1080   -0.8093    0.0000 C   0  0  0  0  0  0  0  0  0  0  0  0
    3.4084   -0.3721    0.0000 C   0  0  0  0  0  0  0  0  0  0  0  0
    3.0993   -1.1370    0.0000 C   0  0  0  0  0  0  0  0  0  0  0  0
    3.9604    0.2410    0.0000 O   0  0  0  0  0  0  0  0  0  0  0  0
    3.7054    1.0256    0.0000 C   0  0  0  0  0  0  0  0  0  0  0  0
    2.8985    1.1971    0.0000 C   0  0  0  0  0  0  0  0  0  0  0  0
    2.3464    0.5840    0.0000 N   0  0  0  0  0  0  0  0  0  0  0  0
    2.6014   -0.2006    0.0000 C   0  0  0  0  0  0  0  0  0  0  0  0
    1.9339   -0.6855    0.0000 N   0  0  0  0  0  0  0  0  0  0  0  0
    1.2665   -0.2006    0.0000 C   0  0  0  0  0  0  0  0  0  0  0  0
    0.4595   -0.3721    0.0000 C   0  0  0  0  0  0  0  0  0  0  0  0
   -0.0925    0.2410    0.0000 N   0  0  0  0  0  0  0  0  0  0  0  0
    0.1624    1.0256    0.0000 C   0  0  0  0  0  0  0  0  0  0  0  0
    0.9694    1.1971    0.0000 N   0  0  0  0  0  0  0  0  0  0  0  0
    1.5214    0.5840    0.0000 C   0  0  0  0  0  0  0  0  0  0  0  0
   -0.3896    1.6387    0.0000 C   0  0  0  0  0  0  0  0  0  0  0  0
   -1.1966    1.4672    0.0000 C   0  0  0  0  0  0  0  0  0  0  0  0
   -1.7486    2.0803    0.0000 N   0  0  0  0  0  0  0  0  0  0  0  0
   -1.4937    2.8649    0.0000 C   0  0  0  0  0  0  0  0  0  0  0  0
   -2.0457    3.4780    0.0000 N   0  0  0  0  0  0  0  0  0  0  0  0
   -0.6867    3.0364    0.0000 N   0  0  0  0  0  0  0  0  0  0  0  0
   -0.1347    2.4233    0.0000 C   0  0  0  0  0  0  0  0  0  0  0  0
    0.2046   -1.1567    0.0000 N   0  0  0  0  0  0  0  0  0  0  0  0
    0.7566   -1.7698    0.0000 C   0  0  0  0  0  0  0  0  0  0  0  0
    0.5017   -2.5545    0.0000 C   0  0  0  0  0  0  0  0  0  0  0  0
   -0.3053   -2.7260    0.0000 O   0  0  0  0  0  0  0  0  0  0  0  0
   -0.8573   -2.1129    0.0000 C   0  0  0  0  0  0  0  0  0  0  0  0
   -0.6024   -1.3283    0.0000 C   0  0  0  0  0  0  0  0  0  0  0  0
  1  2  1  0
  2  3  1  0
  2  4  1  0
  2  8  1  0
  4  5  1  0
  5  6  1  0
  6  7  1  0
  7  8  1  0
  7 15  1  0
  8  9  2  0
  9 10  1  0
 10 11  1  0
 10 15  2  0
 11 12  2  0
 11 23  1  0
 12 13  1  0
 13 14  2  0
 13 16  1  0
 14 15  1  0
 16 17  2  0
 16 22  1  0
 17 18  1  0
 18 19  2  0
 19 20  1  0
 19 21  1  0
 21 22  2  0
 23 24  1  0
 23 28  1  0
 24 25  1  0
 25 26  1  0
 26 27  1  0
 27 28  1  0
M  END
>  <DRUGBANK_ID>  (1) 
DB15186

>  <COMMON_NAME>  (1) 
Paxalisib

>  <CAS_NUMBER>  (1) 
1382979-44-3

>  <UNII>  (1) 
P5DKZ70636

>  <SYNONYMS>  (1) 
5-(6,6-dimethyl-4-morpholino-8,9-dihydro-6H-[1,4]oxazino[3,4-e]purin-2-yl)pyrimidin-2-amine

$$$$
