V25
     RDKit          2D

 22 23  0  0  0  0  0  0  0  0999 V2000
    2.1970    9.5572    0.0000 C   0  0  0  0  0  0  0  0  0  0  0  0
    2.6095    8.8427    0.0000 C   0  0  0  0  0  0  0  0  0  0  0  0
    2.1970    8.1283    0.0000 O   0  0  0  0  0  0  0  0  0  0  0  0
    2.6095    7.4138    0.0000 C   0  0  0  0  0  0  0  0  0  0  0  0
    2.1970    6.6993    0.0000 O   0  0  0  0  0  0  0  0  0  0  0  0
    3.4345    7.4138    0.0000 C   0  0  0  0  0  0  0  0  0  0  0  0
    3.9194    8.0812    0.0000 N   0  0  0  0  0  0  0  0  0  0  0  0
    3.6644    8.8658    0.0000 C   0  0  0  0  0  0  0  0  0  0  0  0
    4.7040    7.8263    0.0000 C   0  0  0  0  0  0  0  0  0  0  0  0
    5.4185    8.2388    0.0000 C   0  0  0  0  0  0  0  0  0  0  0  0
    5.4185    9.0638    0.0000 Cl  0  0  0  0  0  0  0  0  0  0  0  0
    6.1329    7.8263    0.0000 C   0  0  0  0  0  0  0  0  0  0  0  0
    6.8474    8.2388    0.0000 Cl  0  0  0  0  0  0  0  0  0  0  0  0
    6.1329    7.0013    0.0000 C   0  0  0  0  0  0  0  0  0  0  0  0
    5.4185    6.5888    0.0000 C   0  0  0  0  0  0  0  0  0  0  0  0
    4.7040    7.0013    0.0000 C   0  0  0  0  0  0  0  0  0  0  0  0
    3.9194    6.7463    0.0000 C   0  0  0  0  0  0  0  0  0  0  0  0
    3.6644    5.9617    0.0000 C   0  0  0  0  0  0  0  0  0  0  0  0
    2.8575    5.7902    0.0000 C   0  0  0  0  0  0  0  0  0  0  0  0
    2.0505    5.6187    0.0000 N   0  0  0  0  0  0  0  0  0  0  0  0
    4.2165    5.3486    0.0000 C   0  0  0  0  0  0  0  0  0  0  0  0
    5.0234    5.5202    0.0000 N   0  0  0  0  0  0  0  0  0  0  0  0
  1  2  1  0
  2  3  1  0
  3  4  1  0
  4  5  2  0
  4  6  1  0
  6  7  1  0
  6 17  2  0
  7  8  1  0
  7  9  1  0
  9 10  2  0
  9 16  1  0
 10 11  1  0
 10 12  1  0
 12 13  1  0
 12 14  2  0
 14 15  1  0
 15 16  2  0
 16 17  1  0
 17 18  1  0
 18 19  1  0
 18 21  2  0
 19 20  3  0
 21 22  1  0
M  END
>  <DRUGBANK_ID>  (1) 
DB08691

>  <COMMON_NAME>  (1) 
ethyl 3-[(E)-2-amino-1-cyanoethenyl]-6,7-dichloro-1-methyl-1H-indole-2-carboxylate

$$$$
