
     RDKit          2D

 33 36  0  0  0  0  0  0  0  0999 V2000
   -2.0686   -5.0720    0.0000 C   0  0  0  0  0  0  0  0  0  0  0  0
   -2.2401   -4.2651    0.0000 O   0  0  0  0  0  0  0  0  0  0  0  0
   -1.6271   -3.7130    0.0000 C   0  0  0  0  0  0  0  0  0  0  0  0
   -1.7986   -2.9061    0.0000 C   0  0  0  0  0  0  0  0  0  0  0  0
   -1.1855   -2.3540    0.0000 C   0  0  0  0  0  0  0  0  0  0  0  0
   -0.4009   -2.6090    0.0000 C   0  0  0  0  0  0  0  0  0  0  0  0
   -0.2293   -3.4160    0.0000 C   0  0  0  0  0  0  0  0  0  0  0  0
   -0.8424   -3.9680    0.0000 C   0  0  0  0  0  0  0  0  0  0  0  0
   -0.6709   -4.7750    0.0000 O   0  0  0  0  0  0  0  0  0  0  0  0
   -1.2840   -5.3270    0.0000 C   0  0  0  0  0  0  0  0  0  0  0  0
   -1.1125   -6.1340    0.0000 C   0  0  0  0  0  0  0  0  0  0  0  0
   -1.7256   -6.6860    0.0000 C   0  0  0  0  0  0  0  0  0  0  0  0
   -1.5540   -7.4930    0.0000 C   0  0  0  0  0  0  0  0  0  0  0  0
   -2.1671   -8.0450    0.0000 C   0  0  0  0  0  0  0  0  0  0  0  0
   -2.9518   -7.7901    0.0000 C   0  0  0  0  0  0  0  0  0  0  0  0
   -3.1233   -6.9831    0.0000 C   0  0  0  0  0  0  0  0  0  0  0  0
   -3.9079   -6.7281    0.0000 C   0  0  0  0  0  0  0  0  0  0  0  0
   -2.5102   -6.4311    0.0000 C   0  0  0  0  0  0  0  0  0  0  0  0
    0.2122   -2.0569    0.0000 C   0  0  0  0  0  0  0  0  0  0  0  0
    0.9969   -2.3119    0.0000 O   0  0  0  0  0  0  0  0  0  0  0  0
    0.0407   -1.2500    0.0000 N   0  0  0  0  0  0  0  0  0  0  0  0
    0.6538   -0.6979    0.0000 C   0  0  0  0  0  0  0  0  0  0  0  0
    1.1387   -0.0305    0.0000 C   0  0  0  0  0  0  0  0  0  0  0  0
    1.9233   -0.2854    0.0000 C   0  0  0  0  0  0  0  0  0  0  0  0
    2.6378    0.1271    0.0000 C   0  0  0  0  0  0  0  0  0  0  0  0
    3.3523   -0.2854    0.0000 C   0  0  0  0  0  0  0  0  0  0  0  0
    3.3523   -1.1104    0.0000 C   0  0  0  0  0  0  0  0  0  0  0  0
    2.6378   -1.5229    0.0000 C   0  0  0  0  0  0  0  0  0  0  0  0
    1.9233   -1.1104    0.0000 C   0  0  0  0  0  0  0  0  0  0  0  0
    1.1387   -1.3654    0.0000 C   0  0  0  0  0  0  0  0  0  0  0  0
    0.0407   -0.1459    0.0000 C   0  0  0  0  0  0  0  0  0  0  0  0
    0.2122    0.6611    0.0000 O   0  0  0  0  0  0  0  0  0  0  0  0
   -0.7439   -0.4008    0.0000 O   0  0  0  0  0  0  0  0  0  0  0  0
  1  2  1  0
  2  3  1  0
  3  4  2  0
  3  8  1  0
  4  5  1  0
  5  6  2  0
  6  7  1  0
  6 19  1  0
  7  8  2  0
  8  9  1  0
  9 10  1  0
 10 11  1  0
 11 12  1  0
 12 13  2  0
 12 18  1  0
 13 14  1  0
 14 15  2  0
 15 16  1  0
 16 17  1  0
 16 18  2  0
 19 20  2  0
 19 21  1  0
 21 22  1  0
 22 23  1  0
 22 30  1  0
 22 31  1  0
 23 24  1  0
 24 25  1  0
 24 29  2  0
 25 26  2  0
 26 27  1  0
 27 28  2  0
 28 29  1  0
 29 30  1  0
 31 32  1  0
 31 33  2  0
M  END
>  <DRUGBANK_ID>  (1) 
DB18124

>  <COMMON_NAME>  (1) 
Fipaxalparant

>  <CAS_NUMBER>  (1) 
1195941-38-8

>  <UNII>  (1) 
Y76WZ464EY

>  <SYNONYMS>  (1) 
1h-indene-2-carboxylic acid, 2,3-dihydro-2-((4-methoxy-3-(2-(3-methylphenyl)ethoxy)benzoyl)amino)-

$$$$
