TTT
     RDKit          2D

 23 25  0  0  0  0  0  0  0  0999 V2000
   -0.2644   -0.9683    0.0000 C   0  0  0  0  0  0  0  0  0  0  0  0
   -0.9788   -1.3808    0.0000 C   0  0  0  0  0  0  0  0  0  0  0  0
    1.1646    1.5067    0.0000 C   0  0  0  0  0  0  0  0  0  0  0  0
   -0.2644    2.3317    0.0000 C   0  0  0  0  0  0  0  0  0  0  0  0
   -0.9788   -2.2058    0.0000 C   0  0  0  0  0  0  0  0  0  0  0  0
    1.1646    2.3317    0.0000 C   0  0  0  0  0  0  0  0  0  0  0  0
    0.4501    2.7442    0.0000 C   0  0  0  0  0  0  0  0  0  0  0  0
   -1.6933   -0.9683    0.0000 C   0  0  0  0  0  0  0  0  0  0  0  0
    1.8790    1.0942    0.0000 C   0  0  0  0  0  0  0  0  0  0  0  0
   -0.2644   -2.6183    0.0000 C   0  0  0  0  0  0  0  0  0  0  0  0
   -2.4078   -1.3808    0.0000 C   0  0  0  0  0  0  0  0  0  0  0  0
    2.5935    1.5067    0.0000 C   0  0  0  0  0  0  0  0  0  0  0  0
   -2.4078   -2.2058    0.0000 C   0  0  0  0  0  0  0  0  0  0  0  0
    2.5935    2.3317    0.0000 C   0  0  0  0  0  0  0  0  0  0  0  0
    0.4501   -1.3808    0.0000 O   0  0  0  0  0  0  0  0  0  0  0  0
   -1.6933   -2.6183    0.0000 C   0  0  0  0  0  0  0  0  0  0  0  0
   -3.1223   -0.9683    0.0000 N   0  0  0  0  0  0  0  0  0  0  0  0
   -0.2644   -0.1433    0.0000 N   0  0  0  0  0  0  0  0  0  0  0  0
    0.4501    0.2692    0.0000 C   0  0  0  0  0  0  0  0  0  0  0  0
    1.1646   -0.1433    0.0000 C   0  0  0  0  0  0  0  0  0  0  0  0
    0.4501    1.0942    0.0000 C   0  0  0  0  0  0  0  0  0  0  0  0
    1.8790    2.7442    0.0000 C   0  0  0  0  0  0  0  0  0  0  0  0
   -0.2644    1.5067    0.0000 C   0  0  0  0  0  0  0  0  0  0  0  0
  1  2  1  0
  1 15  2  0
  1 18  1  0
  2  5  2  0
  2  8  1  0
  3  6  2  0
  3  9  1  0
  3 21  1  0
  4  7  2  0
  4 23  1  0
  5 10  1  0
  5 16  1  0
  6  7  1  0
  6 22  1  0
  8 11  2  0
  9 12  2  0
 11 13  1  0
 11 17  1  0
 12 14  1  0
 13 16  2  0
 14 22  2  0
 18 19  1  0
 19 20  1  1
 19 21  1  0
 21 23  2  0
M  END
>  <DRUGBANK_ID>  (1) 
DB08656

>  <COMMON_NAME>  (1) 
5-amino-2-methyl-N-[(1R)-1-naphthalen-1-ylethyl]benzamide

>  <UNII>  (1) 
SQH4947NDN

$$$$
