5SC
     RDKit          2D

 26 29  0  0  0  0  0  0  0  0999 V2000
   -2.1329    0.8911    0.0000 C   0  0  0  0  0  0  0  0  0  0  0  0
   -1.3483    0.6362    0.0000 C   0  0  0  0  0  0  0  0  0  0  0  0
   -1.3483   -0.1888    0.0000 N   0  0  0  0  0  0  0  0  0  0  0  0
   -2.1329   -0.4438    0.0000 N   0  0  0  0  0  0  0  0  0  0  0  0
   -2.6179    0.2237    0.0000 C   0  0  0  0  0  0  0  0  0  0  0  0
   -0.6338    1.0487    0.0000 N   0  0  0  0  0  0  0  0  0  0  0  0
    0.0806    0.6362    0.0000 C   0  0  0  0  0  0  0  0  0  0  0  0
    0.0806   -0.1888    0.0000 C   0  0  0  0  0  0  0  0  0  0  0  0
   -0.6338   -0.6013    0.0000 C   0  0  0  0  0  0  0  0  0  0  0  0
   -0.6338   -1.4263    0.0000 N   0  0  0  0  0  0  0  0  0  0  0  0
    0.7951    1.0487    0.0000 C   0  0  0  0  0  0  0  0  0  0  0  0
   -1.3483   -1.8388    0.0000 C   0  0  0  0  0  0  0  0  0  0  0  0
   -1.3483   -2.6638    0.0000 C   0  0  0  0  0  0  0  0  0  0  0  0
   -2.0628   -3.0763    0.0000 C   0  0  0  0  0  0  0  0  0  0  0  0
   -2.0628   -3.9013    0.0000 N   0  0  0  0  0  0  0  0  0  0  0  0
   -1.3483   -4.3138    0.0000 C   0  0  0  0  0  0  0  0  0  0  0  0
   -0.6338   -3.9013    0.0000 C   0  0  0  0  0  0  0  0  0  0  0  0
   -0.6338   -3.0763    0.0000 C   0  0  0  0  0  0  0  0  0  0  0  0
    0.7951    1.8737    0.0000 C   0  0  0  0  0  0  0  0  0  0  0  0
    1.5096    2.2862    0.0000 C   0  0  0  0  0  0  0  0  0  0  0  0
    2.2240    1.8737    0.0000 C   0  0  0  0  0  0  0  0  0  0  0  0
    2.2240    1.0487    0.0000 C   0  0  0  0  0  0  0  0  0  0  0  0
    1.5096    0.6362    0.0000 C   0  0  0  0  0  0  0  0  0  0  0  0
   -2.3879    1.6757    0.0000 Br  0  0  0  0  0  0  0  0  0  0  0  0
    0.0806    2.2862    0.0000 C   0  0  0  0  0  0  0  0  0  0  0  0
   -2.7773   -4.3138    0.0000 O   0  0  0  0  0  0  0  0  0  0  0  0
  1  2  2  0
  1 24  1  0
  2  6  1  0
  3  9  1  0
  3  2  1  0
  4  5  2  0
  4  3  1  0
  5  1  1  0
  7  6  2  0
  7 11  1  0
  8  7  1  0
  9  8  2  0
 10 12  1  0
 10  9  1  0
 11 19  2  0
 13 18  1  0
 13 12  1  0
 14 13  2  0
 15 16  2  0
 15 14  1  0
 16 17  1  0
 17 18  2  0
 19 20  1  0
 19 25  1  0
 21 20  2  0
 22 21  1  0
 23 22  2  0
 23 11  1  0
 26 15  1  0
M  CHG  2  15   1  26  -1
M  END
>  <DRUGBANK_ID>  (1) 
DB07179

>  <COMMON_NAME>  (1) 
3-((3-bromo-5-o-tolylpyrazolo[1,5-a]pyrimidin-7-ylamino)methyl)pyridine 1-oxide

$$$$
