
     RDKit          2D

 29 32  0  0  0  0  0  0  0  0999 V2000
   -0.3354   -0.5180    0.0000 C   0  0  0  0  0  0  0  0  0  0  0  0
   -0.8204   -1.1854    0.0000 N   0  0  0  0  0  0  0  0  0  0  0  0
   -1.6410   -1.0991    0.0000 C   0  0  0  0  0  0  0  0  0  0  0  0
   -2.1259   -1.7666    0.0000 C   0  0  0  0  0  0  0  0  0  0  0  0
   -1.7904   -2.5204    0.0000 Cl  0  0  0  0  0  0  0  0  0  0  0  0
   -2.9465   -1.6803    0.0000 C   0  0  0  0  0  0  0  0  0  0  0  0
   -3.2821   -0.9267    0.0000 N   0  0  0  0  0  0  0  0  0  0  0  0
   -4.1025   -0.8404    0.0000 O   0  0  0  0  0  0  0  0  0  0  0  0
   -2.7971   -0.2592    0.0000 C   0  0  0  0  0  0  0  0  0  0  0  0
   -1.9766   -0.3454    0.0000 C   0  0  0  0  0  0  0  0  0  0  0  0
   -1.4916    0.3220    0.0000 Cl  0  0  0  0  0  0  0  0  0  0  0  0
   -0.6710    0.2357    0.0000 O   0  0  0  0  0  0  0  0  0  0  0  0
    0.4849   -0.6042    0.0000 C   0  0  0  0  0  0  0  0  0  0  0  0
    0.9698    0.0632    0.0000 C   0  0  0  0  0  0  0  0  0  0  0  0
    1.7904   -0.0229    0.0000 C   0  0  0  0  0  0  0  0  0  0  0  0
    2.1260    0.7307    0.0000 O   0  0  0  0  0  0  0  0  0  0  0  0
    1.5129    1.2828    0.0000 C   0  0  0  0  0  0  0  0  0  0  0  0
    0.7984    0.8702    0.0000 C   0  0  0  0  0  0  0  0  0  0  0  0
    0.0838    1.2828    0.0000 C   0  0  0  0  0  0  0  0  0  0  0  0
    0.0838    2.1078    0.0000 N   0  0  0  0  0  0  0  0  0  0  0  0
    0.7984    2.5204    0.0000 C   0  0  0  0  0  0  0  0  0  0  0  0
    1.5129    2.1078    0.0000 C   0  0  0  0  0  0  0  0  0  0  0  0
    2.1260   -0.7766    0.0000 C   0  0  0  0  0  0  0  0  0  0  0  0
    2.9465   -0.8628    0.0000 O   0  0  0  0  0  0  0  0  0  0  0  0
    3.2821   -1.6166    0.0000 C   0  0  0  0  0  0  0  0  0  0  0  0
    2.7971   -2.2840    0.0000 F   0  0  0  0  0  0  0  0  0  0  0  0
    4.1025   -1.7028    0.0000 F   0  0  0  0  0  0  0  0  0  0  0  0
    1.6410   -1.4441    0.0000 C   0  0  0  0  0  0  0  0  0  0  0  0
    0.8205   -1.3579    0.0000 C   0  0  0  0  0  0  0  0  0  0  0  0
  1  2  1  0
  1 12  2  0
  1 13  1  0
  2  3  1  0
  3  4  2  0
  3 10  1  0
  4  5  1  0
  4  6  1  0
  6  7  2  0
  7  8  1  0
  9  7  1  0
 10  9  2  0
 10 11  1  0
 13 14  1  0
 13 29  2  0
 14 15  2  0
 14 18  1  0
 15 16  1  0
 15 23  1  0
 16 17  1  0
 17 22  2  0
 18 17  1  0
 18 19  2  0
 19 20  1  0
 20 21  2  0
 22 21  1  0
 23 24  1  0
 24 25  1  0
 25 26  1  0
 25 27  1  0
 28 23  2  0
 29 28  1  0
M  CHG  2   7   1   8  -1
M  END
>  <DRUGBANK_ID>  (1) 
DB11838

>  <COMMON_NAME>  (1) 
Revamilast

>  <CAS_NUMBER>  (1) 
893555-90-3

>  <UNII>  (1) 
30LE65637T

>  <SYNONYMS>  (1) 
Revamilast; RÃ©vamilast; Revamilastum

$$$$
