ZZY
     RDKit          2D

 24 26  0  0  0  0  0  0  0  0999 V2000
    3.2339    0.9299    0.0000 O   0  0  0  0  0  0  0  0  0  0  0  0
    2.5195    0.5174    0.0000 C   0  0  0  0  0  0  0  0  0  0  0  0
    2.5195   -0.3076    0.0000 N   0  0  0  0  0  0  0  0  0  0  0  0
    1.8050    0.9299    0.0000 C   0  0  0  0  0  0  0  0  0  0  0  0
    1.0905    0.5174    0.0000 C   0  0  0  0  0  0  0  0  0  0  0  0
    0.3760    0.9299    0.0000 C   0  0  0  0  0  0  0  0  0  0  0  0
    1.8050    1.7549    0.0000 C   0  0  0  0  0  0  0  0  0  0  0  0
    1.0905    2.1674    0.0000 N   0  0  0  0  0  0  0  0  0  0  0  0
    0.3760    1.7549    0.0000 C   0  0  0  0  0  0  0  0  0  0  0  0
   -0.4086    2.0098    0.0000 C   0  0  0  0  0  0  0  0  0  0  0  0
   -0.8935    1.3424    0.0000 C   0  0  0  0  0  0  0  0  0  0  0  0
   -0.4086    0.6750    0.0000 N   0  0  0  0  0  0  0  0  0  0  0  0
   -0.6635   -0.1097    0.0000 S   0  0  0  0  0  0  0  0  0  0  0  0
   -1.4481    0.1453    0.0000 O   0  0  0  0  0  0  0  0  0  0  0  0
    0.1211   -0.3646    0.0000 O   0  0  0  0  0  0  0  0  0  0  0  0
   -0.9185   -0.8943    0.0000 C   0  0  0  0  0  0  0  0  0  0  0  0
   -0.3664   -1.5074    0.0000 C   0  0  0  0  0  0  0  0  0  0  0  0
    0.4406   -1.3358    0.0000 N   0  0  0  0  0  0  0  0  0  0  0  0
    0.6955   -0.5512    0.0000 O   0  0  0  0  0  0  0  0  0  0  0  0
    0.9926   -1.9489    0.0000 O   0  0  0  0  0  0  0  0  0  0  0  0
   -1.7254   -1.0658    0.0000 C   0  0  0  0  0  0  0  0  0  0  0  0
   -1.9804   -1.8504    0.0000 C   0  0  0  0  0  0  0  0  0  0  0  0
   -1.4283   -2.4635    0.0000 C   0  0  0  0  0  0  0  0  0  0  0  0
   -0.6214   -2.2920    0.0000 C   0  0  0  0  0  0  0  0  0  0  0  0
  1  2  2  0
  2  3  1  0
  2  4  1  0
  4  5  2  0
  4  7  1  0
  5  6  1  0
  6  9  2  0
  6 12  1  0
  7  8  2  0
  8  9  1  0
  9 10  1  0
 10 11  2  0
 11 12  1  0
 12 13  1  0
 13 14  2  0
 13 15  2  0
 13 16  1  0
 16 17  2  0
 16 21  1  0
 17 18  1  0
 17 24  1  0
 18 19  1  0
 18 20  2  0
 21 22  2  0
 22 23  1  0
 23 24  2  0
M  CHG  2  18   1  19  -1
M  END
>  <DRUGBANK_ID>  (1) 
DB08791

>  <COMMON_NAME>  (1) 
1-[(2-NITROPHENYL)SULFONYL]-1H-PYRROLO[3,2-B]PYRIDINE-6-CARBOXAMIDE

$$$$
