
     RDKit          2D

 20 20  0  0  1  0  0  0  0  0999 V2000
   -5.4417    1.3579    0.0000 C   0  0  0  0  0  0  0  0  0  0  0  0
   -4.6213    1.2717    0.0000 C   0  0  0  0  0  0  0  0  0  0  0  0
   -4.2857    0.5180    0.0000 N   0  0  0  0  0  0  0  0  0  0  0  0
   -4.1363    1.9391    0.0000 C   0  0  0  0  0  0  0  0  0  0  0  0
   -4.4719    2.6928    0.0000 O   0  0  0  0  0  0  0  0  0  0  0  0
   -3.3159    1.8529    0.0000 N   0  0  0  0  0  0  0  0  0  0  0  0
   -2.7638    2.4660    0.0000 C   0  0  0  0  0  0  0  0  0  0  0  0
   -2.0101    2.1304    0.0000 C   0  0  0  0  0  0  0  0  0  0  0  0
   -1.2957    2.5429    0.0000 C   0  0  0  0  0  0  0  0  0  0  0  0
   -0.5812    2.1304    0.0000 C   0  0  0  0  0  0  0  0  0  0  0  0
    0.1333    2.5429    0.0000 C   0  0  0  0  0  0  0  0  0  0  0  0
    0.8477    2.1304    0.0000 B   0  0  0  0  0  0  0  0  0  0  0  0
    1.5622    2.5429    0.0000 O   0  0  0  0  0  0  0  0  0  0  0  0
    0.8477    1.3054    0.0000 O   0  0  0  0  0  0  0  0  0  0  0  0
   -2.0964    1.3099    0.0000 C   0  0  0  0  0  0  0  0  0  0  0  0
   -1.2714    1.3099    0.0000 N   0  0  0  0  0  0  0  0  0  0  0  0
   -2.9034    1.1384    0.0000 C   0  0  0  0  0  0  0  0  0  0  0  0
   -2.0101    0.4894    0.0000 C   0  0  0  0  0  0  0  0  0  0  0  0
   -2.6776    0.0045    0.0000 O   0  0  0  0  0  0  0  0  0  0  0  0
   -1.2565    0.1539    0.0000 O   0  0  0  0  0  0  0  0  0  0  0  0
  2  1  1  1
  2  3  1  0
  2  4  1  0
  4  5  2  0
  4  6  1  0
  6  7  1  0
  6 17  1  0
  8  7  1  0
  8  9  1  6
  8 15  1  0
  9 10  1  0
 10 11  1  0
 11 12  1  0
 12 13  1  0
 12 14  1  0
 15 16  1  1
 15 17  1  0
 15 18  1  0
 18 19  1  0
 18 20  2  0
M  END
>  <DRUGBANK_ID>  (1) 
DB15286

>  <COMMON_NAME>  (1) 
CB-1158

>  <CAS_NUMBER>  (1) 
2095732-06-0

>  <UNII>  (1) 
IFD73D535A

>  <SYNONYMS>  (1) 
INCB001158

$$$$
