
     RDKit          2D

 25 26  0  0  1  0  0  0  0  0999 V2000
   -6.8473   -2.1729    0.0000 C   0  0  0  0  0  0  0  0  0  0  0  0
   -6.0372   -2.3288    0.0000 C   0  0  0  0  0  0  0  0  0  0  0  0
   -5.7671   -3.1084    0.0000 C   0  0  0  0  0  0  0  0  0  0  0  0
   -5.4971   -1.7052    0.0000 C   0  0  0  0  0  0  0  0  0  0  0  0
   -4.6869   -1.8611    0.0000 C   0  0  0  0  0  0  0  0  0  0  0  0
   -4.4169   -2.6407    0.0000 O   0  0  0  0  0  0  0  0  0  0  0  0
   -4.1469   -1.2375    0.0000 O   0  0  0  0  0  0  0  0  0  0  0  0
   -3.3367   -1.3934    0.0000 C   0  0  0  0  0  0  0  0  0  0  0  0
   -2.7966   -0.7697    0.0000 C   0  0  0  0  0  0  0  0  0  0  0  0
   -1.9865   -0.9257    0.0000 C   0  0  0  0  0  0  0  0  0  0  0  0
   -1.4464   -0.3020    0.0000 C   0  0  0  0  0  0  0  0  0  0  0  0
   -0.6363   -0.4579    0.0000 N   0  0  0  0  0  0  0  0  0  0  0  0
   -0.2862   -1.2050    0.0000 C   0  0  0  0  0  0  0  0  0  0  0  0
    0.5324   -1.1029    0.0000 N   0  0  0  0  0  0  0  0  0  0  0  0
    0.6883   -0.2928    0.0000 C   0  0  0  0  0  0  0  0  0  0  0  0
   -0.0340    0.1058    0.0000 C   0  0  0  0  0  0  0  0  0  0  0  0
   -0.0499    0.9307    0.0000 N   0  0  0  0  0  0  0  0  0  0  0  0
    0.6565    1.3569    0.0000 C   0  0  0  0  0  0  0  0  0  0  0  0
    1.3788    0.9583    0.0000 N   0  0  0  0  0  0  0  0  0  0  0  0
    1.3947    0.1334    0.0000 C   0  0  0  0  0  0  0  0  0  0  0  0
    2.1170   -0.2652    0.0000 O   0  0  0  0  0  0  0  0  0  0  0  0
    0.6405    2.1818    0.0000 N   0  0  0  0  0  0  0  0  0  0  0  0
   -1.7165   -1.7052    0.0000 C   0  0  0  0  0  0  0  0  0  0  0  0
   -2.2565   -2.3288    0.0000 O   0  0  0  0  0  0  0  0  0  0  0  0
   -5.7671   -0.9257    0.0000 N   0  0  0  0  0  0  0  0  0  0  0  0
  1  2  1  0
  2  3  1  0
  2  4  1  0
  4  5  1  0
  4 25  1  6
  5  6  2  0
  5  7  1  0
  7  8  1  0
  8  9  1  0
 10  9  1  6
 10 11  1  0
 10 23  1  0
 11 12  1  0
 12 13  1  0
 12 16  1  0
 13 14  2  0
 14 15  1  0
 15 16  2  0
 15 20  1  0
 16 17  1  0
 17 18  2  0
 18 19  1  0
 18 22  1  0
 19 20  1  0
 20 21  2  0
 23 24  1  0
M  END
>  <DRUGBANK_ID>  (1) 
DB06575

>  <COMMON_NAME>  (1) 
Valomaciclovir

>  <CAS_NUMBER>  (1) 
195157-34-7

>  <UNII>  (1) 
F094Y61748

>  <SYNONYMS>  (1) 
Valomaciclovir

$$$$
