
     RDKit          2D

 15 15  0  0  0  0  0  0  0  0999 V2000
   -0.7145    3.7125    0.0000 C   0  0  0  0  0  0  0  0  0  0  0  0
   -0.0000    3.3000    0.0000 C   0  0  0  0  0  0  0  0  0  0  0  0
    1.4289   -0.0000    0.0000 C   0  0  0  0  0  0  0  0  0  0  0  0
    1.4289    0.8250    0.0000 C   0  0  0  0  0  0  0  0  0  0  0  0
   -0.0000    2.4750    0.0000 C   0  0  0  0  0  0  0  0  0  0  0  0
    0.0000   -0.0000    0.0000 C   0  0  0  0  0  0  0  0  0  0  0  0
    0.7145   -1.2375    0.0000 C   0  0  0  0  0  0  0  0  0  0  0  0
    0.7145   -0.4125    0.0000 C   0  0  0  0  0  0  0  0  0  0  0  0
    0.0000    0.8250    0.0000 C   0  0  0  0  0  0  0  0  0  0  0  0
    0.7145    1.2375    0.0000 C   0  0  0  0  0  0  0  0  0  0  0  0
   -0.0000   -1.6500    0.0000 C   0  0  0  0  0  0  0  0  0  0  0  0
   -0.7145    1.2375    0.0000 Cl  0  0  0  0  0  0  0  0  0  0  0  0
   -0.0000   -2.4750    0.0000 O   0  0  0  0  0  0  0  0  0  0  0  0
   -0.7145   -1.2375    0.0000 O   0  0  0  0  0  0  0  0  0  0  0  0
    0.7145    2.0625    0.0000 O   0  0  0  0  0  0  0  0  0  0  0  0
  2  1  2  0
  4  3  2  0
  5  2  1  0
  8  3  1  0
  8  6  2  0
  8  7  1  0
  9  6  1  0
 10  4  1  0
 10  9  2  0
 11  7  1  0
 12  9  1  0
 13 11  2  0
 14 11  1  0
 15  5  1  0
 15 10  1  0
M  END
>  <DRUGBANK_ID>  (1) 
DB13167

>  <COMMON_NAME>  (1) 
Alclofenac

>  <CAS_NUMBER>  (1) 
22131-79-9

>  <UNII>  (1) 
M9CP5H21N8

>  <SYNONYMS>  (1) 
(4-Allyloxy-3-chlorphenyl)essigsäure; [4-(allyloxy)-3-chlorophenyl]acetic acid; 3-Chloro-4-(2-propenyloxy)benzeneacetic acid; Alclofenac; Alclofénac; Alclofenaco; Alclofenacum; Alclophenac

$$$$
