
     RDKit          2D

 33 37  0  0  1  0  0  0  0  0999 V2000
    2.0701    1.1104    0.0000 C   0  0  0  0  0  0  0  0  0  0  0  0
    1.3556    0.6979    0.0000 C   0  0  0  0  0  0  0  0  0  0  0  0
    0.6411    1.1104    0.0000 C   0  0  0  0  0  0  0  0  0  0  0  0
    0.6411    1.9354    0.0000 C   0  0  0  0  0  0  0  0  0  0  0  0
    1.3556    2.3479    0.0000 C   0  0  0  0  0  0  0  0  0  0  0  0
    2.0701    1.9354    0.0000 C   0  0  0  0  0  0  0  0  0  0  0  0
    1.3556    3.1729    0.0000 O   0  0  0  0  0  0  0  0  0  0  0  0
    2.0701    3.5854    0.0000 C   0  0  0  0  0  0  0  0  0  0  0  0
    2.0701    4.4104    0.0000 C   0  0  0  0  0  0  0  0  0  0  0  0
    1.3556    4.8229    0.0000 C   0  0  0  0  0  0  0  0  0  0  0  0
    1.3556    5.6479    0.0000 C   0  0  0  0  0  0  0  0  0  0  0  0
    2.0701    6.0604    0.0000 C   0  0  0  0  0  0  0  0  0  0  0  0
    2.7845    5.6479    0.0000 C   0  0  0  0  0  0  0  0  0  0  0  0
    2.7845    4.8229    0.0000 C   0  0  0  0  0  0  0  0  0  0  0  0
    2.0701    6.8854    0.0000 C   0  0  0  0  0  0  0  0  0  0  0  0
    2.7845    7.2979    0.0000 N   0  0  0  0  0  0  0  0  0  0  0  0
    2.7845    8.1229    0.0000 C   0  0  0  0  0  0  0  0  0  0  0  0
    3.4990    8.5354    0.0000 C   0  0  0  0  0  0  0  0  0  0  0  0
    4.2135    8.1229    0.0000 O   0  0  0  0  0  0  0  0  0  0  0  0
    4.2135    7.2979    0.0000 C   0  0  0  0  0  0  0  0  0  0  0  0
    3.4990    6.8854    0.0000 C   0  0  0  0  0  0  0  0  0  0  0  0
   -0.1435    2.1904    0.0000 C   0  0  0  0  0  0  0  0  0  0  0  0
   -0.6284    1.5229    0.0000 N   0  0  0  0  0  0  0  0  0  0  0  0
   -0.1435    0.8555    0.0000 C   0  0  0  0  0  0  0  0  0  0  0  0
   -0.3984    0.0709    0.0000 O   0  0  0  0  0  0  0  0  0  0  0  0
   -1.4534    1.5229    0.0000 C   0  0  0  0  0  0  0  0  0  0  0  0
   -1.8659    0.8085    0.0000 C   0  0  0  0  0  0  0  0  0  0  0  0
   -2.6909    0.8085    0.0000 C   0  0  0  0  0  0  0  0  0  0  0  0
   -3.1034    1.5229    0.0000 C   0  0  0  0  0  0  0  0  0  0  0  0
   -3.9284    1.5229    0.0000 O   0  0  0  0  0  0  0  0  0  0  0  0
   -2.6909    2.2374    0.0000 N   0  0  0  0  0  0  0  0  0  0  0  0
   -1.8659    2.2374    0.0000 C   0  0  0  0  0  0  0  0  0  0  0  0
   -1.4534    2.9519    0.0000 O   0  0  0  0  0  0  0  0  0  0  0  0
  1  2  2  0
  1  6  1  0
  2  3  1  0
  3  4  2  0
  3 24  1  0
  4  5  1  0
  4 22  1  0
  5  6  2  0
  5  7  1  0
  7  8  1  0
  8  9  1  0
  9 10  2  0
  9 14  1  0
 10 11  1  0
 11 12  2  0
 12 13  1  0
 12 15  1  0
 13 14  2  0
 15 16  1  0
 16 17  1  0
 16 21  1  0
 17 18  1  0
 18 19  1  0
 19 20  1  0
 20 21  1  0
 22 23  1  0
 23 24  1  0
 24 25  2  0
 26 23  1  1
 26 27  1  0
 26 32  1  0
 27 28  1  0
 28 29  1  0
 29 30  2  0
 29 31  1  0
 31 32  1  0
 32 33  2  0
M  END
>  <DRUGBANK_ID>  (1) 
DB12101

>  <COMMON_NAME>  (1) 
Iberdomide

>  <CAS_NUMBER>  (1) 
1323403-33-3

>  <UNII>  (1) 
8V66F27X44

>  <SYNONYMS>  (1) 
(S)-3-(4-((4-(Morpholinomethyl)benzyl)oxy)-1-oxoisoindolin-2-yl)piperidine-2,6-dione; 2,6-Piperidinedione, 3-(1,3-dihydro-4-((4-(4-morpholinylmethyl)phenyl)methoxy)-1-oxo-2H-isoindol-2-yl)-, (3S)-

$$$$
