DBS
     RDKit          2D

 17 17  0  0  0  0  0  0  0  0999 V2000
   -2.5868    0.4279    0.0000 O   0  0  0  0  0  0  0  0  0  0  0  0
   -1.8723    0.8404    0.0000 C   0  0  0  0  0  0  0  0  0  0  0  0
   -1.8723    1.6654    0.0000 C   0  0  0  0  0  0  0  0  0  0  0  0
   -1.1578    0.4279    0.0000 C   0  0  0  0  0  0  0  0  0  0  0  0
   -1.1578   -0.3971    0.0000 O   0  0  0  0  0  0  0  0  0  0  0  0
   -0.4434    0.8404    0.0000 C   0  0  0  0  0  0  0  0  0  0  0  0
   -0.4434    1.6654    0.0000 C   0  0  0  0  0  0  0  0  0  0  0  0
   -1.1578    2.0779    0.0000 C   0  0  0  0  0  0  0  0  0  0  0  0
    0.2711    0.4279    0.0000 C   0  0  0  0  0  0  0  0  0  0  0  0
    0.9856    0.8404    0.0000 O   0  0  0  0  0  0  0  0  0  0  0  0
    0.2711   -0.3971    0.0000 N   0  0  0  0  0  0  0  0  0  0  0  0
    0.9856   -0.8096    0.0000 C   0  0  0  0  0  0  0  0  0  0  0  0
    0.9856   -1.6346    0.0000 C   0  0  0  0  0  0  0  0  0  0  0  0
    1.7000   -2.0471    0.0000 O   0  0  0  0  0  0  0  0  0  0  0  0
    1.7000   -0.3971    0.0000 C   0  0  0  0  0  0  0  0  0  0  0  0
    1.7000    0.4279    0.0000 O   0  0  0  0  0  0  0  0  0  0  0  0
    2.4145   -0.8096    0.0000 O   0  0  0  0  0  0  0  0  0  0  0  0
  1  2  1  0
  2  3  2  0
  2  4  1  0
  3  8  1  0
  4  5  1  0
  4  6  2  0
  6  7  1  0
  6  9  1  0
  7  8  2  0
  9 10  2  0
  9 11  1  0
 12 11  1  0
 12 13  1  6
 12 15  1  0
 13 14  1  0
 15 16  2  0
 15 17  1  0
M  END
>  <DRUGBANK_ID>  (1) 
DB02710

>  <SECONDARY_ACCESSION_NUMBERS>  (1) 
EXPT01126

>  <COMMON_NAME>  (1) 
2,3,-Dihydroxybenzoylserine

>  <CAS_NUMBER>  (1) 
127658-43-9

$$$$
