W43
     RDKit          2D

 27 29  0  0  0  0  0  0  0  0999 V2000
   -5.5396    0.1593    0.0000 O   0  0  0  0  0  0  0  0  0  0  0  0
   -6.0916    0.7724    0.0000 N   0  0  0  0  0  0  0  0  0  0  0  0
   -5.6791    1.4869    0.0000 C   0  0  0  0  0  0  0  0  0  0  0  0
   -6.0147    2.2406    0.0000 C   0  0  0  0  0  0  0  0  0  0  0  0
   -4.8721    1.3154    0.0000 C   0  0  0  0  0  0  0  0  0  0  0  0
   -4.7859    0.4949    0.0000 C   0  0  0  0  0  0  0  0  0  0  0  0
   -4.0714    0.0824    0.0000 C   0  0  0  0  0  0  0  0  0  0  0  0
   -3.3570    0.4949    0.0000 C   0  0  0  0  0  0  0  0  0  0  0  0
   -2.6425    0.0824    0.0000 C   0  0  0  0  0  0  0  0  0  0  0  0
   -1.9280    0.4949    0.0000 C   0  0  0  0  0  0  0  0  0  0  0  0
   -1.2135    0.0824    0.0000 C   0  0  0  0  0  0  0  0  0  0  0  0
   -0.4991    0.4949    0.0000 C   0  0  0  0  0  0  0  0  0  0  0  0
    0.2154    0.0824    0.0000 C   0  0  0  0  0  0  0  0  0  0  0  0
    0.9299    0.4949    0.0000 O   0  0  0  0  0  0  0  0  0  0  0  0
    1.6443    0.0824    0.0000 C   0  0  0  0  0  0  0  0  0  0  0  0
    2.3588    0.4949    0.0000 C   0  0  0  0  0  0  0  0  0  0  0  0
    3.0733    0.0824    0.0000 C   0  0  0  0  0  0  0  0  0  0  0  0
    3.0733   -0.7426    0.0000 C   0  0  0  0  0  0  0  0  0  0  0  0
    2.3588   -1.1551    0.0000 C   0  0  0  0  0  0  0  0  0  0  0  0
    1.6443   -0.7426    0.0000 C   0  0  0  0  0  0  0  0  0  0  0  0
    0.9299   -1.1551    0.0000 Cl  0  0  0  0  0  0  0  0  0  0  0  0
    3.7878   -1.1551    0.0000 C   0  0  0  0  0  0  0  0  0  0  0  0
    4.5414   -0.8195    0.0000 N   0  0  0  0  0  0  0  0  0  0  0  0
    5.0935   -1.4326    0.0000 C   0  0  0  0  0  0  0  0  0  0  0  0
    5.9139   -1.3464    0.0000 C   0  0  0  0  0  0  0  0  0  0  0  0
    4.6810   -2.1471    0.0000 C   0  0  0  0  0  0  0  0  0  0  0  0
    3.8740   -1.9756    0.0000 O   0  0  0  0  0  0  0  0  0  0  0  0
  1  2  1  0
  1  6  1  0
  2  3  2  0
  3  4  1  0
  3  5  1  0
  5  6  2  0
  6  7  1  0
  7  8  1  0
  8  9  1  0
  9 10  1  0
 10 11  1  0
 11 12  1  0
 12 13  1  0
 13 14  1  0
 14 15  1  0
 15 16  2  0
 15 20  1  0
 16 17  1  0
 17 18  2  0
 18 19  1  0
 18 22  1  0
 19 20  2  0
 20 21  1  0
 22 23  2  0
 22 27  1  0
 23 24  1  0
 24 25  1  1
 24 26  1  0
 26 27  1  0
M  END
>  <DRUGBANK_ID>  (1) 
DB08722

>  <COMMON_NAME>  (1) 
5-(7-(6-chloro-4-(5-hydro-4-methyl-2-oxazolyl)phenoxy)heptyl)-3-methyl isoxazole

$$$$
