LS3
     RDKit          2D

 28 32  0  0  0  0  0  0  0  0999 V2000
    0.3682   -2.2010    0.0000 O   0  0  0  0  0  0  0  0  0  0  0  0
    0.9813   -1.6490    0.0000 C   0  0  0  0  0  0  0  0  0  0  0  0
    1.7883   -1.8205    0.0000 N   0  0  0  0  0  0  0  0  0  0  0  0
    2.2008   -1.1061    0.0000 C   0  0  0  0  0  0  0  0  0  0  0  0
    3.0077   -0.9345    0.0000 C   0  0  0  0  0  0  0  0  0  0  0  0
    3.2627   -0.1499    0.0000 C   0  0  0  0  0  0  0  0  0  0  0  0
    2.7106    0.4632    0.0000 C   0  0  0  0  0  0  0  0  0  0  0  0
    2.9656    1.2478    0.0000 C   0  0  0  0  0  0  0  0  0  0  0  0
    3.7502    1.5027    0.0000 O   0  0  0  0  0  0  0  0  0  0  0  0
    3.7502    2.3277    0.0000 C   0  0  0  0  0  0  0  0  0  0  0  0
    2.9656    2.5827    0.0000 N   0  0  0  0  0  0  0  0  0  0  0  0
    2.4807    1.9152    0.0000 C   0  0  0  0  0  0  0  0  0  0  0  0
    1.9037    0.2917    0.0000 C   0  0  0  0  0  0  0  0  0  0  0  0
    1.6487   -0.4930    0.0000 C   0  0  0  0  0  0  0  0  0  0  0  0
    0.8951   -0.8285    0.0000 C   0  0  0  0  0  0  0  0  0  0  0  0
    0.1806   -0.4160    0.0000 C   0  0  0  0  0  0  0  0  0  0  0  0
   -0.5339   -0.8285    0.0000 N   0  0  0  0  0  0  0  0  0  0  0  0
   -1.2484   -0.4160    0.0000 C   0  0  0  0  0  0  0  0  0  0  0  0
   -1.9628   -0.8285    0.0000 C   0  0  0  0  0  0  0  0  0  0  0  0
   -2.6773   -0.4160    0.0000 C   0  0  0  0  0  0  0  0  0  0  0  0
   -3.4619   -0.6710    0.0000 C   0  0  0  0  0  0  0  0  0  0  0  0
   -3.9468   -0.0035    0.0000 S   0  0  0  0  0  0  0  0  0  0  0  0
   -4.5599   -0.5556    0.0000 O   0  0  0  0  0  0  0  0  0  0  0  0
   -4.5599    0.5485    0.0000 O   0  0  0  0  0  0  0  0  0  0  0  0
   -3.4619    0.6639    0.0000 C   0  0  0  0  0  0  0  0  0  0  0  0
   -2.6773    0.4090    0.0000 C   0  0  0  0  0  0  0  0  0  0  0  0
   -1.9628    0.8215    0.0000 C   0  0  0  0  0  0  0  0  0  0  0  0
   -1.2484    0.4090    0.0000 C   0  0  0  0  0  0  0  0  0  0  0  0
  1  2  2  0
  2  3  1  0
  2 15  1  0
  3  4  1  0
  4  5  2  0
  4 14  1  0
  5  6  1  0
  6  7  2  0
  7  8  1  0
  7 13  1  0
  8  9  1  0
  8 12  2  0
  9 10  1  0
 10 11  2  0
 11 12  1  0
 13 14  2  0
 14 15  1  0
 15 16  2  0
 16 17  1  0
 17 18  1  0
 18 19  2  0
 18 28  1  0
 19 20  1  0
 20 21  1  0
 20 26  2  0
 21 22  1  0
 22 23  2  0
 22 24  2  0
 22 25  1  0
 25 26  1  0
 26 27  1  0
 27 28  2  0
M  END
>  <DRUGBANK_ID>  (1) 
DB08124

>  <COMMON_NAME>  (1) 
3-{[(2,2-dioxido-1,3-dihydro-2-benzothien-5-yl)amino]methylene}-5-(1,3-oxazol-5-yl)-1,3-dihydro-2H-indol-2-one

$$$$
