ROL
     RDKit          2D

 20 22  0  0  0  0  0  0  0  0999 V2000
    0.3291   -1.2506    0.0000 C   0  0  0  0  0  0  0  0  0  0  0  0
   -0.3853   -0.8381    0.0000 C   0  0  0  0  0  0  0  0  0  0  0  0
   -0.3853   -0.0131    0.0000 C   0  0  0  0  0  0  0  0  0  0  0  0
    0.3291    0.3994    0.0000 C   0  0  0  0  0  0  0  0  0  0  0  0
    1.0436   -0.0131    0.0000 C   0  0  0  0  0  0  0  0  0  0  0  0
    1.0436   -0.8381    0.0000 C   0  0  0  0  0  0  0  0  0  0  0  0
    0.3291   -2.0756    0.0000 C   0  0  0  0  0  0  0  0  0  0  0  0
    0.9966   -2.5606    0.0000 C   0  0  0  0  0  0  0  0  0  0  0  0
    0.7416   -3.3452    0.0000 C   0  0  0  0  0  0  0  0  0  0  0  0
    1.2266   -4.0126    0.0000 O   0  0  0  0  0  0  0  0  0  0  0  0
   -0.0834   -3.3452    0.0000 N   0  0  0  0  0  0  0  0  0  0  0  0
   -0.3383   -2.5606    0.0000 C   0  0  0  0  0  0  0  0  0  0  0  0
   -1.0998    0.3994    0.0000 O   0  0  0  0  0  0  0  0  0  0  0  0
   -1.0998    1.2244    0.0000 C   0  0  0  0  0  0  0  0  0  0  0  0
   -1.7672    1.7093    0.0000 C   0  0  0  0  0  0  0  0  0  0  0  0
   -1.5123    2.4939    0.0000 C   0  0  0  0  0  0  0  0  0  0  0  0
   -0.6873    2.4939    0.0000 C   0  0  0  0  0  0  0  0  0  0  0  0
   -0.4324    1.7093    0.0000 C   0  0  0  0  0  0  0  0  0  0  0  0
    0.3291    1.2244    0.0000 O   0  0  0  0  0  0  0  0  0  0  0  0
    1.0436    1.6369    0.0000 C   0  0  0  0  0  0  0  0  0  0  0  0
  1  2  2  0
  1  6  1  0
  2  3  1  0
  3  4  2  0
  3 13  1  0
  4  5  1  0
  4 19  1  0
  5  6  2  0
  7  1  1  1
  7  8  1  0
  7 12  1  0
  8  9  1  0
  9 10  2  0
  9 11  1  0
 11 12  1  0
 13 14  1  0
 14 15  1  0
 14 18  1  0
 15 16  1  0
 16 17  1  0
 17 18  1  0
 19 20  1  0
M  END
>  <DRUGBANK_ID>  (1) 
DB04149

>  <SECONDARY_ACCESSION_NUMBERS>  (1) 
EXPT00228

>  <COMMON_NAME>  (1) 
(R)-Rolipram

>  <CAS_NUMBER>  (1) 
85416-75-7

>  <UNII>  (1) 
DPX51KUP08

>  <SYNONYMS>  (1) 
(−)-rolipram; (R)-(-)-rolipram; (R)-(−)-rolipram; (R)-4-(3-Cyclopentyloxy-4-methoxy-phenyl)-pyrrolidin-2-one; R-rolipram

$$$$
