
     RDKit          2D

 13 14  0  0  0  0  0  0  0  0999 V2000
    5.6262    0.6794    0.0000 O   0  0  0  0  0  0  0  0  0  0  0  0
    4.9118    0.2669    0.0000 C   0  0  0  0  0  0  0  0  0  0  0  0
    4.9118   -0.5580    0.0000 C   0  0  0  0  0  0  0  0  0  0  0  0
    4.1973   -0.9705    0.0000 C   0  0  0  0  0  0  0  0  0  0  0  0
    4.1973   -1.7955    0.0000 O   0  0  0  0  0  0  0  0  0  0  0  0
    3.4828   -0.5580    0.0000 C   0  0  0  0  0  0  0  0  0  0  0  0
    2.7683   -0.9705    0.0000 C   0  0  0  0  0  0  0  0  0  0  0  0
    2.0539   -0.5580    0.0000 C   0  0  0  0  0  0  0  0  0  0  0  0
    2.0539    0.2669    0.0000 C   0  0  0  0  0  0  0  0  0  0  0  0
    2.7683    0.6794    0.0000 C   0  0  0  0  0  0  0  0  0  0  0  0
    3.4828    0.2669    0.0000 C   0  0  0  0  0  0  0  0  0  0  0  0
    4.1973    0.6794    0.0000 C   0  0  0  0  0  0  0  0  0  0  0  0
    4.1973    1.5044    0.0000 O   0  0  0  0  0  0  0  0  0  0  0  0
  1  2  1  0
  2  3  2  0
  2 12  1  0
  3  4  1  0
  4  5  2  0
  4  6  1  0
  6  7  1  0
  6 11  2  0
  7  8  2  0
  8  9  1  0
  9 10  2  0
 10 11  1  0
 11 12  1  0
 12 13  2  0
M  END
>  <DRUGBANK_ID>  (1) 
DB04744

>  <COMMON_NAME>  (1) 
Lawsone

>  <CAS_NUMBER>  (1) 
83-72-7

>  <UNII>  (1) 
TLH4A6LV1W

>  <SYNONYMS>  (1) 
2-hydroxy-1,4-naphthalenedione; 2-hydroxy-1,4-naphthoquinone; 2-hydroxynaphthoquinone; Lawsone

$$$$
