
     RDKit          2D

 11 11  0  0  0  0  0  0  0  0999 V2000
    1.0718   -0.2062    0.0000 N   0  0  0  0  0  0  0  0  0  0  0  0
    1.0718    0.6187    0.0000 C   0  0  0  0  0  0  0  0  0  0  0  0
    0.3571    1.0313    0.0000 C   0  0  0  0  0  0  0  0  0  0  0  0
   -0.3573    0.6187    0.0000 C   0  0  0  0  0  0  0  0  0  0  0  0
   -0.3573   -0.2062    0.0000 C   0  0  0  0  0  0  0  0  0  0  0  0
    0.3571   -0.6187    0.0000 C   0  0  0  0  0  0  0  0  0  0  0  0
    0.3571   -1.4438    0.0000 C   0  0  0  0  0  0  0  0  0  0  0  0
   -0.3573   -1.8563    0.0000 O   0  0  0  0  0  0  0  0  0  0  0  0
   -1.0717   -0.6187    0.0000 O   0  0  0  0  0  0  0  0  0  0  0  0
   -1.0717    1.0313    0.0000 O   0  0  0  0  0  0  0  0  0  0  0  0
    0.3571    1.8563    0.0000 O   0  0  0  0  0  0  0  0  0  0  0  0
  1  2  1  0
  2  3  1  0
  3  4  1  0
  3 11  1  1
  4  5  1  0
  4 10  1  6
  5  6  1  0
  5  9  1  6
  6  1  1  0
  6  7  1  6
  7  8  1  0
M  END
>  <DRUGBANK_ID>  (1) 
DB05018

>  <COMMON_NAME>  (1) 
Migalastat

>  <CAS_NUMBER>  (1) 
108147-54-2

>  <UNII>  (1) 
C4XNY919FW

>  <SYNONYMS>  (1) 
1-Deoxygalactonojirimycin; 1-Deoxygalactostatin; Migalastat

$$$$
