
     RDKit          2D

 38 40  0  0  1  0  0  0  0  0999 V2000
   10.1509   -2.6108    0.0000 B   0  0  0  0  0  0  0  0  0  0  0  0
    9.4364   -3.0233    0.0000 C   0  0  0  0  0  0  0  0  0  0  0  0
    8.7219   -2.6108    0.0000 C   0  0  0  0  0  0  0  0  0  0  0  0
    8.0075   -3.0233    0.0000 C   0  0  0  0  0  0  0  0  0  0  0  0
    8.0075   -3.8483    0.0000 C   0  0  0  0  0  0  0  0  0  0  0  0
    7.2930   -4.2608    0.0000 O   0  0  0  0  0  0  0  0  0  0  0  0
    7.2930   -5.0858    0.0000 C   0  0  0  0  0  0  0  0  0  0  0  0
    9.4364   -3.8483    0.0000 N   0  0  0  0  0  0  0  0  0  0  0  0
   10.1509   -4.2608    0.0000 C   0  0  0  0  0  0  0  0  0  0  0  0
   10.8653   -3.8483    0.0000 O   0  0  0  0  0  0  0  0  0  0  0  0
   10.1509   -5.0858    0.0000 C   0  0  0  0  0  0  0  0  0  0  0  0
    9.4834   -5.5708    0.0000 C   0  0  0  0  0  0  0  0  0  0  0  0
    9.7384   -6.3554    0.0000 C   0  0  0  0  0  0  0  0  0  0  0  0
   10.5634   -6.3554    0.0000 C   0  0  0  0  0  0  0  0  0  0  0  0
   10.8183   -5.5708    0.0000 N   0  0  0  0  0  0  0  0  0  0  0  0
   11.6029   -5.3158    0.0000 C   0  0  0  0  0  0  0  0  0  0  0  0
   11.7745   -4.5089    0.0000 O   0  0  0  0  0  0  0  0  0  0  0  0
   12.2160   -5.8679    0.0000 C   0  0  0  0  0  0  0  0  0  0  0  0
   13.0006   -5.6129    0.0000 C   0  0  0  0  0  0  0  0  0  0  0  0
   13.1722   -4.8059    0.0000 C   0  0  0  0  0  0  0  0  0  0  0  0
   12.5591   -4.2539    0.0000 C   0  0  0  0  0  0  0  0  0  0  0  0
   12.7306   -3.4469    0.0000 C   0  0  0  0  0  0  0  0  0  0  0  0
   13.5152   -3.1920    0.0000 C   0  0  0  0  0  0  0  0  0  0  0  0
   14.1283   -3.7440    0.0000 C   0  0  0  0  0  0  0  0  0  0  0  0
   13.9568   -4.5510    0.0000 C   0  0  0  0  0  0  0  0  0  0  0  0
   12.0445   -6.6748    0.0000 N   0  0  0  0  0  0  0  0  0  0  0  0
   12.6576   -7.2269    0.0000 C   0  0  0  0  0  0  0  0  0  0  0  0
   13.4422   -6.9719    0.0000 O   0  0  0  0  0  0  0  0  0  0  0  0
   12.4861   -8.0338    0.0000 O   0  0  0  0  0  0  0  0  0  0  0  0
   13.0992   -8.5859    0.0000 C   0  0  0  0  0  0  0  0  0  0  0  0
   12.9276   -9.3928    0.0000 C   0  0  0  0  0  0  0  0  0  0  0  0
   13.5407   -9.9449    0.0000 C   0  0  0  0  0  0  0  0  0  0  0  0
   13.3692  -10.7518    0.0000 C   0  0  0  0  0  0  0  0  0  0  0  0
   12.5846  -11.0068    0.0000 C   0  0  0  0  0  0  0  0  0  0  0  0
   11.9715  -10.4548    0.0000 C   0  0  0  0  0  0  0  0  0  0  0  0
   12.1430   -9.6478    0.0000 C   0  0  0  0  0  0  0  0  0  0  0  0
   10.8653   -3.0233    0.0000 O   0  0  0  0  0  0  0  0  0  0  0  0
   10.1509   -1.7858    0.0000 O   0  0  0  0  0  0  0  0  0  0  0  0
  1 37  1  0
  1 38  1  0
  2  1  1  0
  2  3  1  1
  2  8  1  0
  3  4  1  0
  4  5  1  0
  5  6  1  0
  6  7  1  0
  8  9  1  0
  9 10  2  0
 11  9  1  1
 11 12  1  0
 11 15  1  0
 12 13  1  0
 13 14  1  0
 14 15  1  0
 15 16  1  0
 16 17  2  0
 16 18  1  0
 18 19  1  1
 18 26  1  0
 19 20  1  0
 20 21  2  0
 20 25  1  0
 21 22  1  0
 22 23  2  0
 23 24  1  0
 24 25  2  0
 26 27  1  0
 27 28  2  0
 27 29  1  0
 29 30  1  0
 30 31  1  0
 31 32  2  0
 31 36  1  0
 32 33  1  0
 33 34  2  0
 34 35  1  0
 35 36  2  0
M  END
>  <DRUGBANK_ID>  (1) 
DB05714

>  <COMMON_NAME>  (1) 
Flovagatran

>  <CAS_NUMBER>  (1) 
871576-03-3

>  <UNII>  (1) 
2WA50NUH6H

>  <SYNONYMS>  (1) 
Flovagatran

$$$$
