
     RDKit          2D

 27 30  0  0  0  0  0  0  0  0999 V2000
    0.4188   -1.4932    0.0000 C   0  0  0  0  0  0  0  0  0  0  0  0
    0.4188   -2.3182    0.0000 C   0  0  0  0  0  0  0  0  0  0  0  0
   -0.2956   -1.0807    0.0000 C   0  0  0  0  0  0  0  0  0  0  0  0
   -0.2956   -2.7307    0.0000 C   0  0  0  0  0  0  0  0  0  0  0  0
   -1.0101   -1.4932    0.0000 C   0  0  0  0  0  0  0  0  0  0  0  0
   -1.0101   -2.3182    0.0000 C   0  0  0  0  0  0  0  0  0  0  0  0
    1.1332   -1.0807    0.0000 C   0  0  0  0  0  0  0  0  0  0  0  0
    1.2195   -0.2602    0.0000 N   0  0  0  0  0  0  0  0  0  0  0  0
    1.8870   -1.4163    0.0000 N   0  0  0  0  0  0  0  0  0  0  0  0
    2.0264   -0.0887    0.0000 C   0  0  0  0  0  0  0  0  0  0  0  0
    2.4390   -0.8031    0.0000 N   0  0  0  0  0  0  0  0  0  0  0  0
    0.6064    0.2917    0.0000 C   0  0  0  0  0  0  0  0  0  0  0  0
   -0.1781    0.0368    0.0000 C   0  0  0  0  0  0  0  0  0  0  0  0
    0.7779    1.0988    0.0000 C   0  0  0  0  0  0  0  0  0  0  0  0
   -0.7913    0.5889    0.0000 C   0  0  0  0  0  0  0  0  0  0  0  0
    0.1648    1.6507    0.0000 C   0  0  0  0  0  0  0  0  0  0  0  0
   -0.6197    1.3958    0.0000 C   0  0  0  0  0  0  0  0  0  0  0  0
    0.1648    2.4757    0.0000 C   0  0  0  0  0  0  0  0  0  0  0  0
   -0.6197    2.7307    0.0000 C   0  0  0  0  0  0  0  0  0  0  0  0
   -1.1047    2.0633    0.0000 N   0  0  0  0  0  0  0  0  0  0  0  0
   -1.7245   -1.0807    0.0000 C   0  0  0  0  0  0  0  0  0  0  0  0
   -1.7245   -0.2557    0.0000 C   0  0  0  0  0  0  0  0  0  0  0  0
   -2.4390   -1.4932    0.0000 C   0  0  0  0  0  0  0  0  0  0  0  0
   -1.7245   -2.7307    0.0000 O   0  0  0  0  0  0  0  0  0  0  0  0
    1.1332   -2.7307    0.0000 O   0  0  0  0  0  0  0  0  0  0  0  0
    2.3620    0.6649    0.0000 O   0  0  0  0  0  0  0  0  0  0  0  0
   -1.9297    2.0633    0.0000 C   0  0  0  0  0  0  0  0  0  0  0  0
  1  7  1  0
  2  1  2  0
  2 25  1  0
  3  1  1  0
  4  2  1  0
  5  3  2  0
  5 21  1  0
  6  4  2  0
  6  5  1  0
  6 24  1  0
  8  7  1  0
  8 12  1  0
  9  7  2  0
 10  8  1  0
 10 26  2  0
 11  9  1  0
 11 10  1  0
 13 12  2  0
 14 12  1  0
 15 13  1  0
 16 14  2  0
 17 15  2  0
 17 16  1  0
 18 16  1  0
 19 18  2  0
 20 17  1  0
 20 19  1  0
 20 27  1  0
 21 22  1  0
 21 23  1  0
M  END
>  <DRUGBANK_ID>  (1) 
DB12047

>  <COMMON_NAME>  (1) 
Ganetespib

>  <CAS_NUMBER>  (1) 
888216-25-9

>  <UNII>  (1) 
2E8412Y946

>  <SYNONYMS>  (1) 
Ganetespib

$$$$
