CS4
     RDKit          2D

 19 19  0  0  0  0  0  0  0  0999 V2000
   -3.0953    1.6775    0.0000 O   0  0  0  0  0  0  0  0  0  0  0  0
   -2.3809    2.0900    0.0000 C   0  0  0  0  0  0  0  0  0  0  0  0
   -1.6664    1.6775    0.0000 C   0  0  0  0  0  0  0  0  0  0  0  0
   -1.6664    0.8525    0.0000 N   0  0  0  0  0  0  0  0  0  0  0  0
   -0.9519    2.0900    0.0000 C   0  0  0  0  0  0  0  0  0  0  0  0
   -0.2374    1.6775    0.0000 S   0  0  0  0  0  0  0  0  0  0  0  0
    0.4770    2.0900    0.0000 C   0  0  0  0  0  0  0  0  0  0  0  0
    1.1915    1.6775    0.0000 C   0  0  0  0  0  0  0  0  0  0  0  0
    1.9060    2.0900    0.0000 C   0  0  0  0  0  0  0  0  0  0  0  0
    1.9060    2.9150    0.0000 O   0  0  0  0  0  0  0  0  0  0  0  0
    2.6204    1.6775    0.0000 C   0  0  0  0  0  0  0  0  0  0  0  0
    2.6204    0.8525    0.0000 C   0  0  0  0  0  0  0  0  0  0  0  0
    3.3349    2.0900    0.0000 C   0  0  0  0  0  0  0  0  0  0  0  0
    4.0494    1.6775    0.0000 C   0  0  0  0  0  0  0  0  0  0  0  0
    4.0494    0.8525    0.0000 C   0  0  0  0  0  0  0  0  0  0  0  0
    4.7639    0.4400    0.0000 Cl  0  0  0  0  0  0  0  0  0  0  0  0
    3.3349    0.4400    0.0000 C   0  0  0  0  0  0  0  0  0  0  0  0
    3.3349   -0.3850    0.0000 Cl  0  0  0  0  0  0  0  0  0  0  0  0
   -2.3809    2.9150    0.0000 O   0  0  0  0  0  0  0  0  0  0  0  0
  1  2  1  0
  2  3  1  0
  2 19  2  0
  3  5  1  0
  3  4  1  6
  5  6  1  0
  6  7  1  0
  7  8  1  0
  8  9  1  0
  9 11  1  0
  9 10  2  0
 11 13  2  0
 11 12  1  0
 12 17  2  0
 13 14  1  0
 14 15  2  0
 15 16  1  0
 15 17  1  0
 17 18  1  0
M  END
>  <DRUGBANK_ID>  (1) 
DB07590

>  <COMMON_NAME>  (1) 
S-[3-(3,4-DICHLOROPHENYL)-3-OXOPROPYL]-L-CYSTEINE

$$$$
