
     RDKit          2D

 27 27  0  0  0  0  0  0  0  0999 V2000
   -0.8427   -1.0501    0.0000 O   0  0  0  0  0  0  0  0  0  0  0  0
    4.2284   -1.4173    0.0000 O   0  0  0  0  0  0  0  0  0  0  0  0
    0.0364    0.9476    0.0000 O   0  0  0  0  0  0  0  0  0  0  0  0
   -1.8902   -0.0782    0.0000 O   0  0  0  0  0  0  0  0  0  0  0  0
   -1.0110    1.9196    0.0000 O   0  0  0  0  0  0  0  0  0  0  0  0
    1.1088   -2.9196    0.0000 O   0  0  0  0  0  0  0  0  0  0  0  0
    1.0839   -0.0242    0.0000 O   0  0  0  0  0  0  0  0  0  0  0  0
    0.7659   -1.4173    0.0000 N   0  0  0  0  0  0  0  0  0  0  0  0
    2.4971   -2.7632    0.0000 N   0  0  0  0  0  0  0  0  0  0  0  0
    1.5702   -1.6009    0.0000 C   0  0  0  0  0  0  0  0  0  0  0  0
    2.0846   -0.9559    0.0000 C   0  0  0  0  0  0  0  0  0  0  0  0
    2.9097   -0.9559    0.0000 C   0  0  0  0  0  0  0  0  0  0  0  0
    3.4241   -1.6009    0.0000 C   0  0  0  0  0  0  0  0  0  0  0  0
   -0.5247    0.3429    0.0000 C   0  0  0  0  0  0  0  0  0  0  0  0
   -0.2815   -0.4454    0.0000 C   0  0  0  0  0  0  0  0  0  0  0  0
   -1.3290    0.5265    0.0000 C   0  0  0  0  0  0  0  0  0  0  0  0
    3.2404   -2.4052    0.0000 C   0  0  0  0  0  0  0  0  0  0  0  0
    1.7538   -2.4052    0.0000 C   0  0  0  0  0  0  0  0  0  0  0  0
   -1.5722    1.3149    0.0000 C   0  0  0  0  0  0  0  0  0  0  0  0
    0.5227   -0.6289    0.0000 C   0  0  0  0  0  0  0  0  0  0  0  0
   -3.4241    2.4704    0.0000 C   0  0  0  0  0  0  0  0  0  0  0  0
   -2.3765    1.4984    0.0000 C   0  0  0  0  0  0  0  0  0  0  0  0
   -2.6197    2.2868    0.0000 C   0  0  0  0  0  0  0  0  0  0  0  0
   -4.2284    2.6539    0.0000 C   0  0  0  0  0  0  0  0  0  0  0  0
   -3.2405    3.2747    0.0000 C   0  0  0  0  0  0  0  0  0  0  0  0
   -3.6076    1.6661    0.0000 C   0  0  0  0  0  0  0  0  0  0  0  0
   -1.6470   -0.8665    0.0000 C   0  0  0  0  0  0  0  0  0  0  0  0
  1 27  1  0
  6 18  2  0
  7 20  2  0
  8 20  1  0
  9 17  1  0
  9 18  1  0
 10  8  1  1
 10 11  1  0
 10 18  1  0
 11 12  1  0
 12 13  1  0
 13  2  1  1
 13 17  1  0
 14  3  1  1
 14 15  1  0
 14 16  1  0
 15  1  1  6
 15 20  1  0
 16  4  1  1
 16 19  1  0
 19  5  1  1
 19 22  1  0
 21 23  1  0
 21 24  1  0
 21 25  1  0
 21 26  1  0
 22 23  2  0
M  END
>  <DRUGBANK_ID>  (1) 
DB03396

>  <SECONDARY_ACCESSION_NUMBERS>  (1) 
EXPT03029

>  <COMMON_NAME>  (1) 
(2R,3R,4S,5R,6E)-3,4,5-Trihydroxy-N-[(3S,6R)-6-hydroxy-2-oxo-3-azepanyl]-2-methoxy-8,8-dimethyl-6-nonenamide

$$$$
