
     RDKit          2D

  9  8  0  0  0  0  0  0  0  0999 V2000
    1.0717    1.0313    0.0000 O   0  0  0  0  0  0  0  0  0  0  0  0
    1.0717    0.2062    0.0000 C   0  0  0  0  0  0  0  0  0  0  0  0
    1.7863   -0.2062    0.0000 O   0  0  0  0  0  0  0  0  0  0  0  0
    0.3572   -0.2062    0.0000 C   0  0  0  0  0  0  0  0  0  0  0  0
    0.3572   -1.0313    0.0000 N   0  0  0  0  0  0  0  0  0  0  0  0
   -0.3572    0.2062    0.0000 C   0  0  0  0  0  0  0  0  0  0  0  0
   -0.3572    1.0313    0.0000 C   0  0  0  0  0  0  0  0  0  0  0  0
   -1.0718   -0.2062    0.0000 C   0  0  0  0  0  0  0  0  0  0  0  0
   -1.7863    0.2062    0.0000 C   0  0  0  0  0  0  0  0  0  0  0  0
  2  1  2  0
  3  2  1  0
  4  2  1  0
  4  5  1  1
  6  4  1  0
  6  7  1  1
  8  6  1  0
  9  8  1  0
M  END
>  <DRUGBANK_ID>  (1) 
DB01739

>  <SECONDARY_ACCESSION_NUMBERS>  (1) 
EXPT01856

>  <COMMON_NAME>  (1) 
L-alloisoleucine

>  <CAS_NUMBER>  (1) 
1509-34-8

>  <UNII>  (1) 
6RNR8XN7S2

>  <SYNONYMS>  (1) 
(2S,3R)-2-amino-3-methylpentanoic acid; allo-L-isoleucine; Alloisoleucine

$$$$
