TI1
     RDKit          2D

 26 26  0  0  0  0  0  0  0  0999 V2000
   -1.8422    1.1000    0.0000 S   0  0  0  0  0  0  0  0  0  0  0  0
   -1.5144    0.3429    0.0000 C   0  0  0  0  0  0  0  0  0  0  0  0
   -2.0061   -0.3195    0.0000 C   0  0  0  0  0  0  0  0  0  0  0  0
   -2.8257   -0.2249    0.0000 C   0  0  0  0  0  0  0  0  0  0  0  0
   -3.3174   -0.8874    0.0000 C   0  0  0  0  0  0  0  0  0  0  0  0
   -4.1370   -0.7927    0.0000 C   0  0  0  0  0  0  0  0  0  0  0  0
   -4.6287   -1.4552    0.0000 C   0  0  0  0  0  0  0  0  0  0  0  0
   -0.6948    0.2483    0.0000 C   0  0  0  0  0  0  0  0  0  0  0  0
   -0.3670   -0.5088    0.0000 O   0  0  0  0  0  0  0  0  0  0  0  0
   -0.2031    0.9107    0.0000 N   0  0  0  0  0  0  0  0  0  0  0  0
    0.6165    0.8161    0.0000 C   0  0  0  0  0  0  0  0  0  0  0  0
    1.1082    1.4785    0.0000 C   0  0  0  0  0  0  0  0  0  0  0  0
    1.9277    1.3839    0.0000 C   0  0  0  0  0  0  0  0  0  0  0  0
    2.4195    2.0463    0.0000 C   0  0  0  0  0  0  0  0  0  0  0  0
    2.2556    0.6268    0.0000 C   0  0  0  0  0  0  0  0  0  0  0  0
    3.2390    1.9517    0.0000 C   0  0  0  0  0  0  0  0  0  0  0  0
    3.0751    0.5322    0.0000 C   0  0  0  0  0  0  0  0  0  0  0  0
    3.5669    1.1946    0.0000 C   0  0  0  0  0  0  0  0  0  0  0  0
    0.9443    0.0590    0.0000 C   0  0  0  0  0  0  0  0  0  0  0  0
    0.4525   -0.6035    0.0000 O   0  0  0  0  0  0  0  0  0  0  0  0
    1.7638   -0.0356    0.0000 N   0  0  0  0  0  0  0  0  0  0  0  0
    2.0917   -0.7927    0.0000 C   0  0  0  0  0  0  0  0  0  0  0  0
    1.5999   -1.4552    0.0000 C   0  0  0  0  0  0  0  0  0  0  0  0
    2.9112   -0.8874    0.0000 C   0  0  0  0  0  0  0  0  0  0  0  0
    3.4029   -0.2249    0.0000 O   0  0  0  0  0  0  0  0  0  0  0  0
    3.2390   -1.6444    0.0000 O   0  0  0  0  0  0  0  0  0  0  0  0
  2  1  1  6
  2  3  1  0
  2  8  1  0
  3  4  1  0
  4  5  1  0
  5  6  1  0
  6  7  1  0
  8  9  2  0
  8 10  1  0
 11 10  1  0
 11 12  1  1
 11 19  1  0
 12 13  1  0
 13 14  2  0
 13 15  1  0
 14 16  1  0
 15 17  2  0
 16 18  2  0
 17 18  1  0
 19 20  2  0
 19 21  1  0
 21 22  1  0
 22 23  1  6
 22 24  1  0
 24 25  2  0
 24 26  1  0
M  END
>  <DRUGBANK_ID>  (1) 
DB02597

>  <SECONDARY_ACCESSION_NUMBERS>  (1) 
EXPT03060

>  <COMMON_NAME>  (1) 
[2(R,S)-2-Sulfanylheptanoyl]-Phe-Ala

$$$$
