AGE
     RDKit          2D

 21 22  0  0  0  0  0  0  0  0999 V2000
    0.4025    1.4669    0.0000 N   0  0  0  0  0  0  0  0  0  0  0  0
   -2.7702   -2.3862    0.0000 C   0  0  0  0  0  0  0  0  0  0  0  0
    3.8653    0.3878    0.0000 N   0  0  0  0  0  0  0  0  0  0  0  0
   -1.4648   -1.8050    0.0000 C   0  0  0  0  0  0  0  0  0  0  0  0
   -1.8004   -1.0513    0.0000 C   0  0  0  0  0  0  0  0  0  0  0  0
   -2.6208   -0.9651    0.0000 C   0  0  0  0  0  0  0  0  0  0  0  0
    4.6500    0.6427    0.0000 O   0  0  0  0  0  0  0  0  0  0  0  0
    3.4238    1.7468    0.0000 O   0  0  0  0  0  0  0  0  0  0  0  0
   -0.1594   -1.2238    0.0000 O   0  0  0  0  0  0  0  0  0  0  0  0
   -3.1058   -1.6325    0.0000 C   0  0  0  0  0  0  0  0  0  0  0  0
   -1.9497   -2.4724    0.0000 C   0  0  0  0  0  0  0  0  0  0  0  0
   -1.3154   -0.3839    0.0000 C   0  0  0  0  0  0  0  0  0  0  0  0
   -0.4950   -0.4701    0.0000 C   0  0  0  0  0  0  0  0  0  0  0  0
   -0.0100    0.1973    0.0000 C   0  0  0  0  0  0  0  0  0  0  0  0
   -0.2650    0.9819    0.0000 C   0  0  0  0  0  0  0  0  0  0  0  0
    0.4025    2.2919    0.0000 C   0  0  0  0  0  0  0  0  0  0  0  0
    1.0699    0.9819    0.0000 C   0  0  0  0  0  0  0  0  0  0  0  0
    0.8150    0.1973    0.0000 C   0  0  0  0  0  0  0  0  0  0  0  0
    1.8545    1.2369    0.0000 C   0  0  0  0  0  0  0  0  0  0  0  0
    2.4676    0.6849    0.0000 C   0  0  0  0  0  0  0  0  0  0  0  0
    3.2522    0.9398    0.0000 C   0  0  0  0  0  0  0  0  0  0  0  0
  1 17  1  0
  2 10  2  0
  2 11  1  0
  3  7  1  0
  4  5  1  0
  5 12  1  0
  6  5  2  0
  8 21  2  0
 10  6  1  0
 11  4  2  0
 12 13  1  0
 13  9  2  0
 14 13  1  0
 14 18  1  0
 15  1  1  0
 15 14  2  0
 16  1  1  0
 17 19  1  0
 17 18  2  0
 19 20  2  0
 20 21  1  0
 21  3  1  0
M  END
>  <DRUGBANK_ID>  (1) 
DB07350

>  <COMMON_NAME>  (1) 
(2E)-N-hydroxy-3-[1-methyl-4-(phenylacetyl)-1H-pyrrol-2-yl]prop-2-enamide

$$$$
