
     RDKit          2D

  4  3  0  0  1  0  0  0  0  0999 V2000
    1.2375    0.7145    0.0000 C   0  0  0  0  0  0  0  0  0  0  0  0
    0.8250    0.0000    0.0000 P   0  0  0  0  0  0  0  0  0  0  0  0
    1.2375   -0.7145    0.0000 O   0  0  0  0  0  0  0  0  0  0  0  0
    0.0000    0.0000    0.0000 O   0  0  0  0  0  0  0  0  0  0  0  0
  2  1  1  1
  2  3  1  0
  2  4  2  0
M  END
>  <DRUGBANK_ID>  (1) 
DB02845

>  <SECONDARY_ACCESSION_NUMBERS>  (1) 
EXPT02226; DB04390

>  <COMMON_NAME>  (1) 
Methylphosphinic Acid

>  <CAS_NUMBER>  (1) 
4206-94-4

$$$$
