
     RDKit          2D

 27 30  0  0  0  0  0  0  0  0999 V2000
   -1.6067   -0.8079    0.0000 C   0  0  0  0  0  0  0  0  0  0  0  0
   -1.6098    0.0174    0.0000 N   0  0  0  0  0  0  0  0  0  0  0  0
   -2.3249    0.4257    0.0000 C   0  0  0  0  0  0  0  0  0  0  0  0
   -3.0375    0.0098    0.0000 C   0  0  0  0  0  0  0  0  0  0  0  0
   -3.0305   -0.8187    0.0000 C   0  0  0  0  0  0  0  0  0  0  0  0
   -2.3147   -1.2232    0.0000 C   0  0  0  0  0  0  0  0  0  0  0  0
    0.4327   -1.7517    0.0000 C   0  0  0  0  0  0  0  0  0  0  0  0
    0.8421   -2.4661    0.0000 C   0  0  0  0  0  0  0  0  0  0  0  0
    1.6482   -2.2975    0.0000 C   0  0  0  0  0  0  0  0  0  0  0  0
    1.7368   -1.4789    0.0000 C   0  0  0  0  0  0  0  0  0  0  0  0
    0.9857   -1.1416    0.0000 C   0  0  0  0  0  0  0  0  0  0  0  0
   -1.2112   -1.7435    0.0000 C   0  0  0  0  0  0  0  0  0  0  0  0
   -0.8018   -2.4580    0.0000 C   0  0  0  0  0  0  0  0  0  0  0  0
    0.0169   -2.4606    0.0000 O   0  0  0  0  0  0  0  0  0  0  0  0
    0.0232   -1.0361    0.0000 C   0  0  0  0  0  0  0  0  0  0  0  0
   -0.8018   -1.0318    0.0000 C   0  0  0  0  0  0  0  0  0  0  0  0
   -0.8061   -0.2020    0.0000 C   0  0  0  0  0  0  0  0  0  0  0  0
   -0.0917    0.2151    0.0000 C   0  0  0  0  0  0  0  0  0  0  0  0
   -0.0958    1.0423    0.0000 N   0  0  0  0  0  0  0  0  0  0  0  0
    0.6182    1.4594    0.0000 C   0  0  0  0  0  0  0  0  0  0  0  0
    1.3367    1.0495    0.0000 C   0  0  0  0  0  0  0  0  0  0  0  0
    1.4242    0.2312    0.0000 S   0  0  0  0  0  0  0  0  0  0  0  0
    2.2342    0.0633    0.0000 C   0  0  0  0  0  0  0  0  0  0  0  0
    2.6440    0.7818    0.0000 C   0  0  0  0  0  0  0  0  0  0  0  0
    2.0875    1.3937    0.0000 C   0  0  0  0  0  0  0  0  0  0  0  0
    2.2530    2.2040    0.0000 O   0  0  0  0  0  0  0  0  0  0  0  0
    3.0375    2.4661    0.0000 C   0  0  0  0  0  0  0  0  0  0  0  0
  1  2  2  0
  2  3  1  0
  3  4  2  0
  4  5  1  0
  5  6  2  0
  6  1  1  0
  7 15  1  0
  7  8  1  0
  8  9  1  0
  9 10  1  0
 10 11  1  0
 11  7  1  0
 12 16  1  0
 12 13  1  0
 13 14  1  0
 14  7  1  0
 15 16  1  0
 16 17  1  6
 16  1  1  0
 17 18  1  0
 18 19  1  0
 19 20  1  0
 20 21  1  0
 21 22  1  0
 22 23  1  0
 23 24  2  0
 24 25  1  0
 25 21  2  0
 25 26  1  0
 26 27  1  0
M  END
>  <DRUGBANK_ID>  (1) 
DB14881

>  <COMMON_NAME>  (1) 
Oliceridine

>  <CAS_NUMBER>  (1) 
1401028-24-7

>  <UNII>  (1) 
MCN858TCP0

>  <SYNONYMS>  (1) 
Oliceridine

$$$$
