HXP
     RDKit          2D

 21 23  0  0  0  0  0  0  0  0999 V2000
   -1.5093   -0.1111    0.0000 C   0  0  0  0  0  0  0  0  0  0  0  0
   -2.2238    0.3014    0.0000 C   0  0  0  0  0  0  0  0  0  0  0  0
   -2.2238    1.1264    0.0000 C   0  0  0  0  0  0  0  0  0  0  0  0
   -2.9383    1.5389    0.0000 O   0  0  0  0  0  0  0  0  0  0  0  0
   -1.5093    1.5389    0.0000 C   0  0  0  0  0  0  0  0  0  0  0  0
   -0.7949    1.1264    0.0000 C   0  0  0  0  0  0  0  0  0  0  0  0
   -0.0804    1.5389    0.0000 O   0  0  0  0  0  0  0  0  0  0  0  0
    0.6341    1.1264    0.0000 C   0  0  0  0  0  0  0  0  0  0  0  0
    1.3486    1.5389    0.0000 C   0  0  0  0  0  0  0  0  0  0  0  0
    2.0630    1.1264    0.0000 C   0  0  0  0  0  0  0  0  0  0  0  0
    2.7775    1.5389    0.0000 O   0  0  0  0  0  0  0  0  0  0  0  0
    2.0630    0.3014    0.0000 C   0  0  0  0  0  0  0  0  0  0  0  0
    1.3486   -0.1111    0.0000 C   0  0  0  0  0  0  0  0  0  0  0  0
    0.6341    0.3014    0.0000 C   0  0  0  0  0  0  0  0  0  0  0  0
   -0.0804   -0.1111    0.0000 C   0  0  0  0  0  0  0  0  0  0  0  0
   -0.7949    0.3014    0.0000 C   0  0  0  0  0  0  0  0  0  0  0  0
   -0.0804   -0.9361    0.0000 C   0  0  0  0  0  0  0  0  0  0  0  0
    0.6341   -1.3486    0.0000 C   0  0  0  0  0  0  0  0  0  0  0  0
    0.6341   -2.1736    0.0000 C   0  0  0  0  0  0  0  0  0  0  0  0
    1.3486   -2.5861    0.0000 O   0  0  0  0  0  0  0  0  0  0  0  0
   -0.0804   -2.5861    0.0000 O   0  0  0  0  0  0  0  0  0  0  0  0
  1  2  2  0
  1 16  1  0
  2  3  1  0
  3  4  1  0
  3  5  2  0
  5  6  1  0
  6  7  1  0
  6 16  2  0
  7  8  1  0
  8  9  2  0
  8 14  1  0
  9 10  1  0
 10 11  1  0
 10 12  2  0
 12 13  1  0
 13 14  2  0
 14 15  1  0
 15 16  1  0
 15 17  1  0
 17 18  1  0
 18 19  1  0
 19 20  2  0
 19 21  1  0
M  END
>  <DRUGBANK_ID>  (1) 
DB01644

>  <SECONDARY_ACCESSION_NUMBERS>  (1) 
EXPT01800

>  <COMMON_NAME>  (1) 
3,6-dihydroxy-xanthene-9-propionic acid

$$$$
