
     RDKit          2D

 19 20  0  0  0  0  0  0  0  0999 V2000
   -0.4798   -2.0323    0.0000 N   0  0  0  0  0  0  0  0  0  0  0  0
   -1.2668   -0.9488    0.0000 C   0  0  0  0  0  0  0  0  0  0  0  0
   -0.4798   -0.7008    0.0000 C   0  0  0  0  0  0  0  0  0  0  0  0
    0.0000   -1.3692    0.0000 C   0  0  0  0  0  0  0  0  0  0  0  0
   -1.2668   -1.7736    0.0000 C   0  0  0  0  0  0  0  0  0  0  0  0
   -1.9838   -0.5391    0.0000 C   0  0  0  0  0  0  0  0  0  0  0  0
   -0.2318    0.0862    0.0000 C   0  0  0  0  0  0  0  0  0  0  0  0
    0.8301    1.0511    0.0000 N   0  0  0  0  0  0  0  0  0  0  0  0
    0.5768    0.2641    0.0000 C   0  0  0  0  0  0  0  0  0  0  0  0
   -1.9838    0.2856    0.0000 O   0  0  0  0  0  0  0  0  0  0  0  0
   -2.6955   -1.7736    0.0000 C   0  0  0  0  0  0  0  0  0  0  0  0
   -1.9838   -2.1887    0.0000 C   0  0  0  0  0  0  0  0  0  0  0  0
   -2.6955   -0.9488    0.0000 C   0  0  0  0  0  0  0  0  0  0  0  0
    1.6334    1.2237    0.0000 C   0  0  0  0  0  0  0  0  0  0  0  0
    0.2749    1.6657    0.0000 C   0  0  0  0  0  0  0  0  0  0  0  0
    1.8921    2.0162    0.0000 C   0  0  0  0  0  0  0  0  0  0  0  0
   -0.5337    1.4879    0.0000 C   0  0  0  0  0  0  0  0  0  0  0  0
    2.6955    2.1887    0.0000 C   0  0  0  0  0  0  0  0  0  0  0  0
   -1.0836    2.1024    0.0000 C   0  0  0  0  0  0  0  0  0  0  0  0
  1  4  1  0
  1  5  1  0
  2  5  2  0
  2  6  1  0
  2  3  1  0
  3  4  2  0
  3  7  1  0
  5 12  1  0
  6 10  1  0
  6 13  2  0
  7  9  1  0
  8  9  1  0
  8 14  1  0
  8 15  1  0
 11 12  2  0
 11 13  1  0
 14 16  1  0
 15 17  1  0
 16 18  1  0
 17 19  1  0
M  END
>  <DRUGBANK_ID>  (1) 
DB13990

>  <COMMON_NAME>  (1) 
Dipropyl-4-hydroxytryptamine

>  <CAS_NUMBER>  (1) 
63065-88-3

>  <UNII>  (1) 
KS597YAU98

>  <SYNONYMS>  (1) 
3-[2-(Dipropylamino)ethyl]-1H-indol-4-ol; 4-HO-DPT; 4-Hydroxy-N,N-dipropyltryptamine; 4-Hydroxydipropyltryptamine; Deprocin

$$$$
