
     RDKit          2D

 34 38  0  0  0  0  0  0  0  0999 V2000
    6.8462    0.2102    0.0000 O   0  0  0  0  0  0  0  0  0  0  0  0
    6.7030   -0.6022    0.0000 C   0  0  0  0  0  0  0  0  0  0  0  0
    7.3349   -1.1325    0.0000 O   0  0  0  0  0  0  0  0  0  0  0  0
    5.9277   -0.8844    0.0000 C   0  0  0  0  0  0  0  0  0  0  0  0
    5.7845   -1.6969    0.0000 C   0  0  0  0  0  0  0  0  0  0  0  0
    5.0092   -1.9790    0.0000 C   0  0  0  0  0  0  0  0  0  0  0  0
    4.3772   -1.4487    0.0000 C   0  0  0  0  0  0  0  0  0  0  0  0
    4.5205   -0.6363    0.0000 C   0  0  0  0  0  0  0  0  0  0  0  0
    5.2957   -0.3541    0.0000 C   0  0  0  0  0  0  0  0  0  0  0  0
    3.6020   -1.7309    0.0000 C   0  0  0  0  0  0  0  0  0  0  0  0
    2.9700   -2.2612    0.0000 C   0  0  0  0  0  0  0  0  0  0  0  0
    3.7452   -2.5434    0.0000 C   0  0  0  0  0  0  0  0  0  0  0  0
    3.1895   -1.0164    0.0000 N   0  0  0  0  0  0  0  0  0  0  0  0
    2.3645   -1.0164    0.0000 C   0  0  0  0  0  0  0  0  0  0  0  0
    1.9520   -1.7309    0.0000 O   0  0  0  0  0  0  0  0  0  0  0  0
    1.9520   -0.3020    0.0000 C   0  0  0  0  0  0  0  0  0  0  0  0
    1.1270   -0.3020    0.0000 C   0  0  0  0  0  0  0  0  0  0  0  0
    0.7145    0.4125    0.0000 C   0  0  0  0  0  0  0  0  0  0  0  0
    0.0000    0.0000    0.0000 C   0  0  0  0  0  0  0  0  0  0  0  0
    0.0000    0.8250    0.0000 C   0  0  0  0  0  0  0  0  0  0  0  0
    1.1270    1.1270    0.0000 C   0  0  0  0  0  0  0  0  0  0  0  0
    1.9520    1.1270    0.0000 C   0  0  0  0  0  0  0  0  0  0  0  0
    2.3645    0.4125    0.0000 N   0  0  0  0  0  0  0  0  0  0  0  0
    3.1895    0.4125    0.0000 C   0  0  0  0  0  0  0  0  0  0  0  0
    3.6020    1.1270    0.0000 C   0  0  0  0  0  0  0  0  0  0  0  0
    3.1895    1.8414    0.0000 C   0  0  0  0  0  0  0  0  0  0  0  0
    3.6020    2.5559    0.0000 C   0  0  0  0  0  0  0  0  0  0  0  0
    4.4270    2.5559    0.0000 C   0  0  0  0  0  0  0  0  0  0  0  0
    4.8395    1.8414    0.0000 C   0  0  0  0  0  0  0  0  0  0  0  0
    4.4270    1.1270    0.0000 C   0  0  0  0  0  0  0  0  0  0  0  0
    4.8395    3.2704    0.0000 C   0  0  0  0  0  0  0  0  0  0  0  0
    5.2520    3.9849    0.0000 F   0  0  0  0  0  0  0  0  0  0  0  0
    5.5539    2.8579    0.0000 F   0  0  0  0  0  0  0  0  0  0  0  0
    4.1250    3.6829    0.0000 F   0  0  0  0  0  0  0  0  0  0  0  0
  1  2  1  0
  2  3  2  0
  2  4  1  0
  4  5  2  0
  4  9  1  0
  5  6  1  0
  6  7  2  0
  7  8  1  0
  7 10  1  0
  8  9  2  0
 10 11  1  0
 10 12  1  0
 10 13  1  0
 11 12  1  0
 13 14  1  0
 14 15  2  0
 14 16  1  0
 16 17  1  0
 16 23  1  0
 17 18  1  0
 18 19  1  0
 18 20  1  0
 18 21  1  0
 19 20  1  0
 21 22  1  0
 22 23  1  0
 23 24  1  0
 24 25  1  0
 25 26  2  0
 25 30  1  0
 26 27  1  0
 27 28  2  0
 28 29  1  0
 28 31  1  0
 29 30  2  0
 31 32  1  0
 31 33  1  0
 31 34  1  0
M  END
>  <DRUGBANK_ID>  (1) 
DB16111

>  <COMMON_NAME>  (1) 
CR6086

>  <CAS_NUMBER>  (1) 
1417742-86-9

>  <UNII>  (1) 
SS2LQQ8094

$$$$
