
     RDKit          2D

 33 35  0  0  0  0  0  0  0  0999 V2000
   -1.6325    0.3733    0.0000 O   0  0  0  0  0  0  0  0  0  0  0  0
   -0.9181   -0.0391    0.0000 O   0  0  0  0  0  0  0  0  0  0  0  0
    0.5108   -0.0392    0.0000 O   0  0  0  0  0  0  0  0  0  0  0  0
   -4.4905    1.1983    0.0000 N   0  0  0  0  0  0  0  0  0  0  0  0
   -0.9181    1.6108    0.0000 N   0  0  0  0  0  0  0  0  0  0  0  0
   -5.9195    1.1983    0.0000 N   0  0  0  0  0  0  0  0  0  0  0  0
   -5.2050    2.4358    0.0000 N   0  0  0  0  0  0  0  0  0  0  0  0
   -3.0615    1.1983    0.0000 C   0  0  0  0  0  0  0  0  0  0  0  0
   -3.0615    0.3733    0.0000 C   0  0  0  0  0  0  0  0  0  0  0  0
   -3.7760    1.6108    0.0000 C   0  0  0  0  0  0  0  0  0  0  0  0
   -3.7760   -0.0392    0.0000 C   0  0  0  0  0  0  0  0  0  0  0  0
   -4.4905    0.3732    0.0000 C   0  0  0  0  0  0  0  0  0  0  0  0
   -2.3470    1.6108    0.0000 C   0  0  0  0  0  0  0  0  0  0  0  0
   -1.6326    1.1983    0.0000 C   0  0  0  0  0  0  0  0  0  0  0  0
   -5.2050    1.6108    0.0000 C   0  0  0  0  0  0  0  0  0  0  0  0
   -0.2036    1.1983    0.0000 C   0  0  0  0  0  0  0  0  0  0  0  0
    0.5108    1.6108    0.0000 C   0  0  0  0  0  0  0  0  0  0  0  0
   -0.2036    0.3733    0.0000 C   0  0  0  0  0  0  0  0  0  0  0  0
    1.2253    1.1983    0.0000 C   0  0  0  0  0  0  0  0  0  0  0  0
    1.9398    1.6108    0.0000 C   0  0  0  0  0  0  0  0  0  0  0  0
    1.2253    0.3732    0.0000 C   0  0  0  0  0  0  0  0  0  0  0  0
    2.6543    1.1983    0.0000 C   0  0  0  0  0  0  0  0  0  0  0  0
    1.9398   -0.0392    0.0000 C   0  0  0  0  0  0  0  0  0  0  0  0
    2.6543    0.3733    0.0000 C   0  0  0  0  0  0  0  0  0  0  0  0
   -0.9181   -0.8641    0.0000 C   0  0  0  0  0  0  0  0  0  0  0  0
    3.3688   -0.0391    0.0000 C   0  0  0  0  0  0  0  0  0  0  0  0
    4.0833   -0.4516    0.0000 C   0  0  0  0  0  0  0  0  0  0  0  0
    4.7977   -0.8641    0.0000 C   0  0  0  0  0  0  0  0  0  0  0  0
    5.5122   -0.4516    0.0000 C   0  0  0  0  0  0  0  0  0  0  0  0
    4.7977   -1.6892    0.0000 C   0  0  0  0  0  0  0  0  0  0  0  0
    6.2267   -0.8642    0.0000 C   0  0  0  0  0  0  0  0  0  0  0  0
    5.5122   -2.1017    0.0000 C   0  0  0  0  0  0  0  0  0  0  0  0
    6.2267   -1.6892    0.0000 C   0  0  0  0  0  0  0  0  0  0  0  0
  1 14  2  0
  2 18  1  0
  2 25  1  0
  3 18  2  0
  4 10  1  0
  4 12  1  0
  4 15  1  0
  5 14  1  0
  6 15  1  0
  7 15  2  0
  8  9  1  0
  8 10  1  0
  8 13  1  1
  9 11  1  0
 11 12  1  0
 13 14  1  0
 16  5  1  0
 16 17  1  1
 16 18  1  0
 17 19  1  0
 19 20  2  0
 19 21  1  0
 20 22  1  0
 21 23  2  0
 22 24  2  0
 23 24  1  0
 24 26  1  0
 26 27  3  0
 27 28  1  0
 28 29  2  0
 28 30  1  0
 29 31  1  0
 30 32  2  0
 31 33  2  0
 32 33  1  0
M  END
>  <DRUGBANK_ID>  (1) 
DB03453

>  <SECONDARY_ACCESSION_NUMBERS>  (1) 
EXPT01490

>  <COMMON_NAME>  (1) 
Methyl (2S)-2-[[2-[(3R)-1-carbamimidoylpiperidin-3-yl]acetyl]amino]-3-[4-(2-phenylethynyl)phenyl]propanoate

>  <CAS_NUMBER>  (1) 
193744-04-6

>  <SYNONYMS>  (1) 
Methyl N-{[(3R)-1-carbamimidoyl-3-piperidinyl]acetyl}-4-(phenylethynyl)-L-phenylalaninate

$$$$
