
     RDKit          2D

 14 16  0  0  0  0  0  0  0  0999 V2000
    0.4244   -1.4032    0.0000 C   0  0  0  0  0  0  0  0  0  0  0  0
    1.0987   -1.8756    0.0000 N   0  0  0  0  0  0  0  0  0  0  0  0
    1.7564   -1.3803    0.0000 C   0  0  0  0  0  0  0  0  0  0  0  0
    0.6655   -0.6160    0.0000 C   0  0  0  0  0  0  0  0  0  0  0  0
    1.4888   -0.6046    0.0000 C   0  0  0  0  0  0  0  0  0  0  0  0
    1.0673    0.1027    0.0000 C   0  0  0  0  0  0  0  0  0  0  0  0
   -0.0527   -0.2002    0.0000 C   0  0  0  0  0  0  0  0  0  0  0  0
   -0.0491    0.6349    0.0000 C   0  0  0  0  0  0  0  0  0  0  0  0
   -0.7666    1.0506    0.0000 C   0  0  0  0  0  0  0  0  0  0  0  0
   -1.4867    0.6363    0.0000 C   0  0  0  0  0  0  0  0  0  0  0  0
   -1.4850   -0.1979    0.0000 C   0  0  0  0  0  0  0  0  0  0  0  0
   -0.7669   -0.6098    0.0000 C   0  0  0  0  0  0  0  0  0  0  0  0
   -2.2014    1.0486    0.0000 Cl  0  0  0  0  0  0  0  0  0  0  0  0
   -0.7653    1.8756    0.0000 Cl  0  0  0  0  0  0  0  0  0  0  0  0
  1  2  1  0
  2  3  1  0
  5  3  1  6
  4  7  1  1
  4  1  1  0
  4  6  1  0
  5  4  1  0
  6  5  1  0
  7  8  2  0
  8  9  1  0
  9 10  2  0
  9 14  1  0
 10 11  1  0
 10 13  1  0
 11 12  2  0
 12  7  1  0
M  END
>  <DRUGBANK_ID>  (1) 
DB05964

>  <COMMON_NAME>  (1) 
Amitifadine

>  <CAS_NUMBER>  (1) 
410074-73-6

>  <UNII>  (1) 
GE0J375F8F

$$$$
