PF6
     RDKit          2D

 30 34  0  0  0  0  0  0  0  0999 V2000
   -0.9638    0.1776    0.0000 C   0  0  0  0  0  0  0  0  0  0  0  0
   -3.2859    1.1696    0.0000 C   0  0  0  0  0  0  0  0  0  0  0  0
   -2.8220    2.6120    0.0000 C   0  0  0  0  0  0  0  0  0  0  0  0
    1.1797   -1.0599    0.0000 C   0  0  0  0  0  0  0  0  0  0  0  0
    1.8941   -1.4724    0.0000 C   0  0  0  0  0  0  0  0  0  0  0  0
   -1.6782   -1.0599    0.0000 C   0  0  0  0  0  0  0  0  0  0  0  0
   -2.9935    3.4189    0.0000 C   0  0  0  0  0  0  0  0  0  0  0  0
    3.3231   -2.2974    0.0000 C   0  0  0  0  0  0  0  0  0  0  0  0
    4.7520   -1.4724    0.0000 C   0  0  0  0  0  0  0  0  0  0  0  0
    4.7520   -2.2974    0.0000 C   0  0  0  0  0  0  0  0  0  0  0  0
    4.0375   -2.7099    0.0000 C   0  0  0  0  0  0  0  0  0  0  0  0
    2.6086   -2.7099    0.0000 C   0  0  0  0  0  0  0  0  0  0  0  0
    1.8941   -2.2974    0.0000 C   0  0  0  0  0  0  0  0  0  0  0  0
    3.3231   -1.4724    0.0000 C   0  0  0  0  0  0  0  0  0  0  0  0
    4.0375   -1.0599    0.0000 C   0  0  0  0  0  0  0  0  0  0  0  0
    2.6086   -1.0599    0.0000 N   0  0  0  0  0  0  0  0  0  0  0  0
    0.4652   -1.4724    0.0000 O   0  0  0  0  0  0  0  0  0  0  0  0
   -0.2493   -1.0599    0.0000 C   0  0  0  0  0  0  0  0  0  0  0  0
   -0.9638   -1.4724    0.0000 C   0  0  0  0  0  0  0  0  0  0  0  0
   -0.2493   -0.2349    0.0000 C   0  0  0  0  0  0  0  0  0  0  0  0
   -1.6782   -0.2349    0.0000 C   0  0  0  0  0  0  0  0  0  0  0  0
   -2.3927    0.1776    0.0000 C   0  0  0  0  0  0  0  0  0  0  0  0
   -2.4789    0.9980    0.0000 C   0  0  0  0  0  0  0  0  0  0  0  0
   -3.6984    0.4551    0.0000 N   0  0  0  0  0  0  0  0  0  0  0  0
   -3.1464   -0.1580    0.0000 N   0  0  0  0  0  0  0  0  0  0  0  0
   -1.8658    1.5501    0.0000 C   0  0  0  0  0  0  0  0  0  0  0  0
   -2.0374    2.3570    0.0000 C   0  0  0  0  0  0  0  0  0  0  0  0
   -2.3804    3.9710    0.0000 N   0  0  0  0  0  0  0  0  0  0  0  0
   -1.5958    3.7160    0.0000 C   0  0  0  0  0  0  0  0  0  0  0  0
   -1.4243    2.9091    0.0000 C   0  0  0  0  0  0  0  0  0  0  0  0
  3  7  2  0
  4 17  1  0
  5  4  1  0
  6 21  2  0
  7 28  1  0
  8 14  2  0
  8 12  1  0
  9 15  2  0
 10  9  1  0
 10 11  2  0
 11  8  1  0
 12 13  2  0
 13  5  1  0
 14 16  1  0
 15 14  1  0
 16  5  2  0
 17 18  1  0
 18 20  1  0
 19  6  1  0
 19 18  2  0
 20  1  2  0
 21  1  1  0
 21 22  1  0
 22 23  1  0
 23  2  2  0
 23 26  1  0
 24  2  1  0
 25 22  2  0
 25 24  1  0
 26 27  1  0
 27  3  1  0
 27 30  2  0
 29 28  2  0
 30 29  1  0
M  END
>  <DRUGBANK_ID>  (1) 
DB08384

>  <COMMON_NAME>  (1) 
2-({4-[4-(pyridin-4-ylmethyl)-1H-pyrazol-3-yl]phenoxy}methyl)quinoline

$$$$
