
     RDKit          2D

 29 31  0  0  0  0  0  0  0  0999 V2000
   -1.0781    1.3480    0.0000 C   0  0  0  0  0  0  0  0  0  0  0  0
   -0.6656    2.0625    0.0000 C   0  0  0  0  0  0  0  0  0  0  0  0
    0.1594    2.0625    0.0000 C   0  0  0  0  0  0  0  0  0  0  0  0
    0.6443    1.3951    0.0000 C   0  0  0  0  0  0  0  0  0  0  0  0
    1.4289    1.6500    0.0000 C   0  0  0  0  0  0  0  0  0  0  0  0
    1.4289    2.4750    0.0000 C   0  0  0  0  0  0  0  0  0  0  0  0
    0.6443    2.7299    0.0000 N   0  0  0  0  0  0  0  0  0  0  0  0
    0.3894    3.5146    0.0000 C   0  0  0  0  0  0  0  0  0  0  0  0
   -0.4176    3.6861    0.0000 C   0  0  0  0  0  0  0  0  0  0  0  0
   -0.9696    3.0730    0.0000 C   0  0  0  0  0  0  0  0  0  0  0  0
   -1.7766    3.2445    0.0000 C   0  0  0  0  0  0  0  0  0  0  0  0
   -2.0315    4.0291    0.0000 C   0  0  0  0  0  0  0  0  0  0  0  0
   -1.4795    4.6422    0.0000 C   0  0  0  0  0  0  0  0  0  0  0  0
   -0.6725    4.4707    0.0000 C   0  0  0  0  0  0  0  0  0  0  0  0
    2.1434    2.8875    0.0000 C   0  0  0  0  0  0  0  0  0  0  0  0
    2.8579    2.4750    0.0000 C   0  0  0  0  0  0  0  0  0  0  0  0
    2.8579    1.6500    0.0000 C   0  0  0  0  0  0  0  0  0  0  0  0
    2.1434    1.2375    0.0000 C   0  0  0  0  0  0  0  0  0  0  0  0
    2.1434    0.4125    0.0000 O   0  0  0  0  0  0  0  0  0  0  0  0
    2.8579    0.0000    0.0000 C   0  0  0  0  0  0  0  0  0  0  0  0
    3.5724    0.4125    0.0000 C   0  0  0  0  0  0  0  0  0  0  0  0
    3.5724    1.2375    0.0000 O   0  0  0  0  0  0  0  0  0  0  0  0
    4.2868    0.0000    0.0000 O   0  0  0  0  0  0  0  0  0  0  0  0
    5.0013    0.4125    0.0000 C   0  0  0  0  0  0  0  0  0  0  0  0
    0.3894    0.6104    0.0000 C   0  0  0  0  0  0  0  0  0  0  0  0
   -0.4176    0.4389    0.0000 O   0  0  0  0  0  0  0  0  0  0  0  0
    0.9414   -0.0027    0.0000 C   0  0  0  0  0  0  0  0  0  0  0  0
    0.6865   -0.7873    0.0000 O   0  0  0  0  0  0  0  0  0  0  0  0
    1.7484    0.1689    0.0000 N   0  0  0  0  0  0  0  0  0  0  0  0
  1  2  1  0
  2  3  1  0
  3  4  2  0
  3  7  1  0
  4  5  1  0
  4 25  1  0
  5  6  2  0
  5 18  1  0
  6  7  1  0
  6 15  1  0
  7  8  1  0
  8  9  1  0
  9 10  2  0
  9 14  1  0
 10 11  1  0
 11 12  2  0
 12 13  1  0
 13 14  2  0
 15 16  2  0
 16 17  1  0
 17 18  2  0
 18 19  1  0
 19 20  1  0
 20 21  1  0
 21 22  2  0
 21 23  1  0
 23 24  1  0
 25 26  2  0
 25 27  1  0
 27 28  2  0
 27 29  1  0
M  END
>  <DRUGBANK_ID>  (1) 
DB05737

>  <SECONDARY_ACCESSION_NUMBERS>  (1) 
DB12164

>  <COMMON_NAME>  (1) 
Varespladib methyl

>  <CAS_NUMBER>  (1) 
172733-08-3

>  <UNII>  (1) 
0NB98NBX3D

>  <SYNONYMS>  (1) 
Varespladib methyl; Varespladib methyl ester

$$$$
