
     RDKit          2D

 21 24  0  0  1  0  0  0  0  0999 V2000
   20.0052   -3.2205    0.0000 O   0  0  0  0  0  0  0  0  0  0  0  0
   14.5192   -6.7741    0.0000 O   0  0  0  0  0  0  0  0  0  0  0  0
   18.2539   -5.4935    0.0000 C   0  0  0  0  0  0  0  0  0  0  0  0
   17.5394   -5.0810    0.0000 C   0  0  0  0  0  0  0  0  0  0  0  0
   18.9683   -5.0810    0.0000 C   0  0  0  0  0  0  0  0  0  0  0  0
   18.9683   -4.2561    0.0000 C   0  0  0  0  0  0  0  0  0  0  0  0
   16.7887   -5.4991    0.0000 C   0  0  0  0  0  0  0  0  0  0  0  0
   16.7820   -6.3584    0.0000 C   0  0  0  0  0  0  0  0  0  0  0  0
   17.5394   -4.2561    0.0000 C   0  0  0  0  0  0  0  0  0  0  0  0
   18.2539   -3.8436    0.0000 C   0  0  0  0  0  0  0  0  0  0  0  0
   18.2671   -6.3527    0.0000 C   0  0  0  0  0  0  0  0  0  0  0  0
   19.7489   -5.3324    0.0000 C   0  0  0  0  0  0  0  0  0  0  0  0
   19.7489   -4.0046    0.0000 C   0  0  0  0  0  0  0  0  0  0  0  0
   17.5262   -6.7881    0.0000 C   0  0  0  0  0  0  0  0  0  0  0  0
   20.2303   -4.6686    0.0000 C   0  0  0  0  0  0  0  0  0  0  0  0
   16.0241   -5.0338    0.0000 C   0  0  0  0  0  0  0  0  0  0  0  0
   18.9683   -3.4311    0.0000 C   0  0  0  0  0  0  0  0  0  0  0  0
   16.7950   -4.6741    0.0000 C   0  0  0  0  0  0  0  0  0  0  0  0
   16.0104   -6.8119    0.0000 C   0  0  0  0  0  0  0  0  0  0  0  0
   15.2421   -5.4693    0.0000 C   0  0  0  0  0  0  0  0  0  0  0  0
   15.2352   -6.3644    0.0000 C   0  0  0  0  0  0  0  0  0  0  0  0
  2 21  2  0
  3  4  1  0
  3  5  1  0
  3 11  1  6
  4  7  1  0
  4  9  1  1
  5  6  1  0
  5 12  1  1
  6 10  1  0
  6 13  1  0
  6 17  1  1
  7  8  1  0
  7 16  1  0
  7 18  1  1
  8 14  1  6
  8 19  1  0
  9 10  1  0
 11 14  1  0
 12 15  1  0
 13  1  1  1
 13 15  1  0
 16 20  1  0
 19 21  1  0
 20 21  1  0
M  END
>  <DRUGBANK_ID>  (1) 
DB07447

>  <COMMON_NAME>  (1) 
5beta-dihydrotestosterone

>  <CAS_NUMBER>  (1) 
571-22-2

>  <UNII>  (1) 
SVX1G0C5VD

>  <SYNONYMS>  (1) 
(5β,17β)-17-hydroxyandrostan-3-one; (5β,8α,17β)-17-hydroxyandrostan-3-one; 17β-hydroxyetiocholan-3-one; 5-beta-DHT; 5β-androstan-17β-ol-3-one; 5β-dihydrotestosterone; 5β,17β-hydroxyandrostan-3-one; etiocholan-17-beta-ol-3-one

$$$$
