
     RDKit          2D

 42 47  0  0  1  0  0  0  0  0999 V2000
    8.7965    5.0171    0.0000 O   0  0  0  0  0  0  0  0  0  0  0  0
    7.3614    5.8309    0.0000 O   0  0  0  0  0  0  0  0  0  0  0  0
    2.4068   -2.9096    0.0000 O   0  0  0  0  0  0  0  0  0  0  0  0
    3.8491   -6.2379    0.0000 O   0  0  0  0  0  0  0  0  0  0  0  0
    4.5723   -2.5054    0.0000 O   0  0  0  0  0  0  0  0  0  0  0  0
    6.6630    2.0562    0.0000 N   0  0  0  0  0  0  0  0  0  0  0  0
    6.0010   -2.4889    0.0000 N   0  0  0  0  0  0  0  0  0  0  0  0
    3.8491   -3.7631    0.0000 N   0  0  0  0  0  0  0  0  0  0  0  0
    5.9155    2.4799    0.0000 C   0  0  0  0  0  0  0  0  0  0  0  0
    7.4003    2.4972    0.0000 C   0  0  0  0  0  0  0  0  0  0  0  0
    5.9155    3.3393    0.0000 C   0  0  0  0  0  0  0  0  0  0  0  0
    7.3804    3.3562    0.0000 C   0  0  0  0  0  0  0  0  0  0  0  0
    6.6630    3.7632    0.0000 C   0  0  0  0  0  0  0  0  0  0  0  0
    6.6725    1.2313    0.0000 C   0  0  0  0  0  0  0  0  0  0  0  0
    5.9629    0.8105    0.0000 C   0  0  0  0  0  0  0  0  0  0  0  0
    8.0917    3.7742    0.0000 C   0  0  0  0  0  0  0  0  0  0  0  0
    6.6566    4.5881    0.0000 C   0  0  0  0  0  0  0  0  0  0  0  0
    8.0854    4.5991    0.0000 C   0  0  0  0  0  0  0  0  0  0  0  0
    7.3677    5.0060    0.0000 C   0  0  0  0  0  0  0  0  0  0  0  0
    5.9724   -0.0144    0.0000 C   0  0  0  0  0  0  0  0  0  0  0  0
    5.2628   -0.4350    0.0000 C   0  0  0  0  0  0  0  0  0  0  0  0
    6.6916   -0.4185    0.0000 C   0  0  0  0  0  0  0  0  0  0  0  0
    5.9915   -1.6641    0.0000 C   0  0  0  0  0  0  0  0  0  0  0  0
    5.2724   -1.2599    0.0000 C   0  0  0  0  0  0  0  0  0  0  0  0
    6.7011   -1.2433    0.0000 C   0  0  0  0  0  0  0  0  0  0  0  0
    4.5636   -4.1755    0.0000 C   0  0  0  0  0  0  0  0  0  0  0  0
    4.5636   -5.0005    0.0000 C   0  0  0  0  0  0  0  0  0  0  0  0
    5.3009   -3.7346    0.0000 C   0  0  0  0  0  0  0  0  0  0  0  0
    3.1347   -4.1755    0.0000 C   0  0  0  0  0  0  0  0  0  0  0  0
    3.1347   -5.0005    0.0000 C   0  0  0  0  0  0  0  0  0  0  0  0
    3.8491   -5.4129    0.0000 C   0  0  0  0  0  0  0  0  0  0  0  0
    5.2914   -2.9096    0.0000 C   0  0  0  0  0  0  0  0  0  0  0  0
    9.5142    4.6101    0.0000 C   0  0  0  0  0  0  0  0  0  0  0  0
    6.6439    6.2379    0.0000 C   0  0  0  0  0  0  0  0  0  0  0  0
    5.3009   -5.4415    0.0000 C   0  0  0  0  0  0  0  0  0  0  0  0
    6.0484   -4.1584    0.0000 C   0  0  0  0  0  0  0  0  0  0  0  0
    2.3973   -3.7346    0.0000 C   0  0  0  0  0  0  0  0  0  0  0  0
    2.3973   -5.4415    0.0000 C   0  0  0  0  0  0  0  0  0  0  0  0
    6.0484   -5.0177    0.0000 C   0  0  0  0  0  0  0  0  0  0  0  0
    1.6499   -4.1584    0.0000 C   0  0  0  0  0  0  0  0  0  0  0  0
    1.6499   -5.0177    0.0000 C   0  0  0  0  0  0  0  0  0  0  0  0
    1.6972   -2.4889    0.0000 C   0  0  0  0  0  0  0  0  0  0  0  0
  1 18  1  0
  1 33  1  0
  2 19  1  0
  2 34  1  0
  3 37  1  0
  3 42  1  0
  4 31  2  0
  5 32  2  0
  6  9  1  0
  6 10  1  0
  6 14  1  0
  7 23  1  0
  7 32  1  0
  8 26  1  0
  8 29  1  0
  9 11  1  0
 10 12  1  0
 11 13  1  0
 12 13  2  0
 12 16  1  0
 13 17  1  0
 14 15  1  0
 15 20  1  0
 16 18  2  0
 17 19  2  0
 18 19  1  0
 20 21  2  0
 20 22  1  0
 21 24  1  0
 22 25  2  0
 23 24  2  0
 23 25  1  0
 26 27  2  0
 26 28  1  0
 27 31  1  0
 27 35  1  0
 28 32  1  0
 28 36  2  0
 29 30  2  0
 29 37  1  0
 30 31  1  0
 30 38  1  0
 35 39  2  0
 36 39  1  0
 37 40  2  0
 38 41  2  0
 40 41  1  0
M  END
>  <DRUGBANK_ID>  (1) 
DB04881

>  <COMMON_NAME>  (1) 
Elacridar

>  <CAS_NUMBER>  (1) 
143664-11-3

>  <UNII>  (1) 
N488540F94

>  <SYNONYMS>  (1) 
Elacridar

$$$$
