
     RDKit          2D

 36 39  0  0  1  0  0  0  0  0999 V2000
   -4.6158   -1.2886    0.0000 C   0  0  0  0  0  0  0  0  0  0  0  0
   -4.0324   -0.7052    0.0000 C   0  0  0  0  0  0  0  0  0  0  0  0
   -3.2355   -0.9188    0.0000 C   0  0  0  0  0  0  0  0  0  0  0  0
   -3.0220   -1.7157    0.0000 C   0  0  0  0  0  0  0  0  0  0  0  0
   -3.6054   -2.2990    0.0000 C   0  0  0  0  0  0  0  0  0  0  0  0
   -4.4023   -2.0855    0.0000 C   0  0  0  0  0  0  0  0  0  0  0  0
   -2.2251   -1.9292    0.0000 C   0  0  0  0  0  0  0  0  0  0  0  0
   -1.6418   -1.3458    0.0000 C   0  0  0  0  0  0  0  0  0  0  0  0
   -1.8553   -0.5489    0.0000 O   0  0  0  0  0  0  0  0  0  0  0  0
   -0.8449   -1.5593    0.0000 N   0  0  0  0  0  0  0  0  0  0  0  0
   -0.2615   -0.9760    0.0000 C   0  0  0  0  0  0  0  0  0  0  0  0
    0.5635   -0.9760    0.0000 C   0  0  0  0  0  0  0  0  0  0  0  0
    0.5635   -0.1510    0.0000 N   0  0  0  0  0  0  0  0  0  0  0  0
   -0.2615   -0.1510    0.0000 C   0  0  0  0  0  0  0  0  0  0  0  0
   -0.8449    0.4324    0.0000 O   0  0  0  0  0  0  0  0  0  0  0  0
    1.2780    0.2615    0.0000 C   0  0  0  0  0  0  0  0  0  0  0  0
    1.9924   -0.1510    0.0000 C   0  0  0  0  0  0  0  0  0  0  0  0
    1.9924   -0.9760    0.0000 C   0  0  0  0  0  0  0  0  0  0  0  0
    1.2780   -1.3885    0.0000 S   0  0  0  0  0  0  0  0  0  0  0  0
    2.7069    0.2615    0.0000 C   0  0  0  0  0  0  0  0  0  0  0  0
    3.4214   -0.1510    0.0000 N   0  0  0  0  0  0  0  0  0  0  0  0
    4.1358    0.2615    0.0000 C   0  0  0  0  0  0  0  0  0  0  0  0
    4.8503   -0.1510    0.0000 C   0  0  0  0  0  0  0  0  0  0  0  0
    4.8503   -0.9760    0.0000 C   0  0  0  0  0  0  0  0  0  0  0  0
    4.1358   -1.3885    0.0000 C   0  0  0  0  0  0  0  0  0  0  0  0
    3.4214   -0.9760    0.0000 C   0  0  0  0  0  0  0  0  0  0  0  0
    5.5648   -1.3885    0.0000 C   0  0  0  0  0  0  0  0  0  0  0  0
    6.2793   -0.9760    0.0000 O   0  0  0  0  0  0  0  0  0  0  0  0
    5.5648   -2.2135    0.0000 N   0  0  0  0  0  0  0  0  0  0  0  0
    1.2780    1.0865    0.0000 C   0  0  0  0  0  0  0  0  0  0  0  0
    1.9924    1.4990    0.0000 O   0  0  0  0  0  0  0  0  0  0  0  0
    0.5635    1.4990    0.0000 O   0  0  0  0  0  0  0  0  0  0  0  0
   -2.0116   -2.7261    0.0000 S   0  0  0  0  0  0  0  0  0  0  0  0
   -1.7981   -3.5230    0.0000 O   0  0  0  0  0  0  0  0  0  0  0  0
   -1.2147   -2.5125    0.0000 O   0  0  0  0  0  0  0  0  0  0  0  0
   -2.8085   -2.9396    0.0000 O   0  0  0  0  0  0  0  0  0  0  0  0
  1  2  2  0
  1  6  1  0
  2  3  1  0
  3  4  2  0
  4  5  1  0
  4  7  1  0
  5  6  2  0
  7  8  1  6
  7 33  1  0
  8  9  2  0
  8 10  1  0
 11 10  1  6
 11 12  1  0
 11 14  1  0
 12 13  1  0
 12 19  1  6
 13 14  1  0
 13 16  1  0
 14 15  2  0
 16 17  2  0
 16 30  1  0
 17 18  1  0
 17 20  1  0
 18 19  1  0
 20 21  1  0
 21 22  2  0
 21 26  1  0
 22 23  1  0
 23 24  2  0
 24 25  1  0
 24 27  1  0
 25 26  2  0
 27 28  2  0
 27 29  1  0
 30 31  2  0
 30 32  1  0
 33 34  2  0
 33 35  2  0
 33 36  1  0
M  CHG  2  21   1  32  -1
M  END
>  <DRUGBANK_ID>  (1) 
DB13499

>  <COMMON_NAME>  (1) 
Cefsulodin

>  <CAS_NUMBER>  (1) 
62587-73-9

>  <UNII>  (1) 
OV42LHE42B

>  <SYNONYMS>  (1) 
Cefsulodin; cefsulodino

$$$$
