3BK
     RDKit          2D

 29 32  0  0  0  0  0  0  0  0999 V2000
   -1.6097    0.7018    0.0000 C   0  0  0  0  0  0  0  0  0  0  0  0
   -2.4347    0.7018    0.0000 C   0  0  0  0  0  0  0  0  0  0  0  0
   -2.8472   -0.0126    0.0000 Cl  0  0  0  0  0  0  0  0  0  0  0  0
   -2.8472    1.4163    0.0000 C   0  0  0  0  0  0  0  0  0  0  0  0
   -3.6722    1.4163    0.0000 Cl  0  0  0  0  0  0  0  0  0  0  0  0
   -2.4347    2.1308    0.0000 C   0  0  0  0  0  0  0  0  0  0  0  0
   -1.6097    2.1308    0.0000 C   0  0  0  0  0  0  0  0  0  0  0  0
   -1.1972    1.4163    0.0000 C   0  0  0  0  0  0  0  0  0  0  0  0
   -0.3722    1.4163    0.0000 C   0  0  0  0  0  0  0  0  0  0  0  0
    0.0403    0.7018    0.0000 N   0  0  0  0  0  0  0  0  0  0  0  0
    0.8653    0.7018    0.0000 C   0  0  0  0  0  0  0  0  0  0  0  0
    1.3502    1.3693    0.0000 N   0  0  0  0  0  0  0  0  0  0  0  0
    2.1348    1.1143    0.0000 C   0  0  0  0  0  0  0  0  0  0  0  0
    2.8493    1.5268    0.0000 C   0  0  0  0  0  0  0  0  0  0  0  0
    2.8493    2.3518    0.0000 N   0  0  0  0  0  0  0  0  0  0  0  0
    3.5638    1.1143    0.0000 N   0  0  0  0  0  0  0  0  0  0  0  0
    3.5638    0.2893    0.0000 C   0  0  0  0  0  0  0  0  0  0  0  0
    2.8493   -0.1232    0.0000 N   0  0  0  0  0  0  0  0  0  0  0  0
    2.1348    0.2893    0.0000 C   0  0  0  0  0  0  0  0  0  0  0  0
    1.3502    0.0344    0.0000 N   0  0  0  0  0  0  0  0  0  0  0  0
    1.0953   -0.7502    0.0000 C   0  0  0  0  0  0  0  0  0  0  0  0
    1.5802   -1.4177    0.0000 O   0  0  0  0  0  0  0  0  0  0  0  0
    1.0953   -2.0851    0.0000 C   0  0  0  0  0  0  0  0  0  0  0  0
    1.3502   -2.8697    0.0000 C   0  0  0  0  0  0  0  0  0  0  0  0
    2.1572   -3.0413    0.0000 O   0  0  0  0  0  0  0  0  0  0  0  0
    0.3106   -1.8302    0.0000 C   0  0  0  0  0  0  0  0  0  0  0  0
   -0.3568   -2.3151    0.0000 O   0  0  0  0  0  0  0  0  0  0  0  0
    0.3106   -1.0052    0.0000 C   0  0  0  0  0  0  0  0  0  0  0  0
   -0.3568   -0.5202    0.0000 O   0  0  0  0  0  0  0  0  0  0  0  0
  1  2  2  0
  1  8  1  0
  2  3  1  0
  2  4  1  0
  4  5  1  0
  4  6  2  0
  6  7  1  0
  7  8  2  0
  8  9  1  0
  9 10  1  0
 10 11  1  0
 11 12  2  0
 11 20  1  0
 12 13  1  0
 13 14  2  0
 13 19  1  0
 14 15  1  0
 14 16  1  0
 16 17  2  0
 17 18  1  0
 18 19  2  0
 19 20  1  0
 21 20  1  6
 21 22  1  0
 21 28  1  0
 22 23  1  0
 23 24  1  6
 23 26  1  0
 24 25  1  0
 26 27  1  1
 26 28  1  0
 28 29  1  1
M  END
>  <DRUGBANK_ID>  (1) 
DB07045

>  <COMMON_NAME>  (1) 
(2R,3R,4S,5R)-2-[6-amino-8-[(3,4-dichlorophenyl)methylamino]purin-9-yl]-5-(hydroxymethyl)oxolane-3,4-diol

$$$$
