
     RDKit          2D

 27 28  0  0  0  0  0  0  0  0999 V2000
   -2.1403   -0.2105    0.0000 C   0  0  0  0  0  0  0  0  0  0  0  0
   -2.1510    0.6079    0.0000 C   0  0  0  0  0  0  0  0  0  0  0  0
   -2.8524   -0.6280    0.0000 C   0  0  0  0  0  0  0  0  0  0  0  0
   -1.4282   -0.6135    0.0000 C   0  0  0  0  0  0  0  0  0  0  0  0
   -1.4437    1.0330    0.0000 C   0  0  0  0  0  0  0  0  0  0  0  0
   -2.8721    1.0082    0.0000 C   0  0  0  0  0  0  0  0  0  0  0  0
   -2.8480   -1.4522    0.0000 C   0  0  0  0  0  0  0  0  0  0  0  0
   -3.5713   -0.2177    0.0000 C   0  0  0  0  0  0  0  0  0  0  0  0
   -0.7145   -0.1981    0.0000 C   0  0  0  0  0  0  0  0  0  0  0  0
   -1.4206   -1.4368    0.0000 C   0  0  0  0  0  0  0  0  0  0  0  0
   -1.4554    1.8574    0.0000 C   0  0  0  0  0  0  0  0  0  0  0  0
   -2.8876    1.8363    0.0000 C   0  0  0  0  0  0  0  0  0  0  0  0
   -3.5541   -1.8617    0.0000 C   0  0  0  0  0  0  0  0  0  0  0  0
   -4.2848   -0.6349    0.0000 C   0  0  0  0  0  0  0  0  0  0  0  0
   -0.0073   -0.5999    0.0000 O   0  0  0  0  0  0  0  0  0  0  0  0
   -0.7254    0.6246    0.0000 O   0  0  0  0  0  0  0  0  0  0  0  0
   -1.4121   -2.2551    0.0000 N   0  0  0  0  0  0  0  0  0  0  0  0
   -2.1906    2.2551    0.0000 C   0  0  0  0  0  0  0  0  0  0  0  0
   -4.2755   -1.4594    0.0000 C   0  0  0  0  0  0  0  0  0  0  0  0
    0.7068   -0.1885    0.0000 C   0  0  0  0  0  0  0  0  0  0  0  0
    1.4215   -0.5976    0.0000 C   0  0  0  0  0  0  0  0  0  0  0  0
    2.1381   -0.1835    0.0000 C   0  0  0  0  0  0  0  0  0  0  0  0
    1.4275   -1.4226    0.0000 C   0  0  0  0  0  0  0  0  0  0  0  0
    2.8546   -0.5969    0.0000 C   0  0  0  0  0  0  0  0  0  0  0  0
    0.7206   -1.8335    0.0000 C   0  0  0  0  0  0  0  0  0  0  0  0
    3.5690   -0.1838    0.0000 C   0  0  0  0  0  0  0  0  0  0  0  0
    4.2848   -0.5942    0.0000 C   0  0  0  0  0  0  0  0  0  0  0  0
  1  2  1  0
  1  3  1  0
  1  4  2  3
  2  5  2  0
  2  6  1  0
  3  7  2  0
  3  8  1  0
  4  9  1  0
  4 10  1  0
  5 11  1  0
  6 12  2  0
  7 13  1  0
  8 14  2  0
  9 15  1  0
  9 16  2  0
 10 17  3  0
 11 18  2  0
 12 18  1  0
 13 19  2  0
 14 19  1  0
 15 20  1  0
 20 21  1  0
 21 22  1  0
 21 23  1  0
 22 24  1  0
 23 25  1  0
 24 26  1  0
 26 27  1  0
M  END
>  <DRUGBANK_ID>  (1) 
DB09535

>  <COMMON_NAME>  (1) 
Octocrylene

>  <CAS_NUMBER>  (1) 
6197-30-4

>  <UNII>  (1) 
5A68WGF6WM

>  <SYNONYMS>  (1) 
Octocrileno; Octocrilenum; Octocrylene

$$$$
