
     RDKit          2D

 17 16  0  0  1  0  0  0  0  0999 V2000
    3.9039   -1.4289    0.0000 C   0  0  0  0  0  0  0  0  0  0  0  0
    3.1895   -1.8414    0.0000 C   0  0  0  0  0  0  0  0  0  0  0  0
    4.6184   -1.8414    0.0000 C   0  0  0  0  0  0  0  0  0  0  0  0
    2.4750   -1.4289    0.0000 C   0  0  0  0  0  0  0  0  0  0  0  0
    1.7605   -1.8414    0.0000 C   0  0  0  0  0  0  0  0  0  0  0  0
    2.4750   -0.6039    0.0000 N   0  0  0  0  0  0  0  0  0  0  0  0
    6.4599   -1.1270    0.0000 N   0  0  0  0  0  0  0  0  0  0  0  0
    5.3329   -1.4289    0.0000 N   0  0  0  0  0  0  0  0  0  0  0  0
    6.7618   -2.2539    0.0000 N   0  0  0  0  0  0  0  0  0  0  0  0
    1.0461   -1.4289    0.0000 O   0  0  0  0  0  0  0  0  0  0  0  0
    1.7605   -2.6664    0.0000 O   0  0  0  0  0  0  0  0  0  0  0  0
    5.6349   -2.5559    0.0000 O   0  0  0  0  0  0  0  0  0  0  0  0
    8.1908   -1.4289    0.0000 O   0  0  0  0  0  0  0  0  0  0  0  0
    7.8888   -2.5559    0.0000 O   0  0  0  0  0  0  0  0  0  0  0  0
    7.0638   -1.1270    0.0000 O   0  0  0  0  0  0  0  0  0  0  0  0
    6.0474   -1.8414    0.0000 P   0  0  0  0  0  0  0  0  0  0  0  0
    7.4763   -1.8414    0.0000 S   0  0  0  0  0  0  0  0  0  0  0  0
  2  1  1  0
  3  1  1  0
  4  2  1  0
  4  6  1  1
  5  4  1  0
  8  3  1  0
 10  5  2  0
 11  5  1  0
 16  7  1  0
 16  8  1  0
 16  9  1  0
 16 12  2  0
 17  9  1  0
 17 13  1  0
 17 14  2  0
 17 15  2  0
M  END
>  <DRUGBANK_ID>  (1) 
DB02965

>  <SECONDARY_ACCESSION_NUMBERS>  (1) 
EXPT02674

>  <COMMON_NAME>  (1) 
Ndelta-(N'-Sulphodiaminophosphinyl)-L-Ornithine

$$$$
