
     RDKit          2D

 24 26  0  0  0  0  0  0  0  0999 V2000
   -3.5724    9.2411    0.0000 C   0  0  0  0  0  0  0  0  0  0  0  0
   -5.7158   10.4786    0.0000 C   0  0  0  0  0  0  0  0  0  0  0  0
   -1.0164    3.4340    0.0000 C   0  0  0  0  0  0  0  0  0  0  0  0
   -5.7158    9.6536    0.0000 C   0  0  0  0  0  0  0  0  0  0  0  0
   -0.7615    4.2187    0.0000 C   0  0  0  0  0  0  0  0  0  0  0  0
   -5.0013   10.8911    0.0000 C   0  0  0  0  0  0  0  0  0  0  0  0
   -2.8579    8.0036    0.0000 C   0  0  0  0  0  0  0  0  0  0  0  0
   -1.4289    5.5286    0.0000 C   0  0  0  0  0  0  0  0  0  0  0  0
   -3.5724    8.4161    0.0000 C   0  0  0  0  0  0  0  0  0  0  0  0
   -2.1434    5.9411    0.0000 C   0  0  0  0  0  0  0  0  0  0  0  0
   -1.8414    3.4340    0.0000 C   0  0  0  0  0  0  0  0  0  0  0  0
   -3.5724    6.7661    0.0000 C   0  0  0  0  0  0  0  0  0  0  0  0
   -5.0013    8.4161    0.0000 C   0  0  0  0  0  0  0  0  0  0  0  0
   -4.2868    9.6536    0.0000 C   0  0  0  0  0  0  0  0  0  0  0  0
   -5.0013    9.2411    0.0000 C   0  0  0  0  0  0  0  0  0  0  0  0
   -2.8579    7.1786    0.0000 C   0  0  0  0  0  0  0  0  0  0  0  0
   -1.4289    4.7036    0.0000 C   0  0  0  0  0  0  0  0  0  0  0  0
   -4.2868   10.4786    0.0000 C   0  0  0  0  0  0  0  0  0  0  0  0
   -4.2868    7.1786    0.0000 C   0  0  0  0  0  0  0  0  0  0  0  0
   -3.5724   10.8911    0.0000 N   0  0  0  0  0  0  0  0  0  0  0  0
   -4.2868    8.0036    0.0000 N   0  0  0  0  0  0  0  0  0  0  0  0
   -5.0013    6.7661    0.0000 O   0  0  0  0  0  0  0  0  0  0  0  0
   -2.1434    6.7661    0.0000 O   0  0  0  0  0  0  0  0  0  0  0  0
   -2.0964    4.2187    0.0000 S   0  0  0  0  0  0  0  0  0  0  0  0
  4  2  2  0
  5  3  1  0
  6  2  1  0
  9  7  2  0
 10  8  1  0
 11  3  2  0
 14  1  1  0
 15  4  1  0
 15 13  1  0
 15 14  2  0
 16  7  1  0
 16 12  2  0
 17  5  2  0
 17  8  1  0
 18  6  2  0
 18 14  1  0
 19 12  1  0
 20 18  1  0
 21  9  1  0
 21 13  1  0
 21 19  1  0
 22 19  2  0
 23 10  1  0
 23 16  1  0
 24 11  1  0
 24 17  1  0
M  END
>  <DRUGBANK_ID>  (1) 
DB12347

>  <COMMON_NAME>  (1) 
CG-400549

>  <CAS_NUMBER>  (1) 
934628-27-0

>  <UNII>  (1) 
4X6T64D64X

$$$$
