
     RDKit          2D

 19 19  0  0  0  0  0  0  0  0999 V2000
   -1.6501    0.0077    0.0000 O   0  0  0  0  0  0  0  0  0  0  0  0
   -1.2357    0.7211    0.0000 C   0  0  0  0  0  0  0  0  0  0  0  0
   -0.4105    0.7190    0.0000 C   0  0  0  0  0  0  0  0  0  0  0  0
    0.0038    1.4324    0.0000 C   0  0  0  0  0  0  0  0  0  0  0  0
    0.8288    1.4302    0.0000 C   0  0  0  0  0  0  0  0  0  0  0  0
    1.2433    2.1435    0.0000 C   0  0  0  0  0  0  0  0  0  0  0  0
    2.0682    2.1414    0.0000 C   0  0  0  0  0  0  0  0  0  0  0  0
    2.4828    2.8547    0.0000 C   0  0  0  0  0  0  0  0  0  0  0  0
   -1.2395   -0.7078    0.0000 C   0  0  0  0  0  0  0  0  0  0  0  0
   -1.6539   -1.4213    0.0000 O   0  0  0  0  0  0  0  0  0  0  0  0
   -1.2433   -2.1369    0.0000 C   0  0  0  0  0  0  0  0  0  0  0  0
   -1.6578   -2.8503    0.0000 C   0  0  0  0  0  0  0  0  0  0  0  0
   -2.4828   -2.8481    0.0000 O   0  0  0  0  0  0  0  0  0  0  0  0
   -0.4182   -2.1390    0.0000 C   0  0  0  0  0  0  0  0  0  0  0  0
   -0.0038   -1.4257    0.0000 C   0  0  0  0  0  0  0  0  0  0  0  0
   -0.4144   -0.7101    0.0000 C   0  0  0  0  0  0  0  0  0  0  0  0
    0.0000    0.0033    0.0000 O   0  0  0  0  0  0  0  0  0  0  0  0
    0.8211   -1.4278    0.0000 O   0  0  0  0  0  0  0  0  0  0  0  0
   -0.0076   -2.8547    0.0000 O   0  0  0  0  0  0  0  0  0  0  0  0
  1  2  1  0
  2  3  1  0
  3  4  1  0
  4  5  1  0
  5  6  1  0
  6  7  1  0
  7  8  1  0
  9  1  1  1
  9 10  1  0
  9 16  1  0
 10 11  1  0
 11 12  1  1
 11 14  1  0
 12 13  1  0
 14 19  1  6
 15 14  1  0
 15 18  1  1
 16 15  1  0
 16 17  1  6
M  END
>  <DRUGBANK_ID>  (1) 
DB03338

>  <SECONDARY_ACCESSION_NUMBERS>  (1) 
EXPT00614

>  <COMMON_NAME>  (1) 
Heptyl glucoside

>  <CAS_NUMBER>  (1) 
78617-12-6

>  <UNII>  (1) 
BU2OC48XBR

>  <SYNONYMS>  (1) 
1-Heptyl beta-D-glucoside; Heptyl beta-D-glucopyranoside; Heptyl glucoside; n-Heptyl beta-D-glucopyranoside; n-Heptyl beta-D-glucoside

$$$$
