SM5
     RDKit          2D

 28 32  0  0  0  0  0  0  0  0999 V2000
    2.0216    0.2701    0.0000 C   0  0  0  0  0  0  0  0  0  0  0  0
    1.2011    0.3563    0.0000 N   0  0  0  0  0  0  0  0  0  0  0  0
   -1.5336   -1.5712    0.0000 C   0  0  0  0  0  0  0  0  0  0  0  0
   -0.8191   -1.1587    0.0000 C   0  0  0  0  0  0  0  0  0  0  0  0
   -0.8191   -0.3337    0.0000 C   0  0  0  0  0  0  0  0  0  0  0  0
   -1.5336    0.0788    0.0000 C   0  0  0  0  0  0  0  0  0  0  0  0
   -2.2480   -0.3337    0.0000 C   0  0  0  0  0  0  0  0  0  0  0  0
   -2.2480   -1.1587    0.0000 C   0  0  0  0  0  0  0  0  0  0  0  0
   -0.4600    2.2583    0.0000 C   0  0  0  0  0  0  0  0  0  0  0  0
    0.7886    1.0708    0.0000 N   0  0  0  0  0  0  0  0  0  0  0  0
   -1.0730    2.8103    0.0000 C   0  0  0  0  0  0  0  0  0  0  0  0
   -2.0292    1.7484    0.0000 C   0  0  0  0  0  0  0  0  0  0  0  0
    3.1776   -0.5698    0.0000 C   0  0  0  0  0  0  0  0  0  0  0  0
   -1.4161    1.1964    0.0000 C   0  0  0  0  0  0  0  0  0  0  0  0
    0.6491   -0.2568    0.0000 C   0  0  0  0  0  0  0  0  0  0  0  0
   -0.6315    1.4513    0.0000 C   0  0  0  0  0  0  0  0  0  0  0  0
   -0.1046    0.0788    0.0000 C   0  0  0  0  0  0  0  0  0  0  0  0
    2.5065    0.9375    0.0000 C   0  0  0  0  0  0  0  0  0  0  0  0
    3.3270    0.8513    0.0000 C   0  0  0  0  0  0  0  0  0  0  0  0
   -0.0184    0.8993    0.0000 C   0  0  0  0  0  0  0  0  0  0  0  0
   -1.8577    2.5554    0.0000 N   0  0  0  0  0  0  0  0  0  0  0  0
    3.6625    0.0976    0.0000 N   0  0  0  0  0  0  0  0  0  0  0  0
    2.3571   -0.4836    0.0000 C   0  0  0  0  0  0  0  0  0  0  0  0
   -3.0327   -0.0788    0.0000 C   0  0  0  0  0  0  0  0  0  0  0  0
   -3.5176   -0.7462    0.0000 C   0  0  0  0  0  0  0  0  0  0  0  0
   -3.0327   -1.4136    0.0000 C   0  0  0  0  0  0  0  0  0  0  0  0
   -3.2876   -2.1983    0.0000 N   0  0  0  0  0  0  0  0  0  0  0  0
   -4.0946   -2.3698    0.0000 O   0  0  0  0  0  0  0  0  0  0  0  0
  2  1  1  0
  2 15  1  0
  4  3  2  0
  5  4  1  0
  6  7  1  0
  6  5  2  0
  7  8  2  0
  8 26  1  0
  8  3  1  0
 10 20  2  0
 10  2  1  0
 11  9  2  0
 12 14  1  0
 12 21  2  0
 14 16  2  0
 16 20  1  0
 16  9  1  0
 17 15  2  0
 17  5  1  0
 18 19  1  0
 18  1  1  0
 20 17  1  0
 21 11  1  0
 22 13  1  0
 22 19  1  0
 23 13  1  0
 23  1  1  0
 24  7  1  0
 24 25  1  0
 25 26  1  0
 26 27  2  0
 27 28  1  0
M  END
>  <DRUGBANK_ID>  (1) 
DB08553

>  <COMMON_NAME>  (1) 
(1E)-5-(1-piperidin-4-yl-3-pyridin-4-yl-1H-pyrazol-4-yl)-2,3-dihydro-1H-inden-1-one oxime

$$$$
