LKG
     RDKit          2D

 23 26  0  0  0  0  0  0  0  0999 V2000
   -0.0556    0.7871    0.0000 N   0  0  0  0  0  0  0  0  0  0  0  0
   -0.8402    1.8670    0.0000 N   0  0  0  0  0  0  0  0  0  0  0  0
    2.0878    0.3746    0.0000 C   0  0  0  0  0  0  0  0  0  0  0  0
    2.8023    0.7871    0.0000 C   0  0  0  0  0  0  0  0  0  0  0  0
    3.5167    0.3746    0.0000 C   0  0  0  0  0  0  0  0  0  0  0  0
    1.3733    0.7871    0.0000 C   0  0  0  0  0  0  0  0  0  0  0  0
    1.3733    1.6121    0.0000 C   0  0  0  0  0  0  0  0  0  0  0  0
   -0.0556    1.6121    0.0000 C   0  0  0  0  0  0  0  0  0  0  0  0
   -1.9021   -0.4240    0.0000 C   0  0  0  0  0  0  0  0  0  0  0  0
   -2.9641   -1.3801    0.0000 C   0  0  0  0  0  0  0  0  0  0  0  0
   -3.2611    0.0176    0.0000 C   0  0  0  0  0  0  0  0  0  0  0  0
   -2.1571   -1.2086    0.0000 C   0  0  0  0  0  0  0  0  0  0  0  0
   -3.5161   -0.7670    0.0000 C   0  0  0  0  0  0  0  0  0  0  0  0
   -4.3231   -0.9386    0.0000 O   0  0  0  0  0  0  0  0  0  0  0  0
   -2.4542    0.1891    0.0000 C   0  0  0  0  0  0  0  0  0  0  0  0
   -1.0952   -0.2525    0.0000 C   0  0  0  0  0  0  0  0  0  0  0  0
   -0.8402    0.5322    0.0000 C   0  0  0  0  0  0  0  0  0  0  0  0
    0.6589    0.3746    0.0000 N   0  0  0  0  0  0  0  0  0  0  0  0
   -1.3252    1.1996    0.0000 N   0  0  0  0  0  0  0  0  0  0  0  0
    0.6589    2.0246    0.0000 C   0  0  0  0  0  0  0  0  0  0  0  0
    2.0878   -0.4504    0.0000 C   0  0  0  0  0  0  0  0  0  0  0  0
    2.8023   -0.8629    0.0000 C   0  0  0  0  0  0  0  0  0  0  0  0
    3.5167   -0.4504    0.0000 C   0  0  0  0  0  0  0  0  0  0  0  0
  1  8  1  0
  1 17  1  0
  1 18  1  0
  2  8  2  0
  2 19  1  0
  3  4  2  0
  3  6  1  0
  3 21  1  0
  4  5  1  0
  5 23  2  0
  6  7  1  0
  6 18  2  0
  7 20  2  0
  8 20  1  0
  9 12  1  0
  9 15  2  0
  9 16  1  0
 10 12  2  0
 10 13  1  0
 11 13  2  0
 11 15  1  0
 13 14  1  0
 16 17  1  0
 17 19  2  0
 21 22  2  0
 22 23  1  0
M  END
>  <DRUGBANK_ID>  (1) 
DB08111

>  <COMMON_NAME>  (1) 
4-[(6-phenyl[1,2,4]triazolo[4,3-b]pyridazin-3-yl)methyl]phenol

>  <UNII>  (1) 
S85YZ8U3Z6

$$$$
