
     RDKit          2D

 28 31  0  0  1  0  0  0  0  0999 V2000
    1.6288    0.2334    0.0000 C   0  0  0  0  0  0  0  0  0  0  0  0
    1.9486    0.9939    0.0000 C   0  0  0  0  0  0  0  0  0  0  0  0
    2.7519    1.1821    0.0000 C   0  0  0  0  0  0  0  0  0  0  0  0
    2.8210    2.0042    0.0000 N   0  0  0  0  0  0  0  0  0  0  0  0
    2.0605    2.3241    0.0000 C   0  0  0  0  0  0  0  0  0  0  0  0
    1.5214    1.6996    0.0000 N   0  0  0  0  0  0  0  0  0  0  0  0
    0.6970    1.7318    0.0000 C   0  0  0  0  0  0  0  0  0  0  0  0
    0.3659    0.9762    0.0000 C   0  0  0  0  0  0  0  0  0  0  0  0
   -0.4541    0.8852    0.0000 C   0  0  0  0  0  0  0  0  0  0  0  0
   -0.9429    1.5498    0.0000 C   0  0  0  0  0  0  0  0  0  0  0  0
   -0.6118    2.3054    0.0000 C   0  0  0  0  0  0  0  0  0  0  0  0
    0.2082    2.3964    0.0000 C   0  0  0  0  0  0  0  0  0  0  0  0
    0.4230    3.1929    0.0000 C   0  0  0  0  0  0  0  0  0  0  0  0
    1.1797    3.5216    0.0000 N   0  0  0  0  0  0  0  0  0  0  0  0
    1.9085    3.1349    0.0000 C   0  0  0  0  0  0  0  0  0  0  0  0
    2.5731    3.6237    0.0000 C   0  0  0  0  0  0  0  0  0  0  0  0
    3.3287    3.2926    0.0000 C   0  0  0  0  0  0  0  0  0  0  0  0
    3.9933    3.7814    0.0000 C   0  0  0  0  0  0  0  0  0  0  0  0
    3.9023    4.6014    0.0000 O   0  0  0  0  0  0  0  0  0  0  0  0
    4.7489    3.4502    0.0000 O   0  0  0  0  0  0  0  0  0  0  0  0
    5.4135    3.9391    0.0000 C   0  0  0  0  0  0  0  0  0  0  0  0
   -0.2014    3.7321    0.0000 C   0  0  0  0  0  0  0  0  0  0  0  0
   -0.9806    3.4609    0.0000 C   0  0  0  0  0  0  0  0  0  0  0  0
   -1.6050    4.0001    0.0000 C   0  0  0  0  0  0  0  0  0  0  0  0
   -1.4503    4.8104    0.0000 C   0  0  0  0  0  0  0  0  0  0  0  0
   -0.6712    5.0816    0.0000 C   0  0  0  0  0  0  0  0  0  0  0  0
   -0.0467    4.5425    0.0000 N   0  0  0  0  0  0  0  0  0  0  0  0
   -1.7629    1.4587    0.0000 Br  0  0  0  0  0  0  0  0  0  0  0  0
  1  2  1  0
  2  3  2  0
  2  6  1  0
  3  4  1  0
  4  5  2  0
  5  6  1  0
  5 15  1  0
  6  7  1  0
  7  8  2  0
  7 12  1  0
  8  9  1  0
  9 10  2  0
 10 11  1  0
 10 28  1  0
 11 12  2  0
 12 13  1  0
 13 14  2  0
 13 22  1  0
 14 15  1  0
 15 16  1  1
 16 17  1  0
 17 18  1  0
 18 19  2  0
 18 20  1  0
 20 21  1  0
 22 23  2  0
 22 27  1  0
 23 24  1  0
 24 25  2  0
 25 26  1  0
 26 27  2  0
M  END
>  <DRUGBANK_ID>  (1) 
DB12404

>  <COMMON_NAME>  (1) 
Remimazolam

>  <CAS_NUMBER>  (1) 
308242-62-8

>  <UNII>  (1) 
7V4A8U16MB

>  <SYNONYMS>  (1) 
Remimazolam

$$$$
