
     RDKit          2D

 20 20  0  0  1  0  0  0  0  0999 V2000
    2.1434    1.2375    0.0000 C   0  0  0  0  0  0  0  0  0  0  0  0
    1.4289    0.8250    0.0000 C   0  0  0  0  0  0  0  0  0  0  0  0
    0.0000    0.0000    0.0000 C   0  0  0  0  0  0  0  0  0  0  0  0
    0.7145    1.2375    0.0000 C   0  0  0  0  0  0  0  0  0  0  0  0
    0.0000    0.8250    0.0000 C   0  0  0  0  0  0  0  0  0  0  0  0
    0.7145   -0.4125    0.0000 C   0  0  0  0  0  0  0  0  0  0  0  0
   -0.7145   -0.4125    0.0000 N   0  0  0  0  0  0  0  0  0  0  0  0
    0.7145    2.0625    0.0000 O   0  0  0  0  0  0  0  0  0  0  0  0
   -0.7145    1.2375    0.0000 O   0  0  0  0  0  0  0  0  0  0  0  0
    0.7145   -1.2375    0.0000 O   0  0  0  0  0  0  0  0  0  0  0  0
   -0.7145   -2.0625    0.0000 O   0  0  0  0  0  0  0  0  0  0  0  0
    0.1105   -1.2375    0.0000 O   0  0  0  0  0  0  0  0  0  0  0  0
   -1.5395   -1.2375    0.0000 O   0  0  0  0  0  0  0  0  0  0  0  0
    4.2868    1.6500    0.0000 O   0  0  0  0  0  0  0  0  0  0  0  0
    3.9849    0.5230    0.0000 O   0  0  0  0  0  0  0  0  0  0  0  0
    3.1599    1.9520    0.0000 O   0  0  0  0  0  0  0  0  0  0  0  0
    2.8579    0.8250    0.0000 O   0  0  0  0  0  0  0  0  0  0  0  0
    1.4289   -0.0000    0.0000 O   0  0  0  0  0  0  0  0  0  0  0  0
   -0.7145   -1.2375    0.0000 S   0  0  0  0  0  0  0  0  0  0  0  0
    3.5724    1.2375    0.0000 S   0  0  0  0  0  0  0  0  0  0  0  0
  2  1  1  1
  3  7  1  6
  4  2  1  0
  4  8  1  6
  5  3  1  0
  5  4  1  0
  5  9  1  1
  6  3  1  0
  6 10  1  6
 17  1  1  0
 18  2  1  0
 18  6  1  0
 19  7  1  0
 19 11  1  0
 19 12  2  0
 19 13  2  0
 20 14  1  0
 20 15  2  0
 20 16  2  0
 20 17  1  0
M  END
>  <DRUGBANK_ID>  (1) 
DB03959

>  <SECONDARY_ACCESSION_NUMBERS>  (1) 
EXPT02898

>  <COMMON_NAME>  (1) 
N,O6-Disulfo-Glucosamine

$$$$
