
     RDKit          2D

 33 37  0  0  0  0  0  0  0  0999 V2000
   -3.0987   -0.8891    0.0000 C   0  0  0  0  0  0  0  0  0  0  0  0
    4.9992    1.3832    0.0000 C   0  0  0  0  0  0  0  0  0  0  0  0
    4.8445    2.1935    0.0000 C   0  0  0  0  0  0  0  0  0  0  0  0
    4.3748    0.8440    0.0000 C   0  0  0  0  0  0  0  0  0  0  0  0
    4.0654    2.4647    0.0000 C   0  0  0  0  0  0  0  0  0  0  0  0
    3.8483   -1.7317    0.0000 C   0  0  0  0  0  0  0  0  0  0  0  0
    3.0283   -1.6407    0.0000 C   0  0  0  0  0  0  0  0  0  0  0  0
   -2.1649   -1.9707    0.0000 C   0  0  0  0  0  0  0  0  0  0  0  0
   -1.6951   -0.6211    0.0000 C   0  0  0  0  0  0  0  0  0  0  0  0
   -1.3857   -2.2419    0.0000 C   0  0  0  0  0  0  0  0  0  0  0  0
   -0.9160   -0.8923    0.0000 C   0  0  0  0  0  0  0  0  0  0  0  0
    4.0060   -0.3115    0.0000 C   0  0  0  0  0  0  0  0  0  0  0  0
    1.4857    0.5180    0.0000 C   0  0  0  0  0  0  0  0  0  0  0  0
    0.0179   -1.9739    0.0000 C   0  0  0  0  0  0  0  0  0  0  0  0
    4.3371   -1.0671    0.0000 C   0  0  0  0  0  0  0  0  0  0  0  0
    3.5956    1.1152    0.0000 C   0  0  0  0  0  0  0  0  0  0  0  0
    3.1860   -0.2205    0.0000 C   0  0  0  0  0  0  0  0  0  0  0  0
    3.4409    1.9256    0.0000 C   0  0  0  0  0  0  0  0  0  0  0  0
    0.6423   -1.4348    0.0000 C   0  0  0  0  0  0  0  0  0  0  0  0
    2.6972   -0.8851    0.0000 C   0  0  0  0  0  0  0  0  0  0  0  0
    1.3337   -0.2928    0.0000 C   0  0  0  0  0  0  0  0  0  0  0  0
    2.9712    0.5760    0.0000 C   0  0  0  0  0  0  0  0  0  0  0  0
    1.4456   -1.6230    0.0000 C   0  0  0  0  0  0  0  0  0  0  0  0
    2.6618    2.1968    0.0000 Cl  0  0  0  0  0  0  0  0  0  0  0  0
    2.2145    0.9047    0.0000 N   0  0  0  0  0  0  0  0  0  0  0  0
    0.5732   -0.6127    0.0000 N   0  0  0  0  0  0  0  0  0  0  0  0
   -2.3196   -1.1603    0.0000 N   0  0  0  0  0  0  0  0  0  0  0  0
   -0.7613   -1.7027    0.0000 N   0  0  0  0  0  0  0  0  0  0  0  0
    1.8728   -0.9173    0.0000 N   0  0  0  0  0  0  0  0  0  0  0  0
    5.1571   -1.1582    0.0000 N   0  0  0  0  0  0  0  0  0  0  0  0
    1.7654   -2.3835    0.0000 O   0  0  0  0  0  0  0  0  0  0  0  0
    5.6459   -0.4936    0.0000 O   0  0  0  0  0  0  0  0  0  0  0  0
    5.4882   -1.9138    0.0000 O   0  0  0  0  0  0  0  0  0  0  0  0
  3  2  2  0
  4  2  1  0
  5  3  1  0
  7  6  2  0
 10  8  1  0
 11  9  1  0
 15  6  1  0
 15 12  2  0
 16  4  2  0
 17 12  1  0
 18  5  2  0
 18 16  1  0
 19 14  2  0
 20  7  1  0
 20 17  2  0
 21 13  1  0
 22 16  1  0
 22 17  1  0
 23 19  1  0
 24 18  1  0
 25 13  1  0
 25 22  2  0
 26 19  1  0
 26 21  2  0
 27  1  1  0
 27  8  1  0
 27  9  1  0
 28 10  1  0
 28 11  1  0
 28 14  1  0
 29 20  1  0
 29 21  1  0
 29 23  1  0
 30 15  1  0
 31 23  2  0
 32 30  1  0
 33 30  2  0
M  CHG  2  30   1  32  -1
M  END
>  <DRUGBANK_ID>  (1) 
DB13643

>  <COMMON_NAME>  (1) 
Loprazolam

>  <CAS_NUMBER>  (1) 
61197-73-7

>  <UNII>  (1) 
759N8462G8

>  <SYNONYMS>  (1) 
Loprazolam; Triazulenone

$$$$
