NSC
     RDKit          2D

 28 31  0  0  0  0  0  0  0  0999 V2000
    1.1656   -0.8906    0.0000 C   0  0  0  0  0  0  0  0  0  0  0  0
    0.4512   -1.3031    0.0000 C   0  0  0  0  0  0  0  0  0  0  0  0
    0.4512   -2.1281    0.0000 C   0  0  0  0  0  0  0  0  0  0  0  0
    1.1656   -2.5406    0.0000 N   0  0  0  0  0  0  0  0  0  0  0  0
   -0.2633   -2.5406    0.0000 C   0  0  0  0  0  0  0  0  0  0  0  0
   -0.9778   -2.1281    0.0000 C   0  0  0  0  0  0  0  0  0  0  0  0
   -1.6923   -2.5406    0.0000 C   0  0  0  0  0  0  0  0  0  0  0  0
   -0.9778   -1.3031    0.0000 N   0  0  0  0  0  0  0  0  0  0  0  0
   -0.2633   -0.8906    0.0000 C   0  0  0  0  0  0  0  0  0  0  0  0
   -0.2633   -0.0656    0.0000 C   0  0  0  0  0  0  0  0  0  0  0  0
    0.4512    0.3469    0.0000 C   0  0  0  0  0  0  0  0  0  0  0  0
    1.1656   -0.0656    0.0000 C   0  0  0  0  0  0  0  0  0  0  0  0
    1.8801    0.3469    0.0000 N   0  0  0  0  0  0  0  0  0  0  0  0
    2.5946   -0.0656    0.0000 C   0  0  0  0  0  0  0  0  0  0  0  0
    2.5946   -0.8906    0.0000 O   0  0  0  0  0  0  0  0  0  0  0  0
    3.3090    0.3469    0.0000 N   0  0  0  0  0  0  0  0  0  0  0  0
    4.0235   -0.0656    0.0000 C   0  0  0  0  0  0  0  0  0  0  0  0
    4.7380    0.3469    0.0000 C   0  0  0  0  0  0  0  0  0  0  0  0
    5.4525   -0.0656    0.0000 C   0  0  0  0  0  0  0  0  0  0  0  0
    6.1669    0.3469    0.0000 C   0  0  0  0  0  0  0  0  0  0  0  0
    6.1669    1.1719    0.0000 N   0  0  0  0  0  0  0  0  0  0  0  0
    6.8814   -0.0656    0.0000 C   0  0  0  0  0  0  0  0  0  0  0  0
    6.8814   -0.8906    0.0000 C   0  0  0  0  0  0  0  0  0  0  0  0
    7.5959   -1.3031    0.0000 C   0  0  0  0  0  0  0  0  0  0  0  0
    6.1669   -1.3031    0.0000 N   0  0  0  0  0  0  0  0  0  0  0  0
    5.4525   -0.8906    0.0000 C   0  0  0  0  0  0  0  0  0  0  0  0
    4.7380   -1.3031    0.0000 C   0  0  0  0  0  0  0  0  0  0  0  0
    4.0235   -0.8906    0.0000 C   0  0  0  0  0  0  0  0  0  0  0  0
  1  2  2  0
  1 12  1  0
  2  3  1  0
  2  9  1  0
  3  4  1  0
  3  5  2  0
  5  6  1  0
  6  7  1  0
  6  8  2  0
  8  9  1  0
  9 10  2  0
 10 11  1  0
 11 12  2  0
 12 13  1  0
 13 14  1  0
 14 15  2  0
 14 16  1  0
 16 17  1  0
 17 18  2  0
 17 28  1  0
 18 19  1  0
 19 20  2  0
 19 26  1  0
 20 21  1  0
 20 22  1  0
 22 23  2  0
 23 24  1  0
 23 25  1  0
 25 26  2  0
 26 27  1  0
 27 28  2  0
M  END
>  <DRUGBANK_ID>  (1) 
DB04452

>  <SECONDARY_ACCESSION_NUMBERS>  (1) 
EXPT02388

>  <COMMON_NAME>  (1) 
Aminoquinuride

>  <CAS_NUMBER>  (1) 
3811-56-1

>  <UNII>  (1) 
08T7936572

>  <SYNONYMS>  (1) 
Aminoquinuride

$$$$
