
     RDKit          2D

 25 27  0  0  0  0  0  0  0  0999 V2000
    0.8562   -0.3458    0.0000 C   0  0  0  0  0  0  0  0  0  0  0  0
   -1.2021    0.3833    0.0000 C   0  0  0  0  0  0  0  0  0  0  0  0
    0.0187   -1.7708    0.0000 N   0  0  0  0  0  0  0  0  0  0  0  0
    0.0312   -0.3416    0.0000 C   0  0  0  0  0  0  0  0  0  0  0  0
    0.4395   -1.0583    0.0000 C   0  0  0  0  0  0  0  0  0  0  0  0
    2.9937    0.8916    0.0000 C   0  0  0  0  0  0  0  0  0  0  0  0
   -0.3771    0.3791    0.0000 C   0  0  0  0  0  0  0  0  0  0  0  0
   -1.6104    1.1000    0.0000 O   0  0  0  0  0  0  0  0  0  0  0  0
   -1.6187   -0.3291    0.0000 C   0  0  0  0  0  0  0  0  0  0  0  0
    2.2770    0.4791    0.0000 C   0  0  0  0  0  0  0  0  0  0  0  0
    1.5645   -0.7541    0.0000 C   0  0  0  0  0  0  0  0  0  0  0  0
    0.8562    0.4791    0.0000 C   0  0  0  0  0  0  0  0  0  0  0  0
    2.9978    1.7166    0.0000 O   0  0  0  0  0  0  0  0  0  0  0  0
   -0.3812   -1.0499    0.0000 C   0  0  0  0  0  0  0  0  0  0  0  0
   -1.2062   -1.0499    0.0000 C   0  0  0  0  0  0  0  0  0  0  0  0
    1.5645    0.8958    0.0000 C   0  0  0  0  0  0  0  0  0  0  0  0
    2.2770   -0.3458    0.0000 C   0  0  0  0  0  0  0  0  0  0  0  0
    3.7062    0.4750    0.0000 O   0  0  0  0  0  0  0  0  0  0  0  0
   -2.4354    1.1041    0.0000 C   0  0  0  0  0  0  0  0  0  0  0  0
   -2.4437   -0.3249    0.0000 O   0  0  0  0  0  0  0  0  0  0  0  0
   -2.8604   -1.0374    0.0000 C   0  0  0  0  0  0  0  0  0  0  0  0
   -2.9146    1.7708    0.0000 C   0  0  0  0  0  0  0  0  0  0  0  0
   -2.9229    0.4375    0.0000 C   0  0  0  0  0  0  0  0  0  0  0  0
   -3.7062    0.6958    0.0000 C   0  0  0  0  0  0  0  0  0  0  0  0
   -3.7021    1.5208    0.0000 C   0  0  0  0  0  0  0  0  0  0  0  0
  1  4  1  0
  1  5  1  6
  2  7  2  0
  3  5  3  0
  7  4  1  0
  8  2  1  0
  9 15  2  0
  9  2  1  0
 10  6  1  6
 10 17  1  0
 11  1  1  0
 12  1  1  0
 13  6  2  0
 14  4  2  0
 15 14  1  0
 16 12  1  0
 16 10  1  0
 17 11  1  0
 18  6  1  0
 19  8  1  0
 20  9  1  0
 21 20  1  0
 22 19  1  0
 23 19  1  0
 24 23  1  0
 24 25  1  0
 25 22  1  0
M  END
>  <DRUGBANK_ID>  (1) 
DB03849

>  <SECONDARY_ACCESSION_NUMBERS>  (1) 
EXPT00920

>  <COMMON_NAME>  (1) 
Cilomilast

>  <CAS_NUMBER>  (1) 
153259-65-5

>  <UNII>  (1) 
8ATB1C1R6X

>  <SYNONYMS>  (1) 
Ariflo; Cilomilast; cis-4-cyano-4-(3-(cyclopentyloxy)-4-methoxyphenyl)cyclohexanecarboxylic acid

$$$$
