DTM
     RDKit          2D

 27 29  0  0  0  0  0  0  0  0999 V2000
   -4.2302   -1.2852    0.0000 C   0  0  0  0  0  0  0  0  0  0  0  0
   -3.5158   -0.0477    0.0000 C   0  0  0  0  0  0  0  0  0  0  0  0
   -2.8013   -0.4602    0.0000 C   0  0  0  0  0  0  0  0  0  0  0  0
   -2.0868   -0.0477    0.0000 C   0  0  0  0  0  0  0  0  0  0  0  0
   -1.3724   -0.4602    0.0000 C   0  0  0  0  0  0  0  0  0  0  0  0
   -1.3724   -1.2852    0.0000 C   0  0  0  0  0  0  0  0  0  0  0  0
   -2.8013   -1.2852    0.0000 C   0  0  0  0  0  0  0  0  0  0  0  0
    0.0566   -0.4602    0.0000 C   0  0  0  0  0  0  0  0  0  0  0  0
    0.7711   -0.0477    0.0000 C   0  0  0  0  0  0  0  0  0  0  0  0
    0.7711    0.7773    0.0000 C   0  0  0  0  0  0  0  0  0  0  0  0
    1.4855    1.1898    0.0000 C   0  0  0  0  0  0  0  0  0  0  0  0
    2.2000    0.7773    0.0000 C   0  0  0  0  0  0  0  0  0  0  0  0
    2.2000   -0.0477    0.0000 C   0  0  0  0  0  0  0  0  0  0  0  0
    1.4855   -0.4602    0.0000 C   0  0  0  0  0  0  0  0  0  0  0  0
    2.2000    2.4273    0.0000 C   0  0  0  0  0  0  0  0  0  0  0  0
    3.6289    0.7773    0.0000 C   0  0  0  0  0  0  0  0  0  0  0  0
    2.9145   -1.2852    0.0000 C   0  0  0  0  0  0  0  0  0  0  0  0
   -0.6579    0.7773    0.0000 C   0  0  0  0  0  0  0  0  0  0  0  0
   -3.5158   -1.6977    0.0000 N   0  0  0  0  0  0  0  0  0  0  0  0
   -4.9447   -1.6977    0.0000 N   0  0  0  0  0  0  0  0  0  0  0  0
   -4.2302   -0.4602    0.0000 N   0  0  0  0  0  0  0  0  0  0  0  0
   -3.5158    0.7773    0.0000 N   0  0  0  0  0  0  0  0  0  0  0  0
   -2.0868   -1.6977    0.0000 N   0  0  0  0  0  0  0  0  0  0  0  0
   -0.6579   -0.0477    0.0000 N   0  0  0  0  0  0  0  0  0  0  0  0
    1.4855    2.0148    0.0000 O   0  0  0  0  0  0  0  0  0  0  0  0
    2.9145    1.1898    0.0000 O   0  0  0  0  0  0  0  0  0  0  0  0
    2.9145   -0.4602    0.0000 O   0  0  0  0  0  0  0  0  0  0  0  0
  1 19  2  0
  1 20  1  0
  1 21  1  0
  2  3  1  0
  2 21  2  0
  2 22  1  0
  3  4  1  0
  3  7  2  0
  4  5  2  0
  5  6  1  0
  5 24  1  0
  6 23  2  0
  7 19  1  0
  7 23  1  0
  8  9  1  0
  8 24  1  0
  9 10  2  0
  9 14  1  0
 10 11  1  0
 11 12  2  0
 11 25  1  0
 12 13  1  0
 12 26  1  0
 13 14  2  0
 13 27  1  0
 15 25  1  0
 16 26  1  0
 17 27  1  0
 18 24  1  0
M  END
>  <DRUGBANK_ID>  (1) 
DB02919

>  <SECONDARY_ACCESSION_NUMBERS>  (1) 
EXPT01286

>  <COMMON_NAME>  (1) 
2,4-Diamino-6-[N-(3',4',5'-Trimethoxybenzyl)-N-Methylamino]Pyrido[2,3-D]Pyrimidine

$$$$
