
     RDKit          2D

 39 43  0  0  1  0  0  0  0  0999 V2000
    0.8549    6.3267    0.0000 C   0  0  0  0  0  0  0  0  0  0  0  0
    0.1875    6.8116    0.0000 O   0  0  0  0  0  0  0  0  0  0  0  0
   -0.5662    6.4760    0.0000 C   0  0  0  0  0  0  0  0  0  0  0  0
   -0.7377    5.6691    0.0000 C   0  0  0  0  0  0  0  0  0  0  0  0
   -0.1857    5.0560    0.0000 O   0  0  0  0  0  0  0  0  0  0  0  0
   -0.4406    4.2713    0.0000 P   0  0  0  0  0  0  0  0  0  0  0  0
    0.3440    4.0164    0.0000 S   0  0  0  0  0  0  0  0  0  0  0  0
   -1.2252    4.5263    0.0000 O   0  0  0  0  0  0  0  0  0  0  0  0
   -0.6955    3.4867    0.0000 O   0  0  0  0  0  0  0  0  0  0  0  0
   -0.1435    2.8736    0.0000 C   0  0  0  0  0  0  0  0  0  0  0  0
   -0.3984    2.0890    0.0000 C   0  0  0  0  0  0  0  0  0  0  0  0
    0.0865    1.4216    0.0000 O   0  0  0  0  0  0  0  0  0  0  0  0
   -0.3984    0.7541    0.0000 C   0  0  0  0  0  0  0  0  0  0  0  0
   -1.1831    1.0091    0.0000 C   0  0  0  0  0  0  0  0  0  0  0  0
   -1.1831    1.8341    0.0000 C   0  0  0  0  0  0  0  0  0  0  0  0
   -1.8505    2.3190    0.0000 O   0  0  0  0  0  0  0  0  0  0  0  0
   -0.1435   -0.0305    0.0000 N   0  0  0  0  0  0  0  0  0  0  0  0
   -0.6284   -0.6979    0.0000 C   0  0  0  0  0  0  0  0  0  0  0  0
   -0.1435   -1.3654    0.0000 N   0  0  0  0  0  0  0  0  0  0  0  0
    0.6411   -1.1104    0.0000 C   0  0  0  0  0  0  0  0  0  0  0  0
    0.6411   -0.2854    0.0000 C   0  0  0  0  0  0  0  0  0  0  0  0
    1.3556    0.1271    0.0000 N   0  0  0  0  0  0  0  0  0  0  0  0
    2.0701   -0.2854    0.0000 C   0  0  0  0  0  0  0  0  0  0  0  0
    2.0701   -1.1104    0.0000 N   0  0  0  0  0  0  0  0  0  0  0  0
    1.3556   -1.5229    0.0000 C   0  0  0  0  0  0  0  0  0  0  0  0
    1.3556   -2.3479    0.0000 N   0  0  0  0  0  0  0  0  0  0  0  0
   -1.5582    5.5828    0.0000 C   0  0  0  0  0  0  0  0  0  0  0  0
   -1.9707    4.8683    0.0000 C   0  0  0  0  0  0  0  0  0  0  0  0
   -2.7957    4.8683    0.0000 O   0  0  0  0  0  0  0  0  0  0  0  0
   -1.8937    6.3365    0.0000 O   0  0  0  0  0  0  0  0  0  0  0  0
   -1.2806    6.8885    0.0000 C   0  0  0  0  0  0  0  0  0  0  0  0
   -1.3669    7.7090    0.0000 N   0  0  0  0  0  0  0  0  0  0  0  0
   -2.1205    8.0446    0.0000 C   0  0  0  0  0  0  0  0  0  0  0  0
   -2.2068    8.8650    0.0000 C   0  0  0  0  0  0  0  0  0  0  0  0
   -1.5393    9.3500    0.0000 C   0  0  0  0  0  0  0  0  0  0  0  0
   -1.6256   10.1704    0.0000 O   0  0  0  0  0  0  0  0  0  0  0  0
   -0.7857    9.0144    0.0000 N   0  0  0  0  0  0  0  0  0  0  0  0
   -0.6994    8.1939    0.0000 C   0  0  0  0  0  0  0  0  0  0  0  0
    0.0542    7.8584    0.0000 O   0  0  0  0  0  0  0  0  0  0  0  0
  1  2  1  0
  3  2  1  6
  3  4  1  0
  3 31  1  0
  4  5  1  6
  4 27  1  0
  5  6  1  0
  6  7  1  0
  6  8  2  0
  6  9  1  0
  9 10  1  0
 11 10  1  1
 11 12  1  0
 11 15  1  0
 13 12  1  0
 13 14  1  0
 13 17  1  1
 15 14  1  0
 15 16  1  6
 17 18  1  0
 17 21  1  0
 18 19  2  0
 19 20  1  0
 20 21  2  0
 20 25  1  0
 21 22  1  0
 22 23  2  0
 23 24  1  0
 24 25  2  0
 25 26  1  0
 27 28  1  1
 27 30  1  0
 28 29  1  0
 31 30  1  0
 31 32  1  1
 32 33  1  0
 32 38  1  0
 33 34  2  0
 34 35  1  0
 35 36  2  0
 35 37  1  0
 37 38  1  0
 38 39  2  0
M  END
>  <DRUGBANK_ID>  (1) 
DB15062

>  <COMMON_NAME>  (1) 
Inarigivir

>  <CAS_NUMBER>  (1) 
475650-36-3

>  <UNII>  (1) 
TQ0A9FIV71

$$$$
