22M
     RDKit          2D

 19 21  0  0  0  0  0  0  0  0999 V2000
    2.1301    0.4935    0.0000 C   0  0  0  0  0  0  0  0  0  0  0  0
    2.1301   -0.3315    0.0000 C   0  0  0  0  0  0  0  0  0  0  0  0
    2.8445   -0.7440    0.0000 C   0  0  0  0  0  0  0  0  0  0  0  0
    3.5590   -0.3315    0.0000 N   0  0  0  0  0  0  0  0  0  0  0  0
    2.8445   -1.5690    0.0000 N   0  0  0  0  0  0  0  0  0  0  0  0
    1.4156   -0.7440    0.0000 C   0  0  0  0  0  0  0  0  0  0  0  0
    0.7011   -0.3315    0.0000 C   0  0  0  0  0  0  0  0  0  0  0  0
    0.7011    0.4935    0.0000 C   0  0  0  0  0  0  0  0  0  0  0  0
    1.4156    0.9060    0.0000 C   0  0  0  0  0  0  0  0  0  0  0  0
   -0.0835    0.7484    0.0000 C   0  0  0  0  0  0  0  0  0  0  0  0
   -0.5684    0.0810    0.0000 C   0  0  0  0  0  0  0  0  0  0  0  0
   -1.3934    0.0810    0.0000 C   0  0  0  0  0  0  0  0  0  0  0  0
   -1.8059   -0.6335    0.0000 C   0  0  0  0  0  0  0  0  0  0  0  0
   -2.6309   -0.6335    0.0000 C   0  0  0  0  0  0  0  0  0  0  0  0
   -3.0434    0.0810    0.0000 C   0  0  0  0  0  0  0  0  0  0  0  0
   -2.6309    0.7955    0.0000 C   0  0  0  0  0  0  0  0  0  0  0  0
   -1.8059    0.7955    0.0000 C   0  0  0  0  0  0  0  0  0  0  0  0
   -1.3934    1.5099    0.0000 C   0  0  0  0  0  0  0  0  0  0  0  0
   -0.0835   -0.5864    0.0000 N   0  0  0  0  0  0  0  0  0  0  0  0
  1  2  2  0
  1  9  1  0
  2  3  1  0
  2  6  1  0
  3  4  2  0
  3  5  1  0
  6  7  2  0
  7  8  1  0
  7 19  1  0
  8  9  2  0
  8 10  1  0
 10 11  2  0
 11 12  1  0
 11 19  1  0
 12 13  2  0
 12 17  1  0
 13 14  1  0
 14 15  2  0
 15 16  1  0
 16 17  2  0
 17 18  1  0
M  END
>  <DRUGBANK_ID>  (1) 
DB06918

>  <COMMON_NAME>  (1) 
2-(2-METHYLPHENYL)-1H-INDOLE-6-CARBOXIMIDAMIDE

$$$$
