
     RDKit          2D

 25 26  0  0  0  0  0  0  0  0999 V2000
    4.5080    3.4921    0.0000 O   0  0  0  0  0  0  0  0  0  0  0  0
    3.0791   -3.1081    0.0000 N   0  0  0  0  0  0  0  0  0  0  0  0
    5.9370    1.0170    0.0000 N   0  0  0  0  0  0  0  0  0  0  0  0
    7.3889    1.8134    0.0000 N   0  0  0  0  0  0  0  0  0  0  0  0
    4.5080   -1.4581    0.0000 C   0  0  0  0  0  0  0  0  0  0  0  0
    3.7935   -1.8706    0.0000 C   0  0  0  0  0  0  0  0  0  0  0  0
    4.5080   -0.6330    0.0000 C   0  0  0  0  0  0  0  0  0  0  0  0
    3.7935   -2.6956    0.0000 C   0  0  0  0  0  0  0  0  0  0  0  0
    5.2224   -0.2205    0.0000 C   0  0  0  0  0  0  0  0  0  0  0  0
    5.2224    0.6045    0.0000 C   0  0  0  0  0  0  0  0  0  0  0  0
    3.0791   -3.9331    0.0000 C   0  0  0  0  0  0  0  0  0  0  0  0
    2.3645   -2.6956    0.0000 C   0  0  0  0  0  0  0  0  0  0  0  0
    5.9370    1.8420    0.0000 C   0  0  0  0  0  0  0  0  0  0  0  0
    2.3645   -4.3456    0.0000 C   0  0  0  0  0  0  0  0  0  0  0  0
    1.6500   -3.1081    0.0000 C   0  0  0  0  0  0  0  0  0  0  0  0
    6.6515    2.2545    0.0000 C   0  0  0  0  0  0  0  0  0  0  0  0
    6.6515    3.0795    0.0000 C   0  0  0  0  0  0  0  0  0  0  0  0
    5.2224    2.2545    0.0000 C   0  0  0  0  0  0  0  0  0  0  0  0
    7.3889    3.5207    0.0000 C   0  0  0  0  0  0  0  0  0  0  0  0
    5.9370    3.4921    0.0000 C   0  0  0  0  0  0  0  0  0  0  0  0
    5.2224    3.0795    0.0000 C   0  0  0  0  0  0  0  0  0  0  0  0
    8.1365    3.0967    0.0000 C   0  0  0  0  0  0  0  0  0  0  0  0
    7.3795    4.3456    0.0000 C   0  0  0  0  0  0  0  0  0  0  0  0
    8.1365    2.2374    0.0000 C   0  0  0  0  0  0  0  0  0  0  0  0
    4.5080    4.3171    0.0000 C   0  0  0  0  0  0  0  0  0  0  0  0
  1 21  1  0
  1 25  1  0
  2  8  1  0
  2 11  1  0
  2 12  1  0
  3 10  1  0
  3 13  1  0
  4 16  2  0
  4 24  1  0
  5  6  1  0
  5  7  1  0
  6  8  1  0
  7  9  1  0
  9 10  1  0
 11 14  1  0
 12 15  1  0
 13 16  1  0
 13 18  2  0
 16 17  1  0
 17 19  2  0
 17 20  1  0
 18 21  1  0
 19 22  1  0
 19 23  1  0
 20 21  2  0
 22 24  2  0
M  END
>  <DRUGBANK_ID>  (1) 
DB04909

>  <COMMON_NAME>  (1) 
Sitamaquine

>  <CAS_NUMBER>  (1) 
57695-04-2

>  <UNII>  (1) 
5AIJ4TGC6B

>  <SYNONYMS>  (1) 
Sitamaquine

$$$$
