
     RDKit          2D

 15 16  0  0  0  0  0  0  0  0999 V2000
    0.7274   -1.4085    0.0000 S   0  0  0  0  0  0  0  0  0  0  0  0
   -2.6295   -1.4085    0.0000 O   0  0  0  0  0  0  0  0  0  0  0  0
    2.0784    2.5625    0.0000 O   0  0  0  0  0  0  0  0  0  0  0  0
   -1.3194   -0.7410    0.0000 N   0  0  0  0  0  0  0  0  0  0  0  0
   -1.3194   -2.0760    0.0000 N   0  0  0  0  0  0  0  0  0  0  0  0
   -0.5348   -0.9960    0.0000 C   0  0  0  0  0  0  0  0  0  0  0  0
   -0.5348   -1.8210    0.0000 C   0  0  0  0  0  0  0  0  0  0  0  0
    0.2459   -0.7445    0.0000 C   0  0  0  0  0  0  0  0  0  0  0  0
    0.2459   -2.0724    0.0000 C   0  0  0  0  0  0  0  0  0  0  0  0
    0.5022    0.0397    0.0000 C   0  0  0  0  0  0  0  0  0  0  0  0
    1.3095    0.2098    0.0000 C   0  0  0  0  0  0  0  0  0  0  0  0
   -1.8044   -1.4085    0.0000 C   0  0  0  0  0  0  0  0  0  0  0  0
    1.5658    0.9940    0.0000 C   0  0  0  0  0  0  0  0  0  0  0  0
    2.3731    1.1641    0.0000 C   0  0  0  0  0  0  0  0  0  0  0  0
    2.6295    1.9484    0.0000 C   0  0  0  0  0  0  0  0  0  0  0  0
  1  8  1  0
  1  9  1  0
  2 12  2  0
  3 15  2  0
  6  4  1  6
  4 12  1  0
  5  7  1  0
  5 12  1  0
  6  7  1  0
  6  8  1  0
  7  9  1  6
  8 10  1  6
 10 11  1  0
 11 13  1  0
 13 14  1  0
 14 15  1  0
M  END
>  <DRUGBANK_ID>  (1) 
DB07497

>  <COMMON_NAME>  (1) 
5-(hexahydro-2-oxo-1H-thieno[3,4-D]imidazol-6-yl)pentanal

>  <SYNONYMS>  (1) 
Biotin aldehyde

$$$$
