
     RDKit          2D

 32 34  0  0  1  0  0  0  0  0999 V2000
    4.5080   -4.2232    0.0000 F   0  0  0  0  0  0  0  0  0  0  0  0
    7.9284    4.4553    0.0000 O   0  0  0  0  0  0  0  0  0  0  0  0
    1.6500   -4.2232    0.0000 O   0  0  0  0  0  0  0  0  0  0  0  0
    4.5080    0.7269    0.0000 C   0  0  0  0  0  0  0  0  0  0  0  0
    4.5080   -0.0981    0.0000 C   0  0  0  0  0  0  0  0  0  0  0  0
    3.7935    1.1394    0.0000 C   0  0  0  0  0  0  0  0  0  0  0  0
    5.2886    0.9783    0.0000 C   0  0  0  0  0  0  0  0  0  0  0  0
    5.2886   -0.3496    0.0000 C   0  0  0  0  0  0  0  0  0  0  0  0
    3.7935   -0.5106    0.0000 C   0  0  0  0  0  0  0  0  0  0  0  0
    3.0791    0.7269    0.0000 C   0  0  0  0  0  0  0  0  0  0  0  0
    4.5080    1.5519    0.0000 C   0  0  0  0  0  0  0  0  0  0  0  0
    3.0791   -0.0981    0.0000 C   0  0  0  0  0  0  0  0  0  0  0  0
    5.7701    0.3144    0.0000 C   0  0  0  0  0  0  0  0  0  0  0  0
    5.5449    1.7625    0.0000 C   0  0  0  0  0  0  0  0  0  0  0  0
    6.3522    1.9326    0.0000 C   0  0  0  0  0  0  0  0  0  0  0  0
    3.7935   -1.3356    0.0000 C   0  0  0  0  0  0  0  0  0  0  0  0
    4.9939    2.3765    0.0000 C   0  0  0  0  0  0  0  0  0  0  0  0
    3.0791   -1.7481    0.0000 C   0  0  0  0  0  0  0  0  0  0  0  0
    6.6086    2.7168    0.0000 C   0  0  0  0  0  0  0  0  0  0  0  0
    3.0791   -2.5731    0.0000 C   0  0  0  0  0  0  0  0  0  0  0  0
    7.4158    2.8870    0.0000 C   0  0  0  0  0  0  0  0  0  0  0  0
    2.3645   -2.9857    0.0000 C   0  0  0  0  0  0  0  0  0  0  0  0
    7.6721    3.6712    0.0000 C   0  0  0  0  0  0  0  0  0  0  0  0
    3.7935   -2.9857    0.0000 C   0  0  0  0  0  0  0  0  0  0  0  0
    2.3645   -3.8107    0.0000 C   0  0  0  0  0  0  0  0  0  0  0  0
    3.7935   -3.8107    0.0000 C   0  0  0  0  0  0  0  0  0  0  0  0
    3.0791   -4.2232    0.0000 C   0  0  0  0  0  0  0  0  0  0  0  0
    8.4563    3.4148    0.0000 C   0  0  0  0  0  0  0  0  0  0  0  0
    6.8879    3.9274    0.0000 C   0  0  0  0  0  0  0  0  0  0  0  0
    4.5080   -2.5731    0.0000 C   0  0  0  0  0  0  0  0  0  0  0  0
    9.0703    3.9659    0.0000 C   0  0  0  0  0  0  0  0  0  0  0  0
    6.7178    4.7347    0.0000 C   0  0  0  0  0  0  0  0  0  0  0  0
 26  1  1  1
  2 23  1  0
  4  5  1  0
  4  6  1  0
  4  7  1  0
  4 11  1  1
  5  8  1  1
  5  9  1  0
  6 10  1  0
  7 13  2  0
  7 14  1  0
  8 13  1  0
  9 12  1  0
  9 16  2  0
 10 12  1  0
 14 15  1  0
 14 17  1  1
 15 19  1  0
 16 18  1  0
 18 20  2  0
 19 21  2  0
 20 22  1  0
 20 24  1  0
 21 23  1  0
 22 25  1  0
 23 28  1  0
 23 29  1  0
 24 26  1  0
 24 30  2  0
 25  3  1  6
 25 27  1  0
 26 27  1  0
 28 31  1  0
 29 32  1  0
M  END
>  <DRUGBANK_ID>  (1) 
DB06194

>  <COMMON_NAME>  (1) 
Elocalcitol

>  <CAS_NUMBER>  (1) 
199798-84-0

>  <UNII>  (1) 
2WDS5F2V6Q

>  <SYNONYMS>  (1) 
Elocalcitol

$$$$
