
     RDKit          2D

 35 40  0  0  0  0  0  0  0  0999 V2000
   -3.5159   -4.2703    0.0000 C   0  0  0  0  0  0  0  0  0  0  0  0
    3.4990    1.3646    0.0000 C   0  0  0  0  0  0  0  0  0  0  0  0
    2.7845    0.9521    0.0000 C   0  0  0  0  0  0  0  0  0  0  0  0
    4.2135    0.9521    0.0000 C   0  0  0  0  0  0  0  0  0  0  0  0
   -2.6909   -1.4124    0.0000 C   0  0  0  0  0  0  0  0  0  0  0  0
   -1.4534   -2.1269    0.0000 C   0  0  0  0  0  0  0  0  0  0  0  0
   -3.1034   -2.1269    0.0000 C   0  0  0  0  0  0  0  0  0  0  0  0
   -1.8659   -2.8414    0.0000 C   0  0  0  0  0  0  0  0  0  0  0  0
    0.6411   -2.7604    0.0000 C   0  0  0  0  0  0  0  0  0  0  0  0
    2.0701   -2.7604    0.0000 C   0  0  0  0  0  0  0  0  0  0  0  0
    0.6411   -3.5854    0.0000 C   0  0  0  0  0  0  0  0  0  0  0  0
    2.0701   -3.5854    0.0000 C   0  0  0  0  0  0  0  0  0  0  0  0
   -0.1435   -0.0305    0.0000 C   0  0  0  0  0  0  0  0  0  0  0  0
    3.6705   -1.0924    0.0000 C   0  0  0  0  0  0  0  0  0  0  0  0
   -1.4534   -0.6979    0.0000 C   0  0  0  0  0  0  0  0  0  0  0  0
   -0.6284   -0.6979    0.0000 C   0  0  0  0  0  0  0  0  0  0  0  0
    2.7845    0.1271    0.0000 C   0  0  0  0  0  0  0  0  0  0  0  0
    3.4990   -0.2854    0.0000 C   0  0  0  0  0  0  0  0  0  0  0  0
    4.2135    0.1271    0.0000 C   0  0  0  0  0  0  0  0  0  0  0  0
    0.6411   -0.2854    0.0000 C   0  0  0  0  0  0  0  0  0  0  0  0
    0.6411   -1.1104    0.0000 C   0  0  0  0  0  0  0  0  0  0  0  0
    2.0701   -0.2854    0.0000 C   0  0  0  0  0  0  0  0  0  0  0  0
    1.3556   -1.5229    0.0000 C   0  0  0  0  0  0  0  0  0  0  0  0
    4.4910   -1.1787    0.0000 N   0  0  0  0  0  0  0  0  0  0  0  0
    1.3556    0.1271    0.0000 N   0  0  0  0  0  0  0  0  0  0  0  0
    2.0701   -1.1104    0.0000 N   0  0  0  0  0  0  0  0  0  0  0  0
    4.8266   -0.4250    0.0000 N   0  0  0  0  0  0  0  0  0  0  0  0
   -1.8659   -1.4124    0.0000 N   0  0  0  0  0  0  0  0  0  0  0  0
    1.3556   -2.3479    0.0000 N   0  0  0  0  0  0  0  0  0  0  0  0
   -2.6909   -2.8414    0.0000 N   0  0  0  0  0  0  0  0  0  0  0  0
   -2.3890   -3.9683    0.0000 O   0  0  0  0  0  0  0  0  0  0  0  0
   -3.8179   -3.1433    0.0000 O   0  0  0  0  0  0  0  0  0  0  0  0
    1.3556   -3.9979    0.0000 O   0  0  0  0  0  0  0  0  0  0  0  0
   -0.1435   -1.3654    0.0000 S   0  0  0  0  0  0  0  0  0  0  0  0
   -3.1034   -3.5558    0.0000 S   0  0  0  0  0  0  0  0  0  0  0  0
  3  2  2  0
  4  2  1  0
  7  5  1  0
  8  6  1  0
 11  9  1  0
 12 10  1  0
 16 13  2  0
 16 15  1  0
 17  3  1  0
 18 14  1  0
 18 17  2  0
 19  4  2  0
 19 18  1  0
 20 13  1  0
 21 20  2  0
 22 17  1  0
 23 21  1  0
 24 14  2  0
 25 20  1  0
 25 22  2  0
 26 22  1  0
 26 23  2  0
 27 19  1  0
 27 24  1  0
 28  5  1  0
 28  6  1  0
 28 15  1  0
 29  9  1  0
 29 10  1  0
 29 23  1  0
 30  7  1  0
 30  8  1  0
 33 11  1  0
 33 12  1  0
 34 16  1  0
 34 21  1  0
 35  1  1  0
 35 30  1  0
 35 31  2  0
 35 32  2  0
M  END
>  <DRUGBANK_ID>  (1) 
DB11663

>  <COMMON_NAME>  (1) 
Pictilisib

>  <CAS_NUMBER>  (1) 
957054-30-7

>  <UNII>  (1) 
ICY00EMP8P

>  <SYNONYMS>  (1) 
Pictilisib

$$$$
