GAS
     RDKit          2D

 29 31  0  0  0  0  0  0  0  0999 V2000
    1.5574   -0.7211    0.0000 C   0  0  0  0  0  0  0  0  0  0  0  0
    2.2718   -1.1336    0.0000 C   0  0  0  0  0  0  0  0  0  0  0  0
    2.2718   -1.9586    0.0000 C   0  0  0  0  0  0  0  0  0  0  0  0
    1.5574   -2.3711    0.0000 C   0  0  0  0  0  0  0  0  0  0  0  0
    0.8429   -1.9586    0.0000 C   0  0  0  0  0  0  0  0  0  0  0  0
    0.8429   -1.1336    0.0000 C   0  0  0  0  0  0  0  0  0  0  0  0
    0.1284   -0.7211    0.0000 C   0  0  0  0  0  0  0  0  0  0  0  0
    0.1284    0.1039    0.0000 N   0  0  0  0  0  0  0  0  0  0  0  0
   -0.5860   -1.1336    0.0000 C   0  0  0  0  0  0  0  0  0  0  0  0
   -0.5860   -1.9586    0.0000 C   0  0  0  0  0  0  0  0  0  0  0  0
   -1.3005   -2.3711    0.0000 C   0  0  0  0  0  0  0  0  0  0  0  0
   -2.0150   -1.9586    0.0000 C   0  0  0  0  0  0  0  0  0  0  0  0
   -2.0150   -1.1336    0.0000 C   0  0  0  0  0  0  0  0  0  0  0  0
   -1.3005   -0.7211    0.0000 C   0  0  0  0  0  0  0  0  0  0  0  0
   -0.5860    0.5164    0.0000 C   0  0  0  0  0  0  0  0  0  0  0  0
   -1.3005    0.1039    0.0000 N   0  0  0  0  0  0  0  0  0  0  0  0
   -2.0150    0.5164    0.0000 C   0  0  0  0  0  0  0  0  0  0  0  0
   -2.7295    0.1039    0.0000 C   0  0  0  0  0  0  0  0  0  0  0  0
   -2.7295   -0.7211    0.0000 O   0  0  0  0  0  0  0  0  0  0  0  0
   -3.4439    0.5164    0.0000 O   0  0  0  0  0  0  0  0  0  0  0  0
   -0.5860    1.3414    0.0000 N   0  0  0  0  0  0  0  0  0  0  0  0
    0.1284    1.7539    0.0000 C   0  0  0  0  0  0  0  0  0  0  0  0
    0.1284    2.5789    0.0000 C   0  0  0  0  0  0  0  0  0  0  0  0
    0.8429    2.9914    0.0000 C   0  0  0  0  0  0  0  0  0  0  0  0
    1.5574    2.5789    0.0000 C   0  0  0  0  0  0  0  0  0  0  0  0
    2.2718    2.9914    0.0000 C   0  0  0  0  0  0  0  0  0  0  0  0
    2.9863    3.4039    0.0000 N   0  0  0  0  0  0  0  0  0  0  0  0
    1.5574    1.7539    0.0000 C   0  0  0  0  0  0  0  0  0  0  0  0
    0.8429    1.3414    0.0000 C   0  0  0  0  0  0  0  0  0  0  0  0
  1  2  2  0
  1  6  1  0
  2  3  1  0
  3  4  2  0
  4  5  1  0
  5  6  2  0
  6  7  1  0
  7  8  1  0
  7  9  1  0
  8 15  1  0
  9 10  2  0
  9 14  1  0
 10 11  1  0
 11 12  2  0
 12 13  1  0
 13 14  2  0
 15 16  2  0
 15 21  1  0
 16 17  1  0
 17 18  1  0
 18 19  2  0
 18 20  1  0
 21 22  1  0
 22 23  2  0
 22 29  1  0
 23 24  1  0
 24 25  2  0
 25 26  1  0
 25 28  1  0
 26 27  3  0
 28 29  2  0
M  END
>  <DRUGBANK_ID>  (1) 
DB07816

>  <COMMON_NAME>  (1) 
N-(P-CYANOPHENYL)-N'-DIPHENYLMETHYL-GUANIDINE-ACETIC ACID

>  <UNII>  (1) 
MW7J9SU4JQ

$$$$
