
     RDKit          2D

 26 28  0  0  0  0  0  0  0  0999 V2000
    8.5737    3.3000    0.0000 C   0  0  0  0  0  0  0  0  0  0  0  0
    5.0013   -0.4125    0.0000 C   0  0  0  0  0  0  0  0  0  0  0  0
    5.0013    0.4125    0.0000 C   0  0  0  0  0  0  0  0  0  0  0  0
    1.4289    0.8250    0.0000 C   0  0  0  0  0  0  0  0  0  0  0  0
    2.1434   -0.4125    0.0000 C   0  0  0  0  0  0  0  0  0  0  0  0
    0.7145    0.4125    0.0000 C   0  0  0  0  0  0  0  0  0  0  0  0
    1.4289   -0.8250    0.0000 C   0  0  0  0  0  0  0  0  0  0  0  0
    6.4302    3.7125    0.0000 C   0  0  0  0  0  0  0  0  0  0  0  0
    7.1447    2.4750    0.0000 C   0  0  0  0  0  0  0  0  0  0  0  0
    5.7158    3.3000    0.0000 C   0  0  0  0  0  0  0  0  0  0  0  0
    6.4302    2.0625    0.0000 C   0  0  0  0  0  0  0  0  0  0  0  0
    4.2868   -0.8250    0.0000 C   0  0  0  0  0  0  0  0  0  0  0  0
    2.1434    0.4125    0.0000 C   0  0  0  0  0  0  0  0  0  0  0  0
    0.7145   -0.4125    0.0000 C   0  0  0  0  0  0  0  0  0  0  0  0
    7.1447    3.3000    0.0000 C   0  0  0  0  0  0  0  0  0  0  0  0
    5.7158    2.4750    0.0000 C   0  0  0  0  0  0  0  0  0  0  0  0
    4.2868    0.8250    0.0000 C   0  0  0  0  0  0  0  0  0  0  0  0
    3.5724    0.4125    0.0000 C   0  0  0  0  0  0  0  0  0  0  0  0
    3.5724   -0.4125    0.0000 N   0  0  0  0  0  0  0  0  0  0  0  0
    2.8579    0.8250    0.0000 N   0  0  0  0  0  0  0  0  0  0  0  0
    4.2868    1.6500    0.0000 N   0  0  0  0  0  0  0  0  0  0  0  0
    0.0000   -0.8250    0.0000 O   0  0  0  0  0  0  0  0  0  0  0  0
    4.5888    2.7770    0.0000 O   0  0  0  0  0  0  0  0  0  0  0  0
    5.4138    1.3480    0.0000 O   0  0  0  0  0  0  0  0  0  0  0  0
    7.8592    3.7125    0.0000 O   0  0  0  0  0  0  0  0  0  0  0  0
    5.0013    2.0625    0.0000 S   0  0  0  0  0  0  0  0  0  0  0  0
  3  2  2  0
  6  4  2  0
  7  5  1  0
 10  8  2  0
 11  9  1  0
 12  2  1  0
 13  4  1  0
 13  5  2  0
 14  6  1  0
 14  7  2  0
 15  8  1  0
 15  9  2  0
 16 10  1  0
 16 11  2  0
 17  3  1  0
 18 17  2  0
 19 12  2  0
 19 18  1  0
 20 13  1  0
 20 18  1  0
 21 17  1  0
 22 14  1  0
 25  1  1  0
 25 15  1  0
 26 16  1  0
 26 21  1  0
 26 23  2  0
 26 24  2  0
M  END
>  <DRUGBANK_ID>  (1) 
DB12254

>  <COMMON_NAME>  (1) 
ABT-751

>  <CAS_NUMBER>  (1) 
141430-65-1

>  <UNII>  (1) 
WDT5V5OB9F

>  <SYNONYMS>  (1) 
N-[2-(4-hydroxyanilino)-3-pyridinyl]-4-methoxybenzenesulfonamide; N-[2-(4-hydroxyanilino)pyridin-3-yl]-4-methoxybenzenesulfonamide; N-[2-[(4-hydroxyphenyl)amino]-3-pyridinyl]-4-methoxybenzenesulfonamide

$$$$
