
     RDKit          2D

 23 24  0  0  0  0  0  0  0  0999 V2000
   -2.5559    4.5529    0.0000 C   0  0  0  0  0  0  0  0  0  0  0  0
   -1.8414    4.1404    0.0000 C   0  0  0  0  0  0  0  0  0  0  0  0
   -1.8414    3.3154    0.0000 N   0  0  0  0  0  0  0  0  0  0  0  0
   -2.6664    3.3154    0.0000 C   0  0  0  0  0  0  0  0  0  0  0  0
   -1.0164    3.3154    0.0000 C   0  0  0  0  0  0  0  0  0  0  0  0
   -0.6039    2.6010    0.0000 C   0  0  0  0  0  0  0  0  0  0  0  0
   -1.8414    2.4904    0.0000 C   0  0  0  0  0  0  0  0  0  0  0  0
   -1.1270    2.0779    0.0000 C   0  0  0  0  0  0  0  0  0  0  0  0
   -1.1270    1.2529    0.0000 O   0  0  0  0  0  0  0  0  0  0  0  0
   -0.4125    0.8404    0.0000 C   0  0  0  0  0  0  0  0  0  0  0  0
    0.3020    1.2529    0.0000 O   0  0  0  0  0  0  0  0  0  0  0  0
   -0.4125    0.0154    0.0000 C   0  0  0  0  0  0  0  0  0  0  0  0
   -0.4125   -0.8096    0.0000 C   0  0  0  0  0  0  0  0  0  0  0  0
    0.2549   -1.2945    0.0000 C   0  0  0  0  0  0  0  0  0  0  0  0
   -0.0000   -2.0791    0.0000 C   0  0  0  0  0  0  0  0  0  0  0  0
   -0.8250   -2.0791    0.0000 C   0  0  0  0  0  0  0  0  0  0  0  0
   -1.0799   -1.2945    0.0000 S   0  0  0  0  0  0  0  0  0  0  0  0
   -1.2375    0.0154    0.0000 C   0  0  0  0  0  0  0  0  0  0  0  0
   -1.7224   -0.6520    0.0000 C   0  0  0  0  0  0  0  0  0  0  0  0
   -2.5070   -0.3971    0.0000 C   0  0  0  0  0  0  0  0  0  0  0  0
   -2.5070    0.4279    0.0000 C   0  0  0  0  0  0  0  0  0  0  0  0
   -1.7224    0.6829    0.0000 C   0  0  0  0  0  0  0  0  0  0  0  0
    0.4125    0.0154    0.0000 O   0  0  0  0  0  0  0  0  0  0  0  0
  1  2  1  0
  2  3  1  0
  3  4  1  0
  3  5  1  0
  3  7  1  0
  5  6  1  0
  7  8  1  0
  8  9  1  0
  9 10  1  0
 10 11  2  0
 10 12  1  0
 12 13  1  0
 12 18  1  0
 12 23  1  0
 13 14  2  0
 13 17  1  0
 14 15  1  0
 15 16  2  0
 16 17  1  0
 18 19  1  0
 18 22  1  0
 19 20  1  0
 20 21  1  0
 21 22  1  0
M  CHG  1   3   1
M  END
>  <DRUGBANK_ID>  (1) 
DB13695

>  <COMMON_NAME>  (1) 
Penthienate

>  <CAS_NUMBER>  (1) 
22064-27-3

>  <UNII>  (1) 
6LCT38OJV9

$$$$
