
     RDKit          2D

  7  7  0  0  0  0  0  0  0  0999 V2000
    2.0198    0.8843    0.0000 C   0  0  0  0  0  0  0  0  0  0  0  0
    1.2352    0.6294    0.0000 N   0  0  0  0  0  0  0  0  0  0  0  0
    0.9803   -0.1553    0.0000 C   0  0  0  0  0  0  0  0  0  0  0  0
    0.1553   -0.1553    0.0000 C   0  0  0  0  0  0  0  0  0  0  0  0
   -0.0997    0.6294    0.0000 N   0  0  0  0  0  0  0  0  0  0  0  0
    0.5678    1.1143    0.0000 C   0  0  0  0  0  0  0  0  0  0  0  0
    0.5678    1.9393    0.0000 C   0  0  0  0  0  0  0  0  0  0  0  0
  1  2  1  0
  2  3  1  0
  2  6  1  0
  3  4  2  0
  4  5  1  0
  5  6  2  0
  6  7  1  0
M  CHG  1   5   1
M  END
>  <DRUGBANK_ID>  (1) 
DB03789

>  <SECONDARY_ACCESSION_NUMBERS>  (1) 
EXPT01226

>  <COMMON_NAME>  (1) 
2,3-Dimethylimidazolium Ion

$$$$
