
     RDKit          2D

  8  7  0  0  0  0  0  0  0  0999 V2000
   -1.7862    0.2062    0.0000 O   0  0  0  0  0  0  0  0  0  0  0  0
    0.3572    0.6187    0.0000 N   0  0  0  0  0  0  0  0  0  0  0  0
   -1.0716    0.6187    0.0000 N   0  0  0  0  0  0  0  0  0  0  0  0
   -0.3572   -0.6187    0.0000 N   0  0  0  0  0  0  0  0  0  0  0  0
    1.0716    0.2062    0.0000 C   0  0  0  0  0  0  0  0  0  0  0  0
    1.7862    0.6187    0.0000 C   0  0  0  0  0  0  0  0  0  0  0  0
    1.0716   -0.6187    0.0000 C   0  0  0  0  0  0  0  0  0  0  0  0
   -0.3572    0.2062    0.0000 C   0  0  0  0  0  0  0  0  0  0  0  0
  1  3  1  0
  2  5  1  0
  2  8  2  0
  3  8  1  0
  4  8  1  0
  5  6  1  0
  5  7  1  0
M  END
>  <DRUGBANK_ID>  (1) 
DB02143

>  <SECONDARY_ACCESSION_NUMBERS>  (1) 
EXPT01853

>  <COMMON_NAME>  (1) 
1-hydroxy-2-isopropylguanidine

>  <CAS_NUMBER>  (1) 
478806-77-8

>  <SYNONYMS>  (1) 
1-hydroxy-2-propan-2-ylguanidine; N-isopropyl-N'-hydroxyguanidine

$$$$
