
     RDKit          2D

 16 12  0  0  0  0  0  0  0  0999 V2000
   -0.0473   -0.5472    0.0000 C   0  0  0  0  0  0  0  0  0  0  0  0
   -0.7628   -0.9576    0.0000 C   0  0  0  0  0  0  0  0  0  0  0  0
   -1.4785   -0.5472    0.0000 C   0  0  0  0  0  0  0  0  0  0  0  0
   -0.0473    0.2789    0.0000 C   0  0  0  0  0  0  0  0  0  0  0  0
    0.6682   -0.9576    0.0000 C   0  0  0  0  0  0  0  0  0  0  0  0
    1.3838   -0.5472    0.0000 C   0  0  0  0  0  0  0  0  0  0  0  0
   -0.0473   -1.3732    0.0000 O   0  0  0  0  0  0  0  0  0  0  0  0
   -1.4785    0.2789    0.0000 O   0  0  0  0  0  0  0  0  0  0  0  0
   -2.1993   -0.9576    0.0000 O   0  0  0  0  0  0  0  0  0  0  0  0
    1.3838    0.2789    0.0000 O   0  0  0  0  0  0  0  0  0  0  0  0
    2.0993   -0.9576    0.0000 O   0  0  0  0  0  0  0  0  0  0  0  0
   -0.7628    0.6945    0.0000 O   0  0  0  0  0  0  0  0  0  0  0  0
    0.6682    0.6945    0.0000 O   0  0  0  0  0  0  0  0  0  0  0  0
    2.6308    0.1420    0.0000 K   0  0  0  0  0 15  0  0  0  0  0  0
    0.0105    1.3732    0.0000 K   0  0  0  0  0 15  0  0  0  0  0  0
   -2.6308    0.1473    0.0000 K   0  0  0  0  0 15  0  0  0  0  0  0
  1  5  1  0
  1  7  1  0
  1  2  1  0
  1  4  1  0
  2  3  1  0
  3  9  1  0
  3  8  2  0
  4 12  1  0
  4 13  2  0
  5  6  1  0
  6 11  1  0
  6 10  2  0
M  CHG  6   9  -1  11  -1  12  -1  14   1  15   1  16   1
M  END
>  <DRUGBANK_ID>  (1) 
DB09125

>  <COMMON_NAME>  (1) 
Potassium citrate

>  <CAS_NUMBER>  (1) 
866-84-2

>  <UNII>  (1) 
86R1NVR0HW

>  <SYNONYMS>  (1) 
Potassium citrate anhydrous; Tripotassium citrate

$$$$
