
     RDKit          2D

 14 12  0  0  0  0  0  0  0  0999 V2000
   -1.0551    0.2807    0.0000 Au  0  0  0  0  0  4  0  0  0  0  0  0
   -0.1715    0.6612    0.0000 O   0  0  0  0  0  0  0  0  0  0  0  0
   -1.8081   -0.0598    0.0000 O   0  0  0  0  0  0  0  0  0  0  0  0
   -0.1715   -0.0572    0.0000 S   0  0  0  0  0  0  0  0  0  0  0  0
   -1.8081    0.6559    0.0000 S   0  0  0  0  0  0  0  0  0  0  0  0
    0.4697    0.3180    0.0000 S   0  0  0  0  0  0  0  0  0  0  0  0
   -2.5400    0.3180    0.0000 S   0  0  0  0  0  0  0  0  0  0  0  0
    1.0259    0.7039    0.0000 O   0  0  0  0  0  0  0  0  0  0  0  0
    0.9513   -0.2381    0.0000 O   0  0  0  0  0  0  0  0  0  0  0  0
   -3.2159   -0.2381    0.0000 O   0  0  0  0  0  0  0  0  0  0  0  0
   -3.1414    0.9194    0.0000 O   0  0  0  0  0  0  0  0  0  0  0  0
    3.2159    1.5607    0.0000 Na  0  0  0  0  0 15  0  0  0  0  0  0
    3.1893    0.1397    0.0000 Na  0  0  0  0  0 15  0  0  0  0  0  0
    3.1441   -1.5607    0.0000 Na  0  0  0  0  0 15  0  0  0  0  0  0
  1  2  1  0
  1  3  1  0
  1  4  1  0
  1  5  1  0
  2  6  1  0
  3  7  1  0
  4  6  1  0
  5  7  1  0
  6  8  2  0
  6  9  2  0
  7 10  2  0
  7 11  2  0
M  CHG  3  12   1  13   1  14   1
M  END
>  <DRUGBANK_ID>  (1) 
DB15974

>  <COMMON_NAME>  (1) 
Gold sodium thiosulfate

>  <CAS_NUMBER>  (1) 
15283-45-1

>  <UNII>  (1) 
6GKU52ZCI0

>  <SYNONYMS>  (1) 
Gold sodium thiosulfate anhydrous; Sodium aurothiosulfate; Sodium aurothiosulfate anhydrous

$$$$
