
     RDKit          2D

 28 32  0  0  0  0  0  0  0  0999 V2000
   -2.7909    0.9078    0.0000 C   0  0  0  0  0  0  0  0  0  0  0  0
   -2.7895    0.0832    0.0000 N   0  0  0  0  0  0  0  0  0  0  0  0
   -3.5578   -0.2132    0.0000 N   0  0  0  0  0  0  0  0  0  0  0  0
   -4.0683    0.4867    0.0000 C   0  0  0  0  0  0  0  0  0  0  0  0
   -3.5443    1.1361    0.0000 N   0  0  0  0  0  0  0  0  0  0  0  0
   -2.0746   -0.3277    0.0000 C   0  0  0  0  0  0  0  0  0  0  0  0
   -1.3612    0.0858    0.0000 C   0  0  0  0  0  0  0  0  0  0  0  0
   -1.3627    0.9104    0.0000 C   0  0  0  0  0  0  0  0  0  0  0  0
   -2.0775    1.3215    0.0000 C   0  0  0  0  0  0  0  0  0  0  0  0
   -0.6482    1.3229    0.0000 C   0  0  0  0  0  0  0  0  0  0  0  0
   -0.5583   -0.3302    0.0000 N   0  0  0  0  0  0  0  0  0  0  0  0
    0.1366    0.1142    0.0000 C   0  0  0  0  0  0  0  0  0  0  0  0
    0.7927    1.3811    0.0000 C   0  0  0  0  0  0  0  0  0  0  0  0
    0.0993    0.9385    0.0000 N   0  0  0  0  0  0  0  0  0  0  0  0
    1.5254    1.0012    0.0000 C   0  0  0  0  0  0  0  0  0  0  0  0
    0.8722   -0.2670    0.0000 N   0  0  0  0  0  0  0  0  0  0  0  0
    1.5643    0.1813    0.0000 C   0  0  0  0  0  0  0  0  0  0  0  0
    2.2787    1.3367    0.0000 N   0  0  0  0  0  0  0  0  0  0  0  0
    2.8611    0.7544    0.0000 C   0  0  0  0  0  0  0  0  0  0  0  0
    2.4182    0.0097    0.0000 N   0  0  0  0  0  0  0  0  0  0  0  0
    2.4922    2.1337    0.0000 C   0  0  0  0  0  0  0  0  0  0  0  0
    3.6861    0.7544    0.0000 O   0  0  0  0  0  0  0  0  0  0  0  0
    2.8308   -0.7047    0.0000 C   0  0  0  0  0  0  0  0  0  0  0  0
    2.4182   -1.4192    0.0000 C   0  0  0  0  0  0  0  0  0  0  0  0
    2.8308   -2.1337    0.0000 C   0  0  0  0  0  0  0  0  0  0  0  0
    3.6557   -2.1336    0.0000 O   0  0  0  0  0  0  0  0  0  0  0  0
    4.0683   -1.4192    0.0000 C   0  0  0  0  0  0  0  0  0  0  0  0
    3.6558   -0.7047    0.0000 C   0  0  0  0  0  0  0  0  0  0  0  0
  1  2  1  0
  1  9  1  0
  2  3  1  0
  2  6  1  0
  3  4  2  0
  4  5  1  0
  5  1  2  0
  6  7  2  0
  7  8  1  0
  7 11  1  0
  8  9  2  0
  8 10  1  0
 11 12  1  0
 12 16  2  0
 13 14  2  0
 14 12  1  0
 15 13  1  0
 15 18  1  0
 16 17  1  0
 17 15  2  0
 18 19  1  0
 18 21  1  0
 19 20  1  0
 19 22  2  0
 20 17  1  0
 20 23  1  0
 23 24  1  0
 24 25  1  0
 25 26  1  0
 26 27  1  0
 27 28  1  0
 28 23  1  0
M  END
>  <DRUGBANK_ID>  (1) 
DB16834

>  <COMMON_NAME>  (1) 
AZD-7648

>  <CAS_NUMBER>  (1) 
2230820-11-6

>  <UNII>  (1) 
97A09L5JCK

>  <SYNONYMS>  (1) 
AZD7648

$$$$
