
     RDKit          2D

 23 25  0  0  0  0  0  0  0  0999 V2000
    0.6078   -2.9491    0.0000 C   0  0  0  0  0  0  0  0  0  0  0  0
    1.3222   -2.5366    0.0000 N   0  0  0  0  0  0  0  0  0  0  0  0
    1.3222   -1.7116    0.0000 C   0  0  0  0  0  0  0  0  0  0  0  0
    2.0367   -2.9491    0.0000 C   0  0  0  0  0  0  0  0  0  0  0  0
    2.7512   -2.5366    0.0000 O   0  0  0  0  0  0  0  0  0  0  0  0
    2.0367   -3.7741    0.0000 N   0  0  0  0  0  0  0  0  0  0  0  0
    1.3693   -4.2590    0.0000 N   0  0  0  0  0  0  0  0  0  0  0  0
    1.6242   -5.0437    0.0000 N   0  0  0  0  0  0  0  0  0  0  0  0
    2.4492   -5.0437    0.0000 N   0  0  0  0  0  0  0  0  0  0  0  0
    2.7041   -4.2590    0.0000 C   0  0  0  0  0  0  0  0  0  0  0  0
    3.4888   -4.0041    0.0000 C   0  0  0  0  0  0  0  0  0  0  0  0
    4.1019   -4.5561    0.0000 C   0  0  0  0  0  0  0  0  0  0  0  0
    4.8865   -4.3012    0.0000 C   0  0  0  0  0  0  0  0  0  0  0  0
    5.4996   -4.8532    0.0000 C   0  0  0  0  0  0  0  0  0  0  0  0
    5.3281   -5.6602    0.0000 C   0  0  0  0  0  0  0  0  0  0  0  0
    4.5434   -5.9151    0.0000 C   0  0  0  0  0  0  0  0  0  0  0  0
    3.9303   -5.3631    0.0000 C   0  0  0  0  0  0  0  0  0  0  0  0
    5.9411   -6.2122    0.0000 C   0  0  0  0  0  0  0  0  0  0  0  0
    6.7258   -5.9573    0.0000 C   0  0  0  0  0  0  0  0  0  0  0  0
    7.3389   -6.5093    0.0000 C   0  0  0  0  0  0  0  0  0  0  0  0
    7.1673   -7.3163    0.0000 C   0  0  0  0  0  0  0  0  0  0  0  0
    6.3827   -7.5712    0.0000 C   0  0  0  0  0  0  0  0  0  0  0  0
    5.7696   -7.0192    0.0000 C   0  0  0  0  0  0  0  0  0  0  0  0
  1  2  1  0
  2  3  1  0
  2  4  1  0
  4  5  2  0
  4  6  1  0
  6  7  1  0
  6 10  1  0
  7  8  2  0
  8  9  1  0
  9 10  2  0
 10 11  1  0
 11 12  1  0
 12 13  2  0
 12 17  1  0
 13 14  1  0
 14 15  2  0
 15 16  1  0
 15 18  1  0
 16 17  2  0
 18 19  2  0
 18 23  1  0
 19 20  1  0
 20 21  2  0
 21 22  1  0
 22 23  2  0
M  END
>  <DRUGBANK_ID>  (1) 
DB17035

>  <COMMON_NAME>  (1) 
LY-2183240

>  <CAS_NUMBER>  (1) 
874902-19-9

>  <UNII>  (1) 
2WBU91OKM7

>  <SYNONYMS>  (1) 
1h-tetrazole-1-carboxamide, 5-((1,1'-biphenyl)-4-ylmethyl)-n,n-dimethyl-; 5-(biphenyl-4-ylmethyl)-n,n-dimethyl-1h-tetrazole-1-carboxamide

$$$$
