
     RDKit          2D

 28 31  0  0  0  0  0  0  0  0999 V2000
   -2.0367   -3.8973    0.0000 C   0  0  0  0  0  0  0  0  0  0  0  0
   -2.7512   -4.3098    0.0000 C   0  0  0  0  0  0  0  0  0  0  0  0
   -3.4656   -3.8973    0.0000 N   0  0  0  0  0  0  0  0  0  0  0  0
   -3.4656   -3.0723    0.0000 C   0  0  0  0  0  0  0  0  0  0  0  0
   -2.7512   -2.6598    0.0000 C   0  0  0  0  0  0  0  0  0  0  0  0
   -2.0367   -3.0723    0.0000 C   0  0  0  0  0  0  0  0  0  0  0  0
   -1.3222   -2.6598    0.0000 N   0  0  0  0  0  0  0  0  0  0  0  0
   -1.3222   -1.8348    0.0000 C   0  0  0  0  0  0  0  0  0  0  0  0
   -2.0367   -1.4223    0.0000 N   0  0  0  0  0  0  0  0  0  0  0  0
   -2.0367   -0.5973    0.0000 C   0  0  0  0  0  0  0  0  0  0  0  0
   -1.3222   -0.1848    0.0000 C   0  0  0  0  0  0  0  0  0  0  0  0
   -0.6078   -0.5973    0.0000 N   0  0  0  0  0  0  0  0  0  0  0  0
   -0.6078   -1.4223    0.0000 C   0  0  0  0  0  0  0  0  0  0  0  0
   -0.6078   -3.0723    0.0000 C   0  0  0  0  0  0  0  0  0  0  0  0
    0.1067   -2.6598    0.0000 O   0  0  0  0  0  0  0  0  0  0  0  0
   -0.6078   -3.8973    0.0000 C   0  0  0  0  0  0  0  0  0  0  0  0
    0.0597   -4.3822    0.0000 C   0  0  0  0  0  0  0  0  0  0  0  0
   -0.1953   -5.1669    0.0000 C   0  0  0  0  0  0  0  0  0  0  0  0
   -1.0203   -5.1669    0.0000 C   0  0  0  0  0  0  0  0  0  0  0  0
   -1.2752   -4.3822    0.0000 O   0  0  0  0  0  0  0  0  0  0  0  0
   -4.1801   -4.3098    0.0000 C   0  0  0  0  0  0  0  0  0  0  0  0
   -4.1801   -5.1348    0.0000 C   0  0  0  0  0  0  0  0  0  0  0  0
   -4.8946   -5.5473    0.0000 C   0  0  0  0  0  0  0  0  0  0  0  0
   -4.8946   -6.3723    0.0000 C   0  0  0  0  0  0  0  0  0  0  0  0
   -5.6091   -6.7848    0.0000 C   0  0  0  0  0  0  0  0  0  0  0  0
   -6.3235   -6.3723    0.0000 C   0  0  0  0  0  0  0  0  0  0  0  0
   -6.3235   -5.5473    0.0000 C   0  0  0  0  0  0  0  0  0  0  0  0
   -5.6091   -5.1348    0.0000 C   0  0  0  0  0  0  0  0  0  0  0  0
  1  2  1  0
  1  6  1  0
  2  3  1  0
  3  4  1  0
  3 21  1  0
  4  5  1  0
  5  6  1  0
  6  7  1  0
  7  8  1  0
  7 14  1  0
  8  9  2  0
  8 13  1  0
  9 10  1  0
 10 11  2  0
 11 12  1  0
 12 13  2  0
 14 15  2  0
 14 16  1  0
 16 17  2  0
 16 20  1  0
 17 18  1  0
 18 19  2  0
 19 20  1  0
 21 22  1  0
 22 23  1  0
 23 24  2  0
 23 28  1  0
 24 25  1  0
 25 26  2  0
 26 27  1  0
 27 28  2  0
M  END
>  <DRUGBANK_ID>  (1) 
DB09175

>  <COMMON_NAME>  (1) 
Mirfentanil

>  <CAS_NUMBER>  (1) 
117523-47-4

>  <UNII>  (1) 
Q2U943H24P

>  <SYNONYMS>  (1) 
Mirfentanil

$$$$
