
     RDKit          2D

 42 45  0  0  0  0  0  0  0  0999 V2000
   -3.7125   -1.2631    0.0000 P   0  0  0  0  0  0  0  0  0  0  0  0
   -3.7125   -0.4381    0.0000 C   0  0  0  0  0  0  0  0  0  0  0  0
   -2.9980   -0.0256    0.0000 C   0  0  0  0  0  0  0  0  0  0  0  0
   -2.9980    0.7993    0.0000 C   0  0  0  0  0  0  0  0  0  0  0  0
   -3.7125    1.2118    0.0000 C   0  0  0  0  0  0  0  0  0  0  0  0
   -4.4269    0.7993    0.0000 C   0  0  0  0  0  0  0  0  0  0  0  0
   -4.4269   -0.0256    0.0000 C   0  0  0  0  0  0  0  0  0  0  0  0
   -4.5375   -1.2631    0.0000 C   0  0  0  0  0  0  0  0  0  0  0  0
   -4.9499   -1.9775    0.0000 C   0  0  0  0  0  0  0  0  0  0  0  0
   -5.7749   -1.9775    0.0000 C   0  0  0  0  0  0  0  0  0  0  0  0
   -6.1875   -1.2631    0.0000 C   0  0  0  0  0  0  0  0  0  0  0  0
   -5.7749   -0.5486    0.0000 C   0  0  0  0  0  0  0  0  0  0  0  0
   -4.9499   -0.5486    0.0000 C   0  0  0  0  0  0  0  0  0  0  0  0
   -3.7125   -2.0881    0.0000 C   0  0  0  0  0  0  0  0  0  0  0  0
   -2.9980   -2.5006    0.0000 C   0  0  0  0  0  0  0  0  0  0  0  0
   -2.9980   -3.3256    0.0000 C   0  0  0  0  0  0  0  0  0  0  0  0
   -3.7125   -3.7381    0.0000 C   0  0  0  0  0  0  0  0  0  0  0  0
   -4.4269   -3.3256    0.0000 C   0  0  0  0  0  0  0  0  0  0  0  0
   -4.4269   -2.5006    0.0000 C   0  0  0  0  0  0  0  0  0  0  0  0
   -2.8875   -1.2631    0.0000 C   0  0  0  0  0  0  0  0  0  0  0  0
   -2.4749   -0.5486    0.0000 C   0  0  0  0  0  0  0  0  0  0  0  0
   -1.6499   -0.5486    0.0000 C   0  0  0  0  0  0  0  0  0  0  0  0
   -1.2375    0.1658    0.0000 C   0  0  0  0  0  0  0  0  0  0  0  0
   -0.4125    0.1658    0.0000 C   0  0  0  0  0  0  0  0  0  0  0  0
    0.0000    0.8802    0.0000 C   0  0  0  0  0  0  0  0  0  0  0  0
    0.8250    0.8802    0.0000 C   0  0  0  0  0  0  0  0  0  0  0  0
    1.2375    1.5947    0.0000 C   0  0  0  0  0  0  0  0  0  0  0  0
    2.0625    1.5947    0.0000 C   0  0  0  0  0  0  0  0  0  0  0  0
    2.4750    2.3092    0.0000 C   0  0  0  0  0  0  0  0  0  0  0  0
    3.3000    2.3092    0.0000 C   0  0  0  0  0  0  0  0  0  0  0  0
    3.7125    3.0236    0.0000 C   0  0  0  0  0  0  0  0  0  0  0  0
    3.3000    3.7381    0.0000 C   0  0  0  0  0  0  0  0  0  0  0  0
    4.5375    3.0236    0.0000 C   0  0  0  0  0  0  0  0  0  0  0  0
    4.9500    3.7381    0.0000 O   0  0  0  0  0  0  0  0  0  0  0  0
    4.9500    2.3092    0.0000 C   0  0  0  0  0  0  0  0  0  0  0  0
    5.7750    2.3092    0.0000 O   0  0  0  0  0  0  0  0  0  0  0  0
    6.1875    3.0236    0.0000 C   0  0  0  0  0  0  0  0  0  0  0  0
    4.5375    1.5947    0.0000 C   0  0  0  0  0  0  0  0  0  0  0  0
    4.9500    0.8802    0.0000 O   0  0  0  0  0  0  0  0  0  0  0  0
    4.5375    0.1658    0.0000 C   0  0  0  0  0  0  0  0  0  0  0  0
    3.7125    1.5947    0.0000 C   0  0  0  0  0  0  0  0  0  0  0  0
    3.3000    0.8802    0.0000 O   0  0  0  0  0  0  0  0  0  0  0  0
  1  2  1  0
  1  8  1  0
  1 14  1  0
  1 20  1  0
  2  3  2  0
  2  7  1  0
  3  4  1  0
  4  5  2  0
  6  5  1  0
  7  6  2  0
  8  9  2  0
  8 13  1  0
  9 10  1  0
 10 11  2  0
 12 11  1  0
 13 12  2  0
 14 15  2  0
 14 19  1  0
 15 16  1  0
 16 17  2  0
 18 17  1  0
 19 18  2  0
 20 21  1  0
 21 22  1  0
 22 23  1  0
 23 24  1  0
 24 25  1  0
 25 26  1  0
 26 27  1  0
 27 28  1  0
 28 29  1  0
 29 30  1  0
 30 31  2  0
 30 41  1  0
 31 32  1  0
 31 33  1  0
 33 34  2  0
 33 35  1  0
 35 36  1  0
 36 37  1  0
 38 35  2  0
 38 39  1  0
 39 40  1  0
 41 38  1  0
 41 42  2  0
M  CHG  1   1   1
M  END
>  <DRUGBANK_ID>  (1) 
DB05063

>  <COMMON_NAME>  (1) 
Mitoquinone

>  <CAS_NUMBER>  (1) 
444890-41-9

>  <UNII>  (1) 
47BYS17IY0

>  <SYNONYMS>  (1) 
Mitoquinone cation; Mitoquinone ion

$$$$
