
     RDKit          2D

 17 18  0  0  0  0  0  0  0  0999 V2000
    1.8972    1.0009    0.0000 C   0  0  0  0  0  0  0  0  0  0  0  0
    1.4847    0.2933    0.0000 C   0  0  0  0  0  0  0  0  0  0  0  0
    1.4599    1.7479    0.0000 C   0  0  0  0  0  0  0  0  0  0  0  0
    2.7222    1.0009    0.0000 C   0  0  0  0  0  0  0  0  0  0  0  0
    0.6348    0.2933    0.0000 C   0  0  0  0  0  0  0  0  0  0  0  0
    0.6348    1.7479    0.0000 C   0  0  0  0  0  0  0  0  0  0  0  0
    3.1561    0.2933    0.0000 O   0  0  0  0  0  0  0  0  0  0  0  0
    3.1348    1.7479    0.0000 O   0  0  0  0  0  0  0  0  0  0  0  0
    0.2222    1.0009    0.0000 C   0  0  0  0  0  0  0  0  0  0  0  0
   -0.6206    1.0009    0.0000 O   0  0  0  0  0  0  0  0  0  0  0  0
   -1.0331    0.2933    0.0000 C   0  0  0  0  0  0  0  0  0  0  0  0
   -1.8581    0.2933    0.0000 C   0  0  0  0  0  0  0  0  0  0  0  0
   -2.2707   -0.4178    0.0000 N   0  0  0  0  0  0  0  0  0  0  0  0
   -1.8581   -1.1647    0.0000 C   0  0  0  0  0  0  0  0  0  0  0  0
   -3.0779   -0.5992    0.0000 C   0  0  0  0  0  0  0  0  0  0  0  0
   -2.4128   -1.7479    0.0000 C   0  0  0  0  0  0  0  0  0  0  0  0
   -3.1561   -1.4385    0.0000 N   0  0  0  0  0  0  0  0  0  0  0  0
  1  2  2  0
  1  3  1  0
  1  4  1  0
  2  5  1  0
  3  6  2  0
  4  7  1  0
  4  8  2  0
  5  9  2  0
  6  9  1  0
  9 10  1  0
 10 11  1  0
 11 12  1  0
 12 13  1  0
 13 14  1  0
 13 15  1  0
 14 16  2  0
 15 17  2  0
 16 17  1  0
M  END
>  <DRUGBANK_ID>  (1) 
DB03052

>  <SECONDARY_ACCESSION_NUMBERS>  (1) 
EXPT03297

>  <COMMON_NAME>  (1) 
Dazoxiben

>  <CAS_NUMBER>  (1) 
78218-09-4

>  <UNII>  (1) 
09ZFC7974Q

>  <SYNONYMS>  (1) 
Dazoxiben; Dazoxibene; Dazoxibenum

$$$$
