
     RDKit          2D

 30 32  0  0  0  0  0  0  0  0999 V2000
   -1.8562    2.0849    0.0000 O   0  0  0  0  0  0  0  0  0  0  0  0
   -1.1744    2.8974    0.0000 O   0  0  0  0  0  0  0  0  0  0  0  0
   -0.6949    3.4277    0.0000 O   0  0  0  0  0  0  0  0  0  0  0  0
   -0.6187   -0.2795    0.0000 N   0  0  0  0  0  0  0  0  0  0  0  0
   -0.2062    2.0849    0.0000 N   0  0  0  0  0  0  0  0  0  0  0  0
   -0.6187    1.3704    0.0000 C   0  0  0  0  0  0  0  0  0  0  0  0
   -1.3332    0.9579    0.0000 C   0  0  0  0  0  0  0  0  0  0  0  0
    0.0957    0.9579    0.0000 C   0  0  0  0  0  0  0  0  0  0  0  0
   -1.3332    0.1329    0.0000 C   0  0  0  0  0  0  0  0  0  0  0  0
    0.0957    0.1329    0.0000 C   0  0  0  0  0  0  0  0  0  0  0  0
   -2.0477    1.3704    0.0000 C   0  0  0  0  0  0  0  0  0  0  0  0
   -1.0312    2.0849    0.0000 C   0  0  0  0  0  0  0  0  0  0  0  0
   -0.6187   -1.1045    0.0000 C   0  0  0  0  0  0  0  0  0  0  0  0
    0.6187    2.0849    0.0000 C   0  0  0  0  0  0  0  0  0  0  0  0
   -0.0630    2.8974    0.0000 C   0  0  0  0  0  0  0  0  0  0  0  0
   -1.3332   -1.5170    0.0000 C   0  0  0  0  0  0  0  0  0  0  0  0
    0.7122    3.1795    0.0000 C   0  0  0  0  0  0  0  0  0  0  0  0
    1.0312    2.7993    0.0000 C   0  0  0  0  0  0  0  0  0  0  0  0
    1.0312    1.3704    0.0000 C   0  0  0  0  0  0  0  0  0  0  0  0
   -1.3332   -2.3420    0.0000 C   0  0  0  0  0  0  0  0  0  0  0  0
   -2.2687    2.7993    0.0000 C   0  0  0  0  0  0  0  0  0  0  0  0
    0.8555    3.9920    0.0000 C   0  0  0  0  0  0  0  0  0  0  0  0
    1.8562    2.7993    0.0000 C   0  0  0  0  0  0  0  0  0  0  0  0
    1.8562    1.3704    0.0000 C   0  0  0  0  0  0  0  0  0  0  0  0
   -0.6187   -2.7545    0.0000 C   0  0  0  0  0  0  0  0  0  0  0  0
   -2.0477   -2.7545    0.0000 C   0  0  0  0  0  0  0  0  0  0  0  0
    2.2687    2.0849    0.0000 C   0  0  0  0  0  0  0  0  0  0  0  0
   -0.6187   -3.5795    0.0000 C   0  0  0  0  0  0  0  0  0  0  0  0
   -2.0477   -3.5795    0.0000 C   0  0  0  0  0  0  0  0  0  0  0  0
   -1.3332   -3.9920    0.0000 C   0  0  0  0  0  0  0  0  0  0  0  0
  1 12  1  0
  1 21  1  0
  2 12  2  0
  3 15  2  0
  4  9  1  0
  4 10  1  0
  4 13  1  0
  5 14  1  0
  5 15  1  0
  6  5  1  0
  6  7  1  0
  6  8  1  0
  6 12  1  6
  7  9  1  0
  7 11  1  1
  8 10  1  0
 13 16  1  0
 14 18  2  0
 14 19  1  0
 15 17  1  0
 16 20  1  0
 17 22  1  0
 18 23  1  0
 19 24  2  0
 20 25  2  0
 20 26  1  0
 23 27  2  0
 24 27  1  0
 25 28  1  0
 26 29  2  0
 28 30  2  0
 29 30  1  0
M  END
>  <DRUGBANK_ID>  (1) 
DB09174

>  <COMMON_NAME>  (1) 
Lofentanil

>  <CAS_NUMBER>  (1) 
61380-40-3

>  <UNII>  (1) 
7H7YQ564XV

>  <SYNONYMS>  (1) 
Lofentanil

$$$$
