SN0
     RDKit          2D

 15 14  0  0  0  0  0  0  0  0999 V2000
   -0.4122    0.3230    0.0000 C   0  0  0  0  0  0  0  0  0  0  0  0
   -0.4122    1.1480    0.0000 C   0  0  0  0  0  0  0  0  0  0  0  0
    0.3022    1.5605    0.0000 O   0  0  0  0  0  0  0  0  0  0  0  0
   -1.1267    1.5605    0.0000 O   0  0  0  0  0  0  0  0  0  0  0  0
   -1.1267   -0.0895    0.0000 C   0  0  0  0  0  0  0  0  0  0  0  0
   -1.8412    0.3230    0.0000 C   0  0  0  0  0  0  0  0  0  0  0  0
   -2.5557   -0.0895    0.0000 C   0  0  0  0  0  0  0  0  0  0  0  0
    0.3022   -0.0895    0.0000 N   0  0  0  0  0  0  0  0  0  0  0  0
    1.0167    0.3230    0.0000 C   0  0  0  0  0  0  0  0  0  0  0  0
    1.0167    1.1480    0.0000 O   0  0  0  0  0  0  0  0  0  0  0  0
    1.7312   -0.0895    0.0000 C   0  0  0  0  0  0  0  0  0  0  0  0
    2.4456    0.3230    0.0000 C   0  0  0  0  0  0  0  0  0  0  0  0
    3.1601   -0.0895    0.0000 C   0  0  0  0  0  0  0  0  0  0  0  0
    3.8746    0.3230    0.0000 O   0  0  0  0  0  0  0  0  0  0  0  0
    3.1601   -0.9145    0.0000 O   0  0  0  0  0  0  0  0  0  0  0  0
  1  2  1  0
  1  5  1  1
  1  8  1  0
  2  3  1  0
  2  4  2  0
  5  6  1  0
  6  7  1  0
  8  9  1  0
  9 10  2  0
  9 11  1  0
 11 12  1  0
 12 13  1  0
 13 14  1  0
 13 15  2  0
M  END
>  <DRUGBANK_ID>  (1) 
DB08554

>  <COMMON_NAME>  (1) 
N-(3-carboxypropanoyl)-L-norvaline

$$$$
