T2M
     RDKit          2D

 12 11  0  0  0  0  0  0  0  0999 V2000
    1.7345   -0.5402    0.0000 C   0  0  0  0  0  0  0  0  0  0  0  0
    1.7345    0.2848    0.0000 N   0  0  0  0  0  0  0  0  0  0  0  0
    1.0200    0.6974    0.0000 N   0  0  0  0  0  0  0  0  0  0  0  0
    0.3054    0.2848    0.0000 C   0  0  0  0  0  0  0  0  0  0  0  0
    0.3054   -0.5402    0.0000 O   0  0  0  0  0  0  0  0  0  0  0  0
   -0.4090    0.6974    0.0000 O   0  0  0  0  0  0  0  0  0  0  0  0
   -1.1236    0.2848    0.0000 C   0  0  0  0  0  0  0  0  0  0  0  0
   -1.8381   -0.1277    0.0000 C   0  0  0  0  0  0  0  0  0  0  0  0
   -0.7111   -0.4297    0.0000 C   0  0  0  0  0  0  0  0  0  0  0  0
   -1.5361    0.9993    0.0000 C   0  0  0  0  0  0  0  0  0  0  0  0
    2.4491    0.6974    0.0000 C   0  0  0  0  0  0  0  0  0  0  0  0
    3.1635    1.1099    0.0000 N   0  0  0  0  0  0  0  0  0  0  0  0
  1  2  1  0
  2  3  1  0
  2 11  1  0
  3  4  1  0
  4  5  2  0
  4  6  1  0
  6  7  1  0
  7  8  1  0
  7  9  1  0
  7 10  1  0
 11 12  3  0
M  END
>  <DRUGBANK_ID>  (1) 
DB08594

>  <COMMON_NAME>  (1) 
TERT-BUTYL 2-CYANO-2-METHYLHYDRAZINECARBOXYLATE

$$$$
