
     RDKit          2D

 12 11  0  0  0  0  0  0  0  0999 V2000
    2.1464    0.2107    0.0000 C   0  0  0  0  0  0  0  0  0  0  0  0
    2.1464    1.0348    0.0000 O   0  0  0  0  0  0  0  0  0  0  0  0
    1.4181   -0.2107    0.0000 C   0  0  0  0  0  0  0  0  0  0  0  0
    1.4181   -1.0348    0.0000 N   0  0  0  0  0  0  0  0  0  0  0  0
    0.7090    0.2107    0.0000 C   0  0  0  0  0  0  0  0  0  0  0  0
   -0.0191   -0.2107    0.0000 C   0  0  0  0  0  0  0  0  0  0  0  0
   -0.7281    0.2107    0.0000 C   0  0  0  0  0  0  0  0  0  0  0  0
   -1.4373   -0.2107    0.0000 N   0  0  0  0  0  0  0  0  0  0  0  0
   -2.1656    0.1917    0.0000 C   0  0  0  0  0  0  0  0  0  0  0  0
   -2.8747   -0.2299    0.0000 N   0  0  0  0  0  0  0  0  0  0  0  0
   -2.1656    1.0348    0.0000 N   0  0  0  0  0  0  0  0  0  0  0  0
    2.8747   -0.2107    0.0000 N   0  0  0  0  0  0  0  0  0  0  0  0
  2  1  2  0
  3  1  1  0
  3  4  1  1
  5  3  1  0
  6  5  1  0
  7  6  1  0
  8  7  1  0
  9  8  1  0
 10  9  1  0
 11  9  2  0
 12  1  1  0
M  CHG  1  11   1
M  END
>  <DRUGBANK_ID>  (1) 
DB02299

>  <SECONDARY_ACCESSION_NUMBERS>  (1) 
EXPT00385

>  <COMMON_NAME>  (1) 
Arginineamide

>  <SYNONYMS>  (1) 
L-arginine amide(1+)

$$$$
