
     RDKit          2D

 28 30  0  0  0  0  0  0  0  0999 V2000
   -1.3890    2.8270    0.0000 C   0  0  0  0  0  0  0  0  0  0  0  0
   -2.0995    3.2463    0.0000 C   0  0  0  0  0  0  0  0  0  0  0  0
   -2.8179    2.8408    0.0000 C   0  0  0  0  0  0  0  0  0  0  0  0
   -2.8258    2.0158    0.0000 C   0  0  0  0  0  0  0  0  0  0  0  0
   -2.1154    1.5965    0.0000 C   0  0  0  0  0  0  0  0  0  0  0  0
   -1.3970    2.0021    0.0000 C   0  0  0  0  0  0  0  0  0  0  0  0
   -2.1234    0.7715    0.0000 C   0  0  0  0  0  0  0  0  0  0  0  0
   -1.4130    0.3522    0.0000 C   0  0  0  0  0  0  0  0  0  0  0  0
   -0.6945    0.7578    0.0000 N   0  0  0  0  0  0  0  0  0  0  0  0
   -1.4208   -0.4727    0.0000 O   0  0  0  0  0  0  0  0  0  0  0  0
    0.0167    0.3379    0.0000 C   0  0  0  0  0  0  0  0  0  0  0  0
    0.8417    0.3379    0.0000 C   0  0  0  0  0  0  0  0  0  0  0  0
    0.0166   -0.4869    0.0000 C   0  0  0  0  0  0  0  0  0  0  0  0
    0.8417   -0.4868    0.0000 N   0  0  0  0  0  0  0  0  0  0  0  0
   -0.5666   -1.0702    0.0000 O   0  0  0  0  0  0  0  0  0  0  0  0
    1.6263    0.5929    0.0000 S   0  0  0  0  0  0  0  0  0  0  0  0
    1.6264   -0.7419    0.0000 C   0  0  0  0  0  0  0  0  0  0  0  0
    2.1112   -0.0744    0.0000 C   0  0  0  0  0  0  0  0  0  0  0  0
    1.6337   -1.5672    0.0000 C   0  0  0  0  0  0  0  0  0  0  0  0
    0.9235   -1.9870    0.0000 O   0  0  0  0  0  0  0  0  0  0  0  0
    2.3525   -1.9724    0.0000 O   0  0  0  0  0  0  0  0  0  0  0  0
    0.9320   -2.8119    0.0000 C   0  0  0  0  0  0  0  0  0  0  0  0
    0.2217   -3.2317    0.0000 O   0  0  0  0  0  0  0  0  0  0  0  0
   -0.4968   -2.8265    0.0000 C   0  0  0  0  0  0  0  0  0  0  0  0
   -0.5053   -2.0016    0.0000 O   0  0  0  0  0  0  0  0  0  0  0  0
   -1.2071   -3.2463    0.0000 C   0  0  0  0  0  0  0  0  0  0  0  0
    2.8256    0.3380    0.0000 C   0  0  0  0  0  0  0  0  0  0  0  0
    2.8258   -0.4868    0.0000 C   0  0  0  0  0  0  0  0  0  0  0  0
  1  2  2  0
  2  3  1  0
  3  4  2  0
  4  5  1  0
  5  6  2  0
  5  7  1  0
  6  1  1  0
  7  8  1  0
  8  9  1  0
  8 10  2  0
 11  9  1  1
 11 12  1  0
 11 13  1  0
 12 16  1  1
 13 14  1  0
 13 15  2  0
 14 12  1  0
 14 17  1  0
 16 18  1  0
 17 18  1  0
 17 19  1  6
 19 20  1  0
 19 21  2  0
 20 22  1  0
 22 23  1  0
 23 24  1  0
 24 25  2  0
 24 26  1  0
 27 18  1  0
 28 18  1  0
M  END
>  <DRUGBANK_ID>  (1) 
DB13739

>  <COMMON_NAME>  (1) 
Penamecillin

>  <CAS_NUMBER>  (1) 
983-85-7

>  <UNII>  (1) 
H0P1YE5581

>  <SYNONYMS>  (1) 
Acetoxymethyl benzylpenicillanate; Benzylpenicillin acetoxymethyl ester; Penamecilina; Penamecillin; Pénamécilline; Penamecillinum

$$$$
