
     RDKit          2D

 17 19  0  0  0  0  0  0  0  0999 V2000
   -0.0796   -0.8250    0.0000 C   0  0  0  0  0  0  0  0  0  0  0  0
   -0.7941   -1.2375    0.0000 C   0  0  0  0  0  0  0  0  0  0  0  0
   -1.5086   -0.8250    0.0000 C   0  0  0  0  0  0  0  0  0  0  0  0
   -1.5086    0.0000    0.0000 C   0  0  0  0  0  0  0  0  0  0  0  0
   -0.7941    0.4125    0.0000 C   0  0  0  0  0  0  0  0  0  0  0  0
   -0.0796    0.0000    0.0000 C   0  0  0  0  0  0  0  0  0  0  0  0
    0.6347    0.4125    0.0000 C   0  0  0  0  0  0  0  0  0  0  0  0
    0.6347    1.2375    0.0000 O   0  0  0  0  0  0  0  0  0  0  0  0
    1.3492    0.0000    0.0000 N   0  0  0  0  0  0  0  0  0  0  0  0
    2.0637    0.4125    0.0000 C   0  0  0  0  0  0  0  0  0  0  0  0
    2.7781    0.0000    0.0000 C   0  0  0  0  0  0  0  0  0  0  0  0
    2.7781   -0.8250    0.0000 O   0  0  0  0  0  0  0  0  0  0  0  0
    2.0637   -1.2375    0.0000 C   0  0  0  0  0  0  0  0  0  0  0  0
    1.3492   -0.8250    0.0000 C   0  0  0  0  0  0  0  0  0  0  0  0
   -2.2932    0.2549    0.0000 N   0  0  0  0  0  0  0  0  0  0  0  0
   -2.7781   -0.4125    0.0000 O   0  0  0  0  0  0  0  0  0  0  0  0
   -2.2932   -1.0799    0.0000 N   0  0  0  0  0  0  0  0  0  0  0  0
  1  2  2  0
  1  6  1  0
  2  3  1  0
  3  4  1  0
  3 17  2  0
  4  5  1  0
  4 15  2  0
  5  6  2  0
  6  7  1  0
  7  8  2  0
  7  9  1  0
  9 10  1  0
  9 14  1  0
 10 11  1  0
 11 12  1  0
 12 13  1  0
 13 14  1  0
 15 16  1  0
 16 17  1  0
M  END
>  <DRUGBANK_ID>  (1) 
DB05047

>  <COMMON_NAME>  (1) 
CX-717

>  <CAS_NUMBER>  (1) 
867276-98-0

>  <UNII>  (1) 
7I12YTA3QM

$$$$
