
     RDKit          2D

  6  2  0  0  0  0  0  0  0  0999 V2000
   -0.3984    0.1067    0.0000 Fe  0  0  0  0  0 15  0  0  0  0  0  0
   -1.5652   -1.0599    0.0000 Fe  0  0  0  0  0 15  0  0  0  0  0  0
   -0.9818   -0.4766    0.0000 O   0  0  0  0  0  0  0  0  0  0  0  0
    0.3983   -0.1067    0.0000 N   0  0  0  0  0  0  0  0  0  0  0  0
    0.9817    0.4766    0.0000 N   0  0  0  0  0  0  0  0  0  0  0  0
    1.5652    1.0599    0.0000 N   0  0  0  0  0  0  0  0  0  0  0  0
  4  5  2  0
  5  6  2  0
M  CHG  3   4  -1   5   1   6  -1
M  END
>  <DRUGBANK_ID>  (1) 
DB02013

>  <SECONDARY_ACCESSION_NUMBERS>  (1) 
EXPT01417

>  <COMMON_NAME>  (1) 
Iron azide hydrate

>  <SYNONYMS>  (1) 
Monoazido-mu-oxo-diiron; Monoazido-Î¼-Oxo-Diiron

$$$$
