PP2
     RDKit          2D

 21 23  0  0  0  0  0  0  0  0999 V2000
    1.1724    0.7984    0.0000 C   0  0  0  0  0  0  0  0  0  0  0  0
    1.8869    1.2109    0.0000 N   0  0  0  0  0  0  0  0  0  0  0  0
    2.6014    0.7984    0.0000 C   0  0  0  0  0  0  0  0  0  0  0  0
    2.6014   -0.0266    0.0000 N   0  0  0  0  0  0  0  0  0  0  0  0
    1.8869   -0.4391    0.0000 C   0  0  0  0  0  0  0  0  0  0  0  0
    1.1724   -0.0266    0.0000 C   0  0  0  0  0  0  0  0  0  0  0  0
    0.3878   -0.2816    0.0000 C   0  0  0  0  0  0  0  0  0  0  0  0
   -0.0971    0.3859    0.0000 N   0  0  0  0  0  0  0  0  0  0  0  0
    0.3878    1.0533    0.0000 N   0  0  0  0  0  0  0  0  0  0  0  0
    0.1329   -1.0662    0.0000 C   0  0  0  0  0  0  0  0  0  0  0  0
    0.6849   -1.6793    0.0000 C   0  0  0  0  0  0  0  0  0  0  0  0
    0.4300   -2.4639    0.0000 C   0  0  0  0  0  0  0  0  0  0  0  0
   -0.3770   -2.6354    0.0000 C   0  0  0  0  0  0  0  0  0  0  0  0
   -0.9290   -2.0223    0.0000 C   0  0  0  0  0  0  0  0  0  0  0  0
   -0.6741   -1.2377    0.0000 C   0  0  0  0  0  0  0  0  0  0  0  0
    0.1329    1.8379    0.0000 C   0  0  0  0  0  0  0  0  0  0  0  0
   -0.1221    2.6226    0.0000 C   0  0  0  0  0  0  0  0  0  0  0  0
   -0.6518    1.5830    0.0000 C   0  0  0  0  0  0  0  0  0  0  0  0
    0.9175    2.0929    0.0000 C   0  0  0  0  0  0  0  0  0  0  0  0
    1.8869   -1.2641    0.0000 N   0  0  0  0  0  0  0  0  0  0  0  0
   -0.6320   -3.4200    0.0000 Cl  0  0  0  0  0  0  0  0  0  0  0  0
  1  2  2  0
  1  6  1  0
  1  9  1  0
  2  3  1  0
  3  4  2  0
  4  5  1  0
  5  6  2  0
  5 20  1  0
  6  7  1  0
  7  8  2  0
  7 10  1  0
  8  9  1  0
  9 16  1  0
 10 11  2  0
 10 15  1  0
 11 12  1  0
 12 13  2  0
 13 14  1  0
 13 21  1  0
 14 15  2  0
 16 17  1  0
 16 18  1  0
 16 19  1  0
M  CHG  1   8   1
M  END
>  <DRUGBANK_ID>  (1) 
DB03023

>  <SECONDARY_ACCESSION_NUMBERS>  (1) 
EXPT02634

>  <COMMON_NAME>  (1) 
1-Tert-Butyl-3-(4-Chloro-Phenyl)-1h-Pyrazolo[3,4-D]Pyrimidin-4-Ylamine

$$$$
