
     RDKit          2D

  6  5  0  0  0  0  0  0  0  0999 V2000
    2.4750   -1.4289    0.0000 C   0  0  0  0  0  0  0  0  0  0  0  0
    2.4750    0.0000    0.0000 C   0  0  0  0  0  0  0  0  0  0  0  0
    1.2375   -0.7145    0.0000 C   0  0  0  0  0  0  0  0  0  0  0  0
    0.8250    0.0000    0.0000 C   0  0  0  0  0  0  0  0  0  0  0  0
    2.0625   -0.7145    0.0000 N   0  0  0  0  0  0  0  0  0  0  0  0
    0.0000    0.0000    0.0000 O   0  0  0  0  0  0  0  0  0  0  0  0
  4  3  1  0
  5  1  1  0
  5  2  1  0
  5  3  1  0
  6  4  1  0
M  END
>  <DRUGBANK_ID>  (1) 
DB13352

>  <COMMON_NAME>  (1) 
Deanol

>  <CAS_NUMBER>  (1) 
108-01-0

>  <UNII>  (1) 
2N6K9DRA24

>  <SYNONYMS>  (1) 
2-(dimethylamino)ethanol; Dimethylethanolamine

$$$$
