
     RDKit          2D

 35 36  0  0  0  0  0  0  0  0999 V2000
    5.7158   -3.5211    0.0000 C   0  0  0  0  0  0  0  0  0  0  0  0
    6.9533   -4.2355    0.0000 C   0  0  0  0  0  0  0  0  0  0  0  0
    2.8579   -5.7750    0.0000 C   0  0  0  0  0  0  0  0  0  0  0  0
   -2.1434   -3.7125    0.0000 C   0  0  0  0  0  0  0  0  0  0  0  0
   -2.1434   -4.5375    0.0000 C   0  0  0  0  0  0  0  0  0  0  0  0
    9.2881   -5.3625    0.0000 C   0  0  0  0  0  0  0  0  0  0  0  0
    7.8592   -7.8375    0.0000 C   0  0  0  0  0  0  0  0  0  0  0  0
    9.2881   -6.1875    0.0000 C   0  0  0  0  0  0  0  0  0  0  0  0
    4.2868   -4.9500    0.0000 C   0  0  0  0  0  0  0  0  0  0  0  0
    0.7145   -3.7125    0.0000 C   0  0  0  0  0  0  0  0  0  0  0  0
    0.0000   -3.3000    0.0000 C   0  0  0  0  0  0  0  0  0  0  0  0
    1.4289   -4.9500    0.0000 C   0  0  0  0  0  0  0  0  0  0  0  0
    5.0013   -4.5375    0.0000 C   0  0  0  0  0  0  0  0  0  0  0  0
    3.5724   -4.5375    0.0000 C   0  0  0  0  0  0  0  0  0  0  0  0
    2.1434   -4.5375    0.0000 C   0  0  0  0  0  0  0  0  0  0  0  0
    0.0000   -4.9500    0.0000 C   0  0  0  0  0  0  0  0  0  0  0  0
    7.1447   -4.9500    0.0000 C   0  0  0  0  0  0  0  0  0  0  0  0
    6.4302   -6.1875    0.0000 C   0  0  0  0  0  0  0  0  0  0  0  0
    5.3033   -5.6645    0.0000 C   0  0  0  0  0  0  0  0  0  0  0  0
    6.1283   -4.2355    0.0000 C   0  0  0  0  0  0  0  0  0  0  0  0
    0.7145   -4.5375    0.0000 C   0  0  0  0  0  0  0  0  0  0  0  0
    6.4302   -5.3625    0.0000 C   0  0  0  0  0  0  0  0  0  0  0  0
   -0.7145   -3.7125    0.0000 C   0  0  0  0  0  0  0  0  0  0  0  0
   -0.7145   -4.5375    0.0000 C   0  0  0  0  0  0  0  0  0  0  0  0
    7.8592   -5.3625    0.0000 C   0  0  0  0  0  0  0  0  0  0  0  0
    7.1447   -6.6000    0.0000 C   0  0  0  0  0  0  0  0  0  0  0  0
    7.8592   -6.1875    0.0000 C   0  0  0  0  0  0  0  0  0  0  0  0
    5.7158   -4.9500    0.0000 C   0  0  0  0  0  0  0  0  0  0  0  0
    4.8908   -6.3789    0.0000 N   0  0  0  0  0  0  0  0  0  0  0  0
    2.8579   -4.9500    0.0000 N   0  0  0  0  0  0  0  0  0  0  0  0
   -1.4289   -3.3000    0.0000 O   0  0  0  0  0  0  0  0  0  0  0  0
   -1.4289   -4.9500    0.0000 O   0  0  0  0  0  0  0  0  0  0  0  0
    8.5737   -4.9500    0.0000 O   0  0  0  0  0  0  0  0  0  0  0  0
    7.1447   -7.4250    0.0000 O   0  0  0  0  0  0  0  0  0  0  0  0
    8.5737   -6.6000    0.0000 O   0  0  0  0  0  0  0  0  0  0  0  0
 11 10  2  0
 13  9  1  0
 14  9  1  0
 15 12  1  0
 20  1  1  0
 20  2  1  0
 21 10  1  0
 21 12  1  0
 21 16  2  0
 22 17  2  0
 22 18  1  0
 23 11  1  0
 24 16  1  0
 24 23  2  0
 25 17  1  0
 26 18  2  0
 27 25  2  0
 27 26  1  0
 28 13  1  0
 28 19  1  0
 28 20  1  0
 28 22  1  0
 29 19  3  0
 30  3  1  0
 30 14  1  0
 30 15  1  0
 31  4  1  0
 31 23  1  0
 32  5  1  0
 32 24  1  0
 33  6  1  0
 33 25  1  0
 34  7  1  0
 34 26  1  0
 35  8  1  0
 35 27  1  0
M  END
>  <DRUGBANK_ID>  (1) 
DB12923

>  <COMMON_NAME>  (1) 
Gallopamil

>  <CAS_NUMBER>  (1) 
16662-47-8

>  <UNII>  (1) 
39WPC8JHR8

>  <SYNONYMS>  (1) 
Gallopamil

$$$$
