
     RDKit          2D

 32 35  0  0  1  0  0  0  0  0999 V2000
    3.5724    5.3625    0.0000 C   0  0  0  0  0  0  0  0  0  0  0  0
    4.2868    4.1250    0.0000 C   0  0  0  0  0  0  0  0  0  0  0  0
   -1.0396    7.2104    0.0000 C   0  0  0  0  0  0  0  0  0  0  0  0
    0.7145    2.8875    0.0000 C   0  0  0  0  0  0  0  0  0  0  0  0
    2.1434    2.8875    0.0000 C   0  0  0  0  0  0  0  0  0  0  0  0
    0.7145    2.0625    0.0000 C   0  0  0  0  0  0  0  0  0  0  0  0
    2.1434    2.0625    0.0000 C   0  0  0  0  0  0  0  0  0  0  0  0
   -0.0000    6.6000    0.0000 C   0  0  0  0  0  0  0  0  0  0  0  0
    1.4289    6.6000    0.0000 C   0  0  0  0  0  0  0  0  0  0  0  0
   -0.0000    5.7750    0.0000 C   0  0  0  0  0  0  0  0  0  0  0  0
    1.4289    5.7750    0.0000 C   0  0  0  0  0  0  0  0  0  0  0  0
   -1.2695    8.6625    0.0000 C   0  0  0  0  0  0  0  0  0  0  0  0
    2.1434    4.5375    0.0000 C   0  0  0  0  0  0  0  0  0  0  0  0
    1.4289    9.0750    0.0000 C   0  0  0  0  0  0  0  0  0  0  0  0
    3.5724    4.5375    0.0000 C   0  0  0  0  0  0  0  0  0  0  0  0
   -0.7846    7.9951    0.0000 C   0  0  0  0  0  0  0  0  0  0  0  0
    1.4289    3.3000    0.0000 C   0  0  0  0  0  0  0  0  0  0  0  0
    1.4289    1.6500    0.0000 C   0  0  0  0  0  0  0  0  0  0  0  0
    1.4289    4.1250    0.0000 C   0  0  0  0  0  0  0  0  0  0  0  0
   -0.7846    9.3299    0.0000 C   0  0  0  0  0  0  0  0  0  0  0  0
   -0.0000    8.2500    0.0000 C   0  0  0  0  0  0  0  0  0  0  0  0
   -0.0000    9.0750    0.0000 C   0  0  0  0  0  0  0  0  0  0  0  0
    0.7145    7.8375    0.0000 C   0  0  0  0  0  0  0  0  0  0  0  0
    0.7145    4.5375    0.0000 C   0  0  0  0  0  0  0  0  0  0  0  0
    1.4289    0.8250    0.0000 Cl  0  0  0  0  0  0  0  0  0  0  0  0
    2.8579    4.1250    0.0000 N   0  0  0  0  0  0  0  0  0  0  0  0
    0.7145    9.4875    0.0000 N   0  0  0  0  0  0  0  0  0  0  0  0
    1.4289    8.2500    0.0000 N   0  0  0  0  0  0  0  0  0  0  0  0
    0.7145    7.0125    0.0000 N   0  0  0  0  0  0  0  0  0  0  0  0
    0.7145    5.3625    0.0000 N   0  0  0  0  0  0  0  0  0  0  0  0
   -1.0396   10.1146    0.0000 O   0  0  0  0  0  0  0  0  0  0  0  0
   -0.0000    4.1250    0.0000 O   0  0  0  0  0  0  0  0  0  0  0  0
  6  4  2  0
  7  5  1  0
 10  8  1  0
 11  9  1  0
 15  1  1  0
 15  2  1  0
 16  3  1  6
 16 12  1  0
 17  4  1  0
 17  5  2  0
 18  6  1  0
 18  7  2  0
 19 13  1  6
 19 17  1  0
 19 24  1  0
 20 12  1  0
 20 31  1  1
 21 16  1  0
 22 20  1  0
 22 21  2  0
 23 21  1  0
 25 18  1  0
 26 13  1  0
 26 15  1  0
 27 14  2  0
 27 22  1  0
 28 14  1  0
 28 23  2  0
 29  8  1  0
 29  9  1  0
 29 23  1  0
 30 10  1  0
 30 11  1  0
 30 24  1  0
 32 24  2  0
M  END
>  <DRUGBANK_ID>  (1) 
DB11743

>  <COMMON_NAME>  (1) 
Ipatasertib

>  <CAS_NUMBER>  (1) 
1001264-89-6

>  <UNII>  (1) 
524Y3IB4HQ

>  <SYNONYMS>  (1) 
Ipatasertib

$$$$
