FIH
     RDKit          2D

 26 28  0  0  0  0  0  0  0  0999 V2000
   -2.0893   -1.5142    0.0000 C   0  0  0  0  0  0  0  0  0  0  0  0
   -2.9098   -1.4280    0.0000 C   0  0  0  0  0  0  0  0  0  0  0  0
   -3.2453   -0.6743    0.0000 C   0  0  0  0  0  0  0  0  0  0  0  0
   -2.7604   -0.0069    0.0000 C   0  0  0  0  0  0  0  0  0  0  0  0
   -1.9399   -0.0931    0.0000 C   0  0  0  0  0  0  0  0  0  0  0  0
   -1.6044   -0.8468    0.0000 C   0  0  0  0  0  0  0  0  0  0  0  0
   -1.0425    1.8439    0.0000 C   0  0  0  0  0  0  0  0  0  0  0  0
   -0.3751    1.3589    0.0000 C   0  0  0  0  0  0  0  0  0  0  0  0
   -0.6300    0.5743    0.0000 C   0  0  0  0  0  0  0  0  0  0  0  0
   -1.4550    0.5743    0.0000 C   0  0  0  0  0  0  0  0  0  0  0  0
   -1.7099    1.3589    0.0000 S   0  0  0  0  0  0  0  0  0  0  0  0
   -3.3947   -2.0954    0.0000 F   0  0  0  0  0  0  0  0  0  0  0  0
   -1.0425    2.6689    0.0000 C   0  0  0  0  0  0  0  0  0  0  0  0
   -1.7570    3.0814    0.0000 O   0  0  0  0  0  0  0  0  0  0  0  0
   -0.3280    3.0814    0.0000 O   0  0  0  0  0  0  0  0  0  0  0  0
    0.4096    1.6139    0.0000 N   0  0  0  0  0  0  0  0  0  0  0  0
    1.0227    1.0619    0.0000 S   0  0  0  0  0  0  0  0  0  0  0  0
    1.4642   -0.2972    0.0000 C   0  0  0  0  0  0  0  0  0  0  0  0
    1.6358    0.5098    0.0000 C   0  0  0  0  0  0  0  0  0  0  0  0
    2.4204    0.7648    0.0000 C   0  0  0  0  0  0  0  0  0  0  0  0
    3.0335    0.2127    0.0000 C   0  0  0  0  0  0  0  0  0  0  0  0
    2.8619   -0.5942    0.0000 C   0  0  0  0  0  0  0  0  0  0  0  0
    2.0773   -0.8492    0.0000 C   0  0  0  0  0  0  0  0  0  0  0  0
    3.4750   -1.1463    0.0000 C   0  0  0  0  0  0  0  0  0  0  0  0
    0.4706    0.4488    0.0000 O   0  0  0  0  0  0  0  0  0  0  0  0
    1.5747    1.6749    0.0000 O   0  0  0  0  0  0  0  0  0  0  0  0
  1  2  2  0
  1  6  1  0
  2  3  1  0
  2 12  1  0
  3  4  2  0
  4  5  1  0
  5  6  2  0
  5 10  1  0
  7  8  2  0
  7 11  1  0
  7 13  1  0
  8  9  1  0
  8 16  1  0
  9 10  2  0
 10 11  1  0
 13 14  1  0
 13 15  2  0
 16 17  1  0
 17 19  1  0
 17 25  2  0
 17 26  2  0
 18 19  2  0
 18 23  1  0
 19 20  1  0
 20 21  2  0
 21 22  1  0
 22 23  2  0
 22 24  1  0
M  END
>  <DRUGBANK_ID>  (1) 
DB07770

>  <COMMON_NAME>  (1) 
5-(4-FLUOROPHENYL)-3-{[(4-METHYLPHENYL)SULFONYL]AMINO}THIOPHENE-2-CARBOXYLIC ACID

$$$$
