RC8
     RDKit          2D

 32 35  0  0  0  0  0  0  0  0999 V2000
    1.2566    1.4204    0.0000 C   0  0  0  0  0  0  0  0  0  0  0  0
   -0.1723    1.4204    0.0000 C   0  0  0  0  0  0  0  0  0  0  0  0
   -0.1723    0.5954    0.0000 C   0  0  0  0  0  0  0  0  0  0  0  0
    0.5422    0.1829    0.0000 C   0  0  0  0  0  0  0  0  0  0  0  0
   -1.4418    1.0079    0.0000 C   0  0  0  0  0  0  0  0  0  0  0  0
   -1.2119    2.4600    0.0000 C   0  0  0  0  0  0  0  0  0  0  0  0
   -0.6598    3.0730    0.0000 C   0  0  0  0  0  0  0  0  0  0  0  0
    1.9711    2.6579    0.0000 C   0  0  0  0  0  0  0  0  0  0  0  0
    2.6856    3.8954    0.0000 C   0  0  0  0  0  0  0  0  0  0  0  0
    1.2566    3.8954    0.0000 O   0  0  0  0  0  0  0  0  0  0  0  0
    1.2566    3.0704    0.0000 C   0  0  0  0  0  0  0  0  0  0  0  0
    2.6856    3.0704    0.0000 C   0  0  0  0  0  0  0  0  0  0  0  0
    1.9711    1.8329    0.0000 N   0  0  0  0  0  0  0  0  0  0  0  0
    1.2566    0.5954    0.0000 N   0  0  0  0  0  0  0  0  0  0  0  0
   -0.9569    1.6753    0.0000 N   0  0  0  0  0  0  0  0  0  0  0  0
   -2.0188    2.6315    0.0000 C   0  0  0  0  0  0  0  0  0  0  0  0
   -0.9569    0.3405    0.0000 N   0  0  0  0  0  0  0  0  0  0  0  0
    0.5422    1.8329    0.0000 N   0  0  0  0  0  0  0  0  0  0  0  0
    0.5422   -0.6421    0.0000 N   0  0  0  0  0  0  0  0  0  0  0  0
   -0.1723   -1.0546    0.0000 C   0  0  0  0  0  0  0  0  0  0  0  0
   -0.1723   -1.8796    0.0000 C   0  0  0  0  0  0  0  0  0  0  0  0
   -0.8868   -2.2921    0.0000 C   0  0  0  0  0  0  0  0  0  0  0  0
   -0.8868   -3.1171    0.0000 C   0  0  0  0  0  0  0  0  0  0  0  0
   -0.1723   -3.5296    0.0000 C   0  0  0  0  0  0  0  0  0  0  0  0
    0.5422   -3.1171    0.0000 C   0  0  0  0  0  0  0  0  0  0  0  0
    0.5422   -2.2921    0.0000 C   0  0  0  0  0  0  0  0  0  0  0  0
   -0.1723   -4.3546    0.0000 C   0  0  0  0  0  0  0  0  0  0  0  0
    0.5422   -4.7671    0.0000 N   0  0  0  0  0  0  0  0  0  0  0  0
    0.5422   -5.5921    0.0000 C   0  0  0  0  0  0  0  0  0  0  0  0
   -0.1723   -6.0046    0.0000 C   0  0  0  0  0  0  0  0  0  0  0  0
   -0.8868   -5.5921    0.0000 C   0  0  0  0  0  0  0  0  0  0  0  0
   -0.8868   -4.7671    0.0000 C   0  0  0  0  0  0  0  0  0  0  0  0
  1 14  2  0
  2  3  1  0
  3  4  2  0
  3 17  1  0
  4 19  1  0
  5 17  2  0
  6 15  1  0
  6 16  1  0
  7  6  1  0
  8 11  1  1
  8 13  1  0
  9 12  1  0
 11 10  1  0
 12  8  1  0
 13  1  1  0
 14  4  1  0
 15  2  1  0
 15  5  1  0
 18  1  1  0
 18  2  2  0
 20 19  1  0
 20 21  1  0
 21 26  1  0
 22 21  2  0
 22 23  1  0
 23 24  2  0
 24 25  1  0
 24 27  1  0
 26 25  2  0
 27 28  2  0
 28 29  1  0
 30 29  2  0
 31 30  1  0
 32 27  1  0
 32 31  2  0
M  END
>  <DRUGBANK_ID>  (1) 
DB08463

>  <COMMON_NAME>  (1) 
(2R)-2-({9-(1-methylethyl)-6-[(4-pyridin-2-ylbenzyl)amino]-9H-purin-2-yl}amino)butan-1-ol

$$$$
