XXZ
     RDKit          2D

 27 30  0  0  0  0  0  0  0  0999 V2000
    3.4378   -1.0794    0.0000 F   0  0  0  0  0  0  0  0  0  0  0  0
    3.2089   -0.2868    0.0000 C   0  0  0  0  0  0  0  0  0  0  0  0
    3.7810    0.3077    0.0000 C   0  0  0  0  0  0  0  0  0  0  0  0
    3.5522    1.1004    0.0000 C   0  0  0  0  0  0  0  0  0  0  0  0
    2.7513    1.2985    0.0000 C   0  0  0  0  0  0  0  0  0  0  0  0
    2.1793    0.7040    0.0000 C   0  0  0  0  0  0  0  0  0  0  0  0
    2.4081   -0.0886    0.0000 C   0  0  0  0  0  0  0  0  0  0  0  0
    1.8361   -0.6831    0.0000 C   0  0  0  0  0  0  0  0  0  0  0  0
    1.0352   -0.4849    0.0000 N   0  0  0  0  0  0  0  0  0  0  0  0
    2.0649   -1.4757    0.0000 N   0  0  0  0  0  0  0  0  0  0  0  0
    1.3784    0.9022    0.0000 N   0  0  0  0  0  0  0  0  0  0  0  0
    0.8064    0.3077    0.0000 C   0  0  0  0  0  0  0  0  0  0  0  0
    0.2344   -0.2868    0.0000 C   0  0  0  0  0  0  0  0  0  0  0  0
   -0.5665   -0.0886    0.0000 C   0  0  0  0  0  0  0  0  0  0  0  0
   -0.7953    0.7040    0.0000 N   0  0  0  0  0  0  0  0  0  0  0  0
   -0.2233    1.2985    0.0000 C   0  0  0  0  0  0  0  0  0  0  0  0
    0.5776    1.1004    0.0000 C   0  0  0  0  0  0  0  0  0  0  0  0
   -1.5961    0.9022    0.0000 C   0  0  0  0  0  0  0  0  0  0  0  0
   -1.8250    1.6948    0.0000 O   0  0  0  0  0  0  0  0  0  0  0  0
   -1.9394   -0.4849    0.0000 C   0  0  0  0  0  0  0  0  0  0  0  0
   -3.6555   -2.2683    0.0000 N   0  0  0  0  0  0  0  0  0  0  0  0
   -3.8843   -1.4757    0.0000 C   0  0  0  0  0  0  0  0  0  0  0  0
   -3.3122   -0.8812    0.0000 C   0  0  0  0  0  0  0  0  0  0  0  0
   -3.5411   -0.0886    0.0000 C   0  0  0  0  0  0  0  0  0  0  0  0
   -2.9690    0.5059    0.0000 C   0  0  0  0  0  0  0  0  0  0  0  0
   -2.5114   -1.0794    0.0000 C   0  0  0  0  0  0  0  0  0  0  0  0
   -2.1682    0.3077    0.0000 C   0  0  0  0  0  0  0  0  0  0  0  0
  1  2  1  0
  2  3  2  0
  2  7  1  0
  3  4  1  0
  4  5  2  0
  5  6  1  0
  6  7  2  0
  6 11  1  0
  7  8  1  0
  8  9  2  0
  8 10  1  0
  9 12  1  0
 11 12  1  0
 12 13  1  0
 12 17  1  0
 13 14  1  0
 14 15  1  0
 15 16  1  0
 15 18  1  0
 16 17  1  0
 18 19  2  0
 18 27  1  0
 20 26  2  0
 20 27  1  0
 21 22  1  0
 22 23  1  0
 23 24  2  0
 23 26  1  0
 24 25  1  0
 25 27  2  0
M  END
>  <DRUGBANK_ID>  (1) 
DB08750

>  <COMMON_NAME>  (1) 
1-[4-(AMINOMETHYL)BENZOYL]-5'-FLUORO-1'H-SPIRO[PIPERIDINE-4,2'-QUINAZOLIN]-4'-AMINE

$$$$
