
     RDKit          2D

 27 26  0  0  1  0  0  0  0  0999 V2000
    7.2336   -5.0013    0.0000 C   0  0  0  0  0  0  0  0  0  0  0  0
    7.9480   -4.5888    0.0000 C   0  0  0  0  0  0  0  0  0  0  0  0
    7.9480   -3.7638    0.0000 O   0  0  0  0  0  0  0  0  0  0  0  0
    8.6625   -5.0013    0.0000 O   0  0  0  0  0  0  0  0  0  0  0  0
    9.3770   -4.5888    0.0000 C   0  0  0  0  0  0  0  0  0  0  0  0
   10.0914   -5.0013    0.0000 C   0  0  0  0  0  0  0  0  0  0  0  0
   10.8059   -4.5888    0.0000 N   0  0  0  0  0  0  0  0  0  0  0  0
   11.5204   -5.0013    0.0000 C   0  0  0  0  0  0  0  0  0  0  0  0
   11.5204   -5.8263    0.0000 O   0  0  0  0  0  0  0  0  0  0  0  0
   12.2349   -4.5888    0.0000 C   0  0  0  0  0  0  0  0  0  0  0  0
   12.9493   -5.0013    0.0000 C   0  0  0  0  0  0  0  0  0  0  0  0
   13.6638   -4.5888    0.0000 N   0  0  0  0  0  0  0  0  0  0  0  0
   14.3783   -5.0013    0.0000 C   0  0  0  0  0  0  0  0  0  0  0  0
   14.3783   -5.8263    0.0000 O   0  0  0  0  0  0  0  0  0  0  0  0
   15.0927   -4.5888    0.0000 C   0  0  0  0  0  0  0  0  0  0  0  0
   15.0927   -3.7638    0.0000 O   0  0  0  0  0  0  0  0  0  0  0  0
   15.8072   -5.0013    0.0000 C   0  0  0  0  0  0  0  0  0  0  0  0
   15.3947   -5.7158    0.0000 C   0  0  0  0  0  0  0  0  0  0  0  0
   16.2197   -4.2868    0.0000 C   0  0  0  0  0  0  0  0  0  0  0  0
   16.5217   -5.4138    0.0000 C   0  0  0  0  0  0  0  0  0  0  0  0
   17.2362   -5.0013    0.0000 O   0  0  0  0  0  0  0  0  0  0  0  0
   17.9506   -5.4138    0.0000 C   0  0  0  0  0  0  0  0  0  0  0  0
   17.9506   -6.2388    0.0000 O   0  0  0  0  0  0  0  0  0  0  0  0
   18.6651   -5.0013    0.0000 C   0  0  0  0  0  0  0  0  0  0  0  0
   19.3796   -4.5888    0.0000 C   0  0  0  0  0  0  0  0  0  0  0  0
   19.0776   -5.7158    0.0000 C   0  0  0  0  0  0  0  0  0  0  0  0
   18.2526   -4.2868    0.0000 C   0  0  0  0  0  0  0  0  0  0  0  0
  1  2  1  0
  2  3  2  0
  2  4  1  0
  4  5  1  0
  5  6  1  0
  6  7  1  0
  7  8  1  0
  8  9  2  0
  8 10  1  0
 10 11  1  0
 11 12  1  0
 12 13  1  0
 13 14  2  0
 13 15  1  0
 15 16  1  6
 15 17  1  0
 17 18  1  0
 17 19  1  0
 17 20  1  0
 20 21  1  0
 21 22  1  0
 22 23  2  0
 22 24  1  0
 24 25  1  0
 24 26  1  0
 24 27  1  0
M  END
>  <DRUGBANK_ID>  (1) 
DB03045

>  <SECONDARY_ACCESSION_NUMBERS>  (1) 
EXPT00046

>  <COMMON_NAME>  (1) 
Pantothenyl-Aminoethanol-Acetate Pivalic Acid

$$$$
