
     RDKit          2D

  9  8  0  0  1  0  0  0  0  0999 V2000
    1.9520    0.1187    0.0000 N   0  0  0  0  0  0  0  0  0  0  0  0
    1.9520    0.9437    0.0000 C   0  0  0  0  0  0  0  0  0  0  0  0
    1.2375    1.3562    0.0000 C   0  0  0  0  0  0  0  0  0  0  0  0
    0.5230    0.9437    0.0000 C   0  0  0  0  0  0  0  0  0  0  0  0
   -0.1914    1.3562    0.0000 N   0  0  0  0  0  0  0  0  0  0  0  0
    0.5230    0.1187    0.0000 O   0  0  0  0  0  0  0  0  0  0  0  0
    2.6664    1.3562    0.0000 C   0  0  0  0  0  0  0  0  0  0  0  0
    3.3809    0.9437    0.0000 O   0  0  0  0  0  0  0  0  0  0  0  0
    2.6664    2.1812    0.0000 O   0  0  0  0  0  0  0  0  0  0  0  0
  2  1  1  6
  2  3  1  0
  2  7  1  0
  3  4  1  0
  4  5  1  0
  4  6  2  0
  7  8  1  0
  7  9  2  0
M  END
>  <DRUGBANK_ID>  (1) 
DB03943

>  <SECONDARY_ACCESSION_NUMBERS>  (1) 
EXPT01274

>  <COMMON_NAME>  (1) 
D-Asparagine

>  <CAS_NUMBER>  (1) 
2058-58-4

>  <UNII>  (1) 
T6QV1010K6

$$$$
