
     RDKit          2D

 14 13  0  0  0  0  0  0  0  0999 V2000
    2.8600    0.2058    0.0000 C   0  0  0  0  0  0  0  0  0  0  0  0
    2.1448   -0.2058    0.0000 C   0  0  0  0  0  0  0  0  0  0  0  0
    2.1448   -1.0299    0.0000 N   0  0  0  0  0  0  0  0  0  0  0  0
    1.4299    0.2058    0.0000 C   0  0  0  0  0  0  0  0  0  0  0  0
    0.7149   -0.2058    0.0000 C   0  0  0  0  0  0  0  0  0  0  0  0
    0.0000    0.2058    0.0000 S   0  0  0  0  0  0  0  0  0  0  0  0
   -0.7149   -0.2058    0.0000 C   0  0  0  0  0  0  0  0  0  0  0  0
   -1.4299    0.2058    0.0000 C   0  0  0  0  0  0  0  0  0  0  0  0
   -2.1450   -0.2058    0.0000 N   0  0  0  0  0  0  0  0  0  0  0  0
   -2.8554    0.2058    0.0000 C   0  0  0  0  0  0  0  0  0  0  0  0
   -3.5703   -0.2058    0.0000 C   0  0  0  0  0  0  0  0  0  0  0  0
   -2.8554    1.0299    0.0000 N   0  0  0  0  0  0  0  0  0  0  0  0
    2.8600    1.0299    0.0000 O   0  0  0  0  0  0  0  0  0  0  0  0
    3.5703   -0.2058    0.0000 O   0  0  0  0  0  0  0  0  0  0  0  0
  1  2  1  0
  1 13  2  0
  1 14  1  0
  2  3  1  1
  2  4  1  0
  4  5  1  0
  5  6  1  0
  6  7  1  0
  7  8  1  0
  8  9  1  0
  9 10  1  0
 10 11  1  0
 10 12  2  0
M  END
>  <DRUGBANK_ID>  (1) 
DB12237

>  <COMMON_NAME>  (1) 
GW-274150

>  <CAS_NUMBER>  (1) 
210354-22-6

>  <UNII>  (1) 
0ZZF1V8G63

$$$$
