
     RDKit          2D

 30 32  0  0  0  0  0  0  0  0999 V2000
   -3.2151    0.6682    0.0000 Cl  0  0  0  0  0  0  0  0  0  0  0  0
   -6.0731   -0.9817    0.0000 Cl  0  0  0  0  0  0  0  0  0  0  0  0
    2.5007    0.6682    0.0000 O   0  0  0  0  0  0  0  0  0  0  0  0
    3.9297    1.4932    0.0000 O   0  0  0  0  0  0  0  0  0  0  0  0
    5.3586    0.6682    0.0000 N   0  0  0  0  0  0  0  0  0  0  0  0
   -0.3572   -0.9817    0.0000 N   0  0  0  0  0  0  0  0  0  0  0  0
   -3.2151   -0.9817    0.0000 N   0  0  0  0  0  0  0  0  0  0  0  0
   -1.7861   -0.9817    0.0000 N   0  0  0  0  0  0  0  0  0  0  0  0
   -1.0716    0.2557    0.0000 N   0  0  0  0  0  0  0  0  0  0  0  0
    3.9297    0.6682    0.0000 C   0  0  0  0  0  0  0  0  0  0  0  0
    4.6441    0.2557    0.0000 C   0  0  0  0  0  0  0  0  0  0  0  0
    3.2151    0.2557    0.0000 C   0  0  0  0  0  0  0  0  0  0  0  0
    6.0731    0.2557    0.0000 C   0  0  0  0  0  0  0  0  0  0  0  0
    5.3586    1.4932    0.0000 C   0  0  0  0  0  0  0  0  0  0  0  0
    1.7862    0.2557    0.0000 C   0  0  0  0  0  0  0  0  0  0  0  0
    1.0717    0.6682    0.0000 C   0  0  0  0  0  0  0  0  0  0  0  0
    1.7862   -0.5692    0.0000 C   0  0  0  0  0  0  0  0  0  0  0  0
    0.3572   -0.5692    0.0000 C   0  0  0  0  0  0  0  0  0  0  0  0
    0.3572    0.2557    0.0000 C   0  0  0  0  0  0  0  0  0  0  0  0
    1.0717   -0.9817    0.0000 C   0  0  0  0  0  0  0  0  0  0  0  0
   -1.0716   -0.5692    0.0000 C   0  0  0  0  0  0  0  0  0  0  0  0
   -2.5007   -0.5692    0.0000 C   0  0  0  0  0  0  0  0  0  0  0  0
   -3.9296   -0.5692    0.0000 C   0  0  0  0  0  0  0  0  0  0  0  0
   -2.5007    0.2557    0.0000 C   0  0  0  0  0  0  0  0  0  0  0  0
   -3.9296    0.2557    0.0000 C   0  0  0  0  0  0  0  0  0  0  0  0
   -4.6441   -0.9817    0.0000 C   0  0  0  0  0  0  0  0  0  0  0  0
   -1.7861    0.6682    0.0000 C   0  0  0  0  0  0  0  0  0  0  0  0
   -5.3586   -0.5692    0.0000 C   0  0  0  0  0  0  0  0  0  0  0  0
   -4.6441    0.6682    0.0000 C   0  0  0  0  0  0  0  0  0  0  0  0
   -5.3586    0.2557    0.0000 C   0  0  0  0  0  0  0  0  0  0  0  0
  1 25  1  0
  2 28  1  0
  3 12  1  0
  3 15  1  0
  5 11  1  0
  5 13  1  0
  5 14  1  0
  6 18  1  0
  6 21  1  0
  7 22  1  0
  7 23  1  0
  8 21  2  0
  8 22  1  0
  9 21  1  0
  9 27  2  0
 10  4  1  6
 10 11  1  0
 10 12  1  0
 15 16  2  0
 15 17  1  0
 16 19  1  0
 17 20  2  0
 18 19  2  0
 18 20  1  0
 22 24  2  0
 23 25  2  0
 23 26  1  0
 24 27  1  0
 25 29  1  0
 26 28  2  0
 28 30  1  0
 29 30  2  0
M  END
>  <DRUGBANK_ID>  (1) 
DB07750

>  <COMMON_NAME>  (1) 
(2R)-1-[4-({4-[(2,5-Dichlorophenyl)amino]-2-pyrimidinyl}amino)phenoxy]-3-(dimethylamino)-2-propanol

$$$$
