
     RDKit          2D

 37 42  0  0  1  0  0  0  0  0999 V2000
    2.2416    5.4715    0.0000 C   0  0  0  0  0  0  0  0  0  0  0  0
    1.5271    5.8840    0.0000 C   0  0  0  0  0  0  0  0  0  0  0  0
    2.2416    4.6465    0.0000 C   0  0  0  0  0  0  0  0  0  0  0  0
   -5.8090    1.3093    0.0000 C   0  0  0  0  0  0  0  0  0  0  0  0
   -5.1959    0.7573    0.0000 C   0  0  0  0  0  0  0  0  0  0  0  0
    0.8126    5.4715    0.0000 C   0  0  0  0  0  0  0  0  0  0  0  0
    1.5271    4.2340    0.0000 C   0  0  0  0  0  0  0  0  0  0  0  0
   -5.6374    2.1163    0.0000 C   0  0  0  0  0  0  0  0  0  0  0  0
   -4.4112    1.0122    0.0000 C   0  0  0  0  0  0  0  0  0  0  0  0
   -3.8967    3.4332    0.0000 C   0  0  0  0  0  0  0  0  0  0  0  0
   -4.6813    3.1782    0.0000 C   0  0  0  0  0  0  0  0  0  0  0  0
    1.5271    0.9340    0.0000 C   0  0  0  0  0  0  0  0  0  0  0  0
    2.2416    2.1715    0.0000 C   0  0  0  0  0  0  0  0  0  0  0  0
    2.2416    0.5215    0.0000 C   0  0  0  0  0  0  0  0  0  0  0  0
    2.9561    1.7590    0.0000 C   0  0  0  0  0  0  0  0  0  0  0  0
   -3.4551    2.0742    0.0000 C   0  0  0  0  0  0  0  0  0  0  0  0
    0.0982    4.2340    0.0000 C   0  0  0  0  0  0  0  0  0  0  0  0
   -2.4989    3.1361    0.0000 C   0  0  0  0  0  0  0  0  0  0  0  0
    0.0982    1.7590    0.0000 C   0  0  0  0  0  0  0  0  0  0  0  0
    0.8126    4.6465    0.0000 C   0  0  0  0  0  0  0  0  0  0  0  0
   -3.2836    2.8811    0.0000 C   0  0  0  0  0  0  0  0  0  0  0  0
   -4.8528    2.3712    0.0000 C   0  0  0  0  0  0  0  0  0  0  0  0
    1.5271    1.7590    0.0000 C   0  0  0  0  0  0  0  0  0  0  0  0
   -4.2397    1.8192    0.0000 C   0  0  0  0  0  0  0  0  0  0  0  0
    2.9561    0.9340    0.0000 C   0  0  0  0  0  0  0  0  0  0  0  0
    0.0982    3.4090    0.0000 C   0  0  0  0  0  0  0  0  0  0  0  0
    0.8126    2.1715    0.0000 C   0  0  0  0  0  0  0  0  0  0  0  0
   -0.6163    2.9965    0.0000 C   0  0  0  0  0  0  0  0  0  0  0  0
   -1.4009    1.9166    0.0000 C   0  0  0  0  0  0  0  0  0  0  0  0
   -1.8858    2.5840    0.0000 C   0  0  0  0  0  0  0  0  0  0  0  0
    0.8126    2.9965    0.0000 N   0  0  0  0  0  0  0  0  0  0  0  0
   -1.4009    3.2515    0.0000 N   0  0  0  0  0  0  0  0  0  0  0  0
   -0.6163    2.1715    0.0000 N   0  0  0  0  0  0  0  0  0  0  0  0
    3.6705    0.5215    0.0000 O   0  0  0  0  0  0  0  0  0  0  0  0
   -1.6559    1.1320    0.0000 O   0  0  0  0  0  0  0  0  0  0  0  0
   -2.3274    1.2250    0.0000 O   0  0  0  0  0  0  0  0  0  0  0  0
   -2.4989    2.0320    0.0000 O   0  0  0  0  0  0  0  0  0  0  0  0
  2  1  2  0
  3  1  1  0
  5  4  2  0
  6  2  1  0
  7  3  2  0
  8  4  1  0
  9  5  1  0
 11 10  2  0
 14 12  2  0
 15 13  1  0
 20  6  2  0
 20  7  1  0
 20 17  1  0
 21 10  1  0
 21 16  2  0
 21 18  1  0
 22  8  2  0
 22 11  1  0
 23 12  1  0
 23 13  2  0
 24  9  2  0
 24 16  1  0
 24 22  1  0
 25 14  1  0
 25 15  2  0
 26 17  1  6
 27 19  2  0
 27 23  1  0
 28 26  1  0
 30 18  1  1
 30 29  1  0
 30 37  1  0
 31 26  1  0
 31 27  1  0
 32 28  2  0
 32 30  1  0
 33 19  1  0
 33 28  1  0
 33 29  1  0
 34 25  1  0
 35 29  2  0
 37 36  1  0
M  END
>  <DRUGBANK_ID>  (1) 
DB04118

>  <SECONDARY_ACCESSION_NUMBERS>  (1) 
EXPT01087

>  <COMMON_NAME>  (1) 
N-Coeleneterazine

$$$$
