
     RDKit          2D

 12 12  0  0  1  0  0  0  0  0999 V2000
   -0.7145   -0.4125    0.0000 C   0  0  0  0  0  0  0  0  0  0  0  0
    0.0000   -0.8250    0.0000 C   0  0  0  0  0  0  0  0  0  0  0  0
    0.7145   -0.4125    0.0000 C   0  0  0  0  0  0  0  0  0  0  0  0
   -0.7145    0.4125    0.0000 C   0  0  0  0  0  0  0  0  0  0  0  0
    0.7145    0.4125    0.0000 C   0  0  0  0  0  0  0  0  0  0  0  0
    0.0000    0.8250    0.0000 C   0  0  0  0  0  0  0  0  0  0  0  0
    1.4289   -0.8250    0.0000 Cl  0  0  0  0  0  0  0  0  0  0  0  0
    0.0000    1.6500    0.0000 Cl  0  0  0  0  0  0  0  0  0  0  0  0
   -1.4289   -0.8250    0.0000 Cl  0  0  0  0  0  0  0  0  0  0  0  0
    0.0000   -1.6500    0.0000 Cl  0  0  0  0  0  0  0  0  0  0  0  0
   -1.4289    0.8250    0.0000 Cl  0  0  0  0  0  0  0  0  0  0  0  0
    1.4289    0.8250    0.0000 Cl  0  0  0  0  0  0  0  0  0  0  0  0
  1  9  1  1
  2  1  1  0
  2 10  1  6
  3  2  1  0
  3  7  1  1
  4  1  1  0
  4 11  1  1
  5  3  1  0
  5  6  1  0
  5 12  1  1
  6  4  1  0
  6  8  1  6
M  END
>  <DRUGBANK_ID>  (1) 
DB00431

>  <SECONDARY_ACCESSION_NUMBERS>  (1) 
APRD01072

>  <COMMON_NAME>  (1) 
Lindane

>  <CAS_NUMBER>  (1) 
58-89-9

>  <UNII>  (1) 
59NEE7PCAB

>  <SYNONYMS>  (1) 
(1r,2c,3t,4c,5c,6t)-1,2,3,4,5,6-hexachlorocyclohexane; (1α,2α,3β,4α,5α,6β)-1,2,3,4,5,6-hexachlorocyclohexane; 1,2,3,4,5,6-hexachlorocyclohexane; Benzene hexachloride; gamma-1,2,3,4,5,6-hexachlorocyclohexane; gamma-benzene hexachloride; gamma-BHC; gamma-HCH; gamma-Hexachlorocyclohexane; gamma-Lindane; Gammallin; Gammaxene; Lindan; Lindane; Lindano; Lindanum; γ-hexachlorocyclohexane; γ-Hexachlorzyklohexan; γ-lindane

$$$$
