TYC
     RDKit          2D

 13 13  0  0  0  0  0  0  0  0999 V2000
   -0.1255    1.2145    0.0000 N   0  0  0  0  0  0  0  0  0  0  0  0
    0.5890    0.8020    0.0000 C   0  0  0  0  0  0  0  0  0  0  0  0
    1.3035    1.2145    0.0000 C   0  0  0  0  0  0  0  0  0  0  0  0
    1.3035    2.0395    0.0000 O   0  0  0  0  0  0  0  0  0  0  0  0
    0.5890   -0.0230    0.0000 C   0  0  0  0  0  0  0  0  0  0  0  0
   -0.1255   -0.4355    0.0000 C   0  0  0  0  0  0  0  0  0  0  0  0
   -0.1255   -1.2605    0.0000 C   0  0  0  0  0  0  0  0  0  0  0  0
   -0.8400   -0.0230    0.0000 C   0  0  0  0  0  0  0  0  0  0  0  0
   -0.8400   -1.6730    0.0000 C   0  0  0  0  0  0  0  0  0  0  0  0
   -1.5544   -0.4355    0.0000 C   0  0  0  0  0  0  0  0  0  0  0  0
   -2.2689   -1.6730    0.0000 O   0  0  0  0  0  0  0  0  0  0  0  0
   -1.5544   -1.2605    0.0000 C   0  0  0  0  0  0  0  0  0  0  0  0
    2.0179    0.8020    0.0000 N   0  0  0  0  0  0  0  0  0  0  0  0
  2  1  1  6
  2  3  1  0
  2  5  1  0
  3  4  2  0
  3 13  1  0
  5  6  1  0
  6  7  2  0
  6  8  1  0
  7  9  1  0
  8 10  2  0
  9 12  2  0
 10 12  1  0
 11 12  1  0
M  END
>  <DRUGBANK_ID>  (1) 
DB03380

>  <SECONDARY_ACCESSION_NUMBERS>  (1) 
EXPT03135

>  <COMMON_NAME>  (1) 
L-tyrosinamide

>  <CAS_NUMBER>  (1) 
4985-46-0

>  <UNII>  (1) 
05LU01CS4T

>  <SYNONYMS>  (1) 
(2S)-2-amino-3-(4-hydroxyphenyl)propanamide; L-Tyrosine amide; Tyrosinamide; Tyrosine amide

$$$$
