
     RDKit          2D

 16 17  0  0  0  0  0  0  0  0999 V2000
   -2.0637    0.6187    0.0000 C   0  0  0  0  0  0  0  0  0  0  0  0
   -1.3492    1.0312    0.0000 C   0  0  0  0  0  0  0  0  0  0  0  0
    0.0796    1.0312    0.0000 C   0  0  0  0  0  0  0  0  0  0  0  0
   -2.7782    1.0312    0.0000 O   0  0  0  0  0  0  0  0  0  0  0  0
   -1.3492    1.8562    0.0000 C   0  0  0  0  0  0  0  0  0  0  0  0
    0.7942    0.6187    0.0000 N   0  0  0  0  0  0  0  0  0  0  0  0
    1.5087   -1.4437    0.0000 C   0  0  0  0  0  0  0  0  0  0  0  0
    1.5087   -0.6187    0.0000 C   0  0  0  0  0  0  0  0  0  0  0  0
    2.2933   -0.3638    0.0000 N   0  0  0  0  0  0  0  0  0  0  0  0
    2.2933   -1.6987    0.0000 N   0  0  0  0  0  0  0  0  0  0  0  0
    2.7782   -1.0312    0.0000 C   0  0  0  0  0  0  0  0  0  0  0  0
    0.7942   -1.8562    0.0000 N   0  0  0  0  0  0  0  0  0  0  0  0
    0.0796   -1.4437    0.0000 C   0  0  0  0  0  0  0  0  0  0  0  0
    0.7942   -0.2062    0.0000 C   0  0  0  0  0  0  0  0  0  0  0  0
   -0.6347    0.6187    0.0000 C   0  0  0  0  0  0  0  0  0  0  0  0
    0.0796   -0.6187    0.0000 N   0  0  0  0  0  0  0  0  0  0  0  0
  2  1  1  0
  3 15  1  0
  4  1  1  0
  5  2  1  0
  6  3  1  0
  8  7  2  0
  9  8  1  0
 10  7  1  0
 11  9  2  0
 11 10  1  0
 12  7  1  0
 13 12  2  0
 13 16  1  0
 14  6  1  0
 14  8  1  0
 14 16  2  0
 15  2  2  0
M  END
>  <DRUGBANK_ID>  (1) 
DB11337

>  <COMMON_NAME>  (1) 
Zeatin

>  <CAS_NUMBER>  (1) 
1637-39-4

>  <UNII>  (1) 
7I6OOJ9GR6

>  <SYNONYMS>  (1) 
(E)-2-methyl-4-(1H-purin-6-ylamino)-2-buten-1-ol; (E)-2-methyl-4-(1H-purin-6-ylamino)but-2-en-1-ol; (E)-2-methyl-4-(purin-6-ylamino)-2-buten-1-ol; (E)-zeatin; N6-(4-Hydroxyisopentenyl)adenine; trans-Zeatin

$$$$
