32A
     RDKit          2D

 19 19  0  0  0  0  0  0  0  0999 V2000
    1.5932    0.0117    0.0000 C   0  0  0  0  0  0  0  0  0  0  0  0
    2.3077    0.4242    0.0000 C   0  0  0  0  0  0  0  0  0  0  0  0
    4.4511    0.0117    0.0000 C   0  0  0  0  0  0  0  0  0  0  0  0
    0.2875   -0.2659    0.0000 C   0  0  0  0  0  0  0  0  0  0  0  0
    1.5070   -0.8088    0.0000 C   0  0  0  0  0  0  0  0  0  0  0  0
   -0.5329   -0.1796    0.0000 C   0  0  0  0  0  0  0  0  0  0  0  0
   -1.3534   -0.0934    0.0000 C   0  0  0  0  0  0  0  0  0  0  0  0
    3.0222    0.0117    0.0000 N   0  0  0  0  0  0  0  0  0  0  0  0
    3.7367    0.4242    0.0000 N   0  0  0  0  0  0  0  0  0  0  0  0
    5.1656    0.4242    0.0000 N   0  0  0  0  0  0  0  0  0  0  0  0
   -2.1739   -0.0072    0.0000 C   0  0  0  0  0  0  0  0  0  0  0  0
    0.7000   -0.9803    0.0000 C   0  0  0  0  0  0  0  0  0  0  0  0
    2.3077    1.2492    0.0000 O   0  0  0  0  0  0  0  0  0  0  0  0
    5.8801    0.0117    0.0000 C   0  0  0  0  0  0  0  0  0  0  0  0
    4.4511   -0.8133    0.0000 S   0  0  0  0  0  0  0  0  0  0  0  0
    0.8396    0.3472    0.0000 O   0  0  0  0  0  0  0  0  0  0  0  0
   -2.6588   -0.6746    0.0000 C   0  0  0  0  0  0  0  0  0  0  0  0
   -3.4793   -0.5884    0.0000 C   0  0  0  0  0  0  0  0  0  0  0  0
   -3.9642   -1.2558    0.0000 C   0  0  0  0  0  0  0  0  0  0  0  0
  1  2  1  0
  1  5  2  0
  1 16  1  0
  2  8  1  0
  2 13  2  0
  3  9  1  0
  3 10  1  0
  3 15  2  0
  4  6  1  0
  4 12  2  0
  4 16  1  0
  5 12  1  0
  6  7  3  0
  7 11  1  0
  8  9  1  0
 10 14  1  0
 11 17  1  0
 17 18  1  0
 18 19  1  0
M  END
>  <DRUGBANK_ID>  (1) 
DB07004

>  <COMMON_NAME>  (1) 
2-[(5-hex-1-yn-1-ylfuran-2-yl)carbonyl]-N-methylhydrazinecarbothioamide

$$$$
