M29
     RDKit          2D

 17 17  0  0  0  0  0  0  0  0999 V2000
   -0.5369   -1.6183    0.0000 C   0  0  0  0  0  0  0  0  0  0  0  0
    0.1776   -1.2058    0.0000 C   0  0  0  0  0  0  0  0  0  0  0  0
    0.8921   -1.6183    0.0000 C   0  0  0  0  0  0  0  0  0  0  0  0
    0.8921   -2.4433    0.0000 C   0  0  0  0  0  0  0  0  0  0  0  0
    0.1776   -2.8558    0.0000 C   0  0  0  0  0  0  0  0  0  0  0  0
   -0.5369   -2.4433    0.0000 C   0  0  0  0  0  0  0  0  0  0  0  0
   -1.2514   -1.2058    0.0000 S   0  0  0  0  0  0  0  0  0  0  0  0
   -1.9658   -0.7933    0.0000 O   0  0  0  0  0  0  0  0  0  0  0  0
   -1.6639   -1.9203    0.0000 O   0  0  0  0  0  0  0  0  0  0  0  0
   -0.8389   -0.4913    0.0000 N   0  0  0  0  0  0  0  0  0  0  0  0
    1.6065   -2.8558    0.0000 C   0  0  0  0  0  0  0  0  0  0  0  0
    2.3210   -2.4433    0.0000 C   0  0  0  0  0  0  0  0  0  0  0  0
    3.0355   -2.8558    0.0000 C   0  0  0  0  0  0  0  0  0  0  0  0
    3.7499   -2.4433    0.0000 O   0  0  0  0  0  0  0  0  0  0  0  0
    3.0355   -3.6808    0.0000 O   0  0  0  0  0  0  0  0  0  0  0  0
    4.4644   -2.8558    0.0000 C   0  0  0  0  0  0  0  0  0  0  0  0
    5.1789   -2.4433    0.0000 C   0  0  0  0  0  0  0  0  0  0  0  0
  1  7  1  0
  1  2  2  0
  1  6  1  0
  2  3  1  0
  3  4  2  0
  4  5  1  0
  4 11  1  0
  5  6  2  0
  7  8  2  0
  7  9  2  0
  7 10  1  0
 11 12  1  0
 12 13  1  0
 13 14  1  0
 13 15  2  0
 14 16  1  0
 16 17  1  0
M  END
>  <DRUGBANK_ID>  (1) 
DB08157

>  <COMMON_NAME>  (1) 
ETHYL 3-[4-(AMINOSULFONYL)PHENYL]PROPANOATE

$$$$
