
     RDKit          2D

 17 16  0  0  0  0  0  0  0  0999 V2000
   -2.1434    3.7125    0.0000 C   0  0  0  0  0  0  0  0  0  0  0  0
    0.7145   -1.2375    0.0000 C   0  0  0  0  0  0  0  0  0  0  0  0
    1.2375   -0.7145    0.0000 C   0  0  0  0  0  0  0  0  0  0  0  0
   -1.4289    3.3000    0.0000 C   0  0  0  0  0  0  0  0  0  0  0  0
   -1.4289    2.4750    0.0000 C   0  0  0  0  0  0  0  0  0  0  0  0
   -0.7145    2.0625    0.0000 C   0  0  0  0  0  0  0  0  0  0  0  0
    0.0000    0.8250    0.0000 C   0  0  0  0  0  0  0  0  0  0  0  0
    0.7145    1.2375    0.0000 C   0  0  0  0  0  0  0  0  0  0  0  0
    1.4289    1.6500    0.0000 Cl  0  0  0  0  0  0  0  0  0  0  0  0
    1.1270    0.5230    0.0000 Cl  0  0  0  0  0  0  0  0  0  0  0  0
    0.3020    1.9520    0.0000 Cl  0  0  0  0  0  0  0  0  0  0  0  0
   -0.0000    2.4750    0.0000 O   0  0  0  0  0  0  0  0  0  0  0  0
   -0.8250    0.0000    0.0000 O   0  0  0  0  0  0  0  0  0  0  0  0
   -0.0000   -0.8250    0.0000 O   0  0  0  0  0  0  0  0  0  0  0  0
    0.8250    0.0000    0.0000 O   0  0  0  0  0  0  0  0  0  0  0  0
   -0.7145    1.2375    0.0000 O   0  0  0  0  0  0  0  0  0  0  0  0
    0.0000    0.0000    0.0000 P   0  0  0  0  0  0  0  0  0  0  0  0
  4  1  1  0
  5  4  1  0
  6  5  1  0
  8  7  1  0
  9  8  1  0
 10  8  1  0
 11  8  1  0
 12  6  2  0
 14  2  1  0
 15  3  1  0
 16  6  1  0
 16  7  1  0
 17  7  1  0
 17 13  2  0
 17 14  1  0
 17 15  1  0
M  END
>  <DRUGBANK_ID>  (1) 
DB11379

>  <COMMON_NAME>  (1) 
Butonate

>  <CAS_NUMBER>  (1) 
126-22-7

>  <UNII>  (1) 
39M9R3Q494

>  <SYNONYMS>  (1) 
Butonate; Butonato; Butonatum

$$$$
