1114
     RDKit          2D

 19 20  0  0  1  0  0  0  0  0999 V2000
    3.7935   -2.8876    0.0000 Cl  0  0  0  0  0  0  0  0  0  0  0  0
    2.3645    2.0625    0.0000 N   0  0  0  0  0  0  0  0  0  0  0  0
    4.5080    1.6500    0.0000 N   0  0  0  0  0  0  0  0  0  0  0  0
    3.7935    0.4125    0.0000 C   0  0  0  0  0  0  0  0  0  0  0  0
    3.0791    0.8250    0.0000 C   0  0  0  0  0  0  0  0  0  0  0  0
    3.0791    1.6500    0.0000 C   0  0  0  0  0  0  0  0  0  0  0  0
    3.7935   -0.4125    0.0000 C   0  0  0  0  0  0  0  0  0  0  0  0
    4.5080    0.8250    0.0000 C   0  0  0  0  0  0  0  0  0  0  0  0
    4.5080   -0.8250    0.0000 C   0  0  0  0  0  0  0  0  0  0  0  0
    3.0791   -0.8250    0.0000 C   0  0  0  0  0  0  0  0  0  0  0  0
    5.2224    0.4125    0.0000 C   0  0  0  0  0  0  0  0  0  0  0  0
    1.6500    1.6500    0.0000 C   0  0  0  0  0  0  0  0  0  0  0  0
    2.3645    2.8876    0.0000 C   0  0  0  0  0  0  0  0  0  0  0  0
    4.5080   -1.6500    0.0000 C   0  0  0  0  0  0  0  0  0  0  0  0
    3.0791   -1.6500    0.0000 C   0  0  0  0  0  0  0  0  0  0  0  0
    5.9370    0.8250    0.0000 C   0  0  0  0  0  0  0  0  0  0  0  0
    3.7935   -2.0625    0.0000 C   0  0  0  0  0  0  0  0  0  0  0  0
    5.2224    2.0625    0.0000 C   0  0  0  0  0  0  0  0  0  0  0  0
    5.9370    1.6500    0.0000 C   0  0  0  0  0  0  0  0  0  0  0  0
  1 17  1  0
  2  6  1  0
  2 12  1  0
  2 13  1  0
  3  8  2  0
  3 18  1  0
  4  5  1  0
  4  7  1  0
  4  8  1  0
  5  6  1  0
  7  9  2  0
  7 10  1  0
  8 11  1  0
  9 14  1  0
 10 15  2  0
 11 16  2  0
 14 17  2  0
 15 17  1  0
 16 19  1  0
 18 19  2  0
M  END
>  <DRUGBANK_ID>  (1) 
DB01114

>  <SECONDARY_ACCESSION_NUMBERS>  (1) 
APRD00001; DB09440

>  <COMMON_NAME>  (1) 
Chlorpheniramine

>  <CAS_NUMBER>  (1) 
132-22-9

>  <UNII>  (1) 
3U6IO1965U

>  <SYNONYMS>  (1) 
1-(p-chlorophenyl)-1-(2-pyridyl)-3-dimethylaminopropane; 1-(p-chlorophenyl)-1-(2-pyridyl)-3-N,N-dimethylpropylamine; 2-[p-chloro-α-[2-(dimethylamino)ethyl]benzyl]pyridine; 3-(p-chlorophenyl)-3-(2-pyridyl)-N,N-dimethylpropylamine; Chlorophenylpyridamine; Chlorphenamin; Chlorphenamine; Chlorphenaminum; Chlorpheniramine; Chlorpheniramine polistirex; Chlorpheniraminum; Clorfenamina; Clorfeniramina; γ-(4-chlorophenyl)-N,N-dimethyl-2-pyridinepropanamine; γ-(4-chlorophenyl)-γ-(2-pyridyl)propyldimethylamine

$$$$
