RF3
     RDKit          2D

 24 27  0  0  0  0  0  0  0  0999 V2000
   -1.6242    3.0278    0.0000 C   0  0  0  0  0  0  0  0  0  0  0  0
   -2.2917    3.5127    0.0000 C   0  0  0  0  0  0  0  0  0  0  0  0
   -2.9591    3.0278    0.0000 C   0  0  0  0  0  0  0  0  0  0  0  0
   -2.7042    2.2432    0.0000 S   0  0  0  0  0  0  0  0  0  0  0  0
   -1.8792    2.2432    0.0000 C   0  0  0  0  0  0  0  0  0  0  0  0
   -1.3942    1.5757    0.0000 C   0  0  0  0  0  0  0  0  0  0  0  0
   -0.5738    1.6620    0.0000 C   0  0  0  0  0  0  0  0  0  0  0  0
   -0.2382    2.4156    0.0000 O   0  0  0  0  0  0  0  0  0  0  0  0
   -0.0888    0.9945    0.0000 N   0  0  0  0  0  0  0  0  0  0  0  0
    0.7316    1.0808    0.0000 C   0  0  0  0  0  0  0  0  0  0  0  0
    1.2166    0.4133    0.0000 C   0  0  0  0  0  0  0  0  0  0  0  0
   -0.4244    0.2409    0.0000 C   0  0  0  0  0  0  0  0  0  0  0  0
    0.0605   -0.4266    0.0000 C   0  0  0  0  0  0  0  0  0  0  0  0
    0.8810   -0.3403    0.0000 C   0  0  0  0  0  0  0  0  0  0  0  0
    1.3659   -1.0078    0.0000 C   0  0  0  0  0  0  0  0  0  0  0  0
    1.1110   -1.7924    0.0000 N   0  0  0  0  0  0  0  0  0  0  0  0
    2.1909   -1.0078    0.0000 O   0  0  0  0  0  0  0  0  0  0  0  0
    2.4459   -1.7924    0.0000 N   0  0  0  0  0  0  0  0  0  0  0  0
    1.7784   -2.2773    0.0000 C   0  0  0  0  0  0  0  0  0  0  0  0
    1.7784   -3.1023    0.0000 C   0  0  0  0  0  0  0  0  0  0  0  0
    2.4459   -3.5873    0.0000 C   0  0  0  0  0  0  0  0  0  0  0  0
    2.1909   -4.3719    0.0000 C   0  0  0  0  0  0  0  0  0  0  0  0
    1.3659   -4.3719    0.0000 C   0  0  0  0  0  0  0  0  0  0  0  0
    1.1110   -3.5873    0.0000 S   0  0  0  0  0  0  0  0  0  0  0  0
  2  1  1  0
  3  2  2  0
  4  3  1  0
  4  5  1  0
  5  1  2  0
  5  6  1  0
  7  6  1  0
  7  9  1  0
  8  7  2  0
  9 10  1  0
 10 11  1  0
 12  9  1  0
 12 13  1  0
 13 14  1  0
 14 11  1  0
 14 15  1  0
 15 17  1  0
 16 15  2  0
 16 19  1  0
 17 18  1  0
 19 18  2  0
 20 19  1  0
 20 21  2  0
 22 21  1  0
 23 22  2  0
 24 20  1  0
 24 23  1  0
M  END
>  <DRUGBANK_ID>  (1) 
DB08471

>  <COMMON_NAME>  (1) 
1-(thiophen-2-ylacetyl)-4-(3-thiophen-2-yl-1,2,4-oxadiazol-5-yl)piperidine

$$$$
