
     RDKit          2D

 15 12  0  0  0  0  0  0  0  0999 V2000
   -0.4607    2.3646    0.0000 N   0  0  0  0  0  0  0  0  0  0  0  0
    2.0144    2.3646    0.0000 Fe  0  0  0  0  0 15  0  0  0  0  0  0
   -2.0144   -2.3646    0.0000 O   0  0  0  0  0  0  0  0  0  0  0  0
   -1.2999   -1.9520    0.0000 C   0  0  0  0  0  0  0  0  0  0  0  0
   -0.5853   -2.3646    0.0000 O   0  0  0  0  0  0  0  0  0  0  0  0
   -1.2999   -1.1270    0.0000 C   0  0  0  0  0  0  0  0  0  0  0  0
   -0.5853   -0.7145    0.0000 C   0  0  0  0  0  0  0  0  0  0  0  0
   -0.1728   -1.4290    0.0000 O   0  0  0  0  0  0  0  0  0  0  0  0
    0.1291   -0.3019    0.0000 C   0  0  0  0  0  0  0  0  0  0  0  0
    0.8436   -0.7145    0.0000 C   0  0  0  0  0  0  0  0  0  0  0  0
    1.5581   -0.3019    0.0000 O   0  0  0  0  0  0  0  0  0  0  0  0
    0.8436   -1.5395    0.0000 O   0  0  0  0  0  0  0  0  0  0  0  0
   -0.9979    0.0000    0.0000 C   0  0  0  0  0  0  0  0  0  0  0  0
   -0.5853    0.7145    0.0000 O   0  0  0  0  0  0  0  0  0  0  0  0
   -1.8229    0.0000    0.0000 O   0  0  0  0  0  0  0  0  0  0  0  0
  3  4  1  0
  4  5  2  0
  4  6  1  0
  6  7  1  0
  7  8  1  0
  7  9  1  0
  7 13  1  0
  9 10  1  0
 10 11  2  0
 10 12  1  0
 13 14  2  0
 13 15  1  0
M  CHG  1   2   3
M  END
>  <DRUGBANK_ID>  (1) 
DB09501

>  <COMMON_NAME>  (1) 
Ferric ammonium citrate

>  <CAS_NUMBER>  (1) 
1185-57-5

>  <UNII>  (1) 
UVP74NG1C5

>  <SYNONYMS>  (1) 
Ferric ammonium citrate; Ferric ammonium citrate, green

$$$$
