
     RDKit          2D

 10 11  0  0  0  0  0  0  0  0999 V2000
    4.5149    1.0305    0.0000 C   0  0  0  0  0  0  0  0  0  0  0  0
    4.1569    1.7738    0.0000 C   0  0  0  0  0  0  0  0  0  0  0  0
    4.1569    0.2872    0.0000 C   0  0  0  0  0  0  0  0  0  0  0  0
    3.3526    1.9574    0.0000 C   0  0  0  0  0  0  0  0  0  0  0  0
    3.3526    0.1036    0.0000 C   0  0  0  0  0  0  0  0  0  0  0  0
    2.7076    1.4430    0.0000 C   0  0  0  0  0  0  0  0  0  0  0  0
    1.9230    1.6979    0.0000 N   0  0  0  0  0  0  0  0  0  0  0  0
    1.4380    1.0305    0.0000 N   0  0  0  0  0  0  0  0  0  0  0  0
    1.9230    0.3631    0.0000 N   0  0  0  0  0  0  0  0  0  0  0  0
    2.7076    0.6180    0.0000 N   0  0  0  0  0  0  0  0  0  0  0  0
  2  1  1  0
  3  1  1  0
  4  2  1  0
  5  3  1  0
  6  4  1  0
  7  6  2  0
  8  7  1  0
  9  8  2  0
 10  5  1  0
 10  6  1  0
 10  9  1  0
M  END
>  <DRUGBANK_ID>  (1) 
DB13415

>  <COMMON_NAME>  (1) 
Pentetrazol

>  <CAS_NUMBER>  (1) 
54-95-5

>  <UNII>  (1) 
WM5Z385K7T

>  <SYNONYMS>  (1) 
Pentetrazol; Pentylenetetrazol

$$$$
