
     RDKit          2D

 21 20  0  0  0  0  0  0  0  0999 V2000
    7.0944   -0.6740    0.0000 O   0  0  0  0  0  0  0  0  0  0  0  0
   12.0958   -0.2615    0.0000 O   0  0  0  0  0  0  0  0  0  0  0  0
    2.0930   -0.2615    0.0000 O   0  0  0  0  0  0  0  0  0  0  0  0
   11.3814    0.9760    0.0000 O   0  0  0  0  0  0  0  0  0  0  0  0
    2.8075    0.9760    0.0000 O   0  0  0  0  0  0  0  0  0  0  0  0
   10.6668   -0.2615    0.0000 C   0  0  0  0  0  0  0  0  0  0  0  0
    3.5220   -0.2615    0.0000 C   0  0  0  0  0  0  0  0  0  0  0  0
    9.9524   -0.6740    0.0000 C   0  0  0  0  0  0  0  0  0  0  0  0
    4.2365   -0.6740    0.0000 C   0  0  0  0  0  0  0  0  0  0  0  0
    9.2379   -0.2615    0.0000 C   0  0  0  0  0  0  0  0  0  0  0  0
    4.9509   -0.2615    0.0000 C   0  0  0  0  0  0  0  0  0  0  0  0
    8.5234   -0.6740    0.0000 C   0  0  0  0  0  0  0  0  0  0  0  0
    5.6655   -0.6740    0.0000 C   0  0  0  0  0  0  0  0  0  0  0  0
   11.0793   -0.9760    0.0000 C   0  0  0  0  0  0  0  0  0  0  0  0
   10.2543    0.4529    0.0000 C   0  0  0  0  0  0  0  0  0  0  0  0
    3.1095   -0.9760    0.0000 C   0  0  0  0  0  0  0  0  0  0  0  0
    3.9345    0.4529    0.0000 C   0  0  0  0  0  0  0  0  0  0  0  0
    7.8089   -0.2615    0.0000 C   0  0  0  0  0  0  0  0  0  0  0  0
    6.3799   -0.2615    0.0000 C   0  0  0  0  0  0  0  0  0  0  0  0
   11.3814    0.1510    0.0000 C   0  0  0  0  0  0  0  0  0  0  0  0
    2.8075    0.1510    0.0000 C   0  0  0  0  0  0  0  0  0  0  0  0
  1 18  1  0
  1 19  1  0
  2 20  1  0
  3 21  1  0
  4 20  2  0
  5 21  2  0
  6  8  1  0
  6 14  1  0
  6 15  1  0
  6 20  1  0
  7  9  1  0
  7 16  1  0
  7 17  1  0
  7 21  1  0
  8 10  1  0
  9 11  1  0
 10 12  1  0
 11 13  1  0
 12 18  1  0
 13 19  1  0
M  END
>  <DRUGBANK_ID>  (1) 
DB05123

>  <COMMON_NAME>  (1) 
Gemcabene

>  <CAS_NUMBER>  (1) 
183293-82-5

>  <UNII>  (1) 
B96UX1DDKS

>  <SYNONYMS>  (1) 
Gemcabene

$$$$
