
     RDKit          2D

 30 33  0  0  0  0  0  0  0  0999 V2000
    2.5006   -3.0937    0.0000 C   0  0  0  0  0  0  0  0  0  0  0  0
    2.5006   -2.2687    0.0000 C   0  0  0  0  0  0  0  0  0  0  0  0
    2.5006    2.6812    0.0000 C   0  0  0  0  0  0  0  0  0  0  0  0
   -2.5006   -1.0312    0.0000 C   0  0  0  0  0  0  0  0  0  0  0  0
    1.7861    3.0937    0.0000 C   0  0  0  0  0  0  0  0  0  0  0  0
   -2.5006   -1.8562    0.0000 C   0  0  0  0  0  0  0  0  0  0  0  0
    2.5006    1.8562    0.0000 C   0  0  0  0  0  0  0  0  0  0  0  0
   -1.7861   -0.6187    0.0000 C   0  0  0  0  0  0  0  0  0  0  0  0
    1.0717    2.6812    0.0000 C   0  0  0  0  0  0  0  0  0  0  0  0
   -1.7861   -2.2687    0.0000 C   0  0  0  0  0  0  0  0  0  0  0  0
    1.7861    1.4437    0.0000 C   0  0  0  0  0  0  0  0  0  0  0  0
   -1.0717   -1.0312    0.0000 C   0  0  0  0  0  0  0  0  0  0  0  0
    1.0717    1.8562    0.0000 C   0  0  0  0  0  0  0  0  0  0  0  0
   -1.0717   -1.8562    0.0000 C   0  0  0  0  0  0  0  0  0  0  0  0
    1.0717   -0.6187    0.0000 C   0  0  0  0  0  0  0  0  0  0  0  0
    1.0717    0.2062    0.0000 C   0  0  0  0  0  0  0  0  0  0  0  0
    0.3572   -1.0312    0.0000 C   0  0  0  0  0  0  0  0  0  0  0  0
    1.7861    0.6187    0.0000 C   0  0  0  0  0  0  0  0  0  0  0  0
   -0.3572   -0.6187    0.0000 C   0  0  0  0  0  0  0  0  0  0  0  0
    1.7861   -1.0312    0.0000 C   0  0  0  0  0  0  0  0  0  0  0  0
    0.3572    0.6187    0.0000 C   0  0  0  0  0  0  0  0  0  0  0  0
    0.3572   -1.8562    0.0000 C   0  0  0  0  0  0  0  0  0  0  0  0
    2.5006    0.2062    0.0000 O   0  0  0  0  0  0  0  0  0  0  0  0
   -0.3572    0.2062    0.0000 O   0  0  0  0  0  0  0  0  0  0  0  0
    2.5006   -0.6187    0.0000 O   0  0  0  0  0  0  0  0  0  0  0  0
   -0.4632    0.7049    0.0000 O   0  0  0  0  0  0  0  0  0  0  0  0
    1.0717   -2.2687    0.0000 O   0  0  0  0  0  0  0  0  0  0  0  0
    1.7861   -1.8562    0.0000 O   0  0  0  0  0  0  0  0  0  0  0  0
    0.3572    1.4437    0.0000 O   0  0  0  0  0  0  0  0  0  0  0  0
   -0.3572   -2.2687    0.0000 O   0  0  0  0  0  0  0  0  0  0  0  0
  2  1  1  0
  5  3  2  0
  6  4  2  0
  7  3  1  0
  8  4  1  0
  9  5  1  0
 10  6  1  0
 11  7  2  0
 12  8  2  0
 13  9  2  0
 13 11  1  0
 14 10  2  0
 14 12  1  0
 16 15  1  0
 17 15  1  0
 18 11  1  0
 18 16  2  0
 19 12  1  0
 19 17  2  0
 20 15  1  0
 21 16  1  0
 22 17  1  0
 23 18  1  0
 24 19  1  0
 25 20  2  0
 26 21  2  0
 27 22  2  0
 28  2  1  0
 28 20  1  0
 29 13  1  0
 29 21  1  0
 30 14  1  0
 30 22  1  0
M  END
>  <DRUGBANK_ID>  (1) 
DB08794

>  <COMMON_NAME>  (1) 
Ethyl biscoumacetate

>  <CAS_NUMBER>  (1) 
548-00-5

>  <UNII>  (1) 
08KL644731

>  <SYNONYMS>  (1) 
Ethyl bis(4-hydroxy-2-oxo-2h-1-benzopyran-3-yl)acetate; Ethyl biscoumacetate; Ethyldicoumarol

$$$$
