
     RDKit          2D

 11 11  0  0  0  0  0  0  0  0999 V2000
    1.4822    0.0000    0.0000 C   0  0  0  0  0  0  0  0  0  0  0  0
    2.1030   -0.3577    0.0000 N   0  0  0  0  0  0  0  0  0  0  0  0
    0.7652    0.4079    0.0000 C   0  0  0  0  0  0  0  0  0  0  0  0
    0.7652    1.2363    0.0000 O   0  0  0  0  0  0  0  0  0  0  0  0
    0.0481    0.0000    0.0000 C   0  0  0  0  0  0  0  0  0  0  0  0
   -0.6689    0.4079    0.0000 C   0  0  0  0  0  0  0  0  0  0  0  0
    0.0481   -0.8283    0.0000 C   0  0  0  0  0  0  0  0  0  0  0  0
   -1.3859    0.0000    0.0000 C   0  0  0  0  0  0  0  0  0  0  0  0
   -0.6689   -1.2363    0.0000 C   0  0  0  0  0  0  0  0  0  0  0  0
   -1.3859   -0.8283    0.0000 C   0  0  0  0  0  0  0  0  0  0  0  0
   -2.1030   -1.2363    0.0000 O   0  0  0  0  0  0  0  0  0  0  0  0
  2  1  3  0
  3  1  1  0
  3  4  1  6
  5  3  1  0
  6  5  2  0
  7  5  1  0
  8  6  1  0
  9  7  2  0
 10  8  2  0
 10  9  1  0
 11 10  1  0
M  END
>  <DRUGBANK_ID>  (1) 
DB03430

>  <SECONDARY_ACCESSION_NUMBERS>  (1) 
EXPT01197

>  <COMMON_NAME>  (1) 
(S)-4-hydroxymandelonitrile

>  <CAS_NUMBER>  (1) 
71807-09-5

>  <UNII>  (1) 
9BAR4IH1OD

>  <SYNONYMS>  (1) 
(2S)-Hydroxy(4-hydroxyphenyl)ethanenitrile; 4-Hydroxy-L-mandelonitrile

$$$$
