
     RDKit          2D

 19 18  0  0  0  0  0  0  0  0999 V2000
    2.2539   -0.4421    0.0000 C   0  0  0  0  0  0  0  0  0  0  0  0
    1.5395    0.7954    0.0000 C   0  0  0  0  0  0  0  0  0  0  0  0
    2.9684    0.7954    0.0000 C   0  0  0  0  0  0  0  0  0  0  0  0
    2.9684   -0.8546    0.0000 C   0  0  0  0  0  0  0  0  0  0  0  0
    1.5395    1.6204    0.0000 C   0  0  0  0  0  0  0  0  0  0  0  0
    2.9684    1.6204    0.0000 C   0  0  0  0  0  0  0  0  0  0  0  0
    2.2539    0.3829    0.0000 N   0  0  0  0  0  0  0  0  0  0  0  0
    3.6829   -2.0921    0.0000 N   0  0  0  0  0  0  0  0  0  0  0  0
    0.8250    2.8579    0.0000 N   0  0  0  0  0  0  0  0  0  0  0  0
    3.6829    2.8579    0.0000 N   0  0  0  0  0  0  0  0  0  0  0  0
    3.6829   -2.9171    0.0000 O   0  0  0  0  0  0  0  0  0  0  0  0
    4.3974   -1.6796    0.0000 O   0  0  0  0  0  0  0  0  0  0  0  0
    0.1105    3.2704    0.0000 O   0  0  0  0  0  0  0  0  0  0  0  0
    1.5395    3.2704    0.0000 O   0  0  0  0  0  0  0  0  0  0  0  0
    2.9684    3.2704    0.0000 O   0  0  0  0  0  0  0  0  0  0  0  0
    4.3974    3.2704    0.0000 O   0  0  0  0  0  0  0  0  0  0  0  0
    2.9684   -1.6796    0.0000 O   0  0  0  0  0  0  0  0  0  0  0  0
    0.8250    2.0329    0.0000 O   0  0  0  0  0  0  0  0  0  0  0  0
    3.6829    2.0329    0.0000 O   0  0  0  0  0  0  0  0  0  0  0  0
  4  1  1  0
  5  2  1  0
  6  3  1  0
  7  1  1  0
  7  2  1  0
  7  3  1  0
 11  8  1  0
 12  8  2  0
 13  9  1  0
 14  9  2  0
 15 10  1  0
 16 10  2  0
 17  4  1  0
 17  8  1  0
 18  5  1  0
 18  9  1  0
 19  6  1  0
 19 10  1  0
M  CHG  6   8   1   9   1  10   1  11  -1  13  -1  15  -1
M  END
>  <DRUGBANK_ID>  (1) 
DB13719

>  <COMMON_NAME>  (1) 
Trolnitrate

>  <CAS_NUMBER>  (1) 
7077-34-1

>  <UNII>  (1) 
B9M85U075P

>  <SYNONYMS>  (1) 
Trolnitrate

$$$$
