1BH
     RDKit          2D

 34 36  0  0  0  0  0  0  0  0999 V2000
   -4.0543    0.8755    0.0000 C   0  0  0  0  0  0  0  0  0  0  0  0
   -2.6254    0.8755    0.0000 C   0  0  0  0  0  0  0  0  0  0  0  0
    0.5446   -0.8191    0.0000 O   0  0  0  0  0  0  0  0  0  0  0  0
    1.6723   -2.6879    0.0000 O   0  0  0  0  0  0  0  0  0  0  0  0
    1.1577   -0.2670    0.0000 C   0  0  0  0  0  0  0  0  0  0  0  0
    2.1139   -1.3289    0.0000 C   0  0  0  0  0  0  0  0  0  0  0  0
    1.5008   -1.8810    0.0000 C   0  0  0  0  0  0  0  0  0  0  0  0
   -4.0543    1.7005    0.0000 C   0  0  0  0  0  0  0  0  0  0  0  0
   -4.7688    2.1130    0.0000 C   0  0  0  0  0  0  0  0  0  0  0  0
   -4.0543    3.3505    0.0000 C   0  0  0  0  0  0  0  0  0  0  0  0
   -1.9109    0.4630    0.0000 N   0  0  0  0  0  0  0  0  0  0  0  0
   -1.1964    0.8755    0.0000 C   0  0  0  0  0  0  0  0  0  0  0  0
   -1.1964    1.7005    0.0000 C   0  0  0  0  0  0  0  0  0  0  0  0
   -0.4820    0.4630    0.0000 C   0  0  0  0  0  0  0  0  0  0  0  0
   -0.4820   -0.3620    0.0000 O   0  0  0  0  0  0  0  0  0  0  0  0
    0.2325    0.8755    0.0000 N   0  0  0  0  0  0  0  0  0  0  0  0
    0.3188    1.6960    0.0000 C   0  0  0  0  0  0  0  0  0  0  0  0
    0.9862    0.5400    0.0000 C   0  0  0  0  0  0  0  0  0  0  0  0
    1.5382    1.1530    0.0000 C   0  0  0  0  0  0  0  0  0  0  0  0
    1.1257    1.8675    0.0000 C   0  0  0  0  0  0  0  0  0  0  0  0
    1.9423   -0.5220    0.0000 N   0  0  0  0  0  0  0  0  0  0  0  0
    2.8985   -1.5839    0.0000 C   0  0  0  0  0  0  0  0  0  0  0  0
    3.0700   -2.3908    0.0000 C   0  0  0  0  0  0  0  0  0  0  0  0
    3.8546   -2.6458    0.0000 C   0  0  0  0  0  0  0  0  0  0  0  0
    2.4569   -2.9429    0.0000 C   0  0  0  0  0  0  0  0  0  0  0  0
    4.0262   -3.4528    0.0000 C   0  0  0  0  0  0  0  0  0  0  0  0
    2.6284   -3.7498    0.0000 C   0  0  0  0  0  0  0  0  0  0  0  0
    3.4131   -4.0048    0.0000 C   0  0  0  0  0  0  0  0  0  0  0  0
    0.7161   -1.6260    0.0000 C   0  0  0  0  0  0  0  0  0  0  0  0
   -3.3398    0.4630    0.0000 O   0  0  0  0  0  0  0  0  0  0  0  0
   -3.3398    2.1130    0.0000 C   0  0  0  0  0  0  0  0  0  0  0  0
   -4.7688    2.9380    0.0000 C   0  0  0  0  0  0  0  0  0  0  0  0
   -3.3398    2.9380    0.0000 C   0  0  0  0  0  0  0  0  0  0  0  0
   -2.6254    1.7005    0.0000 O   0  0  0  0  0  0  0  0  0  0  0  0
  1  8  1  0
  1 30  1  0
  2 11  1  0
  2 30  1  0
  2 34  2  0
  3  5  2  0
  5 21  1  0
  6  7  1  0
  6 21  1  0
  6 22  1  1
  7  4  1  0
  7 29  1  6
  8  9  2  0
  8 31  1  0
  9 32  1  0
 10 32  2  0
 10 33  1  0
 11 12  1  0
 12 13  1  1
 12 14  1  0
 14 15  2  0
 14 16  1  0
 16 17  1  0
 16 18  1  0
 17 20  1  0
 18  5  1  1
 18 19  1  0
 19 20  1  0
 22 23  1  0
 23 24  2  0
 23 25  1  0
 24 26  1  0
 25 27  2  0
 26 28  2  0
 27 28  1  0
 31 33  2  0
M  END
>  <DRUGBANK_ID>  (1) 
DB06886

>  <COMMON_NAME>  (1) 
N-BENZYLOXYCARBONYL-ALA-PRO-3-AMINO-4-PHENYL-BUTAN-2-OL

$$$$
