
     RDKit          2D

 26 28  0  0  1  0  0  0  0  0999 V2000
    0.7604    1.4597    0.0000 C   0  0  0  0  0  0  0  0  0  0  0  0
    0.9097    2.8808    0.0000 C   0  0  0  0  0  0  0  0  0  0  0  0
    1.5809    1.3734    0.0000 C   0  0  0  0  0  0  0  0  0  0  0  0
    1.7302    2.7945    0.0000 C   0  0  0  0  0  0  0  0  0  0  0  0
   -0.3957    2.2996    0.0000 C   0  0  0  0  0  0  0  0  0  0  0  0
   -3.0534    4.0452    0.0000 C   0  0  0  0  0  0  0  0  0  0  0  0
   -2.3859    2.7353    0.0000 C   0  0  0  0  0  0  0  0  0  0  0  0
   -0.6992    5.1878    0.0000 C   0  0  0  0  0  0  0  0  0  0  0  0
   -3.4659    1.9507    0.0000 C   0  0  0  0  0  0  0  0  0  0  0  0
    0.4248    2.2133    0.0000 C   0  0  0  0  0  0  0  0  0  0  0  0
   -3.0534    3.2202    0.0000 C   0  0  0  0  0  0  0  0  0  0  0  0
    2.0658    2.0409    0.0000 C   0  0  0  0  0  0  0  0  0  0  0  0
   -2.3389    4.4577    0.0000 C   0  0  0  0  0  0  0  0  0  0  0  0
   -0.7312    3.0532    0.0000 C   0  0  0  0  0  0  0  0  0  0  0  0
    0.0854    5.4427    0.0000 C   0  0  0  0  0  0  0  0  0  0  0  0
   -1.6244    4.0452    0.0000 C   0  0  0  0  0  0  0  0  0  0  0  0
   -0.3187    3.7677    0.0000 C   0  0  0  0  0  0  0  0  0  0  0  0
   -2.3389    5.2827    0.0000 N   0  0  0  0  0  0  0  0  0  0  0  0
   -2.6409    1.9507    0.0000 N   0  0  0  0  0  0  0  0  0  0  0  0
   -3.7208    2.7353    0.0000 N   0  0  0  0  0  0  0  0  0  0  0  0
   -1.5382    3.2248    0.0000 N   0  0  0  0  0  0  0  0  0  0  0  0
   -0.8708    4.3808    0.0000 N   0  0  0  0  0  0  0  0  0  0  0  0
    2.8863    1.9546    0.0000 O   0  0  0  0  0  0  0  0  0  0  0  0
    0.2569    6.2497    0.0000 O   0  0  0  0  0  0  0  0  0  0  0  0
    0.6985    4.8907    0.0000 O   0  0  0  0  0  0  0  0  0  0  0  0
    0.5018    3.8539    0.0000 O   0  0  0  0  0  0  0  0  0  0  0  0
  3  1  2  0
  4  2  2  0
 10  1  1  0
 10  2  1  0
 10  5  2  3
 11  6  1  0
 11  7  2  0
 12  3  1  0
 12  4  1  0
 13  6  1  0
 13 18  1  6
 14  5  1  0
 15  8  1  0
 16 13  1  0
 17 14  2  0
 19  7  1  0
 19  9  2  0
 20  9  1  0
 20 11  1  0
 21 14  1  0
 21 16  2  0
 22  8  1  0
 22 16  1  0
 22 17  1  0
 23 12  2  0
 24 15  2  0
 25 15  1  0
 26 17  1  0
M  CHG  1  25  -1
M  END
>  <DRUGBANK_ID>  (1) 
DB04667

>  <COMMON_NAME>  (1) 
CHROMOPHORE (HIS-TYR-GLY)

$$$$
