L47
     RDKit          2D

 22 24  0  0  0  0  0  0  0  0999 V2000
    3.2914   -0.3219    0.0000 C   0  0  0  0  0  0  0  0  0  0  0  0
    2.5068   -0.5769    0.0000 C   0  0  0  0  0  0  0  0  0  0  0  0
    1.8937   -0.0249    0.0000 C   0  0  0  0  0  0  0  0  0  0  0  0
    2.0652    0.7821    0.0000 C   0  0  0  0  0  0  0  0  0  0  0  0
    2.8498    1.0371    0.0000 C   0  0  0  0  0  0  0  0  0  0  0  0
    3.4629    0.4850    0.0000 C   0  0  0  0  0  0  0  0  0  0  0  0
    1.1090   -0.2798    0.0000 C   0  0  0  0  0  0  0  0  0  0  0  0
    0.8541   -1.0644    0.0000 N   0  0  0  0  0  0  0  0  0  0  0  0
    0.0291   -1.0644    0.0000 N   0  0  0  0  0  0  0  0  0  0  0  0
   -0.2258   -0.2798    0.0000 C   0  0  0  0  0  0  0  0  0  0  0  0
    0.4416    0.2051    0.0000 C   0  0  0  0  0  0  0  0  0  0  0  0
   -1.0105   -0.0249    0.0000 C   0  0  0  0  0  0  0  0  0  0  0  0
   -0.4558   -1.7319    0.0000 C   0  0  0  0  0  0  0  0  0  0  0  0
   -1.2763   -1.6456    0.0000 C   0  0  0  0  0  0  0  0  0  0  0  0
   -0.1203   -2.4855    0.0000 O   0  0  0  0  0  0  0  0  0  0  0  0
   -1.6236   -0.5769    0.0000 C   0  0  0  0  0  0  0  0  0  0  0  0
   -2.4082   -0.3219    0.0000 C   0  0  0  0  0  0  0  0  0  0  0  0
   -2.5797    0.4850    0.0000 C   0  0  0  0  0  0  0  0  0  0  0  0
   -1.9666    1.0371    0.0000 C   0  0  0  0  0  0  0  0  0  0  0  0
   -1.1820    0.7821    0.0000 C   0  0  0  0  0  0  0  0  0  0  0  0
    1.4521    1.3342    0.0000 Cl  0  0  0  0  0  0  0  0  0  0  0  0
   -2.1381    1.8440    0.0000 O   0  0  0  0  0  0  0  0  0  0  0  0
  1  2  2  0
  1  6  1  0
  2  3  1  0
  3  4  2  0
  3  7  1  0
  4  5  1  0
  4 21  1  0
  5  6  2  0
  7  8  2  0
  7 11  1  0
  8  9  1  0
  9 10  1  0
  9 13  1  0
 10 11  1  0
 10 12  1  6
 12 16  2  0
 12 20  1  0
 13 14  1  0
 13 15  2  0
 16 17  1  0
 17 18  2  0
 18 19  1  0
 19 20  2  0
 19 22  1  0
M  END
>  <DRUGBANK_ID>  (1) 
DB03996

>  <SECONDARY_ACCESSION_NUMBERS>  (1) 
EXPT01994

>  <COMMON_NAME>  (1) 
3-[(5s)-1-Acetyl-3-(2-Chlorophenyl)-4,5-Dihydro-1h-Pyrazol-5-Yl]Phenol

$$$$
