
     RDKit          2D

 15 16  0  0  0  0  0  0  0  0999 V2000
    2.1434    4.5375    0.0000 C   0  0  0  0  0  0  0  0  0  0  0  0
    0.7145    2.0625    0.0000 C   0  0  0  0  0  0  0  0  0  0  0  0
    2.8579    2.4750    0.0000 C   0  0  0  0  0  0  0  0  0  0  0  0
    0.7145    6.1875    0.0000 C   0  0  0  0  0  0  0  0  0  0  0  0
    2.8579    3.3000    0.0000 C   0  0  0  0  0  0  0  0  0  0  0  0
    2.1434    2.0625    0.0000 C   0  0  0  0  0  0  0  0  0  0  0  0
   -0.0000    5.7750    0.0000 C   0  0  0  0  0  0  0  0  0  0  0  0
    1.4289    5.7750    0.0000 C   0  0  0  0  0  0  0  0  0  0  0  0
    2.1434    3.7125    0.0000 C   0  0  0  0  0  0  0  0  0  0  0  0
    1.4289    2.4750    0.0000 C   0  0  0  0  0  0  0  0  0  0  0  0
    1.4289    3.3000    0.0000 C   0  0  0  0  0  0  0  0  0  0  0  0
    0.7145    4.5375    0.0000 C   0  0  0  0  0  0  0  0  0  0  0  0
   -0.0000    4.9500    0.0000 N   0  0  0  0  0  0  0  0  0  0  0  0
    0.7145    3.7125    0.0000 N   0  0  0  0  0  0  0  0  0  0  0  0
    1.4289    4.9500    0.0000 S   0  0  0  0  0  0  0  0  0  0  0  0
  5  3  2  0
  6  3  1  0
  7  4  1  0
  8  4  1  0
  9  1  1  0
  9  5  1  0
 10  2  1  0
 10  6  2  0
 11  9  2  0
 11 10  1  0
 13  7  1  0
 13 12  2  0
 14 11  1  0
 14 12  1  0
 15  8  1  0
 15 12  1  0
M  END
>  <DRUGBANK_ID>  (1) 
DB11477

>  <COMMON_NAME>  (1) 
Xylazine

>  <CAS_NUMBER>  (1) 
7361-61-7

>  <UNII>  (1) 
2KFG9TP5V8

>  <SYNONYMS>  (1) 
Xilazina; Xylazine; Xylazinum

$$$$
