
     RDKit          2D

 30 35  0  0  1  0  0  0  0  0999 V2000
    7.1015   -8.5657    0.0000 C   0  0  0  0  0  0  0  0  0  0  0  0
    7.1015   -9.3908    0.0000 O   0  0  0  0  0  0  0  0  0  0  0  0
    7.8861   -9.6457    0.0000 C   0  0  0  0  0  0  0  0  0  0  0  0
    8.3710   -8.9783    0.0000 C   0  0  0  0  0  0  0  0  0  0  0  0
    7.8861   -8.3108    0.0000 C   0  0  0  0  0  0  0  0  0  0  0  0
    9.1557  -10.0582    0.0000 C   0  0  0  0  0  0  0  0  0  0  0  0
    9.1557   -9.2332    0.0000 C   0  0  0  0  0  0  0  0  0  0  0  0
    9.9403  -10.3131    0.0000 C   0  0  0  0  0  0  0  0  0  0  0  0
   10.4253   -9.6457    0.0000 C   0  0  0  0  0  0  0  0  0  0  0  0
    9.9403   -8.9783    0.0000 O   0  0  0  0  0  0  0  0  0  0  0  0
   11.2099   -9.9006    0.0000 O   0  0  0  0  0  0  0  0  0  0  0  0
   11.2099  -10.7256    0.0000 C   0  0  0  0  0  0  0  0  0  0  0  0
   10.4253  -10.9806    0.0000 C   0  0  0  0  0  0  0  0  0  0  0  0
    6.4340   -8.0808    0.0000 O   0  0  0  0  0  0  0  0  0  0  0  0
    8.3710  -10.3131    0.0000 C   0  0  0  0  0  0  0  0  0  0  0  0
    8.6707  -10.7256    0.0000 C   0  0  0  0  0  0  0  0  0  0  0  0
    9.9403  -11.1381    0.0000 C   0  0  0  0  0  0  0  0  0  0  0  0
    9.1557  -11.3931    0.0000 C   0  0  0  0  0  0  0  0  0  0  0  0
   11.8074  -11.1407    0.0000 O   0  0  0  0  0  0  0  0  0  0  0  0
    8.3526   -7.9752    0.0000 O   0  0  0  0  0  0  0  0  0  0  0  0
    7.8194   -7.5122    0.0000 C   0  0  0  0  0  0  0  0  0  0  0  0
    9.0052   -8.5158    0.0000 C   0  0  0  0  0  0  0  0  0  0  0  0
    8.5018   -9.5086    0.0000 O   0  0  0  0  0  0  0  0  0  0  0  0
    9.0052   -7.8726    0.0000 O   0  0  0  0  0  0  0  0  0  0  0  0
   10.8230  -11.6620    0.0000 O   0  0  0  0  0  0  0  0  0  0  0  0
    9.9980  -11.8298    0.0000 C   0  0  0  0  0  0  0  0  0  0  0  0
    9.4946  -12.4870    0.0000 C   0  0  0  0  0  0  0  0  0  0  0  0
   10.1518  -12.6548    0.0000 C   0  0  0  0  0  0  0  0  0  0  0  0
   10.6552  -12.3192    0.0000 C   0  0  0  0  0  0  0  0  0  0  0  0
    8.6696  -11.9976    0.0000 O   0  0  0  0  0  0  0  0  0  0  0  0
  1  2  1  0
  1 14  2  0
  3  2  1  0
  3  4  1  0
  3 15  1  6
  4  5  1  0
  4 20  1  1
  5  1  1  0
  5 21  1  1
  6  7  1  0
  6  8  1  0
  6 15  1  6
  6 16  1  0
  7  4  1  0
  7 10  1  6
  7 22  1  0
  8  9  1  0
  8 17  1  0
  9 10  1  0
  9 11  1  0
 11 12  1  0
 12 13  1  0
 12 19  2  0
 13  8  1  0
 13 25  1  0
 16 23  1  0
 17 18  1  0
 17 26  1  0
 18 16  1  0
 18 30  1  0
 22 23  1  0
 22 24  2  0
 26 27  1  0
 26 28  1  0
 26 29  1  0
M  END
>  <DRUGBANK_ID>  (1) 
DB06746

>  <COMMON_NAME>  (1) 
ginkgolide-J

>  <CAS_NUMBER>  (1) 
107438-79-9

>  <UNII>  (1) 
M5297RI2UE

$$$$
