VIN
     RDKit          2D

 32 37  0  0  0  0  0  0  0  0999 V2000
    1.0819   -0.1027    0.0000 C   0  0  0  0  0  0  0  0  0  0  0  0
    1.4181    0.6507    0.0000 C   0  0  0  0  0  0  0  0  0  0  0  0
    0.2614   -0.1883    0.0000 C   0  0  0  0  0  0  0  0  0  0  0  0
    1.6946   -0.6552    0.0000 N   0  0  0  0  0  0  0  0  0  0  0  0
    0.9336    1.3185    0.0000 C   0  0  0  0  0  0  0  0  0  0  0  0
    2.2385    0.5638    0.0000 C   0  0  0  0  0  0  0  0  0  0  0  0
   -0.2230    0.4795    0.0000 C   0  0  0  0  0  0  0  0  0  0  0  0
   -0.0748   -0.9417    0.0000 C   0  0  0  0  0  0  0  0  0  0  0  0
    2.4094   -0.2433    0.0000 C   0  0  0  0  0  0  0  0  0  0  0  0
    1.6077   -1.4756    0.0000 C   0  0  0  0  0  0  0  0  0  0  0  0
    0.1131    1.2329    0.0000 C   0  0  0  0  0  0  0  0  0  0  0  0
    1.1058    2.1254    0.0000 C   0  0  0  0  0  0  0  0  0  0  0  0
    2.8520    1.1154    0.0000 C   0  0  0  0  0  0  0  0  0  0  0  0
   -1.0436    0.3939    0.0000 C   0  0  0  0  0  0  0  0  0  0  0  0
   -0.8953   -1.0273    0.0000 C   0  0  0  0  0  0  0  0  0  0  0  0
    3.1938   -0.4988    0.0000 C   0  0  0  0  0  0  0  0  0  0  0  0
    2.2748   -1.9611    0.0000 C   0  0  0  0  0  0  0  0  0  0  0  0
   -0.2219    1.9868    0.0000 C   0  0  0  0  0  0  0  0  0  0  0  0
    0.3916    2.5384    0.0000 N   0  0  0  0  0  0  0  0  0  0  0  0
    3.6364    0.8598    0.0000 C   0  0  0  0  0  0  0  0  0  0  0  0
   -1.3797   -0.3595    0.0000 C   0  0  0  0  0  0  0  0  0  0  0  0
   -1.5280    1.0617    0.0000 C   0  0  0  0  0  0  0  0  0  0  0  0
    3.8073    0.0527    0.0000 C   0  0  0  0  0  0  0  0  0  0  0  0
    2.1879   -2.7815    0.0000 O   0  0  0  0  0  0  0  0  0  0  0  0
   -1.0287    2.1590    0.0000 O   0  0  0  0  0  0  0  0  0  0  0  0
   -2.2003   -0.4451    0.0000 C   0  0  0  0  0  0  0  0  0  0  0  0
   -2.3485    0.9761    0.0000 C   0  0  0  0  0  0  0  0  0  0  0  0
   -2.6847    0.2227    0.0000 C   0  0  0  0  0  0  0  0  0  0  0  0
   -3.5052    0.1371    0.0000 O   0  0  0  0  0  0  0  0  0  0  0  0
   -3.9896    0.8049    0.0000 C   0  0  0  0  0  0  0  0  0  0  0  0
   -4.8102    0.7193    0.0000 C   0  0  0  0  0  0  0  0  0  0  0  0
   -3.6535    1.5583    0.0000 C   0  0  0  0  0  0  0  0  0  0  0  0
  1  2  2  0
  1  4  1  0
  2  6  1  0
  3  1  1  0
  3  8  1  0
  4 10  1  0
  5  2  1  0
  6  9  2  0
  7  3  2  0
  9  4  1  0
  9 16  1  0
 10 17  1  0
 11  5  2  0
 11  7  1  0
 12  5  1  0
 13  6  1  0
 13 20  2  0
 14  7  1  0
 14 21  2  0
 15  8  1  0
 18 11  1  0
 19 12  2  0
 19 18  1  0
 20 23  1  0
 21 15  1  0
 22 14  1  0
 23 16  2  0
 24 17  1  0
 25 18  2  0
 26 21  1  0
 27 22  2  0
 27 28  1  0
 28 26  2  0
 29 28  1  0
 30 29  1  0
 30 32  1  0
 31 30  1  0
M  END
>  <DRUGBANK_ID>  (1) 
DB08703

>  <COMMON_NAME>  (1) 
12-(2-hydroxyethyl)-2-(1-methylethoxy)-13,14-dihydronaphtho[2,1-a]pyrrolo[3,4-c]carbazol-5(12H)-one

$$$$
