
     RDKit          2D

 18 17  0  0  0  0  0  0  0  0999 V2000
    5.4730    3.9849    0.0000 C   0  0  0  0  0  0  0  0  0  0  0  0
    6.1875    3.5724    0.0000 C   0  0  0  0  0  0  0  0  0  0  0  0
    6.9020    3.9849    0.0000 C   0  0  0  0  0  0  0  0  0  0  0  0
    7.6164    3.5724    0.0000 C   0  0  0  0  0  0  0  0  0  0  0  0
    8.3309    3.9849    0.0000 C   0  0  0  0  0  0  0  0  0  0  0  0
    9.0454    3.5724    0.0000 C   0  0  0  0  0  0  0  0  0  0  0  0
    9.7599    3.9849    0.0000 C   0  0  0  0  0  0  0  0  0  0  0  0
   10.4743    3.5724    0.0000 C   0  0  0  0  0  0  0  0  0  0  0  0
   11.1888    3.9849    0.0000 C   0  0  0  0  0  0  0  0  0  0  0  0
   11.9033    3.5724    0.0000 C   0  0  0  0  0  0  0  0  0  0  0  0
   12.6177    3.9849    0.0000 C   0  0  0  0  0  0  0  0  0  0  0  0
   13.3322    3.5724    0.0000 C   0  0  0  0  0  0  0  0  0  0  0  0
   14.0467    3.9849    0.0000 C   0  0  0  0  0  0  0  0  0  0  0  0
   14.7612    3.5724    0.0000 C   0  0  0  0  0  0  0  0  0  0  0  0
   15.4756    3.9849    0.0000 N   0  0  0  0  0  0  0  0  0  0  0  0
   16.1901    4.3974    0.0000 C   0  0  0  0  0  0  0  0  0  0  0  0
   15.8881    3.2704    0.0000 C   0  0  0  0  0  0  0  0  0  0  0  0
   15.0631    4.6993    0.0000 C   0  0  0  0  0  0  0  0  0  0  0  0
  1  2  1  0
  2  3  1  0
  3  4  1  0
  4  5  1  0
  5  6  1  0
  6  7  1  0
  7  8  1  0
  8  9  1  0
  9 10  1  0
 10 11  1  0
 11 12  1  0
 12 13  1  0
 13 14  1  0
 14 15  1  0
 15 16  1  0
 15 17  1  0
 15 18  1  0
M  CHG  1  15   1
M  END
>  <DRUGBANK_ID>  (1) 
DB17342

>  <COMMON_NAME>  (1) 
Trimethyltetradecylammonium

>  <CAS_NUMBER>  (1) 
10182-92-0

>  <UNII>  (1) 
Y3IR7RCT6J

>  <SYNONYMS>  (1) 
1-tetradecanaminium, n,n,n-trimethyl-; Ammonium, trimethyltetradecyl-; Myristyltrimethylammonium; Tetradecyltrimethylammonium; Tetradonium; Tetradonium cation; Tetradonium ion

$$$$
