
     RDKit          2D

 21 23  0  0  0  0  0  0  0  0999 V2000
    0.0000    0.7463    0.0000 C   0  0  0  0  0  0  0  0  0  0  0  0
   -0.7433    1.1043    0.0000 C   0  0  0  0  0  0  0  0  0  0  0  0
    0.7433    1.1043    0.0000 C   0  0  0  0  0  0  0  0  0  0  0  0
   -0.9268    1.9086    0.0000 C   0  0  0  0  0  0  0  0  0  0  0  0
   -1.3480    0.5431    0.0000 C   0  0  0  0  0  0  0  0  0  0  0  0
    0.9269    1.9086    0.0000 C   0  0  0  0  0  0  0  0  0  0  0  0
    1.3481    0.5431    0.0000 C   0  0  0  0  0  0  0  0  0  0  0  0
    0.7145   -0.4911    0.0000 C   0  0  0  0  0  0  0  0  0  0  0  0
   -0.4125    2.5536    0.0000 C   0  0  0  0  0  0  0  0  0  0  0  0
   -1.7152    2.1518    0.0000 C   0  0  0  0  0  0  0  0  0  0  0  0
   -2.1364    0.7863    0.0000 C   0  0  0  0  0  0  0  0  0  0  0  0
    0.4125    2.5536    0.0000 O   0  0  0  0  0  0  0  0  0  0  0  0
    1.7153    2.1518    0.0000 C   0  0  0  0  0  0  0  0  0  0  0  0
    2.1364    0.7863    0.0000 C   0  0  0  0  0  0  0  0  0  0  0  0
    0.7145   -1.3161    0.0000 C   0  0  0  0  0  0  0  0  0  0  0  0
   -2.3200    1.5906    0.0000 C   0  0  0  0  0  0  0  0  0  0  0  0
    2.3200    1.5906    0.0000 C   0  0  0  0  0  0  0  0  0  0  0  0
    1.4290   -1.7286    0.0000 N   0  0  0  0  0  0  0  0  0  0  0  0
    2.1434   -1.3161    0.0000 C   0  0  0  0  0  0  0  0  0  0  0  0
    1.4290   -2.5536    0.0000 C   0  0  0  0  0  0  0  0  0  0  0  0
    0.0000   -0.0786    0.0000 C   0  0  0  0  0  0  0  0  0  0  0  0
  1  2  1  0
  1  3  1  0
  1 21  2  3
  2  4  2  0
  2  5  1  0
  3  6  2  0
  3  7  1  0
  4  9  1  0
  4 10  1  0
  5 11  2  0
  6 12  1  0
  6 13  1  0
  7 14  2  0
  8 15  1  0
  9 12  1  0
 10 16  2  0
 11 16  1  0
 13 17  2  0
 14 17  1  0
 15 18  1  0
 18 19  1  0
 18 20  1  0
 21  8  1  0
M  END
>  <DRUGBANK_ID>  (1) 
DB01142

>  <SECONDARY_ACCESSION_NUMBERS>  (1) 
APRD00398

>  <COMMON_NAME>  (1) 
Doxepin

>  <CAS_NUMBER>  (1) 
1668-19-5

>  <UNII>  (1) 
5ASJ6HUZ7D

>  <SYNONYMS>  (1) 
Doxepin; Doxepina; Doxepinum

$$$$
