
     RDKit          2D

 41 46  0  0  0  0  0  0  0  0999 V2000
   -1.8686   -0.3975    0.0000 O   0  0  0  0  0  0  0  0  0  0  0  0
   -1.6737   -2.5234    0.0000 O   0  0  0  0  0  0  0  0  0  0  0  0
   -3.5627   -0.7125    0.0000 O   0  0  0  0  0  0  0  0  0  0  0  0
   -0.6998   -2.9296    0.0000 O   0  0  0  0  0  0  0  0  0  0  0  0
    1.6506   -4.7527    0.0000 O   0  0  0  0  0  0  0  0  0  0  0  0
    2.8085   -2.1399    0.0000 O   0  0  0  0  0  0  0  0  0  0  0  0
   -0.4971    0.1316    0.0000 N   0  0  0  0  0  0  0  0  0  0  0  0
   -0.1209   -1.6232    0.0000 N   0  0  0  0  0  0  0  0  0  0  0  0
    0.7592    2.5834    0.0000 N   0  0  0  0  0  0  0  0  0  0  0  0
    0.6528    0.7956    0.0000 N   0  0  0  0  0  0  0  0  0  0  0  0
   -1.3841    1.3459    0.0000 N   0  0  0  0  0  0  0  0  0  0  0  0
   -0.6696    2.5834    0.0000 N   0  0  0  0  0  0  0  0  0  0  0  0
   -0.8751   -1.2890    0.0000 C   0  0  0  0  0  0  0  0  0  0  0  0
   -1.0480   -0.4823    0.0000 C   0  0  0  0  0  0  0  0  0  0  0  0
   -1.5889   -1.7028    0.0000 C   0  0  0  0  0  0  0  0  0  0  0  0
   -2.2029   -1.1517    0.0000 C   0  0  0  0  0  0  0  0  0  0  0  0
   -3.0096   -1.3247    0.0000 C   0  0  0  0  0  0  0  0  0  0  0  0
   -0.6696    0.9334    0.0000 C   0  0  0  0  0  0  0  0  0  0  0  0
    0.7592    3.4084    0.0000 C   0  0  0  0  0  0  0  0  0  0  0  0
    0.0448    3.8209    0.0000 C   0  0  0  0  0  0  0  0  0  0  0  0
    0.3186    0.0466    0.0000 C   0  0  0  0  0  0  0  0  0  0  0  0
    0.0448    1.3459    0.0000 C   0  0  0  0  0  0  0  0  0  0  0  0
    0.0448    4.6459    0.0000 C   0  0  0  0  0  0  0  0  0  0  0  0
    1.4737    3.8209    0.0000 C   0  0  0  0  0  0  0  0  0  0  0  0
    0.7592    5.0584    0.0000 C   0  0  0  0  0  0  0  0  0  0  0  0
    1.4737    4.6459    0.0000 C   0  0  0  0  0  0  0  0  0  0  0  0
   -0.0332   -2.4436    0.0000 C   0  0  0  0  0  0  0  0  0  0  0  0
    0.0448    2.1709    0.0000 C   0  0  0  0  0  0  0  0  0  0  0  0
    2.2112    3.3798    0.0000 C   0  0  0  0  0  0  0  0  0  0  0  0
    2.2112    5.0870    0.0000 C   0  0  0  0  0  0  0  0  0  0  0  0
    0.7210   -2.7778    0.0000 C   0  0  0  0  0  0  0  0  0  0  0  0
   -1.3841    2.1709    0.0000 C   0  0  0  0  0  0  0  0  0  0  0  0
    2.9587    3.8037    0.0000 C   0  0  0  0  0  0  0  0  0  0  0  0
    2.9587    4.6631    0.0000 C   0  0  0  0  0  0  0  0  0  0  0  0
    1.3876   -2.2917    0.0000 C   0  0  0  0  0  0  0  0  0  0  0  0
    0.8087   -3.5982    0.0000 C   0  0  0  0  0  0  0  0  0  0  0  0
    1.5629   -3.9324    0.0000 C   0  0  0  0  0  0  0  0  0  0  0  0
    2.1419   -2.6260    0.0000 C   0  0  0  0  0  0  0  0  0  0  0  0
    2.2295   -3.4463    0.0000 C   0  0  0  0  0  0  0  0  0  0  0  0
    2.4048   -5.0870    0.0000 C   0  0  0  0  0  0  0  0  0  0  0  0
    3.5627   -2.4742    0.0000 C   0  0  0  0  0  0  0  0  0  0  0  0
  1 14  1  0
  1 16  1  0
  3 17  1  0
  4 27  2  0
  5 37  1  0
  5 40  1  0
  6 38  1  0
  6 41  1  0
  7 18  1  0
  7 21  1  0
  8 27  1  0
  9 28  1  0
 10 21  2  0
 10 22  1  0
 11 18  1  0
 11 32  2  0
 12 28  2  0
 12 32  1  0
 13  8  1  6
 13 14  1  0
 13 15  1  0
 14  7  1  1
 15  2  1  6
 15 16  1  0
 16 17  1  1
 18 22  2  0
 19  9  1  6
 19 20  1  0
 19 24  1  0
 20 23  1  0
 22 28  1  0
 23 25  1  0
 24 26  2  0
 24 29  1  0
 25 26  1  0
 26 30  1  0
 27 31  1  0
 29 33  2  0
 30 34  2  0
 31 35  2  0
 31 36  1  0
 33 34  1  0
 35 38  1  0
 36 37  2  0
 37 39  1  0
 38 39  2  0
M  END
>  <DRUGBANK_ID>  (1) 
DB04477

>  <SECONDARY_ACCESSION_NUMBERS>  (1) 
EXPT03076

>  <COMMON_NAME>  (1) 
2'-Deoxy-2'-[(3,5-dimethoxybenzoyl)amino]-N-[(1R)-1,2,3,4-tetrahydro-1-naphthalenyl]adenosine

>  <SYNONYMS>  (1) 
N-1,2,3,4-Tetrahydronaphth-1-yl-2'-[3,5-dimethoxybenzamido]-2'-deoxy-adenosine

$$$$
