122
     RDKit          2D

  7  6  0  0  0  0  0  0  0  0999 V2000
    4.5080    0.4125    0.0000 O   0  0  0  0  0  0  0  0  0  0  0  0
    2.3645    0.0000    0.0000 N   0  0  0  0  0  0  0  0  0  0  0  0
    3.0791    0.4125    0.0000 C   0  0  0  0  0  0  0  0  0  0  0  0
    1.6501   -0.4125    0.0000 C   0  0  0  0  0  0  0  0  0  0  0  0
    1.9520    0.7145    0.0000 C   0  0  0  0  0  0  0  0  0  0  0  0
    2.7770   -0.7145    0.0000 C   0  0  0  0  0  0  0  0  0  0  0  0
    3.7936    0.0000    0.0000 C   0  0  0  0  0  0  0  0  0  0  0  0
  1  7  1  0
  2  3  1  0
  2  4  1  0
  2  5  1  0
  2  6  1  0
  3  7  1  0
M  CHG  1   2   1
M  END
>  <DRUGBANK_ID>  (1) 
DB00122

>  <SECONDARY_ACCESSION_NUMBERS>  (1) 
NUTR00020

>  <COMMON_NAME>  (1) 
Choline

>  <CAS_NUMBER>  (1) 
62-49-7

>  <UNII>  (1) 
N91BDP6H0X

>  <SYNONYMS>  (1) 
Bilineurine; Choline ion; N-trimethylethanolamine; N,N,N-trimethylethanol-ammonium; trimethylethanolamine; Vitamin J

$$$$
