
     RDKit          2D

 25 25  0  0  0  0  0  0  0  0999 V2000
   -0.5662    5.6452    0.0000 C   0  0  0  0  0  0  0  0  0  0  0  0
    0.1483    6.0577    0.0000 C   0  0  0  0  0  0  0  0  0  0  0  0
    0.8628    5.6452    0.0000 C   0  0  0  0  0  0  0  0  0  0  0  0
    5.6332    8.1467    0.0000 C   0  0  0  0  0  0  0  0  0  0  0  0
    5.0201    8.6988    0.0000 C   0  0  0  0  0  0  0  0  0  0  0  0
    1.5772    6.0577    0.0000 C   0  0  0  0  0  0  0  0  0  0  0  0
    5.4617    7.3398    0.0000 C   0  0  0  0  0  0  0  0  0  0  0  0
    5.1916    9.5057    0.0000 C   0  0  0  0  0  0  0  0  0  0  0  0
    2.2917    5.6452    0.0000 C   0  0  0  0  0  0  0  0  0  0  0  0
    6.0748    6.7877    0.0000 C   0  0  0  0  0  0  0  0  0  0  0  0
    4.5785   10.0578    0.0000 C   0  0  0  0  0  0  0  0  0  0  0  0
    3.7206    5.6452    0.0000 C   0  0  0  0  0  0  0  0  0  0  0  0
    4.4351    6.0577    0.0000 C   0  0  0  0  0  0  0  0  0  0  0  0
    6.0428    4.6532    0.0000 C   0  0  0  0  0  0  0  0  0  0  0  0
    3.0062    6.0577    0.0000 C   0  0  0  0  0  0  0  0  0  0  0  0
    5.9033    5.9808    0.0000 C   0  0  0  0  0  0  0  0  0  0  0  0
    5.1496    5.6452    0.0000 C   0  0  0  0  0  0  0  0  0  0  0  0
    6.4553    5.3677    0.0000 C   0  0  0  0  0  0  0  0  0  0  0  0
    5.2358    4.8247    0.0000 C   0  0  0  0  0  0  0  0  0  0  0  0
    4.7501   10.8648    0.0000 C   0  0  0  0  0  0  0  0  0  0  0  0
    3.0062    6.8827    0.0000 O   0  0  0  0  0  0  0  0  0  0  0  0
    7.2758    5.4539    0.0000 O   0  0  0  0  0  0  0  0  0  0  0  0
    4.6227    4.2727    0.0000 O   0  0  0  0  0  0  0  0  0  0  0  0
    4.1370   11.4168    0.0000 O   0  0  0  0  0  0  0  0  0  0  0  0
    5.5347   11.1197    0.0000 O   0  0  0  0  0  0  0  0  0  0  0  0
  2  1  1  0
  3  2  1  0
  5  4  1  0
  6  3  1  0
  7  4  2  3
  8  5  1  0
  9  6  1  0
 10  7  1  0
 11  8  1  0
 13 12  2  0
 15  9  1  0
 15 12  1  0
 16 10  1  0
 17 13  1  0
 17 16  1  0
 18 14  1  0
 18 16  1  0
 19 14  1  0
 19 17  1  0
 20 11  1  0
 21 15  2  0
 22 18  2  0
 23 19  1  0
 24 20  2  0
 25 20  1  0
M  END
>  <DRUGBANK_ID>  (1) 
DB07177

>  <COMMON_NAME>  (1) 
(5E,13E)-11-HYDROXY-9,15-DIOXOPROSTA-5,13-DIEN-1-OIC ACID

$$$$
