099
     RDKit          2D

 27 29  0  0  0  0  0  0  0  0999 V2000
    2.8281   -1.6539    0.0000 C   0  0  0  0  0  0  0  0  0  0  0  0
    1.2589   -2.1638    0.0000 C   0  0  0  0  0  0  0  0  0  0  0  0
   -0.2920    1.4540    0.0000 C   0  0  0  0  0  0  0  0  0  0  0  0
   -0.2920    2.8830    0.0000 C   0  0  0  0  0  0  0  0  0  0  0  0
   -1.5295    2.1685    0.0000 C   0  0  0  0  0  0  0  0  0  0  0  0
   -1.5295    0.7396    0.0000 C   0  0  0  0  0  0  0  0  0  0  0  0
   -1.1170    2.8830    0.0000 C   0  0  0  0  0  0  0  0  0  0  0  0
    1.4304   -1.3568    0.0000 C   0  0  0  0  0  0  0  0  0  0  0  0
   -0.2920    0.0251    0.0000 C   0  0  0  0  0  0  0  0  0  0  0  0
   -1.1170    0.0251    0.0000 C   0  0  0  0  0  0  0  0  0  0  0  0
    2.6566   -2.4609    0.0000 C   0  0  0  0  0  0  0  0  0  0  0  0
    1.8720   -2.7158    0.0000 C   0  0  0  0  0  0  0  0  0  0  0  0
    0.1205    2.1685    0.0000 C   0  0  0  0  0  0  0  0  0  0  0  0
    2.2150   -0.2769    0.0000 C   0  0  0  0  0  0  0  0  0  0  0  0
   -1.5295   -0.6894    0.0000 C   0  0  0  0  0  0  0  0  0  0  0  0
   -1.1170    1.4540    0.0000 C   0  0  0  0  0  0  0  0  0  0  0  0
    2.2150   -1.1019    0.0000 C   0  0  0  0  0  0  0  0  0  0  0  0
   -2.3545   -0.6894    0.0000 C   0  0  0  0  0  0  0  0  0  0  0  0
    1.4304   -0.0219    0.0000 C   0  0  0  0  0  0  0  0  0  0  0  0
    0.9455   -0.6894    0.0000 C   0  0  0  0  0  0  0  0  0  0  0  0
   -2.7670   -1.4038    0.0000 N   0  0  0  0  0  0  0  0  0  0  0  0
    0.1205   -0.6894    0.0000 N   0  0  0  0  0  0  0  0  0  0  0  0
   -1.5295    3.5975    0.0000 O   0  0  0  0  0  0  0  0  0  0  0  0
    1.1755    0.7627    0.0000 O   0  0  0  0  0  0  0  0  0  0  0  0
   -3.5920   -1.4038    0.0000 O   0  0  0  0  0  0  0  0  0  0  0  0
   -2.7670    0.0251    0.0000 O   0  0  0  0  0  0  0  0  0  0  0  0
    0.1205    0.7396    0.0000 O   0  0  0  0  0  0  0  0  0  0  0  0
  1 11  2  0
  1 17  1  0
  2  8  1  0
  2 12  2  0
  3 13  2  0
  3 16  1  0
  4  7  2  0
  4 13  1  0
  5  7  1  0
  5 16  2  0
 10  6  1  1
  6 16  1  0
  7 23  1  0
  8 17  2  0
  8 20  1  0
  9 10  1  0
  9 22  1  0
  9 27  2  0
 10 15  1  0
 11 12  1  0
 14 17  1  0
 14 19  1  0
 15 18  1  0
 18 21  1  0
 18 26  2  0
 19 20  1  0
 19 24  1  6
 20 22  1  6
 21 25  1  0
M  END
>  <DRUGBANK_ID>  (1) 
DB06837

>  <COMMON_NAME>  (1) 
(2R)-N~4~-hydroxy-2-(3-hydroxybenzyl)-N~1~-[(1S,2R)-2-hydroxy-2,3-dihydro-1H-inden-1-yl]butanediamide

$$$$
