
     RDKit          2D

 28 29  0  0  0  0  0  0  0  0999 V2000
   -2.0415    0.8318    0.0000 C   0  0  0  0  0  0  0  0  0  0  0  0
   -2.4539    0.1174    0.0000 C   0  0  0  0  0  0  0  0  0  0  0  0
   -2.0414   -0.5971    0.0000 C   0  0  0  0  0  0  0  0  0  0  0  0
   -1.2164   -0.5971    0.0000 C   0  0  0  0  0  0  0  0  0  0  0  0
   -0.8039    0.1173    0.0000 C   0  0  0  0  0  0  0  0  0  0  0  0
   -1.2164    0.8318    0.0000 C   0  0  0  0  0  0  0  0  0  0  0  0
    0.0210    0.1173    0.0000 C   0  0  0  0  0  0  0  0  0  0  0  0
    0.4335   -0.5970    0.0000 C   0  0  0  0  0  0  0  0  0  0  0  0
    1.2586   -0.5971    0.0000 N   0  0  0  0  0  0  0  0  0  0  0  0
    1.6711    0.1172    0.0000 C   0  0  0  0  0  0  0  0  0  0  0  0
    1.2586    0.8317    0.0000 C   0  0  0  0  0  0  0  0  0  0  0  0
    0.4335    0.8318    0.0000 C   0  0  0  0  0  0  0  0  0  0  0  0
   -2.4540    1.5463    0.0000 C   0  0  0  0  0  0  0  0  0  0  0  0
   -3.2790    1.5463    0.0000 C   0  0  0  0  0  0  0  0  0  0  0  0
   -2.0415    2.2608    0.0000 C   0  0  0  0  0  0  0  0  0  0  0  0
   -2.8665    2.2608    0.0000 C   0  0  0  0  0  0  0  0  0  0  0  0
   -2.4539   -1.3115    0.0000 C   0  0  0  0  0  0  0  0  0  0  0  0
   -3.2789   -1.3115    0.0000 N   0  0  0  0  0  0  0  0  0  0  0  0
   -3.6914   -2.0260    0.0000 C   0  0  0  0  0  0  0  0  0  0  0  0
   -4.5164   -2.0260    0.0000 C   0  0  0  0  0  0  0  0  0  0  0  0
   -3.2789   -2.7405    0.0000 C   0  0  0  0  0  0  0  0  0  0  0  0
   -4.1039   -2.7404    0.0000 C   0  0  0  0  0  0  0  0  0  0  0  0
   -0.8039   -1.3116    0.0000 O   0  0  0  0  0  0  0  0  0  0  0  0
    1.6712    1.5462    0.0000 F   0  0  0  0  0  0  0  0  0  0  0  0
    2.4961    0.1172    0.0000 C   0  0  0  0  0  0  0  0  0  0  0  0
    2.9086   -0.5972    0.0000 F   0  0  0  0  0  0  0  0  0  0  0  0
    2.9086    0.8316    0.0000 F   0  0  0  0  0  0  0  0  0  0  0  0
    3.3211    0.1171    0.0000 F   0  0  0  0  0  0  0  0  0  0  0  0
  1  2  2  0
  1 13  1  0
  2  3  1  0
  3  4  2  0
  3 17  1  0
  4  5  1  0
  4 23  1  0
  5  6  2  0
  5  7  1  0
  6  1  1  0
  7  8  2  0
  8  9  1  0
  9 10  2  0
 10 11  1  0
 10 25  1  0
 11 12  2  0
 11 24  1  0
 12  7  1  0
 13 14  1  0
 13 15  1  0
 13 16  1  0
 17 18  1  0
 18 19  1  0
 19 20  1  0
 19 21  1  0
 19 22  1  0
 25 27  1  0
 25 28  1  0
 25 26  1  0
M  END
>  <DRUGBANK_ID>  (1) 
DB15609

>  <COMMON_NAME>  (1) 
JPC-3210

>  <CAS_NUMBER>  (1) 
1609655-35-7

$$$$
