
     RDKit          2D

 26 28  0  0  0  0  0  0  0  0999 V2000
   -0.7557    0.6468    0.0000 C   0  0  0  0  0  0  0  0  0  0  0  0
   -0.7557   -1.0033    0.0000 N   0  0  0  0  0  0  0  0  0  0  0  0
   -0.0412    0.2342    0.0000 C   0  0  0  0  0  0  0  0  0  0  0  0
   -1.4703    0.2342    0.0000 C   0  0  0  0  0  0  0  0  0  0  0  0
   -0.0412   -0.5908    0.0000 C   0  0  0  0  0  0  0  0  0  0  0  0
   -1.4703   -0.5908    0.0000 C   0  0  0  0  0  0  0  0  0  0  0  0
   -0.7573   -1.8191    0.0000 C   0  0  0  0  0  0  0  0  0  0  0  0
    2.1015   -0.9958    0.0000 C   0  0  0  0  0  0  0  0  0  0  0  0
    0.6718   -1.8200    0.0000 C   0  0  0  0  0  0  0  0  0  0  0  0
    2.8163   -0.5837    0.0000 N   0  0  0  0  0  0  0  0  0  0  0  0
   -0.0429   -2.2322    0.0000 C   0  0  0  0  0  0  0  0  0  0  0  0
    2.1010   -1.8209    0.0000 C   0  0  0  0  0  0  0  0  0  0  0  0
    1.3872   -0.5828    0.0000 C   0  0  0  0  0  0  0  0  0  0  0  0
    1.3861   -2.2331    0.0000 C   0  0  0  0  0  0  0  0  0  0  0  0
    0.6724   -0.9949    0.0000 C   0  0  0  0  0  0  0  0  0  0  0  0
   -0.0688    1.8365    0.0000 O   0  0  0  0  0  0  0  0  0  0  0  0
   -0.0688    1.0433    0.0000 C   0  0  0  0  0  0  0  0  0  0  0  0
   -1.4426    1.8365    0.0000 C   0  0  0  0  0  0  0  0  0  0  0  0
   -1.4426    1.0433    0.0000 C   0  0  0  0  0  0  0  0  0  0  0  0
   -2.1295    2.2331    0.0000 C   0  0  0  0  0  0  0  0  0  0  0  0
   -2.8163    1.8364    0.0000 C   0  0  0  0  0  0  0  0  0  0  0  0
   -2.1295    0.6468    0.0000 C   0  0  0  0  0  0  0  0  0  0  0  0
   -2.8163    1.0433    0.0000 C   0  0  0  0  0  0  0  0  0  0  0  0
    0.6180    0.6468    0.0000 O   0  0  0  0  0  0  0  0  0  0  0  0
    1.3049    1.0433    0.0000 C   0  0  0  0  0  0  0  0  0  0  0  0
    1.9917    0.6467    0.0000 C   0  0  0  0  0  0  0  0  0  0  0  0
  1 17  1  0
  3  1  1  0
  4  1  1  0
  5  2  1  0
  5  3  1  0
  6  2  1  0
  6  4  1  0
  7  2  1  0
 10  8  1  0
 11  7  1  0
 11  9  1  0
 12  8  2  0
 13  8  1  0
 14  9  2  0
 14 12  1  0
 15  9  1  0
 15 13  2  0
 17 16  2  0
 17 24  1  0
 19  1  1  0
 19 18  2  0
 20 18  1  0
 21 20  2  0
 22 19  1  0
 23 21  1  0
 23 22  2  0
 24 25  1  0
 25 26  1  0
M  END
>  <DRUGBANK_ID>  (1) 
DB00913

>  <SECONDARY_ACCESSION_NUMBERS>  (1) 
APRD00741

>  <COMMON_NAME>  (1) 
Anileridine

>  <CAS_NUMBER>  (1) 
144-14-9

>  <UNII>  (1) 
71Q1A3O279

>  <SYNONYMS>  (1) 
1-[2-(4-aminophenyl)ethyl]-4-phenyl-4-piperidinecarboxlic acid ethyl ester; Anileridina; Anileridine; Anileridinum; ethyl 1-(2-(4-aminophenyl)ethyl)-4-phenyl-4-piperidinecarboxylate; ethyl 1-(4-aminophenethyl)-4-phenylisonipecotate; ethyl 1-(p-aminophenethyl)-4-phenylisonipecotate; N-(β-(p-aminophenyl)ethyl)-4-phenyl-4-carbethoxypiperidine; N-β-(p-aminophenyl)ethylnormeperidine

$$$$
