HAZ
     RDKit          2D

 33 36  0  0  0  0  0  0  0  0999 V2000
   -6.8720   -1.5219    0.0000 O   0  0  0  0  0  0  0  0  0  0  0  0
   -6.1575   -1.1094    0.0000 C   0  0  0  0  0  0  0  0  0  0  0  0
   -6.1575   -0.2844    0.0000 O   0  0  0  0  0  0  0  0  0  0  0  0
   -4.0141   -1.5219    0.0000 C   0  0  0  0  0  0  0  0  0  0  0  0
   -4.7286   -1.1094    0.0000 C   0  0  0  0  0  0  0  0  0  0  0  0
   -5.4430   -1.5219    0.0000 C   0  0  0  0  0  0  0  0  0  0  0  0
   -3.2996   -1.1094    0.0000 C   0  0  0  0  0  0  0  0  0  0  0  0
   -3.2996   -0.2844    0.0000 O   0  0  0  0  0  0  0  0  0  0  0  0
   -2.5852   -1.5219    0.0000 N   0  0  0  0  0  0  0  0  0  0  0  0
   -0.4417   -0.2844    0.0000 C   0  0  0  0  0  0  0  0  0  0  0  0
   -0.4417   -1.1094    0.0000 C   0  0  0  0  0  0  0  0  0  0  0  0
   -1.1562   -1.5219    0.0000 C   0  0  0  0  0  0  0  0  0  0  0  0
   -1.8707   -1.1094    0.0000 C   0  0  0  0  0  0  0  0  0  0  0  0
   -1.8707   -0.2844    0.0000 C   0  0  0  0  0  0  0  0  0  0  0  0
   -1.1562    0.1281    0.0000 C   0  0  0  0  0  0  0  0  0  0  0  0
    0.2727    0.1281    0.0000 N   0  0  0  0  0  0  0  0  0  0  0  0
    0.9872   -0.2844    0.0000 C   0  0  0  0  0  0  0  0  0  0  0  0
    0.9872   -1.1094    0.0000 O   0  0  0  0  0  0  0  0  0  0  0  0
    4.0411    0.0021    0.0000 C   0  0  0  0  0  0  0  0  0  0  0  0
    3.5108    0.6341    0.0000 C   0  0  0  0  0  0  0  0  0  0  0  0
    3.1194    2.8538    0.0000 C   0  0  0  0  0  0  0  0  0  0  0  0
    4.3232    0.7773    0.0000 C   0  0  0  0  0  0  0  0  0  0  0  0
    3.7589   -0.7732    0.0000 C   0  0  0  0  0  0  0  0  0  0  0  0
    2.9464   -0.9164    0.0000 C   0  0  0  0  0  0  0  0  0  0  0  0
    1.8858   -0.9164    0.0000 O   0  0  0  0  0  0  0  0  0  0  0  0
    1.7017    0.1281    0.0000 C   0  0  0  0  0  0  0  0  0  0  0  0
    2.4161   -0.2844    0.0000 N   0  0  0  0  0  0  0  0  0  0  0  0
    2.6983    0.4908    0.0000 C   0  0  0  0  0  0  0  0  0  0  0  0
    2.1680    1.1228    0.0000 C   0  0  0  0  0  0  0  0  0  0  0  0
    2.4502    1.8980    0.0000 C   0  0  0  0  0  0  0  0  0  0  0  0
    3.2626    2.0413    0.0000 C   0  0  0  0  0  0  0  0  0  0  0  0
    3.7929    1.4093    0.0000 C   0  0  0  0  0  0  0  0  0  0  0  0
    4.0751    2.1846    0.0000 O   0  0  0  0  0  0  0  0  0  0  0  0
  1  2  2  0
  2  3  1  0
  2  6  1  0
  4  5  1  0
  4  7  1  0
  5  6  1  0
  7  8  2  0
  7  9  1  0
  9 13  1  0
 10 11  2  0
 10 15  1  0
 10 16  1  0
 11 12  1  0
 12 13  2  0
 13 14  1  0
 14 15  2  0
 16 17  1  0
 17 18  2  0
 17 26  1  0
 19 20  1  0
 19 23  1  0
 20 22  1  6
 20 28  1  0
 20 32  1  0
 23 24  1  0
 24 27  1  0
 27 25  1  1
 27 26  1  0
 27 28  1  0
 28 29  1  6
 29 30  1  0
 30 31  1  0
 31 21  1  6
 31 32  1  0
 31 33  1  0
 32 33  1  1
M  CHG  2  25  -1  27   1
M  END
>  <DRUGBANK_ID>  (1) 
DB07882

>  <COMMON_NAME>  (1) 
4-{4-[2-(1A,7A-DIMETHYL-4-OXY-OCTAHYDRO-1-OXA-4-AZA-CYCLOPROPA[A]NAPHTHALEN-4-YL) -ACETYLAMINO]-PHENYLCARBAMOYL}-BUTYRIC ACID

$$$$
