1PL
     RDKit          2D

 17 19  0  0  0  0  0  0  0  0999 V2000
    0.4200   -1.1401    0.0000 C   0  0  0  0  0  0  0  0  0  0  0  0
   -0.0649   -0.4726    0.0000 C   0  0  0  0  0  0  0  0  0  0  0  0
   -0.8899   -0.4726    0.0000 C   0  0  0  0  0  0  0  0  0  0  0  0
   -1.1448    0.3120    0.0000 C   0  0  0  0  0  0  0  0  0  0  0  0
   -0.4774    0.7969    0.0000 C   0  0  0  0  0  0  0  0  0  0  0  0
    0.1900    0.3120    0.0000 C   0  0  0  0  0  0  0  0  0  0  0  0
    0.4450   -0.4726    0.0000 C   0  0  0  0  0  0  0  0  0  0  0  0
    1.2700   -0.4726    0.0000 C   0  0  0  0  0  0  0  0  0  0  0  0
    2.0769   -0.6441    0.0000 C   0  0  0  0  0  0  0  0  0  0  0  0
    1.1837   -1.2931    0.0000 C   0  0  0  0  0  0  0  0  0  0  0  0
    1.5249    0.3120    0.0000 C   0  0  0  0  0  0  0  0  0  0  0  0
    0.8575    0.7969    0.0000 C   0  0  0  0  0  0  0  0  0  0  0  0
    0.6025    1.5816    0.0000 C   0  0  0  0  0  0  0  0  0  0  0  0
   -0.2225    1.5816    0.0000 C   0  0  0  0  0  0  0  0  0  0  0  0
   -0.7074    2.2490    0.0000 C   0  0  0  0  0  0  0  0  0  0  0  0
   -1.5279    2.1628    0.0000 O   0  0  0  0  0  0  0  0  0  0  0  0
   -0.3718    3.0027    0.0000 O   0  0  0  0  0  0  0  0  0  0  0  0
  2  1  1  1
  2  3  1  0
  2  6  1  0
  3  4  1  0
  5  4  1  6
  5 14  1  0
  6  5  1  0
  6 12  1  0
  6  7  1  1
  7  8  1  0
  8 10  1  0
  8 11  1  0
  9  8  1  0
 12 11  1  1
 12 13  1  0
 14 13  2  0
 14 15  1  0
 15 16  1  0
 17 15  2  0
M  END
>  <DRUGBANK_ID>  (1) 
DB06903

>  <COMMON_NAME>  (1) 
(1S,3aS,5aR,8aS)-1,7,7-trimethyl-1,2,3,3a,5a,6,7,8-octahydrocyclopenta[c]pentalene-4-carboxylic acid

$$$$
