
     RDKit          2D

 11 11  0  0  1  0  0  0  0  0999 V2000
    1.4289    0.8250    0.0000 C   0  0  0  0  0  0  0  0  0  0  0  0
    0.7145   -1.2375    0.0000 C   0  0  0  0  0  0  0  0  0  0  0  0
    0.7145    1.2375    0.0000 C   0  0  0  0  0  0  0  0  0  0  0  0
    1.4289   -0.0000    0.0000 C   0  0  0  0  0  0  0  0  0  0  0  0
    0.7145   -0.4125    0.0000 C   0  0  0  0  0  0  0  0  0  0  0  0
    0.0000    0.8250    0.0000 C   0  0  0  0  0  0  0  0  0  0  0  0
    0.7145    2.0625    0.0000 N   0  0  0  0  0  0  0  0  0  0  0  0
    1.4289   -1.6500    0.0000 O   0  0  0  0  0  0  0  0  0  0  0  0
    2.1434   -0.4125    0.0000 O   0  0  0  0  0  0  0  0  0  0  0  0
   -0.7145    1.2375    0.0000 O   0  0  0  0  0  0  0  0  0  0  0  0
    0.0000    0.0000    0.0000 O   0  0  0  0  0  0  0  0  0  0  0  0
  3  1  1  0
  3  7  1  6
  4  1  1  0
  4  9  1  6
  5  2  1  1
  5  4  1  0
  6  3  1  0
  6 10  1  6
  8  2  1  0
 11  5  1  0
 11  6  1  0
M  END
>  <DRUGBANK_ID>  (1) 
DB02700

>  <SECONDARY_ACCESSION_NUMBERS>  (1) 
EXPT01559

>  <COMMON_NAME>  (1) 
3-Deoxy-D-Glucosamine

$$$$
