
     RDKit          2D

 16 17  0  0  0  0  0  0  0  0999 V2000
    0.6611    0.6353    0.0000 C   0  0  0  0  0  0  0  0  0  0  0  0
    0.6611   -0.1901    0.0000 C   0  0  0  0  0  0  0  0  0  0  0  0
   -0.0531    1.0442    0.0000 C   0  0  0  0  0  0  0  0  0  0  0  0
    1.3728    1.0442    0.0000 N   0  0  0  0  0  0  0  0  0  0  0  0
   -0.0400   -0.5887    0.0000 C   0  0  0  0  0  0  0  0  0  0  0  0
    1.3832   -0.5887    0.0000 C   0  0  0  0  0  0  0  0  0  0  0  0
   -0.7569    0.6353    0.0000 C   0  0  0  0  0  0  0  0  0  0  0  0
    2.1052    0.6353    0.0000 C   0  0  0  0  0  0  0  0  0  0  0  0
   -0.7569   -0.1901    0.0000 C   0  0  0  0  0  0  0  0  0  0  0  0
    2.1052   -0.1901    0.0000 C   0  0  0  0  0  0  0  0  0  0  0  0
    1.3832   -1.4143    0.0000 C   0  0  0  0  0  0  0  0  0  0  0  0
    2.3769    1.4143    0.0000 C   0  0  0  0  0  0  0  0  0  0  0  0
    2.9204    0.4904    0.0000 C   0  0  0  0  0  0  0  0  0  0  0  0
   -1.4789   -0.5965    0.0000 O   0  0  0  0  0  0  0  0  0  0  0  0
   -2.1907   -0.1901    0.0000 C   0  0  0  0  0  0  0  0  0  0  0  0
   -2.9204   -0.6069    0.0000 C   0  0  0  0  0  0  0  0  0  0  0  0
  1  2  1  0
  1  3  2  0
  1  4  1  0
  2  5  2  0
  2  6  1  0
  3  7  1  0
  4  8  1  0
  5  9  1  0
  6 10  2  0
  6 11  1  0
  7  9  2  0
  8 12  1  0
  8 13  1  0
  8 10  1  0
  9 14  1  0
 14 15  1  0
 15 16  1  0
M  END
>  <DRUGBANK_ID>  (1) 
DB16866

>  <COMMON_NAME>  (1) 
Ethoxyquin

>  <CAS_NUMBER>  (1) 
91-53-2

>  <UNII>  (1) 
9T1410R4OR

>  <SYNONYMS>  (1) 
6-Ethoxy-2,2,4-trimethyl-1,2-dihydroquinoline

$$$$
