4PN
     RDKit          2D

 12 13  0  0  0  0  0  0  0  0999 V2000
    1.0134    0.2130    0.0000 C   0  0  0  0  0  0  0  0  0  0  0  0
    1.7277   -0.1995    0.0000 C   0  0  0  0  0  0  0  0  0  0  0  0
    1.7277   -1.0245    0.0000 C   0  0  0  0  0  0  0  0  0  0  0  0
    1.0134   -1.4369    0.0000 C   0  0  0  0  0  0  0  0  0  0  0  0
    0.2989   -1.0245    0.0000 C   0  0  0  0  0  0  0  0  0  0  0  0
    0.2989   -0.1995    0.0000 N   0  0  0  0  0  0  0  0  0  0  0  0
   -0.4155    0.2130    0.0000 C   0  0  0  0  0  0  0  0  0  0  0  0
   -1.1301   -0.1995    0.0000 C   0  0  0  0  0  0  0  0  0  0  0  0
   -1.8444    0.2130    0.0000 C   0  0  0  0  0  0  0  0  0  0  0  0
   -1.8444    1.0380    0.0000 N   0  0  0  0  0  0  0  0  0  0  0  0
   -1.1301    1.4504    0.0000 C   0  0  0  0  0  0  0  0  0  0  0  0
   -0.4155    1.0380    0.0000 C   0  0  0  0  0  0  0  0  0  0  0  0
  1  2  1  0
  1  6  1  0
  2  3  1  0
  3  4  1  0
  4  5  1  0
  5  6  1  0
  6  7  1  0
  7  8  1  0
  7 12  1  0
  8  9  1  0
  9 10  1  0
 10 11  1  0
 11 12  1  0
M  END
>  <DRUGBANK_ID>  (1) 
DB03056

>  <SECONDARY_ACCESSION_NUMBERS>  (1) 
EXPT00227

>  <COMMON_NAME>  (1) 
4-Piperidino-Piperidine

>  <UNII>  (1) 
WBP6BM27HP

$$$$
