ATU
     RDKit          2D

 22 25  0  0  0  0  0  0  0  0999 V2000
    1.7699   -1.2801    0.0000 N   0  0  0  0  0  0  0  0  0  0  0  0
    1.0232   -1.6311    0.0000 C   0  0  0  0  0  0  0  0  0  0  0  0
    0.2833   -1.2662    0.0000 C   0  0  0  0  0  0  0  0  0  0  0  0
    1.0155   -2.4561    0.0000 O   0  0  0  0  0  0  0  0  0  0  0  0
    1.4527    0.1722    0.0000 C   0  0  0  0  0  0  0  0  0  0  0  0
    1.9610   -0.4776    0.0000 C   0  0  0  0  0  0  0  0  0  0  0  0
    2.7779   -0.3623    0.0000 C   0  0  0  0  0  0  0  0  0  0  0  0
    3.0865    0.4029    0.0000 C   0  0  0  0  0  0  0  0  0  0  0  0
    2.5782    1.0527    0.0000 C   0  0  0  0  0  0  0  0  0  0  0  0
    1.7613    0.9373    0.0000 C   0  0  0  0  0  0  0  0  0  0  0  0
    0.1797    0.8727    0.0000 N   0  0  0  0  0  0  0  0  0  0  0  0
    0.1073   -0.4602    0.0000 C   0  0  0  0  0  0  0  0  0  0  0  0
    0.6277    0.1800    0.0000 C   0  0  0  0  0  0  0  0  0  0  0  0
   -0.6623   -0.1631    0.0000 C   0  0  0  0  0  0  0  0  0  0  0  0
   -0.6176    0.6607    0.0000 C   0  0  0  0  0  0  0  0  0  0  0  0
   -1.3087    1.1113    0.0000 C   0  0  0  0  0  0  0  0  0  0  0  0
   -2.0444    0.7382    0.0000 C   0  0  0  0  0  0  0  0  0  0  0  0
   -2.0892   -0.0856    0.0000 C   0  0  0  0  0  0  0  0  0  0  0  0
   -1.3981   -0.5362    0.0000 C   0  0  0  0  0  0  0  0  0  0  0  0
   -2.8250   -0.4588    0.0000 N   0  0  0  0  0  0  0  0  0  0  0  0
   -2.8697   -1.2825    0.0000 O   0  0  0  0  0  0  0  0  0  0  0  0
   -3.5160   -0.0081    0.0000 O   0  0  0  0  0  0  0  0  0  0  0  0
  1  2  1  0
  1  6  1  0
  2  3  1  0
  2  4  2  0
  3 12  1  0
  5  6  2  0
  5 10  1  0
  5 13  1  0
  6  7  1  0
  7  8  2  0
  8  9  1  0
  9 10  2  0
 11 13  1  0
 11 15  1  0
 12 13  2  0
 12 14  1  0
 14 15  2  0
 14 19  1  0
 15 16  1  0
 16 17  2  0
 17 18  1  0
 18 19  2  0
 18 20  1  0
 20 21  2  0
 20 22  1  0
M  CHG  2  20   1  22  -1
M  END
>  <DRUGBANK_ID>  (1) 
DB04014

>  <SECONDARY_ACCESSION_NUMBERS>  (1) 
EXPT00590

>  <COMMON_NAME>  (1) 
Alsterpaullone

$$$$
