N8E
     RDKit          2D

 24 23  0  0  0  0  0  0  0  0999 V2000
   -7.7137   -0.1846    0.0000 C   0  0  0  0  0  0  0  0  0  0  0  0
   -6.9992    0.2279    0.0000 C   0  0  0  0  0  0  0  0  0  0  0  0
   -6.2847   -0.1846    0.0000 C   0  0  0  0  0  0  0  0  0  0  0  0
   -5.5701    0.2279    0.0000 C   0  0  0  0  0  0  0  0  0  0  0  0
   -4.8556   -0.1846    0.0000 C   0  0  0  0  0  0  0  0  0  0  0  0
   -4.1411    0.2279    0.0000 C   0  0  0  0  0  0  0  0  0  0  0  0
   -3.4266   -0.1846    0.0000 C   0  0  0  0  0  0  0  0  0  0  0  0
   -2.7120    0.2279    0.0000 C   0  0  0  0  0  0  0  0  0  0  0  0
   -1.9975   -0.1846    0.0000 O   0  0  0  0  0  0  0  0  0  0  0  0
   -1.2830    0.2279    0.0000 C   0  0  0  0  0  0  0  0  0  0  0  0
   -0.5684   -0.1846    0.0000 C   0  0  0  0  0  0  0  0  0  0  0  0
    0.1461    0.2279    0.0000 O   0  0  0  0  0  0  0  0  0  0  0  0
    0.8606   -0.1846    0.0000 C   0  0  0  0  0  0  0  0  0  0  0  0
    1.5751    0.2279    0.0000 C   0  0  0  0  0  0  0  0  0  0  0  0
    2.2897   -0.1846    0.0000 O   0  0  0  0  0  0  0  0  0  0  0  0
    3.0041    0.2279    0.0000 C   0  0  0  0  0  0  0  0  0  0  0  0
    3.7187   -0.1846    0.0000 C   0  0  0  0  0  0  0  0  0  0  0  0
    4.4332    0.2279    0.0000 O   0  0  0  0  0  0  0  0  0  0  0  0
    5.1477   -0.1846    0.0000 C   0  0  0  0  0  0  0  0  0  0  0  0
    5.8622    0.2279    0.0000 C   0  0  0  0  0  0  0  0  0  0  0  0
    6.5768   -0.1846    0.0000 O   0  0  0  0  0  0  0  0  0  0  0  0
    7.2913    0.2279    0.0000 C   0  0  0  0  0  0  0  0  0  0  0  0
    8.0058   -0.1846    0.0000 C   0  0  0  0  0  0  0  0  0  0  0  0
    8.7203    0.2279    0.0000 O   0  0  0  0  0  0  0  0  0  0  0  0
  1  2  1  0
  2  3  1  0
  3  4  1  0
  4  5  1  0
  5  6  1  0
  6  7  1  0
  7  8  1  0
  8  9  1  0
  9 10  1  0
 10 11  1  0
 11 12  1  0
 12 13  1  0
 13 14  1  0
 14 15  1  0
 15 16  1  0
 16 17  1  0
 17 18  1  0
 18 19  1  0
 19 20  1  0
 20 21  1  0
 21 22  1  0
 22 23  1  0
 23 24  1  0
M  END
>  <DRUGBANK_ID>  (1) 
DB08249

>  <COMMON_NAME>  (1) 
3,6,9,12,15-PENTAOXATRICOSAN-1-OL

>  <UNII>  (1) 
85FR004F9B

$$$$
