SX3
     RDKit          2D

 18 19  0  0  0  0  0  0  0  0999 V2000
    0.0891    3.4606    0.0000 Br  0  0  0  0  0  0  0  0  0  0  0  0
    0.0891    2.6356    0.0000 C   0  0  0  0  0  0  0  0  0  0  0  0
   -0.6254    2.2231    0.0000 C   0  0  0  0  0  0  0  0  0  0  0  0
    0.8035    2.2231    0.0000 C   0  0  0  0  0  0  0  0  0  0  0  0
    0.8035    1.3981    0.0000 C   0  0  0  0  0  0  0  0  0  0  0  0
    0.0891    0.9856    0.0000 C   0  0  0  0  0  0  0  0  0  0  0  0
    0.0891    0.1606    0.0000 N   0  0  0  0  0  0  0  0  0  0  0  0
   -0.6254    1.3981    0.0000 C   0  0  0  0  0  0  0  0  0  0  0  0
   -1.3399    0.9856    0.0000 C   0  0  0  0  0  0  0  0  0  0  0  0
   -2.0544    1.3981    0.0000 O   0  0  0  0  0  0  0  0  0  0  0  0
   -1.3399    0.1606    0.0000 N   0  0  0  0  0  0  0  0  0  0  0  0
   -2.0544   -0.2519    0.0000 C   0  0  0  0  0  0  0  0  0  0  0  0
   -2.0544   -1.0769    0.0000 C   0  0  0  0  0  0  0  0  0  0  0  0
   -2.7688   -1.4894    0.0000 C   0  0  0  0  0  0  0  0  0  0  0  0
   -1.3399   -1.4894    0.0000 C   0  0  0  0  0  0  0  0  0  0  0  0
   -0.6254   -0.2519    0.0000 C   0  0  0  0  0  0  0  0  0  0  0  0
   -0.6254   -1.0769    0.0000 C   0  0  0  0  0  0  0  0  0  0  0  0
    0.0891   -1.4894    0.0000 C   0  0  0  0  0  0  0  0  0  0  0  0
  1  2  1  0
  2  4  2  0
  2  3  1  0
  3  8  2  0
  4  5  1  0
  5  6  2  0
  6  7  1  0
  8  6  1  0
  8  9  1  0
  9 11  1  0
  9 10  2  0
 11 16  1  0
 12 11  1  0
 13 12  1  0
 13 15  1  0
 13 14  1  1
 15 17  1  0
 17 16  1  0
 17 18  1  1
M  END
>  <DRUGBANK_ID>  (1) 
DB08579

>  <COMMON_NAME>  (1) 
4-bromo-2-{[(3R,5S)-3,5-dimethylpiperidin-1-yl]carbonyl}aniline

$$$$
