
     RDKit          2D

 29 30  0  0  0  0  0  0  0  0999 V2000
    2.2503   -3.0499    0.0000 P   0  0  0  0  0  0  0  0  0  0  0  0
    1.4813    1.3112    0.0000 O   0  0  0  0  0  0  0  0  0  0  0  0
    0.6355    3.3236    0.0000 O   0  0  0  0  0  0  0  0  0  0  0  0
    2.5450    2.2656    0.0000 O   0  0  0  0  0  0  0  0  0  0  0  0
    1.1732    0.3069    0.0000 O   0  0  0  0  0  0  0  0  0  0  0  0
    1.9938   -2.2657    0.0000 O   0  0  0  0  0  0  0  0  0  0  0  0
   -1.6284   -1.3431    0.0000 O   0  0  0  0  0  0  0  0  0  0  0  0
    3.0575    3.8341    0.0000 O   0  0  0  0  0  0  0  0  0  0  0  0
   -3.0575    1.1320    0.0000 O   0  0  0  0  0  0  0  0  0  0  0  0
    3.0344   -2.7936    0.0000 O   0  0  0  0  0  0  0  0  0  0  0  0
    2.5066   -3.8341    0.0000 O   0  0  0  0  0  0  0  0  0  0  0  0
    1.4660   -3.3062    0.0000 O   0  0  0  0  0  0  0  0  0  0  0  0
   -0.1333    0.9709    0.0000 N   0  0  0  0  0  0  0  0  0  0  0  0
   -0.1333   -0.3568    0.0000 N   0  0  0  0  0  0  0  0  0  0  0  0
   -1.6284    1.1320    0.0000 N   0  0  0  0  0  0  0  0  0  0  0  0
   -2.3431   -0.1055    0.0000 N   0  0  0  0  0  0  0  0  0  0  0  0
    0.1230    1.7552    0.0000 C   0  0  0  0  0  0  0  0  0  0  0  0
    0.9303    1.9253    0.0000 C   0  0  0  0  0  0  0  0  0  0  0  0
    1.1866    2.7096    0.0000 C   0  0  0  0  0  0  0  0  0  0  0  0
   -0.9140    0.7194    0.0000 C   0  0  0  0  0  0  0  0  0  0  0  0
   -0.9140   -0.1055    0.0000 C   0  0  0  0  0  0  0  0  0  0  0  0
    0.3481    0.3069    0.0000 C   0  0  0  0  0  0  0  0  0  0  0  0
    0.1230   -1.1411    0.0000 C   0  0  0  0  0  0  0  0  0  0  0  0
    1.9938    2.8797    0.0000 C   0  0  0  0  0  0  0  0  0  0  0  0
    0.9303   -1.3113    0.0000 C   0  0  0  0  0  0  0  0  0  0  0  0
   -1.6284   -0.5180    0.0000 C   0  0  0  0  0  0  0  0  0  0  0  0
    2.2503    3.6639    0.0000 C   0  0  0  0  0  0  0  0  0  0  0  0
   -2.3431    0.7194    0.0000 C   0  0  0  0  0  0  0  0  0  0  0  0
    1.1866   -2.0955    0.0000 C   0  0  0  0  0  0  0  0  0  0  0  0
  1  6  1  0
  1 10  1  0
  1 11  1  0
  1 12  2  0
  5 22  2  0
  6 29  1  0
  7 26  2  0
  8 27  1  0
  9 28  2  0
 13 17  1  0
 13 20  1  0
 13 22  1  0
 14 21  1  0
 14 22  1  0
 14 23  1  0
 15 20  1  0
 15 28  1  0
 16 26  1  0
 16 28  1  0
 17 18  1  0
 18  2  1  6
 18 19  1  0
 19  3  1  1
 19 24  1  0
 20 21  2  0
 21 26  1  0
 23 25  1  0
 24  4  1  1
 24 27  1  0
 25 29  1  0
M  END
>  <DRUGBANK_ID>  (1) 
DB03973

>  <SECONDARY_ACCESSION_NUMBERS>  (1) 
EXPT02995

>  <COMMON_NAME>  (1) 
3-[2,6,8-Trioxo-9-[(2R,3R,4R)-2,3,4,5-tetrahydroxypentyl]-3H-purin-7-yl]propyl dihydrogen phosphate

>  <SYNONYMS>  (1) 
5-Deoxy-5-{2,6,8-trioxo-7-[3-(phosphonooxy)propyl]-1,2,3,6,7,8-hexahydro-9H-purin-9-yl}-D-arabinitol

$$$$
