DMA
     RDKit          2D

 14 13  0  0  0  0  0  0  0  0999 V2000
   -0.6836   -0.6145    0.0000 C   0  0  0  0  0  0  0  0  0  0  0  0
    0.0309   -0.2021    0.0000 O   0  0  0  0  0  0  0  0  0  0  0  0
   -1.3981   -0.2021    0.0000 C   0  0  0  0  0  0  0  0  0  0  0  0
   -1.3981    0.6228    0.0000 C   0  0  0  0  0  0  0  0  0  0  0  0
   -2.1125    1.0354    0.0000 C   0  0  0  0  0  0  0  0  0  0  0  0
   -0.6836    1.0354    0.0000 C   0  0  0  0  0  0  0  0  0  0  0  0
    0.7453   -0.6145    0.0000 P   0  0  0  0  0  0  0  0  0  0  0  0
    0.3328   -1.3290    0.0000 O   0  0  0  0  0  0  0  0  0  0  0  0
    1.1578    0.0999    0.0000 O   0  0  0  0  0  0  0  0  0  0  0  0
    1.4598   -1.0271    0.0000 O   0  0  0  0  0  0  0  0  0  0  0  0
    2.1743   -0.6145    0.0000 P   0  0  0  0  0  0  0  0  0  0  0  0
    2.8887   -0.2021    0.0000 O   0  0  0  0  0  0  0  0  0  0  0  0
    2.5868   -1.3290    0.0000 O   0  0  0  0  0  0  0  0  0  0  0  0
    1.7617    0.0999    0.0000 O   0  0  0  0  0  0  0  0  0  0  0  0
  1  2  1  0
  1  3  1  0
  3  4  2  3
  4  5  1  0
  4  6  1  0
  7  2  1  0
  7  8  2  0
  7  9  1  0
  7 10  1  0
 10 11  1  0
 11 12  2  0
 11 13  1  0
 11 14  1  0
M  END
>  <DRUGBANK_ID>  (1) 
DB01785

>  <SECONDARY_ACCESSION_NUMBERS>  (1) 
EXPT01221

>  <COMMON_NAME>  (1) 
Dimethylallyl Diphosphate

>  <CAS_NUMBER>  (1) 
358-72-5

$$$$
