TL1
     RDKit          2D

 28 31  0  0  0  0  0  0  0  0999 V2000
   -3.0688   -3.8349    0.0000 N   0  0  0  0  0  0  0  0  0  0  0  0
   -2.2619   -3.6634    0.0000 C   0  0  0  0  0  0  0  0  0  0  0  0
   -1.7098   -4.2765    0.0000 N   0  0  0  0  0  0  0  0  0  0  0  0
   -2.0069   -2.8788    0.0000 C   0  0  0  0  0  0  0  0  0  0  0  0
   -2.5589   -2.2657    0.0000 C   0  0  0  0  0  0  0  0  0  0  0  0
   -2.3040   -1.4811    0.0000 C   0  0  0  0  0  0  0  0  0  0  0  0
   -1.4970   -1.3096    0.0000 C   0  0  0  0  0  0  0  0  0  0  0  0
   -0.9450   -1.9227    0.0000 C   0  0  0  0  0  0  0  0  0  0  0  0
   -0.1380   -1.7511    0.0000 O   0  0  0  0  0  0  0  0  0  0  0  0
    0.1169   -0.9665    0.0000 C   0  0  0  0  0  0  0  0  0  0  0  0
   -0.3680   -0.2991    0.0000 C   0  0  0  0  0  0  0  0  0  0  0  0
    0.1169    0.3684    0.0000 O   0  0  0  0  0  0  0  0  0  0  0  0
    0.9015    0.1134    0.0000 C   0  0  0  0  0  0  0  0  0  0  0  0
    1.6862    0.3684    0.0000 C   0  0  0  0  0  0  0  0  0  0  0  0
    1.9411    1.1530    0.0000 O   0  0  0  0  0  0  0  0  0  0  0  0
    1.3891    1.7661    0.0000 C   0  0  0  0  0  0  0  0  0  0  0  0
    0.5821    1.5946    0.0000 C   0  0  0  0  0  0  0  0  0  0  0  0
    0.0301    2.2077    0.0000 C   0  0  0  0  0  0  0  0  0  0  0  0
    0.2850    2.9923    0.0000 C   0  0  0  0  0  0  0  0  0  0  0  0
    1.0920    3.1638    0.0000 C   0  0  0  0  0  0  0  0  0  0  0  0
    1.3469    3.9484    0.0000 C   0  0  0  0  0  0  0  0  0  0  0  0
    0.7949    4.5615    0.0000 N   0  0  0  0  0  0  0  0  0  0  0  0
    2.1539    4.1200    0.0000 N   0  0  0  0  0  0  0  0  0  0  0  0
    1.6440    2.5507    0.0000 C   0  0  0  0  0  0  0  0  0  0  0  0
    2.1711   -0.2991    0.0000 C   0  0  0  0  0  0  0  0  0  0  0  0
    1.6862   -0.9665    0.0000 O   0  0  0  0  0  0  0  0  0  0  0  0
    0.9015   -0.7116    0.0000 C   0  0  0  0  0  0  0  0  0  0  0  0
   -1.1999   -2.7073    0.0000 C   0  0  0  0  0  0  0  0  0  0  0  0
  1  2  2  0
  2  3  1  0
  2  4  1  0
  4  5  2  0
  4 28  1  0
  5  6  1  0
  6  7  2  0
  7  8  1  0
  8  9  1  0
  8 28  2  0
 10  9  1  6
 10 11  1  0
 10 27  1  0
 11 12  1  0
 13 12  1  6
 13 14  1  0
 13 27  1  0
 14 15  1  1
 14 25  1  0
 15 16  1  0
 16 17  2  0
 16 24  1  0
 17 18  1  0
 18 19  2  0
 19 20  1  0
 20 21  1  0
 20 24  2  0
 21 22  2  0
 21 23  1  0
 25 26  1  0
 27 26  1  6
M  END
>  <DRUGBANK_ID>  (1) 
DB04790

>  <COMMON_NAME>  (1) 
2,5-bis-O-{3-[amino(imino)methyl]phenyl}-1,4:3,6-dianhydro-D-glucitol

>  <SYNONYMS>  (1) 
1,4:3,6-Dianhydro-2,5-bis-O-(3-carbamimidoylphenyl)-D-glucitol

$$$$
