
     RDKit          2D

 19 21  0  0  0  0  0  0  0  0999 V2000
   -1.1550    0.7128    0.0000 C   0  0  0  0  0  0  0  0  0  0  0  0
   -1.8744    0.3035    0.0000 C   0  0  0  0  0  0  0  0  0  0  0  0
   -1.8744   -0.5214    0.0000 C   0  0  0  0  0  0  0  0  0  0  0  0
   -1.1550   -0.9373    0.0000 C   0  0  0  0  0  0  0  0  0  0  0  0
   -0.4421   -0.5214    0.0000 C   0  0  0  0  0  0  0  0  0  0  0  0
   -0.4421    0.3035    0.0000 C   0  0  0  0  0  0  0  0  0  0  0  0
    0.8250   -0.1122    0.0000 C   0  0  0  0  0  0  0  0  0  0  0  0
    0.3431    0.5609    0.0000 N   0  0  0  0  0  0  0  0  0  0  0  0
    1.6500   -0.1122    0.0000 C   0  0  0  0  0  0  0  0  0  0  0  0
    3.3001   -0.1122    0.0000 C   0  0  0  0  0  0  0  0  0  0  0  0
    2.8909    0.6072    0.0000 C   0  0  0  0  0  0  0  0  0  0  0  0
    2.0659    0.6072    0.0000 C   0  0  0  0  0  0  0  0  0  0  0  0
    2.0659   -0.8250    0.0000 C   0  0  0  0  0  0  0  0  0  0  0  0
    0.3431   -0.7788    0.0000 N   0  0  0  0  0  0  0  0  0  0  0  0
    2.8909   -0.8250    0.0000 N   0  0  0  0  0  0  0  0  0  0  0  0
    1.6500   -1.5378    0.0000 O   0  0  0  0  0  0  0  0  0  0  0  0
   -2.5874    0.7128    0.0000 C   0  0  0  0  0  0  0  0  0  0  0  0
   -2.5874    1.5378    0.0000 N   0  0  0  0  0  0  0  0  0  0  0  0
   -3.3001    0.3035    0.0000 N   0  0  0  0  0  0  0  0  0  0  0  0
  1  2  2  0
  1  6  1  0
  2  3  1  0
  2 17  1  0
  3  4  2  0
  4  5  1  0
  5 14  1  0
  5  6  2  0
  6  8  1  0
  7  9  1  0
  7  8  2  0
  7 14  1  0
  9 13  1  0
  9 12  2  0
 10 15  1  0
 10 11  2  0
 11 12  1  0
 13 15  1  0
 13 16  2  0
 17 19  1  0
 17 18  2  0
M  CHG  1  18   1
M  END
>  <DRUGBANK_ID>  (1) 
DB04442

>  <SECONDARY_ACCESSION_NUMBERS>  (1) 
EXPT00015

>  <COMMON_NAME>  (1) 
Imino[2-(2-oxo-1,2-dihydro-3-pyridinyl)-1H-benzimidazol-5-yl]methanaminium

$$$$
