BAS
     RDKit          2D

 12 12  0  0  0  0  0  0  0  0999 V2000
   -0.7527    1.7072    0.0000 C   0  0  0  0  0  0  0  0  0  0  0  0
   -1.4672    2.1197    0.0000 O   0  0  0  0  0  0  0  0  0  0  0  0
   -0.7527    0.8822    0.0000 N   0  0  0  0  0  0  0  0  0  0  0  0
   -0.0382    0.4697    0.0000 C   0  0  0  0  0  0  0  0  0  0  0  0
    0.6762    0.8822    0.0000 C   0  0  0  0  0  0  0  0  0  0  0  0
    1.3907    0.4697    0.0000 C   0  0  0  0  0  0  0  0  0  0  0  0
   -0.0382   -0.3553    0.0000 C   0  0  0  0  0  0  0  0  0  0  0  0
    0.6762   -0.7678    0.0000 C   0  0  0  0  0  0  0  0  0  0  0  0
    0.6762   -1.5928    0.0000 C   0  0  0  0  0  0  0  0  0  0  0  0
   -0.0382   -2.0053    0.0000 C   0  0  0  0  0  0  0  0  0  0  0  0
   -0.7527   -1.5928    0.0000 C   0  0  0  0  0  0  0  0  0  0  0  0
   -0.7527   -0.7678    0.0000 C   0  0  0  0  0  0  0  0  0  0  0  0
  1  2  2  0
  1  3  1  0
  4  3  1  0
  4  5  1  6
  4  7  1  0
  5  6  1  0
  7  8  2  0
  7 12  1  0
  8  9  1  0
  9 10  2  0
 10 11  1  0
 11 12  2  0
M  END
>  <DRUGBANK_ID>  (1) 
DB07436

>  <COMMON_NAME>  (1) 
N-(1-PHENYL-PROPYL)-FORMAMIDE

$$$$
