
     RDKit          2D

 10  9  0  0  0  0  0  0  0  0999 V2000
    1.4289    0.2062    0.0000 C   0  0  0  0  0  0  0  0  0  0  0  0
    0.7145   -0.2062    0.0000 C   0  0  0  0  0  0  0  0  0  0  0  0
    0.0000    0.2062    0.0000 C   0  0  0  0  0  0  0  0  0  0  0  0
   -0.7145   -0.2062    0.0000 C   0  0  0  0  0  0  0  0  0  0  0  0
   -1.4289    0.2062    0.0000 C   0  0  0  0  0  0  0  0  0  0  0  0
   -2.1434   -0.2062    0.0000 O   0  0  0  0  0  0  0  0  0  0  0  0
    0.7145   -1.0312    0.0000 O   0  0  0  0  0  0  0  0  0  0  0  0
    0.0000    1.0312    0.0000 O   0  0  0  0  0  0  0  0  0  0  0  0
   -0.7145   -1.0312    0.0000 O   0  0  0  0  0  0  0  0  0  0  0  0
    1.4289    1.0312    0.0000 O   0  0  0  0  0  0  0  0  0  0  0  0
  2  1  1  0
  2  7  1  6
  3  2  1  0
  3  8  1  1
  3  4  1  0
  4  9  1  6
  4  5  1  0
  6  5  1  0
 10  1  2  0
M  END
>  <DRUGBANK_ID>  (1) 
DB15073

>  <COMMON_NAME>  (1) 
Ribose

>  <CAS_NUMBER>  (1) 
50-69-1

>  <UNII>  (1) 
681HV46001

>  <SYNONYMS>  (1) 
aldehydo-D-ribose; D-ribo-2,3,4,5-tetrahydroxyvaleraldehyde; D-Ribose; Ribose

$$$$
