
     RDKit          2D

 20 20  0  0  0  0  0  0  0  0999 V2000
   -0.3572   -0.8864    0.0000 O   0  0  0  0  0  0  0  0  0  0  0  0
    0.3572    1.1760    0.0000 O   0  0  0  0  0  0  0  0  0  0  0  0
    1.0717   -0.8864    0.0000 O   0  0  0  0  0  0  0  0  0  0  0  0
    2.5006   -0.0614    0.0000 O   0  0  0  0  0  0  0  0  0  0  0  0
   -2.3091    1.8905    0.0000 O   0  0  0  0  0  0  0  0  0  0  0  0
   -1.7861   -2.5364    0.0000 O   0  0  0  0  0  0  0  0  0  0  0  0
   -0.3572   -2.5364    0.0000 O   0  0  0  0  0  0  0  0  0  0  0  0
   -1.0716    1.1760    0.0000 N   0  0  0  0  0  0  0  0  0  0  0  0
   -2.5006    0.3510    0.0000 N   0  0  0  0  0  0  0  0  0  0  0  0
   -0.3572   -0.0614    0.0000 C   0  0  0  0  0  0  0  0  0  0  0  0
   -1.0716    0.3510    0.0000 C   0  0  0  0  0  0  0  0  0  0  0  0
    0.3572    0.3510    0.0000 C   0  0  0  0  0  0  0  0  0  0  0  0
   -1.7861   -0.0614    0.0000 C   0  0  0  0  0  0  0  0  0  0  0  0
    1.0717   -0.0614    0.0000 C   0  0  0  0  0  0  0  0  0  0  0  0
   -1.7861   -0.8864    0.0000 C   0  0  0  0  0  0  0  0  0  0  0  0
   -1.0716   -1.2989    0.0000 C   0  0  0  0  0  0  0  0  0  0  0  0
    1.7862    0.3510    0.0000 C   0  0  0  0  0  0  0  0  0  0  0  0
   -1.4841    1.8904    0.0000 C   0  0  0  0  0  0  0  0  0  0  0  0
   -1.0716   -2.1239    0.0000 C   0  0  0  0  0  0  0  0  0  0  0  0
   -1.0716    2.6049    0.0000 C   0  0  0  0  0  0  0  0  0  0  0  0
 10  1  1  6
  1 16  1  0
  4 17  1  0
  5 18  2  0
  6 19  1  0
  7 19  2  0
  8 18  1  0
 10 11  1  0
 10 12  1  0
 11  8  1  1
 11 13  1  0
 12  2  1  6
 12 14  1  0
 13  9  1  6
 13 15  1  0
 14  3  1  1
 14 17  1  0
 15 16  2  0
 16 19  1  0
 18 20  1  0
M  END
>  <DRUGBANK_ID>  (1) 
DB03321

>  <SECONDARY_ACCESSION_NUMBERS>  (1) 
EXPT00202

>  <COMMON_NAME>  (1) 
Des(carbamimidoyl) zanamivir

>  <CAS_NUMBER>  (1) 
130525-62-1

>  <UNII>  (1) 
OE4L5BBV9M

>  <SYNONYMS>  (1) 
4-AM-DANA; 4-Amino-2-deoxy-2,3-dehydro-N-neuraminic acid; 4-amino-4-deoxy-Neu5Ac2en

$$$$
