
     RDKit          2D

 22 23  0  0  0  0  0  0  0  0999 V2000
   -0.9254    0.6544    0.0000 C   0  0  0  0  0  0  0  0  0  0  0  0
   -0.2108    1.0667    0.0000 C   0  0  0  0  0  0  0  0  0  0  0  0
    0.5009    0.6548    0.0000 C   0  0  0  0  0  0  0  0  0  0  0  0
    0.5009   -0.1702    0.0000 C   0  0  0  0  0  0  0  0  0  0  0  0
   -0.2090   -0.5820    0.0000 C   0  0  0  0  0  0  0  0  0  0  0  0
   -0.9254   -0.1739    0.0000 C   0  0  0  0  0  0  0  0  0  0  0  0
    1.2156    1.0673    0.0000 N   0  0  0  0  0  0  0  0  0  0  0  0
   -0.2090   -1.4065    0.0000 C   0  0  0  0  0  0  0  0  0  0  0  0
   -1.6429   -0.5881    0.0000 O   0  0  0  0  0  0  0  0  0  0  0  0
   -2.3604   -0.1739    0.0000 C   0  0  0  0  0  0  0  0  0  0  0  0
   -3.0779   -0.5881    0.0000 C   0  0  0  0  0  0  0  0  0  0  0  0
   -3.4639    0.0332    0.0000 C   0  0  0  0  0  0  0  0  0  0  0  0
   -2.6843   -1.2923    0.0000 C   0  0  0  0  0  0  0  0  0  0  0  0
   -3.7954   -1.0024    0.0000 C   0  0  0  0  0  0  0  0  0  0  0  0
    1.2156    1.9125    0.0000 N   0  0  0  0  0  0  0  0  0  0  0  0
    2.0392    2.1687    0.0000 C   0  0  0  0  0  0  0  0  0  0  0  0
    2.5213    1.4993    0.0000 C   0  0  0  0  0  0  0  0  0  0  0  0
    2.0174    0.8156    0.0000 C   0  0  0  0  0  0  0  0  0  0  0  0
    3.3707    1.4993    0.0000 C   0  0  0  0  0  0  0  0  0  0  0  0
    3.7954    2.2349    0.0000 O   0  0  0  0  0  0  0  0  0  0  0  0
    3.7954    0.7638    0.0000 O   0  0  0  0  0  0  0  0  0  0  0  0
   -0.2090   -2.2349    0.0000 N   0  0  0  0  0  0  0  0  0  0  0  0
  1  6  2  0
  2  1  1  0
  3  2  2  0
  3  7  1  0
  4  3  1  0
  5  4  2  0
  5  8  1  0
  6  5  1  0
  6  9  1  0
  7 18  1  0
  8 22  3  0
 10  9  1  0
 10 11  1  0
 11 13  1  0
 11 14  1  0
 12 11  1  0
 15  7  1  0
 15 16  2  0
 16 17  1  0
 17 19  1  0
 18 17  2  0
 19 20  2  0
 19 21  1  0
M  END
>  <DRUGBANK_ID>  (1) 
DB03841

>  <SECONDARY_ACCESSION_NUMBERS>  (1) 
EXPT03278

>  <COMMON_NAME>  (1) 
Niraxostat

>  <CAS_NUMBER>  (1) 
206884-98-2

>  <UNII>  (1) 
246FR6022S

>  <SYNONYMS>  (1) 
Niraxostat; Piraxostat

$$$$
