SBZ
     RDKit          2D

 16 17  0  0  0  0  0  0  0  0999 V2000
   -1.4616    1.2489    0.0000 B   0  0  0  0  0  0  0  0  0  0  0  0
   -0.9767    0.5815    0.0000 O   0  0  0  0  0  0  0  0  0  0  0  0
   -2.2866    1.2489    0.0000 O   0  0  0  0  0  0  0  0  0  0  0  0
   -1.2067    2.0335    0.0000 O   0  0  0  0  0  0  0  0  0  0  0  0
   -2.5416    2.0335    0.0000 C   0  0  0  0  0  0  0  0  0  0  0  0
   -1.8741    2.5184    0.0000 C   0  0  0  0  0  0  0  0  0  0  0  0
   -0.1562    0.6677    0.0000 C   0  0  0  0  0  0  0  0  0  0  0  0
    0.3287    0.0002    0.0000 C   0  0  0  0  0  0  0  0  0  0  0  0
    1.1492    0.0865    0.0000 C   0  0  0  0  0  0  0  0  0  0  0  0
   -0.0069   -0.7534    0.0000 C   0  0  0  0  0  0  0  0  0  0  0  0
    1.6341   -0.5810    0.0000 C   0  0  0  0  0  0  0  0  0  0  0  0
    0.4781   -1.4209    0.0000 C   0  0  0  0  0  0  0  0  0  0  0  0
    1.2985   -1.3346    0.0000 C   0  0  0  0  0  0  0  0  0  0  0  0
    1.7835   -2.0021    0.0000 C   0  0  0  0  0  0  0  0  0  0  0  0
    2.6039   -1.9158    0.0000 N   0  0  0  0  0  0  0  0  0  0  0  0
    1.4479   -2.7557    0.0000 N   0  0  0  0  0  0  0  0  0  0  0  0
  1  2  1  0
  1  3  1  0
  1  4  1  0
  2  7  1  0
  3  5  1  0
  4  6  1  0
  5  6  1  0
  7  8  1  0
  8  9  2  0
  8 10  1  0
  9 11  1  0
 10 12  2  0
 11 13  2  0
 12 13  1  0
 13 14  1  0
 14 15  2  0
 14 16  1  0
M  CHG  1  15   1
M  END
>  <DRUGBANK_ID>  (1) 
DB04109

>  <SECONDARY_ACCESSION_NUMBERS>  (1) 
EXPT02862

>  <COMMON_NAME>  (1) 
[4-(1,3,2-Dioxaborolan-2-Yloxy)Methyl]Benzamidine

$$$$
