6IP
     RDKit          2D

 18 20  0  0  0  0  0  0  0  0999 V2000
    1.1968   -3.6710    0.0000 N   0  0  0  0  0  0  0  0  0  0  0  0
    1.1968   -2.8460    0.0000 C   0  0  0  0  0  0  0  0  0  0  0  0
    1.9112   -2.4335    0.0000 C   0  0  0  0  0  0  0  0  0  0  0  0
    1.9112   -1.6085    0.0000 C   0  0  0  0  0  0  0  0  0  0  0  0
    1.1968   -1.1960    0.0000 C   0  0  0  0  0  0  0  0  0  0  0  0
    0.4823   -1.6085    0.0000 C   0  0  0  0  0  0  0  0  0  0  0  0
   -0.2322   -1.1960    0.0000 C   0  0  0  0  0  0  0  0  0  0  0  0
   -0.2322   -0.3710    0.0000 C   0  0  0  0  0  0  0  0  0  0  0  0
   -0.9466    0.0415    0.0000 C   0  0  0  0  0  0  0  0  0  0  0  0
   -0.9466    0.8665    0.0000 C   0  0  0  0  0  0  0  0  0  0  0  0
   -1.6611    1.2790    0.0000 C   0  0  0  0  0  0  0  0  0  0  0  0
   -2.3756    0.8665    0.0000 C   0  0  0  0  0  0  0  0  0  0  0  0
   -3.1602    1.1214    0.0000 C   0  0  0  0  0  0  0  0  0  0  0  0
   -3.6451    0.4540    0.0000 C   0  0  0  0  0  0  0  0  0  0  0  0
   -3.1602   -0.2135    0.0000 N   0  0  0  0  0  0  0  0  0  0  0  0
   -2.3756    0.0415    0.0000 C   0  0  0  0  0  0  0  0  0  0  0  0
   -1.6611   -0.3710    0.0000 C   0  0  0  0  0  0  0  0  0  0  0  0
    0.4823   -2.4335    0.0000 N   0  0  0  0  0  0  0  0  0  0  0  0
  1  2  1  0
  2 18  2  0
  2  3  1  0
  3  4  2  0
  4  5  1  0
  5  6  2  0
  6 18  1  0
  6  7  1  0
  7  8  1  0
  8  9  1  0
  9 17  1  0
  9 10  2  0
 10 11  1  0
 11 12  2  0
 12 16  1  0
 12 13  1  0
 13 14  2  0
 14 15  1  0
 15 16  1  0
 16 17  2  0
M  END
>  <DRUGBANK_ID>  (1) 
DB07206

>  <COMMON_NAME>  (1) 
6-[2-(1H-INDOL-6-YL)ETHYL]PYRIDIN-2-AMINE

>  <UNII>  (1) 
K7KY60XF2T

$$$$
