1CD
     RDKit          2D

 30 35  0  0  0  0  0  0  0  0999 V2000
    5.7035    3.1305    0.0000 C   0  0  0  0  0  0  0  0  0  0  0  0
    4.2980    2.6993    0.0000 N   0  0  0  0  0  0  0  0  0  0  0  0
    3.9114    1.9705    0.0000 C   0  0  0  0  0  0  0  0  0  0  0  0
    4.4851    1.3776    0.0000 C   0  0  0  0  0  0  0  0  0  0  0  0
    5.2262    1.7399    0.0000 C   0  0  0  0  0  0  0  0  0  0  0  0
    5.1106    2.5568    0.0000 C   0  0  0  0  0  0  0  0  0  0  0  0
    2.5939   -0.0836    0.0000 C   0  0  0  0  0  0  0  0  0  0  0  0
    3.4187   -0.0628    0.0000 C   0  0  0  0  0  0  0  0  0  0  0  0
    2.1996   -0.8083    0.0000 C   0  0  0  0  0  0  0  0  0  0  0  0
    2.1635    0.6202    0.0000 N   0  0  0  0  0  0  0  0  0  0  0  0
    3.8491   -0.7666    0.0000 C   0  0  0  0  0  0  0  0  0  0  0  0
    4.1045    0.3958    0.0000 O   0  0  0  0  0  0  0  0  0  0  0  0
    2.6300   -1.5121    0.0000 C   0  0  0  0  0  0  0  0  0  0  0  0
    1.3749   -0.8291    0.0000 N   0  0  0  0  0  0  0  0  0  0  0  0
    1.3388    0.5994    0.0000 C   0  0  0  0  0  0  0  0  0  0  0  0
    3.4548   -1.4913    0.0000 C   0  0  0  0  0  0  0  0  0  0  0  0
    0.9445   -0.1253    0.0000 C   0  0  0  0  0  0  0  0  0  0  0  0
    0.9215    1.4091    0.0000 C   0  0  0  0  0  0  0  0  0  0  0  0
    0.1197   -0.1461    0.0000 O   0  0  0  0  0  0  0  0  0  0  0  0
    1.2452    2.1680    0.0000 C   0  0  0  0  0  0  0  0  0  0  0  0
    0.1025    1.3099    0.0000 C   0  0  0  0  0  0  0  0  0  0  0  0
    0.7498    2.8277    0.0000 C   0  0  0  0  0  0  0  0  0  0  0  0
    2.0257    2.4353    0.0000 N   0  0  0  0  0  0  0  0  0  0  0  0
   -0.3929    1.9696    0.0000 C   0  0  0  0  0  0  0  0  0  0  0  0
    1.2241    3.5027    0.0000 C   0  0  0  0  0  0  0  0  0  0  0  0
   -0.0693    2.7285    0.0000 C   0  0  0  0  0  0  0  0  0  0  0  0
    2.0126    3.2602    0.0000 N   0  0  0  0  0  0  0  0  0  0  0  0
    2.9122    3.5161    0.0000 C   0  0  0  0  0  0  0  0  0  0  0  0
    0.9568    4.2832    0.0000 O   0  0  0  0  0  0  0  0  0  0  0  0
    3.6983    3.2658    0.0000 C   0  0  0  0  0  0  0  0  0  0  0  0
  2  3  1  0
  2  6  1  0
  2 30  1  0
  3  4  1  0
  4  5  1  6
  4 12  1  0
  5  6  1  0
  6  1  1  6
  7  8  2  0
  7  9  1  0
  7 10  1  0
  8 11  1  0
  8 12  1  0
  9 13  2  0
  9 14  1  0
 10 15  2  0
 11 16  2  0
 13 16  1  0
 14 17  1  0
 15 17  1  0
 15 18  1  0
 17 19  2  0
 18 20  2  0
 18 21  1  0
 20 22  1  0
 20 23  1  0
 21 24  2  0
 22 25  1  0
 22 26  2  0
 23 27  1  0
 24 26  1  0
 25 27  1  0
 25 29  2  0
 27 28  1  0
 28 30  1  0
M  END
>  <DRUGBANK_ID>  (1) 
DB06888

>  <COMMON_NAME>  (1) 
(13R,15S)-13-METHYL-16-OXA-8,9,12,22,24-PENTAAZAHEXACYCLO[15.6.2.16,9.1,12,15.0,2,7.0,21,25]HEPTACOSA-1(24),2,4,6,17(25),18,20-HEPTAENE-23,26-DIONE

$$$$
