
     RDKit          2D

 18 20  0  0  0  0  0  0  0  0999 V2000
   -0.0523   -3.0939    0.0000 F   0  0  0  0  0  0  0  0  0  0  0  0
   -0.0523    1.8563    0.0000 O   0  0  0  0  0  0  0  0  0  0  0  0
   -0.0523    0.2062    0.0000 O   0  0  0  0  0  0  0  0  0  0  0  0
   -1.4813    2.6814    0.0000 N   0  0  0  0  0  0  0  0  0  0  0  0
    1.4428   -0.7799    0.0000 C   0  0  0  0  0  0  0  0  0  0  0  0
    0.6621   -1.0313    0.0000 C   0  0  0  0  0  0  0  0  0  0  0  0
    1.9243   -1.4438    0.0000 C   0  0  0  0  0  0  0  0  0  0  0  0
    1.4428   -2.1078    0.0000 C   0  0  0  0  0  0  0  0  0  0  0  0
    0.6621   -1.8563    0.0000 C   0  0  0  0  0  0  0  0  0  0  0  0
   -0.7668    1.4438    0.0000 C   0  0  0  0  0  0  0  0  0  0  0  0
   -1.4813    1.8563    0.0000 C   0  0  0  0  0  0  0  0  0  0  0  0
   -0.0523   -0.6187    0.0000 C   0  0  0  0  0  0  0  0  0  0  0  0
   -0.7668    0.6187    0.0000 C   0  0  0  0  0  0  0  0  0  0  0  0
   -0.7668    3.0939    0.0000 C   0  0  0  0  0  0  0  0  0  0  0  0
   -0.0523    2.6814    0.0000 C   0  0  0  0  0  0  0  0  0  0  0  0
   -0.0523   -2.2689    0.0000 C   0  0  0  0  0  0  0  0  0  0  0  0
   -0.7668   -1.0313    0.0000 C   0  0  0  0  0  0  0  0  0  0  0  0
   -0.7668   -1.8563    0.0000 C   0  0  0  0  0  0  0  0  0  0  0  0
  1 16  1  0
  2 10  1  0
  2 15  1  0
  3 12  1  0
  3 13  1  0
  4 11  1  0
  4 14  1  0
  5  6  1  0
  5  7  1  0
  6  9  2  0
  6 12  1  0
  7  8  1  0
  8  9  1  0
  9 16  1  0
 10 11  1  0
 10 13  1  6
 12 17  2  0
 14 15  1  0
 16 18  2  0
 17 18  1  0
M  END
>  <DRUGBANK_ID>  (1) 
DB09196

>  <COMMON_NAME>  (1) 
Lubazodone

>  <CAS_NUMBER>  (1) 
161178-07-0

>  <UNII>  (1) 
850TB2B172

>  <SYNONYMS>  (1) 
Lubazodone

$$$$
