PQB
     RDKit          2D

 27 29  0  0  0  0  0  0  0  0999 V2000
   -1.6234   -0.1983    0.0000 N   0  0  0  0  0  0  0  0  0  0  0  0
   -1.4519   -1.0052    0.0000 C   0  0  0  0  0  0  0  0  0  0  0  0
   -0.6982   -1.3408    0.0000 C   0  0  0  0  0  0  0  0  0  0  0  0
   -0.7844   -2.1613    0.0000 C   0  0  0  0  0  0  0  0  0  0  0  0
   -1.5914   -2.3328    0.0000 N   0  0  0  0  0  0  0  0  0  0  0  0
   -2.0039   -1.6183    0.0000 N   0  0  0  0  0  0  0  0  0  0  0  0
   -2.8244   -1.5321    0.0000 C   0  0  0  0  0  0  0  0  0  0  0  0
   -3.3093   -2.1995    0.0000 C   0  0  0  0  0  0  0  0  0  0  0  0
   -4.1298   -2.1133    0.0000 C   0  0  0  0  0  0  0  0  0  0  0  0
   -4.4653   -1.3596    0.0000 C   0  0  0  0  0  0  0  0  0  0  0  0
   -5.2858   -1.2734    0.0000 F   0  0  0  0  0  0  0  0  0  0  0  0
   -3.9804   -0.6922    0.0000 C   0  0  0  0  0  0  0  0  0  0  0  0
   -3.1599   -0.7784    0.0000 C   0  0  0  0  0  0  0  0  0  0  0  0
    0.0163   -0.9283    0.0000 C   0  0  0  0  0  0  0  0  0  0  0  0
    0.7307   -1.3408    0.0000 O   0  0  0  0  0  0  0  0  0  0  0  0
    0.0163   -0.1033    0.0000 C   0  0  0  0  0  0  0  0  0  0  0  0
   -0.6982    0.3092    0.0000 C   0  0  0  0  0  0  0  0  0  0  0  0
   -0.6982    1.1342    0.0000 C   0  0  0  0  0  0  0  0  0  0  0  0
    0.0163    1.5467    0.0000 C   0  0  0  0  0  0  0  0  0  0  0  0
    0.7307    1.1342    0.0000 C   0  0  0  0  0  0  0  0  0  0  0  0
    1.4452    1.5467    0.0000 O   0  0  0  0  0  0  0  0  0  0  0  0
    2.1597    1.1342    0.0000 C   0  0  0  0  0  0  0  0  0  0  0  0
    2.8742    1.5467    0.0000 C   0  0  0  0  0  0  0  0  0  0  0  0
    2.8742    2.3717    0.0000 O   0  0  0  0  0  0  0  0  0  0  0  0
    3.5886    1.1342    0.0000 C   0  0  0  0  0  0  0  0  0  0  0  0
    4.3031    1.5467    0.0000 O   0  0  0  0  0  0  0  0  0  0  0  0
    0.7307    0.3092    0.0000 C   0  0  0  0  0  0  0  0  0  0  0  0
  1  2  1  0
  2  3  2  0
  2  6  1  0
  3  4  1  0
  3 14  1  0
  4  5  2  0
  5  6  1  0
  6  7  1  0
  7  8  2  0
  7 13  1  0
  8  9  1  0
  9 10  2  0
 10 11  1  0
 10 12  1  0
 12 13  2  0
 14 15  2  0
 14 16  1  0
 16 17  2  0
 16 27  1  0
 17 18  1  0
 18 19  2  0
 19 20  1  0
 20 21  1  0
 20 27  2  0
 21 22  1  0
 22 23  1  0
 23 24  1  1
 23 25  1  0
 25 26  1  0
M  END
>  <DRUGBANK_ID>  (1) 
DB08424

>  <COMMON_NAME>  (1) 
[5-AMINO-1-(4-FLUOROPHENYL)-1H-PYRAZOL-4-YL](3-{[(2R)-2,3-DIHYDROXYPROPYL]OXY}PHENYL)METHANONE

$$$$
