
     RDKit          2D

 22 23  0  0  1  0  0  0  0  0999 V2000
   -1.4884    0.9479    0.0000 C   0  0  0  0  0  0  0  0  0  0  0  0
   -1.1528    0.1942    0.0000 C   0  0  0  0  0  0  0  0  0  0  0  0
   -1.0034    1.6153    0.0000 C   0  0  0  0  0  0  0  0  0  0  0  0
    0.1526    0.7754    0.0000 C   0  0  0  0  0  0  0  0  0  0  0  0
    2.1665    3.2361    0.0000 C   0  0  0  0  0  0  0  0  0  0  0  0
   -0.3323    0.1080    0.0000 C   0  0  0  0  0  0  0  0  0  0  0  0
    1.3819    2.9812    0.0000 C   0  0  0  0  0  0  0  0  0  0  0  0
    0.7145    3.4661    0.0000 C   0  0  0  0  0  0  0  0  0  0  0  0
    0.0470    2.9812    0.0000 C   0  0  0  0  0  0  0  0  0  0  0  0
    0.3020    2.1965    0.0000 C   0  0  0  0  0  0  0  0  0  0  0  0
    0.0032   -0.6457    0.0000 C   0  0  0  0  0  0  0  0  0  0  0  0
   -0.1830    1.5291    0.0000 N   0  0  0  0  0  0  0  0  0  0  0  0
    0.7145    4.2911    0.0000 O   0  0  0  0  0  0  0  0  0  0  0  0
   -0.7376    3.2361    0.0000 O   0  0  0  0  0  0  0  0  0  0  0  0
   -0.4817   -1.3131    0.0000 O   0  0  0  0  0  0  0  0  0  0  0  0
    0.8237   -0.7319    0.0000 O   0  0  0  0  0  0  0  0  0  0  0  0
    4.3489    3.1939    0.0000 O   0  0  0  0  0  0  0  0  0  0  0  0
    3.8192    2.1544    0.0000 O   0  0  0  0  0  0  0  0  0  0  0  0
    3.3093    3.7236    0.0000 O   0  0  0  0  0  0  0  0  0  0  0  0
    2.7796    2.6841    0.0000 O   0  0  0  0  0  0  0  0  0  0  0  0
    1.1270    2.1965    0.0000 O   0  0  0  0  0  0  0  0  0  0  0  0
    3.5642    2.9390    0.0000 P   0  0  0  0  0  0  0  0  0  0  0  0
  2  1  2  0
  3  1  1  0
  6  2  1  0
  6  4  2  0
  7  5  1  1
  8  7  1  0
  8 13  1  6
  9  8  1  0
  9 14  1  6
 10  9  1  0
 10 12  1  1
 11  6  1  0
 12  3  2  0
 12  4  1  0
 15 11  2  0
 16 11  1  0
 20  5  1  0
 21  7  1  0
 21 10  1  0
 22 17  1  0
 22 18  1  0
 22 19  2  0
 22 20  1  0
M  CHG  2  12   1  18  -1
M  END
>  <DRUGBANK_ID>  (1) 
DB02382

>  <SECONDARY_ACCESSION_NUMBERS>  (1) 
EXPT02312

>  <COMMON_NAME>  (1) 
Namn

$$$$
