1546
     RDKit          2D

 14 15  0  0  1  0  0  0  0  0999 V2000
    3.8597   -1.4804    0.0000 N   0  0  0  0  0  0  0  0  0  0  0  0
    5.1795    1.5859    0.0000 N   0  0  0  0  0  0  0  0  0  0  0  0
    4.9232    0.8018    0.0000 C   0  0  0  0  0  0  0  0  0  0  0  0
    4.1159    0.6316    0.0000 C   0  0  0  0  0  0  0  0  0  0  0  0
    3.8597   -0.1526    0.0000 C   0  0  0  0  0  0  0  0  0  0  0  0
    5.4742    0.1877    0.0000 C   0  0  0  0  0  0  0  0  0  0  0  0
    3.0791   -0.4040    0.0000 C   0  0  0  0  0  0  0  0  0  0  0  0
    3.0791   -1.2290    0.0000 C   0  0  0  0  0  0  0  0  0  0  0  0
    4.3412   -0.8165    0.0000 C   0  0  0  0  0  0  0  0  0  0  0  0
    6.2815    0.3578    0.0000 C   0  0  0  0  0  0  0  0  0  0  0  0
    2.3645    0.0085    0.0000 C   0  0  0  0  0  0  0  0  0  0  0  0
    2.3645   -1.6415    0.0000 C   0  0  0  0  0  0  0  0  0  0  0  0
    1.6500   -0.4040    0.0000 C   0  0  0  0  0  0  0  0  0  0  0  0
    1.6500   -1.2290    0.0000 C   0  0  0  0  0  0  0  0  0  0  0  0
  1  8  1  0
  1  9  1  0
  2  3  1  0
  3  4  1  0
  3  6  1  0
  4  5  1  0
  5  7  1  0
  5  9  2  0
  6 10  1  0
  7  8  2  0
  7 11  1  0
  8 12  1  0
 11 13  2  0
 12 14  2  0
 13 14  1  0
M  END
>  <DRUGBANK_ID>  (1) 
DB01546

>  <COMMON_NAME>  (1) 
Etryptamine

>  <CAS_NUMBER>  (1) 
2235-90-7

>  <UNII>  (1) 
GR181O3R32

>  <SYNONYMS>  (1) 
3-(2-aminobutyl)indole; alpha-ethyltryptamine; Etryptamine; α-ethyltryptamine; αET

$$$$
