
     RDKit          2D

 17 18  0  0  0  0  0  0  0  0999 V2000
    3.4656    3.5277    0.0000 C   0  0  0  0  0  0  0  0  0  0  0  0
    2.0367    3.5277    0.0000 C   0  0  0  0  0  0  0  0  0  0  0  0
    4.2032    2.0602    0.0000 C   0  0  0  0  0  0  0  0  0  0  0  0
    3.6486    0.3532    0.0000 C   0  0  0  0  0  0  0  0  0  0  0  0
    0.8839   -0.9817    0.0000 C   0  0  0  0  0  0  0  0  0  0  0  0
    1.7044   -1.0679    0.0000 C   0  0  0  0  0  0  0  0  0  0  0  0
    0.5484   -0.2280    0.0000 C   0  0  0  0  0  0  0  0  0  0  0  0
    2.1893   -0.4005    0.0000 C   0  0  0  0  0  0  0  0  0  0  0  0
    1.0333    0.4394    0.0000 C   0  0  0  0  0  0  0  0  0  0  0  0
    2.7512    3.1152    0.0000 C   0  0  0  0  0  0  0  0  0  0  0  0
    3.4186    1.8053    0.0000 C   0  0  0  0  0  0  0  0  0  0  0  0
    1.8538    0.3532    0.0000 C   0  0  0  0  0  0  0  0  0  0  0  0
    2.7512    2.2902    0.0000 C   0  0  0  0  0  0  0  0  0  0  0  0
    2.0837    1.8053    0.0000 C   0  0  0  0  0  0  0  0  0  0  0  0
    3.1637    1.0206    0.0000 N   0  0  0  0  0  0  0  0  0  0  0  0
    2.3387    1.0206    0.0000 N   0  0  0  0  0  0  0  0  0  0  0  0
    1.2991    2.0602    0.0000 O   0  0  0  0  0  0  0  0  0  0  0  0
  6  5  2  0
  7  5  1  0
  8  6  1  0
  9  7  2  0
 10  1  1  0
 10  2  1  0
 11  3  1  0
 12  8  2  0
 12  9  1  0
 13 10  1  0
 13 11  2  0
 14 13  1  0
 15  4  1  0
 15 11  1  0
 16 12  1  0
 16 14  1  0
 16 15  1  0
 17 14  2  0
M  END
>  <DRUGBANK_ID>  (1) 
DB13524

>  <COMMON_NAME>  (1) 
Propyphenazone

>  <CAS_NUMBER>  (1) 
479-92-5

>  <UNII>  (1) 
OED8FV75PY

>  <SYNONYMS>  (1) 
1-Phenyl-2,3-dimethyl-4-isopropyl-3-pyrazolin-5-one; 1-Phenyl-2,3-dimethyl-4-isopropylpyrazol-5-one; 4-Isopropyl-1,5-dimethyl-2-phenyl-1,2-dihydro-pyrazol-3-one; 4-Isopropylantipyrine; Isopropylantipyrine; Isopropylphenazone; Propifenazona; Propyphenazone; Propyphenazonum

$$$$
