
     RDKit          2D

 23 24  0  0  0  0  0  0  0  0999 V2000
   -3.1902    5.4206    0.0000 C   0  0  0  0  0  0  0  0  0  0  0  0
    3.8137    6.6056    0.0000 C   0  0  0  0  0  0  0  0  0  0  0  0
    2.6577    7.4455    0.0000 C   0  0  0  0  0  0  0  0  0  0  0  0
    4.2987    7.2730    0.0000 C   0  0  0  0  0  0  0  0  0  0  0  0
    3.1426    8.1130    0.0000 C   0  0  0  0  0  0  0  0  0  0  0  0
   -1.0468    5.8331    0.0000 C   0  0  0  0  0  0  0  0  0  0  0  0
   -0.1447    7.2056    0.0000 C   0  0  0  0  0  0  0  0  0  0  0  0
   -0.9293    6.9507    0.0000 C   0  0  0  0  0  0  0  0  0  0  0  0
   -1.7613    5.4206    0.0000 C   0  0  0  0  0  0  0  0  0  0  0  0
    2.5083    6.0244    0.0000 C   0  0  0  0  0  0  0  0  0  0  0  0
    2.9933    6.6918    0.0000 C   0  0  0  0  0  0  0  0  0  0  0  0
    3.9631    8.0267    0.0000 C   0  0  0  0  0  0  0  0  0  0  0  0
    1.6879    6.1106    0.0000 C   0  0  0  0  0  0  0  0  0  0  0  0
   -0.3323    5.4206    0.0000 C   0  0  0  0  0  0  0  0  0  0  0  0
    0.3822    5.8331    0.0000 C   0  0  0  0  0  0  0  0  0  0  0  0
    1.2754    6.8251    0.0000 C   0  0  0  0  0  0  0  0  0  0  0  0
    1.1358    5.4975    0.0000 N   0  0  0  0  0  0  0  0  0  0  0  0
    0.4684    6.6536    0.0000 N   0  0  0  0  0  0  0  0  0  0  0  0
   -1.5424    7.5027    0.0000 O   0  0  0  0  0  0  0  0  0  0  0  0
    4.4480    8.6942    0.0000 O   0  0  0  0  0  0  0  0  0  0  0  0
   -0.3323    4.5956    0.0000 O   0  0  0  0  0  0  0  0  0  0  0  0
    1.6109    7.5788    0.0000 O   0  0  0  0  0  0  0  0  0  0  0  0
   -2.4757    5.8331    0.0000 S   0  0  0  0  0  0  0  0  0  0  0  0
  4  2  2  0
  5  3  1  0
  8  7  1  0
  9  6  1  0
 11  2  1  0
 11  3  2  0
 11 10  1  0
 12  4  1  0
 12  5  2  0
 13 10  2  0
 14  6  1  0
 15 14  1  0
 16 13  1  0
 17 13  1  0
 17 15  2  0
 18  7  1  0
 18 15  1  0
 18 16  1  0
 19  8  2  0
 20 12  1  0
 21 14  2  0
 22 16  2  0
 23  1  1  0
 23  9  1  0
M  CHG  1  20  -1
M  END
>  <DRUGBANK_ID>  (1) 
DB02781

>  <SECONDARY_ACCESSION_NUMBERS>  (1) 
EXPT01022

>  <COMMON_NAME>  (1) 
4-{(Z)-[2-[3-(Methylsulfanyl)Propanoyl]-5-Oxo-1-(2-Oxoethyl)-1,5-Dihydro-4h-Imidazol-4-Ylidene]Methyl}Benzenolate

$$$$
