2IH
     RDKit          2D

 16 17  0  0  0  0  0  0  0  0999 V2000
   -2.6091   -1.0299    0.0000 C   0  0  0  0  0  0  0  0  0  0  0  0
   -3.4161   -1.2014    0.0000 C   0  0  0  0  0  0  0  0  0  0  0  0
   -3.8286   -0.4869    0.0000 N   0  0  0  0  0  0  0  0  0  0  0  0
   -3.2766    0.1262    0.0000 C   0  0  0  0  0  0  0  0  0  0  0  0
   -2.5229   -0.2094    0.0000 N   0  0  0  0  0  0  0  0  0  0  0  0
   -1.8084    0.2031    0.0000 C   0  0  0  0  0  0  0  0  0  0  0  0
   -1.0939   -0.2094    0.0000 C   0  0  0  0  0  0  0  0  0  0  0  0
   -0.3795    0.2031    0.0000 C   0  0  0  0  0  0  0  0  0  0  0  0
    0.3350   -0.2094    0.0000 C   0  0  0  0  0  0  0  0  0  0  0  0
    1.0495    0.2031    0.0000 C   0  0  0  0  0  0  0  0  0  0  0  0
    1.7640   -0.2094    0.0000 C   0  0  0  0  0  0  0  0  0  0  0  0
    2.4784    0.2031    0.0000 N   0  0  0  0  0  0  0  0  0  0  0  0
    2.5647    1.0236    0.0000 C   0  0  0  0  0  0  0  0  0  0  0  0
    3.2321   -0.1324    0.0000 C   0  0  0  0  0  0  0  0  0  0  0  0
    3.7841    0.4807    0.0000 C   0  0  0  0  0  0  0  0  0  0  0  0
    3.3716    1.1951    0.0000 N   0  0  0  0  0  0  0  0  0  0  0  0
  1  2  2  0
  1  5  1  0
  2  3  1  0
  3  4  2  0
  4  5  1  0
  5  6  1  0
  6  7  1  0
  7  8  1  0
  8  9  1  0
  9 10  1  0
 10 11  1  0
 11 12  1  0
 12 13  1  0
 12 14  1  0
 13 16  2  0
 14 15  2  0
 15 16  1  0
M  END
>  <DRUGBANK_ID>  (1) 
DB06968

>  <COMMON_NAME>  (1) 
1,1'-HEXANE-1,6-DIYLBIS(1H-IMIDAZOLE)

$$$$
