
     RDKit          2D

 21 24  0  0  0  0  0  0  0  0999 V2000
   -0.4142   -2.0445    0.0000 S   0  0  0  0  0  0  0  0  0  0  0  0
    2.4246   -1.9292    0.0000 O   0  0  0  0  0  0  0  0  0  0  0  0
    1.0286   -1.8740    0.0000 N   0  0  0  0  0  0  0  0  0  0  0  0
    1.3088   -0.0416    0.0000 N   0  0  0  0  0  0  0  0  0  0  0  0
    0.0198   -0.7822    0.0000 C   0  0  0  0  0  0  0  0  0  0  0  0
   -0.8050   -0.7681    0.0000 C   0  0  0  0  0  0  0  0  0  0  0  0
    0.2613   -1.5710    0.0000 C   0  0  0  0  0  0  0  0  0  0  0  0
    0.4859   -0.1015    0.0000 C   0  0  0  0  0  0  0  0  0  0  0  0
   -1.0733   -1.5482    0.0000 C   0  0  0  0  0  0  0  0  0  0  0  0
    0.0749    0.6137    0.0000 C   0  0  0  0  0  0  0  0  0  0  0  0
   -1.3465   -0.1457    0.0000 C   0  0  0  0  0  0  0  0  0  0  0  0
   -1.8831   -1.7060    0.0000 C   0  0  0  0  0  0  0  0  0  0  0  0
    1.7440   -1.4630    0.0000 C   0  0  0  0  0  0  0  0  0  0  0  0
    1.8686   -0.6475    0.0000 C   0  0  0  0  0  0  0  0  0  0  0  0
   -2.1563   -0.3034    0.0000 C   0  0  0  0  0  0  0  0  0  0  0  0
   -0.7500    0.6155    0.0000 C   0  0  0  0  0  0  0  0  0  0  0  0
    0.4889    1.3274    0.0000 C   0  0  0  0  0  0  0  0  0  0  0  0
   -2.4246   -1.0836    0.0000 C   0  0  0  0  0  0  0  0  0  0  0  0
   -1.1610    1.3309    0.0000 C   0  0  0  0  0  0  0  0  0  0  0  0
    0.0779    2.0427    0.0000 C   0  0  0  0  0  0  0  0  0  0  0  0
   -0.7470    2.0445    0.0000 C   0  0  0  0  0  0  0  0  0  0  0  0
  1  7  1  0
  1  9  1  0
  2 13  2  0
  3  7  1  0
  3 13  1  0
  4  8  2  0
  4 14  1  0
  5  6  1  0
  5  7  2  0
  5  8  1  0
  6  9  2  0
  6 11  1  0
  8 10  1  0
  9 12  1  0
 10 16  2  0
 10 17  1  0
 11 15  1  0
 12 18  1  0
 13 14  1  0
 15 18  1  0
 16 19  1  0
 17 20  2  0
 19 21  2  0
 20 21  1  0
M  END
>  <DRUGBANK_ID>  (1) 
DB14719

>  <COMMON_NAME>  (1) 
Bentazepam

>  <CAS_NUMBER>  (1) 
29462-18-8

>  <UNII>  (1) 
66JKK43S1Z

>  <SYNONYMS>  (1) 
Bentazepam; Bentazepamum; Thiadipone; Tiadipone

$$$$
