
     RDKit          2D

 11 11  0  0  0  0  0  0  0  0999 V2000
   -0.7141   -0.9373    0.0000 C   0  0  0  0  0  0  0  0  0  0  0  0
   -1.4287   -0.5250    0.0000 C   0  0  0  0  0  0  0  0  0  0  0  0
   -1.4287    0.2996    0.0000 C   0  0  0  0  0  0  0  0  0  0  0  0
   -0.7141    0.7119    0.0000 C   0  0  0  0  0  0  0  0  0  0  0  0
    0.0007    0.2996    0.0000 C   0  0  0  0  0  0  0  0  0  0  0  0
    0.0007   -0.5250    0.0000 C   0  0  0  0  0  0  0  0  0  0  0  0
   -2.1419   -0.9373    0.0000 O   0  0  0  0  0  0  0  0  0  0  0  0
    2.1419    0.7133    0.0000 N   0  0  0  0  0  0  0  0  0  0  0  0
    1.4287    0.3009    0.0000 C   0  0  0  0  0  0  0  0  0  0  0  0
    0.7140    0.7133    0.0000 C   0  0  0  0  0  0  0  0  0  0  0  0
    0.7140    1.5379    0.0000 O   0  0  0  0  0  0  0  0  0  0  0  0
  1  2  2  0
  1  6  1  0
  2  3  1  0
  2  7  1  0
  3  4  2  0
  4  5  1  0
  5  6  2  0
  5 10  1  0
  8  9  1  0
  9 10  1  0
 10 11  1  0
M  END
>  <DRUGBANK_ID>  (1) 
DB13251

>  <COMMON_NAME>  (1) 
Octopamine

>  <CAS_NUMBER>  (1) 
104-14-3

>  <UNII>  (1) 
14O50WS8JD

>  <SYNONYMS>  (1) 
Octopamine

$$$$
