
     RDKit          2D

 18 19  0  0  0  0  0  0  0  0999 V2000
    0.1722   -0.2048    0.0000 N   0  0  0  0  0  0  0  0  0  0  0  0
    0.1783   -1.0294    0.0000 C   0  0  0  0  0  0  0  0  0  0  0  0
    0.8358    0.2847    0.0000 C   0  0  0  0  0  0  0  0  0  0  0  0
   -0.4984    0.2748    0.0000 C   0  0  0  0  0  0  0  0  0  0  0  0
   -0.4973   -0.5560    0.0000 O   0  0  0  0  0  0  0  0  0  0  0  0
   -0.0806   -1.8218    0.0000 C   0  0  0  0  0  0  0  0  0  0  0  0
    0.5750    1.0670    0.0000 C   0  0  0  0  0  0  0  0  0  0  0  0
    1.6219    0.0357    0.0000 N   0  0  0  0  0  0  0  0  0  0  0  0
   -0.2495    1.0609    0.0000 N   0  0  0  0  0  0  0  0  0  0  0  0
   -1.1567   -1.0334    0.0000 C   0  0  0  0  0  0  0  0  0  0  0  0
   -0.9066   -1.8218    0.0000 C   0  0  0  0  0  0  0  0  0  0  0  0
    0.4044   -2.4886    0.0000 O   0  0  0  0  0  0  0  0  0  0  0  0
    1.0548    1.7378    0.0000 C   0  0  0  0  0  0  0  0  0  0  0  0
   -1.3955   -2.4886    0.0000 O   0  0  0  0  0  0  0  0  0  0  0  0
    1.8756    1.6578    0.0000 N   0  0  0  0  0  0  0  0  0  0  0  0
    0.7138    2.4886    0.0000 O   0  0  0  0  0  0  0  0  0  0  0  0
   -1.1590   -0.2042    0.0000 C   0  0  0  0  0  0  0  0  0  0  0  0
   -1.8756    0.2036    0.0000 O   0  0  0  0  0  0  0  0  0  0  0  0
  1  3  1  0
  1  4  1  0
  2  1  1  1
  2  5  1  0
  2  6  1  0
  3  7  2  0
  3  8  1  0
  4  9  2  0
  5 10  1  0
  6 11  1  0
  6 12  1  6
  7 13  1  0
  7  9  1  0
 10 11  1  0
 10 17  1  1
 11 14  1  6
 13 15  1  0
 13 16  2  0
 17 18  1  0
M  END
>  <DRUGBANK_ID>  (1) 
DB04944

>  <COMMON_NAME>  (1) 
Acadesine

>  <CAS_NUMBER>  (1) 
2627-69-2

>  <UNII>  (1) 
53IEF47846

>  <SYNONYMS>  (1) 
Acadesina; Acadesine; Acadesinum; AICA-riboside

$$$$
