
     RDKit          2D

 30 32  0  0  0  0  0  0  0  0999 V2000
   -2.7754    1.7296    0.0000 C   0  0  0  0  0  0  0  0  0  0  0  0
   -2.7754    0.9002    0.0000 N   0  0  0  0  0  0  0  0  0  0  0  0
   -2.0623    0.4925    0.0000 C   0  0  0  0  0  0  0  0  0  0  0  0
   -1.3493    0.9002    0.0000 C   0  0  0  0  0  0  0  0  0  0  0  0
   -1.3493    1.7296    0.0000 C   0  0  0  0  0  0  0  0  0  0  0  0
   -2.0623    2.1467    0.0000 C   0  0  0  0  0  0  0  0  0  0  0  0
   -0.6394    2.1467    0.0000 N   0  0  0  0  0  0  0  0  0  0  0  0
    0.0741    1.7296    0.0000 C   0  0  0  0  0  0  0  0  0  0  0  0
    0.0741    0.9055    0.0000 N   0  0  0  0  0  0  0  0  0  0  0  0
    0.7826    0.4933    0.0000 C   0  0  0  0  0  0  0  0  0  0  0  0
    1.4983    0.9037    0.0000 C   0  0  0  0  0  0  0  0  0  0  0  0
    1.4983    1.7315    0.0000 C   0  0  0  0  0  0  0  0  0  0  0  0
    0.7832    2.1442    0.0000 N   0  0  0  0  0  0  0  0  0  0  0  0
    2.2056    2.1512    0.0000 N   0  0  0  0  0  0  0  0  0  0  0  0
    2.0805    0.3209    0.0000 C   0  0  0  0  0  0  0  0  0  0  0  0
    2.0805   -0.5037    0.0000 C   0  0  0  0  0  0  0  0  0  0  0  0
    2.7861   -0.9155    0.0000 C   0  0  0  0  0  0  0  0  0  0  0  0
    2.7861   -1.7379    0.0000 C   0  0  0  0  0  0  0  0  0  0  0  0
    2.0642   -2.1512    0.0000 C   0  0  0  0  0  0  0  0  0  0  0  0
    1.3551   -1.7339    0.0000 C   0  0  0  0  0  0  0  0  0  0  0  0
    1.3551   -0.9099    0.0000 C   0  0  0  0  0  0  0  0  0  0  0  0
    0.3800   -0.4898    0.0000 F   0  0  0  0  0  0  0  0  0  0  0  0
    0.6301   -2.1440    0.0000 F   0  0  0  0  0  0  0  0  0  0  0  0
    3.4983   -0.4944    0.0000 O   0  0  0  0  0  0  0  0  0  0  0  0
    4.2119   -0.9067    0.0000 C   0  0  0  0  0  0  0  0  0  0  0  0
    2.7941    0.7380    0.0000 O   0  0  0  0  0  0  0  0  0  0  0  0
   -3.4936    0.4925    0.0000 S   0  0  0  0  0  0  0  0  0  0  0  0
   -3.0859   -0.2210    0.0000 O   0  0  0  0  0  0  0  0  0  0  0  0
   -3.9107    1.2105    0.0000 O   0  0  0  0  0  0  0  0  0  0  0  0
   -4.2119    0.0846    0.0000 C   0  0  0  0  0  0  0  0  0  0  0  0
  1  2  1  0
  1  6  1  0
  2  3  1  0
  2 27  1  0
  3  4  1  0
  4  5  1  0
  5  6  1  0
  5  7  1  0
  7  8  1  0
  8  9  2  0
  9 10  1  0
 10 11  2  0
 11 12  1  0
 11 15  1  0
 12 13  2  0
 12 14  1  0
 13  8  1  0
 15 16  1  0
 15 26  2  0
 16 21  1  0
 17 16  2  0
 17 24  1  0
 18 17  1  0
 19 18  2  0
 20 19  1  0
 20 23  1  0
 21 20  2  0
 21 22  1  0
 24 25  1  0
 27 28  2  0
 27 29  2  0
 27 30  1  0
M  END
>  <DRUGBANK_ID>  (1) 
DB08094

>  <COMMON_NAME>  (1) 
RO-4584820

>  <CAS_NUMBER>  (1) 
741713-40-6

>  <UNII>  (1) 
T61871RKRI

$$$$
