CB3
     RDKit          2D

 35 37  0  0  0  0  0  0  0  0999 V2000
   -4.5072   -1.5584    0.0000 N   0  0  0  0  0  0  0  0  0  0  0  0
   -5.2217   -1.1459    0.0000 C   0  0  0  0  0  0  0  0  0  0  0  0
   -5.9361   -1.5584    0.0000 N   0  0  0  0  0  0  0  0  0  0  0  0
   -5.2217   -0.3209    0.0000 N   0  0  0  0  0  0  0  0  0  0  0  0
   -4.5072    0.0916    0.0000 C   0  0  0  0  0  0  0  0  0  0  0  0
   -4.5072    0.9166    0.0000 O   0  0  0  0  0  0  0  0  0  0  0  0
   -3.7927   -0.3209    0.0000 C   0  0  0  0  0  0  0  0  0  0  0  0
   -3.0782    0.0916    0.0000 C   0  0  0  0  0  0  0  0  0  0  0  0
   -2.3638   -0.3209    0.0000 C   0  0  0  0  0  0  0  0  0  0  0  0
   -2.3638   -1.1459    0.0000 C   0  0  0  0  0  0  0  0  0  0  0  0
   -3.0782   -1.5584    0.0000 C   0  0  0  0  0  0  0  0  0  0  0  0
   -3.7927   -1.1459    0.0000 C   0  0  0  0  0  0  0  0  0  0  0  0
   -1.6493    0.0916    0.0000 C   0  0  0  0  0  0  0  0  0  0  0  0
   -0.9348   -0.3209    0.0000 N   0  0  0  0  0  0  0  0  0  0  0  0
    1.2086    0.9166    0.0000 C   0  0  0  0  0  0  0  0  0  0  0  0
    1.2086    0.0916    0.0000 C   0  0  0  0  0  0  0  0  0  0  0  0
    0.4941   -0.3209    0.0000 C   0  0  0  0  0  0  0  0  0  0  0  0
   -0.2204    0.0916    0.0000 C   0  0  0  0  0  0  0  0  0  0  0  0
   -0.2204    0.9166    0.0000 C   0  0  0  0  0  0  0  0  0  0  0  0
    0.4941    1.3291    0.0000 C   0  0  0  0  0  0  0  0  0  0  0  0
    1.9231    1.3291    0.0000 C   0  0  0  0  0  0  0  0  0  0  0  0
    1.9231    2.1541    0.0000 O   0  0  0  0  0  0  0  0  0  0  0  0
    2.6375    0.9166    0.0000 N   0  0  0  0  0  0  0  0  0  0  0  0
    3.3520    1.3291    0.0000 C   0  0  0  0  0  0  0  0  0  0  0  0
    4.0665    0.9166    0.0000 C   0  0  0  0  0  0  0  0  0  0  0  0
    4.7809    1.3291    0.0000 C   0  0  0  0  0  0  0  0  0  0  0  0
    5.4954    0.9166    0.0000 C   0  0  0  0  0  0  0  0  0  0  0  0
    6.2099    1.3291    0.0000 O   0  0  0  0  0  0  0  0  0  0  0  0
    5.4954    0.0916    0.0000 O   0  0  0  0  0  0  0  0  0  0  0  0
    3.3520    2.1541    0.0000 C   0  0  0  0  0  0  0  0  0  0  0  0
    4.0665    2.5666    0.0000 O   0  0  0  0  0  0  0  0  0  0  0  0
    2.6375    2.5666    0.0000 O   0  0  0  0  0  0  0  0  0  0  0  0
   -0.9348   -1.1459    0.0000 C   0  0  0  0  0  0  0  0  0  0  0  0
   -1.6493   -1.5584    0.0000 C   0  0  0  0  0  0  0  0  0  0  0  0
   -2.3638   -1.9709    0.0000 C   0  0  0  0  0  0  0  0  0  0  0  0
  1  2  1  0
  1 12  1  0
  2  3  1  0
  2  4  2  0
  4  5  1  0
  5  6  2  0
  5  7  1  0
  7  8  1  0
  7 12  2  0
  8  9  2  0
  9 10  1  0
  9 13  1  0
 10 11  2  0
 11 12  1  0
 13 14  1  0
 14 18  1  0
 14 33  1  0
 15 16  2  0
 15 20  1  0
 15 21  1  0
 16 17  1  0
 17 18  2  0
 18 19  1  0
 19 20  2  0
 21 22  2  0
 21 23  1  0
 24 23  1  0
 24 25  1  6
 24 30  1  0
 25 26  1  0
 26 27  1  0
 27 28  2  0
 27 29  1  0
 30 31  2  0
 30 32  1  0
 33 34  1  0
 34 35  3  0
M  END
>  <DRUGBANK_ID>  (1) 
DB03541

>  <SECONDARY_ACCESSION_NUMBERS>  (1) 
EXPT00839

>  <COMMON_NAME>  (1) 
10-Propargyl-5,8-Dideazafolic Acid

$$$$
