
     RDKit          2D

 27 31  0  0  1  0  0  0  0  0999 V2000
    4.5466   -0.5086    0.0000 C   0  0  0  0  0  0  0  0  0  0  0  0
    4.8269    0.2673    0.0000 C   0  0  0  0  0  0  0  0  0  0  0  0
    5.3587   -0.3634    0.0000 C   0  0  0  0  0  0  0  0  0  0  0  0
    6.1708   -0.2182    0.0000 C   0  0  0  0  0  0  0  0  0  0  0  0
    6.4511    0.5577    0.0000 C   0  0  0  0  0  0  0  0  0  0  0  0
    5.9193    1.1884    0.0000 C   0  0  0  0  0  0  0  0  0  0  0  0
    5.1072    1.0432    0.0000 C   0  0  0  0  0  0  0  0  0  0  0  0
    4.5754    1.6739    0.0000 C   0  0  0  0  0  0  0  0  0  0  0  0
    3.7633    1.5287    0.0000 C   0  0  0  0  0  0  0  0  0  0  0  0
    3.4830    0.7528    0.0000 C   0  0  0  0  0  0  0  0  0  0  0  0
    4.0148    0.1221    0.0000 C   0  0  0  0  0  0  0  0  0  0  0  0
    3.7345   -0.6539    0.0000 C   0  0  0  0  0  0  0  0  0  0  0  0
    2.9224   -0.7991    0.0000 C   0  0  0  0  0  0  0  0  0  0  0  0
    2.3905   -0.1684    0.0000 C   0  0  0  0  0  0  0  0  0  0  0  0
    2.6708    0.6076    0.0000 C   0  0  0  0  0  0  0  0  0  0  0  0
    2.0195    1.1139    0.0000 C   0  0  0  0  0  0  0  0  0  0  0  0
    1.3367    0.6509    0.0000 C   0  0  0  0  0  0  0  0  0  0  0  0
    1.5660   -0.1416    0.0000 C   0  0  0  0  0  0  0  0  0  0  0  0
    0.8051   -0.4604    0.0000 C   0  0  0  0  0  0  0  0  0  0  0  0
    0.6158   -1.2634    0.0000 C   0  0  0  0  0  0  0  0  0  0  0  0
   -0.2064   -1.3316    0.0000 C   0  0  0  0  0  0  0  0  0  0  0  0
   -0.5252   -0.5707    0.0000 O   0  0  0  0  0  0  0  0  0  0  0  0
    0.0999   -0.0323    0.0000 C   0  0  0  0  0  0  0  0  0  0  0  0
    1.4446   -0.9576    0.0000 O   0  0  0  0  0  0  0  0  0  0  0  0
    2.8685    1.4085    0.0000 O   0  0  0  0  0  0  0  0  0  0  0  0
    2.0307   -0.9107    0.0000 C   0  0  0  0  0  0  0  0  0  0  0  0
    7.2632    0.7029    0.0000 O   0  0  0  0  0  0  0  0  0  0  0  0
  2  1  1  1
  2  3  1  0
  2  7  1  0
  2 11  1  0
  3  4  1  0
  4  5  1  0
  5  6  1  0
  5 27  1  1
  7  6  1  6
  7  8  1  0
  8  9  1  0
 10  9  1  6
 10 11  1  0
 10 15  1  0
 11 12  1  1
 12 13  1  0
 13 14  1  0
 14 15  1  0
 14 18  1  0
 14 26  1  1
 15 16  1  0
 15 25  1  1
 16 17  1  0
 17 18  1  0
 18 19  1  0
 18 24  1  6
 19 20  1  0
 19 23  2  0
 20 21  2  0
 21 22  1  0
 22 23  1  0
M  END
>  <DRUGBANK_ID>  (1) 
DB12350

>  <COMMON_NAME>  (1) 
Rostafuroxin

>  <CAS_NUMBER>  (1) 
156722-18-8

>  <UNII>  (1) 
P848LCX62B

>  <SYNONYMS>  (1) 
Rostafuroxin

$$$$
