
     RDKit          2D

 23 23  0  0  1  0  0  0  0  0999 V2000
   -0.0787    0.3573    0.0000 C   0  0  0  0  0  0  0  0  0  0  0  0
   -0.8889    0.2014    0.0000 C   0  0  0  0  0  0  0  0  0  0  0  0
   -1.1589   -0.5782    0.0000 O   0  0  0  0  0  0  0  0  0  0  0  0
   -1.4289    0.8250    0.0000 N   0  0  0  0  0  0  0  0  0  0  0  0
   -1.1589    1.6046    0.0000 C   0  0  0  0  0  0  0  0  0  0  0  0
   -1.6990    2.2282    0.0000 C   0  0  0  0  0  0  0  0  0  0  0  0
   -2.5091    2.0723    0.0000 C   0  0  0  0  0  0  0  0  0  0  0  0
   -2.7792    1.2927    0.0000 C   0  0  0  0  0  0  0  0  0  0  0  0
   -3.5893    1.1368    0.0000 C   0  0  0  0  0  0  0  0  0  0  0  0
   -4.1294    1.7605    0.0000 C   0  0  0  0  0  0  0  0  0  0  0  0
   -4.9395    1.6046    0.0000 Cl  0  0  0  0  0  0  0  0  0  0  0  0
   -3.8593    2.5400    0.0000 C   0  0  0  0  0  0  0  0  0  0  0  0
   -3.0492    2.6959    0.0000 C   0  0  0  0  0  0  0  0  0  0  0  0
   -0.3488    1.7605    0.0000 B   0  0  0  0  0  0  0  0  0  0  0  0
   -0.1929    0.9503    0.0000 O   0  0  0  0  0  0  0  0  0  0  0  0
   -0.5047    2.5706    0.0000 O   0  0  0  0  0  0  0  0  0  0  0  0
    0.4614    1.9164    0.0000 O   0  0  0  0  0  0  0  0  0  0  0  0
    1.0015    1.2927    0.0000 C   0  0  0  0  0  0  0  0  0  0  0  0
    1.8116    1.4486    0.0000 C   0  0  0  0  0  0  0  0  0  0  0  0
    2.0816    2.2282    0.0000 N   0  0  0  0  0  0  0  0  0  0  0  0
    2.3517    0.8250    0.0000 C   0  0  0  0  0  0  0  0  0  0  0  0
    3.1618    0.9809    0.0000 O   0  0  0  0  0  0  0  0  0  0  0  0
    2.0816    0.0454    0.0000 O   0  0  0  0  0  0  0  0  0  0  0  0
  1  2  1  0
  2  3  2  0
  2  4  1  0
  4  5  1  0
  5  6  1  6
  5 14  1  0
  6  7  1  0
  7  8  2  0
  7 13  1  0
  8  9  1  0
  9 10  2  0
 10 11  1  0
 10 12  1  0
 12 13  2  0
 14 15  1  0
 14 16  1  0
 14 17  1  0
 17 18  1  0
 18 19  1  0
 19 20  1  6
 19 21  1  0
 21 22  1  0
 21 23  2  0
M  CHG  1  14  -1
M  END
>  <DRUGBANK_ID>  (1) 
DB02560

>  <SECONDARY_ACCESSION_NUMBERS>  (1) 
EXPT00938

>  <COMMON_NAME>  (1) 
[(1S)-1-acetamido-2-(4-chlorophenyl)ethyl]-[(2S)-2-amino-3-hydroxy-3-oxo-propoxy]-dihydroxy-boron

$$$$
