6NH
     RDKit          2D

 24 27  0  0  0  0  0  0  0  0999 V2000
    2.8941    0.7685    0.0000 C   0  0  0  0  0  0  0  0  0  0  0  0
    2.8941   -0.0565    0.0000 C   0  0  0  0  0  0  0  0  0  0  0  0
    2.1796   -0.4690    0.0000 C   0  0  0  0  0  0  0  0  0  0  0  0
    1.4652   -0.0565    0.0000 C   0  0  0  0  0  0  0  0  0  0  0  0
    1.4652    0.7685    0.0000 C   0  0  0  0  0  0  0  0  0  0  0  0
    2.1796    1.1810    0.0000 C   0  0  0  0  0  0  0  0  0  0  0  0
    3.6086    1.1810    0.0000 C   0  0  0  0  0  0  0  0  0  0  0  0
    4.3231    0.7685    0.0000 N   0  0  0  0  0  0  0  0  0  0  0  0
    3.6086    2.0060    0.0000 N   0  0  0  0  0  0  0  0  0  0  0  0
    0.6806   -0.3115    0.0000 N   0  0  0  0  0  0  0  0  0  0  0  0
    0.6806    1.0234    0.0000 N   0  0  0  0  0  0  0  0  0  0  0  0
    0.1956    0.3560    0.0000 C   0  0  0  0  0  0  0  0  0  0  0  0
   -0.6294    0.3560    0.0000 C   0  0  0  0  0  0  0  0  0  0  0  0
   -1.1143   -0.3115    0.0000 C   0  0  0  0  0  0  0  0  0  0  0  0
   -0.8593   -1.0961    0.0000 O   0  0  0  0  0  0  0  0  0  0  0  0
   -1.8989   -0.0565    0.0000 C   0  0  0  0  0  0  0  0  0  0  0  0
   -1.8989    0.7685    0.0000 N   0  0  0  0  0  0  0  0  0  0  0  0
   -1.1143    1.0234    0.0000 N   0  0  0  0  0  0  0  0  0  0  0  0
   -2.5663   -0.5414    0.0000 C   0  0  0  0  0  0  0  0  0  0  0  0
   -2.4801   -1.3619    0.0000 C   0  0  0  0  0  0  0  0  0  0  0  0
   -3.1476   -1.8468    0.0000 C   0  0  0  0  0  0  0  0  0  0  0  0
   -3.9012   -1.5113    0.0000 C   0  0  0  0  0  0  0  0  0  0  0  0
   -3.9875   -0.6908    0.0000 C   0  0  0  0  0  0  0  0  0  0  0  0
   -3.3200   -0.2059    0.0000 C   0  0  0  0  0  0  0  0  0  0  0  0
  1  2  2  0
  1  6  1  0
  1  7  1  0
  2  3  1  0
  3  4  2  0
  4  5  1  0
  4 10  1  0
  5  6  2  0
  5 11  1  0
  7  8  1  0
  7  9  2  0
 10 12  1  0
 11 12  2  0
 12 13  1  0
 13 14  1  0
 13 18  2  0
 14 15  1  0
 14 16  2  0
 16 17  1  0
 16 19  1  0
 17 18  1  0
 19 20  2  0
 19 24  1  0
 20 21  1  0
 21 22  2  0
 22 23  1  0
 23 24  2  0
M  END
>  <DRUGBANK_ID>  (1) 
DB07207

>  <COMMON_NAME>  (1) 
2-(4-HYDROXY-5-PHENYL-1H-PYRAZOL-3-YL)-1H-BENZOIMIDAZOLE-5-CARBOXAMIDINE

$$$$
