A74
     RDKit          2D

 31 34  0  0  0  0  0  0  0  0999 V2000
   -4.2742    2.6363    0.0000 C   0  0  0  0  0  0  0  0  0  0  0  0
   -3.8617    3.3508    0.0000 C   0  0  0  0  0  0  0  0  0  0  0  0
   -3.0367    3.3508    0.0000 C   0  0  0  0  0  0  0  0  0  0  0  0
   -2.6242    2.6363    0.0000 C   0  0  0  0  0  0  0  0  0  0  0  0
   -3.0367    1.9219    0.0000 C   0  0  0  0  0  0  0  0  0  0  0  0
   -3.8617    1.9219    0.0000 C   0  0  0  0  0  0  0  0  0  0  0  0
   -2.6242    1.2074    0.0000 S   0  0  0  0  0  0  0  0  0  0  0  0
   -3.3387    0.7949    0.0000 O   0  0  0  0  0  0  0  0  0  0  0  0
   -1.9098    1.6199    0.0000 O   0  0  0  0  0  0  0  0  0  0  0  0
   -2.2117    0.4929    0.0000 N   0  0  0  0  0  0  0  0  0  0  0  0
   -1.3867    0.4929    0.0000 C   0  0  0  0  0  0  0  0  0  0  0  0
   -0.9018    1.1604    0.0000 N   0  0  0  0  0  0  0  0  0  0  0  0
   -0.1172    0.9054    0.0000 C   0  0  0  0  0  0  0  0  0  0  0  0
    0.5973    1.3179    0.0000 C   0  0  0  0  0  0  0  0  0  0  0  0
    1.3118    0.9054    0.0000 C   0  0  0  0  0  0  0  0  0  0  0  0
    1.3118    0.0804    0.0000 C   0  0  0  0  0  0  0  0  0  0  0  0
    0.5973   -0.3321    0.0000 C   0  0  0  0  0  0  0  0  0  0  0  0
   -0.1172    0.0804    0.0000 C   0  0  0  0  0  0  0  0  0  0  0  0
   -0.9018   -0.1745    0.0000 O   0  0  0  0  0  0  0  0  0  0  0  0
   -2.6242    4.0653    0.0000 Cl  0  0  0  0  0  0  0  0  0  0  0  0
   -4.2742    1.2074    0.0000 Cl  0  0  0  0  0  0  0  0  0  0  0  0
    2.0262    1.3179    0.0000 O   0  0  0  0  0  0  0  0  0  0  0  0
    2.7407    0.9054    0.0000 C   0  0  0  0  0  0  0  0  0  0  0  0
    1.3118   -2.3946    0.0000 C   0  0  0  0  0  0  0  0  0  0  0  0
    0.5973   -2.8071    0.0000 C   0  0  0  0  0  0  0  0  0  0  0  0
   -0.1172   -2.3946    0.0000 N   0  0  0  0  0  0  0  0  0  0  0  0
   -0.1172   -1.5696    0.0000 C   0  0  0  0  0  0  0  0  0  0  0  0
    0.5973   -1.1571    0.0000 C   0  0  0  0  0  0  0  0  0  0  0  0
    1.3118   -1.5696    0.0000 C   0  0  0  0  0  0  0  0  0  0  0  0
    0.5973   -3.6321    0.0000 O   0  0  0  0  0  0  0  0  0  0  0  0
    1.3118   -4.0446    0.0000 C   0  0  0  0  0  0  0  0  0  0  0  0
  1  2  2  0
  1  6  1  0
  2  3  1  0
  3  4  2  0
  3 20  1  0
  4  5  1  0
  5  6  2  0
  5  7  1  0
  6 21  1  0
  7  8  2  0
  7  9  2  0
  7 10  1  0
 10 11  1  0
 11 12  2  0
 11 19  1  0
 12 13  1  0
 13 14  2  0
 13 18  1  0
 14 15  1  0
 15 16  2  0
 15 22  1  0
 16 17  1  0
 17 18  2  0
 17 28  1  0
 18 19  1  0
 22 23  1  0
 24 25  2  0
 24 29  1  0
 25 26  1  0
 25 30  1  0
 26 27  2  0
 27 28  1  0
 28 29  2  0
 30 31  1  0
M  END
>  <DRUGBANK_ID>  (1) 
DB07321

>  <COMMON_NAME>  (1) 
2,5-DICHLORO-N-[5-METHOXY-7-(6-METHOXYPYRIDIN-3-YL)-1,3-BENZOXAZOL-2-YL]BENZENESULFONAMIDE

$$$$
