
     RDKit          2D

 25 28  0  0  0  0  0  0  0  0999 V2000
    2.8579    1.9335    0.0000 O   0  0  0  0  0  0  0  0  0  0  0  0
    2.1434    1.5210    0.0000 C   0  0  0  0  0  0  0  0  0  0  0  0
    0.0000    1.9335    0.0000 O   0  0  0  0  0  0  0  0  0  0  0  0
    0.7145    1.5210    0.0000 C   0  0  0  0  0  0  0  0  0  0  0  0
    1.4289    0.2835    0.0000 C   0  0  0  0  0  0  0  0  0  0  0  0
    2.1434    0.6960    0.0000 C   0  0  0  0  0  0  0  0  0  0  0  0
    0.7145    0.6960    0.0000 C   0  0  0  0  0  0  0  0  0  0  0  0
   -0.7145    0.6960    0.0000 C   0  0  0  0  0  0  0  0  0  0  0  0
   -0.7145    1.5210    0.0000 C   0  0  0  0  0  0  0  0  0  0  0  0
   -1.4289    0.2835    0.0000 C   0  0  0  0  0  0  0  0  0  0  0  0
    1.4289    1.9335    0.0000 C   0  0  0  0  0  0  0  0  0  0  0  0
   -1.4289    1.9335    0.0000 C   0  0  0  0  0  0  0  0  0  0  0  0
   -2.1434    0.6960    0.0000 C   0  0  0  0  0  0  0  0  0  0  0  0
   -2.1434    1.5210    0.0000 C   0  0  0  0  0  0  0  0  0  0  0  0
   -2.8579    1.9335    0.0000 O   0  0  0  0  0  0  0  0  0  0  0  0
    0.0000    0.2835    0.0000 C   0  0  0  0  0  0  0  0  0  0  0  0
   -0.2438   -0.5046    0.0000 C   0  0  0  0  0  0  0  0  0  0  0  0
   -1.0688   -0.5046    0.0000 C   0  0  0  0  0  0  0  0  0  0  0  0
   -1.4813   -1.2190    0.0000 C   0  0  0  0  0  0  0  0  0  0  0  0
   -1.0688   -1.9335    0.0000 C   0  0  0  0  0  0  0  0  0  0  0  0
   -0.2438   -1.9335    0.0000 C   0  0  0  0  0  0  0  0  0  0  0  0
    0.1687   -1.2190    0.0000 C   0  0  0  0  0  0  0  0  0  0  0  0
    0.9937   -1.2190    0.0000 C   0  0  0  0  0  0  0  0  0  0  0  0
    1.4061   -0.5046    0.0000 O   0  0  0  0  0  0  0  0  0  0  0  0
    1.4061   -1.9335    0.0000 O   0  0  0  0  0  0  0  0  0  0  0  0
  2  1  1  0
  4  3  1  0
  4 11  2  0
  5  6  1  0
  6  2  2  0
  7  5  2  0
  7  4  1  0
  8  9  2  0
  8 10  1  0
  9  3  1  0
  9 12  1  0
 10 13  2  0
 11  2  1  0
 12 14  2  0
 13 14  1  0
 14 15  1  0
 16  8  1  0
 16  7  1  0
 16 17  1  0
 17 18  2  0
 18 19  1  0
 19 20  2  0
 20 21  1  0
 21 22  2  0
 22 17  1  0
 22 23  1  0
 23 25  1  0
 23 24  2  0
M  END
>  <DRUGBANK_ID>  (1) 
DB07764

>  <COMMON_NAME>  (1) 
Fluorescin

>  <CAS_NUMBER>  (1) 
518-44-5

>  <UNII>  (1) 
ES5WQ31089

>  <SYNONYMS>  (1) 
2-(3,6-dihydroxyxanthen-9-yl)benzoic acid

$$$$
