
     RDKit          2D

 17 18  0  0  0  0  0  0  0  0999 V2000
   -2.0672   -1.8747    0.0000 C   0  0  0  0  0  0  0  0  0  0  0  0
   -1.3987   -2.3619    0.0000 C   0  0  0  0  0  0  0  0  0  0  0  0
   -0.6445   -2.0264    0.0000 C   0  0  0  0  0  0  0  0  0  0  0  0
   -0.5577   -1.2038    0.0000 C   0  0  0  0  0  0  0  0  0  0  0  0
   -1.2313   -0.7180    0.0000 C   0  0  0  0  0  0  0  0  0  0  0  0
   -1.9828   -1.0563    0.0000 C   0  0  0  0  0  0  0  0  0  0  0  0
    0.1952   -0.8671    0.0000 N   0  0  0  0  0  0  0  0  0  0  0  0
    0.2802   -0.0465    0.0000 C   0  0  0  0  0  0  0  0  0  0  0  0
    0.9909    0.3647    0.0000 S   0  0  0  0  0  0  0  0  0  0  0  0
    0.8182    1.1713    0.0000 C   0  0  0  0  0  0  0  0  0  0  0  0
   -0.0024    1.2563    0.0000 C   0  0  0  0  0  0  0  0  0  0  0  0
   -0.3367    0.5021    0.0000 N   0  0  0  0  0  0  0  0  0  0  0  0
   -0.4160    1.9701    0.0000 O   0  0  0  0  0  0  0  0  0  0  0  0
    1.3691    1.7853    0.0000 C   0  0  0  0  0  0  0  0  0  0  0  0
    2.1764    1.6151    0.0000 C   0  0  0  0  0  0  0  0  0  0  0  0
    1.1130    2.5695    0.0000 C   0  0  0  0  0  0  0  0  0  0  0  0
    0.0227   -2.5115    0.0000 F   0  0  0  0  0  0  0  0  0  0  0  0
  1  2  2  0
  2  3  1  0
  3  4  2  0
  3 17  1  0
  4  5  1  0
  4  7  1  0
  5  6  2  0
  6  1  1  0
  7  8  1  0
  8  9  1  0
  9 10  1  0
 10 11  1  0
 10 14  1  1
 11 12  1  0
 11 13  2  0
 12  8  2  0
 14 15  1  0
 14 16  1  0
M  END
>  <DRUGBANK_ID>  (1) 
DB08771

>  <COMMON_NAME>  (1) 
(5R)-2-[(2-Fluorophenyl)amino]-5-isopropyl-1,3-thiazol-4(5H)-one

$$$$
