
     RDKit          2D

 11 11  0  0  0  0  0  0  0  0999 V2000
    1.0717   -0.8250    0.0000 C   0  0  0  0  0  0  0  0  0  0  0  0
    1.7863   -0.4126    0.0000 O   0  0  0  0  0  0  0  0  0  0  0  0
    0.3572   -0.4126    0.0000 C   0  0  0  0  0  0  0  0  0  0  0  0
   -0.3572   -0.8250    0.0000 C   0  0  0  0  0  0  0  0  0  0  0  0
   -0.3572   -1.6501    0.0000 O   0  0  0  0  0  0  0  0  0  0  0  0
   -1.0717   -0.4126    0.0000 C   0  0  0  0  0  0  0  0  0  0  0  0
   -1.7863   -0.8250    0.0000 O   0  0  0  0  0  0  0  0  0  0  0  0
   -1.0717    0.4124    0.0000 C   0  0  0  0  0  0  0  0  0  0  0  0
   -0.3572    0.8250    0.0000 C   0  0  0  0  0  0  0  0  0  0  0  0
    0.3572    0.4124    0.0000 O   0  0  0  0  0  0  0  0  0  0  0  0
   -0.3572    1.6501    0.0000 O   0  0  0  0  0  0  0  0  0  0  0  0
  1  2  1  0
  3  1  1  6
  3  4  1  0
  3 10  1  0
  4  5  1  6
  4  6  1  0
  6  7  1  6
  6  8  1  0
  9  8  1  0
  9 11  1  1
 10  9  1  0
M  END
>  <DRUGBANK_ID>  (1) 
DB04382

>  <SECONDARY_ACCESSION_NUMBERS>  (1) 
EXPT00111

>  <COMMON_NAME>  (1) 
2-Deoxy-alpha-D-galactopyranose

>  <CAS_NUMBER>  (1) 
14215-77-1

>  <UNII>  (1) 
87447VW8UN

>  <SYNONYMS>  (1) 
2-Deoxy-alpha-D-lyxo-hexopyranose; 2-deoxy-beta-D-galactose; 2-Deoxy-Î±-D-lyxo-hexopyranose

$$$$
