199
     RDKit          2D

 31 35  0  0  0  0  0  0  0  0999 V2000
   -0.5369   -1.1192    0.0000 C   0  0  0  0  0  0  0  0  0  0  0  0
    0.1775   -1.5317    0.0000 C   0  0  0  0  0  0  0  0  0  0  0  0
    0.1775   -2.3567    0.0000 C   0  0  0  0  0  0  0  0  0  0  0  0
   -0.5369   -2.7692    0.0000 N   0  0  0  0  0  0  0  0  0  0  0  0
   -1.2514   -2.3567    0.0000 C   0  0  0  0  0  0  0  0  0  0  0  0
   -2.0360   -2.6116    0.0000 N   0  0  0  0  0  0  0  0  0  0  0  0
   -2.5210   -1.9442    0.0000 C   0  0  0  0  0  0  0  0  0  0  0  0
   -2.0360   -1.2767    0.0000 C   0  0  0  0  0  0  0  0  0  0  0  0
   -1.2514   -1.5317    0.0000 C   0  0  0  0  0  0  0  0  0  0  0  0
   -2.2910   -0.4921    0.0000 N   0  0  0  0  0  0  0  0  0  0  0  0
    1.6065    0.1183    0.0000 C   0  0  0  0  0  0  0  0  0  0  0  0
    2.3209   -0.2942    0.0000 C   0  0  0  0  0  0  0  0  0  0  0  0
    2.3209   -1.1192    0.0000 C   0  0  0  0  0  0  0  0  0  0  0  0
    1.6065   -1.5317    0.0000 C   0  0  0  0  0  0  0  0  0  0  0  0
    0.8920   -1.1192    0.0000 C   0  0  0  0  0  0  0  0  0  0  0  0
    0.8920   -0.2942    0.0000 C   0  0  0  0  0  0  0  0  0  0  0  0
   -3.0979   -0.3206    0.0000 C   0  0  0  0  0  0  0  0  0  0  0  0
   -3.6500   -0.9337    0.0000 O   0  0  0  0  0  0  0  0  0  0  0  0
   -4.4148    1.4202    0.0000 C   0  0  0  0  0  0  0  0  0  0  0  0
   -3.8628    2.0333    0.0000 C   0  0  0  0  0  0  0  0  0  0  0  0
   -3.0558    1.8617    0.0000 N   0  0  0  0  0  0  0  0  0  0  0  0
   -2.8009    1.0771    0.0000 C   0  0  0  0  0  0  0  0  0  0  0  0
   -3.3529    0.4640    0.0000 C   0  0  0  0  0  0  0  0  0  0  0  0
   -4.1599    0.6356    0.0000 C   0  0  0  0  0  0  0  0  0  0  0  0
    3.0354    0.9433    0.0000 C   0  0  0  0  0  0  0  0  0  0  0  0
    3.7499    1.3558    0.0000 C   0  0  0  0  0  0  0  0  0  0  0  0
    4.4644    0.9433    0.0000 N   0  0  0  0  0  0  0  0  0  0  0  0
    4.4644    0.1183    0.0000 C   0  0  0  0  0  0  0  0  0  0  0  0
    3.7499   -0.2942    0.0000 C   0  0  0  0  0  0  0  0  0  0  0  0
    3.0354    0.1183    0.0000 N   0  0  0  0  0  0  0  0  0  0  0  0
    5.1788    1.3558    0.0000 C   0  0  0  0  0  0  0  0  0  0  0  0
  1  2  2  0
  1  9  1  0
  2  3  1  0
  2 15  1  0
  3  4  2  0
  4  5  1  0
  5  6  1  0
  5  9  2  0
  6  7  1  0
  7  8  2  0
  8  9  1  0
  8 10  1  0
 10 17  1  0
 11 12  2  0
 11 16  1  0
 12 13  1  0
 12 30  1  0
 13 14  2  0
 14 15  1  0
 15 16  2  0
 17 18  2  0
 17 23  1  0
 19 20  2  0
 19 24  1  0
 20 21  1  0
 21 22  2  0
 22 23  1  0
 23 24  2  0
 25 26  1  0
 25 30  1  0
 26 27  1  0
 27 28  1  0
 27 31  1  0
 28 29  1  0
 29 30  1  0
M  END
>  <DRUGBANK_ID>  (1) 
DB06876

>  <COMMON_NAME>  (1) 
N-{5-[4-(4-METHYLPIPERAZIN-1-YL)PHENYL]-1H-PYRROLO[2,3-B]PYRIDIN-3-YL}NICOTINAMIDE

$$$$
