
     RDKit          2D

 22 23  0  0  0  0  0  0  0  0999 V2000
    2.5007   -0.2466    0.0000 N   0  0  0  0  0  0  0  0  0  0  0  0
    1.7862    0.1658    0.0000 C   0  0  0  0  0  0  0  0  0  0  0  0
    1.0717   -0.2466    0.0000 C   0  0  0  0  0  0  0  0  0  0  0  0
    1.0717   -1.0717    0.0000 C   0  0  0  0  0  0  0  0  0  0  0  0
    3.2151    0.1658    0.0000 C   0  0  0  0  0  0  0  0  0  0  0  0
    2.5007   -1.0717    0.0000 C   0  0  0  0  0  0  0  0  0  0  0  0
    0.3572    0.1658    0.0000 O   0  0  0  0  0  0  0  0  0  0  0  0
   -0.3571   -0.2466    0.0000 C   0  0  0  0  0  0  0  0  0  0  0  0
   -1.0717   -0.6591    0.0000 C   0  0  0  0  0  0  0  0  0  0  0  0
   -1.0717   -1.4842    0.0000 C   0  0  0  0  0  0  0  0  0  0  0  0
   -1.7861   -1.8966    0.0000 C   0  0  0  0  0  0  0  0  0  0  0  0
   -2.5006   -1.4842    0.0000 C   0  0  0  0  0  0  0  0  0  0  0  0
   -2.5006   -0.6591    0.0000 C   0  0  0  0  0  0  0  0  0  0  0  0
   -1.7861   -0.2466    0.0000 C   0  0  0  0  0  0  0  0  0  0  0  0
   -0.7697    0.4677    0.0000 C   0  0  0  0  0  0  0  0  0  0  0  0
   -1.5947    0.4677    0.0000 C   0  0  0  0  0  0  0  0  0  0  0  0
   -2.0071    1.1822    0.0000 C   0  0  0  0  0  0  0  0  0  0  0  0
   -1.5947    1.8966    0.0000 C   0  0  0  0  0  0  0  0  0  0  0  0
   -0.7697    1.8966    0.0000 C   0  0  0  0  0  0  0  0  0  0  0  0
   -0.3571    1.1822    0.0000 C   0  0  0  0  0  0  0  0  0  0  0  0
    0.0553   -0.9612    0.0000 C   0  0  0  0  0  0  0  0  0  0  0  0
   -3.2151   -1.8966    0.0000 Cl  0  0  0  0  0  0  0  0  0  0  0  0
  1  2  1  0
  1  5  1  0
  1  6  1  0
  2  3  1  0
  3  4  1  0
  3  7  1  0
  7  8  1  0
  8  9  1  0
  8 15  1  0
  8 21  1  0
  9 10  2  0
  9 14  1  0
 10 11  1  0
 11 12  2  0
 12 13  1  0
 12 22  1  0
 13 14  2  0
 15 16  2  0
 15 20  1  0
 16 17  1  0
 17 18  2  0
 18 19  1  0
 19 20  2  0
M  END
>  <DRUGBANK_ID>  (1) 
DB15790

>  <COMMON_NAME>  (1) 
Mecloxamine

>  <CAS_NUMBER>  (1) 
5668-06-4

>  <UNII>  (1) 
U8V8239CRM

>  <SYNONYMS>  (1) 
Mecloxamine

$$$$
