T3O
     RDKit          2D

 19 21  0  0  0  0  0  0  0  0999 V2000
    1.2047    0.8940    0.0000 C   0  0  0  0  0  0  0  0  0  0  0  0
    0.6549    0.4580    0.0000 C   0  0  0  0  0  0  0  0  0  0  0  0
   -0.0991    0.2923    0.0000 C   0  0  0  0  0  0  0  0  0  0  0  0
   -0.2810    1.2700    0.0000 C   0  0  0  0  0  0  0  0  0  0  0  0
   -0.3910   -0.3446    0.0000 C   0  0  0  0  0  0  0  0  0  0  0  0
    0.1135    0.0797    0.0000 C   0  0  0  0  0  0  0  0  0  0  0  0
    1.0735    0.0904    0.0000 C   0  0  0  0  0  0  0  0  0  0  0  0
    1.1205   -0.8965    0.0000 C   0  0  0  0  0  0  0  0  0  0  0  0
    2.0184   -0.8228    0.0000 C   0  0  0  0  0  0  0  0  0  0  0  0
    1.2796   -1.7849    0.0000 C   0  0  0  0  0  0  0  0  0  0  0  0
    0.3042   -1.0760    0.0000 O   0  0  0  0  0  0  0  0  0  0  0  0
    0.7163   -0.4951    0.0000 C   0  0  0  0  0  0  0  0  0  0  0  0
   -0.0774   -0.2700    0.0000 C   0  0  0  0  0  0  0  0  0  0  0  0
   -0.6692   -0.8449    0.0000 C   0  0  0  0  0  0  0  0  0  0  0  0
   -1.4629   -0.6198    0.0000 C   0  0  0  0  0  0  0  0  0  0  0  0
   -1.6648    0.1801    0.0000 C   0  0  0  0  0  0  0  0  0  0  0  0
   -2.4585    0.4052    0.0000 O   0  0  0  0  0  0  0  0  0  0  0  0
   -1.0730    0.7550    0.0000 C   0  0  0  0  0  0  0  0  0  0  0  0
   -0.2793    0.5299    0.0000 C   0  0  0  0  0  0  0  0  0  0  0  0
  1  2  1  0
  1  7  1  0
  2  3  1  6
  2 12  1  0
  3  4  1  0
  3  5  2  0
  5  6  1  0
  7  6  1  1
  7  8  1  0
  8  9  1  0
  8 10  1  0
  8 11  1  0
 11 12  1  0
 12 13  1  6
 13 14  2  0
 13 19  1  0
 14 15  1  0
 15 16  2  0
 16 17  1  0
 16 18  1  0
 18 19  2  0
M  END
>  <DRUGBANK_ID>  (1) 
DB08595

>  <COMMON_NAME>  (1) 
4-[(1S,2R,5S)-4,4,8-TRIMETHYL-3-OXABICYCLO[3.3.1]NON-7-EN-2-YL]PHENOL

$$$$
