C6L
     RDKit          2D

 15 14  0  0  0  0  0  0  0  0999 V2000
    0.5226   -0.7133    0.0000 O   0  0  0  0  0  0  0  0  0  0  0  0
    0.5226    0.1117    0.0000 C   0  0  0  0  0  0  0  0  0  0  0  0
   -0.1919    0.5242    0.0000 C   0  0  0  0  0  0  0  0  0  0  0  0
   -0.9064    0.1117    0.0000 C   0  0  0  0  0  0  0  0  0  0  0  0
   -1.6209    0.5242    0.0000 C   0  0  0  0  0  0  0  0  0  0  0  0
   -2.3353    0.1117    0.0000 C   0  0  0  0  0  0  0  0  0  0  0  0
   -3.0498    0.5242    0.0000 C   0  0  0  0  0  0  0  0  0  0  0  0
    1.2370    0.5242    0.0000 N   0  0  0  0  0  0  0  0  0  0  0  0
    1.9515    0.1117    0.0000 C   0  0  0  0  0  0  0  0  0  0  0  0
    1.9515   -0.7133    0.0000 C   0  0  0  0  0  0  0  0  0  0  0  0
    1.2370   -1.1258    0.0000 O   0  0  0  0  0  0  0  0  0  0  0  0
    2.6660   -1.1258    0.0000 O   0  0  0  0  0  0  0  0  0  0  0  0
    2.6660    0.5242    0.0000 C   0  0  0  0  0  0  0  0  0  0  0  0
    3.3804    0.1117    0.0000 C   0  0  0  0  0  0  0  0  0  0  0  0
    4.0949    0.5242    0.0000 O   0  0  0  0  0  0  0  0  0  0  0  0
  2  1  2  0
  2  3  1  0
  4  3  1  0
  5  4  1  0
  5  6  1  0
  6  7  1  0
  8  2  1  0
  9  8  1  0
 10  9  1  0
 10 12  1  0
 11 10  2  0
  9 13  1  1
 14 13  1  0
 15 14  1  0
M  END
>  <DRUGBANK_ID>  (1) 
DB07532

>  <COMMON_NAME>  (1) 
N-hexanoyl-L-homoserine

$$$$
