
     RDKit          2D

  4  3  0  0  0  0  0  0  0  0999 V2000
    0.0000    0.6187    0.0000 O   0  0  0  0  0  0  0  0  0  0  0  0
    0.0000   -0.2062    0.0000 C   0  0  0  0  0  0  0  0  0  0  0  0
   -0.7145   -0.6187    0.0000 C   0  0  0  0  0  0  0  0  0  0  0  0
    0.7145   -0.6187    0.0000 Cl  0  0  0  0  0  0  0  0  0  0  0  0
  1  2  2  0
  2  4  1  0
  2  3  1  0
M  END
>  <DRUGBANK_ID>  (1) 
DB14623

>  <SECONDARY_ACCESSION_NUMBERS>  (1) 
DBSALT002299

>  <COMMON_NAME>  (1) 
Acetyl chloride

>  <CAS_NUMBER>  (1) 
75-36-5

>  <UNII>  (1) 
QD15RNO45K

>  <SYNONYMS>  (1) 
Acetic acid chloride; Acetic chloride; Ethanoyl chloride

$$$$
