
     RDKit          2D

 30 33  0  0  0  0  0  0  0  0999 V2000
    7.3976    2.1136    0.0000 C   0  0  0  0  0  0  0  0  0  0  0  0
    6.8832    1.4686    0.0000 C   0  0  0  0  0  0  0  0  0  0  0  0
    6.0674    1.5915    0.0000 N   0  0  0  0  0  0  0  0  0  0  0  0
    5.7660    2.3595    0.0000 C   0  0  0  0  0  0  0  0  0  0  0  0
    6.2804    3.0045    0.0000 N   0  0  0  0  0  0  0  0  0  0  0  0
    7.0961    2.8815    0.0000 C   0  0  0  0  0  0  0  0  0  0  0  0
    4.9502    2.4825    0.0000 C   0  0  0  0  0  0  0  0  0  0  0  0
    4.4358    1.8374    0.0000 N   0  0  0  0  0  0  0  0  0  0  0  0
    4.7938    1.0941    0.0000 C   0  0  0  0  0  0  0  0  0  0  0  0
    4.4358    0.3508    0.0000 C   0  0  0  0  0  0  0  0  0  0  0  0
    3.6315    0.1673    0.0000 O   0  0  0  0  0  0  0  0  0  0  0  0
    2.9865    0.6816    0.0000 C   0  0  0  0  0  0  0  0  0  0  0  0
    2.2720    0.2691    0.0000 C   0  0  0  0  0  0  0  0  0  0  0  0
    1.5575    0.6816    0.0000 C   0  0  0  0  0  0  0  0  0  0  0  0
    1.5575    1.5066    0.0000 C   0  0  0  0  0  0  0  0  0  0  0  0
    2.2720    1.9191    0.0000 C   0  0  0  0  0  0  0  0  0  0  0  0
    2.9865    1.5066    0.0000 C   0  0  0  0  0  0  0  0  0  0  0  0
    3.6315    2.0210    0.0000 C   0  0  0  0  0  0  0  0  0  0  0  0
    3.4479    2.8253    0.0000 O   0  0  0  0  0  0  0  0  0  0  0  0
    0.8431    1.9191    0.0000 C   0  0  0  0  0  0  0  0  0  0  0  0
    0.1286    1.5066    0.0000 C   0  0  0  0  0  0  0  0  0  0  0  0
   -0.5859    1.9191    0.0000 C   0  0  0  0  0  0  0  0  0  0  0  0
   -0.5859    2.7441    0.0000 C   0  0  0  0  0  0  0  0  0  0  0  0
    0.1286    3.1566    0.0000 C   0  0  0  0  0  0  0  0  0  0  0  0
    0.8431    2.7441    0.0000 C   0  0  0  0  0  0  0  0  0  0  0  0
   -1.3003    3.1566    0.0000 O   0  0  0  0  0  0  0  0  0  0  0  0
   -2.0148    2.7441    0.0000 C   0  0  0  0  0  0  0  0  0  0  0  0
   -2.7293    2.3316    0.0000 F   0  0  0  0  0  0  0  0  0  0  0  0
   -2.4273    3.4586    0.0000 F   0  0  0  0  0  0  0  0  0  0  0  0
   -1.6023    2.0297    0.0000 F   0  0  0  0  0  0  0  0  0  0  0  0
  1  2  2  0
  1  6  1  0
  2  3  1  0
  3  4  2  0
  4  5  1  0
  4  7  1  0
  5  6  2  0
  7  8  1  0
  8  9  1  0
  8 18  1  0
  9 10  1  0
 10 11  1  0
 11 12  1  0
 12 13  1  0
 12 17  2  0
 13 14  2  0
 14 15  1  0
 15 16  2  0
 15 20  1  0
 16 17  1  0
 17 18  1  0
 18 19  2  0
 20 21  2  0
 20 25  1  0
 21 22  1  0
 22 23  2  0
 23 24  1  0
 23 26  1  0
 24 25  2  0
 26 27  1  0
 27 28  1  0
 27 29  1  0
 27 30  1  0
M  END
>  <DRUGBANK_ID>  (1) 
DB12394

>  <COMMON_NAME>  (1) 
Eleclazine

>  <CAS_NUMBER>  (1) 
1443211-72-0

>  <UNII>  (1) 
PUY08529FK

>  <SYNONYMS>  (1) 
4-(pyrimidin-2-ylmethyl)-7-(4-(trifluoromethoxy)phenyl)-3,4-dihydrobenzo[f][1,4]oxazepin-5(2H)-one; Eleclazine

$$$$
