
     RDKit          2D

 29 33  0  0  0  0  0  0  0  0999 V2000
    4.0133   -1.0477    0.0000 C   0  0  0  0  0  0  0  0  0  0  0  0
    3.6777   -0.2941    0.0000 N   0  0  0  0  0  0  0  0  0  0  0  0
    2.8708   -0.1225    0.0000 C   0  0  0  0  0  0  0  0  0  0  0  0
    2.7845    0.6979    0.0000 C   0  0  0  0  0  0  0  0  0  0  0  0
    3.5382    1.0335    0.0000 C   0  0  0  0  0  0  0  0  0  0  0  0
    4.0902    0.4204    0.0000 N   0  0  0  0  0  0  0  0  0  0  0  0
    2.0701    1.1104    0.0000 C   0  0  0  0  0  0  0  0  0  0  0  0
    1.3556    0.6979    0.0000 C   0  0  0  0  0  0  0  0  0  0  0  0
    0.6411    1.1104    0.0000 N   0  0  0  0  0  0  0  0  0  0  0  0
   -0.1435    0.8555    0.0000 N   0  0  0  0  0  0  0  0  0  0  0  0
   -0.6284    1.5229    0.0000 C   0  0  0  0  0  0  0  0  0  0  0  0
   -0.1435    2.1904    0.0000 C   0  0  0  0  0  0  0  0  0  0  0  0
    0.6411    1.9354    0.0000 C   0  0  0  0  0  0  0  0  0  0  0  0
    1.3556    2.3479    0.0000 C   0  0  0  0  0  0  0  0  0  0  0  0
    2.0701    1.9354    0.0000 N   0  0  0  0  0  0  0  0  0  0  0  0
    1.3556    3.1729    0.0000 C   0  0  0  0  0  0  0  0  0  0  0  0
    0.6881    3.6579    0.0000 C   0  0  0  0  0  0  0  0  0  0  0  0
    0.9431    4.4425    0.0000 N   0  0  0  0  0  0  0  0  0  0  0  0
    1.7681    4.4425    0.0000 N   0  0  0  0  0  0  0  0  0  0  0  0
    2.0230    3.6579    0.0000 C   0  0  0  0  0  0  0  0  0  0  0  0
    2.2530    5.1099    0.0000 C   0  0  0  0  0  0  0  0  0  0  0  0
    2.9204    4.6250    0.0000 C   0  0  0  0  0  0  0  0  0  0  0  0
    2.8342    3.8045    0.0000 C   0  0  0  0  0  0  0  0  0  0  0  0
    2.7480    2.9840    0.0000 N   0  0  0  0  0  0  0  0  0  0  0  0
    1.5856    5.5948    0.0000 C   0  0  0  0  0  0  0  0  0  0  0  0
    2.0705    6.2623    0.0000 C   0  0  0  0  0  0  0  0  0  0  0  0
    2.7379    5.7774    0.0000 C   0  0  0  0  0  0  0  0  0  0  0  0
    1.9414    7.0771    0.0000 C   0  0  0  0  0  0  0  0  0  0  0  0
    1.8124    7.8920    0.0000 N   0  0  0  0  0  0  0  0  0  0  0  0
  1  2  1  0
  2  3  1  0
  2  6  1  0
  3  4  2  0
  4  5  1  0
  4  7  1  0
  5  6  2  0
  7  8  2  0
  7 15  1  0
  8  9  1  0
  9 10  1  0
  9 13  1  0
 10 11  2  0
 11 12  1  0
 12 13  2  0
 13 14  1  0
 14 15  2  0
 14 16  1  0
 16 17  1  0
 16 20  2  0
 17 18  2  0
 18 19  1  0
 19 20  1  0
 21 19  1  0
 21 22  1  6
 21 25  1  0
 21 27  1  0
 22 23  1  0
 23 24  3  0
 26 25  1  0
 26 27  1  0
 26 28  1  6
 28 29  3  0
M  END
>  <DRUGBANK_ID>  (1) 
DB18709

>  <COMMON_NAME>  (1) 
Ropsacitinib

>  <CAS_NUMBER>  (1) 
2127109-84-4

>  <UNII>  (1) 
HY5SOV7O0Q

>  <SYNONYMS>  (1) 
Cyclobutaneacetonitrile, 3-cyano-1-(4-(6-(1-methyl-1h-pyrazol-4- yl)pyrazolo(1,5-a)pyrazin-4-yl)-1h-pyrazol-1-yl)-, trans-; Ropsacitinib; Trans-3-cyano-1-(4-(6-(1-methyl-1h-pyrazol-4-yl)pyrazolo(1,5-a)pyrazin-4-yl)- 1h-pyrazol-1-yl)-cyclobutaneacetonitrile

$$$$
