
     RDKit          2D

  4  3  0  0  0  0  0  0  0  0999 V2000
   -0.7145   -0.6187    0.0000 C   0  0  0  0  0  0  0  0  0  0  0  0
    0.0000   -0.2062    0.0000 C   0  0  0  0  0  0  0  0  0  0  0  0
    0.7145   -0.6187    0.0000 O   0  0  0  0  0  0  0  0  0  0  0  0
    0.0000    0.6187    0.0000 O   0  0  0  0  0  0  0  0  0  0  0  0
  2  1  1  0
  3  2  1  0
  4  2  2  0
M  CHG  1   3  -1
M  END
>  <DRUGBANK_ID>  (1) 
DB14511

>  <COMMON_NAME>  (1) 
Acetate

>  <CAS_NUMBER>  (1) 
71-50-1

>  <UNII>  (1) 
569DQM74SC

>  <SYNONYMS>  (1) 
Acetate; Acetate anion; Acetate ion; Acetate ion (1-); Acetic acid anion; Acetic acid, ion(1-); Acetoxy ion; Azetat

$$$$
