
     RDKit          2D

 41 45  0  0  1  0  0  0  0  0999 V2000
    2.8579   -2.4750    0.0000 C   0  0  0  0  0  0  0  0  0  0  0  0
    2.8579   -1.6500    0.0000 C   0  0  0  0  0  0  0  0  0  0  0  0
    3.5724   -1.2375    0.0000 C   0  0  0  0  0  0  0  0  0  0  0  0
    4.2868   -1.6500    0.0000 C   0  0  0  0  0  0  0  0  0  0  0  0
    4.5690   -0.8748    0.0000 O   0  0  0  0  0  0  0  0  0  0  0  0
    4.2868   -2.4750    0.0000 C   0  0  0  0  0  0  0  0  0  0  0  0
    3.5724   -2.8875    0.0000 C   0  0  0  0  0  0  0  0  0  0  0  0
    5.0993   -1.7933    0.0000 C   0  0  0  0  0  0  0  0  0  0  0  0
    5.6296   -1.1613    0.0000 C   0  0  0  0  0  0  0  0  0  0  0  0
    6.4421   -1.3045    0.0000 C   0  0  0  0  0  0  0  0  0  0  0  0
    6.7242   -2.0798    0.0000 C   0  0  0  0  0  0  0  0  0  0  0  0
    6.1939   -2.7118    0.0000 C   0  0  0  0  0  0  0  0  0  0  0  0
    5.3815   -2.5685    0.0000 N   0  0  0  0  0  0  0  0  0  0  0  0
    7.5367   -2.2230    0.0000 C   0  0  0  0  0  0  0  0  0  0  0  0
    8.0670   -1.5911    0.0000 N   0  0  0  0  0  0  0  0  0  0  0  0
    8.8795   -1.7343    0.0000 C   0  0  0  0  0  0  0  0  0  0  0  0
    9.1616   -2.5096    0.0000 C   0  0  0  0  0  0  0  0  0  0  0  0
    8.6313   -3.1415    0.0000 C   0  0  0  0  0  0  0  0  0  0  0  0
    7.8189   -2.9983    0.0000 N   0  0  0  0  0  0  0  0  0  0  0  0
    2.1434   -2.8875    0.0000 N   0  0  0  0  0  0  0  0  0  0  0  0
    2.1434   -3.7125    0.0000 C   0  0  0  0  0  0  0  0  0  0  0  0
    2.8109   -4.1974    0.0000 C   0  0  0  0  0  0  0  0  0  0  0  0
    2.5559   -4.9820    0.0000 C   0  0  0  0  0  0  0  0  0  0  0  0
    1.7309   -4.9820    0.0000 N   0  0  0  0  0  0  0  0  0  0  0  0
    1.4760   -4.1974    0.0000 C   0  0  0  0  0  0  0  0  0  0  0  0
    1.2460   -5.6495    0.0000 C   0  0  0  0  0  0  0  0  0  0  0  0
    0.4255   -5.5632    0.0000 O   0  0  0  0  0  0  0  0  0  0  0  0
    1.5815   -6.4032    0.0000 C   0  0  0  0  0  0  0  0  0  0  0  0
    1.0966   -7.0706    0.0000 N   0  0  0  0  0  0  0  0  0  0  0  0
    1.4322   -7.8243    0.0000 C   0  0  0  0  0  0  0  0  0  0  0  0
    2.2527   -7.9105    0.0000 O   0  0  0  0  0  0  0  0  0  0  0  0
    0.9473   -8.4917    0.0000 C   0  0  0  0  0  0  0  0  0  0  0  0
    1.2828   -9.2454    0.0000 C   0  0  0  0  0  0  0  0  0  0  0  0
    0.7979   -9.9128    0.0000 C   0  0  0  0  0  0  0  0  0  0  0  0
   -0.0226   -9.8266    0.0000 C   0  0  0  0  0  0  0  0  0  0  0  0
   -0.3581   -9.0729    0.0000 C   0  0  0  0  0  0  0  0  0  0  0  0
    0.1268   -8.4055    0.0000 C   0  0  0  0  0  0  0  0  0  0  0  0
    1.1335  -10.6665    0.0000 C   0  0  0  0  0  0  0  0  0  0  0  0
    1.4690  -11.4202    0.0000 F   0  0  0  0  0  0  0  0  0  0  0  0
    0.3798  -11.0021    0.0000 F   0  0  0  0  0  0  0  0  0  0  0  0
    1.8871  -10.3309    0.0000 F   0  0  0  0  0  0  0  0  0  0  0  0
  1  2  1  0
  1  7  1  0
  1 20  1  1
  2  3  1  0
  4  3  1  0
  4  5  1  6
  4  6  1  0
  4  8  1  0
  6  7  1  0
  8  9  2  0
  8 13  1  0
  9 10  1  0
 10 11  2  0
 11 12  1  0
 11 14  1  0
 12 13  2  0
 14 15  2  0
 14 19  1  0
 15 16  1  0
 16 17  2  0
 17 18  1  0
 18 19  2  0
 21 20  1  1
 21 22  1  0
 21 25  1  0
 22 23  1  0
 23 24  1  0
 24 25  1  0
 24 26  1  0
 26 27  2  0
 26 28  1  0
 28 29  1  0
 29 30  1  0
 30 31  2  0
 30 32  1  0
 32 33  2  0
 32 37  1  0
 33 34  1  0
 34 35  2  0
 34 38  1  0
 35 36  1  0
 36 37  2  0
 38 39  1  0
 38 40  1  0
 38 41  1  0
M  END
>  <DRUGBANK_ID>  (1) 
DB17200

>  <COMMON_NAME>  (1) 
PF-4136309

>  <CAS_NUMBER>  (1) 
1341224-83-6

>  <UNII>  (1) 
3M2595V4KT

>  <SYNONYMS>  (1) 
Benzamide, n-(2-((3s)-3-((trans-4-hydroxy-4-(5-(2-pyrimidinyl)- 2-pyridinyl)cyclohexyl)amino)-1-pyrrolidinyl)-2-oxoethyl)-3-(trifluoromethyl)-; N-(2-((3s)-3-((trans-4-hydroxy-4-(5-(pyrimidin-2-yl)pyridin-2- yl)cyclohexyl)amino)pyrrolidin-1-yl)-2-oxoethyl)-3-(trifluoromethyl)benzamide

$$$$
