
     RDKit          2D

 16 17  0  0  0  0  0  0  0  0999 V2000
   -1.4297    0.0000    0.0000 C   0  0  0  0  0  0  0  0  0  0  0  0
   -0.7160    0.4138    0.0000 C   0  0  0  0  0  0  0  0  0  0  0  0
   -2.1450    0.4111    0.0000 C   0  0  0  0  0  0  0  0  0  0  0  0
   -1.4282   -0.8250    0.0000 C   0  0  0  0  0  0  0  0  0  0  0  0
   -0.0007    0.0026    0.0000 C   0  0  0  0  0  0  0  0  0  0  0  0
   -0.7176    1.2388    0.0000 O   0  0  0  0  0  0  0  0  0  0  0  0
   -2.8587   -0.0026    0.0000 C   0  0  0  0  0  0  0  0  0  0  0  0
   -2.1420   -1.2388    0.0000 C   0  0  0  0  0  0  0  0  0  0  0  0
    0.7129    0.4164    0.0000 N   0  0  0  0  0  0  0  0  0  0  0  0
   -2.8572   -0.8277    0.0000 C   0  0  0  0  0  0  0  0  0  0  0  0
    1.4282    0.0052    0.0000 C   0  0  0  0  0  0  0  0  0  0  0  0
    1.4297   -0.8197    0.0000 C   0  0  0  0  0  0  0  0  0  0  0  0
    2.1420    0.4190    0.0000 N   0  0  0  0  0  0  0  0  0  0  0  0
    2.1450   -1.2309    0.0000 C   0  0  0  0  0  0  0  0  0  0  0  0
    2.8572    0.0079    0.0000 C   0  0  0  0  0  0  0  0  0  0  0  0
    2.8587   -0.8171    0.0000 C   0  0  0  0  0  0  0  0  0  0  0  0
  1  2  1  0
  1  3  2  0
  1  4  1  0
  2  5  1  0
  2  6  1  0
  3  7  1  0
  4  8  2  0
  5  9  1  0
  7 10  2  0
  8 10  1  0
  9 11  1  0
 11 12  2  0
 11 13  1  0
 12 14  1  0
 13 15  2  0
 14 16  2  0
 15 16  1  0
M  END
>  <DRUGBANK_ID>  (1) 
DB13414

>  <COMMON_NAME>  (1) 
Fenyramidol

>  <CAS_NUMBER>  (1) 
553-69-5

>  <UNII>  (1) 
R3V02WL7O3

>  <SYNONYMS>  (1) 
Feniramidol; Fenyramidol; Fenyramidolum; Phenyramidol

$$$$
