
     RDKit          2D

 14 14  0  0  1  0  0  0  0  0999 V2000
    2.0198    0.8843    0.0000 C   0  0  0  0  0  0  0  0  0  0  0  0
    1.2352    0.6294    0.0000 C   0  0  0  0  0  0  0  0  0  0  0  0
    0.5678    1.1143    0.0000 C   0  0  0  0  0  0  0  0  0  0  0  0
   -0.0997    0.6294    0.0000 C   0  0  0  0  0  0  0  0  0  0  0  0
    0.1553   -0.1553    0.0000 C   0  0  0  0  0  0  0  0  0  0  0  0
    0.5678    1.9393    0.0000 O   0  0  0  0  0  0  0  0  0  0  0  0
   -0.8843    0.8843    0.0000 O   0  0  0  0  0  0  0  0  0  0  0  0
   -0.3297   -0.8227    0.0000 O   0  0  0  0  0  0  0  0  0  0  0  0
    4.2022    0.8421    0.0000 O   0  0  0  0  0  0  0  0  0  0  0  0
    3.6725   -0.1974    0.0000 O   0  0  0  0  0  0  0  0  0  0  0  0
    3.1626    1.3718    0.0000 O   0  0  0  0  0  0  0  0  0  0  0  0
    2.6329    0.3323    0.0000 O   0  0  0  0  0  0  0  0  0  0  0  0
    0.9803   -0.1553    0.0000 O   0  0  0  0  0  0  0  0  0  0  0  0
    3.4175    0.5872    0.0000 P   0  0  0  0  0  0  0  0  0  0  0  0
  2  1  1  1
  3  2  1  0
  3  6  1  6
  4  3  1  0
  4  7  1  1
  5  4  1  0
  5  8  1  1
 12  1  1  0
 13  2  1  0
 13  5  1  0
 14  9  1  0
 14 10  1  0
 14 11  2  0
 14 12  1  0
M  END
>  <DRUGBANK_ID>  (1) 
DB04127

>  <SECONDARY_ACCESSION_NUMBERS>  (1) 
EXPT00395

>  <COMMON_NAME>  (1) 
beta-D-arabinofuranose 5-phosphate

>  <SYNONYMS>  (1) 
5-O-phosphono-β-D-arabinofuranose; β-D-arabinofuranose 5-phosphate

$$$$
