
     RDKit          2D

 30 33  0  0  0  0  0  0  0  0999 V2000
   -5.6147   -4.1283    0.0000 C   0  0  0  0  0  0  0  0  0  0  0  0
   -4.7897   -4.1283    0.0000 C   0  0  0  0  0  0  0  0  0  0  0  0
   -4.3772   -3.4138    0.0000 C   0  0  0  0  0  0  0  0  0  0  0  0
   -3.5522   -3.4138    0.0000 N   0  0  0  0  0  0  0  0  0  0  0  0
   -3.1397   -2.6994    0.0000 C   0  0  0  0  0  0  0  0  0  0  0  0
   -2.3147   -2.6994    0.0000 C   0  0  0  0  0  0  0  0  0  0  0  0
   -1.9022   -3.4138    0.0000 C   0  0  0  0  0  0  0  0  0  0  0  0
   -1.0772   -3.4138    0.0000 O   0  0  0  0  0  0  0  0  0  0  0  0
   -2.3147   -4.1283    0.0000 N   0  0  0  0  0  0  0  0  0  0  0  0
   -3.1397   -4.1283    0.0000 C   0  0  0  0  0  0  0  0  0  0  0  0
   -3.5522   -4.8428    0.0000 O   0  0  0  0  0  0  0  0  0  0  0  0
   -1.9022   -4.8428    0.0000 C   0  0  0  0  0  0  0  0  0  0  0  0
   -2.3147   -5.5573    0.0000 C   0  0  0  0  0  0  0  0  0  0  0  0
   -1.9022   -6.2717    0.0000 C   0  0  0  0  0  0  0  0  0  0  0  0
   -2.0598   -1.9147    0.0000 N   0  0  0  0  0  0  0  0  0  0  0  0
   -2.7272   -1.4298    0.0000 C   0  0  0  0  0  0  0  0  0  0  0  0
   -3.3947   -1.9147    0.0000 N   0  0  0  0  0  0  0  0  0  0  0  0
   -2.7272   -0.6048    0.0000 C   0  0  0  0  0  0  0  0  0  0  0  0
   -3.4417   -0.1923    0.0000 C   0  0  0  0  0  0  0  0  0  0  0  0
   -3.4417    0.6327    0.0000 C   0  0  0  0  0  0  0  0  0  0  0  0
   -2.7272    1.0452    0.0000 C   0  0  0  0  0  0  0  0  0  0  0  0
   -2.0127    0.6327    0.0000 C   0  0  0  0  0  0  0  0  0  0  0  0
   -2.0127   -0.1923    0.0000 C   0  0  0  0  0  0  0  0  0  0  0  0
   -2.5897    0.4952    0.0000 C   0  0  0  0  0  0  0  0  0  0  0  0
   -2.5897   -0.0548    0.0000 C   0  0  0  0  0  0  0  0  0  0  0  0
   -2.7272    1.8702    0.0000 C   0  0  0  0  0  0  0  0  0  0  0  0
   -3.4417    2.2827    0.0000 C   0  0  0  0  0  0  0  0  0  0  0  0
   -3.4417    3.1077    0.0000 C   0  0  0  0  0  0  0  0  0  0  0  0
   -4.1562    3.5202    0.0000 O   0  0  0  0  0  0  0  0  0  0  0  0
   -2.7272    3.5202    0.0000 O   0  0  0  0  0  0  0  0  0  0  0  0
  1  2  1  0
  2  3  1  0
  3  4  1  0
  4  5  1  0
  4 10  1  0
  5  6  2  0
  5 17  1  0
  6  7  1  0
  6 15  1  0
  7  8  2  0
  7  9  1  0
  9 10  1  0
  9 12  1  0
 10 11  2  0
 12 13  1  0
 13 14  1  0
 15 16  1  0
 16 17  2  0
 16 18  1  0
 18 19  1  0
 18 23  1  0
 18 25  1  0
 19 20  1  0
 20 21  1  0
 21 22  1  0
 21 24  1  0
 21 26  1  0
 22 23  1  0
 24 25  1  0
 26 27  1  0
 27 28  1  0
 28 29  2  0
 28 30  1  0
M  END
>  <DRUGBANK_ID>  (1) 
DB12569

>  <SECONDARY_ACCESSION_NUMBERS>  (1) 
DB05640

>  <COMMON_NAME>  (1) 
Tonapofylline

>  <CAS_NUMBER>  (1) 
340021-17-2

>  <UNII>  (1) 
83VNU4U44T

>  <SYNONYMS>  (1) 
Tonapofylline

$$$$
