
     RDKit          2D

 23 22  0  0  0  0  0  0  0  0999 V2000
    2.1434   -1.7053    0.0000 S   0  0  0  0  0  0  0  0  0  0  0  0
    1.7309   -2.4197    0.0000 O   0  0  0  0  0  0  0  0  0  0  0  0
    0.0000   -1.2928    0.0000 O   0  0  0  0  0  0  0  0  0  0  0  0
    2.8579   -0.4677    0.0000 O   0  0  0  0  0  0  0  0  0  0  0  0
    2.5559   -0.9908    0.0000 O   0  0  0  0  0  0  0  0  0  0  0  0
    2.8579   -2.1178    0.0000 O   0  0  0  0  0  0  0  0  0  0  0  0
   -3.5724   -0.0552    0.0000 O   0  0  0  0  0  0  0  0  0  0  0  0
   -2.8579   -1.2928    0.0000 O   0  0  0  0  0  0  0  0  0  0  0  0
    3.5724    2.4197    0.0000 O   0  0  0  0  0  0  0  0  0  0  0  0
    2.1434    2.4197    0.0000 O   0  0  0  0  0  0  0  0  0  0  0  0
    0.7145   -0.0552    0.0000 N   0  0  0  0  0  0  0  0  0  0  0  0
    2.1434    0.7697    0.0000 N   0  0  0  0  0  0  0  0  0  0  0  0
   -2.1434    0.7697    0.0000 N   0  0  0  0  0  0  0  0  0  0  0  0
    1.4289   -0.4677    0.0000 C   0  0  0  0  0  0  0  0  0  0  0  0
    1.4289   -1.2928    0.0000 C   0  0  0  0  0  0  0  0  0  0  0  0
   -0.7145   -0.0552    0.0000 C   0  0  0  0  0  0  0  0  0  0  0  0
   -1.4289   -0.4677    0.0000 C   0  0  0  0  0  0  0  0  0  0  0  0
    0.0000   -0.4677    0.0000 C   0  0  0  0  0  0  0  0  0  0  0  0
   -2.1434   -0.0552    0.0000 C   0  0  0  0  0  0  0  0  0  0  0  0
    2.1434   -0.0552    0.0000 C   0  0  0  0  0  0  0  0  0  0  0  0
   -2.8579   -0.4677    0.0000 C   0  0  0  0  0  0  0  0  0  0  0  0
    2.8579    1.1822    0.0000 C   0  0  0  0  0  0  0  0  0  0  0  0
    2.8579    2.0072    0.0000 C   0  0  0  0  0  0  0  0  0  0  0  0
  1  2  1  0
  1  5  2  0
  1  6  2  0
  1 15  1  0
  3 18  2  0
  4 20  2  0
  7 21  1  0
  8 21  2  0
  9 23  1  0
 10 23  2  0
 11 18  1  0
 12 20  1  0
 12 22  1  0
 14 11  1  0
 14 15  1  6
 14 20  1  0
 16 17  1  0
 16 18  1  0
 17 19  1  0
 19 13  1  1
 19 21  1  0
 22 23  1  0
M  END
>  <DRUGBANK_ID>  (1) 
DB03003

>  <SECONDARY_ACCESSION_NUMBERS>  (1) 
EXPT01662

>  <COMMON_NAME>  (1) 
Glutathione sulfonic acid

>  <CAS_NUMBER>  (1) 
3773-07-7

>  <UNII>  (1) 
ZU672FB3GH

$$$$
