
     RDKit          2D

 25 29  0  0  1  0  0  0  0  0999 V2000
    4.7720    1.4217    0.0000 C   0  0  0  0  0  0  0  0  0  0  0  0
    5.3240    2.0348    0.0000 N   0  0  0  0  0  0  0  0  0  0  0  0
    5.9881    1.3479    0.0000 C   0  0  0  0  0  0  0  0  0  0  0  0
    6.2895    2.1159    0.0000 C   0  0  0  0  0  0  0  0  0  0  0  0
    5.8770    2.8304    0.0000 C   0  0  0  0  0  0  0  0  0  0  0  0
    5.0613    2.9533    0.0000 C   0  0  0  0  0  0  0  0  0  0  0  0
    4.4565    2.3922    0.0000 C   0  0  0  0  0  0  0  0  0  0  0  0
    4.5181    1.5695    0.0000 C   0  0  0  0  0  0  0  0  0  0  0  0
    5.1998    1.1047    0.0000 C   0  0  0  0  0  0  0  0  0  0  0  0
    3.8037    1.1570    0.0000 O   0  0  0  0  0  0  0  0  0  0  0  0
    3.8037    0.3320    0.0000 C   0  0  0  0  0  0  0  0  0  0  0  0
    4.5470   -0.0260    0.0000 C   0  0  0  0  0  0  0  0  0  0  0  0
    5.1517    0.5352    0.0000 C   0  0  0  0  0  0  0  0  0  0  0  0
    5.9401    0.2920    0.0000 C   0  0  0  0  0  0  0  0  0  0  0  0
    6.1237   -0.5123    0.0000 C   0  0  0  0  0  0  0  0  0  0  0  0
    5.5189   -1.0735    0.0000 C   0  0  0  0  0  0  0  0  0  0  0  0
    4.7305   -0.8303    0.0000 C   0  0  0  0  0  0  0  0  0  0  0  0
    4.2162   -1.4753    0.0000 C   0  0  0  0  0  0  0  0  0  0  0  0
    3.3912   -1.4753    0.0000 C   0  0  0  0  0  0  0  0  0  0  0  0
    2.8768   -0.8303    0.0000 C   0  0  0  0  0  0  0  0  0  0  0  0
    3.0604   -0.0260    0.0000 C   0  0  0  0  0  0  0  0  0  0  0  0
    2.4556    0.5352    0.0000 C   0  0  0  0  0  0  0  0  0  0  0  0
    1.6673    0.2920    0.0000 C   0  0  0  0  0  0  0  0  0  0  0  0
    1.4837   -0.5123    0.0000 C   0  0  0  0  0  0  0  0  0  0  0  0
    2.0884   -1.0735    0.0000 C   0  0  0  0  0  0  0  0  0  0  0  0
  1  2  1  0
  3  2  1  0
  3  4  1  6
  3  9  1  0
  4  5  1  0
  6  5  1  6
  6  2  1  0
  6  7  1  0
  7  8  1  0
  8  9  1  0
  8 10  1  6
 10 11  1  0
 11 12  1  0
 11 21  1  0
 12 13  2  0
 12 17  1  0
 13 14  1  0
 14 15  2  0
 15 16  1  0
 16 17  2  0
 17 18  1  0
 18 19  1  0
 19 20  1  0
 20 21  2  0
 20 25  1  0
 21 22  1  0
 22 23  2  0
 23 24  1  0
 24 25  2  0
M  END
>  <DRUGBANK_ID>  (1) 
DB13466

>  <COMMON_NAME>  (1) 
Deptropine

>  <CAS_NUMBER>  (1) 
604-51-3

>  <UNII>  (1) 
AY31301GKG

>  <SYNONYMS>  (1) 
deptropina; Deptropine

$$$$
