
     RDKit          2D

 24 26  0  0  0  0  0  0  0  0999 V2000
   -2.8718    0.2071    0.0000 C   0  0  0  0  0  0  0  0  0  0  0  0
   -2.8689    0.9905    0.0000 C   0  0  0  0  0  0  0  0  0  0  0  0
   -1.7727    0.5841    0.0000 N   0  0  0  0  0  0  0  0  0  0  0  0
   -3.5499    0.6017    0.0000 O   0  0  0  0  0  0  0  0  0  0  0  0
   -2.2433   -0.2868    0.0000 C   0  0  0  0  0  0  0  0  0  0  0  0
   -2.2493    1.4873    0.0000 C   0  0  0  0  0  0  0  0  0  0  0  0
    1.1267    0.6193    0.0000 C   0  0  0  0  0  0  0  0  0  0  0  0
    0.4077    1.0313    0.0000 C   0  0  0  0  0  0  0  0  0  0  0  0
    1.8400    1.0344    0.0000 C   0  0  0  0  0  0  0  0  0  0  0  0
   -1.4775    1.3208    0.0000 C   0  0  0  0  0  0  0  0  0  0  0  0
   -1.4716   -0.1056    0.0000 C   0  0  0  0  0  0  0  0  0  0  0  0
   -0.3113    0.6134    0.0000 O   0  0  0  0  0  0  0  0  0  0  0  0
   -1.1384    0.6076    0.0000 C   0  0  0  0  0  0  0  0  0  0  0  0
    0.4048    1.8585    0.0000 O   0  0  0  0  0  0  0  0  0  0  0  0
   -0.9806   -0.2079    0.0000 C   0  0  0  0  0  0  0  0  0  0  0  0
   -0.9864    1.3793    0.0000 C   0  0  0  0  0  0  0  0  0  0  0  0
    2.5532    0.6251    0.0000 O   0  0  0  0  0  0  0  0  0  0  0  0
    1.1294   -0.2078    0.0000 C   0  0  0  0  0  0  0  0  0  0  0  0
    0.4159   -0.6201    0.0000 C   0  0  0  0  0  0  0  0  0  0  0  0
    0.4183   -1.4466    0.0000 C   0  0  0  0  0  0  0  0  0  0  0  0
    1.1366   -1.8585    0.0000 C   0  0  0  0  0  0  0  0  0  0  0  0
    1.8539   -1.4381    0.0000 C   0  0  0  0  0  0  0  0  0  0  0  0
    1.8480   -0.6130    0.0000 C   0  0  0  0  0  0  0  0  0  0  0  0
    3.5499    0.6251    0.0000 Br  0  0  0  0  0  0  0  0  0  0  0  0
  1  4  1  1
  2  4  1  1
  2  1  1  0
  5 11  1  6
  5  3  1  0
  5  1  1  0
  6 10  1  6
  6  3  1  0
  6  2  1  0
  7 18  1  0
  7  8  1  0
  8 12  1  0
  9 17  1  0
  7  9  1  6
 13 12  1  6
 13 11  1  0
 13 10  1  0
 14  8  2  0
 15  3  1  0
 16  3  1  0
 18 19  2  0
 19 20  1  0
 20 21  2  0
 21 22  1  0
 22 23  2  0
 23 18  1  0
M  CHG  2   3   1  24  -1
M  END
>  <DRUGBANK_ID>  (1) 
DB00462

>  <SECONDARY_ACCESSION_NUMBERS>  (1) 
APRD00314

>  <COMMON_NAME>  (1) 
Methscopolamine bromide

>  <CAS_NUMBER>  (1) 
155-41-9

>  <UNII>  (1) 
RTN51LK7WL

>  <SYNONYMS>  (1) 
(−)-scopolamine methobromide; (−)-scopolamine methyl bromide; Hyoscine methobromide; Hyoscine methyl bromide; Methscopolamine bromide; Methylscopolamine bromide; N-methylhyoscine bromide; N-methylscopolammonium bromide; Scopolamine methobromide; Scopolamine methyl bromide

$$$$
