
     RDKit          2D

 35 37  0  0  1  0  0  0  0  0999 V2000
    2.1434   -2.6664    0.0000 C   0  0  0  0  0  0  0  0  0  0  0  0
    1.3184   -2.6664    0.0000 C   0  0  0  0  0  0  0  0  0  0  0  0
    0.9059   -3.3809    0.0000 C   0  0  0  0  0  0  0  0  0  0  0  0
    0.0809   -3.3809    0.0000 C   0  0  0  0  0  0  0  0  0  0  0  0
   -0.3316   -4.0954    0.0000 O   0  0  0  0  0  0  0  0  0  0  0  0
   -0.3316   -2.6664    0.0000 C   0  0  0  0  0  0  0  0  0  0  0  0
   -1.1566   -2.6664    0.0000 O   0  0  0  0  0  0  0  0  0  0  0  0
    0.0809   -1.9520    0.0000 C   0  0  0  0  0  0  0  0  0  0  0  0
    0.9059   -1.9520    0.0000 C   0  0  0  0  0  0  0  0  0  0  0  0
    1.3184   -1.2375    0.0000 C   0  0  0  0  0  0  0  0  0  0  0  0
    0.9059   -0.5230    0.0000 O   0  0  0  0  0  0  0  0  0  0  0  0
    2.1434   -1.2375    0.0000 O   0  0  0  0  0  0  0  0  0  0  0  0
    2.5559   -0.5230    0.0000 C   0  0  0  0  0  0  0  0  0  0  0  0
    3.3809   -0.5230    0.0000 C   0  0  0  0  0  0  0  0  0  0  0  0
    3.7934    0.1914    0.0000 C   0  0  0  0  0  0  0  0  0  0  0  0
    4.6184    0.1914    0.0000 N   0  0  0  0  0  0  0  0  0  0  0  0
    5.0309    0.9059    0.0000 C   0  0  0  0  0  0  0  0  0  0  0  0
    5.7454    0.4934    0.0000 C   0  0  0  0  0  0  0  0  0  0  0  0
    4.3164    1.3184    0.0000 C   0  0  0  0  0  0  0  0  0  0  0  0
    5.4434    1.6204    0.0000 C   0  0  0  0  0  0  0  0  0  0  0  0
    6.2684    1.6204    0.0000 N   0  0  0  0  0  0  0  0  0  0  0  0
    6.6809    2.3349    0.0000 C   0  0  0  0  0  0  0  0  0  0  0  0
    6.2684    3.0493    0.0000 O   0  0  0  0  0  0  0  0  0  0  0  0
    7.5059    2.3349    0.0000 C   0  0  0  0  0  0  0  0  0  0  0  0
    7.9908    3.0023    0.0000 C   0  0  0  0  0  0  0  0  0  0  0  0
    8.7755    2.7474    0.0000 C   0  0  0  0  0  0  0  0  0  0  0  0
    8.7755    1.9224    0.0000 O   0  0  0  0  0  0  0  0  0  0  0  0
    7.9908    1.6674    0.0000 C   0  0  0  0  0  0  0  0  0  0  0  0
    3.7934   -1.2375    0.0000 O   0  0  0  0  0  0  0  0  0  0  0  0
    4.6184   -1.2375    0.0000 C   0  0  0  0  0  0  0  0  0  0  0  0
    5.0309   -0.5230    0.0000 O   0  0  0  0  0  0  0  0  0  0  0  0
    5.0309   -1.9520    0.0000 C   0  0  0  0  0  0  0  0  0  0  0  0
    4.3989   -2.4823    0.0000 C   0  0  0  0  0  0  0  0  0  0  0  0
    5.8062   -1.6698    0.0000 C   0  0  0  0  0  0  0  0  0  0  0  0
    5.6629   -2.4823    0.0000 C   0  0  0  0  0  0  0  0  0  0  0  0
  1  2  1  0
  2  3  2  0
  2  9  1  0
  3  4  1  0
  4  5  1  0
  4  6  2  0
  6  7  1  0
  6  8  1  0
  8  9  2  0
  9 10  1  0
 10 11  2  0
 10 12  1  0
 12 13  1  0
 14 13  1  6
 14 15  1  0
 14 29  1  0
 15 16  1  0
 16 17  1  0
 17 18  1  0
 17 19  1  0
 17 20  1  0
 20 21  1  0
 21 22  1  0
 22 23  2  0
 22 24  1  0
 24 25  1  0
 24 28  1  0
 25 26  1  0
 26 27  1  0
 27 28  1  0
 29 30  1  0
 30 31  2  0
 30 32  1  0
 32 33  1  0
 32 34  1  0
 32 35  1  0
 34 35  1  0
M  END
>  <DRUGBANK_ID>  (1) 
DB16112

>  <COMMON_NAME>  (1) 
OT-730

>  <CAS_NUMBER>  (1) 
870809-51-1

>  <UNII>  (1) 
5WVS67PLAL

$$$$
