243
     RDKit          2D

 14 14  0  0  1  0  0  0  0  0999 V2000
    5.9370    2.0625    0.0000 O   0  0  0  0  0  0  0  0  0  0  0  0
    7.3659    2.8876    0.0000 O   0  0  0  0  0  0  0  0  0  0  0  0
    8.7949    2.0625    0.0000 O   0  0  0  0  0  0  0  0  0  0  0  0
    5.9370    0.4125    0.0000 O   0  0  0  0  0  0  0  0  0  0  0  0
    6.6515    0.8250    0.0000 C   0  0  0  0  0  0  0  0  0  0  0  0
    6.6515    1.6500    0.0000 C   0  0  0  0  0  0  0  0  0  0  0  0
    7.3659    2.0625    0.0000 C   0  0  0  0  0  0  0  0  0  0  0  0
    8.0803    3.3001    0.0000 C   0  0  0  0  0  0  0  0  0  0  0  0
    8.7949    2.8876    0.0000 C   0  0  0  0  0  0  0  0  0  0  0  0
    8.0803    4.1251    0.0000 C   0  0  0  0  0  0  0  0  0  0  0  0
    9.5094    3.3001    0.0000 C   0  0  0  0  0  0  0  0  0  0  0  0
    8.7949    4.5376    0.0000 C   0  0  0  0  0  0  0  0  0  0  0  0
    9.5094    4.1251    0.0000 C   0  0  0  0  0  0  0  0  0  0  0  0
    9.5094    1.6500    0.0000 C   0  0  0  0  0  0  0  0  0  0  0  0
  1  6  1  0
  2  7  1  0
  2  8  1  0
  3  9  1  0
  3 14  1  0
  4  5  1  0
  5  6  1  0
  6  7  1  0
  8  9  2  0
  8 10  1  0
  9 11  1  0
 10 12  2  0
 11 13  2  0
 12 13  1  0
M  END
>  <DRUGBANK_ID>  (1) 
DB00874

>  <SECONDARY_ACCESSION_NUMBERS>  (1) 
APRD01005

>  <COMMON_NAME>  (1) 
Guaifenesin

>  <CAS_NUMBER>  (1) 
93-14-1

>  <UNII>  (1) 
495W7451VQ

>  <SYNONYMS>  (1) 
Glyceryl guaiacolate; Guaifenesin; Guaifenesina; guaiphenesin

$$$$
