SA1
     RDKit          2D

 20 22  0  0  0  0  0  0  0  0999 V2000
   -1.1494    0.9778    0.0000 C   0  0  0  0  0  0  0  0  0  0  0  0
   -0.6645    0.3104    0.0000 O   0  0  0  0  0  0  0  0  0  0  0  0
    0.1201    0.5653    0.0000 C   0  0  0  0  0  0  0  0  0  0  0  0
    0.1201   -0.2597    0.0000 C   0  0  0  0  0  0  0  0  0  0  0  0
    0.1201    1.3903    0.0000 C   0  0  0  0  0  0  0  0  0  0  0  0
    0.9048    1.6453    0.0000 C   0  0  0  0  0  0  0  0  0  0  0  0
    1.1597    2.4299    0.0000 O   0  0  0  0  0  0  0  0  0  0  0  0
    1.3897    0.9778    0.0000 N   0  0  0  0  0  0  0  0  0  0  0  0
    0.9048    0.3104    0.0000 C   0  0  0  0  0  0  0  0  0  0  0  0
    0.7417   -0.4983    0.0000 C   0  0  0  0  0  0  0  0  0  0  0  0
   -0.0402   -0.7615    0.0000 C   0  0  0  0  0  0  0  0  0  0  0  0
   -0.2033   -1.5702    0.0000 C   0  0  0  0  0  0  0  0  0  0  0  0
   -0.9852   -1.8334    0.0000 C   0  0  0  0  0  0  0  0  0  0  0  0
   -1.6040   -1.2878    0.0000 C   0  0  0  0  0  0  0  0  0  0  0  0
   -1.4410   -0.4790    0.0000 C   0  0  0  0  0  0  0  0  0  0  0  0
   -0.6591   -0.2159    0.0000 C   0  0  0  0  0  0  0  0  0  0  0  0
    1.3605   -1.0439    0.0000 O   0  0  0  0  0  0  0  0  0  0  0  0
    1.5120   -0.2480    0.0000 C   0  0  0  0  0  0  0  0  0  0  0  0
    2.2993   -0.0013    0.0000 O   0  0  0  0  0  0  0  0  0  0  0  0
   -0.6645    1.6453    0.0000 C   0  0  0  0  0  0  0  0  0  0  0  0
  1  2  1  0
  1 20  1  0
  2  3  1  0
  3  4  1  6
  3  5  1  0
  3  9  1  0
  5  6  1  0
  5 20  1  1
  6  7  2  0
  6  8  1  0
  8  9  1  0
  9 10  1  0
  9 18  1  1
 10 17  1  1
 11 10  1  0
 11 12  1  6
 11 16  1  0
 12 13  2  0
 13 14  1  0
 14 15  1  0
 15 16  1  0
 18 19  2  0
M  END
>  <DRUGBANK_ID>  (1) 
DB08515

>  <COMMON_NAME>  (1) 
(3AR,6R,6AS)-6-((S)-((S)-CYCLOHEX-2-ENYL)(HYDROXY)METHYL)-6A-METHYL-4-OXO-HEXAHYDRO-2H-FURO[3,2-C]PYRROLE-6-CARBALDEHYDE

$$$$
