155
     RDKit          2D

 29 32  0  0  0  0  0  0  0  0999 V2000
   -4.1295   -2.8509    0.0000 N   0  0  0  0  0  0  0  0  0  0  0  0
   -4.1295   -2.0259    0.0000 C   0  0  0  0  0  0  0  0  0  0  0  0
   -4.8439   -1.6134    0.0000 N   0  0  0  0  0  0  0  0  0  0  0  0
   -3.4150   -1.6134    0.0000 C   0  0  0  0  0  0  0  0  0  0  0  0
   -3.4150   -0.7884    0.0000 C   0  0  0  0  0  0  0  0  0  0  0  0
   -2.7005   -0.3759    0.0000 C   0  0  0  0  0  0  0  0  0  0  0  0
   -2.7005    0.4491    0.0000 C   0  0  0  0  0  0  0  0  0  0  0  0
   -1.9861    0.8616    0.0000 C   0  0  0  0  0  0  0  0  0  0  0  0
   -1.2716    0.4491    0.0000 C   0  0  0  0  0  0  0  0  0  0  0  0
   -1.2716   -0.3759    0.0000 C   0  0  0  0  0  0  0  0  0  0  0  0
   -1.9861   -0.7884    0.0000 C   0  0  0  0  0  0  0  0  0  0  0  0
   -1.9861   -1.6134    0.0000 C   0  0  0  0  0  0  0  0  0  0  0  0
   -2.7005   -2.0259    0.0000 C   0  0  0  0  0  0  0  0  0  0  0  0
   -0.5571    0.8616    0.0000 C   0  0  0  0  0  0  0  0  0  0  0  0
   -0.5571    1.6866    0.0000 O   0  0  0  0  0  0  0  0  0  0  0  0
    0.1574    0.4491    0.0000 N   0  0  0  0  0  0  0  0  0  0  0  0
    0.8718    0.8616    0.0000 C   0  0  0  0  0  0  0  0  0  0  0  0
    1.5863    0.4491    0.0000 C   0  0  0  0  0  0  0  0  0  0  0  0
    2.3008    0.8616    0.0000 C   0  0  0  0  0  0  0  0  0  0  0  0
    2.3008    1.6866    0.0000 C   0  0  0  0  0  0  0  0  0  0  0  0
    1.5863    2.0991    0.0000 C   0  0  0  0  0  0  0  0  0  0  0  0
    0.8718    1.6866    0.0000 C   0  0  0  0  0  0  0  0  0  0  0  0
    3.0152    2.0991    0.0000 C   0  0  0  0  0  0  0  0  0  0  0  0
    3.7297    1.6866    0.0000 C   0  0  0  0  0  0  0  0  0  0  0  0
    3.7297    0.8616    0.0000 N   0  0  0  0  0  0  0  0  0  0  0  0
    3.0152    0.4491    0.0000 C   0  0  0  0  0  0  0  0  0  0  0  0
    3.0152   -0.3759    0.0000 C   0  0  0  0  0  0  0  0  0  0  0  0
    3.7297   -0.7884    0.0000 C   0  0  0  0  0  0  0  0  0  0  0  0
    2.3008   -0.7884    0.0000 C   0  0  0  0  0  0  0  0  0  0  0  0
  1  2  2  0
  2  3  1  0
  2  4  1  0
  4  5  2  0
  4 13  1  0
  5  6  1  0
  6  7  2  0
  6 11  1  0
  7  8  1  0
  8  9  2  0
  9 10  1  0
  9 14  1  0
 10 11  2  0
 11 12  1  0
 12 13  2  0
 14 15  2  0
 14 16  1  0
 16 17  1  0
 17 18  2  0
 17 22  1  0
 18 19  1  0
 19 20  2  0
 19 26  1  0
 20 21  1  0
 20 23  1  0
 21 22  2  0
 23 24  1  0
 24 25  1  0
 25 26  2  0
 26 27  1  0
 27 28  1  0
 27 29  1  0
M  END
>  <DRUGBANK_ID>  (1) 
DB02473

>  <SECONDARY_ACCESSION_NUMBERS>  (1) 
EXPT00041

>  <COMMON_NAME>  (1) 
6-[N-(1-Isopropyl-3,4-Dihydro-7-Isoquinolinyl)Carbamyl]-2-Naphthalenecarboxamidine

$$$$
