
     RDKit          2D

 34 36  0  0  0  0  0  0  0  0999 V2000
   -3.9296   -2.6813    0.0000 N   0  0  0  0  0  0  0  0  0  0  0  0
   -3.2151   -2.2688    0.0000 C   0  0  0  0  0  0  0  0  0  0  0  0
   -3.2151   -1.4438    0.0000 C   0  0  0  0  0  0  0  0  0  0  0  0
   -2.5006   -2.6813    0.0000 N   0  0  0  0  0  0  0  0  0  0  0  0
   -4.6440   -1.4438    0.0000 N   0  0  0  0  0  0  0  0  0  0  0  0
   -1.7862   -2.2688    0.0000 C   0  0  0  0  0  0  0  0  0  0  0  0
   -1.7862   -1.4438    0.0000 C   0  0  0  0  0  0  0  0  0  0  0  0
   -1.0716   -1.0313    0.0000 C   0  0  0  0  0  0  0  0  0  0  0  0
    0.3572   -1.0311    0.0000 C   0  0  0  0  0  0  0  0  0  0  0  0
    1.7861   -1.0311    0.0000 C   0  0  0  0  0  0  0  0  0  0  0  0
    1.0717   -1.4436    0.0000 C   0  0  0  0  0  0  0  0  0  0  0  0
    0.3572   -0.2061    0.0000 C   0  0  0  0  0  0  0  0  0  0  0  0
    1.0717    0.2063    0.0000 C   0  0  0  0  0  0  0  0  0  0  0  0
    1.7861   -0.2061    0.0000 C   0  0  0  0  0  0  0  0  0  0  0  0
    2.5006    0.2063    0.0000 C   0  0  0  0  0  0  0  0  0  0  0  0
    2.5006    1.0313    0.0000 O   0  0  0  0  0  0  0  0  0  0  0  0
    3.2150   -0.2061    0.0000 N   0  0  0  0  0  0  0  0  0  0  0  0
    3.9296    2.6813    0.0000 O   0  0  0  0  0  0  0  0  0  0  0  0
    3.9296    0.2063    0.0000 C   0  0  0  0  0  0  0  0  0  0  0  0
    5.3585    0.2063    0.0000 O   0  0  0  0  0  0  0  0  0  0  0  0
    4.6439   -0.2061    0.0000 C   0  0  0  0  0  0  0  0  0  0  0  0
    4.6439   -1.0311    0.0000 O   0  0  0  0  0  0  0  0  0  0  0  0
    3.9296    1.0313    0.0000 C   0  0  0  0  0  0  0  0  0  0  0  0
    4.6441    1.4438    0.0000 C   0  0  0  0  0  0  0  0  0  0  0  0
    4.6441    2.2688    0.0000 C   0  0  0  0  0  0  0  0  0  0  0  0
    5.3585    2.6813    0.0000 O   0  0  0  0  0  0  0  0  0  0  0  0
   -3.9296   -1.0313    0.0000 C   0  0  0  0  0  0  0  0  0  0  0  0
   -3.9296   -0.2063    0.0000 O   0  0  0  0  0  0  0  0  0  0  0  0
   -4.6440   -2.2688    0.0000 C   0  0  0  0  0  0  0  0  0  0  0  0
   -5.3585   -2.6813    0.0000 N   0  0  0  0  0  0  0  0  0  0  0  0
   -0.3572   -1.4438    0.0000 N   0  0  0  0  0  0  0  0  0  0  0  0
   -2.5006   -1.0313    0.0000 N   0  0  0  0  0  0  0  0  0  0  0  0
   -1.7861    0.2061    0.0000 O   0  0  0  0  0  0  0  0  0  0  0  0
   -2.5006   -0.2063    0.0000 C   0  0  0  0  0  0  0  0  0  0  0  0
  1  2  1  0
  2  3  2  0
  2  4  1  0
  3 32  1  0
  3 27  1  0
  6  4  1  0
  6  7  1  0
  7  8  1  0
  8 31  1  0
  9 12  2  0
 10 11  2  0
 10 14  1  0
 11  9  1  0
 12 13  1  0
 13 14  2  0
 14 15  1  0
 15 17  1  0
 15 16  2  0
 19 17  1  0
 19 23  1  1
 19 21  1  0
 21 20  1  0
 21 22  2  0
 23 24  1  0
 24 25  1  0
 25 18  2  0
 25 26  1  0
 27  5  1  0
 27 28  2  0
 29  1  2  0
 29  5  1  0
 29 30  1  0
 31  9  1  0
 32  7  1  0
 32 34  1  0
 34 33  2  0
M  END
>  <DRUGBANK_ID>  (1) 
DB00650

>  <SECONDARY_ACCESSION_NUMBERS>  (1) 
APRD00698

>  <COMMON_NAME>  (1) 
Leucovorin

>  <CAS_NUMBER>  (1) 
58-05-9

>  <UNII>  (1) 
Q573I9DVLP

>  <SYNONYMS>  (1) 
(5-formyl-5,6,7,8-tetrahydropteroyl)glutamate; 10-Formyl-7,8-dihydrofolic acid; 5-Formyl-5,6,7,8-tetrahydrofolic acid; 5-Formyl-5,6,7,8-tetrahydropteroyl-L-glutamic acid; 5-Formyltetrahydrofolate; 5-formyltetrahydrofolic acid; Acide folinique; Acido folinico; Folinate; Folinic acid; L(-)-5-Formyl-5,6,7,8-tetrahydrofolic acid; Leucovorinum; N-(5-formyl-5,6,7,8-tetrahydropteroyl)-L-glutamic acid; N5-Formyl-5,6,7,8-tetrahydrofolic acid; N5-Formyltetrahydrofolic acid

$$$$
