
     RDKit          2D

 24 25  0  0  0  0  0  0  0  0999 V2000
   -3.6355    1.0283    0.0000 C   0  0  0  0  0  0  0  0  0  0  0  0
   -3.6355    0.2024    0.0000 N   0  0  0  0  0  0  0  0  0  0  0  0
   -2.9227   -0.2064    0.0000 C   0  0  0  0  0  0  0  0  0  0  0  0
   -2.2098    0.2024    0.0000 N   0  0  0  0  0  0  0  0  0  0  0  0
   -2.2098    1.0283    0.0000 C   0  0  0  0  0  0  0  0  0  0  0  0
   -2.9227    1.4454    0.0000 N   0  0  0  0  0  0  0  0  0  0  0  0
   -4.3530    1.4413    0.0000 N   0  0  0  0  0  0  0  0  0  0  0  0
   -2.9305   -1.0324    0.0000 N   0  0  0  0  0  0  0  0  0  0  0  0
   -1.4996    1.4454    0.0000 N   0  0  0  0  0  0  0  0  0  0  0  0
   -0.7862    1.0324    0.0000 C   0  0  0  0  0  0  0  0  0  0  0  0
   -0.7901    0.2071    0.0000 C   0  0  0  0  0  0  0  0  0  0  0  0
   -0.0776   -0.2057    0.0000 C   0  0  0  0  0  0  0  0  0  0  0  0
    0.6376    0.2055    0.0000 C   0  0  0  0  0  0  0  0  0  0  0  0
    0.6360    1.0341    0.0000 C   0  0  0  0  0  0  0  0  0  0  0  0
   -0.0771    1.4432    0.0000 C   0  0  0  0  0  0  0  0  0  0  0  0
    1.3495   -0.2064    0.0000 As  0  0  0  0  0  3  0  0  0  0  0  0
    2.2130    0.2857    0.0000 S   0  0  0  0  0  0  0  0  0  0  0  0
    2.9264   -0.1272    0.0000 C   0  0  0  0  0  0  0  0  0  0  0  0
    3.6397    0.2899    0.0000 C   0  0  0  0  0  0  0  0  0  0  0  0
    4.3530   -0.1230    0.0000 N   0  0  0  0  0  0  0  0  0  0  0  0
    1.3453   -1.0324    0.0000 S   0  0  0  0  0  0  0  0  0  0  0  0
    2.0586   -1.4454    0.0000 C   0  0  0  0  0  0  0  0  0  0  0  0
    2.7719   -1.0282    0.0000 C   0  0  0  0  0  0  0  0  0  0  0  0
    3.4853   -1.4412    0.0000 N   0  0  0  0  0  0  0  0  0  0  0  0
  1  7  1  0
  1  2  2  0
  1  6  1  0
  2  3  1  0
  3  8  1  0
  3  4  2  0
  4  5  1  0
  5  6  2  0
  5  9  1  0
  9 10  1  0
 10 11  2  0
 11 12  1  0
 12 13  2  0
 13 14  1  0
 13 16  1  0
 14 15  2  0
 15 10  1  0
 16 17  1  0
 16 21  1  0
 17 18  1  0
 18 19  1  0
 19 20  1  0
 21 22  1  0
 22 23  1  0
 23 24  1  0
M  END
>  <DRUGBANK_ID>  (1) 
DB11528

>  <COMMON_NAME>  (1) 
Melarsomine

>  <CAS_NUMBER>  (1) 
128470-15-5

>  <UNII>  (1) 
374GJ0S41A

>  <SYNONYMS>  (1) 
Melarsomina; Melarsomine; Melarsominum

$$$$
