KS5
     RDKit          2D

 23 26  0  0  0  0  0  0  0  0999 V2000
   -2.7322    0.8498    0.0000 C   0  0  0  0  0  0  0  0  0  0  0  0
   -2.2473    0.1823    0.0000 C   0  0  0  0  0  0  0  0  0  0  0  0
   -2.5828   -0.5714    0.0000 C   0  0  0  0  0  0  0  0  0  0  0  0
   -1.4268    0.2686    0.0000 N   0  0  0  0  0  0  0  0  0  0  0  0
   -0.8748   -0.3445    0.0000 N   0  0  0  0  0  0  0  0  0  0  0  0
   -1.0143    0.9830    0.0000 C   0  0  0  0  0  0  0  0  0  0  0  0
   -1.2692    1.7676    0.0000 N   0  0  0  0  0  0  0  0  0  0  0  0
   -0.7172    2.3807    0.0000 C   0  0  0  0  0  0  0  0  0  0  0  0
    0.0898    2.2092    0.0000 N   0  0  0  0  0  0  0  0  0  0  0  0
    0.3447    1.4246    0.0000 C   0  0  0  0  0  0  0  0  0  0  0  0
    1.1517    1.2531    0.0000 N   0  0  0  0  0  0  0  0  0  0  0  0
   -0.2073    0.8115    0.0000 C   0  0  0  0  0  0  0  0  0  0  0  0
   -0.1211   -0.0090    0.0000 C   0  0  0  0  0  0  0  0  0  0  0  0
    0.5934   -0.4215    0.0000 C   0  0  0  0  0  0  0  0  0  0  0  0
    1.3079   -0.0090    0.0000 C   0  0  0  0  0  0  0  0  0  0  0  0
    2.0223   -0.4215    0.0000 C   0  0  0  0  0  0  0  0  0  0  0  0
    2.7368   -0.0090    0.0000 C   0  0  0  0  0  0  0  0  0  0  0  0
    3.4513   -0.4215    0.0000 C   0  0  0  0  0  0  0  0  0  0  0  0
    3.4513   -1.2465    0.0000 C   0  0  0  0  0  0  0  0  0  0  0  0
    2.7368   -1.6590    0.0000 N   0  0  0  0  0  0  0  0  0  0  0  0
    2.0223   -1.2465    0.0000 C   0  0  0  0  0  0  0  0  0  0  0  0
    1.3079   -1.6590    0.0000 C   0  0  0  0  0  0  0  0  0  0  0  0
    0.5934   -1.2465    0.0000 C   0  0  0  0  0  0  0  0  0  0  0  0
  1  2  1  0
  2  3  1  0
  2  4  1  0
  4  5  1  0
  4  6  1  0
  5 13  2  0
  6  7  2  0
  6 12  1  0
  7  8  1  0
  8  9  2  0
  9 10  1  0
 10 11  1  0
 10 12  2  0
 12 13  1  0
 13 14  1  0
 14 15  2  0
 14 23  1  0
 15 16  1  0
 16 17  2  0
 16 21  1  0
 17 18  1  0
 18 19  2  0
 19 20  1  0
 20 21  2  0
 21 22  1  0
 22 23  2  0
M  END
>  <DRUGBANK_ID>  (1) 
DB08054

>  <COMMON_NAME>  (1) 
1-(1-methylethyl)-3-quinolin-6-yl-1H-pyrazolo[3,4-d]pyrimidin-4-amine

$$$$
