
     RDKit          2D

 20 18  0  0  0  0  0  0  0  0999 V2000
    1.2629    0.0000    0.0000 C   0  0  0  0  0  0  0  0  0  0  0  0
    1.9874   -0.4183    0.0000 O   0  0  0  0  0  0  0  0  0  0  0  0
    0.5384   -0.4183    0.0000 C   0  0  0  0  0  0  0  0  0  0  0  0
   -0.1760   -0.0057    0.0000 C   0  0  0  0  0  0  0  0  0  0  0  0
   -0.8856   -0.4153    0.0000 C   0  0  0  0  0  0  0  0  0  0  0  0
   -1.5974   -0.0042    0.0000 C   0  0  0  0  0  0  0  0  0  0  0  0
   -2.3083   -0.4146    0.0000 C   0  0  0  0  0  0  0  0  0  0  0  0
   -3.0196   -0.0038    0.0000 C   0  0  0  0  0  0  0  0  0  0  0  0
   -3.7307   -0.4144    0.0000 C   0  0  0  0  0  0  0  0  0  0  0  0
   -0.8857   -1.2548    0.0000 C   0  0  0  0  0  0  0  0  0  0  0  0
   -1.5989   -1.6666    0.0000 C   0  0  0  0  0  0  0  0  0  0  0  0
    1.2629    0.8366    0.0000 C   0  0  0  0  0  0  0  0  0  0  0  0
    1.9874    1.2549    0.0000 C   0  0  0  0  0  0  0  0  0  0  0  0
    2.7020    0.8424    0.0000 C   0  0  0  0  0  0  0  0  0  0  0  0
    1.9875    2.0915    0.0000 C   0  0  0  0  0  0  0  0  0  0  0  0
    1.9875   -1.2548    0.0000 S   0  0  0  0  0  0  0  0  0  0  0  0
    1.9875   -2.0915    0.0000 O   0  0  0  0  0  0  0  0  0  0  0  0
    2.8108   -1.2548    0.0000 O   0  0  0  0  0  0  0  0  0  0  0  0
    1.1374   -1.2549    0.0000 O   0  0  0  0  0  0  0  0  0  0  0  0
    3.7307   -1.2757    0.0000 Na  0  0  0  0  0 15  0  0  0  0  0  0
  1  2  1  0
  1  3  1  0
  1 12  1  0
  2 16  1  0
  3  4  1  0
  4  5  1  0
  5  6  1  0
  5 10  1  0
  6  7  1  0
  7  8  1  0
  8  9  1  0
 10 11  1  0
 12 13  1  0
 13 14  1  0
 13 15  1  0
 16 17  2  0
 16 18  1  0
 16 19  2  0
M  CHG  2  18  -1  20   1
M  END
>  <DRUGBANK_ID>  (1) 
DB00464

>  <SECONDARY_ACCESSION_NUMBERS>  (1) 
APRD00575

>  <COMMON_NAME>  (1) 
Sodium tetradecyl sulfate

>  <CAS_NUMBER>  (1) 
139-88-8

>  <UNII>  (1) 
Q1SUG5KBD6

>  <SYNONYMS>  (1) 
7-Ethyl-2-methyl-4-undecanol sulfate sodium salt; 7-ethyl-2-methyl-4-undecanolsulfate, sodium salt; Natrii tetradecylis sulfa; Sodium 2-methyl-7-ethylundecanol-4-sulfate; Sodium 7-ethyl-2-methyl-4-undecanol sulfate; Sodium tetradecyl sulfate; Sodium tetradecyl sulphate; Sodium tetradecylsulfate; STS; Tetradecilsulfato sodico; Tetradecyl sodium sulfate; Tetradecyl sulfate de sodium

$$$$
