
     RDKit          2D

 22 23  0  0  0  0  0  0  0  0999 V2000
   -4.7584    4.7840    0.0000 N   0  0  0  0  0  0  0  0  0  0  0  0
   -4.7311    3.9595    0.0000 C   0  0  0  0  0  0  0  0  0  0  0  0
   -4.0033    3.5709    0.0000 N   0  0  0  0  0  0  0  0  0  0  0  0
   -3.9760    2.7463    0.0000 C   0  0  0  0  0  0  0  0  0  0  0  0
   -4.6764    2.3104    0.0000 C   0  0  0  0  0  0  0  0  0  0  0  0
   -4.4783    1.5096    0.0000 N   0  0  0  0  0  0  0  0  0  0  0  0
   -3.6554    1.4505    0.0000 C   0  0  0  0  0  0  0  0  0  0  0  0
   -3.3450    2.2149    0.0000 N   0  0  0  0  0  0  0  0  0  0  0  0
   -2.5441    2.4131    0.0000 C   0  0  0  0  0  0  0  0  0  0  0  0
   -1.9721    1.8186    0.0000 C   0  0  0  0  0  0  0  0  0  0  0  0
   -1.1713    2.0168    0.0000 C   0  0  0  0  0  0  0  0  0  0  0  0
   -0.5992    1.4223    0.0000 C   0  0  0  0  0  0  0  0  0  0  0  0
    0.2016    1.6204    0.0000 C   0  0  0  0  0  0  0  0  0  0  0  0
    0.3998    0.8196    0.0000 F   0  0  0  0  0  0  0  0  0  0  0  0
    0.0035    2.4213    0.0000 F   0  0  0  0  0  0  0  0  0  0  0  0
    1.0025    1.8186    0.0000 P   0  0  0  0  0  0  0  0  0  0  0  0
    1.8033    2.0168    0.0000 O   0  0  0  0  0  0  0  0  0  0  0  0
    1.2006    1.0178    0.0000 O   0  0  0  0  0  0  0  0  0  0  0  0
    0.8043    2.6194    0.0000 O   0  0  0  0  0  0  0  0  0  0  0  0
   -5.4042    2.6990    0.0000 C   0  0  0  0  0  0  0  0  0  0  0  0
   -6.1046    2.2631    0.0000 O   0  0  0  0  0  0  0  0  0  0  0  0
   -5.4315    3.5236    0.0000 N   0  0  0  0  0  0  0  0  0  0  0  0
  1  2  1  0
  2  3  2  0
  2 22  1  0
  3  4  1  0
  4  5  2  0
  4  8  1  0
  5  6  1  0
  5 20  1  0
  6  7  2  0
  7  8  1  0
  8  9  1  0
  9 10  1  0
 10 11  1  0
 11 12  1  0
 12 13  1  0
 13 14  1  0
 13 15  1  0
 13 16  1  0
 16 17  1  0
 16 18  1  0
 16 19  2  0
 20 21  2  0
 20 22  1  0
M  END
>  <DRUGBANK_ID>  (1) 
DB04260

>  <SECONDARY_ACCESSION_NUMBERS>  (1) 
EXPT01684

>  <COMMON_NAME>  (1) 
9-(5,5-Difluoro-5-Phosphonopentyl)Guanine

$$$$
