
     RDKit          2D

 23 26  0  0  0  0  0  0  0  0999 V2000
    3.2547   -0.0013    0.0000 O   0  0  0  0  0  0  0  0  0  0  0  0
   -3.2547   -0.9911    0.0000 O   0  0  0  0  0  0  0  0  0  0  0  0
    1.3376   -0.8957    0.0000 C   0  0  0  0  0  0  0  0  0  0  0  0
    1.6179   -0.1198    0.0000 C   0  0  0  0  0  0  0  0  0  0  0  0
    0.5255   -1.0409    0.0000 C   0  0  0  0  0  0  0  0  0  0  0  0
    2.4425   -0.1466    0.0000 C   0  0  0  0  0  0  0  0  0  0  0  0
   -0.0063   -0.4102    0.0000 C   0  0  0  0  0  0  0  0  0  0  0  0
    1.9889   -1.4021    0.0000 C   0  0  0  0  0  0  0  0  0  0  0  0
    1.0861    0.5108    0.0000 C   0  0  0  0  0  0  0  0  0  0  0  0
    2.6718   -0.9391    0.0000 C   0  0  0  0  0  0  0  0  0  0  0  0
   -0.8184   -0.5554    0.0000 C   0  0  0  0  0  0  0  0  0  0  0  0
    0.2452   -1.8168    0.0000 C   0  0  0  0  0  0  0  0  0  0  0  0
    0.2739    0.3656    0.0000 C   0  0  0  0  0  0  0  0  0  0  0  0
    1.9778    0.6226    0.0000 C   0  0  0  0  0  0  0  0  0  0  0  0
   -1.0987   -1.3313    0.0000 C   0  0  0  0  0  0  0  0  0  0  0  0
    2.3830    0.6763    0.0000 C   0  0  0  0  0  0  0  0  0  0  0  0
   -0.5669   -1.9621    0.0000 C   0  0  0  0  0  0  0  0  0  0  0  0
   -1.3502    0.0752    0.0000 C   0  0  0  0  0  0  0  0  0  0  0  0
   -1.9108   -1.4766    0.0000 C   0  0  0  0  0  0  0  0  0  0  0  0
    3.0658    1.1392    0.0000 C   0  0  0  0  0  0  0  0  0  0  0  0
   -2.4426   -0.8459    0.0000 C   0  0  0  0  0  0  0  0  0  0  0  0
   -2.1623   -0.0699    0.0000 C   0  0  0  0  0  0  0  0  0  0  0  0
    3.0062    1.9621    0.0000 C   0  0  0  0  0  0  0  0  0  0  0  0
  2 21  2  0
  3  4  1  0
  3  5  1  0
  3  8  1  1
  4  6  1  0
  4  9  1  0
  4 14  1  1
  5  7  1  0
  5 12  1  6
  6  1  1  1
  6 10  1  0
  6 16  1  0
  7 11  2  0
  7 13  1  0
  8 10  1  0
  9 13  2  0
 11 15  1  0
 11 18  1  0
 12 17  1  0
 15 17  1  0
 15 19  2  0
 16 20  1  0
 18 22  1  0
 19 21  1  0
 20 23  2  0
 21 22  1  0
M  END
>  <DRUGBANK_ID>  (1) 
DB11372

>  <COMMON_NAME>  (1) 
Altrenogest

>  <CAS_NUMBER>  (1) 
850-52-2

>  <UNII>  (1) 
2U0X0JA2NB

>  <SYNONYMS>  (1) 
17-alpha-Allyl-estratriene-4,9,11,17-beta-ol-3-one; Allyl trenbolone; Allyltrenbolone; Altrenogest; Altrenogestum

$$$$
