
     RDKit          2D

 14 13  0  0  0  0  0  0  0  0999 V2000
    2.1434   -0.2062    0.0000 P   0  0  0  0  0  0  0  0  0  0  0  0
    1.4290    0.2062    0.0000 O   0  0  0  0  0  0  0  0  0  0  0  0
    0.0000    1.0312    0.0000 O   0  0  0  0  0  0  0  0  0  0  0  0
   -0.7144   -1.0312    0.0000 O   0  0  0  0  0  0  0  0  0  0  0  0
   -1.4289    1.0312    0.0000 O   0  0  0  0  0  0  0  0  0  0  0  0
    2.5559    0.5082    0.0000 O   0  0  0  0  0  0  0  0  0  0  0  0
    2.8579   -0.6187    0.0000 O   0  0  0  0  0  0  0  0  0  0  0  0
    1.7309   -0.9207    0.0000 O   0  0  0  0  0  0  0  0  0  0  0  0
   -2.8579    0.2062    0.0000 O   0  0  0  0  0  0  0  0  0  0  0  0
   -2.1433   -0.2062    0.0000 N   0  0  0  0  0  0  0  0  0  0  0  0
    0.0000    0.2062    0.0000 C   0  0  0  0  0  0  0  0  0  0  0  0
   -0.7144   -0.2062    0.0000 C   0  0  0  0  0  0  0  0  0  0  0  0
    0.7145   -0.2062    0.0000 C   0  0  0  0  0  0  0  0  0  0  0  0
   -1.4289    0.2062    0.0000 C   0  0  0  0  0  0  0  0  0  0  0  0
  1  2  1  0
  1  6  1  0
  1  7  1  0
  1  8  2  0
  2 13  1  0
  5 14  2  0
  9 10  1  0
 10 14  1  0
 11  3  1  6
 11 12  1  0
 11 13  1  0
 12  4  1  1
 12 14  1  0
M  END
>  <DRUGBANK_ID>  (1) 
DB04496

>  <SECONDARY_ACCESSION_NUMBERS>  (1) 
EXPT02772

>  <COMMON_NAME>  (1) 
4-Phospho-D-erythronohydroxamic acid

>  <CAS_NUMBER>  (1) 
718599-64-5

$$$$
