
     RDKit          2D

  9  8  0  0  0  0  0  0  0  0999 V2000
    0.0000   -0.4125    0.0000 C   0  0  0  0  0  0  0  0  0  0  0  0
    0.7144    0.0000    0.0000 P   0  0  0  0  0  0  0  0  0  0  0  0
    1.4289   -0.4125    0.0000 O   0  0  0  0  0  0  0  0  0  0  0  0
    0.7144    0.8250    0.0000 O   0  0  0  0  0  0  0  0  0  0  0  0
   -0.7144    0.0000    0.0000 P   0  0  0  0  0  0  0  0  0  0  0  0
   -1.4289   -0.4125    0.0000 O   0  0  0  0  0  0  0  0  0  0  0  0
   -0.7144    0.8250    0.0000 O   0  0  0  0  0  0  0  0  0  0  0  0
   -0.7144   -0.8250    0.0000 O   0  0  0  0  0  0  0  0  0  0  0  0
    0.7144   -0.8250    0.0000 O   0  0  0  0  0  0  0  0  0  0  0  0
  1  2  1  0
  1  5  1  0
  2  3  1  0
  2  4  2  0
  2  9  1  0
  5  6  1  0
  5  7  2  0
  5  8  1  0
M  END
>  <DRUGBANK_ID>  (1) 
DB14078

>  <COMMON_NAME>  (1) 
Medronic acid

>  <CAS_NUMBER>  (1) 
1984-15-2

>  <UNII>  (1) 
73OS0QIN3O

>  <SYNONYMS>  (1) 
Acide medronique; Acido medronico; Acidum medronicum; Medronate; Medronic acid; methanebisphosphonic acid; methanediphosphonic acid; methanediylbis(phosphonic acid); Methylene-1,1-bisphosphonic acid; Methylenediphosphonic acid

$$$$
