RRP
     RDKit          2D

 30 33  0  0  0  0  0  0  0  0999 V2000
   -4.7794   -1.7036    0.0000 N   0  0  0  0  0  0  0  0  0  0  0  0
   -4.3669   -0.9891    0.0000 C   0  0  0  0  0  0  0  0  0  0  0  0
   -4.7794   -0.2746    0.0000 N   0  0  0  0  0  0  0  0  0  0  0  0
   -3.5419   -0.9891    0.0000 C   0  0  0  0  0  0  0  0  0  0  0  0
   -3.1294   -0.2746    0.0000 C   0  0  0  0  0  0  0  0  0  0  0  0
   -2.3044   -0.2746    0.0000 C   0  0  0  0  0  0  0  0  0  0  0  0
   -1.8919   -0.9891    0.0000 C   0  0  0  0  0  0  0  0  0  0  0  0
   -2.3044   -1.7036    0.0000 C   0  0  0  0  0  0  0  0  0  0  0  0
   -3.1294   -1.7036    0.0000 C   0  0  0  0  0  0  0  0  0  0  0  0
   -1.8919    0.4398    0.0000 C   0  0  0  0  0  0  0  0  0  0  0  0
   -1.0669    0.4398    0.0000 N   0  0  0  0  0  0  0  0  0  0  0  0
   -0.6544    1.1543    0.0000 C   0  0  0  0  0  0  0  0  0  0  0  0
   -1.0669    1.8688    0.0000 O   0  0  0  0  0  0  0  0  0  0  0  0
    0.1706    1.1543    0.0000 C   0  0  0  0  0  0  0  0  0  0  0  0
    0.5831    0.4398    0.0000 N   0  0  0  0  0  0  0  0  0  0  0  0
    0.1706   -0.2746    0.0000 C   0  0  0  0  0  0  0  0  0  0  0  0
   -0.6544   -0.2746    0.0000 C   0  0  0  0  0  0  0  0  0  0  0  0
    1.4081    0.4398    0.0000 S   0  0  0  0  0  0  0  0  0  0  0  0
    1.4081   -0.3852    0.0000 O   0  0  0  0  0  0  0  0  0  0  0  0
    1.4081    1.2648    0.0000 O   0  0  0  0  0  0  0  0  0  0  0  0
    2.2331    0.4398    0.0000 C   0  0  0  0  0  0  0  0  0  0  0  0
    2.7181   -0.2276    0.0000 C   0  0  0  0  0  0  0  0  0  0  0  0
    3.5027    0.0273    0.0000 C   0  0  0  0  0  0  0  0  0  0  0  0
    3.5027    0.8523    0.0000 C   0  0  0  0  0  0  0  0  0  0  0  0
    2.7181    1.1073    0.0000 S   0  0  0  0  0  0  0  0  0  0  0  0
    4.2172    1.2648    0.0000 C   0  0  0  0  0  0  0  0  0  0  0  0
    4.9316    0.8523    0.0000 C   0  0  0  0  0  0  0  0  0  0  0  0
    5.6461    1.2648    0.0000 Cl  0  0  0  0  0  0  0  0  0  0  0  0
    4.9316    0.0273    0.0000 C   0  0  0  0  0  0  0  0  0  0  0  0
    4.2172   -0.3852    0.0000 C   0  0  0  0  0  0  0  0  0  0  0  0
  1  2  2  0
  2  3  1  0
  2  4  1  0
  4  5  2  0
  4  9  1  0
  5  6  1  0
  6  7  2  0
  6 10  1  0
  7  8  1  0
  8  9  2  0
 10 11  1  0
 11 12  1  0
 11 17  1  0
 12 13  2  0
 12 14  1  0
 14 15  1  0
 15 16  1  0
 15 18  1  0
 16 17  1  0
 18 19  2  0
 18 20  2  0
 18 21  1  0
 21 22  2  0
 21 25  1  0
 22 23  1  0
 23 24  2  0
 23 30  1  0
 24 25  1  0
 24 26  1  0
 26 27  2  0
 27 28  1  0
 27 29  1  0
 29 30  2  0
M  END
>  <DRUGBANK_ID>  (1) 
DB08487

>  <COMMON_NAME>  (1) 
3-({4-[(6-CHLORO-1-BENZOTHIEN-2-YL)SULFONYL]-2-OXOPIPERAZIN-1-YL}METHYL)BENZENECARBOXIMIDAMIDE

$$$$
