
     RDKit          2D

 25 26  0  0  0  0  0  0  0  0999 V2000
    3.3000   -0.0527    0.0000 C   0  0  0  0  0  0  0  0  0  0  0  0
    2.4750   -0.0527    0.0000 O   0  0  0  0  0  0  0  0  0  0  0  0
    2.0657    0.6599    0.0000 C   0  0  0  0  0  0  0  0  0  0  0  0
    2.4750    1.3727    0.0000 C   0  0  0  0  0  0  0  0  0  0  0  0
    2.0657    2.0921    0.0000 C   0  0  0  0  0  0  0  0  0  0  0  0
    1.2408    2.0921    0.0000 C   0  0  0  0  0  0  0  0  0  0  0  0
    0.8250    1.3727    0.0000 C   0  0  0  0  0  0  0  0  0  0  0  0
    0.0000    1.3727    0.0000 C   0  0  0  0  0  0  0  0  0  0  0  0
   -0.4158    0.6599    0.0000 N   0  0  0  0  0  0  0  0  0  0  0  0
   -1.2408    0.6599    0.0000 N   0  0  0  0  0  0  0  0  0  0  0  0
   -1.6500    1.3727    0.0000 C   0  0  0  0  0  0  0  0  0  0  0  0
   -1.2408    2.0921    0.0000 O   0  0  0  0  0  0  0  0  0  0  0  0
   -2.4750    1.3727    0.0000 C   0  0  0  0  0  0  0  0  0  0  0  0
   -2.4750    2.1977    0.0000 F   0  0  0  0  0  0  0  0  0  0  0  0
   -2.4750    0.5477    0.0000 F   0  0  0  0  0  0  0  0  0  0  0  0
   -3.3000    1.3727    0.0000 F   0  0  0  0  0  0  0  0  0  0  0  0
   -1.6500   -0.0527    0.0000 C   0  0  0  0  0  0  0  0  0  0  0  0
   -2.4750   -0.0527    0.0000 C   0  0  0  0  0  0  0  0  0  0  0  0
   -2.8841   -0.7655    0.0000 C   0  0  0  0  0  0  0  0  0  0  0  0
   -2.4750   -1.4849    0.0000 C   0  0  0  0  0  0  0  0  0  0  0  0
   -2.8841   -2.1977    0.0000 C   0  0  0  0  0  0  0  0  0  0  0  0
   -1.6500   -1.4849    0.0000 C   0  0  0  0  0  0  0  0  0  0  0  0
   -1.2408   -0.7655    0.0000 C   0  0  0  0  0  0  0  0  0  0  0  0
   -0.4158   -0.7655    0.0000 C   0  0  0  0  0  0  0  0  0  0  0  0
    1.2408    0.6599    0.0000 C   0  0  0  0  0  0  0  0  0  0  0  0
  1  2  1  0
  2  3  1  0
  3  4  2  0
  3 25  1  0
  4  5  1  0
  5  6  2  0
  6  7  1  0
  7  8  1  0
  7 25  2  0
  8  9  2  0
  9 10  1  0
 10 11  1  0
 10 17  1  0
 11 12  2  0
 11 13  1  0
 13 14  1  0
 13 15  1  0
 13 16  1  0
 17 18  2  0
 17 23  1  0
 18 19  1  0
 19 20  2  0
 20 21  1  0
 20 22  1  0
 22 23  2  0
 23 24  1  0
M  END
>  <DRUGBANK_ID>  (1) 
DB13957

>  <COMMON_NAME>  (1) 
J147

>  <CAS_NUMBER>  (1) 
1146963-51-0

>  <UNII>  (1) 
Z41H3C5BT9

>  <SYNONYMS>  (1) 
N-(2,4-Dimethylphenyl)-2,2,2-trifluoro-N'-[(E)-(3-methoxyphenyl)methylene]acetohydrazide

$$$$
