
     RDKit          2D

 33 35  0  0  0  0  0  0  0  0999 V2000
   -2.4587    0.1058    0.0000 C   0  0  0  0  0  0  0  0  0  0  0  0
   -3.1769   -0.3084    0.0000 C   0  0  0  0  0  0  0  0  0  0  0  0
   -3.1769   -1.1372    0.0000 C   0  0  0  0  0  0  0  0  0  0  0  0
   -2.4587   -1.5424    0.0000 C   0  0  0  0  0  0  0  0  0  0  0  0
   -1.7404   -1.1372    0.0000 C   0  0  0  0  0  0  0  0  0  0  0  0
   -1.7404   -0.3084    0.0000 C   0  0  0  0  0  0  0  0  0  0  0  0
   -4.6043   -1.9568    0.0000 O   0  0  0  0  0  0  0  0  0  0  0  0
   -3.8861   -1.5424    0.0000 S   0  0  0  0  0  0  0  0  0  0  0  0
   -4.3004   -0.8334    0.0000 O   0  0  0  0  0  0  0  0  0  0  0  0
   -3.4808   -2.2607    0.0000 O   0  0  0  0  0  0  0  0  0  0  0  0
   -1.0313   -1.5424    0.0000 C   0  0  0  0  0  0  0  0  0  0  0  0
   -0.2855    1.2109    0.0000 C   0  0  0  0  0  0  0  0  0  0  0  0
   -0.2302   -0.1242    0.0000 C   0  0  0  0  0  0  0  0  0  0  0  0
    0.2302    0.5663    0.0000 C   0  0  0  0  0  0  0  0  0  0  0  0
   -1.0313    0.1058    0.0000 N   0  0  0  0  0  0  0  0  0  0  0  0
   -1.0589    0.9347    0.0000 N   0  0  0  0  0  0  0  0  0  0  0  0
   -0.0552    2.0121    0.0000 C   0  0  0  0  0  0  0  0  0  0  0  0
    0.0459   -0.8978    0.0000 O   0  0  0  0  0  0  0  0  0  0  0  0
    1.0498    0.5939    0.0000 N   0  0  0  0  0  0  0  0  0  0  0  0
    1.6391    0.0138    0.0000 N   0  0  0  0  0  0  0  0  0  0  0  0
    2.4587    0.0138    0.0000 C   0  0  0  0  0  0  0  0  0  0  0  0
    2.8270    0.7505    0.0000 C   0  0  0  0  0  0  0  0  0  0  0  0
    2.9191   -0.6768    0.0000 C   0  0  0  0  0  0  0  0  0  0  0  0
    3.7386   -0.6216    0.0000 C   0  0  0  0  0  0  0  0  0  0  0  0
    4.1070    0.1151    0.0000 C   0  0  0  0  0  0  0  0  0  0  0  0
    3.6558    0.8057    0.0000 C   0  0  0  0  0  0  0  0  0  0  0  0
    4.4293    2.2607    0.0000 O   0  0  0  0  0  0  0  0  0  0  0  0
    4.0242    1.5424    0.0000 S   0  0  0  0  0  0  0  0  0  0  0  0
    3.4348    2.1225    0.0000 O   0  0  0  0  0  0  0  0  0  0  0  0
    4.6043    0.9623    0.0000 O   0  0  0  0  0  0  0  0  0  0  0  0
    2.5507   -1.4134    0.0000 C   0  0  0  0  0  0  0  0  0  0  0  0
    3.0019   -2.1042    0.0000 O   0  0  0  0  0  0  0  0  0  0  0  0
    1.7220   -1.4688    0.0000 O   0  0  0  0  0  0  0  0  0  0  0  0
  1  2  2  0
  1  6  1  0
  2  3  1  0
  3  4  2  0
  3  8  1  0
  4  5  1  0
  5  6  2  0
  5 11  1  0
  6 15  1  0
  7  8  1  0
  8 10  2  0
  8  9  2  0
 12 16  2  0
 12 14  1  0
 12 17  1  0
 13 15  1  0
 13 14  2  0
 13 18  1  0
 14 19  1  0
 15 16  1  0
 19 20  2  0
 20 21  1  0
 21 22  2  0
 21 23  1  0
 22 26  1  0
 23 24  2  0
 23 31  1  0
 24 25  1  0
 25 26  2  0
 26 28  1  0
 27 28  1  0
 28 30  2  0
 28 29  2  0
 31 32  2  0
 31 33  1  0
M  END
>  <DRUGBANK_ID>  (1) 
DB03442

>  <SECONDARY_ACCESSION_NUMBERS>  (1) 
EXPT00150

>  <COMMON_NAME>  (1) 
Acid yellow 54 free acid

>  <CAS_NUMBER>  (1) 
68957-71-1

>  <UNII>  (1) 
83Y199VAOL

>  <SYNONYMS>  (1) 
2-(5-hydroxy-3-methyl-1-(2-methyl-4-sulfophenyl)-1H-pyrazol-4-ylazo)-4-sulfobenzoic acid

$$$$
