ZYU
     RDKit          2D

 15 17  0  0  0  0  0  0  0  0999 V2000
   -0.6089    0.8389    0.0000 C   0  0  0  0  0  0  0  0  0  0  0  0
   -0.6089    1.6639    0.0000 C   0  0  0  0  0  0  0  0  0  0  0  0
    0.1056    2.0764    0.0000 O   0  0  0  0  0  0  0  0  0  0  0  0
    0.8200    1.6639    0.0000 C   0  0  0  0  0  0  0  0  0  0  0  0
    0.8200    0.8389    0.0000 C   0  0  0  0  0  0  0  0  0  0  0  0
    0.1056   -0.3986    0.0000 C   0  0  0  0  0  0  0  0  0  0  0  0
    0.8200   -0.8111    0.0000 N   0  0  0  0  0  0  0  0  0  0  0  0
    0.8200   -1.6361    0.0000 C   0  0  0  0  0  0  0  0  0  0  0  0
    0.1056   -2.0486    0.0000 N   0  0  0  0  0  0  0  0  0  0  0  0
   -0.6089   -1.6361    0.0000 C   0  0  0  0  0  0  0  0  0  0  0  0
   -0.6089   -0.8111    0.0000 C   0  0  0  0  0  0  0  0  0  0  0  0
   -1.3935   -0.5561    0.0000 N   0  0  0  0  0  0  0  0  0  0  0  0
   -1.8785   -1.2236    0.0000 C   0  0  0  0  0  0  0  0  0  0  0  0
   -1.3935   -1.8910    0.0000 N   0  0  0  0  0  0  0  0  0  0  0  0
    0.1056    0.4264    0.0000 N   0  0  0  0  0  0  0  0  0  0  0  0
  1  2  1  0
  1 15  1  0
  2  3  1  0
  3  4  1  0
  4  5  1  0
  5 15  1  0
  6  7  2  0
  6 11  1  0
  6 15  1  0
  7  8  1  0
  8  9  2  0
  9 10  1  0
 10 11  2  0
 10 14  1  0
 11 12  1  0
 12 13  2  0
 13 14  1  0
M  END
>  <DRUGBANK_ID>  (1) 
DB08780

>  <COMMON_NAME>  (1) 
6-MORPHOLIN-4-YL-9H-PURINE

>  <UNII>  (1) 
89VN5RQ48X

$$$$
