3B4
     RDKit          2D

 16 17  0  0  0  0  0  0  0  0999 V2000
   -0.4980    1.5594    0.0000 C   0  0  0  0  0  0  0  0  0  0  0  0
   -1.2125    1.9719    0.0000 C   0  0  0  0  0  0  0  0  0  0  0  0
   -1.9270    1.5594    0.0000 C   0  0  0  0  0  0  0  0  0  0  0  0
   -1.9270    0.7344    0.0000 C   0  0  0  0  0  0  0  0  0  0  0  0
   -1.2125    0.3219    0.0000 C   0  0  0  0  0  0  0  0  0  0  0  0
   -0.4980    0.7344    0.0000 C   0  0  0  0  0  0  0  0  0  0  0  0
    0.2165    0.3219    0.0000 N   0  0  0  0  0  0  0  0  0  0  0  0
    0.2165   -0.5031    0.0000 C   0  0  0  0  0  0  0  0  0  0  0  0
   -0.4980   -0.9156    0.0000 C   0  0  0  0  0  0  0  0  0  0  0  0
   -0.4980   -1.7406    0.0000 C   0  0  0  0  0  0  0  0  0  0  0  0
    0.2165   -2.1531    0.0000 C   0  0  0  0  0  0  0  0  0  0  0  0
    0.9309   -1.7406    0.0000 C   0  0  0  0  0  0  0  0  0  0  0  0
    0.9309   -0.9156    0.0000 C   0  0  0  0  0  0  0  0  0  0  0  0
    1.6454   -0.5031    0.0000 C   0  0  0  0  0  0  0  0  0  0  0  0
    2.3599   -0.9156    0.0000 O   0  0  0  0  0  0  0  0  0  0  0  0
    1.6454    0.3219    0.0000 O   0  0  0  0  0  0  0  0  0  0  0  0
  2  1  1  0
  3  2  1  0
  4  3  1  0
  5  4  1  0
  5  6  1  0
  6  1  1  0
  6  7  1  0
  7  8  1  0
  8 13  1  0
  9  8  2  0
  9 10  1  0
 10 11  2  0
 11 12  1  0
 13 12  2  0
 13 14  1  0
 14 15  1  0
 16 14  2  0
M  END
>  <DRUGBANK_ID>  (1) 
DB07038

>  <COMMON_NAME>  (1) 
2-(cyclohexylamino)benzoic acid

>  <UNII>  (1) 
B519KGK87P

$$$$
