
     RDKit          2D

  6  5  0  0  0  0  0  0  0  0999 V2000
    0.3572    0.2062    0.0000 C   0  0  0  0  0  0  0  0  0  0  0  0
   -0.3572   -0.2061    0.0000 C   0  0  0  0  0  0  0  0  0  0  0  0
    1.0717   -0.2062    0.0000 O   0  0  0  0  0  0  0  0  0  0  0  0
   -1.0717    0.2063    0.0000 C   0  0  0  0  0  0  0  0  0  0  0  0
    0.3572    1.0312    0.0000 O   0  0  0  0  0  0  0  0  0  0  0  0
   -0.3572   -1.0312    0.0000 O   0  0  0  0  0  0  0  0  0  0  0  0
  1  5  2  0
  1  2  1  0
  1  3  1  0
  2  6  1  0
  2  4  1  1
M  END
>  <DRUGBANK_ID>  (1) 
DB14475

>  <COMMON_NAME>  (1) 
L-Lactic acid

>  <CAS_NUMBER>  (1) 
79-33-4

>  <UNII>  (1) 
F9S9FFU82N

>  <SYNONYMS>  (1) 
(+)-lactic acid; (S)-(+)-lactic acid; (S)-2-hydroxypropanoic acid; (S)-2-hydroxypropionic acid; (S)-lactic acid; L-(+)-lactic acid; L-(+)-α-hydroxypropionic acid; L-Lactic acid; L-Milchsäure

$$$$
