
     RDKit          2D

 16 18  0  0  1  0  0  0  0  0999 V2000
    4.0716    1.5745    0.0000 N   0  0  0  0  0  0  0  0  0  0  0  0
    3.2470    1.5487    0.0000 C   0  0  0  0  0  0  0  0  0  0  0  0
    2.8124    2.2499    0.0000 N   0  0  0  0  0  0  0  0  0  0  0  0
    1.9878    2.2242    0.0000 C   0  0  0  0  0  0  0  0  0  0  0  0
    1.5978    1.4972    0.0000 C   0  0  0  0  0  0  0  0  0  0  0  0
    0.7732    1.4714    0.0000 N   0  0  0  0  0  0  0  0  0  0  0  0
    0.3386    2.1727    0.0000 C   0  0  0  0  0  0  0  0  0  0  0  0
    0.7286    2.8997    0.0000 C   0  0  0  0  0  0  0  0  0  0  0  0
    1.5532    2.9254    0.0000 N   0  0  0  0  0  0  0  0  0  0  0  0
   -0.4626    1.9760    0.0000 C   0  0  0  0  0  0  0  0  0  0  0  0
   -0.5232    1.1532    0.0000 O   0  0  0  0  0  0  0  0  0  0  0  0
    0.2406    0.8414    0.0000 C   0  0  0  0  0  0  0  0  0  0  0  0
    0.4373    0.0402    0.0000 O   0  0  0  0  0  0  0  0  0  0  0  0
    2.0325    0.7959    0.0000 C   0  0  0  0  0  0  0  0  0  0  0  0
    1.6425    0.0689    0.0000 O   0  0  0  0  0  0  0  0  0  0  0  0
    2.8571    0.8217    0.0000 N   0  0  0  0  0  0  0  0  0  0  0  0
  1  2  1  0
  2  3  2  0
  2 16  1  0
  3  4  1  0
  4  5  2  0
  4  9  1  0
  5  6  1  0
  5 14  1  0
  6 12  1  0
  7  6  1  0
  7  8  1  1
  7 10  1  0
  8  9  1  0
 10 11  1  0
 11 12  1  0
 12 13  2  0
 14 15  2  0
 14 16  1  0
M  END
>  <DRUGBANK_ID>  (1) 
DB03332

>  <SECONDARY_ACCESSION_NUMBERS>  (1) 
EXPT00534

>  <COMMON_NAME>  (1) 
5,6-Cyclic-Tetrahydropteridine

$$$$
