BEY
     RDKit          2D

 25 26  0  0  0  0  0  0  0  0999 V2000
    0.2120   -0.6112    0.0000 O   0  0  0  0  0  0  0  0  0  0  0  0
   -0.0581    0.1683    0.0000 P   0  0  0  0  0  0  0  0  0  0  0  0
   -0.3281    0.9479    0.0000 O   0  0  0  0  0  0  0  0  0  0  0  0
   -0.8376   -0.1017    0.0000 C   0  0  0  0  0  0  0  0  0  0  0  0
   -1.4613    0.4384    0.0000 C   0  0  0  0  0  0  0  0  0  0  0  0
   -2.2408    0.1683    0.0000 C   0  0  0  0  0  0  0  0  0  0  0  0
   -2.8645    0.7084    0.0000 C   0  0  0  0  0  0  0  0  0  0  0  0
   -3.6440    0.4384    0.0000 C   0  0  0  0  0  0  0  0  0  0  0  0
   -4.2677    0.9785    0.0000 C   0  0  0  0  0  0  0  0  0  0  0  0
   -4.1118    1.7886    0.0000 C   0  0  0  0  0  0  0  0  0  0  0  0
   -3.3322    2.0586    0.0000 C   0  0  0  0  0  0  0  0  0  0  0  0
   -2.7086    1.5185    0.0000 C   0  0  0  0  0  0  0  0  0  0  0  0
   -0.9936   -0.9119    0.0000 N   0  0  0  0  0  0  0  0  0  0  0  0
    0.7215    0.4384    0.0000 C   0  0  0  0  0  0  0  0  0  0  0  0
    1.3451   -0.1017    0.0000 C   0  0  0  0  0  0  0  0  0  0  0  0
    1.1892   -0.9119    0.0000 C   0  0  0  0  0  0  0  0  0  0  0  0
    1.8128   -1.4519    0.0000 O   0  0  0  0  0  0  0  0  0  0  0  0
    0.4096   -1.1819    0.0000 O   0  0  0  0  0  0  0  0  0  0  0  0
    2.1247    0.1683    0.0000 C   0  0  0  0  0  0  0  0  0  0  0  0
    2.7483   -0.3718    0.0000 C   0  0  0  0  0  0  0  0  0  0  0  0
    3.5278   -0.1017    0.0000 C   0  0  0  0  0  0  0  0  0  0  0  0
    4.1515   -0.6418    0.0000 C   0  0  0  0  0  0  0  0  0  0  0  0
    3.9956   -1.4519    0.0000 C   0  0  0  0  0  0  0  0  0  0  0  0
    3.2160   -1.7220    0.0000 C   0  0  0  0  0  0  0  0  0  0  0  0
    2.5924   -1.1819    0.0000 C   0  0  0  0  0  0  0  0  0  0  0  0
  2  1  1  0
  2  3  2  0
  2  4  1  0
  2 14  1  0
  4  5  1  0
  4 13  1  6
  5  6  1  0
  6  7  1  0
  7  8  2  0
  7 12  1  0
  8  9  1  0
  9 10  2  0
 10 11  1  0
 11 12  2  0
 15 14  1  1
 15 16  1  0
 15 19  1  0
 16 17  2  0
 16 18  1  0
 19 20  1  0
 20 21  2  0
 20 25  1  0
 21 22  1  0
 22 23  2  0
 23 24  1  0
 24 25  2  0
M  END
>  <DRUGBANK_ID>  (1) 
DB07448

>  <COMMON_NAME>  (1) 
(2S)-3-[(R)-[(1S)-1-amino-3-phenylpropyl](hydroxy)phosphoryl]-2-benzylpropanoic acid

$$$$
