
     RDKit          2D

  5  4  0  0  0  0  0  0  0  0999 V2000
    0.3556   -0.6183    0.0000 N   0  0  0  0  0  0  0  0  0  0  0  0
   -0.3597   -0.2061    0.0000 C   0  0  0  0  0  0  0  0  0  0  0  0
   -1.0710   -0.6183    0.0000 N   0  0  0  0  0  0  0  0  0  0  0  0
   -0.3597    0.6183    0.0000 N   0  0  0  0  0  0  0  0  0  0  0  0
    1.0710   -0.2061    0.0000 N   0  0  0  0  0  0  0  0  0  0  0  0
  1  2  1  0
  1  5  1  0
  2  3  1  0
  2  4  2  0
M  END
>  <DRUGBANK_ID>  (1) 
DB05383

>  <SECONDARY_ACCESSION_NUMBERS>  (1) 
EXPT00459; DB02533

>  <COMMON_NAME>  (1) 
Pimagedine

>  <CAS_NUMBER>  (1) 
79-17-4

>  <UNII>  (1) 
SCQ4EZQ113

>  <SYNONYMS>  (1) 
Aminate base; Aminoguanidine; Guanyl hydrazine; Hydrazinecarboximidamide; Monoaminoguanidine; Pimagedine

$$$$
