12894
     RDKit          2D

 18 19  0  0  0  0  0  0  0  0999 V2000
    2.4751    0.2863    0.0000 S   0  0  0  0  0  0  0  0  0  0  0  0
    3.2758    2.3443    0.0000 O   0  0  0  0  0  0  0  0  0  0  0  0
    3.3001    0.2863    0.0000 O   0  0  0  0  0  0  0  0  0  0  0  0
    1.6500    0.2863    0.0000 O   0  0  0  0  0  0  0  0  0  0  0  0
    2.4751    1.1113    0.0000 N   0  0  0  0  0  0  0  0  0  0  0  0
    3.9433    1.1883    0.0000 N   0  0  0  0  0  0  0  0  0  0  0  0
    2.4751   -3.0138    0.0000 N   0  0  0  0  0  0  0  0  0  0  0  0
    2.4751   -0.5387    0.0000 C   0  0  0  0  0  0  0  0  0  0  0  0
    3.1895    1.5238    0.0000 C   0  0  0  0  0  0  0  0  0  0  0  0
    4.0828    2.5158    0.0000 C   0  0  0  0  0  0  0  0  0  0  0  0
    4.4953    1.8013    0.0000 C   0  0  0  0  0  0  0  0  0  0  0  0
    1.7606   -0.9512    0.0000 C   0  0  0  0  0  0  0  0  0  0  0  0
    3.1895   -0.9512    0.0000 C   0  0  0  0  0  0  0  0  0  0  0  0
    1.7606   -1.7763    0.0000 C   0  0  0  0  0  0  0  0  0  0  0  0
    3.1895   -1.7763    0.0000 C   0  0  0  0  0  0  0  0  0  0  0  0
    2.4751   -2.1888    0.0000 C   0  0  0  0  0  0  0  0  0  0  0  0
    4.4183    3.2695    0.0000 C   0  0  0  0  0  0  0  0  0  0  0  0
    5.3158    1.7151    0.0000 C   0  0  0  0  0  0  0  0  0  0  0  0
  1  3  2  0
  1  4  2  0
  1  5  1  0
  1  8  1  0
  2  9  1  0
  2 10  1  0
  5  9  1  0
  6  9  2  0
  6 11  1  0
  7 16  1  0
  8 12  2  0
  8 13  1  0
 10 11  2  0
 10 17  1  0
 11 18  1  0
 12 14  1  0
 13 15  2  0
 14 16  2  0
 15 16  1  0
M  END
>  <DRUGBANK_ID>  (1) 
DB08798

>  <COMMON_NAME>  (1) 
Sulfamoxole

>  <CAS_NUMBER>  (1) 
729-99-7

>  <UNII>  (1) 
HGG82XE020

>  <SYNONYMS>  (1) 
2-(p-Aminobenzenesulfonamido)-4,5-dimethyloxazole; 2-(p-Aminobenzolsulfonamido)-4,5-dimethyloxazol; 4-Amino-N-(4,5-dimethyl-2-oxazolyl)benzenesulfonamide; 4,5-Dimethyl-2-sulfanilamidooxazole; N(sup 1)-(4,5-Dimethyl-2-oxazolyl)sulfanilamide; N1-(4,5-Dimethyl-2-oxazolyl)sulfanilamide; Oxasulfa; p-Aminobenzenesulfonyl-2-amino-4,5-dimethyloxazole; Sulfadimethyloxazole; Sulfamoxol; Sulfamoxole; Sulfamoxolum; Sulphamoxole

$$$$
