
     RDKit          2D

 34 34  0  0  0  0  0  0  0  0999 V2000
    1.7861   -0.2846    0.0000 S   0  0  0  0  0  0  0  0  0  0  0  0
    3.2151    1.3653    0.0000 O   0  0  0  0  0  0  0  0  0  0  0  0
    3.2151   -1.1096    0.0000 O   0  0  0  0  0  0  0  0  0  0  0  0
   -0.3572   -2.3471    0.0000 O   0  0  0  0  0  0  0  0  0  0  0  0
    0.3572   -2.7596    0.0000 O   0  0  0  0  0  0  0  0  0  0  0  0
   -3.9296   -1.1096    0.0000 O   0  0  0  0  0  0  0  0  0  0  0  0
   -3.2151   -2.3471    0.0000 O   0  0  0  0  0  0  0  0  0  0  0  0
    2.5006   -4.8221    0.0000 O   0  0  0  0  0  0  0  0  0  0  0  0
    3.2151   -3.5846    0.0000 O   0  0  0  0  0  0  0  0  0  0  0  0
    3.9295    5.0778    0.0000 O   0  0  0  0  0  0  0  0  0  0  0  0
    2.5006    5.0778    0.0000 O   0  0  0  0  0  0  0  0  0  0  0  0
    0.3572   -1.1096    0.0000 N   0  0  0  0  0  0  0  0  0  0  0  0
    1.7861   -2.7596    0.0000 N   0  0  0  0  0  0  0  0  0  0  0  0
   -2.5006   -0.2846    0.0000 N   0  0  0  0  0  0  0  0  0  0  0  0
    3.2151    4.6653    0.0000 N   0  0  0  0  0  0  0  0  0  0  0  0
    1.0716   -1.5221    0.0000 C   0  0  0  0  0  0  0  0  0  0  0  0
    1.7861   -1.1096    0.0000 C   0  0  0  0  0  0  0  0  0  0  0  0
    2.5006    0.1278    0.0000 C   0  0  0  0  0  0  0  0  0  0  0  0
   -1.0717   -1.1096    0.0000 C   0  0  0  0  0  0  0  0  0  0  0  0
   -1.7862   -1.5221    0.0000 C   0  0  0  0  0  0  0  0  0  0  0  0
   -0.3572   -1.5221    0.0000 C   0  0  0  0  0  0  0  0  0  0  0  0
    2.5006    0.9528    0.0000 C   0  0  0  0  0  0  0  0  0  0  0  0
    1.0716   -2.3471    0.0000 C   0  0  0  0  0  0  0  0  0  0  0  0
   -2.5006   -1.1096    0.0000 C   0  0  0  0  0  0  0  0  0  0  0  0
    3.2151   -0.2846    0.0000 C   0  0  0  0  0  0  0  0  0  0  0  0
   -3.2151   -1.5221    0.0000 C   0  0  0  0  0  0  0  0  0  0  0  0
    1.7861   -3.5846    0.0000 C   0  0  0  0  0  0  0  0  0  0  0  0
    3.2151    2.1903    0.0000 C   0  0  0  0  0  0  0  0  0  0  0  0
    3.9295    2.6028    0.0000 C   0  0  0  0  0  0  0  0  0  0  0  0
    2.5006    2.6028    0.0000 C   0  0  0  0  0  0  0  0  0  0  0  0
    2.5006   -3.9971    0.0000 C   0  0  0  0  0  0  0  0  0  0  0  0
    3.9295    3.4278    0.0000 C   0  0  0  0  0  0  0  0  0  0  0  0
    2.5006    3.4278    0.0000 C   0  0  0  0  0  0  0  0  0  0  0  0
    3.2151    3.8403    0.0000 C   0  0  0  0  0  0  0  0  0  0  0  0
  1 17  1  0
  1 18  1  0
  2 22  1  0
  2 28  1  0
  3 25  1  0
  4 21  2  0
  5 23  2  0
  6 26  1  0
  7 26  2  0
  8 31  1  0
  9 31  2  0
 10 15  1  0
 11 15  2  0
 12 21  1  0
 13 23  1  0
 13 27  1  0
 15 34  1  0
 16 12  1  0
 16 17  1  1
 16 23  1  0
 18 22  1  6
 18 25  1  0
 19 20  1  0
 19 21  1  0
 20 24  1  0
 24 14  1  1
 24 26  1  0
 27 31  1  0
 28 29  2  0
 28 30  1  0
 29 32  1  0
 30 33  2  0
 32 34  2  0
 33 34  1  0
M  CHG  2  10  -1  15   1
M  END
>  <DRUGBANK_ID>  (1) 
DB03706

>  <SECONDARY_ACCESSION_NUMBERS>  (1) 
EXPT01354

>  <COMMON_NAME>  (1) 
1-Hydroxy-2-S-glutathionyl-3-para-nitrophenoxy-propane

$$$$
