
     RDKit          2D

 22 25  0  0  0  0  0  0  0  0999 V2000
   -2.2508    1.9253    0.0000 N   0  0  0  0  0  0  0  0  0  0  0  0
   -2.2508    1.1003    0.0000 C   0  0  0  0  0  0  0  0  0  0  0  0
   -0.8218    1.9253    0.0000 C   0  0  0  0  0  0  0  0  0  0  0  0
   -0.8218    1.1003    0.0000 C   0  0  0  0  0  0  0  0  0  0  0  0
   -1.5363    2.3378    0.0000 C   0  0  0  0  0  0  0  0  0  0  0  0
   -1.5363    0.6878    0.0000 N   0  0  0  0  0  0  0  0  0  0  0  0
    0.2176    0.0606    0.0000 C   0  0  0  0  0  0  0  0  0  0  0  0
   -0.2672   -0.6067    0.0000 O   0  0  0  0  0  0  0  0  0  0  0  0
    0.2176   -1.2741    0.0000 C   0  0  0  0  0  0  0  0  0  0  0  0
    1.0023   -1.0192    0.0000 C   0  0  0  0  0  0  0  0  0  0  0  0
    1.0023   -0.1942    0.0000 C   0  0  0  0  0  0  0  0  0  0  0  0
    1.6697    0.2907    0.0000 O   0  0  0  0  0  0  0  0  0  0  0  0
    1.6153   -1.5712    0.0000 O   0  0  0  0  0  0  0  0  0  0  0  0
    0.0461   -2.0810    0.0000 C   0  0  0  0  0  0  0  0  0  0  0  0
    0.6592   -2.6331    0.0000 O   0  0  0  0  0  0  0  0  0  0  0  0
    2.2508   -2.5497    0.0000 O   0  0  0  0  0  0  0  0  0  0  0  0
    1.4438   -2.3782    0.0000 P   0  0  0  0  0  0  0  0  0  0  0  0
    1.6988   -3.1628    0.0000 O   0  0  0  0  0  0  0  0  0  0  0  0
   -0.0372    0.8454    0.0000 N   0  0  0  0  0  0  0  0  0  0  0  0
    0.4476    1.5128    0.0000 C   0  0  0  0  0  0  0  0  0  0  0  0
   -0.0372    2.1802    0.0000 N   0  0  0  0  0  0  0  0  0  0  0  0
   -1.5363    3.1628    0.0000 N   0  0  0  0  0  0  0  0  0  0  0  0
  1  2  2  0
  3 21  1  0
  3  4  1  0
  3  5  2  0
  4 19  1  0
  4  6  2  0
  5  1  1  0
  6  2  1  0
  7 19  1  1
  7 11  1  0
  8  7  1  0
  9  8  1  0
  9 14  1  1
  9 10  1  0
 10 13  1  6
 10 11  1  0
 11 12  1  6
 13 17  1  0
 15 14  1  0
 17 15  1  0
 17 16  2  0
 17 18  1  0
 20 19  1  0
 21 20  2  0
 22  5  1  0
M  END
>  <DRUGBANK_ID>  (1) 
DB02527

>  <SECONDARY_ACCESSION_NUMBERS>  (1) 
EXPT00959

>  <COMMON_NAME>  (1) 
Cyclic adenosine monophosphate

>  <CAS_NUMBER>  (1) 
60-92-4

>  <UNII>  (1) 
E0399OZS9N

>  <SYNONYMS>  (1) 
3',5'-cyclic AMP; Adenosine 3',5'-cyclic monophosphate; Adenosine 3',5'-cyclic phosphate; Adenosine 3',5'-phosphate; AMPC; cAMP; Cyclic adenylic acid; Cyclic AMP

$$$$
