F1L
     RDKit          2D

 25 26  0  0  0  0  0  0  0  0999 V2000
    3.8704    1.1780    0.0000 C   0  0  0  0  0  0  0  0  0  0  0  0
    1.7270    0.7655    0.0000 C   0  0  0  0  0  0  0  0  0  0  0  0
    2.4415   -0.4720    0.0000 C   0  0  0  0  0  0  0  0  0  0  0  0
    3.1560   -0.0595    0.0000 C   0  0  0  0  0  0  0  0  0  0  0  0
    3.8704   -0.4720    0.0000 C   0  0  0  0  0  0  0  0  0  0  0  0
    1.7270   -0.0595    0.0000 O   0  0  0  0  0  0  0  0  0  0  0  0
    3.1560   -1.7095    0.0000 C   0  0  0  0  0  0  0  0  0  0  0  0
   -3.9887   -0.0595    0.0000 C   0  0  0  0  0  0  0  0  0  0  0  0
   -3.2743   -0.4720    0.0000 C   0  0  0  0  0  0  0  0  0  0  0  0
   -2.5598   -0.0595    0.0000 C   0  0  0  0  0  0  0  0  0  0  0  0
   -1.8453   -0.4720    0.0000 C   0  0  0  0  0  0  0  0  0  0  0  0
    0.2981   -1.7095    0.0000 C   0  0  0  0  0  0  0  0  0  0  0  0
   -0.4164   -1.2970    0.0000 C   0  0  0  0  0  0  0  0  0  0  0  0
   -0.4164   -0.4720    0.0000 C   0  0  0  0  0  0  0  0  0  0  0  0
    1.0126   -0.4720    0.0000 C   0  0  0  0  0  0  0  0  0  0  0  0
    0.2981   -0.0595    0.0000 C   0  0  0  0  0  0  0  0  0  0  0  0
    4.5849   -1.7095    0.0000 Br  0  0  0  0  0  0  0  0  0  0  0  0
    3.8704   -1.2970    0.0000 C   0  0  0  0  0  0  0  0  0  0  0  0
    3.1560    0.7655    0.0000 O   0  0  0  0  0  0  0  0  0  0  0  0
    2.4415   -1.2970    0.0000 C   0  0  0  0  0  0  0  0  0  0  0  0
    1.7270   -1.7095    0.0000 C   0  0  0  0  0  0  0  0  0  0  0  0
    1.0126   -1.2970    0.0000 N   0  0  0  0  0  0  0  0  0  0  0  0
   -1.1308   -0.0595    0.0000 N   0  0  0  0  0  0  0  0  0  0  0  0
   -1.8453   -1.2970    0.0000 O   0  0  0  0  0  0  0  0  0  0  0  0
   -4.7032   -0.4720    0.0000 S   0  0  0  0  0  0  0  0  0  0  0  0
  1 19  1  0
  2  6  1  0
  3  4  2  0
  3  6  1  0
  3 20  1  0
  4  5  1  0
  4 19  1  0
  5 18  2  0
  7 18  1  0
  7 20  2  0
  8  9  1  0
  8 25  1  0
  9 10  1  0
 10 11  1  0
 11 23  1  0
 11 24  2  0
 12 13  1  0
 12 22  1  0
 13 14  1  0
 14 16  1  0
 14 23  1  0
 15 16  1  0
 15 22  1  0
 17 18  1  0
 20 21  1  0
 21 22  1  0
M  END
>  <DRUGBANK_ID>  (1) 
DB07738

>  <COMMON_NAME>  (1) 
N-[1-(5-bromo-2,3-dimethoxybenzyl)piperidin-4-yl]-4-sulfanylbutanamide

$$$$
