E6C
     RDKit          2D

 22 21  0  0  0  0  0  0  0  0999 V2000
    2.6391   -1.3299    0.0000 O   0  0  0  0  0  0  0  0  0  0  0  0
    3.3535   -0.0925    0.0000 C   0  0  0  0  0  0  0  0  0  0  0  0
    2.6391   -0.5049    0.0000 C   0  0  0  0  0  0  0  0  0  0  0  0
    1.9247   -0.0925    0.0000 C   0  0  0  0  0  0  0  0  0  0  0  0
    1.9247    0.7325    0.0000 O   0  0  0  0  0  0  0  0  0  0  0  0
    1.2103   -0.5049    0.0000 N   0  0  0  0  0  0  0  0  0  0  0  0
    0.4957   -0.0925    0.0000 C   0  0  0  0  0  0  0  0  0  0  0  0
   -0.2186   -0.5049    0.0000 C   0  0  0  0  0  0  0  0  0  0  0  0
   -0.2186   -1.3299    0.0000 O   0  0  0  0  0  0  0  0  0  0  0  0
   -0.9331   -0.0925    0.0000 N   0  0  0  0  0  0  0  0  0  0  0  0
   -1.6475   -0.5049    0.0000 C   0  0  0  0  0  0  0  0  0  0  0  0
   -2.3620   -0.0925    0.0000 C   0  0  0  0  0  0  0  0  0  0  0  0
   -3.0763   -0.5049    0.0000 C   0  0  0  0  0  0  0  0  0  0  0  0
   -3.7908   -0.0925    0.0000 C   0  0  0  0  0  0  0  0  0  0  0  0
   -3.0763   -1.3299    0.0000 C   0  0  0  0  0  0  0  0  0  0  0  0
    4.0680   -0.5049    0.0000 C   0  0  0  0  0  0  0  0  0  0  0  0
    4.7825   -0.0925    0.0000 O   0  0  0  0  0  0  0  0  0  0  0  0
    4.0680   -1.3299    0.0000 O   0  0  0  0  0  0  0  0  0  0  0  0
    0.4957    0.7325    0.0000 C   0  0  0  0  0  0  0  0  0  0  0  0
   -0.2186    1.1450    0.0000 C   0  0  0  0  0  0  0  0  0  0  0  0
   -0.9331    0.7325    0.0000 C   0  0  0  0  0  0  0  0  0  0  0  0
   -0.2186    1.9699    0.0000 C   0  0  0  0  0  0  0  0  0  0  0  0
  2  3  1  0
  2 16  1  0
  3  1  1  6
  3  4  1  0
  4  5  2  0
  4  6  1  0
  7  6  1  0
  7  8  1  0
  7 19  1  6
  8  9  2  0
  8 10  1  0
 10 11  1  0
 11 12  1  0
 12 13  1  0
 13 14  1  0
 13 15  1  0
 16 17  2  0
 16 18  1  0
 19 20  1  0
 20 21  1  0
 20 22  1  0
M  END
>  <DRUGBANK_ID>  (1) 
DB04126

>  <SECONDARY_ACCESSION_NUMBERS>  (1) 
EXPT01318

>  <COMMON_NAME>  (1) 
N-[1-Hydroxycarboxyethyl-Carbonyl]Leucylamino-2-Methyl-Butane

$$$$
