
     RDKit          2D

 33 36  0  0  1  0  0  0  0  0999 V2000
    3.0683   -2.4895    0.0000 C   0  0  0  0  0  0  0  0  0  0  0  0
    2.8390   -1.6970    0.0000 C   0  0  0  0  0  0  0  0  0  0  0  0
    3.5218   -1.2340    0.0000 C   0  0  0  0  0  0  0  0  0  0  0  0
    4.1731   -1.7404    0.0000 C   0  0  0  0  0  0  0  0  0  0  0  0
    4.9853   -1.5952    0.0000 C   0  0  0  0  0  0  0  0  0  0  0  0
    5.2655   -0.8192    0.0000 C   0  0  0  0  0  0  0  0  0  0  0  0
    6.0777   -0.6740    0.0000 C   0  0  0  0  0  0  0  0  0  0  0  0
    6.6095   -1.3047    0.0000 C   0  0  0  0  0  0  0  0  0  0  0  0
    7.4216   -1.1595    0.0000 C   0  0  0  0  0  0  0  0  0  0  0  0
    7.9534   -1.7902    0.0000 C   0  0  0  0  0  0  0  0  0  0  0  0
    7.6731   -2.5662    0.0000 C   0  0  0  0  0  0  0  0  0  0  0  0
    6.8610   -2.7114    0.0000 C   0  0  0  0  0  0  0  0  0  0  0  0
    6.3292   -2.0807    0.0000 C   0  0  0  0  0  0  0  0  0  0  0  0
    6.0489   -2.8566    0.0000 C   0  0  0  0  0  0  0  0  0  0  0  0
    5.5171   -2.2259    0.0000 C   0  0  0  0  0  0  0  0  0  0  0  0
    5.2368   -3.0018    0.0000 C   0  0  0  0  0  0  0  0  0  0  0  0
    4.4247   -3.1470    0.0000 C   0  0  0  0  0  0  0  0  0  0  0  0
    3.8928   -2.5163    0.0000 C   0  0  0  0  0  0  0  0  0  0  0  0
    3.5330   -3.2587    0.0000 C   0  0  0  0  0  0  0  0  0  0  0  0
    8.7655   -1.6450    0.0000 O   0  0  0  0  0  0  0  0  0  0  0  0
    9.2974   -2.2757    0.0000 S   0  0  0  0  0  0  0  0  0  0  0  0
    9.8292   -2.9064    0.0000 O   0  0  0  0  0  0  0  0  0  0  0  0
    9.9281   -1.7439    0.0000 O   0  0  0  0  0  0  0  0  0  0  0  0
    8.6667   -2.8075    0.0000 O   0  0  0  0  0  0  0  0  0  0  0  0
    2.5619   -3.1408    0.0000 C   0  0  0  0  0  0  0  0  0  0  0  0
    2.8728   -3.9050    0.0000 C   0  0  0  0  0  0  0  0  0  0  0  0
    1.7447   -3.0280    0.0000 C   0  0  0  0  0  0  0  0  0  0  0  0
    1.2383   -3.6793    0.0000 C   0  0  0  0  0  0  0  0  0  0  0  0
    0.4211   -3.5665    0.0000 C   0  0  0  0  0  0  0  0  0  0  0  0
   -0.0853   -4.2178    0.0000 C   0  0  0  0  0  0  0  0  0  0  0  0
   -0.5916   -4.8691    0.0000 C   0  0  0  0  0  0  0  0  0  0  0  0
   -0.7366   -3.7114    0.0000 C   0  0  0  0  0  0  0  0  0  0  0  0
    0.5660   -4.7241    0.0000 O   0  0  0  0  0  0  0  0  0  0  0  0
  1  2  1  1
  1 18  1  0
  1 25  1  0
  2  3  1  0
  4  3  1  1
  4  5  1  0
  5  6  1  6
  5 15  1  0
  6  7  1  0
  7  8  2  0
  8  9  1  0
 10  9  1  0
 10 11  1  0
 10 20  1  1
 11 12  1  0
 13 12  1  0
 13  8  1  0
 13 14  1  1
 15 13  1  0
 15 16  1  1
 16 17  1  0
 18 17  1  0
 18  4  1  0
 18 19  1  1
 20 21  1  0
 21 22  1  0
 21 23  2  0
 21 24  2  0
 25 26  1  6
 25 27  1  0
 27 28  1  0
 28 29  1  0
 29 30  1  0
 30 31  1  0
 30 32  1  0
 30 33  1  0
M  END
>  <DRUGBANK_ID>  (1) 
DB18079

>  <COMMON_NAME>  (1) 
Larsucosterol

>  <CAS_NUMBER>  (1) 
884905-07-1

>  <UNII>  (1) 
UGX2V7MGMZ

>  <SYNONYMS>  (1) 
25-hydroxycholest-5-en-3.beta.-yl hydrogen sulfate; 5-cholesten-3.beta.-25-diol-3-sulfate; 5-cholesten-3.beta., 25-diol 3-sulfate; Cholest-5-ene-3,25-diol, 3-(hydrogen sulfate), (3.beta.)-

$$$$
