
     RDKit          2D

 29 31  0  0  0  0  0  0  0  0999 V2000
    3.7162    1.0145    0.0000 Cl  0  0  0  0  0  0  0  0  0  0  0  0
    3.3000    1.7355    0.0000 C   0  0  0  0  0  0  0  0  0  0  0  0
    3.7162    2.4490    0.0000 C   0  0  0  0  0  0  0  0  0  0  0  0
    3.3000    3.1625    0.0000 C   0  0  0  0  0  0  0  0  0  0  0  0
    2.4750    3.1625    0.0000 C   0  0  0  0  0  0  0  0  0  0  0  0
    2.0661    2.4490    0.0000 C   0  0  0  0  0  0  0  0  0  0  0  0
    2.4750    1.7355    0.0000 C   0  0  0  0  0  0  0  0  0  0  0  0
    1.2412    2.4490    0.0000 C   0  0  0  0  0  0  0  0  0  0  0  0
    0.4161    2.4490    0.0000 C   0  0  0  0  0  0  0  0  0  0  0  0
    0.0000    1.7355    0.0000 N   0  0  0  0  0  0  0  0  0  0  0  0
   -0.8249    1.7355    0.0000 C   0  0  0  0  0  0  0  0  0  0  0  0
   -1.2412    1.0145    0.0000 C   0  0  0  0  0  0  0  0  0  0  0  0
   -2.0661    1.0145    0.0000 N   0  0  0  0  0  0  0  0  0  0  0  0
   -2.4750    0.3010    0.0000 C   0  0  0  0  0  0  0  0  0  0  0  0
   -3.3000    0.3010    0.0000 C   0  0  0  0  0  0  0  0  0  0  0  0
   -3.7162   -0.4125    0.0000 C   0  0  0  0  0  0  0  0  0  0  0  0
   -3.3000   -1.1260    0.0000 C   0  0  0  0  0  0  0  0  0  0  0  0
   -2.4750   -1.1260    0.0000 C   0  0  0  0  0  0  0  0  0  0  0  0
   -2.0661   -0.4125    0.0000 C   0  0  0  0  0  0  0  0  0  0  0  0
   -2.0661   -1.8470    0.0000 C   0  0  0  0  0  0  0  0  0  0  0  0
   -2.4750   -2.5605    0.0000 C   0  0  0  0  0  0  0  0  0  0  0  0
   -2.0661   -3.2740    0.0000 C   0  0  0  0  0  0  0  0  0  0  0  0
   -1.2412   -3.2740    0.0000 C   0  0  0  0  0  0  0  0  0  0  0  0
   -0.8249   -2.5605    0.0000 C   0  0  0  0  0  0  0  0  0  0  0  0
   -1.2412   -1.8470    0.0000 C   0  0  0  0  0  0  0  0  0  0  0  0
    0.0000   -2.5605    0.0000 C   0  0  0  0  0  0  0  0  0  0  0  0
    0.4161   -3.2740    0.0000 O   0  0  0  0  0  0  0  0  0  0  0  0
    0.4161   -1.8470    0.0000 O   0  0  0  0  0  0  0  0  0  0  0  0
    1.2412    1.6240    0.0000 O   0  0  0  0  0  0  0  0  0  0  0  0
  1  2  1  0
  2  3  2  0
  2  7  1  0
  3  4  1  0
  4  5  2  0
  5  6  1  0
  6  7  2  0
  6  8  1  0
  8  9  1  0
  8 29  1  6
  9 10  1  0
 10 11  1  0
 11 12  1  0
 12 13  1  0
 13 14  1  0
 14 15  2  0
 14 19  1  0
 15 16  1  0
 16 17  2  0
 17 18  1  0
 18 19  2  0
 18 20  1  0
 20 21  2  0
 20 25  1  0
 21 22  1  0
 22 23  2  0
 23 24  1  0
 24 25  2  0
 24 26  1  0
 26 27  2  0
 26 28  1  0
M  END
>  <DRUGBANK_ID>  (1) 
DB06190

>  <COMMON_NAME>  (1) 
Solabegron

>  <CAS_NUMBER>  (1) 
252920-94-8

>  <UNII>  (1) 
55P6YH9O6N

>  <SYNONYMS>  (1) 
Solabegron

$$$$
