HPO
     RDKit          2D

 12 11  0  0  0  0  0  0  0  0999 V2000
   -2.7577   -0.1638    0.0000 C   0  0  0  0  0  0  0  0  0  0  0  0
   -2.0433    0.2487    0.0000 C   0  0  0  0  0  0  0  0  0  0  0  0
   -1.3287   -0.1638    0.0000 C   0  0  0  0  0  0  0  0  0  0  0  0
   -0.6141    0.2487    0.0000 C   0  0  0  0  0  0  0  0  0  0  0  0
    0.1004   -0.1638    0.0000 C   0  0  0  0  0  0  0  0  0  0  0  0
    0.8149    0.2487    0.0000 C   0  0  0  0  0  0  0  0  0  0  0  0
    1.5294   -0.1638    0.0000 C   0  0  0  0  0  0  0  0  0  0  0  0
    0.8149    1.0738    0.0000 O   0  0  0  0  0  0  0  0  0  0  0  0
    2.2440    0.2487    0.0000 P   0  0  0  0  0  0  0  0  0  0  0  0
    2.9584    0.6612    0.0000 O   0  0  0  0  0  0  0  0  0  0  0  0
    2.6565   -0.4658    0.0000 O   0  0  0  0  0  0  0  0  0  0  0  0
    1.8314    0.9632    0.0000 O   0  0  0  0  0  0  0  0  0  0  0  0
  1  2  1  0
  2  3  1  0
  3  4  1  0
  4  5  1  0
  5  6  1  0
  6  7  1  0
  6  8  2  0
  7  9  1  0
  9 10  2  0
  9 11  1  0
  9 12  1  0
M  END
>  <DRUGBANK_ID>  (1) 
DB07912

>  <COMMON_NAME>  (1) 
2-OXOHEPTYLPHOSPHONIC ACID

>  <UNII>  (1) 
E9NR6YG6JA

$$$$
