THN
     RDKit          2D

 23 24  0  0  0  0  0  0  0  0999 V2000
   -1.7652    0.4533    0.0000 S   0  0  0  0  0  0  0  0  0  0  0  0
   -2.1777    1.1678    0.0000 C   0  0  0  0  0  0  0  0  0  0  0  0
   -1.7652    1.8823    0.0000 C   0  0  0  0  0  0  0  0  0  0  0  0
   -2.1777    2.5968    0.0000 C   0  0  0  0  0  0  0  0  0  0  0  0
   -0.9402    1.8823    0.0000 C   0  0  0  0  0  0  0  0  0  0  0  0
   -0.5277    2.5968    0.0000 C   0  0  0  0  0  0  0  0  0  0  0  0
    0.2973    2.5968    0.0000 O   0  0  0  0  0  0  0  0  0  0  0  0
   -0.9402    3.3112    0.0000 O   0  0  0  0  0  0  0  0  0  0  0  0
   -0.5277    1.1678    0.0000 N   0  0  0  0  0  0  0  0  0  0  0  0
   -0.9402    0.4533    0.0000 C   0  0  0  0  0  0  0  0  0  0  0  0
   -0.5277   -0.2611    0.0000 C   0  0  0  0  0  0  0  0  0  0  0  0
   -0.9402   -0.9756    0.0000 C   0  0  0  0  0  0  0  0  0  0  0  0
   -0.5277   -1.6901    0.0000 O   0  0  0  0  0  0  0  0  0  0  0  0
   -1.7652   -0.9756    0.0000 O   0  0  0  0  0  0  0  0  0  0  0  0
    0.2973   -0.2611    0.0000 N   0  0  0  0  0  0  0  0  0  0  0  0
    0.7098   -0.9756    0.0000 C   0  0  0  0  0  0  0  0  0  0  0  0
    0.2973   -1.6901    0.0000 O   0  0  0  0  0  0  0  0  0  0  0  0
    1.5348   -0.9756    0.0000 C   0  0  0  0  0  0  0  0  0  0  0  0
    1.9473   -1.6901    0.0000 C   0  0  0  0  0  0  0  0  0  0  0  0
    2.7678   -1.7763    0.0000 C   0  0  0  0  0  0  0  0  0  0  0  0
    2.9393   -2.5833    0.0000 C   0  0  0  0  0  0  0  0  0  0  0  0
    2.2249   -2.9958    0.0000 C   0  0  0  0  0  0  0  0  0  0  0  0
    1.6118   -2.4437    0.0000 S   0  0  0  0  0  0  0  0  0  0  0  0
  1  2  1  0
  1 10  1  0
  2  3  1  0
  3  4  2  0
  3  5  1  0
  5  6  1  1
  5  9  1  0
  6  7  1  0
  6  8  2  0
  9 10  2  0
 10 11  1  0
 11 12  1  0
 11 15  1  6
 12 13  2  0
 12 14  1  0
 15 16  1  0
 16 17  2  0
 16 18  1  0
 18 19  1  0
 19 20  2  0
 19 23  1  0
 20 21  1  0
 21 22  2  0
 22 23  1  0
M  END
>  <DRUGBANK_ID>  (1) 
DB08623

>  <COMMON_NAME>  (1) 
2-[CARBOXY-(2-THIOPHEN-2-YL-ACETYLAMINO)-METHYL]-5-METHYLENE-5,6-DIHYDRO-2H-[1,3]THIAZINE-4-CARBOXYLIC ACID

$$$$
