
     RDKit          2D

 20 19  0  0  1  0  0  0  0  0999 V2000
   11.1888   -2.3349    0.0000 C   0  0  0  0  0  0  0  0  0  0  0  0
   10.4743   -2.7474    0.0000 C   0  0  0  0  0  0  0  0  0  0  0  0
    9.7599   -2.3349    0.0000 N   0  0  0  0  0  0  0  0  0  0  0  0
   10.4743   -3.5724    0.0000 C   0  0  0  0  0  0  0  0  0  0  0  0
    9.7599   -3.9849    0.0000 C   0  0  0  0  0  0  0  0  0  0  0  0
    9.0454   -3.5724    0.0000 C   0  0  0  0  0  0  0  0  0  0  0  0
    8.3309   -3.9849    0.0000 C   0  0  0  0  0  0  0  0  0  0  0  0
    7.6164   -3.5724    0.0000 C   0  0  0  0  0  0  0  0  0  0  0  0
    6.9020   -3.9849    0.0000 C   0  0  0  0  0  0  0  0  0  0  0  0
    6.1875   -3.5724    0.0000 C   0  0  0  0  0  0  0  0  0  0  0  0
    5.4730   -3.9849    0.0000 O   0  0  0  0  0  0  0  0  0  0  0  0
    6.1875   -2.7474    0.0000 O   0  0  0  0  0  0  0  0  0  0  0  0
   11.1888   -3.9849    0.0000 N   0  0  0  0  0  0  0  0  0  0  0  0
   11.9033   -3.5724    0.0000 C   0  0  0  0  0  0  0  0  0  0  0  0
   11.9033   -2.7474    0.0000 O   0  0  0  0  0  0  0  0  0  0  0  0
   12.6177   -3.9849    0.0000 O   0  0  0  0  0  0  0  0  0  0  0  0
   13.3322   -3.5724    0.0000 P   0  0  0  0  0  0  0  0  0  0  0  0
   14.0467   -3.1599    0.0000 O   0  0  0  0  0  0  0  0  0  0  0  0
   13.7447   -4.2868    0.0000 O   0  0  0  0  0  0  0  0  0  0  0  0
   12.9197   -2.8579    0.0000 O   0  0  0  0  0  0  0  0  0  0  0  0
  2  1  1  1
  2  3  1  0
  2  4  1  0
  4  5  1  6
  4 13  1  0
  5  6  1  0
  6  7  1  0
  7  8  1  0
  8  9  1  0
  9 10  1  0
 10 11  1  0
 10 12  2  0
 13 14  1  0
 14 15  2  0
 14 16  1  0
 16 17  1  0
 17 18  1  0
 17 19  1  0
 17 20  2  0
M  END
>  <DRUGBANK_ID>  (1) 
DB02927

>  <SECONDARY_ACCESSION_NUMBERS>  (1) 
EXPT01262

>  <COMMON_NAME>  (1) 
Mixed Carbamic Phosphoric Acid Anhydride of 7,8-Diaminononanic Acid

$$$$
