SCJ
     RDKit          2D

 24 27  0  0  0  0  0  0  0  0999 V2000
   -2.2438    1.0631    0.0000 C   0  0  0  0  0  0  0  0  0  0  0  0
   -1.4591    0.8082    0.0000 C   0  0  0  0  0  0  0  0  0  0  0  0
   -1.4591   -0.0168    0.0000 N   0  0  0  0  0  0  0  0  0  0  0  0
   -2.2438   -0.2718    0.0000 N   0  0  0  0  0  0  0  0  0  0  0  0
   -2.7287    0.3957    0.0000 C   0  0  0  0  0  0  0  0  0  0  0  0
   -0.7447    1.2207    0.0000 N   0  0  0  0  0  0  0  0  0  0  0  0
   -0.0302    0.8082    0.0000 C   0  0  0  0  0  0  0  0  0  0  0  0
   -0.0302   -0.0168    0.0000 C   0  0  0  0  0  0  0  0  0  0  0  0
   -0.7447   -0.4293    0.0000 C   0  0  0  0  0  0  0  0  0  0  0  0
   -0.7447   -1.2543    0.0000 N   0  0  0  0  0  0  0  0  0  0  0  0
    0.6843    1.2207    0.0000 C   0  0  0  0  0  0  0  0  0  0  0  0
   -1.4591   -1.6668    0.0000 C   0  0  0  0  0  0  0  0  0  0  0  0
   -1.4591   -2.4918    0.0000 C   0  0  0  0  0  0  0  0  0  0  0  0
   -0.7447   -2.9043    0.0000 C   0  0  0  0  0  0  0  0  0  0  0  0
   -0.7447   -3.7293    0.0000 N   0  0  0  0  0  0  0  0  0  0  0  0
   -1.4591   -4.1418    0.0000 C   0  0  0  0  0  0  0  0  0  0  0  0
   -2.1736   -3.7293    0.0000 C   0  0  0  0  0  0  0  0  0  0  0  0
   -2.1736   -2.9043    0.0000 C   0  0  0  0  0  0  0  0  0  0  0  0
    0.6843    2.0457    0.0000 C   0  0  0  0  0  0  0  0  0  0  0  0
    1.3988    2.4582    0.0000 C   0  0  0  0  0  0  0  0  0  0  0  0
    2.1132    2.0457    0.0000 C   0  0  0  0  0  0  0  0  0  0  0  0
    2.1132    1.2207    0.0000 C   0  0  0  0  0  0  0  0  0  0  0  0
    1.3988    0.8082    0.0000 C   0  0  0  0  0  0  0  0  0  0  0  0
   -2.4987    1.8477    0.0000 Br  0  0  0  0  0  0  0  0  0  0  0  0
  1  2  2  0
  1 24  1  0
  2  6  1  0
  3  9  1  0
  3  2  1  0
  4  5  2  0
  4  3  1  0
  5  1  1  0
  6  7  2  0
  7 11  1  0
  8  7  1  0
  9  8  2  0
 10 12  1  0
 10  9  1  0
 11 19  2  0
 13 14  2  0
 13 12  1  0
 15 14  1  0
 16 15  2  0
 17 16  1  0
 17 18  2  0
 18 13  1  0
 19 20  1  0
 21 20  2  0
 22 21  1  0
 23 11  1  0
 23 22  2  0
M  END
>  <DRUGBANK_ID>  (1) 
DB08535

>  <COMMON_NAME>  (1) 
3-bromo-5-phenyl-N-(pyridin-3-ylmethyl)pyrazolo[1,5-a]pyrimidin-7-amine

$$$$
