
     RDKit          2D

  9  6  0  0  0  0  0  0  0  0999 V2000
   -1.1197    0.0000    0.0000 C   0  0  0  0  0  0  0  0  0  0  0  0
   -0.7072   -0.7145    0.0000 C   0  0  0  0  0  0  0  0  0  0  0  0
   -0.7072    0.7145    0.0000 O   0  0  0  0  0  0  0  0  0  0  0  0
   -1.9447    0.0000    0.0000 O   0  0  0  0  0  0  0  0  0  0  0  0
    2.3573    0.0000    0.0000 C   0  0  0  0  0  0  0  0  0  0  0  0
    2.7698    0.7145    0.0000 C   0  0  0  0  0  0  0  0  0  0  0  0
    2.7698   -0.7145    0.0000 O   0  0  0  0  0  0  0  0  0  0  0  0
    1.5322    0.0000    0.0000 O   0  0  0  0  0  0  0  0  0  0  0  0
   -2.7698    0.0000    0.0000 Mg  0  0  0  0  0 15  0  0  0  0  0  0
  1  2  1  0
  1  3  2  0
  1  4  1  0
  5  6  1  0
  5  7  2  0
  5  8  1  0
M  CHG  3   4  -1   8  -1   9   2
M  END
>  <DRUGBANK_ID>  (1) 
DB13996

>  <SECONDARY_ACCESSION_NUMBERS>  (1) 
DBSALT001426

>  <COMMON_NAME>  (1) 
Magnesium acetate

>  <CAS_NUMBER>  (1) 
142-72-3

>  <UNII>  (1) 
0E95JZY48K

>  <SYNONYMS>  (1) 
acetato de magnesio; acetic acid magnesium salt; Acetic acid, magnesium salt (2:1); Magnesium di(acetate); magnesium diacetate; Mg(II) acetate

$$$$
