
     RDKit          2D

 23 26  0  0  0  0  0  0  0  0999 V2000
   -0.1830    0.6261    0.0000 C   0  0  0  0  0  0  0  0  0  0  0  0
    0.5313   -1.4363    0.0000 C   0  0  0  0  0  0  0  0  0  0  0  0
   -0.8975   -1.4363    0.0000 C   0  0  0  0  0  0  0  0  0  0  0  0
   -1.6120   -0.1988    0.0000 C   0  0  0  0  0  0  0  0  0  0  0  0
    0.5313    1.0386    0.0000 C   0  0  0  0  0  0  0  0  0  0  0  0
    2.0305   -0.4537    0.0000 C   0  0  0  0  0  0  0  0  0  0  0  0
   -0.1830   -1.8488    0.0000 C   0  0  0  0  0  0  0  0  0  0  0  0
   -1.6120   -1.8488    0.0000 C   0  0  0  0  0  0  0  0  0  0  0  0
   -2.3264   -0.6113    0.0000 C   0  0  0  0  0  0  0  0  0  0  0  0
    2.5155    0.2136    0.0000 C   0  0  0  0  0  0  0  0  0  0  0  0
   -2.3264   -1.4363    0.0000 C   0  0  0  0  0  0  0  0  0  0  0  0
   -3.0409   -1.8488    0.0000 O   0  0  0  0  0  0  0  0  0  0  0  0
   -0.1830   -0.1988    0.0000 C   0  0  0  0  0  0  0  0  0  0  0  0
    1.2458   -0.1988    0.0000 C   0  0  0  0  0  0  0  0  0  0  0  0
    0.5313   -0.6113    0.0000 C   0  0  0  0  0  0  0  0  0  0  0  0
   -0.8975   -0.6113    0.0000 C   0  0  0  0  0  0  0  0  0  0  0  0
   -0.8975    0.2136    0.0000 C   0  0  0  0  0  0  0  0  0  0  0  0
    1.2458    0.6261    0.0000 C   0  0  0  0  0  0  0  0  0  0  0  0
    1.2458    1.4511    0.0000 C   0  0  0  0  0  0  0  0  0  0  0  0
    2.0305    0.8811    0.0000 C   0  0  0  0  0  0  0  0  0  0  0  0
    3.0408    1.8915    0.0000 C   0  0  0  0  0  0  0  0  0  0  0  0
    2.2441    1.6779    0.0000 C   0  0  0  0  0  0  0  0  0  0  0  0
    1.6606    2.2613    0.0000 O   0  0  0  0  0  0  0  0  0  0  0  0
  1  5  1  0
  2  7  1  0
  3  8  1  6
  3  7  1  0
  4  9  1  0
  5 18  1  0
  6 10  1  0
  8 11  1  0
  9 11  1  0
 11 12  2  0
 13 15  1  0
 13 16  1  0
 13  1  1  1
 14 18  1  0
 14  6  1  1
 15 14  1  0
 15  2  1  6
 16  3  1  0
 16  4  1  0
 16 17  1  1
 18 20  1  0
 18 19  1  1
 20 10  1  0
 20 22  1  1
 22 21  1  0
 22 23  2  0
M  END
>  <DRUGBANK_ID>  (1) 
DB07557

>  <COMMON_NAME>  (1) 
3,20-Pregnanedione

>  <CAS_NUMBER>  (1) 
128-23-4

>  <UNII>  (1) 
105J2Q45A0

>  <SYNONYMS>  (1) 
5beta-pregnane-3,20-dione; 5Î²-pregnane-3,20-dione

$$$$
