AO2
     RDKit          2D

 22 23  0  0  0  0  0  0  0  0999 V2000
   -3.2138   -0.4254    0.0000 C   0  0  0  0  0  0  0  0  0  0  0  0
   -3.9283   -0.0129    0.0000 C   0  0  0  0  0  0  0  0  0  0  0  0
   -3.9283    0.8121    0.0000 C   0  0  0  0  0  0  0  0  0  0  0  0
   -3.2138    1.2246    0.0000 C   0  0  0  0  0  0  0  0  0  0  0  0
   -2.4994    0.8121    0.0000 C   0  0  0  0  0  0  0  0  0  0  0  0
   -2.4994   -0.0129    0.0000 C   0  0  0  0  0  0  0  0  0  0  0  0
   -1.7849   -0.4254    0.0000 C   0  0  0  0  0  0  0  0  0  0  0  0
   -1.0704   -0.0129    0.0000 C   0  0  0  0  0  0  0  0  0  0  0  0
   -1.0704    0.8121    0.0000 N   0  0  0  0  0  0  0  0  0  0  0  0
   -0.3560   -0.4254    0.0000 C   0  0  0  0  0  0  0  0  0  0  0  0
   -0.3560   -1.2504    0.0000 O   0  0  0  0  0  0  0  0  0  0  0  0
    0.3585   -0.0129    0.0000 C   0  0  0  0  0  0  0  0  0  0  0  0
    0.3585    0.8121    0.0000 O   0  0  0  0  0  0  0  0  0  0  0  0
    1.0730   -0.4254    0.0000 N   0  0  0  0  0  0  0  0  0  0  0  0
    1.7875   -0.0129    0.0000 N   0  0  0  0  0  0  0  0  0  0  0  0
    2.5019   -0.4254    0.0000 C   0  0  0  0  0  0  0  0  0  0  0  0
    3.2164   -0.0129    0.0000 C   0  0  0  0  0  0  0  0  0  0  0  0
    3.9309   -0.4254    0.0000 C   0  0  0  0  0  0  0  0  0  0  0  0
    3.9309   -1.2504    0.0000 C   0  0  0  0  0  0  0  0  0  0  0  0
    3.2164   -1.6629    0.0000 C   0  0  0  0  0  0  0  0  0  0  0  0
    2.5019   -1.2504    0.0000 C   0  0  0  0  0  0  0  0  0  0  0  0
    4.6453   -1.6629    0.0000 C   0  0  0  0  0  0  0  0  0  0  0  0
  1  2  1  0
  1  6  1  0
  2  3  1  0
  3  4  1  0
  4  5  1  0
  5  6  1  0
  6  7  1  0
  7  8  1  0
  8  9  1  1
  8 10  1  0
 10 11  1  1
 10 12  1  0
 12 13  2  0
 12 14  1  0
 14 15  1  0
 15 16  1  0
 16 17  2  0
 16 21  1  0
 17 18  1  0
 18 19  2  0
 19 20  1  0
 19 22  1  0
 20 21  2  0
M  END
>  <DRUGBANK_ID>  (1) 
DB03086

>  <SECONDARY_ACCESSION_NUMBERS>  (1) 
EXPT00527

>  <COMMON_NAME>  (1) 
N'-(2s,3r)-3-Amino-4-Cyclohexyl-2-Hydroxy-Butano-N-(4-Methylphenyl)Hydrazide

$$$$
