
     RDKit          2D

 24 26  0  0  0  0  0  0  0  0999 V2000
    4.2868    4.1250    0.0000 C   0  0  0  0  0  0  0  0  0  0  0  0
    4.2868    4.9500    0.0000 C   0  0  0  0  0  0  0  0  0  0  0  0
   -0.7145    2.8875    0.0000 C   0  0  0  0  0  0  0  0  0  0  0  0
   -1.4289    2.4750    0.0000 C   0  0  0  0  0  0  0  0  0  0  0  0
    3.5724    3.7125    0.0000 C   0  0  0  0  0  0  0  0  0  0  0  0
   -3.5724    2.8875    0.0000 C   0  0  0  0  0  0  0  0  0  0  0  0
   -2.8579    1.6500    0.0000 C   0  0  0  0  0  0  0  0  0  0  0  0
   -4.2868    2.4750    0.0000 C   0  0  0  0  0  0  0  0  0  0  0  0
   -3.5724    1.2375    0.0000 C   0  0  0  0  0  0  0  0  0  0  0  0
    3.5724    5.3625    0.0000 C   0  0  0  0  0  0  0  0  0  0  0  0
    0.0000    2.4750    0.0000 C   0  0  0  0  0  0  0  0  0  0  0  0
    1.4289    2.4750    0.0000 C   0  0  0  0  0  0  0  0  0  0  0  0
    0.7145    3.7125    0.0000 C   0  0  0  0  0  0  0  0  0  0  0  0
    2.1434    2.8875    0.0000 C   0  0  0  0  0  0  0  0  0  0  0  0
    1.4289    4.1250    0.0000 C   0  0  0  0  0  0  0  0  0  0  0  0
   -2.8579    2.4750    0.0000 C   0  0  0  0  0  0  0  0  0  0  0  0
   -4.2868    1.6500    0.0000 C   0  0  0  0  0  0  0  0  0  0  0  0
   -2.1434    2.8875    0.0000 C   0  0  0  0  0  0  0  0  0  0  0  0
    2.8579    4.1250    0.0000 C   0  0  0  0  0  0  0  0  0  0  0  0
   -5.0013    1.2375    0.0000 F   0  0  0  0  0  0  0  0  0  0  0  0
    2.8579    4.9500    0.0000 N   0  0  0  0  0  0  0  0  0  0  0  0
    0.7145    2.8875    0.0000 N   0  0  0  0  0  0  0  0  0  0  0  0
    2.1434    3.7125    0.0000 N   0  0  0  0  0  0  0  0  0  0  0  0
   -2.1434    3.7125    0.0000 O   0  0  0  0  0  0  0  0  0  0  0  0
  2  1  2  0
  4  3  1  0
  5  1  1  0
  8  6  2  0
  9  7  1  0
 10  2  1  0
 11  3  1  0
 14 12  1  0
 15 13  1  0
 16  6  1  0
 16  7  2  0
 17  8  1  0
 17  9  2  0
 18  4  1  0
 18 16  1  0
 19  5  2  0
 20 17  1  0
 21 10  2  0
 21 19  1  0
 22 11  1  0
 22 12  1  0
 22 13  1  0
 23 14  1  0
 23 15  1  0
 23 19  1  0
 24 18  2  0
M  END
>  <DRUGBANK_ID>  (1) 
DB11376

>  <COMMON_NAME>  (1) 
Azaperone

>  <CAS_NUMBER>  (1) 
1649-18-9

>  <UNII>  (1) 
19BV78AK7W

>  <SYNONYMS>  (1) 
1-(3-(4-Fluorobenzoyl)propyl)-4-(2-pyridyl)piperazine; 1-(4-Fluorophenyl)-4-[4-(2-pyridinyl)-1-piperazinyl]-1-butanone; 4'-Fluoro-4-(4-(2-pyridyl)-1-piperazinyl)butyrophenone; Azaperon; Azaperona; Azaperone; Azaperonum

$$$$
