PFQ
     RDKit          2D

 25 28  0  0  0  0  0  0  0  0999 V2000
    2.7075   -1.6298    0.0000 C   0  0  0  0  0  0  0  0  0  0  0  0
    0.0090   -1.2173    0.0000 C   0  0  0  0  0  0  0  0  0  0  0  0
   -0.8160   -1.2173    0.0000 C   0  0  0  0  0  0  0  0  0  0  0  0
   -1.2285   -1.9318    0.0000 C   0  0  0  0  0  0  0  0  0  0  0  0
   -2.0535   -1.9318    0.0000 C   0  0  0  0  0  0  0  0  0  0  0  0
   -2.4660   -1.2173    0.0000 C   0  0  0  0  0  0  0  0  0  0  0  0
   -2.0535   -0.5028    0.0000 C   0  0  0  0  0  0  0  0  0  0  0  0
   -1.2285   -0.5028    0.0000 C   0  0  0  0  0  0  0  0  0  0  0  0
   -0.5680    0.4063    0.0000 C   0  0  0  0  0  0  0  0  0  0  0  0
   -0.8229    1.1909    0.0000 C   0  0  0  0  0  0  0  0  0  0  0  0
   -0.2709    1.8040    0.0000 C   0  0  0  0  0  0  0  0  0  0  0  0
    0.5361    1.6325    0.0000 C   0  0  0  0  0  0  0  0  0  0  0  0
    1.9930   -2.0423    0.0000 N   0  0  0  0  0  0  0  0  0  0  0  0
    1.2785   -1.6298    0.0000 C   0  0  0  0  0  0  0  0  0  0  0  0
    0.4939   -1.8847    0.0000 O   0  0  0  0  0  0  0  0  0  0  0  0
    1.2785   -0.8048    0.0000 C   0  0  0  0  0  0  0  0  0  0  0  0
    1.9930    0.4327    0.0000 N   0  0  0  0  0  0  0  0  0  0  0  0
    1.9930   -0.3923    0.0000 C   0  0  0  0  0  0  0  0  0  0  0  0
    2.7075   -0.8048    0.0000 N   0  0  0  0  0  0  0  0  0  0  0  0
    0.7910    0.8479    0.0000 C   0  0  0  0  0  0  0  0  0  0  0  0
    0.4939   -0.5498    0.0000 C   0  0  0  0  0  0  0  0  0  0  0  0
    0.2390    0.2348    0.0000 C   0  0  0  0  0  0  0  0  0  0  0  0
    1.2785    1.6702    0.0000 C   0  0  0  0  0  0  0  0  0  0  0  0
    1.2785    0.8452    0.0000 C   0  0  0  0  0  0  0  0  0  0  0  0
    0.5641    2.0827    0.0000 O   0  0  0  0  0  0  0  0  0  0  0  0
  1 13  2  0
  1 19  1  0
  2  3  1  0
  2 15  1  0
  2 21  2  0
  3  4  2  0
  3  8  1  0
  4  5  1  0
  5  6  2  0
  6  7  1  0
  7  8  2  0
  9 10  2  0
  9 22  1  0
 10 11  1  0
 11 12  2  0
 12 20  1  0
 13 14  1  0
 14 15  1  0
 14 16  2  0
 16 18  1  0
 16 21  1  0
 17 18  1  0
 17 24  1  0
 18 19  2  0
 20 22  2  0
 21 22  1  0
 23 24  1  0
 23 25  1  0
M  END
>  <DRUGBANK_ID>  (1) 
DB08393

>  <COMMON_NAME>  (1) 
2-[(5,6-DIPHENYLFURO[2,3-D]PYRIMIDIN-4-YL)AMINO]ETHANOL

$$$$
