
     RDKit          2D

 24 24  0  0  0  0  0  0  0  0999 V2000
   -5.7157    0.8250    0.0000 C   0  0  0  0  0  0  0  0  0  0  0  0
   -5.0012    0.4125    0.0000 C   0  0  0  0  0  0  0  0  0  0  0  0
   -4.2868    0.8250    0.0000 C   0  0  0  0  0  0  0  0  0  0  0  0
   -3.5723    0.4125    0.0000 C   0  0  0  0  0  0  0  0  0  0  0  0
   -2.8578    0.8250    0.0000 C   0  0  0  0  0  0  0  0  0  0  0  0
   -2.1434    0.4125    0.0000 C   0  0  0  0  0  0  0  0  0  0  0  0
   -1.4289    0.8250    0.0000 C   0  0  0  0  0  0  0  0  0  0  0  0
   -0.7144    0.4125    0.0000 C   0  0  0  0  0  0  0  0  0  0  0  0
    0.0000    0.8250    0.0000 C   0  0  0  0  0  0  0  0  0  0  0  0
    0.7144    0.4125    0.0000 C   0  0  0  0  0  0  0  0  0  0  0  0
    1.4289    0.8250    0.0000 C   0  0  0  0  0  0  0  0  0  0  0  0
    2.1434    0.4125    0.0000 C   0  0  0  0  0  0  0  0  0  0  0  0
    2.8578    0.8250    0.0000 O   0  0  0  0  0  0  0  0  0  0  0  0
    3.5723    0.4125    0.0000 C   0  0  0  0  0  0  0  0  0  0  0  0
    4.2868    0.8250    0.0000 O   0  0  0  0  0  0  0  0  0  0  0  0
    5.0012    0.4125    0.0000 C   0  0  0  0  0  0  0  0  0  0  0  0
    5.7157    0.8250    0.0000 C   0  0  0  0  0  0  0  0  0  0  0  0
    5.7157    1.6500    0.0000 O   0  0  0  0  0  0  0  0  0  0  0  0
    5.0012   -0.4125    0.0000 C   0  0  0  0  0  0  0  0  0  0  0  0
    5.7157   -0.8250    0.0000 O   0  0  0  0  0  0  0  0  0  0  0  0
    4.2868   -0.8250    0.0000 C   0  0  0  0  0  0  0  0  0  0  0  0
    4.2868   -1.6500    0.0000 O   0  0  0  0  0  0  0  0  0  0  0  0
    3.5723   -0.4125    0.0000 C   0  0  0  0  0  0  0  0  0  0  0  0
    2.8578   -0.8250    0.0000 O   0  0  0  0  0  0  0  0  0  0  0  0
  1  2  1  0
  2  3  1  0
  3  4  1  0
  4  5  1  0
  5  6  1  0
  6  7  1  0
  7  8  1  0
  8  9  1  0
  9 10  1  0
 10 11  1  0
 11 12  1  0
 12 13  1  0
 13 14  1  0
 14 15  1  0
 16 15  1  0
 16 17  1  6
 17 18  1  0
 19 16  1  0
 19 20  1  1
 19 21  1  0
 21 22  1  6
 21 23  1  0
 23 14  1  0
 23 24  1  1
M  END
>  <DRUGBANK_ID>  (1) 
DB14746

>  <COMMON_NAME>  (1) 
Lauryl glucoside

>  <CAS_NUMBER>  (1) 
27836-64-2

>  <UNII>  (1) 
76LN7P7UCU

>  <SYNONYMS>  (1) 
Dodecyl D-glucopyranoside; Dodecyl D-glucoside

$$$$
