
     RDKit          2D

 25 27  0  0  1  0  0  0  0  0999 V2000
   12.1808    6.5281    0.0000 C   0  0  0  0  0  0  0  0  0  0  0  0
    7.1795    5.2906    0.0000 C   0  0  0  0  0  0  0  0  0  0  0  0
   17.5819    6.6951    0.0000 C   0  0  0  0  0  0  0  0  0  0  0  0
   17.1694    7.4095    0.0000 C   0  0  0  0  0  0  0  0  0  0  0  0
    9.3229    5.7031    0.0000 C   0  0  0  0  0  0  0  0  0  0  0  0
   17.1694    5.9806    0.0000 C   0  0  0  0  0  0  0  0  0  0  0  0
   16.3444    7.4095    0.0000 C   0  0  0  0  0  0  0  0  0  0  0  0
   11.4663    4.4656    0.0000 C   0  0  0  0  0  0  0  0  0  0  0  0
   12.1808    4.0531    0.0000 C   0  0  0  0  0  0  0  0  0  0  0  0
    8.6084    5.2906    0.0000 C   0  0  0  0  0  0  0  0  0  0  0  0
   10.0374    5.2906    0.0000 C   0  0  0  0  0  0  0  0  0  0  0  0
   13.6097    5.7031    0.0000 C   0  0  0  0  0  0  0  0  0  0  0  0
   12.1808    5.7031    0.0000 C   0  0  0  0  0  0  0  0  0  0  0  0
   16.3444    5.9806    0.0000 C   0  0  0  0  0  0  0  0  0  0  0  0
   15.9319    6.6951    0.0000 C   0  0  0  0  0  0  0  0  0  0  0  0
   12.8953    5.2906    0.0000 C   0  0  0  0  0  0  0  0  0  0  0  0
   11.4663    5.2906    0.0000 C   0  0  0  0  0  0  0  0  0  0  0  0
   15.0387    5.7031    0.0000 C   0  0  0  0  0  0  0  0  0  0  0  0
   12.8953    4.4656    0.0000 N   0  0  0  0  0  0  0  0  0  0  0  0
   15.7924    5.3675    0.0000 N   0  0  0  0  0  0  0  0  0  0  0  0
   15.1249    6.5235    0.0000 N   0  0  0  0  0  0  0  0  0  0  0  0
   14.3242    4.4656    0.0000 O   0  0  0  0  0  0  0  0  0  0  0  0
    7.8940    5.7031    0.0000 O   0  0  0  0  0  0  0  0  0  0  0  0
   10.7519    5.7031    0.0000 O   0  0  0  0  0  0  0  0  0  0  0  0
   14.3242    5.2906    0.0000 S   0  0  0  0  0  0  0  0  0  0  0  0
  4  3  2  0
  6  3  1  0
  7  4  1  0
  9  8  2  0
 10  5  1  0
 11  5  1  0
 13  1  1  0
 14  6  2  0
 15  7  2  0
 15 14  1  0
 16 12  1  0
 16 13  1  0
 17  8  1  0
 17 13  2  0
 19  9  1  0
 19 16  2  0
 20 14  1  0
 20 18  2  0
 21 15  1  0
 21 18  1  0
 23  2  1  0
 23 10  1  0
 24 11  1  0
 24 17  1  0
 25 12  1  0
 25 18  1  0
 25 22  2  0
M  END
>  <DRUGBANK_ID>  (1) 
DB13762

>  <COMMON_NAME>  (1) 
Dexrabeprazole

>  <CAS_NUMBER>  (1) 
177795-60-7

>  <UNII>  (1) 
65JK8810RM

>  <SYNONYMS>  (1) 
Rabeprazole, (r)-

$$$$
