
     RDKit          2D

 35 39  0  0  0  0  0  0  0  0999 V2000
   -0.6727   -1.0216    0.0000 C   0  0  0  0  0  0  0  0  0  0  0  0
   -0.6727   -0.1891    0.0000 C   0  0  0  0  0  0  0  0  0  0  0  0
   -0.6643    1.4841    0.0000 C   0  0  0  0  0  0  0  0  0  0  0  0
    0.0588    1.0637    0.0000 C   0  0  0  0  0  0  0  0  0  0  0  0
    0.0588    0.2312    0.0000 O   0  0  0  0  0  0  0  0  0  0  0  0
   -2.0601    2.2829    0.0000 O   0  0  0  0  0  0  0  0  0  0  0  0
   -1.3453    2.6950    0.0000 C   0  0  0  0  0  0  0  0  0  0  0  0
   -0.6643    2.3166    0.0000 C   0  0  0  0  0  0  0  0  0  0  0  0
   -2.0516    1.4336    0.0000 C   0  0  0  0  0  0  0  0  0  0  0  0
   -3.4980   -0.2060    0.0000 C   0  0  0  0  0  0  0  0  0  0  0  0
   -2.7748    0.1892    0.0000 C   0  0  0  0  0  0  0  0  0  0  0  0
   -2.7665    1.0132    0.0000 C   0  0  0  0  0  0  0  0  0  0  0  0
   -3.4644    1.4420    0.0000 C   0  0  0  0  0  0  0  0  0  0  0  0
   -4.1875    1.0385    0.0000 C   0  0  0  0  0  0  0  0  0  0  0  0
   -4.2043    0.2143    0.0000 C   0  0  0  0  0  0  0  0  0  0  0  0
   -2.8337   -1.4253    0.0000 N   0  0  0  0  0  0  0  0  0  0  0  0
   -3.4980   -1.0300    0.0000 C   0  0  0  0  0  0  0  0  0  0  0  0
   -4.1706   -1.4000    0.0000 C   0  0  0  0  0  0  0  0  0  0  0  0
   -4.1875   -2.1736    0.0000 C   0  0  0  0  0  0  0  0  0  0  0  0
   -3.5232   -2.5688    0.0000 N   0  0  0  0  0  0  0  0  0  0  0  0
   -2.8505   -2.1988    0.0000 C   0  0  0  0  0  0  0  0  0  0  0  0
   -1.3958   -1.4336    0.0000 C   0  0  0  0  0  0  0  0  0  0  0  0
   -1.4042   -2.2745    0.0000 C   0  0  0  0  0  0  0  0  0  0  0  0
   -0.6810   -2.6950    0.0000 C   0  0  0  0  0  0  0  0  0  0  0  0
    0.0504   -2.2745    0.0000 C   0  0  0  0  0  0  0  0  0  0  0  0
    0.0504   -1.4420    0.0000 C   0  0  0  0  0  0  0  0  0  0  0  0
   -2.1189   -2.6782    0.0000 N   0  0  0  0  0  0  0  0  0  0  0  0
    0.7651   -1.0300    0.0000 O   0  0  0  0  0  0  0  0  0  0  0  0
    1.4715   -1.4420    0.0000 C   0  0  0  0  0  0  0  0  0  0  0  0
    2.1862   -1.0300    0.0000 C   0  0  0  0  0  0  0  0  0  0  0  0
    2.9010   -1.4336    0.0000 N   0  0  0  0  0  0  0  0  0  0  0  0
    2.9935   -2.2493    0.0000 C   0  0  0  0  0  0  0  0  0  0  0  0
    3.7923   -2.4175    0.0000 C   0  0  0  0  0  0  0  0  0  0  0  0
    4.2043   -1.7028    0.0000 C   0  0  0  0  0  0  0  0  0  0  0  0
    3.6493   -1.0973    0.0000 C   0  0  0  0  0  0  0  0  0  0  0  0
  1  2  1  0
  1 22  1  0
  1 26  2  0
  2  5  1  0
  3  4  1  0
  3  8  2  0
  4  5  1  0
  6  7  1  0
  6  9  1  0
  7  8  1  0
  9 12  1  0
 10 11  1  0
 10 17  1  0
 10 15  2  0
 11 12  2  0
 12 13  1  0
 13 14  2  0
 14 15  1  0
 16 21  1  0
 16 17  2  0
 17 18  1  0
 18 19  2  0
 19 20  1  0
 20 21  2  0
 21 27  1  0
 22 23  2  0
 23 24  1  0
 23 27  1  0
 24 25  2  0
 25 26  1  0
 26 28  1  0
 28 29  1  0
 29 30  1  0
 30 31  1  0
 31 32  1  0
 31 35  1  0
 32 33  1  0
 33 34  1  0
 34 35  1  0
M  END
>  <DRUGBANK_ID>  (1) 
DB11697

>  <COMMON_NAME>  (1) 
Pacritinib

>  <CAS_NUMBER>  (1) 
937272-79-2

>  <UNII>  (1) 
G22N65IL3O

>  <SYNONYMS>  (1) 
Pacritinib; Pacritinibum

$$$$
