
     RDKit          2D

 12 11  0  0  1  0  0  0  0  0999 V2000
    4.2361   -1.0312    0.0000 O   0  0  0  0  0  0  0  0  0  0  0  0
    3.5217    1.0312    0.0000 O   0  0  0  0  0  0  0  0  0  0  0  0
    4.9504    1.0312    0.0000 O   0  0  0  0  0  0  0  0  0  0  0  0
    2.0928    0.2063    0.0000 O   0  0  0  0  0  0  0  0  0  0  0  0
    5.6650   -1.0312    0.0000 O   0  0  0  0  0  0  0  0  0  0  0  0
    7.0938   -0.2063    0.0000 O   0  0  0  0  0  0  0  0  0  0  0  0
    4.2361   -0.2063    0.0000 C   0  0  0  0  0  0  0  0  0  0  0  0
    3.5217    0.2063    0.0000 C   0  0  0  0  0  0  0  0  0  0  0  0
    4.9504    0.2063    0.0000 C   0  0  0  0  0  0  0  0  0  0  0  0
    2.8072   -0.2063    0.0000 C   0  0  0  0  0  0  0  0  0  0  0  0
    5.6650   -0.2063    0.0000 C   0  0  0  0  0  0  0  0  0  0  0  0
    6.3793    0.2063    0.0000 C   0  0  0  0  0  0  0  0  0  0  0  0
  4 10  1  0
  5 11  2  0
  6 12  1  0
  7  1  1  1
  7  8  1  0
  7  9  1  0
  8  2  1  1
  8 10  1  0
  9  3  1  6
  9 11  1  0
 11 12  1  0
M  END
>  <DRUGBANK_ID>  (1) 
DB04936

>  <COMMON_NAME>  (1) 
Tagatose

>  <CAS_NUMBER>  (1) 
87-81-0

>  <UNII>  (1) 
T7A20Y888Y

>  <SYNONYMS>  (1) 
(3S,4S,5R)-1,3,4,5,6-pentahydroxyhexan-2-one; D-lyxo-hex-2-ulose; D-lyxo-hexulose; D-tag; D-tagatose; keto-D-tagatose

$$$$
