R99
     RDKit          2D

 26 26  0  0  0  0  0  0  0  0999 V2000
   -4.0071    1.4568    0.0000 C   0  0  0  0  0  0  0  0  0  0  0  0
   -4.3349    2.2138    0.0000 O   0  0  0  0  0  0  0  0  0  0  0  0
   -4.4988    0.7943    0.0000 O   0  0  0  0  0  0  0  0  0  0  0  0
   -3.1876    1.3621    0.0000 C   0  0  0  0  0  0  0  0  0  0  0  0
   -2.8597    0.6051    0.0000 C   0  0  0  0  0  0  0  0  0  0  0  0
   -3.3515   -0.0574    0.0000 O   0  0  0  0  0  0  0  0  0  0  0  0
   -2.0402    0.5104    0.0000 C   0  0  0  0  0  0  0  0  0  0  0  0
   -1.5484    1.1729    0.0000 O   0  0  0  0  0  0  0  0  0  0  0  0
   -1.7124   -0.2466    0.0000 N   0  0  0  0  0  0  0  0  0  0  0  0
   -0.8928   -0.3413    0.0000 C   0  0  0  0  0  0  0  0  0  0  0  0
   -0.5650   -1.0983    0.0000 C   0  0  0  0  0  0  0  0  0  0  0  0
    0.2546   -1.1930    0.0000 C   0  0  0  0  0  0  0  0  0  0  0  0
    0.5824   -1.9501    0.0000 C   0  0  0  0  0  0  0  0  0  0  0  0
    1.4020   -2.0447    0.0000 C   0  0  0  0  0  0  0  0  0  0  0  0
    1.7298   -2.8018    0.0000 C   0  0  0  0  0  0  0  0  0  0  0  0
    1.2380   -3.4642    0.0000 C   0  0  0  0  0  0  0  0  0  0  0  0
    0.4185   -3.3696    0.0000 C   0  0  0  0  0  0  0  0  0  0  0  0
    0.0907   -2.6125    0.0000 C   0  0  0  0  0  0  0  0  0  0  0  0
   -0.4011    0.3212    0.0000 C   0  0  0  0  0  0  0  0  0  0  0  0
    0.4185    0.2265    0.0000 N   0  0  0  0  0  0  0  0  0  0  0  0
    0.9102    0.8890    0.0000 C   0  0  0  0  0  0  0  0  0  0  0  0
    1.7298    0.7943    0.0000 C   0  0  0  0  0  0  0  0  0  0  0  0
    2.2215    1.4568    0.0000 C   0  0  0  0  0  0  0  0  0  0  0  0
    1.8937    2.2138    0.0000 C   0  0  0  0  0  0  0  0  0  0  0  0
    3.0411    1.3621    0.0000 C   0  0  0  0  0  0  0  0  0  0  0  0
   -0.7289    1.0782    0.0000 O   0  0  0  0  0  0  0  0  0  0  0  0
  1  2  2  0
  1  3  1  0
  1  4  1  0
  4  5  1  0
  5  6  1  1
  5  7  1  0
  7  8  2  0
  7  9  1  0
 10  9  1  0
 10 11  1  1
 10 19  1  0
 11 12  1  0
 12 13  1  0
 13 14  2  0
 13 18  1  0
 14 15  1  0
 15 16  2  0
 16 17  1  0
 17 18  2  0
 19 20  1  0
 19 26  2  0
 20 21  1  0
 21 22  1  0
 22 23  1  0
 23 24  1  0
 23 25  1  0
M  END
>  <DRUGBANK_ID>  (1) 
DB03573

>  <SECONDARY_ACCESSION_NUMBERS>  (1) 
EXPT02751

>  <COMMON_NAME>  (1) 
WRR-99

$$$$
