
     RDKit          2D

 30 32  0  0  1  0  0  0  0  0999 V2000
    0.0992   -1.0091    0.0000 C   0  0  0  0  0  0  0  0  0  0  0  0
    1.1387   -2.0486    0.0000 C   0  0  0  0  0  0  0  0  0  0  0  0
    3.3523    1.1104    0.0000 C   0  0  0  0  0  0  0  0  0  0  0  0
    0.6538    1.5229    0.0000 C   0  0  0  0  0  0  0  0  0  0  0  0
    0.8838   -1.2640    0.0000 C   0  0  0  0  0  0  0  0  0  0  0  0
    0.0992   -0.1841    0.0000 C   0  0  0  0  0  0  0  0  0  0  0  0
    1.9233    1.9354    0.0000 C   0  0  0  0  0  0  0  0  0  0  0  0
    2.6378    2.3479    0.0000 C   0  0  0  0  0  0  0  0  0  0  0  0
    1.9233    1.1104    0.0000 C   0  0  0  0  0  0  0  0  0  0  0  0
    0.8838    0.0709    0.0000 C   0  0  0  0  0  0  0  0  0  0  0  0
    2.6378    3.1729    0.0000 N   0  0  0  0  0  0  0  0  0  0  0  0
    3.3523    1.9354    0.0000 N   0  0  0  0  0  0  0  0  0  0  0  0
    2.6378    0.6979    0.0000 N   0  0  0  0  0  0  0  0  0  0  0  0
    1.1387    2.1904    0.0000 N   0  0  0  0  0  0  0  0  0  0  0  0
    1.1387    0.8555    0.0000 N   0  0  0  0  0  0  0  0  0  0  0  0
   -0.5683    0.3009    0.0000 O   0  0  0  0  0  0  0  0  0  0  0  0
    0.5024   -7.0264    0.0000 O   0  0  0  0  0  0  0  0  0  0  0  0
   -0.5372   -6.4967    0.0000 O   0  0  0  0  0  0  0  0  0  0  0  0
    1.0321   -5.9868    0.0000 O   0  0  0  0  0  0  0  0  0  0  0  0
    0.0570   -3.7013    0.0000 O   0  0  0  0  0  0  0  0  0  0  0  0
    1.6262   -3.1914    0.0000 O   0  0  0  0  0  0  0  0  0  0  0  0
   -0.0686   -4.2920    0.0000 O   0  0  0  0  0  0  0  0  0  0  0  0
    1.1576   -5.3961    0.0000 O   0  0  0  0  0  0  0  0  0  0  0  0
    0.5867   -2.6617    0.0000 O   0  0  0  0  0  0  0  0  0  0  0  0
    1.3687   -0.5966    0.0000 O   0  0  0  0  0  0  0  0  0  0  0  0
   -0.0075   -5.4571    0.0000 O   0  0  0  0  0  0  0  0  0  0  0  0
    1.0966   -4.2310    0.0000 O   0  0  0  0  0  0  0  0  0  0  0  0
    0.2474   -6.2418    0.0000 P   0  0  0  0  0  0  0  0  0  0  0  0
    0.8416   -3.4463    0.0000 P   0  0  0  0  0  0  0  0  0  0  0  0
    0.5445   -4.8441    0.0000 P   0  0  0  0  0  0  0  0  0  0  0  0
  5  1  1  0
  5  2  1  6
  6  1  1  0
  6 16  1  1
  8  7  2  0
  9  7  1  0
 10  6  1  0
 10 15  1  6
 11  8  1  0
 12  3  2  0
 12  8  1  0
 13  3  1  0
 13  9  2  0
 14  4  2  0
 14  7  1  0
 15  4  1  0
 15  9  1  0
 24  2  1  0
 25  5  1  0
 25 10  1  0
 28 17  1  0
 28 18  1  0
 28 19  2  0
 28 26  1  0
 29 20  1  0
 29 21  2  0
 29 24  1  0
 29 27  1  0
 30 22  1  0
 30 23  2  0
 30 26  1  0
 30 27  1  0
M  END
>  <DRUGBANK_ID>  (1) 
DB01860

>  <SECONDARY_ACCESSION_NUMBERS>  (1) 
EXPT00163

>  <COMMON_NAME>  (1) 
Cordycepin Triphosphate

>  <CAS_NUMBER>  (1) 
73-04-1

>  <UNII>  (1) 
59P84ZU54H

$$$$
