
     RDKit          2D

 10 12  0  0  0  0  0  0  0  0999 V2000
    0.1163   -2.0322    0.0000 C   0  0  0  0  0  0  0  0  0  0  0  0
    0.8517   -1.6585    0.0000 C   0  0  0  0  0  0  0  0  0  0  0  0
    0.8517   -0.9111    0.0000 C   0  0  0  0  0  0  0  0  0  0  0  0
    1.3012   -0.1208    0.0000 C   0  0  0  0  0  0  0  0  0  0  0  0
    0.5657   -0.4945    0.0000 C   0  0  0  0  0  0  0  0  0  0  0  0
    0.5657   -1.2419    0.0000 C   0  0  0  0  0  0  0  0  0  0  0  0
    1.3012   -1.6156    0.0000 C   0  0  0  0  0  0  0  0  0  0  0  0
    2.0368   -1.2419    0.0000 C   0  0  0  0  0  0  0  0  0  0  0  0
    1.5873   -2.0322    0.0000 C   0  0  0  0  0  0  0  0  0  0  0  0
    2.0368   -0.4945    0.0000 C   0  0  0  0  0  0  0  0  0  0  0  0
  1  6  1  0
  2  1  1  0
  2  9  1  0
  2  3  1  0
  4 10  1  0
  4  3  1  0
  4  5  1  0
  6  7  1  0
  6  5  1  0
  8  7  1  0
  8  9  1  0
  8 10  1  0
M  END
>  <DRUGBANK_ID>  (1) 
DB03627

>  <SECONDARY_ACCESSION_NUMBERS>  (1) 
EXPT00433

>  <COMMON_NAME>  (1) 
Adamantane

>  <UNII>  (1) 
PJY633525U

$$$$
