SIH
     RDKit          2D

 31 34  0  0  0  0  0  0  0  0999 V2000
   -1.6133    1.1778    0.0000 C   0  0  0  0  0  0  0  0  0  0  0  0
   -2.3278    1.5903    0.0000 C   0  0  0  0  0  0  0  0  0  0  0  0
   -3.0423    1.1778    0.0000 C   0  0  0  0  0  0  0  0  0  0  0  0
   -3.7568    1.5903    0.0000 O   0  0  0  0  0  0  0  0  0  0  0  0
   -3.0423    0.3528    0.0000 C   0  0  0  0  0  0  0  0  0  0  0  0
   -2.3278   -0.0597    0.0000 C   0  0  0  0  0  0  0  0  0  0  0  0
   -2.3278   -0.8847    0.0000 C   0  0  0  0  0  0  0  0  0  0  0  0
   -1.6133   -1.2972    0.0000 C   0  0  0  0  0  0  0  0  0  0  0  0
   -0.8989   -0.8847    0.0000 C   0  0  0  0  0  0  0  0  0  0  0  0
   -0.8989   -0.0597    0.0000 C   0  0  0  0  0  0  0  0  0  0  0  0
   -1.6133    0.3528    0.0000 C   0  0  0  0  0  0  0  0  0  0  0  0
   -0.1844    0.3528    0.0000 C   0  0  0  0  0  0  0  0  0  0  0  0
   -0.1844    1.1778    0.0000 O   0  0  0  0  0  0  0  0  0  0  0  0
    0.5301   -0.0597    0.0000 C   0  0  0  0  0  0  0  0  0  0  0  0
    0.5301   -0.8847    0.0000 C   0  0  0  0  0  0  0  0  0  0  0  0
   -0.1844   -1.2972    0.0000 C   0  0  0  0  0  0  0  0  0  0  0  0
   -0.0129   -2.1042    0.0000 C   0  0  0  0  0  0  0  0  0  0  0  0
    0.8076   -2.1905    0.0000 C   0  0  0  0  0  0  0  0  0  0  0  0
    1.1432   -1.4368    0.0000 C   0  0  0  0  0  0  0  0  0  0  0  0
    1.2837   -0.5492    0.0000 C   0  0  0  0  0  0  0  0  0  0  0  0
   -0.8989    0.7653    0.0000 C   0  0  0  0  0  0  0  0  0  0  0  0
    1.9501   -1.2653    0.0000 C   0  0  0  0  0  0  0  0  0  0  0  0
    2.5022   -1.8783    0.0000 O   0  0  0  0  0  0  0  0  0  0  0  0
    2.2051   -0.4806    0.0000 C   0  0  0  0  0  0  0  0  0  0  0  0
    0.5301    1.5903    0.0000 C   0  0  0  0  0  0  0  0  0  0  0  0
    0.5301    2.4153    0.0000 O   0  0  0  0  0  0  0  0  0  0  0  0
    1.2445    1.1778    0.0000 C   0  0  0  0  0  0  0  0  0  0  0  0
    1.9590    1.5903    0.0000 C   0  0  0  0  0  0  0  0  0  0  0  0
    2.6735    1.1778    0.0000 C   0  0  0  0  0  0  0  0  0  0  0  0
    2.6735    0.3528    0.0000 O   0  0  0  0  0  0  0  0  0  0  0  0
    3.3880    1.5903    0.0000 O   0  0  0  0  0  0  0  0  0  0  0  0
  1  2  1  0
  1 11  1  0
  2  3  1  0
  3  4  2  0
  3  5  1  0
  5  6  2  0
  6  7  1  0
  6 11  1  0
  7  8  1  0
  9  8  1  6
  9 10  1  0
  9 16  1  0
 10 11  1  0
 10 12  1  1
 11 21  1  1
 12 13  1  6
 12 14  1  0
 13 25  1  0
 14 15  1  0
 15 16  1  0
 15 19  1  0
 15 20  1  1
 16 17  1  1
 17 18  1  0
 18 19  1  0
 19 22  1  1
 22 23  2  0
 22 24  1  0
 25 26  2  0
 25 27  1  0
 27 28  1  0
 28 29  1  0
 29 30  2  0
 29 31  1  0
M  END
>  <DRUGBANK_ID>  (1) 
DB08547

>  <COMMON_NAME>  (1) 
PROGESTERONE-11-ALPHA-OL-HEMISUCCINATE

$$$$
