4BT
     RDKit          2D

 18 18  0  0  0  0  0  0  0  0999 V2000
    1.7901    1.0539    0.0000 C   0  0  0  0  0  0  0  0  0  0  0  0
    1.0756    1.4664    0.0000 C   0  0  0  0  0  0  0  0  0  0  0  0
   -1.0678    0.2289    0.0000 C   0  0  0  0  0  0  0  0  0  0  0  0
   -1.0678    1.0539    0.0000 C   0  0  0  0  0  0  0  0  0  0  0  0
   -0.3533    1.4664    0.0000 C   0  0  0  0  0  0  0  0  0  0  0  0
    0.3612    1.0539    0.0000 C   0  0  0  0  0  0  0  0  0  0  0  0
    0.3612    0.2289    0.0000 C   0  0  0  0  0  0  0  0  0  0  0  0
   -0.3533   -0.1836    0.0000 C   0  0  0  0  0  0  0  0  0  0  0  0
   -1.7822   -0.1836    0.0000 C   0  0  0  0  0  0  0  0  0  0  0  0
   -1.7822   -1.0086    0.0000 C   0  0  0  0  0  0  0  0  0  0  0  0
   -3.2112   -2.6586    0.0000 N   0  0  0  0  0  0  0  0  0  0  0  0
   -2.4967   -2.2461    0.0000 C   0  0  0  0  0  0  0  0  0  0  0  0
   -2.4967   -1.4211    0.0000 S   0  0  0  0  0  0  0  0  0  0  0  0
   -1.7822   -2.6586    0.0000 N   0  0  0  0  0  0  0  0  0  0  0  0
    3.9335    1.4664    0.0000 N   0  0  0  0  0  0  0  0  0  0  0  0
    3.2191    1.0539    0.0000 C   0  0  0  0  0  0  0  0  0  0  0  0
    2.5046    1.4664    0.0000 S   0  0  0  0  0  0  0  0  0  0  0  0
    3.2191    0.2289    0.0000 N   0  0  0  0  0  0  0  0  0  0  0  0
  1  2  1  0
  1 17  1  0
  2  6  1  0
  3  4  2  0
  3  8  1  0
  3  9  1  0
  4  5  1  0
  5  6  2  0
  6  7  1  0
  7  8  2  0
  9 10  1  0
 10 13  1  0
 11 12  1  0
 12 13  1  0
 12 14  2  0
 15 16  1  0
 16 17  1  0
 16 18  2  0
M  END
>  <DRUGBANK_ID>  (1) 
DB02141

>  <SECONDARY_ACCESSION_NUMBERS>  (1) 
EXPT00205

>  <COMMON_NAME>  (1) 
S,S'-(1,4-Phenylene-Bis(1,2-Ethanediyl))Bis-Isothiourea

$$$$
