
     RDKit          2D

 26 28  0  0  0  0  0  0  0  0999 V2000
    8.6842   -2.5388    0.0000 C   0  0  0  0  0  0  0  0  0  0  0  0
    7.9697   -2.1263    0.0000 C   0  0  0  0  0  0  0  0  0  0  0  0
    7.9697   -1.3013    0.0000 C   0  0  0  0  0  0  0  0  0  0  0  0
    7.2552   -2.5388    0.0000 C   0  0  0  0  0  0  0  0  0  0  0  0
    6.5408   -2.1263    0.0000 C   0  0  0  0  0  0  0  0  0  0  0  0
    5.7158   -2.1263    0.0000 C   0  0  0  0  0  0  0  0  0  0  0  0
    5.0013   -2.5388    0.0000 C   0  0  0  0  0  0  0  0  0  0  0  0
    4.2868   -2.1263    0.0000 O   0  0  0  0  0  0  0  0  0  0  0  0
    5.0013   -3.3638    0.0000 O   0  0  0  0  0  0  0  0  0  0  0  0
    4.2868   -3.7763    0.0000 C   0  0  0  0  0  0  0  0  0  0  0  0
    4.2868   -4.6013    0.0000 C   0  0  0  0  0  0  0  0  0  0  0  0
    5.0013   -5.0138    0.0000 C   0  0  0  0  0  0  0  0  0  0  0  0
    5.0013   -5.8388    0.0000 C   0  0  0  0  0  0  0  0  0  0  0  0
    4.2868   -6.2513    0.0000 C   0  0  0  0  0  0  0  0  0  0  0  0
    3.5724   -5.8388    0.0000 C   0  0  0  0  0  0  0  0  0  0  0  0
    2.8579   -6.2513    0.0000 O   0  0  0  0  0  0  0  0  0  0  0  0
    2.1434   -5.8388    0.0000 C   0  0  0  0  0  0  0  0  0  0  0  0
    1.4289   -6.2513    0.0000 C   0  0  0  0  0  0  0  0  0  0  0  0
    0.7145   -5.8388    0.0000 C   0  0  0  0  0  0  0  0  0  0  0  0
    0.7145   -5.0138    0.0000 C   0  0  0  0  0  0  0  0  0  0  0  0
    1.4289   -4.6013    0.0000 C   0  0  0  0  0  0  0  0  0  0  0  0
    2.1434   -5.0138    0.0000 C   0  0  0  0  0  0  0  0  0  0  0  0
    3.5724   -5.0138    0.0000 C   0  0  0  0  0  0  0  0  0  0  0  0
    6.1283   -1.4118    0.0000 C   0  0  0  0  0  0  0  0  0  0  0  0
    5.6551   -0.7360    0.0000 C   0  0  0  0  0  0  0  0  0  0  0  0
    6.6015   -0.7360    0.0000 C   0  0  0  0  0  0  0  0  0  0  0  0
  1  2  1  0
  2  3  1  0
  2  4  2  3
  4  5  1  0
  5  6  1  0
  5 24  1  0
  6  7  1  0
  6 24  1  0
  7  8  2  0
  7  9  1  0
  9 10  1  0
 10 11  1  0
 11 12  2  0
 11 23  1  0
 12 13  1  0
 13 14  2  0
 14 15  1  0
 15 16  1  0
 15 23  2  0
 16 17  1  0
 17 18  2  0
 17 22  1  0
 18 19  1  0
 19 20  2  0
 20 21  1  0
 21 22  2  0
 24 25  1  0
 24 26  1  0
M  END
>  <DRUGBANK_ID>  (1) 
DB13717

>  <COMMON_NAME>  (1) 
Phenothrin

>  <CAS_NUMBER>  (1) 
26002-80-2

>  <UNII>  (1) 
707484X33X

>  <SYNONYMS>  (1) 
Phenothrin

$$$$
