
     RDKit          2D

 16 17  0  0  0  0  0  0  0  0999 V2000
   -0.0014   -0.4097    0.0000 C   0  0  0  0  0  0  0  0  0  0  0  0
   -0.0014    0.4158    0.0000 N   0  0  0  0  0  0  0  0  0  0  0  0
    0.7120   -0.8199    0.0000 N   0  0  0  0  0  0  0  0  0  0  0  0
   -0.7149   -0.8250    0.0000 N   0  0  0  0  0  0  0  0  0  0  0  0
   -2.1418    0.8210    0.0000 C   0  0  0  0  0  0  0  0  0  0  0  0
   -2.8553    0.4058    0.0000 C   0  0  0  0  0  0  0  0  0  0  0  0
   -2.8553   -0.4198    0.0000 C   0  0  0  0  0  0  0  0  0  0  0  0
   -2.1418   -0.8300    0.0000 C   0  0  0  0  0  0  0  0  0  0  0  0
   -1.4284   -0.4148    0.0000 C   0  0  0  0  0  0  0  0  0  0  0  0
   -1.4284    0.4108    0.0000 C   0  0  0  0  0  0  0  0  0  0  0  0
    1.4265   -0.4074    0.0000 C   0  0  0  0  0  0  0  0  0  0  0  0
    1.4265    0.4175    0.0000 C   0  0  0  0  0  0  0  0  0  0  0  0
    2.1409    0.8300    0.0000 C   0  0  0  0  0  0  0  0  0  0  0  0
    2.8553    0.4175    0.0000 C   0  0  0  0  0  0  0  0  0  0  0  0
    2.8553   -0.4074    0.0000 C   0  0  0  0  0  0  0  0  0  0  0  0
    2.1409   -0.8199    0.0000 C   0  0  0  0  0  0  0  0  0  0  0  0
  2  1  2  0
  3  1  1  0
  3 11  1  0
  4  1  1  0
  6  5  2  0
  7  6  1  0
  8  7  2  0
  9  4  1  0
  9  8  1  0
 10  5  1  0
 10  9  2  0
 11 12  2  0
 12 13  1  0
 13 14  2  0
 14 15  1  0
 15 16  2  0
 16 11  1  0
M  END
>  <DRUGBANK_ID>  (1) 
DB14191

>  <COMMON_NAME>  (1) 
Diphenylguanidine

>  <CAS_NUMBER>  (1) 
102-06-7

>  <UNII>  (1) 
6MRZ85RNHQ

>  <SYNONYMS>  (1) 
1,3-diphenylguanidine; DPG; DPG vulcanizer; Melaniline; N,N'-diphenylguanidine; s-Diphenylguanidine

$$$$
