QMS
     RDKit          2D

 15 16  0  0  0  0  0  0  0  0999 V2000
   -2.0062    1.8116    0.0000 O   0  0  0  0  0  0  0  0  0  0  0  0
   -1.2917    1.3991    0.0000 S   0  0  0  0  0  0  0  0  0  0  0  0
   -1.7042    0.6847    0.0000 O   0  0  0  0  0  0  0  0  0  0  0  0
   -0.8792    2.1136    0.0000 C   0  0  0  0  0  0  0  0  0  0  0  0
   -0.5772    0.9866    0.0000 N   0  0  0  0  0  0  0  0  0  0  0  0
   -0.5772    0.1616    0.0000 C   0  0  0  0  0  0  0  0  0  0  0  0
   -1.2917   -0.2509    0.0000 C   0  0  0  0  0  0  0  0  0  0  0  0
    0.1372   -0.2509    0.0000 C   0  0  0  0  0  0  0  0  0  0  0  0
    0.8517    0.1616    0.0000 N   0  0  0  0  0  0  0  0  0  0  0  0
    1.5662   -0.2509    0.0000 C   0  0  0  0  0  0  0  0  0  0  0  0
    1.5662   -1.0759    0.0000 C   0  0  0  0  0  0  0  0  0  0  0  0
    0.8517   -1.4884    0.0000 C   0  0  0  0  0  0  0  0  0  0  0  0
    0.1372   -1.0759    0.0000 C   0  0  0  0  0  0  0  0  0  0  0  0
   -0.5772   -1.4884    0.0000 C   0  0  0  0  0  0  0  0  0  0  0  0
   -1.2917   -1.0759    0.0000 C   0  0  0  0  0  0  0  0  0  0  0  0
  1  2  2  0
  2  3  2  0
  2  4  1  0
  2  5  1  0
  5  6  1  0
  6  7  2  0
  6  8  1  0
  7 15  1  0
  8  9  2  0
  8 13  1  0
  9 10  1  0
 10 11  2  0
 11 12  1  0
 12 13  2  0
 13 14  1  0
 14 15  2  0
M  END
>  <DRUGBANK_ID>  (1) 
DB08451

>  <COMMON_NAME>  (1) 
N-(QUINOLIN-8-YL)METHANESULFONAMIDE

$$$$
