BTP
     RDKit          2D

 13 13  0  0  0  0  0  0  0  0999 V2000
    1.3879    1.1685    0.0000 C   0  0  0  0  0  0  0  0  0  0  0  0
    1.3879    1.9935    0.0000 O   0  0  0  0  0  0  0  0  0  0  0  0
    2.1024    0.7560    0.0000 O   0  0  0  0  0  0  0  0  0  0  0  0
    0.6735    0.7560    0.0000 C   0  0  0  0  0  0  0  0  0  0  0  0
    0.6735   -0.0690    0.0000 C   0  0  0  0  0  0  0  0  0  0  0  0
   -0.0410   -0.4815    0.0000 C   0  0  0  0  0  0  0  0  0  0  0  0
   -0.0410   -1.3065    0.0000 C   0  0  0  0  0  0  0  0  0  0  0  0
   -0.7555   -1.7190    0.0000 C   0  0  0  0  0  0  0  0  0  0  0  0
   -1.4699   -1.3065    0.0000 C   0  0  0  0  0  0  0  0  0  0  0  0
   -1.4699   -0.4815    0.0000 C   0  0  0  0  0  0  0  0  0  0  0  0
   -0.7555   -0.0690    0.0000 C   0  0  0  0  0  0  0  0  0  0  0  0
   -0.0410    1.1685    0.0000 C   0  0  0  0  0  0  0  0  0  0  0  0
   -0.7555    0.7560    0.0000 S   0  0  0  0  0  0  0  0  0  0  0  0
  1  2  2  0
  1  3  1  0
  1  4  1  0
  4  5  1  6
  4 12  1  0
  5  6  1  0
  6  7  2  0
  6 11  1  0
  7  8  1  0
  8  9  2  0
  9 10  1  0
 10 11  2  0
 12 13  1  0
M  END
>  <DRUGBANK_ID>  (1) 
DB02953

>  <SECONDARY_ACCESSION_NUMBERS>  (1) 
EXPT00769

>  <COMMON_NAME>  (1) 
2-Thiomethyl-3-Phenylpropanoic Acid

$$$$
