
     RDKit          2D

 30 32  0  0  1  0  0  0  0  0999 V2000
   -0.7145    0.8250    0.0000 C   0  0  0  0  0  0  0  0  0  0  0  0
    0.0000    0.4125    0.0000 C   0  0  0  0  0  0  0  0  0  0  0  0
    0.0000   -0.4125    0.0000 C   0  0  0  0  0  0  0  0  0  0  0  0
    0.7145    0.8250    0.0000 C   0  0  0  0  0  0  0  0  0  0  0  0
   -1.4289    0.4125    0.0000 C   0  0  0  0  0  0  0  0  0  0  0  0
    0.7145   -0.8250    0.0000 C   0  0  0  0  0  0  0  0  0  0  0  0
   -0.7145   -0.8250    0.0000 C   0  0  0  0  0  0  0  0  0  0  0  0
    1.4289    0.4125    0.0000 C   0  0  0  0  0  0  0  0  0  0  0  0
   -1.4289   -0.4125    0.0000 C   0  0  0  0  0  0  0  0  0  0  0  0
    1.4289   -0.4125    0.0000 C   0  0  0  0  0  0  0  0  0  0  0  0
    0.7173    1.6494    0.0000 C   0  0  0  0  0  0  0  0  0  0  0  0
   -2.1447   -0.8316    0.0000 C   0  0  0  0  0  0  0  0  0  0  0  0
    2.1427    0.8155    0.0000 C   0  0  0  0  0  0  0  0  0  0  0  0
    1.4245    2.0538    0.0000 C   0  0  0  0  0  0  0  0  0  0  0  0
    1.4455    2.8693    0.0000 C   0  0  0  0  0  0  0  0  0  0  0  0
    2.1525    3.2848    0.0000 O   0  0  0  0  0  0  0  0  0  0  0  0
    2.1463    4.1002    0.0000 C   0  0  0  0  0  0  0  0  0  0  0  0
    1.4370    4.5025    0.0000 C   0  0  0  0  0  0  0  0  0  0  0  0
    0.7572    4.0872    0.0000 C   0  0  0  0  0  0  0  0  0  0  0  0
    0.7633    3.2718    0.0000 C   0  0  0  0  0  0  0  0  0  0  0  0
    0.0416    4.5009    0.0000 O   0  0  0  0  0  0  0  0  0  0  0  0
    2.8531    4.5156    0.0000 O   0  0  0  0  0  0  0  0  0  0  0  0
   -1.4325    2.8866    0.0000 O   0  0  0  0  0  0  0  0  0  0  0  0
   -1.4311    2.0616    0.0000 C   0  0  0  0  0  0  0  0  0  0  0  0
   -0.7159    1.6503    0.0000 O   0  0  0  0  0  0  0  0  0  0  0  0
   -2.8600    2.0591    0.0000 C   0  0  0  0  0  0  0  0  0  0  0  0
   -3.5738    1.6453    0.0000 C   0  0  0  0  0  0  0  0  0  0  0  0
   -1.9299    0.8513    0.0000 C   0  0  0  0  0  0  0  0  0  0  0  0
   -2.1448    1.6478    0.0000 C   0  0  0  0  0  0  0  0  0  0  0  0
   -2.3570    0.8506    0.0000 C   0  0  0  0  0  0  0  0  0  0  0  0
  1 25  1  6
  1  5  1  0
  2  1  1  0
  2  3  1  6
  2  4  1  0
  3  6  1  0
  3  7  2  0
  4 11  1  1
  4  8  1  0
  5  9  1  0
  6 10  2  0
  7  9  1  0
  8 13  1  1
  8 10  1  0
  9 12  1  6
 11 14  1  0
 15 14  1  6
 15 16  1  0
 15 20  1  0
 16 17  1  0
 17 18  1  0
 17 22  2  0
 18 19  1  0
 19 20  1  0
 19 21  1  1
 23 24  2  0
 24 29  1  0
 24 25  1  0
 26 27  1  0
 29 26  1  0
 29 28  1  0
 29 30  1  0
M  END
>  <DRUGBANK_ID>  (1) 
DB00641

>  <SECONDARY_ACCESSION_NUMBERS>  (1) 
APRD00104

>  <COMMON_NAME>  (1) 
Simvastatin

>  <CAS_NUMBER>  (1) 
79902-63-9

>  <UNII>  (1) 
AGG2FN16EV

>  <SYNONYMS>  (1) 
2,2-dimethylbutyric acid, 8-ester with (4R,6R)-6-(2-((1S,2S,6R,8S,8aR)-1,2,6,7,8,8a-hexahydro-8-hydroxy-2,6-dimethyl-1-naphthyl)ethyl)tetrahydro-4-hydroxy-2H-pyran-2-one; Simvastatin; Simvastatina; Simvastatine; Simvastatinum

$$$$
