
     RDKit          2D

 16 16  0  0  0  0  0  0  0  0999 V2000
   -0.3611    0.0783    0.0000 O   0  0  0  0  0  0  0  0  0  0  0  0
   -0.3611   -2.3966    0.0000 O   0  0  0  0  0  0  0  0  0  0  0  0
   -1.7901   -1.5716    0.0000 O   0  0  0  0  0  0  0  0  0  0  0  0
    1.0677   -1.5716    0.0000 O   0  0  0  0  0  0  0  0  0  0  0  0
   -1.7901    0.9033    0.0000 O   0  0  0  0  0  0  0  0  0  0  0  0
    1.7823    1.3159    0.0000 O   0  0  0  0  0  0  0  0  0  0  0  0
    0.3533    1.3159    0.0000 O   0  0  0  0  0  0  0  0  0  0  0  0
    1.0677    0.0783    0.0000 N   0  0  0  0  0  0  0  0  0  0  0  0
   -0.3611   -1.5716    0.0000 C   0  0  0  0  0  0  0  0  0  0  0  0
   -1.0756   -1.1591    0.0000 C   0  0  0  0  0  0  0  0  0  0  0  0
    0.3533   -1.1591    0.0000 C   0  0  0  0  0  0  0  0  0  0  0  0
   -1.0756   -0.3341    0.0000 C   0  0  0  0  0  0  0  0  0  0  0  0
    0.3533   -0.3341    0.0000 C   0  0  0  0  0  0  0  0  0  0  0  0
   -1.7901    0.0783    0.0000 C   0  0  0  0  0  0  0  0  0  0  0  0
    1.0677    0.9033    0.0000 C   0  0  0  0  0  0  0  0  0  0  0  0
    1.7823    2.1409    0.0000 C   0  0  0  0  0  0  0  0  0  0  0  0
  1 12  1  0
  1 13  1  0
  5 14  1  0
  6 15  1  0
  6 16  1  0
  7 15  2  0
  8 15  1  0
  9  2  1  1
  9 10  1  0
  9 11  1  0
 10  3  1  6
 10 12  1  0
 11  4  1  6
 11 13  1  0
 12 14  1  1
 13  8  1  1
M  END
>  <DRUGBANK_ID>  (1) 
DB03657

>  <SECONDARY_ACCESSION_NUMBERS>  (1) 
EXPT01010

>  <COMMON_NAME>  (1) 
1-deoxy-1-methoxycarbamido-beta-D-glucopyranose

>  <CAS_NUMBER>  (1) 
188679-87-0

>  <SYNONYMS>  (1) 
N-(Methoxycarbonyl)-Î²-D-glucopyranosylamine

$$$$
