
     RDKit          2D

 42 46  0  0  0  0  0  0  0  0999 V2000
    2.8334   -4.6884    0.0000 C   0  0  0  0  0  0  0  0  0  0  0  0
    2.8334   -3.8634    0.0000 N   0  0  0  0  0  0  0  0  0  0  0  0
    2.1189   -3.4509    0.0000 C   0  0  0  0  0  0  0  0  0  0  0  0
    2.1189   -2.6259    0.0000 C   0  0  0  0  0  0  0  0  0  0  0  0
    2.8334   -2.2134    0.0000 C   0  0  0  0  0  0  0  0  0  0  0  0
    3.5479   -2.6259    0.0000 C   0  0  0  0  0  0  0  0  0  0  0  0
    3.5479   -3.4509    0.0000 C   0  0  0  0  0  0  0  0  0  0  0  0
    2.8334   -1.3884    0.0000 N   0  0  0  0  0  0  0  0  0  0  0  0
    2.1189   -0.9759    0.0000 C   0  0  0  0  0  0  0  0  0  0  0  0
    1.4045   -1.3884    0.0000 O   0  0  0  0  0  0  0  0  0  0  0  0
    2.1189   -0.1509    0.0000 C   0  0  0  0  0  0  0  0  0  0  0  0
    2.8334    0.2615    0.0000 C   0  0  0  0  0  0  0  0  0  0  0  0
    2.8334    1.0865    0.0000 C   0  0  0  0  0  0  0  0  0  0  0  0
    2.1189    1.4990    0.0000 C   0  0  0  0  0  0  0  0  0  0  0  0
    1.4045    1.0865    0.0000 C   0  0  0  0  0  0  0  0  0  0  0  0
    1.4045    0.2615    0.0000 C   0  0  0  0  0  0  0  0  0  0  0  0
    0.6900   -0.1509    0.0000 F   0  0  0  0  0  0  0  0  0  0  0  0
    2.1189    2.3240    0.0000 N   0  0  0  0  0  0  0  0  0  0  0  0
    1.4045    2.7365    0.0000 C   0  0  0  0  0  0  0  0  0  0  0  0
    1.4045    3.5615    0.0000 N   0  0  0  0  0  0  0  0  0  0  0  0
    0.6900    3.9740    0.0000 C   0  0  0  0  0  0  0  0  0  0  0  0
   -0.0244    3.5615    0.0000 C   0  0  0  0  0  0  0  0  0  0  0  0
   -0.0244    2.7365    0.0000 C   0  0  0  0  0  0  0  0  0  0  0  0
    0.6900    2.3240    0.0000 N   0  0  0  0  0  0  0  0  0  0  0  0
   -0.7388    2.3240    0.0000 O   0  0  0  0  0  0  0  0  0  0  0  0
   -0.7388    1.4990    0.0000 C   0  0  0  0  0  0  0  0  0  0  0  0
   -0.0244    1.0865    0.0000 C   0  0  0  0  0  0  0  0  0  0  0  0
   -0.0244    0.2615    0.0000 C   0  0  0  0  0  0  0  0  0  0  0  0
   -0.7388   -0.1509    0.0000 C   0  0  0  0  0  0  0  0  0  0  0  0
   -1.4533    0.2615    0.0000 C   0  0  0  0  0  0  0  0  0  0  0  0
   -1.4533    1.0865    0.0000 C   0  0  0  0  0  0  0  0  0  0  0  0
   -2.2379    1.3414    0.0000 C   0  0  0  0  0  0  0  0  0  0  0  0
   -2.4929    2.1260    0.0000 O   0  0  0  0  0  0  0  0  0  0  0  0
   -2.7229    0.6740    0.0000 N   0  0  0  0  0  0  0  0  0  0  0  0
   -2.2379    0.0065    0.0000 C   0  0  0  0  0  0  0  0  0  0  0  0
   -3.5479    0.6740    0.0000 C   0  0  0  0  0  0  0  0  0  0  0  0
   -0.7388    3.9740    0.0000 C   0  0  0  0  0  0  0  0  0  0  0  0
   -1.4533    4.3865    0.0000 F   0  0  0  0  0  0  0  0  0  0  0  0
   -0.3263    4.6884    0.0000 F   0  0  0  0  0  0  0  0  0  0  0  0
   -1.1513    3.2595    0.0000 F   0  0  0  0  0  0  0  0  0  0  0  0
    3.5479    1.4990    0.0000 O   0  0  0  0  0  0  0  0  0  0  0  0
    3.5479    2.3240    0.0000 C   0  0  0  0  0  0  0  0  0  0  0  0
  1  2  1  0
  2  3  1  0
  2  7  1  0
  3  4  1  0
  4  5  1  0
  5  6  1  0
  5  8  1  0
  6  7  1  0
  8  9  1  0
  9 10  2  0
  9 11  1  0
 11 12  2  0
 11 16  1  0
 12 13  1  0
 13 14  2  0
 13 41  1  0
 14 15  1  0
 14 18  1  0
 15 16  2  0
 16 17  1  0
 18 19  1  0
 19 20  2  0
 19 24  1  0
 20 21  1  0
 21 22  2  0
 22 23  1  0
 22 37  1  0
 23 24  2  0
 23 25  1  0
 25 26  1  0
 26 27  2  0
 26 31  1  0
 27 28  1  0
 28 29  2  0
 29 30  1  0
 30 31  2  0
 30 35  1  0
 31 32  1  0
 32 33  2  0
 32 34  1  0
 34 35  1  0
 34 36  1  0
 37 38  1  0
 37 39  1  0
 37 40  1  0
 41 42  1  0
M  END
>  <DRUGBANK_ID>  (1) 
DB17570

>  <COMMON_NAME>  (1) 
Ifebemtinib

>  <CAS_NUMBER>  (1) 
1227948-82-4

>  <UNII>  (1) 
C57O858DKU

>  <SYNONYMS>  (1) 
Ifebemtinib

$$$$
