IPO
     RDKit          2D

 14 14  0  0  0  0  0  0  0  0999 V2000
   -0.7000    0.1437    0.0000 C   0  0  0  0  0  0  0  0  0  0  0  0
   -0.7000   -0.6813    0.0000 C   0  0  0  0  0  0  0  0  0  0  0  0
   -1.4145   -1.0938    0.0000 C   0  0  0  0  0  0  0  0  0  0  0  0
   -2.1289   -0.6813    0.0000 C   0  0  0  0  0  0  0  0  0  0  0  0
   -2.8434   -1.0938    0.0000 I   0  0  0  0  0  0  0  0  0  0  0  0
   -2.1289    0.1437    0.0000 C   0  0  0  0  0  0  0  0  0  0  0  0
   -1.4145    0.5562    0.0000 C   0  0  0  0  0  0  0  0  0  0  0  0
    0.0145    0.5562    0.0000 C   0  0  0  0  0  0  0  0  0  0  0  0
    0.7289    0.1437    0.0000 C   0  0  0  0  0  0  0  0  0  0  0  0
    0.7289   -0.6813    0.0000 N   0  0  0  0  0  0  0  0  0  0  0  0
    1.4434    0.5562    0.0000 C   0  0  0  0  0  0  0  0  0  0  0  0
    1.4434    1.3812    0.0000 O   0  0  0  0  0  0  0  0  0  0  0  0
    2.1579    0.1437    0.0000 N   0  0  0  0  0  0  0  0  0  0  0  0
    2.8724    0.5562    0.0000 O   0  0  0  0  0  0  0  0  0  0  0  0
  1  2  2  0
  1  7  1  0
  1  8  1  0
  2  3  1  0
  3  4  2  0
  4  5  1  0
  4  6  1  0
  6  7  2  0
  8  9  1  0
  9 10  1  6
  9 11  1  0
 11 12  2  0
 11 13  1  0
 13 14  1  0
M  END
>  <DRUGBANK_ID>  (1) 
DB01980

>  <SECONDARY_ACCESSION_NUMBERS>  (1) 
EXPT01920

>  <COMMON_NAME>  (1) 
Para-Iodo-D-Phenylalanine Hydroxamic Acid

$$$$
