
     RDKit          2D

 21 23  0  0  0  0  0  0  0  0999 V2000
    2.8115    0.4739    0.0000 O   0  0  0  0  0  0  0  0  0  0  0  0
    5.6298    0.4739    0.0000 O   0  0  0  0  0  0  0  0  0  0  0  0
    4.2206    0.4739    0.0000 N   0  0  0  0  0  0  0  0  0  0  0  0
    4.9252    2.5078    0.0000 N   0  0  0  0  0  0  0  0  0  0  0  0
    2.0629   -2.4103    0.0000 N   0  0  0  0  0  0  0  0  0  0  0  0
    4.2206   -1.1533    0.0000 C   0  0  0  0  0  0  0  0  0  0  0  0
    4.2206    1.2875    0.0000 C   0  0  0  0  0  0  0  0  0  0  0  0
    3.5160   -0.7465    0.0000 C   0  0  0  0  0  0  0  0  0  0  0  0
    4.9252   -0.7465    0.0000 C   0  0  0  0  0  0  0  0  0  0  0  0
    3.5160    0.0672    0.0000 C   0  0  0  0  0  0  0  0  0  0  0  0
    4.2337   -2.0005    0.0000 C   0  0  0  0  0  0  0  0  0  0  0  0
    4.9252    0.0672    0.0000 C   0  0  0  0  0  0  0  0  0  0  0  0
    4.9252    1.6943    0.0000 C   0  0  0  0  0  0  0  0  0  0  0  0
    2.7757   -1.1588    0.0000 C   0  0  0  0  0  0  0  0  0  0  0  0
    5.6656   -1.1588    0.0000 C   0  0  0  0  0  0  0  0  0  0  0  0
    3.5031   -2.4299    0.0000 C   0  0  0  0  0  0  0  0  0  0  0  0
    2.7692   -2.0061    0.0000 C   0  0  0  0  0  0  0  0  0  0  0  0
    4.9381   -2.4299    0.0000 C   0  0  0  0  0  0  0  0  0  0  0  0
    5.6721   -2.0061    0.0000 C   0  0  0  0  0  0  0  0  0  0  0  0
    4.2206    2.9146    0.0000 C   0  0  0  0  0  0  0  0  0  0  0  0
    5.6298    2.9146    0.0000 C   0  0  0  0  0  0  0  0  0  0  0  0
  1 10  2  0
  2 12  2  0
  3  7  1  0
  3 10  1  0
  3 12  1  0
  4 13  1  0
  4 20  1  0
  4 21  1  0
  5 17  1  0
  6  8  1  0
  6  9  2  0
  6 11  1  0
  7 13  1  0
  8 10  1  0
  8 14  2  0
  9 12  1  0
  9 15  1  0
 11 16  1  0
 11 18  2  0
 14 17  1  0
 15 19  2  0
 16 17  2  0
 18 19  1  0
M  END
>  <DRUGBANK_ID>  (1) 
DB05022

>  <COMMON_NAME>  (1) 
Amonafide

>  <CAS_NUMBER>  (1) 
69408-81-7

>  <UNII>  (1) 
1Q8D39N37L

>  <SYNONYMS>  (1) 
Amonafide

$$$$
