
     RDKit          2D

 37 40  0  0  0  0  0  0  0  0999 V2000
   -3.7626   -0.2009    0.0000 O   0  0  0  0  0  0  0  0  0  0  0  0
   -4.1706   -0.9176    0.0000 S   0  0  0  0  0  0  0  0  0  0  0  0
   -3.4541   -1.3258    0.0000 C   0  0  0  0  0  0  0  0  0  0  0  0
   -3.4541   -2.1549    0.0000 C   0  0  0  0  0  0  0  0  0  0  0  0
   -2.7349   -2.5631    0.0000 C   0  0  0  0  0  0  0  0  0  0  0  0
   -2.0231   -2.1506    0.0000 C   0  0  0  0  0  0  0  0  0  0  0  0
   -2.0231   -1.3216    0.0000 C   0  0  0  0  0  0  0  0  0  0  0  0
   -1.3088   -0.9092    0.0000 N   0  0  0  0  0  0  0  0  0  0  0  0
   -1.3088   -0.0845    0.0000 C   0  0  0  0  0  0  0  0  0  0  0  0
   -2.0241    0.3260    0.0000 C   0  0  0  0  0  0  0  0  0  0  0  0
   -2.7378   -0.0875    0.0000 C   0  0  0  0  0  0  0  0  0  0  0  0
   -2.0241    1.1549    0.0000 C   0  0  0  0  0  0  0  0  0  0  0  0
   -1.3088    1.5734    0.0000 N   0  0  0  0  0  0  0  0  0  0  0  0
   -0.5934    1.1549    0.0000 C   0  0  0  0  0  0  0  0  0  0  0  0
    0.1221    1.5651    0.0000 N   0  0  0  0  0  0  0  0  0  0  0  0
    0.8351    1.1508    0.0000 C   0  0  0  0  0  0  0  0  0  0  0  0
    0.8351    0.3217    0.0000 C   0  0  0  0  0  0  0  0  0  0  0  0
    1.5506   -0.0884    0.0000 C   0  0  0  0  0  0  0  0  0  0  0  0
    2.2687    0.3262    0.0000 C   0  0  0  0  0  0  0  0  0  0  0  0
    2.9836   -0.0851    0.0000 O   0  0  0  0  0  0  0  0  0  0  0  0
    3.6972    0.3283    0.0000 C   0  0  0  0  0  0  0  0  0  0  0  0
    3.6972    1.1531    0.0000 C   0  0  0  0  0  0  0  0  0  0  0  0
    4.4096    1.5665    0.0000 N   0  0  0  0  0  0  0  0  0  0  0  0
    5.1676    1.2322    0.0000 C   0  0  0  0  0  0  0  0  0  0  0  0
    5.7171    1.8490    0.0000 C   0  0  0  0  0  0  0  0  0  0  0  0
    5.3019    2.5631    0.0000 C   0  0  0  0  0  0  0  0  0  0  0  0
    4.4961    2.3871    0.0000 C   0  0  0  0  0  0  0  0  0  0  0  0
    2.2687    1.1509    0.0000 C   0  0  0  0  0  0  0  0  0  0  0  0
    1.5529    1.5653    0.0000 C   0  0  0  0  0  0  0  0  0  0  0  0
   -0.5934    0.3260    0.0000 N   0  0  0  0  0  0  0  0  0  0  0  0
   -2.7397   -0.9049    0.0000 C   0  0  0  0  0  0  0  0  0  0  0  0
   -4.5789   -1.6344    0.0000 O   0  0  0  0  0  0  0  0  0  0  0  0
   -4.8875   -0.5094    0.0000 N   0  0  0  0  0  0  0  0  0  0  0  0
   -4.8924    0.3152    0.0000 C   0  0  0  0  0  0  0  0  0  0  0  0
   -4.0677    0.3201    0.0000 C   0  0  0  0  0  0  0  0  0  0  0  0
   -5.7171    0.3103    0.0000 C   0  0  0  0  0  0  0  0  0  0  0  0
   -4.8974    1.1399    0.0000 C   0  0  0  0  0  0  0  0  0  0  0  0
  2  1  2  0
  2 32  2  0
  3  2  1  0
  3  4  2  0
  3 31  1  0
  5  4  1  0
  6  5  2  0
  7  6  1  0
  8  7  1  0
  9  8  1  0
  9 10  2  0
 10 12  1  0
 11 10  1  0
 13 12  2  0
 13 14  1  0
 14 30  2  0
 15 14  1  0
 16 15  1  0
 16 17  2  0
 16 29  1  0
 18 17  1  0
 19 18  2  0
 20 19  1  0
 21 20  1  0
 21 22  1  0
 23 22  1  0
 23 24  1  0
 23 27  1  0
 25 24  1  0
 26 25  1  0
 27 26  1  0
 28 19  1  0
 29 28  2  0
 30  9  1  0
 31  7  2  0
 33  2  1  0
 34 33  1  0
 34 35  1  0
 34 36  1  0
 34 37  1  0
M  END
>  <DRUGBANK_ID>  (1) 
DB12500

>  <SECONDARY_ACCESSION_NUMBERS>  (1) 
DB06165

>  <COMMON_NAME>  (1) 
Fedratinib

>  <CAS_NUMBER>  (1) 
936091-26-8

>  <UNII>  (1) 
6L1XP550I6

>  <SYNONYMS>  (1) 
Fedratinib

$$$$
