
     RDKit          2D

 26 30  0  0  0  0  0  0  0  0999 V2000
    0.4916    0.8237    0.0000 N   0  0  0  0  0  0  0  0  0  0  0  0
    0.9765    0.1563    0.0000 C   0  0  0  0  0  0  0  0  0  0  0  0
    0.4916   -0.5112    0.0000 C   0  0  0  0  0  0  0  0  0  0  0  0
   -0.2931   -0.2562    0.0000 C   0  0  0  0  0  0  0  0  0  0  0  0
   -1.0075   -0.6687    0.0000 C   0  0  0  0  0  0  0  0  0  0  0  0
   -1.7220   -0.2562    0.0000 C   0  0  0  0  0  0  0  0  0  0  0  0
   -1.7220    0.5688    0.0000 C   0  0  0  0  0  0  0  0  0  0  0  0
   -1.0075    0.9813    0.0000 C   0  0  0  0  0  0  0  0  0  0  0  0
   -0.2931    0.5688    0.0000 C   0  0  0  0  0  0  0  0  0  0  0  0
   -2.5066   -0.5112    0.0000 N   0  0  0  0  0  0  0  0  0  0  0  0
   -2.5066    0.8237    0.0000 C   0  0  0  0  0  0  0  0  0  0  0  0
   -2.9915    0.1563    0.0000 C   0  0  0  0  0  0  0  0  0  0  0  0
    0.7110   -1.3064    0.0000 C   0  0  0  0  0  0  0  0  0  0  0  0
    1.4697   -1.6307    0.0000 C   0  0  0  0  0  0  0  0  0  0  0  0
    2.1961   -1.2397    0.0000 C   0  0  0  0  0  0  0  0  0  0  0  0
    2.3435   -0.4280    0.0000 C   0  0  0  0  0  0  0  0  0  0  0  0
    1.8007    0.1933    0.0000 C   0  0  0  0  0  0  0  0  0  0  0  0
    3.0280    0.7179    0.0000 N   0  0  0  0  0  0  0  0  0  0  0  0
    2.2238    0.9015    0.0000 N   0  0  0  0  0  0  0  0  0  0  0  0
    3.1021   -0.1038    0.0000 C   0  0  0  0  0  0  0  0  0  0  0  0
   -3.8165    0.1563    0.0000 O   0  0  0  0  0  0  0  0  0  0  0  0
   -3.1197    1.3757    0.0000 C   0  0  0  0  0  0  0  0  0  0  0  0
   -2.3351    1.6307    0.0000 C   0  0  0  0  0  0  0  0  0  0  0  0
    3.8165   -0.5163    0.0000 C   0  0  0  0  0  0  0  0  0  0  0  0
   -2.7616   -1.2958    0.0000 C   0  0  0  0  0  0  0  0  0  0  0  0
   -3.5685   -1.4673    0.0000 C   0  0  0  0  0  0  0  0  0  0  0  0
  1  2  1  0
  1  9  1  0
  2  3  2  0
  3  4  1  0
  4  5  1  0
  4  9  2  0
  5  6  2  0
  6  7  1  0
  7  8  2  0
  8  9  1  0
 10 12  1  0
 10  6  1  0
 10 25  1  0
 11 12  1  0
 11  7  1  0
 11 22  1  0
 11 23  1  0
 12 21  2  0
 13 14  1  0
 13  3  1  0
 14 15  1  0
 15 16  1  0
 16 17  1  0
 17  2  1  0
 18 19  1  0
 18 20  1  0
 19 17  2  0
 20 16  2  0
 20 24  1  0
 25 26  1  0
M  END
>  <DRUGBANK_ID>  (1) 
DB07266

>  <COMMON_NAME>  (1) 
AKI-001

>  <CAS_NUMBER>  (1) 
925218-37-7

>  <UNII>  (1) 
LM7NL857V1

$$$$
