
     RDKit          2D

 28 30  0  0  0  0  0  0  0  0999 V2000
   -1.6162   -0.4519    0.0000 N   0  0  0  0  0  0  0  0  0  0  0  0
   -2.2909   -0.9268    0.0000 C   0  0  0  0  0  0  0  0  0  0  0  0
   -0.8413   -0.7185    0.0000 C   0  0  0  0  0  0  0  0  0  0  0  0
   -0.4290   -1.4307    0.0000 C   0  0  0  0  0  0  0  0  0  0  0  0
   -3.0407   -0.5768    0.0000 C   0  0  0  0  0  0  0  0  0  0  0  0
    0.3665   -1.2183    0.0000 N   0  0  0  0  0  0  0  0  0  0  0  0
   -2.2202   -1.7515    0.0000 O   0  0  0  0  0  0  0  0  0  0  0  0
   -2.9699    0.2478    0.0000 C   0  0  0  0  0  0  0  0  0  0  0  0
   -0.4415   -2.2556    0.0000 O   0  0  0  0  0  0  0  0  0  0  0  0
   -3.8404   -0.7892    0.0000 N   0  0  0  0  0  0  0  0  0  0  0  0
   -1.6079    0.3728    0.0000 C   0  0  0  0  0  0  0  0  0  0  0  0
    0.9456   -1.8015    0.0000 C   0  0  0  0  0  0  0  0  0  0  0  0
   -3.6447    0.7185    0.0000 C   0  0  0  0  0  0  0  0  0  0  0  0
    4.7402   -0.9268    0.0000 N   0  0  0  0  0  0  0  0  0  0  0  0
    4.0280   -1.3433    0.0000 C   0  0  0  0  0  0  0  0  0  0  0  0
    1.6536   -1.3891    0.0000 C   0  0  0  0  0  0  0  0  0  0  0  0
    3.2531   -1.3266    0.0000 C   0  0  0  0  0  0  0  0  0  0  0  0
    3.3198   -0.7018    0.0000 C   0  0  0  0  0  0  0  0  0  0  0  0
   -0.3457   -0.0645    0.0000 C   0  0  0  0  0  0  0  0  0  0  0  0
    2.3659   -2.0264    0.0000 C   0  0  0  0  0  0  0  0  0  0  0  0
    2.4784   -1.3891    0.0000 C   0  0  0  0  0  0  0  0  0  0  0  0
   -0.8163    0.6185    0.0000 C   0  0  0  0  0  0  0  0  0  0  0  0
   -4.4278   -0.2019    0.0000 C   0  0  0  0  0  0  0  0  0  0  0  0
   -3.1157    1.3558    0.0000 C   0  0  0  0  0  0  0  0  0  0  0  0
   -4.4528    0.8559    0.0000 C   0  0  0  0  0  0  0  0  0  0  0  0
   -3.4073    2.1222    0.0000 C   0  0  0  0  0  0  0  0  0  0  0  0
   -4.7402    1.6183    0.0000 C   0  0  0  0  0  0  0  0  0  0  0  0
   -4.2154    2.2556    0.0000 C   0  0  0  0  0  0  0  0  0  0  0  0
  2  1  1  0
  3  1  1  0
  3  4  1  1
  5  2  1  0
  5  8  1  6
  6  4  1  0
  7  2  2  0
  9  4  2  0
 10  5  1  0
 11  1  1  0
 12  6  1  0
 13  8  1  0
 15 14  1  6
 15 18  1  0
 16 12  1  1
 17 20  1  0
 17 15  1  0
 18 21  1  0
 19  3  1  0
 20 16  1  0
 21 16  1  0
 22 11  1  0
 22 19  1  0
 23 10  1  0
 24 13  2  0
 25 13  1  0
 26 24  1  0
 27 25  2  0
 28 27  1  0
 28 26  2  0
M  END
>  <DRUGBANK_ID>  (1) 
DB08187

>  <COMMON_NAME>  (1) 
N-Methylphenylalanyl-N-[(trans-4-aminocyclohexyl)methyl]-L-prolinamide

$$$$
