Cytidine monophosphate.mol
     RDKit          2D

 21 22  0  0  0  0  0  0  0  0999 V2000
   -1.5793   -0.7219    0.0000 C   0  0  0  0  0  0  0  0  0  0  0  0
   -0.8649   -0.3094    0.0000 C   0  0  0  0  0  0  0  0  0  0  0  0
   -0.7786    0.5111    0.0000 C   0  0  0  0  0  0  0  0  0  0  0  0
   -1.3917    1.0632    0.0000 O   0  0  0  0  0  0  0  0  0  0  0  0
    0.0283    0.6827    0.0000 C   0  0  0  0  0  0  0  0  0  0  0  0
    0.3639    1.4363    0.0000 O   0  0  0  0  0  0  0  0  0  0  0  0
    0.4408   -0.0318    0.0000 C   0  0  0  0  0  0  0  0  0  0  0  0
   -0.1112   -0.6449    0.0000 O   0  0  0  0  0  0  0  0  0  0  0  0
    1.2613   -0.1181    0.0000 N   0  0  0  0  0  0  0  0  0  0  0  0
    1.7462    0.5494    0.0000 C   0  0  0  0  0  0  0  0  0  0  0  0
    1.4107    1.3031    0.0000 O   0  0  0  0  0  0  0  0  0  0  0  0
    2.5667    0.4631    0.0000 N   0  0  0  0  0  0  0  0  0  0  0  0
    2.9023   -0.2905    0.0000 C   0  0  0  0  0  0  0  0  0  0  0  0
    3.7228   -0.3768    0.0000 N   0  0  0  0  0  0  0  0  0  0  0  0
    2.4174   -0.9580    0.0000 C   0  0  0  0  0  0  0  0  0  0  0  0
    1.5969   -0.8717    0.0000 C   0  0  0  0  0  0  0  0  0  0  0  0
   -3.0083   -0.7219    0.0000 P   0  0  0  0  0  0  0  0  0  0  0  0
   -2.5958   -1.4363    0.0000 O   0  0  0  0  0  0  0  0  0  0  0  0
   -2.2938   -0.3094    0.0000 O   0  0  0  0  0  0  0  0  0  0  0  0
   -3.7228   -1.1344    0.0000 O   0  0  0  0  0  0  0  0  0  0  0  0
   -3.4208   -0.0074    0.0000 O   0  0  0  0  0  0  0  0  0  0  0  0
  1 19  1  0
  2  1  1  6
  2  3  1  0
  2  8  1  0
  3  4  1  1
  3  5  1  0
  5  6  1  1
  5  7  1  0
  7  8  1  0
  7  9  1  6
  9 10  1  0
  9 16  1  0
 10 11  2  0
 10 12  1  0
 12 13  2  0
 13 14  1  0
 13 15  1  0
 15 16  2  0
 17 18  2  0
 17 19  1  0
 17 20  1  0
 17 21  1  0
M  END
>  <DRUGBANK_ID>  (1) 
DB03403

>  <SECONDARY_ACCESSION_NUMBERS>  (1) 
EXPT00796

>  <COMMON_NAME>  (1) 
Cytidine-5'-Monophosphate

>  <CAS_NUMBER>  (1) 
63-37-6

>  <UNII>  (1) 
F469818O25

>  <SYNONYMS>  (1) 
5'-CMP; CMP; Cytidine monophosphate; cytidylate; Cytidylic acid; pC

$$$$
