468
     RDKit          2D

 23 25  0  0  0  0  0  0  0  0999 V2000
    4.1437    0.7736    0.0000 C   0  0  0  0  0  0  0  0  0  0  0  0
    3.6588    1.4410    0.0000 C   0  0  0  0  0  0  0  0  0  0  0  0
    2.8383    1.3548    0.0000 C   0  0  0  0  0  0  0  0  0  0  0  0
    2.5028    0.6011    0.0000 C   0  0  0  0  0  0  0  0  0  0  0  0
    2.9877   -0.0663    0.0000 C   0  0  0  0  0  0  0  0  0  0  0  0
    3.8082    0.0199    0.0000 C   0  0  0  0  0  0  0  0  0  0  0  0
    2.6084    2.8069    0.0000 C   0  0  0  0  0  0  0  0  0  0  0  0
    1.9409    3.2918    0.0000 C   0  0  0  0  0  0  0  0  0  0  0  0
    1.2735    2.8069    0.0000 C   0  0  0  0  0  0  0  0  0  0  0  0
    1.5284    2.0222    0.0000 C   0  0  0  0  0  0  0  0  0  0  0  0
    2.3534    2.0222    0.0000 N   0  0  0  0  0  0  0  0  0  0  0  0
    0.4889    3.0618    0.0000 C   0  0  0  0  0  0  0  0  0  0  0  0
    0.3173    3.8688    0.0000 N   0  0  0  0  0  0  0  0  0  0  0  0
   -0.1242    2.5098    0.0000 O   0  0  0  0  0  0  0  0  0  0  0  0
    3.3930    3.0618    0.0000 O   0  0  0  0  0  0  0  0  0  0  0  0
   -0.4673    4.1237    0.0000 C   0  0  0  0  0  0  0  0  0  0  0  0
   -0.6388    4.9307    0.0000 C   0  0  0  0  0  0  0  0  0  0  0  0
   -1.4234    5.1856    0.0000 C   0  0  0  0  0  0  0  0  0  0  0  0
   -2.0365    4.6336    0.0000 C   0  0  0  0  0  0  0  0  0  0  0  0
   -1.8650    3.8266    0.0000 C   0  0  0  0  0  0  0  0  0  0  0  0
   -1.0804    3.5717    0.0000 C   0  0  0  0  0  0  0  0  0  0  0  0
   -0.9089    2.7647    0.0000 C   0  0  0  0  0  0  0  0  0  0  0  0
   -2.4781    3.2746    0.0000 Cl  0  0  0  0  0  0  0  0  0  0  0  0
  1  6  1  0
  1  2  1  0
  2  3  1  0
  3 11  1  0
  3  4  1  0
  4  5  1  0
  5  6  1  0
  7 11  1  0
  7 15  2  0
  7  8  1  0
  8  9  1  0
  9 12  1  1
  9 10  1  0
 10 11  1  0
 12 13  1  0
 12 14  2  0
 13 16  1  0
 16 21  1  0
 16 17  2  0
 17 18  1  0
 18 19  2  0
 19 20  1  0
 20 21  2  0
 20 23  1  0
 21 22  1  0
M  END
>  <DRUGBANK_ID>  (1) 
DB07090

>  <COMMON_NAME>  (1) 
(3S)-N-(3-CHLORO-2-METHYLPHENYL)-1-CYCLOHEXYL-5-OXOPYRROLIDINE-3-CARBOXAMIDE

$$$$
