
     RDKit          2D

 12 12  0  0  0  0  0  0  0  0999 V2000
    1.6500   -0.3561    0.0000 C   0  0  0  0  0  0  0  0  0  0  0  0
    0.8250   -0.3561    0.0000 C   0  0  0  0  0  0  0  0  0  0  0  0
    2.0625   -1.0711    0.0000 O   0  0  0  0  0  0  0  0  0  0  0  0
    0.4125    0.3561    0.0000 C   0  0  0  0  0  0  0  0  0  0  0  0
    2.0625    0.3561    0.0000 N   0  0  0  0  0  0  0  0  0  0  0  0
    0.4125   -1.0711    0.0000 N   0  0  0  0  0  0  0  0  0  0  0  0
   -0.4125    0.3561    0.0000 C   0  0  0  0  0  0  0  0  0  0  0  0
   -0.8250   -0.3561    0.0000 C   0  0  0  0  0  0  0  0  0  0  0  0
   -0.8250    1.0711    0.0000 C   0  0  0  0  0  0  0  0  0  0  0  0
   -1.6500    1.0711    0.0000 C   0  0  0  0  0  0  0  0  0  0  0  0
   -1.6500   -0.3561    0.0000 C   0  0  0  0  0  0  0  0  0  0  0  0
   -2.0625    0.3561    0.0000 C   0  0  0  0  0  0  0  0  0  0  0  0
  2  1  1  0
  2  6  1  1
  3  1  2  0
  4  2  1  0
  5  1  1  0
  7  4  1  0
  8  7  2  0
  9  7  1  0
 10  9  2  0
 11  8  1  0
 11 12  2  0
 12 10  1  0
M  END
>  <DRUGBANK_ID>  (1) 
DB04029

>  <SECONDARY_ACCESSION_NUMBERS>  (1) 
EXPT02329

>  <COMMON_NAME>  (1) 
Phenylalanylamide

>  <CAS_NUMBER>  (1) 
5241-58-7

>  <UNII>  (1) 
PV9T9B2S11

>  <SYNONYMS>  (1) 
(S)-2-amino-3-phenylpropanamide; L-phenylalanine amide; Phenylalaninamide; Phenylalanine amide

$$$$
