
     RDKit          2D

 12 12  0  0  0  0  0  0  0  0999 V2000
   -1.1312    2.3719    0.0000 C   0  0  0  0  0  0  0  0  0  0  0  0
   -0.4168    1.9594    0.0000 C   0  0  0  0  0  0  0  0  0  0  0  0
    1.0122   -1.3406    0.0000 C   0  0  0  0  0  0  0  0  0  0  0  0
    1.0122   -0.5155    0.0000 C   0  0  0  0  0  0  0  0  0  0  0  0
    0.2977   -1.7531    0.0000 C   0  0  0  0  0  0  0  0  0  0  0  0
   -0.4168   -0.5155    0.0000 C   0  0  0  0  0  0  0  0  0  0  0  0
    0.2977   -0.1031    0.0000 C   0  0  0  0  0  0  0  0  0  0  0  0
   -0.4168   -1.3406    0.0000 C   0  0  0  0  0  0  0  0  0  0  0  0
    0.2977    0.7219    0.0000 C   0  0  0  0  0  0  0  0  0  0  0  0
   -1.1312   -1.7531    0.0000 N   0  0  0  0  0  0  0  0  0  0  0  0
    1.0122    1.1344    0.0000 O   0  0  0  0  0  0  0  0  0  0  0  0
   -0.4168    1.1344    0.0000 O   0  0  0  0  0  0  0  0  0  0  0  0
  2  1  1  0
  4  3  2  0
  5  3  1  0
  7  4  1  0
  7  6  2  0
  8  5  2  0
  8  6  1  0
  9  7  1  0
 10  8  1  0
 11  9  2  0
 12  2  1  0
 12  9  1  0
M  END
>  <DRUGBANK_ID>  (1) 
DB11552

>  <COMMON_NAME>  (1) 
Tricaine

>  <CAS_NUMBER>  (1) 
582-33-2

>  <UNII>  (1) 
02591PHL19

>  <SYNONYMS>  (1) 
Tricaine mesylate

$$$$
