
     RDKit          2D

 31 32  0  0  0  0  0  0  0  0999 V2000
    3.2695    3.3727    0.0000 Cl  0  0  0  0  0  0  0  0  0  0  0  0
   -0.4821    2.9050    0.0000 O   0  0  0  0  0  0  0  0  0  0  0  0
   -1.5087    2.4479    0.0000 O   0  0  0  0  0  0  0  0  0  0  0  0
    2.9265    1.7587    0.0000 O   0  0  0  0  0  0  0  0  0  0  0  0
   -0.7942    1.2104    0.0000 N   0  0  0  0  0  0  0  0  0  0  0  0
    0.9156    2.6078    0.0000 N   0  0  0  0  0  0  0  0  0  0  0  0
   -2.2231    0.3853    0.0000 N   0  0  0  0  0  0  0  0  0  0  0  0
    2.4119   -0.6622    0.0000 N   0  0  0  0  0  0  0  0  0  0  0  0
    2.8534   -2.0212    0.0000 N   0  0  0  0  0  0  0  0  0  0  0  0
    1.4557   -1.7242    0.0000 N   0  0  0  0  0  0  0  0  0  0  0  0
   -0.0405    1.5459    0.0000 C   0  0  0  0  0  0  0  0  0  0  0  0
    0.5115    0.9327    0.0000 C   0  0  0  0  0  0  0  0  0  0  0  0
    0.0990    0.2183    0.0000 C   0  0  0  0  0  0  0  0  0  0  0  0
   -0.7080    0.3898    0.0000 C   0  0  0  0  0  0  0  0  0  0  0  0
    0.1309    2.3528    0.0000 C   0  0  0  0  0  0  0  0  0  0  0  0
   -1.5087    1.6229    0.0000 C   0  0  0  0  0  0  0  0  0  0  0  0
    1.5287    2.0558    0.0000 C   0  0  0  0  0  0  0  0  0  0  0  0
   -2.2232    1.2104    0.0000 C   0  0  0  0  0  0  0  0  0  0  0  0
    1.3572    1.2488    0.0000 C   0  0  0  0  0  0  0  0  0  0  0  0
    2.3133    2.3107    0.0000 C   0  0  0  0  0  0  0  0  0  0  0  0
   -2.9376    1.6229    0.0000 C   0  0  0  0  0  0  0  0  0  0  0  0
    1.9703    0.6968    0.0000 C   0  0  0  0  0  0  0  0  0  0  0  0
    2.4849    3.1177    0.0000 C   0  0  0  0  0  0  0  0  0  0  0  0
   -3.6521    1.2104    0.0000 C   0  0  0  0  0  0  0  0  0  0  0  0
    1.7988   -0.1102    0.0000 C   0  0  0  0  0  0  0  0  0  0  0  0
   -4.3666    1.6229    0.0000 C   0  0  0  0  0  0  0  0  0  0  0  0
   -3.6521    0.3854    0.0000 C   0  0  0  0  0  0  0  0  0  0  0  0
   -5.0811    1.2104    0.0000 C   0  0  0  0  0  0  0  0  0  0  0  0
   -4.3666   -0.0271    0.0000 C   0  0  0  0  0  0  0  0  0  0  0  0
   -5.0811    0.3854    0.0000 C   0  0  0  0  0  0  0  0  0  0  0  0
    2.2403   -1.4692    0.0000 C   0  0  0  0  0  0  0  0  0  0  0  0
  1 23  1  0
  2 15  2  0
  3 16  2  0
  5 11  1  0
  5 14  1  0
  5 16  1  0
  6 15  1  0
  8 25  1  0
  8 31  2  3
  9 31  1  0
 10 31  1  0
 11 12  1  0
 11 15  1  6
 12 13  1  0
 13 14  1  0
 16 18  1  0
 17  6  1  0
 17 19  1  6
 17 20  1  0
 18  7  1  6
 18 21  1  0
 19 22  1  0
 20  4  1  1
 20 23  1  0
 21 24  1  0
 22 25  1  0
 24 26  2  0
 24 27  1  0
 26 28  1  0
 27 29  2  0
 28 30  2  0
 29 30  1  0
M  CHG  1   7   1
M  END
>  <DRUGBANK_ID>  (1) 
DB06841

>  <COMMON_NAME>  (1) 
[(2R)-1-[(2S)-2-[[(2S,3S)-1-Chloro-6-(diaminomethylideneamino)-2-hydroxyhexan-3-yl]carbamoyl]pyrrolidin-1-yl]-1-oxo-3-phenylpropan-2-yl]azanium

$$$$
