
     RDKit          2D

  5  4  0  0  1  0  0  0  0  0999 V2000
    2.0625   -0.7145    0.0000 C   0  0  0  0  0  0  0  0  0  0  0  0
    1.2375   -0.7145    0.0000 C   0  0  0  0  0  0  0  0  0  0  0  0
    0.8250   -1.4289    0.0000 Cl  0  0  0  0  0  0  0  0  0  0  0  0
    0.8250    0.0000    0.0000 C   0  0  0  0  0  0  0  0  0  0  0  0
    0.0000    0.0000    0.0000 Cl  0  0  0  0  0  0  0  0  0  0  0  0
  2  1  1  1
  2  3  1  0
  2  4  1  0
  4  5  1  0
M  END
>  <DRUGBANK_ID>  (1) 
DB01701

>  <SECONDARY_ACCESSION_NUMBERS>  (1) 
EXPT00992

>  <COMMON_NAME>  (1) 
1,2-Dichloro-Propane

>  <CAS_NUMBER>  (1) 
78-87-5

>  <UNII>  (1) 
RRZ023OFWL

$$$$
