
     RDKit          2D

  6  6  0  0  0  0  0  0  0  0999 V2000
    0.5678    1.9393    0.0000 C   0  0  0  0  0  0  0  0  0  0  0  0
   -0.0997    0.6294    0.0000 C   0  0  0  0  0  0  0  0  0  0  0  0
    0.1553   -0.1553    0.0000 C   0  0  0  0  0  0  0  0  0  0  0  0
    1.2352    0.6294    0.0000 C   0  0  0  0  0  0  0  0  0  0  0  0
    0.5678    1.1143    0.0000 C   0  0  0  0  0  0  0  0  0  0  0  0
    0.9803   -0.1553    0.0000 N   0  0  0  0  0  0  0  0  0  0  0  0
  3  2  2  0
  5  1  1  0
  5  2  1  0
  5  4  2  0
  6  3  1  0
  6  4  1  0
M  END
>  <DRUGBANK_ID>  (1) 
DB01932

>  <SECONDARY_ACCESSION_NUMBERS>  (1) 
EXPT00253

>  <COMMON_NAME>  (1) 
5-Methylpyrrole

>  <CAS_NUMBER>  (1) 
616-43-3

$$$$
