JI3
     RDKit          2D

 26 28  0  0  0  0  0  0  0  0999 V2000
    4.8699    2.0273    0.0000 C   0  0  0  0  0  0  0  0  0  0  0  0
    5.5843    2.4398    0.0000 C   0  0  0  0  0  0  0  0  0  0  0  0
    5.5843    3.2648    0.0000 C   0  0  0  0  0  0  0  0  0  0  0  0
    6.2988    3.6773    0.0000 Cl  0  0  0  0  0  0  0  0  0  0  0  0
    4.8699    3.6773    0.0000 C   0  0  0  0  0  0  0  0  0  0  0  0
    4.1554    3.2648    0.0000 C   0  0  0  0  0  0  0  0  0  0  0  0
    4.1554    2.4398    0.0000 C   0  0  0  0  0  0  0  0  0  0  0  0
   -3.2390    1.3394    0.0000 C   0  0  0  0  0  0  0  0  0  0  0  0
   -3.8521    1.8914    0.0000 N   0  0  0  0  0  0  0  0  0  0  0  0
   -3.4105    0.5324    0.0000 C   0  0  0  0  0  0  0  0  0  0  0  0
   -2.7974   -0.0196    0.0000 C   0  0  0  0  0  0  0  0  0  0  0  0
   -2.0128    0.2353    0.0000 C   0  0  0  0  0  0  0  0  0  0  0  0
   -1.8412    1.0423    0.0000 C   0  0  0  0  0  0  0  0  0  0  0  0
   -2.4543    1.5943    0.0000 N   0  0  0  0  0  0  0  0  0  0  0  0
   -1.0246    3.4318    0.0000 N   0  0  0  0  0  0  0  0  0  0  0  0
   -0.2177    3.2603    0.0000 C   0  0  0  0  0  0  0  0  0  0  0  0
   -0.1314    2.4398    0.0000 C   0  0  0  0  0  0  0  0  0  0  0  0
   -0.8851    2.1042    0.0000 C   0  0  0  0  0  0  0  0  0  0  0  0
   -1.4371    2.7173    0.0000 C   0  0  0  0  0  0  0  0  0  0  0  0
   -1.0566    1.2973    0.0000 C   0  0  0  0  0  0  0  0  0  0  0  0
   -2.9689   -0.8266    0.0000 C   0  0  0  0  0  0  0  0  0  0  0  0
    0.5830    2.0273    0.0000 N   0  0  0  0  0  0  0  0  0  0  0  0
    1.2975    2.4398    0.0000 C   0  0  0  0  0  0  0  0  0  0  0  0
    2.0120    2.0273    0.0000 C   0  0  0  0  0  0  0  0  0  0  0  0
    2.7265    2.4398    0.0000 N   0  0  0  0  0  0  0  0  0  0  0  0
    3.4409    2.0273    0.0000 C   0  0  0  0  0  0  0  0  0  0  0  0
  1  7  2  0
  1  2  1  0
  2  3  2  0
  3  5  1  0
  3  4  1  0
  5  6  2  0
  6  7  1  0
  7 26  1  0
  8 14  2  0
  8  9  1  0
  8 10  1  0
 10 11  2  0
 11 12  1  0
 11 21  1  0
 12 13  2  0
 13 20  1  0
 13 14  1  0
 15 16  1  0
 15 19  1  0
 16 17  1  0
 17 22  1  1
 17 18  1  0
 18 20  1  1
 18 19  1  0
 22 23  1  0
 23 24  1  0
 24 25  1  0
 25 26  1  0
M  END
>  <DRUGBANK_ID>  (1) 
DB08018

>  <COMMON_NAME>  (1) 
N-{(3S,4S)-4-[(6-AMINO-4-METHYLPYRIDIN-2-YL)METHYL]PYRROLIDIN-3-YL}-N'-(4-CHLOROBENZYL)ETHANE-1,2-DIAMINE

$$$$
