
     RDKit          2D

 25 24  0  0  1  0  0  0  0  0999 V2000
    2.0625   -0.7145    0.0000 C   0  0  0  0  0  0  0  0  0  0  0  0
    0.6336   -0.7145    0.0000 C   0  0  0  0  0  0  0  0  0  0  0  0
    5.6349   -0.3020    0.0000 C   0  0  0  0  0  0  0  0  0  0  0  0
    1.3480    0.5230    0.0000 C   0  0  0  0  0  0  0  0  0  0  0  0
    2.7770   -0.3020    0.0000 C   0  0  0  0  0  0  0  0  0  0  0  0
    4.9204   -0.7145    0.0000 C   0  0  0  0  0  0  0  0  0  0  0  0
    0.6336   -1.5395    0.0000 C   0  0  0  0  0  0  0  0  0  0  0  0
    3.4914   -0.7145    0.0000 C   0  0  0  0  0  0  0  0  0  0  0  0
    4.2059   -0.3020    0.0000 C   0  0  0  0  0  0  0  0  0  0  0  0
    1.3480   -0.3020    0.0000 N   0  0  0  0  0  0  0  0  0  0  0  0
    2.7770    0.5230    0.0000 O   0  0  0  0  0  0  0  0  0  0  0  0
    4.9204   -1.5395    0.0000 O   0  0  0  0  0  0  0  0  0  0  0  0
    1.3480   -1.9520    0.0000 O   0  0  0  0  0  0  0  0  0  0  0  0
   -0.0809   -1.9520    0.0000 O   0  0  0  0  0  0  0  0  0  0  0  0
    3.4914   -1.5395    0.0000 O   0  0  0  0  0  0  0  0  0  0  0  0
    4.2059    0.5230    0.0000 O   0  0  0  0  0  0  0  0  0  0  0  0
    0.2211    0.2211    0.0000 O   0  0  0  0  0  0  0  0  0  0  0  0
   -0.0809    1.3480    0.0000 O   0  0  0  0  0  0  0  0  0  0  0  0
    1.0461    1.6500    0.0000 O   0  0  0  0  0  0  0  0  0  0  0  0
    7.7783    0.1105    0.0000 O   0  0  0  0  0  0  0  0  0  0  0  0
    7.4763   -1.0164    0.0000 O   0  0  0  0  0  0  0  0  0  0  0  0
    6.6513    0.4125    0.0000 O   0  0  0  0  0  0  0  0  0  0  0  0
    6.3493   -0.7145    0.0000 O   0  0  0  0  0  0  0  0  0  0  0  0
    0.6336    0.9355    0.0000 P   0  0  0  0  0  0  0  0  0  0  0  0
    7.0638   -0.3020    0.0000 P   0  0  0  0  0  0  0  0  0  0  0  0
  5  1  1  0
  5 11  1  1
  6  3  1  0
  6 12  1  1
  7  2  1  0
  8  5  1  0
  8 15  1  6
  9  6  1  0
  9  8  1  0
  9 16  1  6
 10  1  1  0
 10  2  1  0
 10  4  1  0
 13  7  1  0
 14  7  1  0
 23  3  1  0
 24  4  1  0
 24 17  1  0
 24 18  1  0
 24 19  2  0
 25 20  1  0
 25 21  1  0
 25 22  2  0
 25 23  1  0
M  END
>  <DRUGBANK_ID>  (1) 
DB02433

>  <SECONDARY_ACCESSION_NUMBERS>  (1) 
EXPT02492

>  <COMMON_NAME>  (1) 
{[(2,2-Dihydroxy-Ethyl)-(2,3,4,5-Tetrahydroxy-6-Phosphonooxy-Hexyl)-Amino]-Methyl}-Phosphonic Acid

$$$$
