
     RDKit          2D

 24 23  0  0  0  0  0  0  0  0999 V2000
   -0.0073   -0.2211    0.0000 C   0  0  0  0  0  0  0  0  0  0  0  0
   -0.6982   -0.5832    0.0000 C   0  0  0  0  0  0  0  0  0  0  0  0
    0.6946   -0.6087    0.0000 C   0  0  0  0  0  0  0  0  0  0  0  0
   -0.0036    0.6087    0.0000 C   0  0  0  0  0  0  0  0  0  0  0  0
   -1.4002   -0.1773    0.0000 C   0  0  0  0  0  0  0  0  0  0  0  0
    1.4221   -0.2211    0.0000 C   0  0  0  0  0  0  0  0  0  0  0  0
   -2.1533   -0.5905    0.0000 C   0  0  0  0  0  0  0  0  0  0  0  0
    2.1131   -0.6234    0.0000 C   0  0  0  0  0  0  0  0  0  0  0  0
   -2.8845   -0.1553    0.0000 C   0  0  0  0  0  0  0  0  0  0  0  0
    2.8443   -0.2505    0.0000 C   0  0  0  0  0  0  0  0  0  0  0  0
   -3.6049   -0.5575    0.0000 C   0  0  0  0  0  0  0  0  0  0  0  0
   -2.8845    0.6744    0.0000 C   0  0  0  0  0  0  0  0  0  0  0  0
    3.5902   -0.6745    0.0000 C   0  0  0  0  0  0  0  0  0  0  0  0
    2.8443    0.5465    0.0000 C   0  0  0  0  0  0  0  0  0  0  0  0
   -4.3433   -0.1152    0.0000 C   0  0  0  0  0  0  0  0  0  0  0  0
    4.3396   -0.2505    0.0000 C   0  0  0  0  0  0  0  0  0  0  0  0
   -5.0562   -0.5173    0.0000 C   0  0  0  0  0  0  0  0  0  0  0  0
    5.0013   -0.7074    0.0000 C   0  0  0  0  0  0  0  0  0  0  0  0
   -5.7691   -0.1152    0.0000 C   0  0  0  0  0  0  0  0  0  0  0  0
    5.7325   -0.3162    0.0000 C   0  0  0  0  0  0  0  0  0  0  0  0
   -6.5077   -0.4953    0.0000 C   0  0  0  0  0  0  0  0  0  0  0  0
   -5.7801    0.7074    0.0000 C   0  0  0  0  0  0  0  0  0  0  0  0
    6.5077   -0.6745    0.0000 C   0  0  0  0  0  0  0  0  0  0  0  0
    5.7399    0.5392    0.0000 O   0  0  0  0  0  0  0  0  0  0  0  0
  1  2  1  0
  1  3  2  0
  1  4  1  0
  2  5  1  0
  3  6  1  0
  5  7  1  0
  6  8  1  0
  7  9  2  0
  8 10  1  0
  9 11  1  0
  9 12  1  0
 10 13  2  0
 10 14  1  0
 11 15  1  0
 13 16  1  0
 15 17  1  0
 16 18  1  0
 17 19  2  3
 18 20  1  0
 19 21  1  0
 19 22  1  0
 20 23  1  0
 20 24  2  0
M  END
>  <DRUGBANK_ID>  (1) 
DB15955

>  <COMMON_NAME>  (1) 
Teprenone

>  <CAS_NUMBER>  (1) 
6809-52-5

>  <UNII>  (1) 
57B67OXM8F

>  <SYNONYMS>  (1) 
Geranylgeranylacetone; Teprenona; Teprenone; Teprenonum; Tetraprenylacetone

$$$$
