TCM
     RDKit          2D

 11 12  0  0  0  0  0  0  0  0999 V2000
   -0.1647   -0.6259    0.0000 C   0  0  0  0  0  0  0  0  0  0  0  0
   -0.9403   -1.0163    0.0000 C   0  0  0  0  0  0  0  0  0  0  0  0
   -0.5749   -0.3557    0.0000 C   0  0  0  0  0  0  0  0  0  0  0  0
    0.0654    0.0945    0.0000 C   0  0  0  0  0  0  0  0  0  0  0  0
    0.8609   -0.3708    0.0000 C   0  0  0  0  0  0  0  0  0  0  0  0
    0.5658   -0.9963    0.0000 C   0  0  0  0  0  0  0  0  0  0  0  0
   -0.0946    0.9100    0.0000 C   0  0  0  0  0  0  0  0  0  0  0  0
   -0.6743    1.4969    0.0000 C   0  0  0  0  0  0  0  0  0  0  0  0
    0.3922    1.5761    0.0000 C   0  0  0  0  0  0  0  0  0  0  0  0
   -0.1658   -1.4509    0.0000 C   0  0  0  0  0  0  0  0  0  0  0  0
   -1.5349   -1.5881    0.0000 S   0  0  0  0  0  0  0  0  0  0  0  0
  1  2  1  0
  1  6  1  0
  1  7  1  0
  1 10  1  6
  2  3  1  0
  2 11  2  0
  4  3  1  6
  4  5  1  0
  4  7  1  0
  5  6  1  0
  7  8  1  0
  7  9  1  0
M  END
>  <DRUGBANK_ID>  (1) 
DB02851

>  <SECONDARY_ACCESSION_NUMBERS>  (1) 
EXPT03025

>  <COMMON_NAME>  (1) 
Thiocamphor

>  <CAS_NUMBER>  (1) 
7519-74-6

>  <UNII>  (1) 
7WA22E7HFY

$$$$
