
     RDKit          2D

 16 17  0  0  1  0  0  0  0  0999 V2000
    2.0367    1.1759    0.0000 C   0  0  0  0  0  0  0  0  0  0  0  0
    2.0367    2.0009    0.0000 C   0  0  0  0  0  0  0  0  0  0  0  0
    2.7512    2.4134    0.0000 C   0  0  0  0  0  0  0  0  0  0  0  0
    3.4656    2.0009    0.0000 N   0  0  0  0  0  0  0  0  0  0  0  0
    3.4656    1.1759    0.0000 C   0  0  0  0  0  0  0  0  0  0  0  0
    4.1801    0.7634    0.0000 O   0  0  0  0  0  0  0  0  0  0  0  0
    2.7512    0.7634    0.0000 N   0  0  0  0  0  0  0  0  0  0  0  0
    2.7512   -0.0616    0.0000 C   0  0  0  0  0  0  0  0  0  0  0  0
    3.4186   -0.5465    0.0000 C   0  0  0  0  0  0  0  0  0  0  0  0
    3.1637   -1.3312    0.0000 C   0  0  0  0  0  0  0  0  0  0  0  0
    2.3387   -1.3312    0.0000 C   0  0  0  0  0  0  0  0  0  0  0  0
    2.0837   -0.5465    0.0000 O   0  0  0  0  0  0  0  0  0  0  0  0
    1.8538   -1.9986    0.0000 C   0  0  0  0  0  0  0  0  0  0  0  0
    2.1893   -2.7523    0.0000 O   0  0  0  0  0  0  0  0  0  0  0  0
    2.7512    3.2384    0.0000 N   0  0  0  0  0  0  0  0  0  0  0  0
    1.3222    2.4134    0.0000 F   0  0  0  0  0  0  0  0  0  0  0  0
  1  2  2  0
  1  7  1  0
  2  3  1  0
  2 16  1  0
  3  4  2  0
  3 15  1  0
  4  5  1  0
  5  6  2  0
  5  7  1  0
  8  7  1  6
  8  9  1  0
  8 12  1  0
  9 10  2  0
 10 11  1  0
 11 12  1  0
 11 13  1  6
 13 14  1  0
M  END
>  <DRUGBANK_ID>  (1) 
DB06236

>  <COMMON_NAME>  (1) 
Elvucitabine

>  <CAS_NUMBER>  (1) 
181785-84-2

>  <UNII>  (1) 
M09BUF90C0

>  <SYNONYMS>  (1) 
B-L-Fd4C; Elvucitabine

$$$$
