8BD
     RDKit          2D

 16 16  0  0  0  0  0  0  0  0999 V2000
    0.9449    0.6286    0.0000 C   0  0  0  0  0  0  0  0  0  0  0  0
    0.2304    0.2161    0.0000 O   0  0  0  0  0  0  0  0  0  0  0  0
   -0.4841    0.6286    0.0000 C   0  0  0  0  0  0  0  0  0  0  0  0
   -0.4841    1.4536    0.0000 C   0  0  0  0  0  0  0  0  0  0  0  0
   -1.1985    1.8661    0.0000 C   0  0  0  0  0  0  0  0  0  0  0  0
   -1.9130    1.4536    0.0000 C   0  0  0  0  0  0  0  0  0  0  0  0
   -1.9130    0.6286    0.0000 C   0  0  0  0  0  0  0  0  0  0  0  0
   -1.1985    0.2161    0.0000 C   0  0  0  0  0  0  0  0  0  0  0  0
   -1.1985   -0.6089    0.0000 C   0  0  0  0  0  0  0  0  0  0  0  0
   -0.4841   -1.0214    0.0000 N   0  0  0  0  0  0  0  0  0  0  0  0
    0.2304   -0.6089    0.0000 O   0  0  0  0  0  0  0  0  0  0  0  0
    0.9449   -1.0214    0.0000 C   0  0  0  0  0  0  0  0  0  0  0  0
    1.6593   -0.6089    0.0000 C   0  0  0  0  0  0  0  0  0  0  0  0
    2.3738   -1.0214    0.0000 C   0  0  0  0  0  0  0  0  0  0  0  0
    2.3738   -1.8464    0.0000 O   0  0  0  0  0  0  0  0  0  0  0  0
    3.0883   -0.6089    0.0000 O   0  0  0  0  0  0  0  0  0  0  0  0
  2  1  1  0
  2  3  1  0
  3  8  2  0
  4  3  1  0
  4  5  2  0
  5  6  1  0
  6  7  2  0
  8  7  1  0
  8  9  1  0
  9 10  2  0
 10 11  1  0
 11 12  1  0
 12 13  1  0
 13 14  1  0
 14 16  2  0
 14 15  1  0
M  END
>  <DRUGBANK_ID>  (1) 
DB07282

>  <COMMON_NAME>  (1) 
3-({[(1Z)-(2-methoxyphenyl)methylidene]amino}oxy)propanoic acid

$$$$
