ZYR
     RDKit          2D

 14 16  0  0  0  0  0  0  0  0999 V2000
   -0.7409    1.2523    0.0000 O   0  0  0  0  0  0  0  0  0  0  0  0
   -0.9959    0.4677    0.0000 C   0  0  0  0  0  0  0  0  0  0  0  0
   -0.4438   -0.1454    0.0000 C   0  0  0  0  0  0  0  0  0  0  0  0
    0.3812   -0.1454    0.0000 C   0  0  0  0  0  0  0  0  0  0  0  0
    0.9332    0.4677    0.0000 C   0  0  0  0  0  0  0  0  0  0  0  0
    1.7402    0.2962    0.0000 C   0  0  0  0  0  0  0  0  0  0  0  0
    1.9951   -0.4884    0.0000 C   0  0  0  0  0  0  0  0  0  0  0  0
    1.4431   -1.1015    0.0000 C   0  0  0  0  0  0  0  0  0  0  0  0
    0.6361   -0.9300    0.0000 C   0  0  0  0  0  0  0  0  0  0  0  0
   -0.0313   -1.4149    0.0000 S   0  0  0  0  0  0  0  0  0  0  0  0
   -0.6988   -0.9300    0.0000 C   0  0  0  0  0  0  0  0  0  0  0  0
   -1.5058   -1.1015    0.0000 N   0  0  0  0  0  0  0  0  0  0  0  0
   -2.0578   -0.4884    0.0000 C   0  0  0  0  0  0  0  0  0  0  0  0
   -1.8028    0.2962    0.0000 N   0  0  0  0  0  0  0  0  0  0  0  0
  1  2  2  0
  2  3  1  0
  2 14  1  0
  3  4  1  0
  3 11  2  0
  4  5  1  0
  4  9  2  0
  5  6  1  0
  6  7  1  0
  7  8  1  0
  8  9  1  0
  9 10  1  0
 10 11  1  0
 11 12  1  0
 12 13  2  0
 13 14  1  0
M  END
>  <DRUGBANK_ID>  (1) 
DB08777

>  <COMMON_NAME>  (1) 
5,6,7,8-TETRAHYDRO[1]BENZOTHIENO[2,3-D]PYRIMIDIN-4(3H)-ONE

>  <UNII>  (1) 
2QH62B6VZS

$$$$
