
     RDKit          2D

 17 17  0  0  1  0  0  0  0  0999 V2000
    1.4289    0.8250    0.0000 C   0  0  0  0  0  0  0  0  0  0  0  0
    0.7145    1.2375    0.0000 C   0  0  0  0  0  0  0  0  0  0  0  0
    1.4289   -0.0000    0.0000 C   0  0  0  0  0  0  0  0  0  0  0  0
    0.0000    0.8250    0.0000 C   0  0  0  0  0  0  0  0  0  0  0  0
    2.1434   -0.4125    0.0000 C   0  0  0  0  0  0  0  0  0  0  0  0
    0.0000    0.0000    0.0000 C   0  0  0  0  0  0  0  0  0  0  0  0
    2.1434    1.2375    0.0000 O   0  0  0  0  0  0  0  0  0  0  0  0
    0.7145    2.0625    0.0000 O   0  0  0  0  0  0  0  0  0  0  0  0
    2.1434   -1.2375    0.0000 O   0  0  0  0  0  0  0  0  0  0  0  0
    2.8579   -0.0000    0.0000 O   0  0  0  0  0  0  0  0  0  0  0  0
   -0.7145   -0.4125    0.0000 O   0  0  0  0  0  0  0  0  0  0  0  0
   -2.1434    0.4125    0.0000 O   0  0  0  0  0  0  0  0  0  0  0  0
   -1.8414    1.5395    0.0000 O   0  0  0  0  0  0  0  0  0  0  0  0
   -1.0164    0.1105    0.0000 O   0  0  0  0  0  0  0  0  0  0  0  0
    0.7145   -0.4125    0.0000 O   0  0  0  0  0  0  0  0  0  0  0  0
   -0.7145    1.2375    0.0000 O   0  0  0  0  0  0  0  0  0  0  0  0
   -1.4289    0.8250    0.0000 S   0  0  0  0  0  0  0  0  0  0  0  0
  1  7  1  6
  2  1  1  0
  2  8  1  1
  3  1  1  0
  3  5  1  6
  4  2  1  0
  4 16  1  6
  6  4  1  0
  6 11  1  1
  9  5  1  0
 10  5  2  0
 15  3  1  0
 15  6  1  0
 17 12  1  0
 17 13  2  0
 17 14  2  0
 17 16  1  0
M  END
>  <DRUGBANK_ID>  (1) 
DB02264

>  <SECONDARY_ACCESSION_NUMBERS>  (1) 
EXPT01843

>  <COMMON_NAME>  (1) 
O2-Sulfo-Glucuronic Acid

$$$$
