
     RDKit          2D

  7  6  0  0  0  0  0  0  0  0999 V2000
   -1.2389    0.3567    0.0000 C   0  0  0  0  0  0  0  0  0  0  0  0
   -0.4138    0.3567    0.0000 C   0  0  0  0  0  0  0  0  0  0  0  0
    0.0000    1.0728    0.0000 O   0  0  0  0  0  0  0  0  0  0  0  0
    0.0000   -0.3567    0.0000 C   0  0  0  0  0  0  0  0  0  0  0  0
   -0.4138   -1.0728    0.0000 N   0  0  0  0  0  0  0  0  0  0  0  0
    0.8250   -0.3567    0.0000 C   0  0  0  0  0  0  0  0  0  0  0  0
    1.2389   -1.0728    0.0000 O   0  0  0  0  0  0  0  0  0  0  0  0
  2  1  1  1
  2  3  1  0
  2  4  1  0
  4  5  1  1
  4  6  1  0
  6  7  1  0
M  END
>  <DRUGBANK_ID>  (1) 
DB01724

>  <SECONDARY_ACCESSION_NUMBERS>  (1) 
EXPT03054

>  <COMMON_NAME>  (1) 
L-Threoninol

>  <CAS_NUMBER>  (1) 
3228-51-1

>  <UNII>  (1) 
A16V466XOD

$$$$
