
     RDKit          2D

 37 41  0  0  0  0  0  0  0  0999 V2000
    0.2184   -0.0099    0.0000 N   0  0  0  0  0  0  0  0  0  0  0  0
    0.9349    0.4033    0.0000 C   0  0  0  0  0  0  0  0  0  0  0  0
    0.9321    1.2338    0.0000 N   0  0  0  0  0  0  0  0  0  0  0  0
    0.2166    1.6430    0.0000 C   0  0  0  0  0  0  0  0  0  0  0  0
   -0.4962    0.4028    0.0000 C   0  0  0  0  0  0  0  0  0  0  0  0
   -0.4950    1.2318    0.0000 C   0  0  0  0  0  0  0  0  0  0  0  0
   -1.2831    1.4891    0.0000 N   0  0  0  0  0  0  0  0  0  0  0  0
   -1.7713    0.8192    0.0000 C   0  0  0  0  0  0  0  0  0  0  0  0
   -1.2851    0.1479    0.0000 N   0  0  0  0  0  0  0  0  0  0  0  0
    0.2148    2.4680    0.0000 N   0  0  0  0  0  0  0  0  0  0  0  0
    0.9284    2.8821    0.0000 C   0  0  0  0  0  0  0  0  0  0  0  0
    0.9266    3.7071    0.0000 N   0  0  0  0  0  0  0  0  0  0  0  0
    1.6438    2.4711    0.0000 O   0  0  0  0  0  0  0  0  0  0  0  0
    1.6402    4.1212    0.0000 C   0  0  0  0  0  0  0  0  0  0  0  0
    2.3556    3.7103    0.0000 C   0  0  0  0  0  0  0  0  0  0  0  0
   -1.2896   -0.6740    0.0000 C   0  0  0  0  0  0  0  0  0  0  0  0
   -1.9608   -1.1560    0.0000 O   0  0  0  0  0  0  0  0  0  0  0  0
   -1.7112   -1.9392    0.0000 C   0  0  0  0  0  0  0  0  0  0  0  0
   -0.6310   -1.1634    0.0000 C   0  0  0  0  0  0  0  0  0  0  0  0
   -0.8873   -1.9487    0.0000 C   0  0  0  0  0  0  0  0  0  0  0  0
   -0.2195   -2.4352    0.0000 O   0  0  0  0  0  0  0  0  0  0  0  0
    0.4492   -1.9504    0.0000 C   0  0  0  0  0  0  0  0  0  0  0  0
    0.1949   -1.1645    0.0000 O   0  0  0  0  0  0  0  0  0  0  0  0
    1.2336   -2.2063    0.0000 C   0  0  0  0  0  0  0  0  0  0  0  0
    1.9439   -1.7865    0.0000 C   0  0  0  0  0  0  0  0  0  0  0  0
    2.6624   -2.1916    0.0000 C   0  0  0  0  0  0  0  0  0  0  0  0
    2.6662   -3.0168    0.0000 C   0  0  0  0  0  0  0  0  0  0  0  0
    3.3840   -3.4219    0.0000 C   0  0  0  0  0  0  0  0  0  0  0  0
    4.0953   -3.0019    0.0000 C   0  0  0  0  0  0  0  0  0  0  0  0
    4.0841   -2.1727    0.0000 C   0  0  0  0  0  0  0  0  0  0  0  0
    3.3657   -1.7714    0.0000 C   0  0  0  0  0  0  0  0  0  0  0  0
   -2.1231   -2.6534    0.0000 C   0  0  0  0  0  0  0  0  0  0  0  0
   -2.9482   -2.6538    0.0000 O   0  0  0  0  0  0  0  0  0  0  0  0
   -3.3603   -3.3685    0.0000 P   0  0  0  0  0  0  0  0  0  0  0  0
   -3.6965   -4.1212    0.0000 O   0  0  0  0  0  0  0  0  0  0  0  0
   -4.0953   -2.9937    0.0000 O   0  0  0  0  0  0  0  0  0  0  0  0
   -2.6258   -3.7439    0.0000 O   0  0  0  0  0  0  0  0  0  0  0  0
  1  2  2  0
  2  3  1  0
  3  4  2  0
  4  6  1  0
  4 10  1  0
  5  6  2  0
  5  1  1  0
  6  7  1  0
  7  8  2  0
  8  9  1  0
  9  5  1  0
 10 11  1  0
 11 12  1  0
 11 13  2  0
 12 14  1  0
 14 15  1  0
 16  9  1  1
 16 17  1  0
 17 18  1  0
 18 32  1  1
 18 20  1  0
 19 23  1  6
 19 16  1  0
 19 20  1  0
 20 21  1  6
 21 22  1  0
 22 23  1  0
 22 24  1  1
 24 25  2  0
 25 26  1  0
 26 27  2  0
 27 28  1  0
 28 29  2  0
 29 30  1  0
 30 31  2  0
 31 26  1  0
 32 33  1  0
 33 34  1  0
 34 35  1  0
 34 36  1  0
 34 37  2  0
M  END
>  <DRUGBANK_ID>  (1) 
DB05553

>  <COMMON_NAME>  (1) 
Regrelor

>  <CAS_NUMBER>  (1) 
787548-03-2

>  <UNII>  (1) 
Q6C8TY6SW1

>  <SYNONYMS>  (1) 
Regrelor

$$$$
