
     RDKit          2D

 33 38  0  0  0  0  0  0  0  0999 V2000
    0.6702    0.7552    0.0000 C   0  0  0  0  0  0  0  0  0  0  0  0
   -0.1143    0.5002    0.0000 C   0  0  0  0  0  0  0  0  0  0  0  0
    1.1551    0.0877    0.0000 C   0  0  0  0  0  0  0  0  0  0  0  0
    1.1551    1.4226    0.0000 O   0  0  0  0  0  0  0  0  0  0  0  0
    0.4330    1.4748    0.0000 C   0  0  0  0  0  0  0  0  0  0  0  0
   -0.1143   -0.3247    0.0000 C   0  0  0  0  0  0  0  0  0  0  0  0
   -0.8288    0.9127    0.0000 C   0  0  0  0  0  0  0  0  0  0  0  0
   -0.1685    1.3072    0.0000 C   0  0  0  0  0  0  0  0  0  0  0  0
    0.6702   -0.5796    0.0000 C   0  0  0  0  0  0  0  0  0  0  0  0
    1.9397    0.3427    0.0000 O   0  0  0  0  0  0  0  0  0  0  0  0
    1.9397    1.1677    0.0000 C   0  0  0  0  0  0  0  0  0  0  0  0
    0.9557    1.9722    0.0000 C   0  0  0  0  0  0  0  0  0  0  0  0
   -0.1439    1.7722    0.0000 O   0  0  0  0  0  0  0  0  0  0  0  0
   -0.8288   -0.7372    0.0000 C   0  0  0  0  0  0  0  0  0  0  0  0
   -1.5433    0.5002    0.0000 C   0  0  0  0  0  0  0  0  0  0  0  0
    2.7602    1.0814    0.0000 C   0  0  0  0  0  0  0  0  0  0  0  0
    2.1113    1.9747    0.0000 C   0  0  0  0  0  0  0  0  0  0  0  0
   -1.5433   -0.3247    0.0000 C   0  0  0  0  0  0  0  0  0  0  0  0
   -0.8288   -1.5622    0.0000 C   0  0  0  0  0  0  0  0  0  0  0  0
    3.2451    1.7489    0.0000 C   0  0  0  0  0  0  0  0  0  0  0  0
    3.0958    0.3278    0.0000 C   0  0  0  0  0  0  0  0  0  0  0  0
   -2.2577   -0.7372    0.0000 C   0  0  0  0  0  0  0  0  0  0  0  0
   -1.5433   -1.9747    0.0000 C   0  0  0  0  0  0  0  0  0  0  0  0
    4.0656    1.6627    0.0000 C   0  0  0  0  0  0  0  0  0  0  0  0
    3.9163    0.2415    0.0000 C   0  0  0  0  0  0  0  0  0  0  0  0
   -2.2577   -1.5622    0.0000 C   0  0  0  0  0  0  0  0  0  0  0  0
   -2.9722   -0.3247    0.0000 C   0  0  0  0  0  0  0  0  0  0  0  0
   -2.2577    0.0877    0.0000 C   0  0  0  0  0  0  0  0  0  0  0  0
    4.4012    0.9090    0.0000 C   0  0  0  0  0  0  0  0  0  0  0  0
   -2.9722   -1.9747    0.0000 C   0  0  0  0  0  0  0  0  0  0  0  0
   -3.6747   -0.7319    0.0000 C   0  0  0  0  0  0  0  0  0  0  0  0
   -3.6747   -1.5569    0.0000 C   0  0  0  0  0  0  0  0  0  0  0  0
   -4.4012   -1.9747    0.0000 O   0  0  0  0  0  0  0  0  0  0  0  0
  1  2  1  0
  1  3  1  0
  1  4  1  0
  1  5  1  1
  2  6  1  0
  2  7  1  0
  2  8  1  1
  3  9  1  6
  3 10  1  0
  4 11  1  0
  5 12  1  0
  5 13  2  0
  6 14  1  0
  6  9  1  1
  7 15  1  0
 10 11  1  0
 11 16  1  0
 11 17  1  1
 14 18  1  0
 14 19  1  6
 18 15  1  1
 16 20  2  0
 16 21  1  0
 18 22  1  0
 19 23  1  0
 20 24  1  0
 21 25  2  0
 22 26  1  0
 22 27  1  0
 22 28  1  1
 23 26  1  0
 24 29  2  0
 25 29  1  0
 26 30  2  0
 27 31  1  0
 30 32  1  0
 31 32  1  0
 32 33  2  0
M  END
>  <DRUGBANK_ID>  (1) 
DB15775

>  <COMMON_NAME>  (1) 
Algestone acetophenide

>  <CAS_NUMBER>  (1) 
24356-94-3

>  <UNII>  (1) 
OL7KC2O3OT

>  <SYNONYMS>  (1) 
Algeston acetofenid; Algestone acetophenide; Alphasone acetophenide; Dihydroxyprogesterone acetophenide

$$$$
