
     RDKit          2D

 24 27  0  0  1  0  0  0  0  0999 V2000
    1.8036   -0.1138    0.0000 C   0  0  0  0  0  0  0  0  0  0  0  0
    0.3045   -1.0964    0.0000 C   0  0  0  0  0  0  0  0  0  0  0  0
    1.8036    1.2211    0.0000 C   0  0  0  0  0  0  0  0  0  0  0  0
    0.3045    1.3786    0.0000 C   0  0  0  0  0  0  0  0  0  0  0  0
    2.2885    0.5536    0.0000 C   0  0  0  0  0  0  0  0  0  0  0  0
   -1.1245   -0.2714    0.0000 C   0  0  0  0  0  0  0  0  0  0  0  0
   -0.4100    0.9661    0.0000 C   0  0  0  0  0  0  0  0  0  0  0  0
   -0.4100   -1.5089    0.0000 C   0  0  0  0  0  0  0  0  0  0  0  0
   -1.1245   -1.0964    0.0000 C   0  0  0  0  0  0  0  0  0  0  0  0
   -1.8390    0.1411    0.0000 C   0  0  0  0  0  0  0  0  0  0  0  0
   -1.8390   -1.5089    0.0000 C   0  0  0  0  0  0  0  0  0  0  0  0
   -2.5534   -0.2714    0.0000 C   0  0  0  0  0  0  0  0  0  0  0  0
    0.3045   -0.2714    0.0000 C   0  0  0  0  0  0  0  0  0  0  0  0
   -0.4100    0.1411    0.0000 C   0  0  0  0  0  0  0  0  0  0  0  0
    1.0189    0.9661    0.0000 C   0  0  0  0  0  0  0  0  0  0  0  0
    1.0189    1.7911    0.0000 C   0  0  0  0  0  0  0  0  0  0  0  0
    1.0189    0.1411    0.0000 C   0  0  0  0  0  0  0  0  0  0  0  0
   -3.2679   -1.5089    0.0000 O   0  0  0  0  0  0  0  0  0  0  0  0
   -2.5534   -1.0964    0.0000 C   0  0  0  0  0  0  0  0  0  0  0  0
    2.5181    1.6336    0.0000 C   0  0  0  0  0  0  0  0  0  0  0  0
    1.8036    2.0461    0.0000 O   0  0  0  0  0  0  0  0  0  0  0  0
    0.3044    2.2036    0.0000 C   0  0  0  0  0  0  0  0  0  0  0  0
    3.2325    2.0461    0.0000 C   0  0  0  0  0  0  0  0  0  0  0  0
   -1.1245    1.3786    0.0000 C   0  0  0  0  0  0  0  0  0  0  0  0
  2  8  1  0
  3  5  1  0
  3 20  1  0
  3 21  1  1
  4  7  1  0
  5  1  1  0
  6  9  1  0
  6 10  1  6
  7 24  2  0
  8  9  1  0
  9 11  2  0
 10 12  1  0
 11 19  1  0
 12 19  1  0
 13 14  1  0
 13  2  1  6
 14  6  1  0
 14  7  1  1
 15  3  1  0
 15  4  1  0
 15 16  1  1
 16 22  1  0
 17 13  1  0
 17 15  1  0
 17  1  1  1
 19 18  2  0
 20 23  3  0
M  END
>  <DRUGBANK_ID>  (1) 
DB00294

>  <SECONDARY_ACCESSION_NUMBERS>  (1) 
APRD00766

>  <COMMON_NAME>  (1) 
Etonogestrel

>  <CAS_NUMBER>  (1) 
54048-10-1

>  <UNII>  (1) 
304GTH6RNH

>  <SYNONYMS>  (1) 
3-Ketodesogestrel; 3-Oxodesogestrel; Etonogestrel; Ã©tonogestrel; Etonogestrelum

$$$$
