
     RDKit          2D

 27 26  0  0  1  0  0  0  0  0999 V2000
    2.8875   -3.5724    0.0000 C   0  0  0  0  0  0  0  0  0  0  0  0
    3.7125   -3.5724    0.0000 C   0  0  0  0  0  0  0  0  0  0  0  0
    4.1250   -4.2868    0.0000 N   0  0  0  0  0  0  0  0  0  0  0  0
    4.1250   -2.8579    0.0000 C   0  0  0  0  0  0  0  0  0  0  0  0
    3.7125   -2.1434    0.0000 O   0  0  0  0  0  0  0  0  0  0  0  0
    4.9500   -2.8579    0.0000 N   0  0  0  0  0  0  0  0  0  0  0  0
    5.3625   -2.1434    0.0000 C   0  0  0  0  0  0  0  0  0  0  0  0
    4.9500   -1.4289    0.0000 C   0  0  0  0  0  0  0  0  0  0  0  0
    5.3625   -0.7145    0.0000 C   0  0  0  0  0  0  0  0  0  0  0  0
    4.9500    0.0000    0.0000 C   0  0  0  0  0  0  0  0  0  0  0  0
    4.1250   -0.0000    0.0000 O   0  0  0  0  0  0  0  0  0  0  0  0
    5.3625    0.7145    0.0000 O   0  0  0  0  0  0  0  0  0  0  0  0
    6.1875   -2.1434    0.0000 C   0  0  0  0  0  0  0  0  0  0  0  0
    6.6000   -2.8579    0.0000 O   0  0  0  0  0  0  0  0  0  0  0  0
    6.6000   -1.4289    0.0000 N   0  0  0  0  0  0  0  0  0  0  0  0
    7.4250   -1.4289    0.0000 C   0  0  0  0  0  0  0  0  0  0  0  0
    7.8375   -2.1434    0.0000 C   0  0  0  0  0  0  0  0  0  0  0  0
    8.6625   -2.1434    0.0000 C   0  0  0  0  0  0  0  0  0  0  0  0
    9.0750   -1.4289    0.0000 O   0  0  0  0  0  0  0  0  0  0  0  0
    9.0750   -2.8579    0.0000 O   0  0  0  0  0  0  0  0  0  0  0  0
    7.8375   -0.7145    0.0000 C   0  0  0  0  0  0  0  0  0  0  0  0
    7.4250    0.0000    0.0000 O   0  0  0  0  0  0  0  0  0  0  0  0
    8.6625   -0.7145    0.0000 N   0  0  0  0  0  0  0  0  0  0  0  0
    9.0750    0.0000    0.0000 C   0  0  0  0  0  0  0  0  0  0  0  0
    9.9000    0.0000    0.0000 C   0  0  0  0  0  0  0  0  0  0  0  0
   10.3125    0.7145    0.0000 O   0  0  0  0  0  0  0  0  0  0  0  0
   10.3125   -0.7145    0.0000 O   0  0  0  0  0  0  0  0  0  0  0  0
  2  1  1  1
  2  3  1  0
  2  4  1  0
  4  5  2  0
  4  6  1  0
  7  6  1  0
  7  8  1  1
  7 13  1  0
  8  9  1  0
  9 10  1  0
 10 11  1  0
 10 12  2  0
 13 14  2  0
 13 15  1  0
 16 15  1  0
 16 17  1  6
 16 21  1  0
 17 18  1  0
 18 19  1  0
 18 20  2  0
 21 22  2  0
 21 23  1  0
 23 24  1  0
 24 25  1  0
 25 26  1  0
 25 27  2  0
M  END
>  <DRUGBANK_ID>  (1) 
DB17882

>  <COMMON_NAME>  (1) 
Epitalon

>  <CAS_NUMBER>  (1) 
307297-39-8

>  <UNII>  (1) 
O65P17785G

>  <SYNONYMS>  (1) 
Ala-glu-asp-gly; Epithalon; Glycine, l-alanyl-l-.alpha.-glutamyl-l-.alpha.-aspartyl-

$$$$
