
     RDKit          2D

 11  8  0  0  0  0  0  0  0  0999 V2000
    0.0000    0.2078    0.0000 Zn  0  0  0  0  0 15  0  0  0  0  0  0
    0.7128    0.6172    0.0000 O   0  0  0  0  0  0  0  0  0  0  0  0
   -0.7128    0.6172    0.0000 O   0  0  0  0  0  0  0  0  0  0  0  0
    1.4257   -0.6172    0.0000 O   0  0  0  0  0  0  0  0  0  0  0  0
   -1.4257   -0.6172    0.0000 O   0  0  0  0  0  0  0  0  0  0  0  0
    2.8581    0.2078    0.0000 N   0  0  0  0  0  0  0  0  0  0  0  0
   -2.8581    0.2078    0.0000 N   0  0  0  0  0  0  0  0  0  0  0  0
    2.1452    0.6172    0.0000 C   0  0  0  0  0  0  0  0  0  0  0  0
   -2.1452    0.6172    0.0000 C   0  0  0  0  0  0  0  0  0  0  0  0
    1.4257    0.2078    0.0000 C   0  0  0  0  0  0  0  0  0  0  0  0
   -1.4257    0.2078    0.0000 C   0  0  0  0  0  0  0  0  0  0  0  0
  2 10  1  0
  3 11  1  0
  4 10  2  0
  5 11  2  0
  6  8  1  0
  7  9  1  0
  8 10  1  0
  9 11  1  0
M  CHG  3   1   2   2  -1   3  -1
M  END
>  <DRUGBANK_ID>  (1) 
DB14493

>  <COMMON_NAME>  (1) 
Zinc glycinate

>  <CAS_NUMBER>  (1) 
14281-83-5

>  <UNII>  (1) 
681VJX72FE

>  <SYNONYMS>  (1) 
Zinc bisglycinate; Zinc(II) glycinate

$$$$
