
     RDKit          2D

 31 35  0  0  0  0  0  0  0  0999 V2000
   -2.1433   -1.5645    0.0000 C   0  0  0  0  0  0  0  0  0  0  0  0
   -2.1433   -0.7395    0.0000 C   0  0  0  0  0  0  0  0  0  0  0  0
   -2.8579   -1.9770    0.0000 C   0  0  0  0  0  0  0  0  0  0  0  0
   -2.8579   -0.3270    0.0000 C   0  0  0  0  0  0  0  0  0  0  0  0
   -0.7145   -1.5645    0.0000 C   0  0  0  0  0  0  0  0  0  0  0  0
   -3.5723   -1.5645    0.0000 C   0  0  0  0  0  0  0  0  0  0  0  0
   -1.4288    0.4979    0.0000 C   0  0  0  0  0  0  0  0  0  0  0  0
   -3.5723   -0.7395    0.0000 C   0  0  0  0  0  0  0  0  0  0  0  0
    0.0000    0.4979    0.0000 C   0  0  0  0  0  0  0  0  0  0  0  0
   -0.7145   -0.7395    0.0000 C   0  0  0  0  0  0  0  0  0  0  0  0
   -1.4288   -0.3270    0.0000 C   0  0  0  0  0  0  0  0  0  0  0  0
   -1.4288   -1.9770    0.0000 C   0  0  0  0  0  0  0  0  0  0  0  0
   -1.4288   -2.8020    0.0000 C   0  0  0  0  0  0  0  0  0  0  0  0
    0.0000   -0.3270    0.0000 N   0  0  0  0  0  0  0  0  0  0  0  0
    0.7144   -0.7395    0.0000 C   0  0  0  0  0  0  0  0  0  0  0  0
   -0.7145    0.9104    0.0000 C   0  0  0  0  0  0  0  0  0  0  0  0
   -0.7145    1.7354    0.0000 C   0  0  0  0  0  0  0  0  0  0  0  0
   -2.1433    0.9104    0.0000 C   0  0  0  0  0  0  0  0  0  0  0  0
   -2.1433    0.0854    0.0000 O   0  0  0  0  0  0  0  0  0  0  0  0
    0.0000    2.1479    0.0000 O   0  0  0  0  0  0  0  0  0  0  0  0
    0.7144    1.7354    0.0000 C   0  0  0  0  0  0  0  0  0  0  0  0
    0.7144    0.9104    0.0000 O   0  0  0  0  0  0  0  0  0  0  0  0
    1.4288    2.1479    0.0000 C   0  0  0  0  0  0  0  0  0  0  0  0
    2.1433    1.7354    0.0000 C   0  0  0  0  0  0  0  0  0  0  0  0
    1.4288    2.9729    0.0000 C   0  0  0  0  0  0  0  0  0  0  0  0
    2.1433    3.3854    0.0000 N   0  0  0  0  0  0  0  0  0  0  0  0
    2.8578    2.9730    0.0000 C   0  0  0  0  0  0  0  0  0  0  0  0
    2.8578    2.1479    0.0000 C   0  0  0  0  0  0  0  0  0  0  0  0
    3.5723    1.7354    0.0000 Br  0  0  0  0  0  0  0  0  0  0  0  0
   -2.8579   -2.8020    0.0000 N   0  0  0  0  0  0  0  0  0  0  0  0
   -3.4413   -3.3854    0.0000 C   0  0  0  0  0  0  0  0  0  0  0  0
  1  2  1  0
  1 12  1  0
  1  3  2  0
  2 11  1  0
  2  4  2  0
  3 30  1  0
  3  6  1  0
  4  8  1  0
 10  5  1  6
  6  8  2  0
  7 16  1  0
 10 14  1  0
 11 10  1  0
 11  7  1  0
 11 19  1  6
 12  5  1  0
 12 13  2  0
 13 30  1  0
 14  9  1  0
 14 15  1  0
 16  9  1  0
 16 17  1  1
 17 20  1  0
 19 18  1  0
 20 21  1  0
 21 23  1  0
 21 22  2  0
 23 24  2  0
 24 28  1  0
 25 23  1  0
 26 25  2  0
 26 27  1  0
 28 27  2  0
 28 29  1  0
 30 31  1  0
M  END
>  <DRUGBANK_ID>  (1) 
DB00699

>  <SECONDARY_ACCESSION_NUMBERS>  (1) 
APRD00617

>  <COMMON_NAME>  (1) 
Nicergoline

>  <CAS_NUMBER>  (1) 
27848-84-6

>  <UNII>  (1) 
JCV8365FWN

>  <SYNONYMS>  (1) 
(8β)-10-methoxy-1,6-dimethylergoline-8-methanol 5-bromo-3-pyridinecarboxylate (ester); 10-methoxy-1,6-dimethylergoline-8β-methanol 5-bromonicotinate; Nicergolin; Nicergolina; Nicergoline; Nicergolinum

$$$$
