
     RDKit          2D

  3  2  0  0  0  0  0  0  0  0999 V2000
    1.6500    0.0000    0.0000 S   0  0  0  0  0  0  0  0  0  0  0  0
    2.4750    0.0000    0.0000 Se  0  0  0  0  0  4  0  0  0  0  0  0
    3.3000    0.0000    0.0000 S   0  0  0  0  0  0  0  0  0  0  0  0
  1  2  2  0
  2  3  2  0
M  END
>  <DRUGBANK_ID>  (1) 
DB00971

>  <SECONDARY_ACCESSION_NUMBERS>  (1) 
APRD01323

>  <COMMON_NAME>  (1) 
Selenium Sulfide

>  <CAS_NUMBER>  (1) 
7488-56-4

>  <UNII>  (1) 
Z69D9E381Q

>  <SYNONYMS>  (1) 
Selenii disulfidum; Selenium disulfide; Selenium disulphide; Selenium Sulfide; Selenium sulfide, micronized; Selenium sulphide; Selenium sulphide, micronized; Selenium(IV) disulfide; Selenium(IV) disulphide; Selenium(IV) sulfide; Selenium(IV) sulphide

$$$$
