
     RDKit          2D

 17 18  0  0  0  0  0  0  0  0999 V2000
   -0.7144   -0.2062    0.0000 C   0  0  0  0  0  0  0  0  0  0  0  0
   -1.4289   -1.4438    0.0000 C   0  0  0  0  0  0  0  0  0  0  0  0
   -0.7144   -1.0312    0.0000 C   0  0  0  0  0  0  0  0  0  0  0  0
   -1.4289    0.2062    0.0000 C   0  0  0  0  0  0  0  0  0  0  0  0
   -2.1434   -0.2062    0.0000 C   0  0  0  0  0  0  0  0  0  0  0  0
   -2.1434   -1.0313    0.0000 C   0  0  0  0  0  0  0  0  0  0  0  0
    1.4289    0.2062    0.0000 N   0  0  0  0  0  0  0  0  0  0  0  0
    0.7144    1.4437    0.0000 N   0  0  0  0  0  0  0  0  0  0  0  0
    0.7144   -0.2061    0.0000 C   0  0  0  0  0  0  0  0  0  0  0  0
    0.7144   -1.0312    0.0000 O   0  0  0  0  0  0  0  0  0  0  0  0
    0.0000    1.0312    0.0000 C   0  0  0  0  0  0  0  0  0  0  0  0
   -0.7145    1.4437    0.0000 O   0  0  0  0  0  0  0  0  0  0  0  0
    1.4289    1.0312    0.0000 C   0  0  0  0  0  0  0  0  0  0  0  0
    2.1434    1.4438    0.0000 O   0  0  0  0  0  0  0  0  0  0  0  0
    0.0000    0.2063    0.0000 C   0  0  0  0  0  0  0  0  0  0  0  0
   -0.8249    0.2063    0.0000 C   0  0  0  0  0  0  0  0  0  0  0  0
   -1.2374    0.9207    0.0000 C   0  0  0  0  0  0  0  0  0  0  0  0
  1  4  2  0
  2  3  2  0
  2  6  1  0
  3  1  1  0
  4  5  1  0
  5  6  2  0
  7 13  1  0
  8 11  1  0
  9  7  1  0
  9 15  1  0
  9 10  2  0
 11 15  1  0
 11 12  2  0
 13  8  1  0
 13 14  2  0
 15  1  1  0
 15 16  1  0
 16 17  1  0
M  END
>  <DRUGBANK_ID>  (1) 
DB01174

>  <SECONDARY_ACCESSION_NUMBERS>  (1) 
APRD00184

>  <COMMON_NAME>  (1) 
Phenobarbital

>  <CAS_NUMBER>  (1) 
50-06-6

>  <UNII>  (1) 
YQE403BP4D

>  <SYNONYMS>  (1) 
5-ethyl-5-phenyl-2,4,6(1H,3H,5H)-pyrimidinetrione; 5-Ethyl-5-phenyl-pyrimidine-2,4,6-trione; 5-Ethyl-5-phenylbarbituric acid; 5-ethyl-5-phenylpyrimidine-2,4,6(1H,3H,5H)-trione; 5-Phenyl-5-ethylbarbituric acid; Fenobarbital; Phenobarbital; Phenobarbitol; Phenobarbitone; Phenobarbituric Acid; Phenyläthylbarbitursäure; Phenylethylbarbiturate; Phenylethylbarbituric Acid; Phenylethylbarbitursäure; Phenylethylmalonylurea

$$$$
