
     RDKit          2D

 10 11  0  0  0  0  0  0  0  0999 V2000
    0.0773    0.5912    0.0000 C   0  0  0  0  0  0  0  0  0  0  0  0
    0.7400   -1.2658    0.0000 C   0  0  0  0  0  0  0  0  0  0  0  0
    0.1197   -1.6427    0.0000 C   0  0  0  0  0  0  0  0  0  0  0  0
    1.9893   -0.5417    0.0000 C   0  0  0  0  0  0  0  0  0  0  0  0
    1.6113   -0.9304    0.0000 C   0  0  0  0  0  0  0  0  0  0  0  0
    1.0605   -0.5572    0.0000 C   0  0  0  0  0  0  0  0  0  0  0  0
    0.6396   -0.9304    0.0000 C   0  0  0  0  0  0  0  0  0  0  0  0
    2.1275   -1.3591    0.0000 C   0  0  0  0  0  0  0  0  0  0  0  0
    0.4999   -0.1173    0.0000 N   0  0  0  0  0  0  0  0  0  0  0  0
    2.5393   -2.0740    0.0000 O   0  0  0  0  0  0  0  0  0  0  0  0
  3  2  1  0
  6  2  1  6
  6  4  1  0
  7  3  1  1
  7  5  1  0
  8  4  1  0
  8  5  1  0
  8 10  1  6
  9  1  1  0
  9  6  1  0
  9  7  1  0
M  END
>  <DRUGBANK_ID>  (1) 
DB04026

>  <SECONDARY_ACCESSION_NUMBERS>  (1) 
EXPT02685

>  <COMMON_NAME>  (1) 
Pseudotropine

>  <CAS_NUMBER>  (1) 
135-97-7

>  <UNII>  (1) 
L9Q7Z9D09L

>  <SYNONYMS>  (1) 
(3-exo)-8-methyl-8-azabicyclo[3.2.1]octan-3-ol; 1αH,5αH-tropan-3β-ol; 3-pseudotropanol; 3β-tropanol; exo-8-methyl-8-azabicyclo[3.2.1]octan-3-ol; pseudotropanol; ψ-tropine

$$$$
