
     RDKit          2D

 19 20  0  0  1  0  0  0  0  0999 V2000
    3.5955   -1.4675    0.0000 C   0  0  0  0  0  0  0  0  0  0  0  0
    2.7376   -4.7681    0.0000 C   0  0  0  0  0  0  0  0  0  0  0  0
    2.4020   -4.0144    0.0000 C   0  0  0  0  0  0  0  0  0  0  0  0
    2.8109   -1.7224    0.0000 C   0  0  0  0  0  0  0  0  0  0  0  0
    2.1434   -1.2375    0.0000 C   0  0  0  0  0  0  0  0  0  0  0  0
    1.4760   -1.7224    0.0000 C   0  0  0  0  0  0  0  0  0  0  0  0
    1.0966   -4.5956    0.0000 C   0  0  0  0  0  0  0  0  0  0  0  0
    1.5815   -3.9282    0.0000 C   0  0  0  0  0  0  0  0  0  0  0  0
    1.4322   -5.3493    0.0000 C   0  0  0  0  0  0  0  0  0  0  0  0
    1.7309   -2.5070    0.0000 C   0  0  0  0  0  0  0  0  0  0  0  0
    3.7670   -0.6605    0.0000 O   0  0  0  0  0  0  0  0  0  0  0  0
    2.8870   -3.3470    0.0000 O   0  0  0  0  0  0  0  0  0  0  0  0
    2.1434   -0.4125    0.0000 O   0  0  0  0  0  0  0  0  0  0  0  0
    0.6914   -1.4675    0.0000 O   0  0  0  0  0  0  0  0  0  0  0  0
    0.2761   -4.5094    0.0000 O   0  0  0  0  0  0  0  0  0  0  0  0
    0.9473   -6.0167    0.0000 O   0  0  0  0  0  0  0  0  0  0  0  0
    2.2527   -5.4355    0.0000 O   0  0  0  0  0  0  0  0  0  0  0  0
    2.5559   -2.5070    0.0000 O   0  0  0  0  0  0  0  0  0  0  0  0
    1.2460   -3.1745    0.0000 O   0  0  0  0  0  0  0  0  0  0  0  0
  3  2  1  0
  3 12  1  6
  4  1  1  6
  5  4  1  0
  5 13  1  1
  6  5  1  0
  6 14  1  6
  7 15  1  6
  8  3  1  0
  8  7  1  0
  8 19  1  1
  9  7  1  0
  9 16  1  1
 10  6  1  0
 10 19  1  1
 11  1  1  0
 17  2  1  0
 17  9  1  0
 18  4  1  0
 18 10  1  0
M  END
>  <DRUGBANK_ID>  (1) 
DB03870

>  <SECONDARY_ACCESSION_NUMBERS>  (1) 
EXPT01971

>  <COMMON_NAME>  (1) 
Ara-Alpha(1,3)-Xyl

$$$$
