G95
     RDKit          2D

 26 29  0  0  0  0  0  0  0  0999 V2000
   -1.4576    1.5365    0.0000 C   0  0  0  0  0  0  0  0  0  0  0  0
   -0.6371    1.6227    0.0000 C   0  0  0  0  0  0  0  0  0  0  0  0
   -0.4877    0.2016    0.0000 C   0  0  0  0  0  0  0  0  0  0  0  0
   -0.0028   -0.4658    0.0000 C   0  0  0  0  0  0  0  0  0  0  0  0
    0.8222   -0.4658    0.0000 C   0  0  0  0  0  0  0  0  0  0  0  0
    1.1242   -2.9729    0.0000 C   0  0  0  0  0  0  0  0  0  0  0  0
    1.1242   -3.7979    0.0000 C   0  0  0  0  0  0  0  0  0  0  0  0
    0.4097   -2.5604    0.0000 C   0  0  0  0  0  0  0  0  0  0  0  0
    0.4097   -1.7354    0.0000 C   0  0  0  0  0  0  0  0  0  0  0  0
    1.0771   -1.2504    0.0000 C   0  0  0  0  0  0  0  0  0  0  0  0
   -0.2578   -1.2504    0.0000 S   0  0  0  0  0  0  0  0  0  0  0  0
   -1.3082    0.1154    0.0000 O   0  0  0  0  0  0  0  0  0  0  0  0
   -1.9425    2.2039    0.0000 N   0  0  0  0  0  0  0  0  0  0  0  0
   -1.5743   -3.3854    0.0000 C   0  0  0  0  0  0  0  0  0  0  0  0
   -1.0894   -2.7179    0.0000 C   0  0  0  0  0  0  0  0  0  0  0  0
   -0.3048   -2.9729    0.0000 C   0  0  0  0  0  0  0  0  0  0  0  0
   -0.3015    2.3764    0.0000 C   0  0  0  0  0  0  0  0  0  0  0  0
   -0.1522    0.9553    0.0000 N   0  0  0  0  0  0  0  0  0  0  0  0
   -0.7865    3.0439    0.0000 C   0  0  0  0  0  0  0  0  0  0  0  0
   -0.4509    3.7975    0.0000 C   0  0  0  0  0  0  0  0  0  0  0  0
    0.3696    3.8838    0.0000 C   0  0  0  0  0  0  0  0  0  0  0  0
    0.4097   -4.2104    0.0000 N   0  0  0  0  0  0  0  0  0  0  0  0
    0.8545    3.2163    0.0000 C   0  0  0  0  0  0  0  0  0  0  0  0
    0.5189    2.4627    0.0000 C   0  0  0  0  0  0  0  0  0  0  0  0
   -0.3048   -3.7979    0.0000 C   0  0  0  0  0  0  0  0  0  0  0  0
   -1.0894   -4.0528    0.0000 N   0  0  0  0  0  0  0  0  0  0  0  0
  2  1  1  6
  1 13  1  0
  2 17  1  0
  2 18  1  0
  3  4  1  0
  3 12  2  0
  3 18  1  0
  4  5  2  0
  4 11  1  0
  5 10  1  0
  6  7  2  0
  6  8  1  0
  7 22  1  0
  8  9  1  0
  8 16  2  0
  9 10  2  0
  9 11  1  0
 14 15  2  0
 14 26  1  0
 15 16  1  0
 16 25  1  0
 17 19  2  0
 17 24  1  0
 19 20  1  0
 20 21  2  0
 21 23  1  0
 22 25  2  0
 23 24  2  0
 25 26  1  0
M  END
>  <DRUGBANK_ID>  (1) 
DB07812

>  <COMMON_NAME>  (1) 
N-[(1S)-2-amino-1-phenylethyl]-5-(1H-pyrrolo[2,3-b]pyridin-4-yl)thiophene-2-carboxamide

$$$$
