
     RDKit          2D

 11 11  0  0  0  0  0  0  0  0999 V2000
    0.7145   -0.4125    0.0000 C   0  0  0  0  0  0  0  0  0  0  0  0
    1.4289    0.0000    0.0000 C   0  0  0  0  0  0  0  0  0  0  0  0
   -0.0000    0.0000    0.0000 C   0  0  0  0  0  0  0  0  0  0  0  0
    1.4289    0.8250    0.0000 C   0  0  0  0  0  0  0  0  0  0  0  0
    0.0000    0.8250    0.0000 C   0  0  0  0  0  0  0  0  0  0  0  0
    0.7145    2.0625    0.0000 C   0  0  0  0  0  0  0  0  0  0  0  0
    0.7145    1.2375    0.0000 C   0  0  0  0  0  0  0  0  0  0  0  0
   -0.7145    2.8875    0.0000 O   0  0  0  0  0  0  0  0  0  0  0  0
    0.4125    3.1895    0.0000 O   0  0  0  0  0  0  0  0  0  0  0  0
   -0.4125    1.7605    0.0000 O   0  0  0  0  0  0  0  0  0  0  0  0
    0.0000    2.4750    0.0000 S   0  0  0  0  0  0  0  0  0  0  0  0
  2  1  2  0
  3  1  1  0
  4  2  1  0
  5  3  2  0
  7  4  2  0
  7  5  1  0
  7  6  1  0
 11  6  1  0
 11  8  1  0
 11  9  2  0
 11 10  2  0
M  END
>  <DRUGBANK_ID>  (1) 
DB03297

>  <SECONDARY_ACCESSION_NUMBERS>  (1) 
EXPT02622

>  <COMMON_NAME>  (1) 
Benzylsulfonic acid

>  <CAS_NUMBER>  (1) 
100-87-8

>  <UNII>  (1) 
5BRP81V98H

>  <SYNONYMS>  (1) 
alpha-Toluenesulfonic acid; Benzenemethanesulfonic acid; Benzylsulfinic acid; Phenylmethanesulfonic acid; Toluene-alpha-sulphonic acid

$$$$
