
     RDKit          2D

  7  6  0  0  0  0  0  0  0  0999 V2000
    1.7605    1.8414    0.0000 N   0  0  0  0  0  0  0  0  0  0  0  0
    2.4750    1.4289    0.0000 C   0  0  0  0  0  0  0  0  0  0  0  0
    3.1895    1.8414    0.0000 C   0  0  0  0  0  0  0  0  0  0  0  0
    3.9039    1.4289    0.0000 C   0  0  0  0  0  0  0  0  0  0  0  0
    4.6184    1.8414    0.0000 C   0  0  0  0  0  0  0  0  0  0  0  0
    5.3329    1.4289    0.0000 C   0  0  0  0  0  0  0  0  0  0  0  0
    6.0474    1.8414    0.0000 N   0  0  0  0  0  0  0  0  0  0  0  0
  1  2  1  0
  2  3  1  0
  3  4  1  0
  4  5  1  0
  5  6  1  0
  6  7  1  0
M  END
>  <DRUGBANK_ID>  (1) 
DB03854

>  <SECONDARY_ACCESSION_NUMBERS>  (1) 
EXPT02275

>  <COMMON_NAME>  (1) 
Cadaverine

>  <CAS_NUMBER>  (1) 
462-94-2

>  <UNII>  (1) 
L90BEN6OLL

>  <SYNONYMS>  (1) 
1,5-Diaminopentane; 1,5-pentamethylenediamine; 1,5-Pentanediamine; DAPE; Pentamethylenediamine

$$$$
