W22
     RDKit          2D

 17 18  0  0  0  0  0  0  0  0999 V2000
    1.5325    0.1805    0.0000 O   0  0  0  0  0  0  0  0  0  0  0  0
    0.7075    0.1805    0.0000 C   0  0  0  0  0  0  0  0  0  0  0  0
    0.3495   -0.5628    0.0000 C   0  0  0  0  0  0  0  0  0  0  0  0
    0.8639   -1.2078    0.0000 C   0  0  0  0  0  0  0  0  0  0  0  0
    1.6797   -1.0848    0.0000 C   0  0  0  0  0  0  0  0  0  0  0  0
    2.1941   -1.7298    0.0000 O   0  0  0  0  0  0  0  0  0  0  0  0
    1.9811   -0.3169    0.0000 O   0  0  0  0  0  0  0  0  0  0  0  0
    0.3495    0.9238    0.0000 N   0  0  0  0  0  0  0  0  0  0  0  0
    0.8639    1.5688    0.0000 C   0  0  0  0  0  0  0  0  0  0  0  0
   -0.4548    1.1074    0.0000 C   0  0  0  0  0  0  0  0  0  0  0  0
   -1.0998    0.5930    0.0000 C   0  0  0  0  0  0  0  0  0  0  0  0
   -1.0998   -0.2320    0.0000 C   0  0  0  0  0  0  0  0  0  0  0  0
   -0.4548   -0.7464    0.0000 N   0  0  0  0  0  0  0  0  0  0  0  0
   -1.8143    1.0055    0.0000 C   0  0  0  0  0  0  0  0  0  0  0  0
   -2.5287    0.5930    0.0000 C   0  0  0  0  0  0  0  0  0  0  0  0
   -2.5287   -0.2320    0.0000 C   0  0  0  0  0  0  0  0  0  0  0  0
   -1.8143   -0.6445    0.0000 C   0  0  0  0  0  0  0  0  0  0  0  0
  1  2  2  0
  2  3  1  0
  2  8  1  0
  3  4  1  6
  3 13  1  0
  4  5  1  0
  5  6  1  0
  5  7  2  0
  8  9  1  0
  8 10  1  0
 10 11  1  0
 11 12  2  0
 11 14  1  0
 12 13  1  0
 12 17  1  0
 14 15  2  0
 15 16  1  0
 16 17  2  0
M  END
>  <DRUGBANK_ID>  (1) 
DB08717

>  <COMMON_NAME>  (1) 
[(2S)-4-methyl-3-oxo-2,3,4,5-tetrahydro-1H-1,4-benzodiazepin-2-yl]acetic acid

$$$$
