1223
     RDKit          2D

 30 31  0  0  0  0  0  0  0  0999 V2000
    6.5489    9.2706    0.0000 O   0  0  0  0  0  0  0  0  0  0  0  0
    6.5489    3.8116    0.0000 O   0  0  0  0  0  0  0  0  0  0  0  0
    5.1199    6.7956    0.0000 O   0  0  0  0  0  0  0  0  0  0  0  0
    5.1199    1.3365    0.0000 O   0  0  0  0  0  0  0  0  0  0  0  0
    6.5489    6.7956    0.0000 N   0  0  0  0  0  0  0  0  0  0  0  0
    6.5489    1.3365    0.0000 N   0  0  0  0  0  0  0  0  0  0  0  0
    5.8344    8.0331    0.0000 N   0  0  0  0  0  0  0  0  0  0  0  0
    5.8344    2.5741    0.0000 N   0  0  0  0  0  0  0  0  0  0  0  0
    8.0440    8.2846    0.0000 N   0  0  0  0  0  0  0  0  0  0  0  0
    8.0440    2.8254    0.0000 N   0  0  0  0  0  0  0  0  0  0  0  0
    8.0440    6.9567    0.0000 N   0  0  0  0  0  0  0  0  0  0  0  0
    8.0440    1.4977    0.0000 N   0  0  0  0  0  0  0  0  0  0  0  0
    2.5864    4.8416    0.0000 N   0  0  0  0  0  0  0  0  0  0  0  0
    0.4430    4.4291    0.0000 N   0  0  0  0  0  0  0  0  0  0  0  0
    7.2634    7.2081    0.0000 C   0  0  0  0  0  0  0  0  0  0  0  0
    7.2634    1.7490    0.0000 C   0  0  0  0  0  0  0  0  0  0  0  0
    7.2634    8.0331    0.0000 C   0  0  0  0  0  0  0  0  0  0  0  0
    7.2634    2.5741    0.0000 C   0  0  0  0  0  0  0  0  0  0  0  0
    6.5489    8.4456    0.0000 C   0  0  0  0  0  0  0  0  0  0  0  0
    6.5489    2.9866    0.0000 C   0  0  0  0  0  0  0  0  0  0  0  0
    5.8344    7.2081    0.0000 C   0  0  0  0  0  0  0  0  0  0  0  0
    5.8344    1.7490    0.0000 C   0  0  0  0  0  0  0  0  0  0  0  0
    6.5489    5.9706    0.0000 C   0  0  0  0  0  0  0  0  0  0  0  0
    6.5489    0.5115    0.0000 C   0  0  0  0  0  0  0  0  0  0  0  0
    5.1199    8.4456    0.0000 C   0  0  0  0  0  0  0  0  0  0  0  0
    5.1199    2.9866    0.0000 C   0  0  0  0  0  0  0  0  0  0  0  0
    8.5255    7.6206    0.0000 C   0  0  0  0  0  0  0  0  0  0  0  0
    8.5255    2.1615    0.0000 C   0  0  0  0  0  0  0  0  0  0  0  0
    1.8720    4.4291    0.0000 C   0  0  0  0  0  0  0  0  0  0  0  0
    1.1575    4.8416    0.0000 C   0  0  0  0  0  0  0  0  0  0  0  0
  1 19  2  0
  2 20  2  0
  3 21  2  0
  4 22  2  0
  5 15  1  0
  5 21  1  0
  5 23  1  0
  6 16  1  0
  6 22  1  0
  6 24  1  0
  7 19  1  0
  7 21  1  0
  7 25  1  0
  8 20  1  0
  8 22  1  0
  8 26  1  0
  9 17  1  0
  9 27  1  0
 10 18  1  0
 10 28  1  0
 11 15  1  0
 11 27  2  0
 12 16  1  0
 12 28  2  0
 13 29  1  0
 14 30  1  0
 15 17  2  0
 16 18  2  0
 17 19  1  0
 18 20  1  0
 29 30  1  0
M  END
>  <DRUGBANK_ID>  (1) 
DB01223

>  <SECONDARY_ACCESSION_NUMBERS>  (1) 
APRD00329

>  <COMMON_NAME>  (1) 
Aminophylline

>  <CAS_NUMBER>  (1) 
317-34-0

>  <UNII>  (1) 
27Y3KJK423

>  <SYNONYMS>  (1) 
Aminofilina; Aminophyllin; Aminophylline; Aminophyllinum; Theophyline ethylenediamine; Theophylline ethylenediamine

$$$$
