AO1
     RDKit          2D

 24 25  0  0  0  0  0  0  0  0999 V2000
   -5.0064   -0.4218    0.0000 C   0  0  0  0  0  0  0  0  0  0  0  0
   -4.2920   -0.0093    0.0000 C   0  0  0  0  0  0  0  0  0  0  0  0
   -3.5775   -0.4218    0.0000 S   0  0  0  0  0  0  0  0  0  0  0  0
   -2.8630   -0.0093    0.0000 C   0  0  0  0  0  0  0  0  0  0  0  0
   -2.1486   -0.4218    0.0000 C   0  0  0  0  0  0  0  0  0  0  0  0
   -1.4341   -0.0093    0.0000 C   0  0  0  0  0  0  0  0  0  0  0  0
   -0.7196   -0.4218    0.0000 C   0  0  0  0  0  0  0  0  0  0  0  0
   -0.0052   -0.0093    0.0000 C   0  0  0  0  0  0  0  0  0  0  0  0
    0.7093   -0.4218    0.0000 N   0  0  0  0  0  0  0  0  0  0  0  0
    1.4238   -0.0093    0.0000 C   0  0  0  0  0  0  0  0  0  0  0  0
    2.1383   -0.4218    0.0000 C   0  0  0  0  0  0  0  0  0  0  0  0
   -0.0052    0.8157    0.0000 O   0  0  0  0  0  0  0  0  0  0  0  0
    1.4238    0.8157    0.0000 C   0  0  0  0  0  0  0  0  0  0  0  0
    2.1383   -1.2468    0.0000 C   0  0  0  0  0  0  0  0  0  0  0  0
    2.8527   -1.6593    0.0000 C   0  0  0  0  0  0  0  0  0  0  0  0
    3.5672   -1.2468    0.0000 C   0  0  0  0  0  0  0  0  0  0  0  0
    3.5672   -0.4218    0.0000 C   0  0  0  0  0  0  0  0  0  0  0  0
    2.8527   -0.0093    0.0000 C   0  0  0  0  0  0  0  0  0  0  0  0
    4.2817   -0.0093    0.0000 C   0  0  0  0  0  0  0  0  0  0  0  0
    4.2817    0.8157    0.0000 C   0  0  0  0  0  0  0  0  0  0  0  0
    3.5672    1.2282    0.0000 C   0  0  0  0  0  0  0  0  0  0  0  0
    2.8527    0.8157    0.0000 C   0  0  0  0  0  0  0  0  0  0  0  0
   -0.7196   -1.2468    0.0000 O   0  0  0  0  0  0  0  0  0  0  0  0
   -1.4341    0.8157    0.0000 N   0  0  0  0  0  0  0  0  0  0  0  0
  1  2  1  0
  2  3  1  0
  3  4  1  0
  4  5  1  0
  5  6  1  0
  6  7  1  0
  6 24  1  6
  7  8  1  0
  7 23  1  1
  8  9  1  0
  8 12  2  0
  9 10  1  0
 10 11  1  0
 10 13  1  1
 11 14  2  0
 11 18  1  0
 14 15  1  0
 15 16  2  0
 16 17  1  0
 17 18  2  0
 17 19  1  0
 18 22  1  0
 19 20  2  0
 20 21  1  0
 21 22  2  0
M  END
>  <DRUGBANK_ID>  (1) 
DB04108

>  <SECONDARY_ACCESSION_NUMBERS>  (1) 
EXPT00526

>  <COMMON_NAME>  (1) 
(2s,3r)-3-Amino-2-Hydroxy-5-(Ethylsulfanyl)Pentanoyl-((S)-(-)-(1-Naphthyl)Ethyl)Amide

$$$$
