TFK
     RDKit          2D

 33 34  0  0  0  0  0  0  0  0999 V2000
   -2.5918   -0.7867    0.0000 C   0  0  0  0  0  0  0  0  0  0  0  0
   -1.8773   -0.3742    0.0000 C   0  0  0  0  0  0  0  0  0  0  0  0
   -1.1629   -0.7867    0.0000 C   0  0  0  0  0  0  0  0  0  0  0  0
   -1.1629   -1.6117    0.0000 C   0  0  0  0  0  0  0  0  0  0  0  0
   -0.4484   -2.0242    0.0000 C   0  0  0  0  0  0  0  0  0  0  0  0
   -1.8773   -2.0242    0.0000 C   0  0  0  0  0  0  0  0  0  0  0  0
    0.2661   -0.7867    0.0000 C   0  0  0  0  0  0  0  0  0  0  0  0
    0.9805   -0.3742    0.0000 C   0  0  0  0  0  0  0  0  0  0  0  0
    0.2661    0.8633    0.0000 C   0  0  0  0  0  0  0  0  0  0  0  0
    0.2661    1.6883    0.0000 C   0  0  0  0  0  0  0  0  0  0  0  0
    0.9805    2.1008    0.0000 C   0  0  0  0  0  0  0  0  0  0  0  0
    1.6950    1.6883    0.0000 C   0  0  0  0  0  0  0  0  0  0  0  0
    1.6950    0.8633    0.0000 C   0  0  0  0  0  0  0  0  0  0  0  0
    2.4095    0.4508    0.0000 C   0  0  0  0  0  0  0  0  0  0  0  0
    3.1240    0.8633    0.0000 C   0  0  0  0  0  0  0  0  0  0  0  0
    3.8384    0.4508    0.0000 C   0  0  0  0  0  0  0  0  0  0  0  0
    3.8384   -0.3742    0.0000 C   0  0  0  0  0  0  0  0  0  0  0  0
    3.1240   -0.7867    0.0000 C   0  0  0  0  0  0  0  0  0  0  0  0
    2.4095   -0.3742    0.0000 C   0  0  0  0  0  0  0  0  0  0  0  0
   -2.4004    2.4028    0.0000 C   0  0  0  0  0  0  0  0  0  0  0  0
   -0.4484   -0.3742    0.0000 N   0  0  0  0  0  0  0  0  0  0  0  0
    0.9805    0.4508    0.0000 N   0  0  0  0  0  0  0  0  0  0  0  0
   -0.4484    2.1008    0.0000 N   0  0  0  0  0  0  0  0  0  0  0  0
   -1.5754    2.4028    0.0000 N   0  0  0  0  0  0  0  0  0  0  0  0
   -1.8773    0.4508    0.0000 O   0  0  0  0  0  0  0  0  0  0  0  0
    0.2661   -1.6117    0.0000 O   0  0  0  0  0  0  0  0  0  0  0  0
   -0.4484    0.4508    0.0000 O   0  0  0  0  0  0  0  0  0  0  0  0
   -1.8773    1.2758    0.0000 O   0  0  0  0  0  0  0  0  0  0  0  0
   -0.7504    0.9738    0.0000 O   0  0  0  0  0  0  0  0  0  0  0  0
   -3.3063   -1.1992    0.0000 F   0  0  0  0  0  0  0  0  0  0  0  0
   -3.0043   -0.0722    0.0000 F   0  0  0  0  0  0  0  0  0  0  0  0
   -2.1793   -1.5012    0.0000 F   0  0  0  0  0  0  0  0  0  0  0  0
   -1.1629    1.6883    0.0000 S   0  0  0  0  0  0  0  0  0  0  0  0
  1  2  1  0
  1 30  1  0
  1 31  1  0
  1 32  1  0
  2  3  1  0
  2 25  2  0
  3  4  1  0
  3 21  1  1
  4  5  1  0
  4  6  1  0
  7  8  1  0
  7 21  1  0
  7 26  2  0
  8 22  1  0
  9 10  1  0
  9 22  1  0
  9 27  2  0
 10 11  2  0
 10 23  1  0
 11 12  1  0
 12 13  2  0
 13 14  1  0
 13 22  1  0
 14 15  2  0
 14 19  1  0
 15 16  1  0
 16 17  2  0
 17 18  1  0
 18 19  2  0
 20 24  1  0
 23 33  1  0
 24 33  1  0
 28 33  2  0
 29 33  2  0
M  END
>  <DRUGBANK_ID>  (1) 
DB08614

>  <COMMON_NAME>  (1) 
3-[[(METHYLAMINO)SULFONYL]AMINO]-2-OXO-6-PHENYL-N-[3,3,3-TRIFLUORO-1-(1-METHYLETHYL)-2-OXOPHENYL]-1(2H)-PYRIDINE ACETAMIDE

$$$$
