
     RDKit          2D

 21 22  0  0  1  0  0  0  0  0999 V2000
    0.1067    4.7652    0.0000 C   0  0  0  0  0  0  0  0  0  0  0  0
   -0.6078    4.3527    0.0000 C   0  0  0  0  0  0  0  0  0  0  0  0
   -0.6078    3.5277    0.0000 C   0  0  0  0  0  0  0  0  0  0  0  0
   -1.3222    3.1152    0.0000 N   0  0  0  0  0  0  0  0  0  0  0  0
   -1.3222    2.2902    0.0000 C   0  0  0  0  0  0  0  0  0  0  0  0
   -0.6548    1.8053    0.0000 C   0  0  0  0  0  0  0  0  0  0  0  0
   -0.9097    1.0206    0.0000 C   0  0  0  0  0  0  0  0  0  0  0  0
   -0.4248    0.3532    0.0000 O   0  0  0  0  0  0  0  0  0  0  0  0
   -1.7347    1.0206    0.0000 C   0  0  0  0  0  0  0  0  0  0  0  0
   -2.2197    0.3532    0.0000 C   0  0  0  0  0  0  0  0  0  0  0  0
   -1.8841   -0.4005    0.0000 O   0  0  0  0  0  0  0  0  0  0  0  0
   -2.3690   -1.0679    0.0000 P   0  0  0  0  0  0  0  0  0  0  0  0
   -2.8539   -1.7354    0.0000 O   0  0  0  0  0  0  0  0  0  0  0  0
   -1.7016   -1.5528    0.0000 O   0  0  0  0  0  0  0  0  0  0  0  0
   -3.0365   -0.5830    0.0000 O   0  0  0  0  0  0  0  0  0  0  0  0
   -1.9897    1.8053    0.0000 O   0  0  0  0  0  0  0  0  0  0  0  0
   -2.0367    3.5277    0.0000 C   0  0  0  0  0  0  0  0  0  0  0  0
   -2.7512    3.1152    0.0000 O   0  0  0  0  0  0  0  0  0  0  0  0
   -2.0367    4.3527    0.0000 N   0  0  0  0  0  0  0  0  0  0  0  0
   -1.3222    4.7652    0.0000 C   0  0  0  0  0  0  0  0  0  0  0  0
   -1.3222    5.5902    0.0000 O   0  0  0  0  0  0  0  0  0  0  0  0
  1  2  1  0
  2  3  2  0
  2 20  1  0
  3  4  1  0
  4 17  1  0
  5  4  1  1
  5  6  1  0
  5 16  1  0
  6  7  1  0
  7  8  1  6
  7  9  1  0
  9 10  1  1
  9 16  1  0
 10 11  1  0
 11 12  1  0
 12 13  1  0
 12 14  1  0
 12 15  2  0
 17 18  2  0
 17 19  1  0
 19 20  1  0
 20 21  2  0
M  END
>  <DRUGBANK_ID>  (1) 
DB01643

>  <SECONDARY_ACCESSION_NUMBERS>  (1) 
EXPT03073; EXPT02988

>  <COMMON_NAME>  (1) 
Thymidine monophosphate

>  <CAS_NUMBER>  (1) 
365-07-1

>  <UNII>  (1) 
43W3021X6C

>  <SYNONYMS>  (1) 
2'-deoxy-5-methyluridine 5'-(dihydrogen phosphate); 5-Methyl-dUMP; 5'-Thymidylic acid; 5'-TMP; Deoxyribosylthymine monophosphate; Deoxythymidine monophosphate; dTMP; ribothymidine 5'-monophosphate; thymidine 5'-(dihydrogen phosphate); Thymidine 5'-phosphate; Thymidine 5'-phosphoric acid; Thymidine mononucleotide; Thymidine monophosphate; Thymidine-5'-Monophosphate; Thymidine-5'-monophosphoric acid; Thymidine-5'-phosphate; Thymidylate; Thymidylic acid; TMP

$$$$
