RE9
     RDKit          2D

 22 23  0  0  0  0  0  0  0  0999 V2000
    1.6381    1.4182    0.0000 C   0  0  0  0  0  0  0  0  0  0  0  0
    2.3526    1.0057    0.0000 C   0  0  0  0  0  0  0  0  0  0  0  0
    2.3526    0.1807    0.0000 C   0  0  0  0  0  0  0  0  0  0  0  0
    1.6381   -0.2318    0.0000 C   0  0  0  0  0  0  0  0  0  0  0  0
    0.9237    0.1807    0.0000 C   0  0  0  0  0  0  0  0  0  0  0  0
    0.1390   -0.0742    0.0000 C   0  0  0  0  0  0  0  0  0  0  0  0
   -0.3459    0.5932    0.0000 C   0  0  0  0  0  0  0  0  0  0  0  0
    0.1390    1.2606    0.0000 C   0  0  0  0  0  0  0  0  0  0  0  0
    0.9237    1.0057    0.0000 C   0  0  0  0  0  0  0  0  0  0  0  0
   -1.0646    0.1882    0.0000 C   0  0  0  0  0  0  0  0  0  0  0  0
   -1.0733   -0.6368    0.0000 C   0  0  0  0  0  0  0  0  0  0  0  0
   -1.7920   -1.0418    0.0000 C   0  0  0  0  0  0  0  0  0  0  0  0
   -1.8007   -1.8667    0.0000 C   0  0  0  0  0  0  0  0  0  0  0  0
   -2.5194   -2.2717    0.0000 C   0  0  0  0  0  0  0  0  0  0  0  0
   -2.5281   -3.0967    0.0000 C   0  0  0  0  0  0  0  0  0  0  0  0
    2.0254    2.1466    0.0000 C   0  0  0  0  0  0  0  0  0  0  0  0
    1.2508    2.1466    0.0000 C   0  0  0  0  0  0  0  0  0  0  0  0
   -0.1159   -0.8589    0.0000 C   0  0  0  0  0  0  0  0  0  0  0  0
   -1.0646    0.9982    0.0000 C   0  0  0  0  0  0  0  0  0  0  0  0
   -1.0906   -2.2867    0.0000 C   0  0  0  0  0  0  0  0  0  0  0  0
   -1.8179   -3.5166    0.0000 O   0  0  0  0  0  0  0  0  0  0  0  0
   -3.2468   -3.5017    0.0000 O   0  0  0  0  0  0  0  0  0  0  0  0
  1  2  1  0
  1  9  1  0
  1 16  1  0
  1 17  1  0
  2  3  1  0
  3  4  1  0
  4  5  1  0
  5  6  1  0
  5  9  2  0
  6  7  1  0
  6 18  2  0
  7  8  1  0
  7 10  1  0
  7 19  1  1
  8  9  1  0
 10 11  1  0
 11 12  2  0
 12 13  1  0
 13 14  2  0
 13 20  1  0
 14 15  1  0
 15 21  2  0
 15 22  1  0
M  END
>  <DRUGBANK_ID>  (1) 
DB08467

>  <COMMON_NAME>  (1) 
6-(2,3,4,5,6,7-HEXAHYDRO-2,4,4-TRIMETHYL-1-METYLENEINDEN-2-YL)-3-METHYLHEXA-2,4-DIENOIC ACID

$$$$
