
     RDKit          2D

 33 35  0  0  0  0  0  0  0  0999 V2000
    1.4942    1.9226    0.0000 P   0  0  0  0  0  0  0  0  0  0  0  0
    2.9156    2.0695    0.0000 P   0  0  0  0  0  0  0  0  0  0  0  0
    4.3370    2.2164    0.0000 P   0  0  0  0  0  0  0  0  0  0  0  0
   -0.5968    0.4669    0.0000 O   0  0  0  0  0  0  0  0  0  0  0  0
   -2.6907    0.8830    0.0000 O   0  0  0  0  0  0  0  0  0  0  0  0
   -1.6332    2.3333    0.0000 O   0  0  0  0  0  0  0  0  0  0  0  0
    0.8259    1.4389    0.0000 O   0  0  0  0  0  0  0  0  0  0  0  0
   -3.1333   -2.8847    0.0000 O   0  0  0  0  0  0  0  0  0  0  0  0
    2.1625    2.4064    0.0000 O   0  0  0  0  0  0  0  0  0  0  0  0
    1.9780    1.2543    0.0000 O   0  0  0  0  0  0  0  0  0  0  0  0
    1.0104    2.5909    0.0000 O   0  0  0  0  0  0  0  0  0  0  0  0
    3.6687    1.7326    0.0000 O   0  0  0  0  0  0  0  0  0  0  0  0
    3.2524    2.8227    0.0000 O   0  0  0  0  0  0  0  0  0  0  0  0
    2.5787    1.3164    0.0000 O   0  0  0  0  0  0  0  0  0  0  0  0
    5.0053    2.7002    0.0000 O   0  0  0  0  0  0  0  0  0  0  0  0
    4.8208    1.5482    0.0000 O   0  0  0  0  0  0  0  0  0  0  0  0
    3.8532    2.8847    0.0000 O   0  0  0  0  0  0  0  0  0  0  0  0
   -1.6382   -0.5708    0.0000 N   0  0  0  0  0  0  0  0  0  0  0  0
   -1.6382   -1.8986    0.0000 N   0  0  0  0  0  0  0  0  0  0  0  0
   -3.1333   -0.4097    0.0000 N   0  0  0  0  0  0  0  0  0  0  0  0
   -3.8478   -1.6472    0.0000 N   0  0  0  0  0  0  0  0  0  0  0  0
   -4.5623   -0.4097    0.0000 N   0  0  0  0  0  0  0  0  0  0  0  0
   -1.3819    0.2134    0.0000 C   0  0  0  0  0  0  0  0  0  0  0  0
   -1.8657    0.8816    0.0000 C   0  0  0  0  0  0  0  0  0  0  0  0
   -1.3796    1.5483    0.0000 C   0  0  0  0  0  0  0  0  0  0  0  0
   -0.5954    1.2919    0.0000 C   0  0  0  0  0  0  0  0  0  0  0  0
   -1.1567   -1.2347    0.0000 C   0  0  0  0  0  0  0  0  0  0  0  0
   -2.4189   -0.8222    0.0000 C   0  0  0  0  0  0  0  0  0  0  0  0
    0.0728    1.7757    0.0000 C   0  0  0  0  0  0  0  0  0  0  0  0
   -2.4189   -1.6472    0.0000 C   0  0  0  0  0  0  0  0  0  0  0  0
   -1.3819   -2.6828    0.0000 C   0  0  0  0  0  0  0  0  0  0  0  0
   -3.1333   -2.0597    0.0000 C   0  0  0  0  0  0  0  0  0  0  0  0
   -3.8478   -0.8222    0.0000 C   0  0  0  0  0  0  0  0  0  0  0  0
  1  7  1  0
  1  9  1  0
  1 10  1  0
  1 11  2  0
  2  9  1  0
  2 12  1  0
  2 13  1  0
  2 14  2  0
  3 12  1  0
  3 15  1  0
  3 16  1  0
  3 17  2  0
  4 23  1  0
  4 26  1  0
  7 29  1  0
  8 32  2  0
 18 27  1  0
 18 28  1  0
 19 27  1  0
 19 30  1  0
 19 31  1  0
 20 28  1  0
 20 33  1  0
 21 32  1  0
 21 33  2  0
 22 33  1  0
 23 18  1  1
 23 24  1  0
 24  5  1  6
 24 25  1  0
 25  6  1  6
 25 26  1  0
 26 29  1  1
 28 30  2  0
 30 32  1  0
M  END
>  <DRUGBANK_ID>  (1) 
DB03358

>  <SECONDARY_ACCESSION_NUMBERS>  (1) 
EXPT02169

>  <COMMON_NAME>  (1) 
7-Methyl-7,8-dihydroguanosine 5'-(tetrahydrogen triphosphate)

$$$$
