
     RDKit          2D

 15 16  0  0  0  0  0  0  0  0999 V2000
    3.4036    3.9574    0.0000 C   0  0  0  0  0  0  0  0  0  0  0  0
    4.5208    3.0665    0.0000 C   0  0  0  0  0  0  0  0  0  0  0  0
    2.2027    0.0699    0.0000 C   0  0  0  0  0  0  0  0  0  0  0  0
    0.7017    3.2532    0.0000 C   0  0  0  0  0  0  0  0  0  0  0  0
    3.1906    1.0578    0.0000 C   0  0  0  0  0  0  0  0  0  0  0  0
    0.4717    1.8011    0.0000 C   0  0  0  0  0  0  0  0  0  0  0  0
    3.5485    1.8011    0.0000 C   0  0  0  0  0  0  0  0  0  0  0  0
    0.9566    1.1337    0.0000 C   0  0  0  0  0  0  0  0  0  0  0  0
    2.3863    2.7280    0.0000 C   0  0  0  0  0  0  0  0  0  0  0  0
    3.7050    3.1894    0.0000 C   0  0  0  0  0  0  0  0  0  0  0  0
    2.3863    0.8742    0.0000 C   0  0  0  0  0  0  0  0  0  0  0  0
    0.9566    2.4686    0.0000 C   0  0  0  0  0  0  0  0  0  0  0  0
    3.1906    2.5444    0.0000 C   0  0  0  0  0  0  0  0  0  0  0  0
    1.7413    1.3886    0.0000 C   0  0  0  0  0  0  0  0  0  0  0  0
    1.7413    2.2136    0.0000 C   0  0  0  0  0  0  0  0  0  0  0  0
  7  5  2  0
  8  6  2  0
 10  1  1  0
 10  2  1  0
 11  3  1  0
 11  5  1  0
 12  4  1  0
 12  6  1  0
 13  7  1  0
 13  9  2  0
 13 10  1  0
 14  8  1  0
 14 11  2  0
 15  9  1  0
 15 12  2  0
 15 14  1  0
M  END
>  <DRUGBANK_ID>  (1) 
DB13329

>  <COMMON_NAME>  (1) 
Guaiazulen

>  <CAS_NUMBER>  (1) 
489-84-9

>  <UNII>  (1) 
2OZ1K9JKQC

>  <SYNONYMS>  (1) 
Guaiazulene

$$$$
