SG1
     RDKit          2D

 19 20  0  0  0  0  0  0  0  0999 V2000
    2.6203    0.7315    0.0000 S   0  0  0  0  0  0  0  0  0  0  0  0
    1.8357    0.4766    0.0000 C   0  0  0  0  0  0  0  0  0  0  0  0
    1.6642   -0.3304    0.0000 C   0  0  0  0  0  0  0  0  0  0  0  0
    0.8796   -0.5854    0.0000 C   0  0  0  0  0  0  0  0  0  0  0  0
    0.2665   -0.0333    0.0000 C   0  0  0  0  0  0  0  0  0  0  0  0
   -0.5182   -0.2883    0.0000 N   0  0  0  0  0  0  0  0  0  0  0  0
   -0.7731   -1.0729    0.0000 C   0  0  0  0  0  0  0  0  0  0  0  0
   -0.2882   -1.7403    0.0000 O   0  0  0  0  0  0  0  0  0  0  0  0
   -1.5981   -1.0729    0.0000 C   0  0  0  0  0  0  0  0  0  0  0  0
   -1.8530   -0.2883    0.0000 C   0  0  0  0  0  0  0  0  0  0  0  0
   -1.1856    0.1967    0.0000 C   0  0  0  0  0  0  0  0  0  0  0  0
    0.4380    0.7736    0.0000 C   0  0  0  0  0  0  0  0  0  0  0  0
   -0.1751    1.3257    0.0000 N   0  0  0  0  0  0  0  0  0  0  0  0
   -0.0036    2.1326    0.0000 O   0  0  0  0  0  0  0  0  0  0  0  0
   -0.9597    1.0707    0.0000 O   0  0  0  0  0  0  0  0  0  0  0  0
    1.2226    1.0286    0.0000 C   0  0  0  0  0  0  0  0  0  0  0  0
    3.4049    0.9864    0.0000 N   0  0  0  0  0  0  0  0  0  0  0  0
    2.8753   -0.0531    0.0000 O   0  0  0  0  0  0  0  0  0  0  0  0
    2.3654    1.5161    0.0000 O   0  0  0  0  0  0  0  0  0  0  0  0
  1  2  1  0
  1 17  1  0
  1 18  2  0
  1 19  2  0
  2  3  2  0
  2 16  1  0
  3  4  1  0
  4  5  2  0
  5  6  1  0
  5 12  1  0
  6  7  1  0
  6 11  1  0
  7  8  2  0
  7  9  1  0
  9 10  1  0
 10 11  1  0
 12 13  1  0
 12 16  2  0
 13 14  1  0
 13 15  2  0
M  CHG  2  13   1  14  -1
M  END
>  <DRUGBANK_ID>  (1) 
DB04394

>  <SECONDARY_ACCESSION_NUMBERS>  (1) 
EXPT02892

>  <COMMON_NAME>  (1) 
3-Nitro-4-(2-Oxo-Pyrrolidin-1-Yl)-Benzenesulfonamide

$$$$
