
     RDKit          2D

 24 27  0  0  1  0  0  0  0  0999 V2000
    2.8245    0.4437    0.0000 C   0  0  0  0  0  0  0  0  0  0  0  0
    2.3832   -0.4214    0.0000 C   0  0  0  0  0  0  0  0  0  0  0  0
    1.3941   -0.0001    0.0000 N   0  0  0  0  0  0  0  0  0  0  0  0
    1.1624    0.9268    0.0000 C   0  0  0  0  0  0  0  0  0  0  0  0
    0.5174    0.4124    0.0000 C   0  0  0  0  0  0  0  0  0  0  0  0
    0.5174   -0.4126    0.0000 C   0  0  0  0  0  0  0  0  0  0  0  0
    1.1624   -0.9270    0.0000 C   0  0  0  0  0  0  0  0  0  0  0  0
    1.9667   -0.7434    0.0000 C   0  0  0  0  0  0  0  0  0  0  0  0
    2.3247   -0.0001    0.0000 C   0  0  0  0  0  0  0  0  0  0  0  0
    1.9667    0.7432    0.0000 C   0  0  0  0  0  0  0  0  0  0  0  0
    3.2573   -0.1695    0.0000 O   0  0  0  0  0  0  0  0  0  0  0  0
    4.1056   -0.2509    0.0000 C   0  0  0  0  0  0  0  0  0  0  0  0
    4.4481   -1.0015    0.0000 C   0  0  0  0  0  0  0  0  0  0  0  0
    5.2693   -1.0802    0.0000 C   0  0  0  0  0  0  0  0  0  0  0  0
    5.6117   -1.8308    0.0000 C   0  0  0  0  0  0  0  0  0  0  0  0
    5.1329   -2.5026    0.0000 C   0  0  0  0  0  0  0  0  0  0  0  0
    4.3117   -2.4239    0.0000 C   0  0  0  0  0  0  0  0  0  0  0  0
    3.9693   -1.6733    0.0000 C   0  0  0  0  0  0  0  0  0  0  0  0
    4.5844    0.4210    0.0000 C   0  0  0  0  0  0  0  0  0  0  0  0
    4.2420    1.1715    0.0000 C   0  0  0  0  0  0  0  0  0  0  0  0
    4.7208    1.8434    0.0000 C   0  0  0  0  0  0  0  0  0  0  0  0
    5.5420    1.7646    0.0000 C   0  0  0  0  0  0  0  0  0  0  0  0
    5.8845    1.0141    0.0000 C   0  0  0  0  0  0  0  0  0  0  0  0
    5.4057    0.3422    0.0000 C   0  0  0  0  0  0  0  0  0  0  0  0
  1  2  1  0
  2  3  1  0
  4  3  1  0
  4  5  1  6
  4 10  1  0
  5  6  1  0
  7  6  1  6
  7  3  1  0
  7  8  1  0
  8  9  1  0
  9 10  1  0
  9 11  1  6
 11 12  1  0
 12 13  1  0
 12 19  1  0
 13 14  2  0
 13 18  1  0
 14 15  1  0
 15 16  2  0
 16 17  1  0
 17 18  2  0
 19 20  2  0
 19 24  1  0
 20 21  1  0
 21 22  2  0
 22 23  1  0
 23 24  2  0
M  END
>  <DRUGBANK_ID>  (1) 
DB13468

>  <COMMON_NAME>  (1) 
Etybenzatropine

>  <CAS_NUMBER>  (1) 
524-83-4

>  <UNII>  (1) 
G1X2X9N95N

>  <SYNONYMS>  (1) 
Ethybenztropine; Etybenzatropine

$$$$
