
     RDKit          2D

 22 23  0  0  0  0  0  0  0  0999 V2000
    1.7862   -1.0479    0.0000 P   0  0  0  0  0  0  0  0  0  0  0  0
    1.0717   -1.4604    0.0000 O   0  0  0  0  0  0  0  0  0  0  0  0
   -2.5007   -1.0479    0.0000 O   0  0  0  0  0  0  0  0  0  0  0  0
    0.0552    2.2841    0.0000 O   0  0  0  0  0  0  0  0  0  0  0  0
   -1.8093    1.2446    0.0000 O   0  0  0  0  0  0  0  0  0  0  0  0
    2.1987   -1.7624    0.0000 O   0  0  0  0  0  0  0  0  0  0  0  0
    2.5007   -0.6354    0.0000 O   0  0  0  0  0  0  0  0  0  0  0  0
    1.3737   -0.3334    0.0000 O   0  0  0  0  0  0  0  0  0  0  0  0
   -0.3572    0.1895    0.0000 N   0  0  0  0  0  0  0  0  0  0  0  0
   -1.0716   -2.6979    0.0000 N   0  0  0  0  0  0  0  0  0  0  0  0
   -0.7697    2.2841    0.0000 N   0  0  0  0  0  0  0  0  0  0  0  0
   -1.0716   -1.0479    0.0000 C   0  0  0  0  0  0  0  0  0  0  0  0
   -1.0716   -0.2229    0.0000 C   0  0  0  0  0  0  0  0  0  0  0  0
   -0.3572   -1.4604    0.0000 C   0  0  0  0  0  0  0  0  0  0  0  0
   -1.7861   -1.4604    0.0000 C   0  0  0  0  0  0  0  0  0  0  0  0
    0.3572   -1.0479    0.0000 C   0  0  0  0  0  0  0  0  0  0  0  0
   -1.7861   -2.2854    0.0000 C   0  0  0  0  0  0  0  0  0  0  0  0
   -0.3572   -2.2854    0.0000 C   0  0  0  0  0  0  0  0  0  0  0  0
   -0.3572    1.0146    0.0000 C   0  0  0  0  0  0  0  0  0  0  0  0
   -2.5007   -2.6979    0.0000 C   0  0  0  0  0  0  0  0  0  0  0  0
   -1.0246    1.4995    0.0000 C   0  0  0  0  0  0  0  0  0  0  0  0
    0.3102    1.4995    0.0000 C   0  0  0  0  0  0  0  0  0  0  0  0
  1  2  1  0
  1  6  1  0
  1  7  1  0
  1  8  2  0
  2 16  1  0
  3 15  1  0
  4 11  1  0
  4 22  1  0
  5 21  2  0
  9 13  1  0
  9 19  1  0
 10 17  2  0
 10 18  1  0
 11 21  1  0
 12 13  1  0
 12 14  1  0
 12 15  2  0
 14 16  1  0
 14 18  2  0
 15 17  1  0
 17 20  1  0
 19 21  1  0
 19 22  2  0
M  END
>  <DRUGBANK_ID>  (1) 
DB03097

>  <SECONDARY_ACCESSION_NUMBERS>  (1) 
EXPT02617

>  <COMMON_NAME>  (1) 
PMP-hydroxyisoxazole, pyridoxamine-5-phosphate-hydroxyisoxazole

$$$$
