
     RDKit          2D

 34 35  0  0  1  0  0  0  0  0999 V2000
    3.5724   -2.8875    0.0000 C   0  0  0  0  0  0  0  0  0  0  0  0
    3.5724   -3.7125    0.0000 C   0  0  0  0  0  0  0  0  0  0  0  0
    4.2398   -4.1974    0.0000 C   0  0  0  0  0  0  0  0  0  0  0  0
    3.9849   -4.9820    0.0000 C   0  0  0  0  0  0  0  0  0  0  0  0
    3.1599   -4.9820    0.0000 N   0  0  0  0  0  0  0  0  0  0  0  0
    2.9049   -4.1974    0.0000 O   0  0  0  0  0  0  0  0  0  0  0  0
    4.4698   -5.6495    0.0000 C   0  0  0  0  0  0  0  0  0  0  0  0
    5.2903   -5.5632    0.0000 C   0  0  0  0  0  0  0  0  0  0  0  0
    5.6258   -4.8096    0.0000 C   0  0  0  0  0  0  0  0  0  0  0  0
    5.7752   -6.2307    0.0000 C   0  0  0  0  0  0  0  0  0  0  0  0
    6.5957   -6.1445    0.0000 C   0  0  0  0  0  0  0  0  0  0  0  0
    6.9312   -5.3908    0.0000 C   0  0  0  0  0  0  0  0  0  0  0  0
    7.7517   -5.3045    0.0000 C   0  0  0  0  0  0  0  0  0  0  0  0
    8.2366   -5.9720    0.0000 C   0  0  0  0  0  0  0  0  0  0  0  0
    9.0571   -5.8857    0.0000 C   0  0  0  0  0  0  0  0  0  0  0  0
    9.5420   -6.5532    0.0000 C   0  0  0  0  0  0  0  0  0  0  0  0
    9.2065   -7.3069    0.0000 C   0  0  0  0  0  0  0  0  0  0  0  0
    8.3860   -7.3931    0.0000 C   0  0  0  0  0  0  0  0  0  0  0  0
    8.0504   -8.1468    0.0000 C   0  0  0  0  0  0  0  0  0  0  0  0
    7.2299   -8.2330    0.0000 C   0  0  0  0  0  0  0  0  0  0  0  0
    6.7450   -7.5656    0.0000 O   0  0  0  0  0  0  0  0  0  0  0  0
    6.8944   -8.9867    0.0000 C   0  0  0  0  0  0  0  0  0  0  0  0
    6.0739   -9.0729    0.0000 C   0  0  0  0  0  0  0  0  0  0  0  0
    5.5890   -8.4055    0.0000 C   0  0  0  0  0  0  0  0  0  0  0  0
    5.9245   -7.6518    0.0000 C   0  0  0  0  0  0  0  0  0  0  0  0
    6.5376   -7.0998    0.0000 O   0  0  0  0  0  0  0  0  0  0  0  0
    5.4396   -6.9844    0.0000 O   0  0  0  0  0  0  0  0  0  0  0  0
    5.7384   -9.8266    0.0000 O   0  0  0  0  0  0  0  0  0  0  0  0
    7.6359   -9.3483    0.0000 C   0  0  0  0  0  0  0  0  0  0  0  0
    7.0092   -9.8036    0.0000 C   0  0  0  0  0  0  0  0  0  0  0  0
    8.5354   -8.8142    0.0000 C   0  0  0  0  0  0  0  0  0  0  0  0
    8.8709   -8.0605    0.0000 O   0  0  0  0  0  0  0  0  0  0  0  0
    9.6914   -7.9743    0.0000 C   0  0  0  0  0  0  0  0  0  0  0  0
    8.0873   -4.5509    0.0000 C   0  0  0  0  0  0  0  0  0  0  0  0
  1  2  1  0
  2  3  2  0
  2  6  1  0
  3  4  1  0
  4  5  2  0
  4  7  1  0
  5  6  1  0
  7  8  2  0
  8  9  1  0
 10  8  1  6
 10 11  1  0
 10 27  1  0
 11 12  1  0
 12 13  2  0
 13 14  1  0
 13 34  1  0
 14 15  1  0
 15 16  2  0
 16 17  1  0
 17 18  1  0
 17 33  1  6
 18 19  1  0
 18 32  1  1
 19 20  1  0
 19 31  1  1
 20 21  2  0
 20 22  1  0
 22 23  1  0
 22 29  1  0
 22 30  1  0
 23 24  1  0
 23 28  1  1
 24 25  1  0
 25 26  2  0
 25 27  1  0
M  END
>  <DRUGBANK_ID>  (1) 
DB13078

>  <COMMON_NAME>  (1) 
KOSN-1724

>  <CAS_NUMBER>  (1) 
693272-98-9

>  <UNII>  (1) 
6MUO20693U

>  <SYNONYMS>  (1) 
ISO-Fludelone

$$$$
