NBL
     RDKit          2D

 26 27  0  0  0  0  0  0  0  0999 V2000
    0.7792   -1.9404    0.0000 C   0  0  0  0  0  0  0  0  0  0  0  0
    0.7792   -1.1154    0.0000 C   0  0  0  0  0  0  0  0  0  0  0  0
    1.4937   -0.7029    0.0000 C   0  0  0  0  0  0  0  0  0  0  0  0
    0.0647   -0.7029    0.0000 C   0  0  0  0  0  0  0  0  0  0  0  0
    0.0647    0.1221    0.0000 C   0  0  0  0  0  0  0  0  0  0  0  0
   -0.6497    0.5346    0.0000 N   0  0  0  0  0  0  0  0  0  0  0  0
   -1.3642    0.1221    0.0000 C   0  0  0  0  0  0  0  0  0  0  0  0
   -1.3642   -0.7029    0.0000 O   0  0  0  0  0  0  0  0  0  0  0  0
   -2.0787    0.5346    0.0000 O   0  0  0  0  0  0  0  0  0  0  0  0
   -2.7932    0.1221    0.0000 C   0  0  0  0  0  0  0  0  0  0  0  0
   -3.5076    0.5346    0.0000 C   0  0  0  0  0  0  0  0  0  0  0  0
   -4.2221    0.1221    0.0000 C   0  0  0  0  0  0  0  0  0  0  0  0
   -4.9366    0.5346    0.0000 C   0  0  0  0  0  0  0  0  0  0  0  0
   -4.9366    1.3596    0.0000 C   0  0  0  0  0  0  0  0  0  0  0  0
   -4.2221    1.7721    0.0000 C   0  0  0  0  0  0  0  0  0  0  0  0
   -3.5076    1.3596    0.0000 C   0  0  0  0  0  0  0  0  0  0  0  0
    0.7792    0.5346    0.0000 C   0  0  0  0  0  0  0  0  0  0  0  0
    0.7792    1.3596    0.0000 O   0  0  0  0  0  0  0  0  0  0  0  0
    1.4937    0.1221    0.0000 N   0  0  0  0  0  0  0  0  0  0  0  0
    2.2081    0.5346    0.0000 C   0  0  0  0  0  0  0  0  0  0  0  0
    2.2944    1.3551    0.0000 C   0  0  0  0  0  0  0  0  0  0  0  0
    3.1013    1.5266    0.0000 C   0  0  0  0  0  0  0  0  0  0  0  0
    3.5138    0.8121    0.0000 N   0  0  0  0  0  0  0  0  0  0  0  0
    2.9618    0.1990    0.0000 C   0  0  0  0  0  0  0  0  0  0  0  0
    4.3343    0.7259    0.0000 C   0  0  0  0  0  0  0  0  0  0  0  0
    5.1548    0.6397    0.0000 N   0  0  0  0  0  0  0  0  0  0  0  0
  1  2  1  0
  2  3  1  0
  2  4  1  0
  5  4  1  6
  5  6  1  0
  5 17  1  0
  6  7  1  0
  7  8  2  0
  7  9  1  0
  9 10  1  0
 10 11  1  0
 11 12  2  0
 11 16  1  0
 12 13  1  0
 13 14  2  0
 14 15  1  0
 15 16  2  0
 17 18  2  0
 17 19  1  0
 20 19  1  6
 20 21  1  0
 20 24  1  0
 21 22  1  0
 22 23  1  0
 23 24  1  0
 23 25  1  0
 25 26  3  0
M  END
>  <DRUGBANK_ID>  (1) 
DB03456

>  <SECONDARY_ACCESSION_NUMBERS>  (1) 
EXPT02301

>  <COMMON_NAME>  (1) 
N2-[(benzyloxy)carbonyl]-n1-[(3S)-1-cyanopyrrolidin-3-yl]-l-leucinamide

$$$$
