
     RDKit          2D

 30 33  0  0  0  0  0  0  0  0999 V2000
   -1.4287   -2.4748    0.0000 N   0  0  0  0  0  0  0  0  0  0  0  0
   -0.7145   -2.0623    0.0000 C   0  0  0  0  0  0  0  0  0  0  0  0
   -0.7145   -1.2374    0.0000 C   0  0  0  0  0  0  0  0  0  0  0  0
   -1.4287   -0.8248    0.0000 C   0  0  0  0  0  0  0  0  0  0  0  0
   -2.1433   -1.2374    0.0000 C   0  0  0  0  0  0  0  0  0  0  0  0
   -2.8577   -0.8248    0.0000 C   0  0  0  0  0  0  0  0  0  0  0  0
   -3.5722   -1.2374    0.0000 C   0  0  0  0  0  0  0  0  0  0  0  0
   -3.5722   -2.0623    0.0000 C   0  0  0  0  0  0  0  0  0  0  0  0
   -2.8577   -2.4748    0.0000 C   0  0  0  0  0  0  0  0  0  0  0  0
   -2.1433   -2.0623    0.0000 C   0  0  0  0  0  0  0  0  0  0  0  0
   -1.4287    0.0000    0.0000 N   0  0  0  0  0  0  0  0  0  0  0  0
   -2.1433    0.4124    0.0000 C   0  0  0  0  0  0  0  0  0  0  0  0
   -2.1433    1.2375    0.0000 C   0  0  0  0  0  0  0  0  0  0  0  0
   -1.4287    1.6499    0.0000 C   0  0  0  0  0  0  0  0  0  0  0  0
   -0.7145    1.2375    0.0000 C   0  0  0  0  0  0  0  0  0  0  0  0
   -0.7145    0.4124    0.0000 C   0  0  0  0  0  0  0  0  0  0  0  0
   -1.4287    2.4749    0.0000 N   0  0  0  0  0  0  0  0  0  0  0  0
   -2.1433    2.8873    0.0000 C   0  0  0  0  0  0  0  0  0  0  0  0
   -2.8577    2.4749    0.0000 C   0  0  0  0  0  0  0  0  0  0  0  0
   -2.8577    3.2998    0.0000 C   0  0  0  0  0  0  0  0  0  0  0  0
   -2.1433    3.7123    0.0000 C   0  0  0  0  0  0  0  0  0  0  0  0
    0.0000   -2.4748    0.0000 N   0  0  0  0  0  0  0  0  0  0  0  0
    0.7145   -2.0623    0.0000 C   0  0  0  0  0  0  0  0  0  0  0  0
    1.4287   -2.4748    0.0000 C   0  0  0  0  0  0  0  0  0  0  0  0
    2.1432   -2.0623    0.0000 C   0  0  0  0  0  0  0  0  0  0  0  0
    2.8577   -2.4748    0.0000 C   0  0  0  0  0  0  0  0  0  0  0  0
    2.8577   -3.2998    0.0000 C   0  0  0  0  0  0  0  0  0  0  0  0
    2.1432   -3.7123    0.0000 C   0  0  0  0  0  0  0  0  0  0  0  0
    1.4287   -3.2998    0.0000 C   0  0  0  0  0  0  0  0  0  0  0  0
    3.5722   -3.7123    0.0000 Cl  0  0  0  0  0  0  0  0  0  0  0  0
  1  2  2  0
  1 10  1  0
  2  3  1  0
  2 22  1  0
  3  4  2  0
  4  5  1  0
  4 11  1  0
  5  6  1  0
  5 10  2  0
  6  7  2  0
  7  8  1  0
  8  9  2  0
  9 10  1  0
 11 12  1  0
 11 16  1  0
 12 13  1  0
 13 14  1  0
 14 15  1  0
 14 17  1  0
 15 16  1  0
 17 18  1  0
 18 19  1  0
 18 21  1  0
 18 20  1  0
 22 23  1  0
 23 24  1  0
 24 25  2  0
 24 29  1  0
 25 26  1  0
 26 27  2  0
 27 28  1  0
 27 30  1  0
 28 29  2  0
M  END
>  <DRUGBANK_ID>  (1) 
DB16458

>  <COMMON_NAME>  (1) 
Ezurpimtrostat

>  <CAS_NUMBER>  (1) 
1914148-72-3

>  <UNII>  (1) 
MS6LGW5JFK

>  <SYNONYMS>  (1) 
Chloroquine analog

$$$$
