
     RDKit          2D

 29 31  0  0  0  0  0  0  0  0999 V2000
   -0.3203    0.3008    0.0000 C   0  0  0  0  0  0  0  0  0  0  0  0
   -0.9168   -0.2651    0.0000 C   0  0  0  0  0  0  0  0  0  0  0  0
   -1.6864    0.0378    0.0000 C   0  0  0  0  0  0  0  0  0  0  0  0
   -2.3331   -0.4745    0.0000 C   0  0  0  0  0  0  0  0  0  0  0  0
   -3.1027   -0.1715    0.0000 C   0  0  0  0  0  0  0  0  0  0  0  0
   -3.7493   -0.6841    0.0000 C   0  0  0  0  0  0  0  0  0  0  0  0
   -4.5190   -0.3811    0.0000 C   0  0  0  0  0  0  0  0  0  0  0  0
   -3.2246    0.6482    0.0000 C   0  0  0  0  0  0  0  0  0  0  0  0
   -5.2885   -0.0781    0.0000 C   0  0  0  0  0  0  0  0  0  0  0  0
   -6.0582    0.2248    0.0000 C   0  0  0  0  0  0  0  0  0  0  0  0
   -2.1213   -1.2733    0.0000 O   0  0  0  0  0  0  0  0  0  0  0  0
    0.2812    1.4905    0.0000 C   0  0  0  0  0  0  0  0  0  0  0  0
   -0.4506    1.1168    0.0000 C   0  0  0  0  0  0  0  0  0  0  0  0
    0.8628    0.9099    0.0000 C   0  0  0  0  0  0  0  0  0  0  0  0
    0.4940    0.1800    0.0000 C   0  0  0  0  0  0  0  0  0  0  0  0
    1.6708    0.7845    0.0000 O   0  0  0  0  0  0  0  0  0  0  0  0
    1.8016   -0.0225    0.0000 C   0  0  0  0  0  0  0  0  0  0  0  0
    1.0756   -0.3909    0.0000 C   0  0  0  0  0  0  0  0  0  0  0  0
    1.0327   -1.2019    0.0000 C   0  0  0  0  0  0  0  0  0  0  0  0
    1.7150   -1.6455    0.0000 C   0  0  0  0  0  0  0  0  0  0  0  0
    2.4419   -1.2723    0.0000 C   0  0  0  0  0  0  0  0  0  0  0  0
    2.4812   -0.4624    0.0000 C   0  0  0  0  0  0  0  0  0  0  0  0
    3.1949   -0.0467    0.0000 C   0  0  0  0  0  0  0  0  0  0  0  0
    3.9108   -0.4571    0.0000 C   0  0  0  0  0  0  0  0  0  0  0  0
    4.6266   -0.0426    0.0000 C   0  0  0  0  0  0  0  0  0  0  0  0
    5.3424   -0.4528    0.0000 C   0  0  0  0  0  0  0  0  0  0  0  0
    6.0582   -0.0384    0.0000 O   0  0  0  0  0  0  0  0  0  0  0  0
    5.3442   -1.2817    0.0000 O   0  0  0  0  0  0  0  0  0  0  0  0
   -1.1895    1.4922    0.0000 O   0  0  0  0  0  0  0  0  0  0  0  0
  1 15  1  0
  1  2  1  1
  2  3  2  0
  3  4  1  0
  4 11  1  1
  4  5  1  0
  5  6  1  0
  5  8  1  0
  6  7  1  0
  7  9  3  0
  9 10  1  0
 12 13  1  0
 13  1  1  0
 13 29  1  6
 14 12  1  6
 14 15  1  0
 15 18  1  6
 16 14  1  0
 17 16  1  0
 17 18  2  0
 18 19  1  0
 19 20  2  0
 20 21  1  0
 21 22  2  0
 22 17  1  0
 22 23  1  0
 23 24  1  0
 24 25  1  0
 25 26  1  0
 26 27  1  0
 26 28  2  0
M  END
>  <DRUGBANK_ID>  (1) 
DB05229

>  <COMMON_NAME>  (1) 
Beraprost

>  <CAS_NUMBER>  (1) 
88430-50-6

>  <UNII>  (1) 
35E3NJJ4O6

>  <SYNONYMS>  (1) 
Beraprost; Beraprostum

$$$$
