
     RDKit          2D

 38 41  0  0  0  0  0  0  0  0999 V2000
    1.2083    2.4953    0.0000 C   0  0  0  0  0  0  0  0  0  0  0  0
    2.2188    2.1913    0.0000 C   0  0  0  0  0  0  0  0  0  0  0  0
   -0.8279   -5.1066    0.0000 C   0  0  0  0  0  0  0  0  0  0  0  0
    0.0806    4.3642    0.0000 C   0  0  0  0  0  0  0  0  0  0  0  0
   -0.7039    4.6191    0.0000 C   0  0  0  0  0  0  0  0  0  0  0  0
    0.2522    3.5572    0.0000 C   0  0  0  0  0  0  0  0  0  0  0  0
   -2.1271   -2.4308    0.0000 C   0  0  0  0  0  0  0  0  0  0  0  0
   -1.9556   -3.2377    0.0000 C   0  0  0  0  0  0  0  0  0  0  0  0
    1.8063    0.0967    0.0000 C   0  0  0  0  0  0  0  0  0  0  0  0
    2.6313    0.0967    0.0000 C   0  0  0  0  0  0  0  0  0  0  0  0
   -1.1455    3.2601    0.0000 C   0  0  0  0  0  0  0  0  0  0  0  0
    0.1536    0.5842    0.0000 C   0  0  0  0  0  0  0  0  0  0  0  0
   -1.6855   -1.0718    0.0000 C   0  0  0  0  0  0  0  0  0  0  0  0
   -0.5579   -2.9406    0.0000 C   0  0  0  0  0  0  0  0  0  0  0  0
    0.5952    1.9432    0.0000 C   0  0  0  0  0  0  0  0  0  0  0  0
   -1.3170    4.0671    0.0000 C   0  0  0  0  0  0  0  0  0  0  0  0
   -1.5140   -1.8787    0.0000 C   0  0  0  0  0  0  0  0  0  0  0  0
   -0.3608    3.0052    0.0000 C   0  0  0  0  0  0  0  0  0  0  0  0
   -1.1710   -3.4927    0.0000 C   0  0  0  0  0  0  0  0  0  0  0  0
    0.7667    1.1363    0.0000 C   0  0  0  0  0  0  0  0  0  0  0  0
   -0.6309    0.8392    0.0000 C   0  0  0  0  0  0  0  0  0  0  0  0
    1.5514    0.8813    0.0000 C   0  0  0  0  0  0  0  0  0  0  0  0
   -1.2440    0.2871    0.0000 C   0  0  0  0  0  0  0  0  0  0  0  0
   -0.8024    1.6461    0.0000 C   0  0  0  0  0  0  0  0  0  0  0  0
   -2.1016    4.3220    0.0000 C   0  0  0  0  0  0  0  0  0  0  0  0
   -2.8862    4.5769    0.0000 F   0  0  0  0  0  0  0  0  0  0  0  0
   -1.8467    5.1066    0.0000 F   0  0  0  0  0  0  0  0  0  0  0  0
   -2.3566    3.5374    0.0000 F   0  0  0  0  0  0  0  0  0  0  0  0
   -0.7294   -2.1337    0.0000 N   0  0  0  0  0  0  0  0  0  0  0  0
   -1.0724   -0.5197    0.0000 N   0  0  0  0  0  0  0  0  0  0  0  0
    2.8862    0.8813    0.0000 N   0  0  0  0  0  0  0  0  0  0  0  0
    2.2188    1.3663    0.0000 N   0  0  0  0  0  0  0  0  0  0  0  0
   -0.1893    2.1982    0.0000 N   0  0  0  0  0  0  0  0  0  0  0  0
   -2.0286    0.5421    0.0000 O   0  0  0  0  0  0  0  0  0  0  0  0
   -1.5870    1.9011    0.0000 O   0  0  0  0  0  0  0  0  0  0  0  0
   -0.1925   -4.1281    0.0000 O   0  0  0  0  0  0  0  0  0  0  0  0
   -1.8064   -4.4712    0.0000 O   0  0  0  0  0  0  0  0  0  0  0  0
   -0.9994   -4.2997    0.0000 S   0  0  0  0  0  0  0  0  0  0  0  0
  5  4  2  0
  6  4  1  0
  8  7  2  0
 10  9  1  0
 15  1  1  0
 16  5  1  0
 16 11  2  0
 17  7  1  0
 17 13  1  0
 18  6  2  0
 18 11  1  0
 19  8  1  0
 19 14  2  0
 20 12  1  0
 20 15  2  0
 21 12  2  0
 22  9  2  0
 22 20  1  0
 23 21  1  0
 24 21  1  0
 25 16  1  0
 26 25  1  0
 27 25  1  0
 28 25  1  0
 29 14  1  0
 29 17  2  0
 30 13  1  0
 30 23  1  0
 31 10  2  0
 32  2  1  0
 32 22  1  0
 32 31  1  0
 33 15  1  0
 33 18  1  0
 33 24  1  0
 34 23  2  0
 35 24  2  0
 38  3  1  0
 38 19  1  0
 38 36  2  0
 38 37  2  0
M  END
>  <DRUGBANK_ID>  (1) 
DB11863

>  <COMMON_NAME>  (1) 
Alvelestat

>  <CAS_NUMBER>  (1) 
848141-11-7

>  <UNII>  (1) 
6Y5629322X

>  <SYNONYMS>  (1) 
Alvelestat

$$$$
