
     RDKit          2D

 34 37  0  0  0  0  0  0  0  0999 V2000
   -4.8946    8.4777    0.0000 C   0  0  0  0  0  0  0  0  0  0  0  0
   -4.1801    8.0652    0.0000 N   0  0  0  0  0  0  0  0  0  0  0  0
   -3.4656    8.4777    0.0000 C   0  0  0  0  0  0  0  0  0  0  0  0
   -4.1801    7.2402    0.0000 C   0  0  0  0  0  0  0  0  0  0  0  0
   -3.4656    6.8277    0.0000 C   0  0  0  0  0  0  0  0  0  0  0  0
   -2.7512    7.2402    0.0000 O   0  0  0  0  0  0  0  0  0  0  0  0
   -3.4656    6.0027    0.0000 N   0  0  0  0  0  0  0  0  0  0  0  0
   -2.7512    5.5902    0.0000 C   0  0  0  0  0  0  0  0  0  0  0  0
   -2.7512    4.7652    0.0000 C   0  0  0  0  0  0  0  0  0  0  0  0
   -3.4656    4.3527    0.0000 C   0  0  0  0  0  0  0  0  0  0  0  0
   -4.1801    4.7652    0.0000 C   0  0  0  0  0  0  0  0  0  0  0  0
   -4.1801    5.5902    0.0000 C   0  0  0  0  0  0  0  0  0  0  0  0
   -3.4656    3.5277    0.0000 C   0  0  0  0  0  0  0  0  0  0  0  0
   -2.7512    3.1152    0.0000 C   0  0  0  0  0  0  0  0  0  0  0  0
   -2.7512    2.2902    0.0000 C   0  0  0  0  0  0  0  0  0  0  0  0
   -3.4656    1.8777    0.0000 C   0  0  0  0  0  0  0  0  0  0  0  0
   -3.4656    1.0527    0.0000 N   0  0  0  0  0  0  0  0  0  0  0  0
   -2.7512    0.6402    0.0000 C   0  0  0  0  0  0  0  0  0  0  0  0
   -2.0367    1.0527    0.0000 O   0  0  0  0  0  0  0  0  0  0  0  0
   -2.7512   -0.1848    0.0000 C   0  0  0  0  0  0  0  0  0  0  0  0
   -2.0837   -0.6697    0.0000 N   0  0  0  0  0  0  0  0  0  0  0  0
   -2.3387   -1.4544    0.0000 C   0  0  0  0  0  0  0  0  0  0  0  0
   -3.1637   -1.4544    0.0000 C   0  0  0  0  0  0  0  0  0  0  0  0
   -3.4186   -0.6697    0.0000 N   0  0  0  0  0  0  0  0  0  0  0  0
   -1.8538   -2.1218    0.0000 C   0  0  0  0  0  0  0  0  0  0  0  0
   -1.3688   -2.7892    0.0000 N   0  0  0  0  0  0  0  0  0  0  0  0
   -4.1801    2.2902    0.0000 C   0  0  0  0  0  0  0  0  0  0  0  0
   -4.1801    3.1152    0.0000 C   0  0  0  0  0  0  0  0  0  0  0  0
   -4.8946    1.8777    0.0000 C   0  0  0  0  0  0  0  0  0  0  0  0
   -4.8946    1.0527    0.0000 C   0  0  0  0  0  0  0  0  0  0  0  0
   -5.6091    0.6402    0.0000 C   0  0  0  0  0  0  0  0  0  0  0  0
   -6.3235    1.0527    0.0000 C   0  0  0  0  0  0  0  0  0  0  0  0
   -6.3235    1.8777    0.0000 C   0  0  0  0  0  0  0  0  0  0  0  0
   -5.6091    2.2902    0.0000 C   0  0  0  0  0  0  0  0  0  0  0  0
  1  2  1  0
  2  3  1  0
  2  4  1  0
  4  5  1  0
  5  6  2  0
  5  7  1  0
  7  8  1  0
  7 12  1  0
  8  9  1  0
  9 10  1  0
 10 11  1  0
 10 13  1  0
 11 12  1  0
 13 14  2  0
 13 28  1  0
 14 15  1  0
 15 16  2  0
 16 17  1  0
 16 27  1  0
 17 18  1  0
 18 19  2  0
 18 20  1  0
 20 21  2  0
 20 24  1  0
 21 22  1  0
 22 23  2  0
 22 25  1  0
 23 24  1  0
 25 26  3  0
 27 28  2  0
 27 29  1  0
 29 30  2  0
 29 34  1  0
 30 31  1  0
 31 32  1  0
 32 33  1  0
 33 34  1  0
M  END
>  <DRUGBANK_ID>  (1) 
DB17140

>  <COMMON_NAME>  (1) 
JNJ-28312141

>  <CAS_NUMBER>  (1) 
885692-52-4

>  <UNII>  (1) 
YKQ241VJ92

>  <SYNONYMS>  (1) 
1h-imidazole-2-carboxamide, 5-cyano-n-(2-(1-cyclohexen-1-yl)-4-(1-(2-(dimethylamino)acetyl)-4-piperidinyl)phenyl)-; 4-cyano-N-[2-(1-cyclohexen-1-yl)-4-[1-[(dimethylamino)acetyl]-4-piperidinyl]phenyl]-1H-imidazole-2-carboxamide

$$$$
