
     RDKit          2D

 27 23  0  0  0  0  0  0  0  0999 V2000
   -5.1728    0.2868    0.0000 Fe  0  0  0  0  0 15  0  0  0  0  0  0
    3.8178   -0.1456    0.0000 O   0  0  0  0  0  0  0  0  0  0  0  0
    2.3883   -0.9707    0.0000 O   0  0  0  0  0  0  0  0  0  0  0  0
    0.9633   -0.1457    0.0000 O   0  0  0  0  0  0  0  0  0  0  0  0
    0.3343   -0.6793    0.0000 O   0  0  0  0  0  0  0  0  0  0  0  0
   -0.3781   -0.2668    0.0000 C   0  0  0  0  0  0  0  0  0  0  0  0
   -1.0951   -1.5046    0.0000 O   0  0  0  0  0  0  0  0  0  0  0  0
   -1.0951   -0.6794    0.0000 C   0  0  0  0  0  0  0  0  0  0  0  0
   -2.5200   -0.6794    0.0000 O   0  0  0  0  0  0  0  0  0  0  0  0
   -1.8075   -0.2669    0.0000 C   0  0  0  0  0  0  0  0  0  0  0  0
   -3.1491    0.4372    0.0000 O   0  0  0  0  0  0  0  0  0  0  0  0
   -2.5200    0.9707    0.0000 C   0  0  0  0  0  0  0  0  0  0  0  0
   -1.8075    0.5581    0.0000 C   0  0  0  0  0  0  0  0  0  0  0  0
   -1.0951    0.9708    0.0000 O   0  0  0  0  0  0  0  0  0  0  0  0
   -0.3781    0.5582    0.0000 C   0  0  0  0  0  0  0  0  0  0  0  0
    0.3343    0.9708    0.0000 O   0  0  0  0  0  0  0  0  0  0  0  0
    0.9633    1.5045    0.0000 C   0  0  0  0  0  0  0  0  0  0  0  0
    2.3883    1.5046    0.0000 O   0  0  0  0  0  0  0  0  0  0  0  0
    1.6758    1.0919    0.0000 C   0  0  0  0  0  0  0  0  0  0  0  0
    1.6758    0.2669    0.0000 C   0  0  0  0  0  0  0  0  0  0  0  0
    2.3883   -0.1457    0.0000 C   0  0  0  0  0  0  0  0  0  0  0  0
    3.1053    0.2670    0.0000 C   0  0  0  0  0  0  0  0  0  0  0  0
    3.1053    1.0920    0.0000 C   0  0  0  0  0  0  0  0  0  0  0  0
    3.8178    1.5046    0.0000 O   0  0  0  0  0  0  0  0  0  0  0  0
    5.4142    0.0779    0.0000 O   0  0  0  0  0  0  0  0  0  0  0  0
    5.3696    1.0136    0.0000 O   0  0  0  0  0  0  0  0  0  0  0  0
    5.4587   -0.9023    0.0000 O   0  0  0  0  0  0  0  0  0  0  0  0
  6  5  1  6
  6  8  1  0
  8  7  1  1
  8 10  1  0
 10  9  1  6
 10 13  1  0
 11 12  1  0
 13 12  1  1
 13 14  1  0
 14 15  1  0
 15  6  1  0
 15 16  1  6
 16 17  1  0
 19 17  1  0
 19 18  1  1
 20  4  1  6
 20 19  1  0
 21  3  1  1
 21 20  1  0
 22  2  1  6
 22 21  1  0
 23 22  1  0
 23 24  2  0
M  CHG  4   1   3  25  -1  26  -1  27  -1
M  END
>  <DRUGBANK_ID>  (1) 
DB15763

>  <COMMON_NAME>  (1) 
Iron polymaltose

>  <CAS_NUMBER>  (1) 
53858-86-9

>  <UNII>  (1) 
UM5219H89V

>  <SYNONYMS>  (1) 
Ferric hydroxide polymaltose complex; Ferromaltose; Iron polymaltose; Iron polymaltose complex; Iron(III)-hydroxide polymaltose complex

$$$$
