581
     RDKit          2D

  6  5  0  0  1  0  0  0  0  0999 V2000
   -2.1803    1.0717    0.0000 C   0  0  0  0  0  0  0  0  0  0  0  0
   -1.7678    0.3572    0.0000 C   0  0  0  0  0  0  0  0  0  0  0  0
   -2.1803   -0.3572    0.0000 C   0  0  0  0  0  0  0  0  0  0  0  0
   -0.9428    0.3572    0.0000 O   0  0  0  0  0  0  0  0  0  0  0  0
   -1.7678   -1.0717    0.0000 O   0  0  0  0  0  0  0  0  0  0  0  0
   -3.0053   -0.3572    0.0000 O   0  0  0  0  0  0  0  0  0  0  0  0
  2  1  1  1
  2  3  1  0
  2  4  1  0
  5  3  2  0
  6  3  1  0
M  END
>  <DRUGBANK_ID>  (1) 
DB03066

>  <SECONDARY_ACCESSION_NUMBERS>  (1) 
EXPT01215

>  <COMMON_NAME>  (1) 
D-Lactic acid

>  <CAS_NUMBER>  (1) 
10326-41-7

>  <UNII>  (1) 
3Q6M5SET7W

>  <SYNONYMS>  (1) 
(−)-lactic acid; (R)-(−)-lactic acid; (R)-lactic acid; D-2-Hydroxypropanoic acid; D-2-Hydroxypropionic acid; D-Milchsäure

$$$$
