P40
     RDKit          2D

 32 36  0  0  0  0  0  0  0  0999 V2000
    2.4079    1.5730    0.0000 C   0  0  0  0  0  0  0  0  0  0  0  0
    3.1224    1.9855    0.0000 C   0  0  0  0  0  0  0  0  0  0  0  0
    3.8369    4.0480    0.0000 C   0  0  0  0  0  0  0  0  0  0  0  0
    3.8369    3.2230    0.0000 C   0  0  0  0  0  0  0  0  0  0  0  0
   -0.4500   -0.9020    0.0000 C   0  0  0  0  0  0  0  0  0  0  0  0
   -1.1644   -0.4895    0.0000 C   0  0  0  0  0  0  0  0  0  0  0  0
   -1.1644    0.3355    0.0000 C   0  0  0  0  0  0  0  0  0  0  0  0
   -0.4500    0.7480    0.0000 C   0  0  0  0  0  0  0  0  0  0  0  0
   -1.8789   -0.9020    0.0000 C   0  0  0  0  0  0  0  0  0  0  0  0
   -1.8789   -1.7270    0.0000 C   0  0  0  0  0  0  0  0  0  0  0  0
   -2.5934   -2.1395    0.0000 C   0  0  0  0  0  0  0  0  0  0  0  0
   -3.3079   -1.7270    0.0000 C   0  0  0  0  0  0  0  0  0  0  0  0
   -2.5934   -2.9645    0.0000 C   0  0  0  0  0  0  0  0  0  0  0  0
   -3.3079   -4.2020    0.0000 C   0  0  0  0  0  0  0  0  0  0  0  0
   -2.8954   -4.9165    0.0000 C   0  0  0  0  0  0  0  0  0  0  0  0
   -3.7204   -4.9165    0.0000 C   0  0  0  0  0  0  0  0  0  0  0  0
    1.6934   -0.4895    0.0000 N   0  0  0  0  0  0  0  0  0  0  0  0
    0.9790   -0.9020    0.0000 C   0  0  0  0  0  0  0  0  0  0  0  0
    3.1224    2.8105    0.0000 N   0  0  0  0  0  0  0  0  0  0  0  0
    2.4079    3.2230    0.0000 C   0  0  0  0  0  0  0  0  0  0  0  0
    2.4079    4.0480    0.0000 C   0  0  0  0  0  0  0  0  0  0  0  0
    3.1224    4.4605    0.0000 O   0  0  0  0  0  0  0  0  0  0  0  0
   -3.3079   -0.9020    0.0000 C   0  0  0  0  0  0  0  0  0  0  0  0
   -2.5934   -0.4895    0.0000 C   0  0  0  0  0  0  0  0  0  0  0  0
   -2.5934    0.3355    0.0000 C   0  0  0  0  0  0  0  0  0  0  0  0
   -1.8789   -3.3770    0.0000 O   0  0  0  0  0  0  0  0  0  0  0  0
    0.2645   -0.4895    0.0000 C   0  0  0  0  0  0  0  0  0  0  0  0
    0.2645    0.3355    0.0000 C   0  0  0  0  0  0  0  0  0  0  0  0
    0.9790    0.7480    0.0000 N   0  0  0  0  0  0  0  0  0  0  0  0
    1.6934    0.3355    0.0000 C   0  0  0  0  0  0  0  0  0  0  0  0
    2.4079    0.7480    0.0000 N   0  0  0  0  0  0  0  0  0  0  0  0
   -3.3079   -3.3770    0.0000 N   0  0  0  0  0  0  0  0  0  0  0  0
  1  2  1  0
  1 31  1  0
  2 19  1  0
  3  4  1  0
  3 22  1  0
  4 19  1  0
  5  6  2  0
  5 27  1  0
  6  7  1  0
  6  9  1  0
  7  8  2  0
  8 28  1  0
  9 10  2  0
  9 24  1  0
 10 11  1  0
 11 12  2  0
 11 13  1  0
 12 23  1  0
 13 26  2  0
 13 32  1  0
 14 15  1  0
 14 16  1  0
 14 32  1  0
 15 16  1  0
 17 18  1  0
 17 30  2  0
 18 27  2  0
 19 20  1  0
 20 21  1  0
 21 22  1  0
 23 24  2  0
 24 25  1  0
 27 28  1  0
 28 29  2  0
 29 30  1  0
 30 31  1  0
M  END
>  <DRUGBANK_ID>  (1) 
DB08351

>  <COMMON_NAME>  (1) 
N-cyclopropyl-4-methyl-3-{2-[(2-morpholin-4-ylethyl)amino]quinazolin-6-yl}benzamide

$$$$
