251
     RDKit          2D

 24 26  0  0  0  0  0  0  0  0999 V2000
   -2.4692   -2.2344    0.0000 C   0  0  0  0  0  0  0  0  0  0  0  0
   -2.2977   -1.4274    0.0000 C   0  0  0  0  0  0  0  0  0  0  0  0
   -1.5131   -1.1725    0.0000 C   0  0  0  0  0  0  0  0  0  0  0  0
   -0.9000   -1.7245    0.0000 C   0  0  0  0  0  0  0  0  0  0  0  0
   -1.0715   -2.5315    0.0000 C   0  0  0  0  0  0  0  0  0  0  0  0
   -1.8562   -2.7864    0.0000 C   0  0  0  0  0  0  0  0  0  0  0  0
   -1.3416   -0.3655    0.0000 C   0  0  0  0  0  0  0  0  0  0  0  0
   -1.8936    0.2476    0.0000 C   0  0  0  0  0  0  0  0  0  0  0  0
   -1.4811    0.9620    0.0000 C   0  0  0  0  0  0  0  0  0  0  0  0
   -0.6741    0.7905    0.0000 C   0  0  0  0  0  0  0  0  0  0  0  0
   -0.5879   -0.0300    0.0000 N   0  0  0  0  0  0  0  0  0  0  0  0
   -0.0610    1.3425    0.0000 C   0  0  0  0  0  0  0  0  0  0  0  0
    0.7236    1.0876    0.0000 C   0  0  0  0  0  0  0  0  0  0  0  0
    1.3367    1.6396    0.0000 C   0  0  0  0  0  0  0  0  0  0  0  0
    1.1651    2.4466    0.0000 C   0  0  0  0  0  0  0  0  0  0  0  0
    0.3805    2.7015    0.0000 C   0  0  0  0  0  0  0  0  0  0  0  0
   -0.2326    2.1495    0.0000 C   0  0  0  0  0  0  0  0  0  0  0  0
    0.1266   -0.4425    0.0000 C   0  0  0  0  0  0  0  0  0  0  0  0
    0.8410   -0.0300    0.0000 C   0  0  0  0  0  0  0  0  0  0  0  0
    1.5555   -0.4425    0.0000 N   0  0  0  0  0  0  0  0  0  0  0  0
    0.8410    0.7950    0.0000 O   0  0  0  0  0  0  0  0  0  0  0  0
    2.2700   -0.0300    0.0000 C   0  0  0  0  0  0  0  0  0  0  0  0
    2.2700    0.7950    0.0000 N   0  0  0  0  0  0  0  0  0  0  0  0
    2.9845   -0.4425    0.0000 N   0  0  0  0  0  0  0  0  0  0  0  0
  1  2  2  0
  3  7  1  0
  3  2  1  0
  4  3  2  0
  5  4  1  0
  5  6  2  0
  6  1  1  0
  7  8  2  0
  9  8  1  0
 10  9  2  0
 11 10  1  0
 11  7  1  0
 12 10  1  0
 13 12  2  0
 14 13  1  0
 15 16  1  0
 15 14  2  0
 16 17  2  0
 17 12  1  0
 18 19  1  0
 18 11  1  0
 19 21  2  0
 20 22  1  0
 20 19  1  0
 22 23  2  0
 24 22  1  0
M  END
>  <DRUGBANK_ID>  (1) 
DB06930

>  <COMMON_NAME>  (1) 
N-[amino(imino)methyl]-2-(2,5-diphenyl-1H-pyrrol-1-yl)acetamide

$$$$
