
     RDKit          2D

  7  6  0  0  0  0  0  0  0  0999 V2000
   -0.7135    0.0000    0.0000 N   0  0  0  0  0  0  0  0  0  0  0  0
    0.0216   -0.3745    0.0000 C   0  0  0  0  0  0  0  0  0  0  0  0
    0.7136    0.0747    0.0000 C   0  0  0  0  0  0  0  0  0  0  0  0
    1.4486   -0.2998    0.0000 F   0  0  0  0  0  0  0  0  0  0  0  0
   -1.0881   -0.7352    0.0000 C   0  0  0  0  0  0  0  0  0  0  0  0
   -0.3389    0.7352    0.0000 C   0  0  0  0  0  0  0  0  0  0  0  0
   -1.4486    0.3744    0.0000 C   0  0  0  0  0  0  0  0  0  0  0  0
  1  2  1  0
  1  5  1  0
  1  6  1  0
  1  7  1  0
  2  3  1  0
  3  4  1  0
M  CHG  1   1   1
M  ISO  1   4  18
M  END
>  <DRUGBANK_ID>  (1) 
DB15887

>  <COMMON_NAME>  (1) 
Fluorocholine F-18

>  <CAS_NUMBER>  (1) 
407582-13-2

>  <UNII>  (1) 
700YTQ6F2B

>  <SYNONYMS>  (1) 
(18F)Fluorocholine; 18F-FCH; Fluorocholine(18F); Fluourine-18 Fluoromethylcholine

$$$$
