AIG
     RDKit          2D

 18 18  0  0  0  0  0  0  0  0999 V2000
   -0.9189    0.2461    0.0000 C   0  0  0  0  0  0  0  0  0  0  0  0
   -0.2045    0.6586    0.0000 O   0  0  0  0  0  0  0  0  0  0  0  0
   -0.9189   -0.5789    0.0000 C   0  0  0  0  0  0  0  0  0  0  0  0
   -0.2045   -0.9914    0.0000 O   0  0  0  0  0  0  0  0  0  0  0  0
   -1.6334   -0.9914    0.0000 C   0  0  0  0  0  0  0  0  0  0  0  0
   -2.3479   -0.5789    0.0000 C   0  0  0  0  0  0  0  0  0  0  0  0
   -3.0624   -0.9914    0.0000 O   0  0  0  0  0  0  0  0  0  0  0  0
   -2.3479    0.2461    0.0000 C   0  0  0  0  0  0  0  0  0  0  0  0
   -1.6334    0.6586    0.0000 O   0  0  0  0  0  0  0  0  0  0  0  0
   -3.0624    0.6586    0.0000 C   0  0  0  0  0  0  0  0  0  0  0  0
   -3.0624    1.4836    0.0000 O   0  0  0  0  0  0  0  0  0  0  0  0
   -1.6334   -1.8164    0.0000 N   0  0  0  0  0  0  0  0  0  0  0  0
    0.5100    0.2461    0.0000 C   0  0  0  0  0  0  0  0  0  0  0  0
    1.2245    0.6586    0.0000 C   0  0  0  0  0  0  0  0  0  0  0  0
    1.9389    0.2461    0.0000 C   0  0  0  0  0  0  0  0  0  0  0  0
    2.6534    0.6586    0.0000 C   0  0  0  0  0  0  0  0  0  0  0  0
    3.3679    0.2461    0.0000 C   0  0  0  0  0  0  0  0  0  0  0  0
    4.0823    0.6586    0.0000 C   0  0  0  0  0  0  0  0  0  0  0  0
  1  2  1  1
  1  3  1  0
  1  9  1  0
  2 13  1  0
  3  4  1  6
  3  5  1  0
  5  6  1  0
  5 12  1  1
  6  7  1  1
  6  8  1  0
  8  9  1  0
  8 10  1  1
 10 11  1  0
 13 14  1  0
 14 15  1  0
 15 16  1  0
 16 17  1  0
 17 18  1  0
M  END
>  <DRUGBANK_ID>  (1) 
DB07357

>  <COMMON_NAME>  (1) 
4-AMINO-2-HEXYLOXY-6-HYDROXYMETHYL-TETRAHYDRO-PYRAN-3,5-DIOL

$$$$
