
     RDKit          2D

  8  8  0  0  0  0  0  0  0  0999 V2000
    0.0000   -0.8235    0.0000 O   0  0  0  0  0  0  0  0  0  0  0  0
   -0.7122   -0.4092    0.0000 C   0  0  0  0  0  0  0  0  0  0  0  0
    0.7122   -0.4092    0.0000 C   0  0  0  0  0  0  0  0  0  0  0  0
   -0.7122    0.4158    0.0000 C   0  0  0  0  0  0  0  0  0  0  0  0
   -1.4278   -0.8235    0.0000 C   0  0  0  0  0  0  0  0  0  0  0  0
    0.7122    0.4158    0.0000 C   0  0  0  0  0  0  0  0  0  0  0  0
    1.4278   -0.8235    0.0000 O   0  0  0  0  0  0  0  0  0  0  0  0
    0.0000    0.8235    0.0000 C   0  0  0  0  0  0  0  0  0  0  0  0
  1  2  1  0
  1  3  1  0
  2  4  1  0
  2  5  1  1
  3  6  1  0
  3  7  2  0
  4  8  1  0
  6  8  2  0
M  END
>  <DRUGBANK_ID>  (1) 
DB14121

>  <COMMON_NAME>  (1) 
Parasorbic acid

>  <CAS_NUMBER>  (1) 
10048-32-5

>  <UNII>  (1) 
DCN48OUK3T

>  <SYNONYMS>  (1) 
(+)-Parasorbinsaeure; (S)-(+)-5,6-Dihydro-6-methyl-2H-pyran-2-one; 2-Hexen-5,1-olide; 5-Hydroxy-2-hexenoic acid lactone; gamma-Hexenolactone; Parascorbic acid; Sorbic oil

$$$$
