45U
     RDKit          2D

 27 29  0  0  0  0  0  0  0  0999 V2000
    1.2077   -0.8018    0.0000 O   0  0  0  0  0  0  0  0  0  0  0  0
    0.4932   -1.2143    0.0000 C   0  0  0  0  0  0  0  0  0  0  0  0
    0.4932   -2.0393    0.0000 C   0  0  0  0  0  0  0  0  0  0  0  0
    1.2077   -2.4518    0.0000 O   0  0  0  0  0  0  0  0  0  0  0  0
    1.2077   -3.2768    0.0000 C   0  0  0  0  0  0  0  0  0  0  0  0
    1.8751   -3.7617    0.0000 C   0  0  0  0  0  0  0  0  0  0  0  0
    1.6202   -4.5463    0.0000 C   0  0  0  0  0  0  0  0  0  0  0  0
    0.7952   -4.5463    0.0000 C   0  0  0  0  0  0  0  0  0  0  0  0
    0.5403   -3.7617    0.0000 C   0  0  0  0  0  0  0  0  0  0  0  0
   -0.2212   -0.8018    0.0000 N   0  0  0  0  0  0  0  0  0  0  0  0
   -0.3075    0.0187    0.0000 C   0  0  0  0  0  0  0  0  0  0  0  0
   -1.1144    0.1902    0.0000 C   0  0  0  0  0  0  0  0  0  0  0  0
   -1.5269   -0.5242    0.0000 C   0  0  0  0  0  0  0  0  0  0  0  0
   -0.9749   -1.1373    0.0000 C   0  0  0  0  0  0  0  0  0  0  0  0
    0.3056    0.5707    0.0000 C   0  0  0  0  0  0  0  0  0  0  0  0
    1.0902    0.3158    0.0000 O   0  0  0  0  0  0  0  0  0  0  0  0
    0.1341    1.3777    0.0000 N   0  0  0  0  0  0  0  0  0  0  0  0
    0.7472    1.9297    0.0000 C   0  0  0  0  0  0  0  0  0  0  0  0
    0.5757    2.7367    0.0000 C   0  0  0  0  0  0  0  0  0  0  0  0
    1.1888    3.2887    0.0000 C   0  0  0  0  0  0  0  0  0  0  0  0
    1.0172    4.0957    0.0000 C   0  0  0  0  0  0  0  0  0  0  0  0
    0.2326    4.3506    0.0000 C   0  0  0  0  0  0  0  0  0  0  0  0
    0.0611    5.1576    0.0000 C   0  0  0  0  0  0  0  0  0  0  0  0
   -0.7235    5.4126    0.0000 N   0  0  0  0  0  0  0  0  0  0  0  0
    0.6742    5.7097    0.0000 N   0  0  0  0  0  0  0  0  0  0  0  0
   -0.3805    3.7986    0.0000 C   0  0  0  0  0  0  0  0  0  0  0  0
   -0.2090    2.9916    0.0000 C   0  0  0  0  0  0  0  0  0  0  0  0
  2  1  2  0
  2  3  1  0
  3  4  1  0
  4  5  1  0
  5  6  1  0
  6  7  1  0
  8  7  1  0
  9  5  1  0
  9  8  1  0
 10  2  1  0
 11 10  1  0
 11 15  1  1
 12 13  1  0
 12 11  1  0
 13 14  1  0
 14 10  1  0
 15 16  2  0
 17 15  1  0
 18 17  1  0
 18 19  1  0
 19 27  1  0
 20 19  2  0
 20 21  1  0
 21 22  2  0
 22 26  1  0
 22 23  1  0
 23 25  2  0
 24 23  1  0
 27 26  2  0
M  END
>  <DRUGBANK_ID>  (1) 
DB07088

>  <COMMON_NAME>  (1) 
(S)-N-(4-carbamimidoylbenzyl)-1-(2-(cyclopentyloxy)ethanoyl)pyrrolidine-2-carboxamide

$$$$
