BHY
     RDKit          2D

 28 29  0  0  0  0  0  0  0  0999 V2000
   -3.6987   -1.9369    0.0000 N   0  0  0  0  0  0  0  0  0  0  0  0
   -0.8409   -1.9369    0.0000 C   0  0  0  0  0  0  0  0  0  0  0  0
    3.4460    2.1881    0.0000 N   0  0  0  0  0  0  0  0  0  0  0  0
   -0.1264   -0.6994    0.0000 C   0  0  0  0  0  0  0  0  0  0  0  0
   -5.1277   -1.1119    0.0000 O   0  0  0  0  0  0  0  0  0  0  0  0
   -1.5553   -0.6994    0.0000 C   0  0  0  0  0  0  0  0  0  0  0  0
    2.0170    0.5381    0.0000 C   0  0  0  0  0  0  0  0  0  0  0  0
   -1.5553   -1.5244    0.0000 C   0  0  0  0  0  0  0  0  0  0  0  0
    3.4460    3.8381    0.0000 O   0  0  0  0  0  0  0  0  0  0  0  0
    3.4460    3.0131    0.0000 S   0  0  0  0  0  0  0  0  0  0  0  0
    4.2710    3.0131    0.0000 O   0  0  0  0  0  0  0  0  0  0  0  0
   -4.4132   -1.5244    0.0000 S   0  0  0  0  0  0  0  0  0  0  0  0
   -0.1264   -1.5244    0.0000 C   0  0  0  0  0  0  0  0  0  0  0  0
   -4.8257   -2.2388    0.0000 O   0  0  0  0  0  0  0  0  0  0  0  0
   -0.8409   -0.2869    0.0000 C   0  0  0  0  0  0  0  0  0  0  0  0
    2.0170   -0.2869    0.0000 C   0  0  0  0  0  0  0  0  0  0  0  0
    1.3026   -0.6994    0.0000 C   0  0  0  0  0  0  0  0  0  0  0  0
    0.5881   -0.2869    0.0000 C   0  0  0  0  0  0  0  0  0  0  0  0
    0.5881    0.5381    0.0000 C   0  0  0  0  0  0  0  0  0  0  0  0
    1.3026    0.9506    0.0000 C   0  0  0  0  0  0  0  0  0  0  0  0
    2.7315    0.9506    0.0000 C   0  0  0  0  0  0  0  0  0  0  0  0
   -2.2698   -1.9369    0.0000 C   0  0  0  0  0  0  0  0  0  0  0  0
   -2.9843   -1.5244    0.0000 C   0  0  0  0  0  0  0  0  0  0  0  0
   -2.2698   -2.7619    0.0000 C   0  0  0  0  0  0  0  0  0  0  0  0
    3.4460    0.5381    0.0000 C   0  0  0  0  0  0  0  0  0  0  0  0
    2.7315    1.7756    0.0000 C   0  0  0  0  0  0  0  0  0  0  0  0
    2.6210    3.0131    0.0000 C   0  0  0  0  0  0  0  0  0  0  0  0
   -4.0007   -0.8099    0.0000 C   0  0  0  0  0  0  0  0  0  0  0  0
  1 12  1  0
  1 23  1  0
  2  8  2  0
  2 13  1  0
  3 10  1  0
  3 26  1  0
  4 13  2  0
  4 15  1  0
  4 18  1  0
  5 12  2  0
  6  8  1  0
  6 15  2  0
  7 16  2  0
  7 20  1  0
  7 21  1  0
  8 22  1  0
  9 10  2  0
 10 11  2  0
 10 27  1  0
 12 14  2  0
 12 28  1  0
 16 17  1  0
 17 18  2  0
 18 19  1  0
 19 20  2  0
 21 25  1  6
 21 26  1  0
 22 23  1  0
 22 24  1  1
M  END
>  <DRUGBANK_ID>  (1) 
DB07455

>  <COMMON_NAME>  (1) 
N,N'-[biphenyl-4,4'-diyldi(2R)propane-2,1-diyl]dimethanesulfonamide

$$$$
