
     RDKit          2D

 33 35  0  0  1  0  0  0  0  0999 V2000
    1.4289   -2.4750    0.0000 C   0  0  0  0  0  0  0  0  0  0  0  0
    0.7145   -2.8875    0.0000 C   0  0  0  0  0  0  0  0  0  0  0  0
    0.0000   -2.4750    0.0000 N   0  0  0  0  0  0  0  0  0  0  0  0
    0.7145   -3.7125    0.0000 C   0  0  0  0  0  0  0  0  0  0  0  0
    1.3819   -4.1974    0.0000 O   0  0  0  0  0  0  0  0  0  0  0  0
    1.1270   -4.9820    0.0000 C   0  0  0  0  0  0  0  0  0  0  0  0
    1.6119   -5.6495    0.0000 O   0  0  0  0  0  0  0  0  0  0  0  0
    2.4324   -5.5632    0.0000 C   0  0  0  0  0  0  0  0  0  0  0  0
    2.7679   -4.8096    0.0000 C   0  0  0  0  0  0  0  0  0  0  0  0
    2.2830   -4.1421    0.0000 O   0  0  0  0  0  0  0  0  0  0  0  0
    3.5884   -4.7233    0.0000 C   0  0  0  0  0  0  0  0  0  0  0  0
    3.9240   -3.9697    0.0000 N   0  0  0  0  0  0  0  0  0  0  0  0
    4.0733   -5.3908    0.0000 C   0  0  0  0  0  0  0  0  0  0  0  0
    3.7378   -6.1445    0.0000 C   0  0  0  0  0  0  0  0  0  0  0  0
    4.2227   -6.8119    0.0000 N   0  0  0  0  0  0  0  0  0  0  0  0
    2.9173   -6.2307    0.0000 C   0  0  0  0  0  0  0  0  0  0  0  0
    2.5817   -6.9844    0.0000 O   0  0  0  0  0  0  0  0  0  0  0  0
    3.0667   -7.6518    0.0000 C   0  0  0  0  0  0  0  0  0  0  0  0
    3.8871   -7.5656    0.0000 O   0  0  0  0  0  0  0  0  0  0  0  0
    4.3721   -8.2330    0.0000 C   0  0  0  0  0  0  0  0  0  0  0  0
    5.1925   -8.1468    0.0000 C   0  0  0  0  0  0  0  0  0  0  0  0
    5.5281   -7.3931    0.0000 C   0  0  0  0  0  0  0  0  0  0  0  0
    5.6775   -8.8142    0.0000 O   0  0  0  0  0  0  0  0  0  0  0  0
    4.0365   -8.9867    0.0000 C   0  0  0  0  0  0  0  0  0  0  0  0
    4.5214   -9.6541    0.0000 O   0  0  0  0  0  0  0  0  0  0  0  0
    3.2160   -9.0729    0.0000 C   0  0  0  0  0  0  0  0  0  0  0  0
    2.8805   -9.8266    0.0000 O   0  0  0  0  0  0  0  0  0  0  0  0
    2.7311   -8.4055    0.0000 C   0  0  0  0  0  0  0  0  0  0  0  0
    1.9106   -8.4917    0.0000 N   0  0  0  0  0  0  0  0  0  0  0  0
    0.3020   -4.9820    0.0000 C   0  0  0  0  0  0  0  0  0  0  0  0
   -0.1830   -5.6495    0.0000 O   0  0  0  0  0  0  0  0  0  0  0  0
    0.0470   -4.1974    0.0000 C   0  0  0  0  0  0  0  0  0  0  0  0
   -0.7376   -3.9425    0.0000 O   0  0  0  0  0  0  0  0  0  0  0  0
  2  1  1  6
  2  3  1  0
  4  2  1  0
  4  5  1  1
  4 32  1  0
  6  5  1  0
  6  7  1  1
  8  7  1  6
  8  9  1  0
  8 16  1  0
  9 10  1  1
  9 11  1  0
 11 12  1  6
 11 13  1  0
 14 13  1  0
 14 15  1  6
 16 14  1  0
 16 17  1  1
 18 17  1  1
 18 19  1  0
 20 19  1  6
 20 21  1  0
 20 24  1  0
 21 22  1  1
 21 23  1  0
 24 25  1  1
 24 26  1  0
 26 27  1  6
 26 28  1  0
 28 18  1  0
 28 29  1  1
 30  6  1  0
 30 31  1  6
 32 30  1  0
 32 33  1  6
M  END
>  <DRUGBANK_ID>  (1) 
DB15080

>  <COMMON_NAME>  (1) 
ELX-02

>  <CAS_NUMBER>  (1) 
1375073-95-2

$$$$
