CRV
     RDKit          2D

 33 35  0  0  0  0  0  0  0  0999 V2000
   -1.3937   -0.0130    0.0000 C   0  0  0  0  0  0  0  0  0  0  0  0
   -1.2991   -0.8325    0.0000 C   0  0  0  0  0  0  0  0  0  0  0  0
   -0.5420   -1.1604    0.0000 N   0  0  0  0  0  0  0  0  0  0  0  0
   -1.9615   -1.3243    0.0000 C   0  0  0  0  0  0  0  0  0  0  0  0
   -0.5742    0.0816    0.0000 F   0  0  0  0  0  0  0  0  0  0  0  0
   -2.2133   -0.1076    0.0000 F   0  0  0  0  0  0  0  0  0  0  0  0
   -1.4884    0.8066    0.0000 F   0  0  0  0  0  0  0  0  0  0  0  0
    0.1204   -0.6686    0.0000 C   0  0  0  0  0  0  0  0  0  0  0  0
    0.0258    0.1509    0.0000 C   0  0  0  0  0  0  0  0  0  0  0  0
    0.8775   -0.9965    0.0000 C   0  0  0  0  0  0  0  0  0  0  0  0
    1.5399   -0.5047    0.0000 S   0  0  0  0  0  0  0  0  0  0  0  0
    2.2024   -0.0130    0.0000 C   0  0  0  0  0  0  0  0  0  0  0  0
   -0.7313    0.4787    0.0000 N   0  0  0  0  0  0  0  0  0  0  0  0
    0.6882    0.6427    0.0000 O   0  0  0  0  0  0  0  0  0  0  0  0
   -0.8259    1.2983    0.0000 C   0  0  0  0  0  0  0  0  0  0  0  0
   -2.0187    2.0852    0.0000 N   0  0  0  0  0  0  0  0  0  0  0  0
   -0.6346    2.1008    0.0000 C   0  0  0  0  0  0  0  0  0  0  0  0
   -0.0353    1.5338    0.0000 C   0  0  0  0  0  0  0  0  0  0  0  0
   -1.8669   -2.1438    0.0000 C   0  0  0  0  0  0  0  0  0  0  0  0
   -2.5293   -2.6356    0.0000 C   0  0  0  0  0  0  0  0  0  0  0  0
   -3.2864   -2.3077    0.0000 C   0  0  0  0  0  0  0  0  0  0  0  0
   -3.3810   -1.4882    0.0000 C   0  0  0  0  0  0  0  0  0  0  0  0
   -2.7186   -0.9965    0.0000 C   0  0  0  0  0  0  0  0  0  0  0  0
   -3.9489   -2.7995    0.0000 O   0  0  0  0  0  0  0  0  0  0  0  0
    2.9594   -0.3408    0.0000 C   0  0  0  0  0  0  0  0  0  0  0  0
    3.6219    0.1509    0.0000 C   0  0  0  0  0  0  0  0  0  0  0  0
    4.3789   -0.1769    0.0000 C   0  0  0  0  0  0  0  0  0  0  0  0
    4.4736   -0.9965    0.0000 C   0  0  0  0  0  0  0  0  0  0  0  0
    3.8111   -1.4882    0.0000 C   0  0  0  0  0  0  0  0  0  0  0  0
    3.0541   -1.1604    0.0000 C   0  0  0  0  0  0  0  0  0  0  0  0
    2.0317   -1.1672    0.0000 O   0  0  0  0  0  0  0  0  0  0  0  0
    1.0482    0.1577    0.0000 O   0  0  0  0  0  0  0  0  0  0  0  0
   -1.6495    1.3474    0.0000 C   0  0  0  0  0  0  0  0  0  0  0  0
  1  2  1  0
  1  5  1  0
  1  6  1  0
  1  7  1  0
  2  3  1  1
  2  4  1  0
  4 19  2  0
  4 23  1  0
  8  3  1  0
  8  9  1  0
  8 10  1  6
  9 13  1  0
  9 14  2  0
 10 11  1  0
 11 12  1  0
 11 31  2  0
 11 32  2  0
 12 25  1  0
 13 15  1  0
 15 17  1  0
 15 18  1  0
 15 33  1  0
 16 33  1  0
 17 18  1  0
 19 20  1  0
 20 21  2  0
 21 22  1  0
 21 24  1  0
 22 23  2  0
 25 26  2  0
 25 30  1  0
 26 27  1  0
 27 28  2  0
 28 29  1  0
 29 30  2  0
M  END
>  <DRUGBANK_ID>  (1) 
DB07589

>  <COMMON_NAME>  (1) 
N-[1-(AMINOMETHYL)CYCLOPROPYL]-3-(BENZYLSULFONYL)-N~2~-[(1S)-2,2,2-TRIFLUORO-1-(4-HYDROXYPHENYL)ETHYL]-L-ALANINAMIDE

$$$$
