AZQ
     RDKit          2D

 22 24  0  0  0  0  0  0  0  0999 V2000
   -0.2845   -0.9203    0.0000 C   0  0  0  0  0  0  0  0  0  0  0  0
   -1.0483   -0.6085    0.0000 C   0  0  0  0  0  0  0  0  0  0  0  0
   -0.9877    0.2143    0.0000 C   0  0  0  0  0  0  0  0  0  0  0  0
   -0.1865    0.4109    0.0000 N   0  0  0  0  0  0  0  0  0  0  0  0
    0.2035    1.1379    0.0000 C   0  0  0  0  0  0  0  0  0  0  0  0
    1.0281    1.1637    0.0000 N   0  0  0  0  0  0  0  0  0  0  0  0
    1.4627    0.4625    0.0000 C   0  0  0  0  0  0  0  0  0  0  0  0
    2.2873    0.4882    0.0000 C   0  0  0  0  0  0  0  0  0  0  0  0
    2.7219   -0.2130    0.0000 C   0  0  0  0  0  0  0  0  0  0  0  0
    2.3319   -0.9400    0.0000 C   0  0  0  0  0  0  0  0  0  0  0  0
    1.5073   -0.9658    0.0000 C   0  0  0  0  0  0  0  0  0  0  0  0
    1.0727   -0.2645    0.0000 C   0  0  0  0  0  0  0  0  0  0  0  0
    0.2481   -0.2903    0.0000 N   0  0  0  0  0  0  0  0  0  0  0  0
   -0.0879   -1.7216    0.0000 O   0  0  0  0  0  0  0  0  0  0  0  0
   -1.7496   -1.0431    0.0000 C   0  0  0  0  0  0  0  0  0  0  0  0
   -2.4766   -0.6531    0.0000 C   0  0  0  0  0  0  0  0  0  0  0  0
   -3.1778   -1.0877    0.0000 C   0  0  0  0  0  0  0  0  0  0  0  0
   -1.6178    0.7469    0.0000 O   0  0  0  0  0  0  0  0  0  0  0  0
   -0.2311    1.8392    0.0000 N   0  0  0  0  0  0  0  0  0  0  0  0
    0.1588    2.5662    0.0000 C   0  0  0  0  0  0  0  0  0  0  0  0
   -1.0557    1.8134    0.0000 C   0  0  0  0  0  0  0  0  0  0  0  0
    2.7665   -1.6413    0.0000 C   0  0  0  0  0  0  0  0  0  0  0  0
  1  2  1  0
  1 13  1  0
  1 14  2  0
  2  3  1  0
  2 15  1  6
  3  4  1  0
  3 18  2  0
  4  5  1  0
  4 13  1  0
  5  6  2  0
  5 19  1  0
  6  7  1  0
  7  8  2  0
  7 12  1  0
  8  9  1  0
  9 10  2  0
 10 11  1  0
 10 22  1  0
 11 12  2  0
 12 13  1  0
 15 16  1  0
 16 17  2  0
 19 20  1  0
 19 21  1  0
M  END
>  <DRUGBANK_ID>  (1) 
DB07402

>  <COMMON_NAME>  (1) 
Azapropazone

>  <CAS_NUMBER>  (1) 
13539-59-8

>  <UNII>  (1) 
K2VOT966ZI

>  <SYNONYMS>  (1) 
1,2-Dihydro-3-dimethylamino-7-methyl-1,2-(propylmalonyl)-1,2,4-benzotriazine; 3-Dimethylamino-7-methyl-1,2-(n-propylmalonyl)-1,2-dihydro-1,2,4-benzotriazine; 5-(Dimethylamino)-9-methyl-2-propyl-1H-pyrazolo(1,2-a)(1,2,4)benzotriazine-1,3(2H)-dione; Apazone; Azapropazon; Azapropazona; Azapropazone; Azapropazonum

$$$$
