TH2
     RDKit          2D

 28 31  0  0  0  0  0  0  0  0999 V2000
   -0.1432    2.1535    0.0000 C   0  0  0  0  0  0  0  0  0  0  0  0
   -0.3982    2.9382    0.0000 C   0  0  0  0  0  0  0  0  0  0  0  0
   -1.2051    3.1097    0.0000 C   0  0  0  0  0  0  0  0  0  0  0  0
   -1.4601    3.8943    0.0000 O   0  0  0  0  0  0  0  0  0  0  0  0
   -1.7572    2.4966    0.0000 C   0  0  0  0  0  0  0  0  0  0  0  0
   -1.5022    1.7120    0.0000 C   0  0  0  0  0  0  0  0  0  0  0  0
   -2.0543    1.0989    0.0000 C   0  0  0  0  0  0  0  0  0  0  0  0
   -1.7993    0.3143    0.0000 C   0  0  0  0  0  0  0  0  0  0  0  0
   -0.9923    0.1427    0.0000 C   0  0  0  0  0  0  0  0  0  0  0  0
   -0.4403    0.7558    0.0000 C   0  0  0  0  0  0  0  0  0  0  0  0
   -0.6952    1.5404    0.0000 C   0  0  0  0  0  0  0  0  0  0  0  0
    0.3667    0.5843    0.0000 C   0  0  0  0  0  0  0  0  0  0  0  0
    0.6216   -0.2003    0.0000 C   0  0  0  0  0  0  0  0  0  0  0  0
    0.0696   -0.8134    0.0000 C   0  0  0  0  0  0  0  0  0  0  0  0
   -0.7374   -0.6419    0.0000 C   0  0  0  0  0  0  0  0  0  0  0  0
   -1.1499   -1.3564    0.0000 C   0  0  0  0  0  0  0  0  0  0  0  0
   -0.5979   -1.9695    0.0000 C   0  0  0  0  0  0  0  0  0  0  0  0
    0.1558   -1.6339    0.0000 C   0  0  0  0  0  0  0  0  0  0  0  0
    0.8703   -2.0464    0.0000 O   0  0  0  0  0  0  0  0  0  0  0  0
    0.8542   -1.0684    0.0000 C   0  0  0  0  0  0  0  0  0  0  0  0
    1.5847   -1.6339    0.0000 C   0  0  0  0  0  0  0  0  0  0  0  0
    1.5847   -0.8089    0.0000 O   0  0  0  0  0  0  0  0  0  0  0  0
    3.0137   -1.6339    0.0000 C   0  0  0  0  0  0  0  0  0  0  0  0
    2.2992   -2.0464    0.0000 C   0  0  0  0  0  0  0  0  0  0  0  0
    3.7282   -2.0464    0.0000 C   0  0  0  0  0  0  0  0  0  0  0  0
    4.4426   -1.6339    0.0000 O   0  0  0  0  0  0  0  0  0  0  0  0
    3.7282   -2.8714    0.0000 O   0  0  0  0  0  0  0  0  0  0  0  0
    0.1117    1.3689    0.0000 C   0  0  0  0  0  0  0  0  0  0  0  0
  1  2  1  0
  1 11  1  0
  2  3  1  0
  3  4  2  0
  3  5  1  0
  5  6  2  0
  6  7  1  0
  6 11  1  0
  7  8  1  0
  9  8  1  6
  9 10  1  0
  9 15  1  0
 10 11  1  0
 10 12  1  1
 11 28  1  1
 12 13  1  0
 13 14  1  0
 14 15  1  0
 14 18  1  0
 14 20  1  1
 15 16  1  1
 16 17  1  0
 17 18  1  0
 18 19  1  1
 19 21  1  0
 21 22  2  0
 21 24  1  0
 23 24  1  0
 23 25  1  0
 25 26  2  0
 25 27  1  0
M  END
>  <DRUGBANK_ID>  (1) 
DB08619

>  <COMMON_NAME>  (1) 
Testosterone succinate

>  <CAS_NUMBER>  (1) 
521-15-3

>  <UNII>  (1) 
4114I54YIH

>  <SYNONYMS>  (1) 
Testosterone 17-hemisuccinate; Testosterone hemisuccinate; Testosterone-17-succinate

$$$$
