
     RDKit          2D

 11  9  0  0  1  0  0  0  0  0999 V2000
    0.3572    0.2062    0.0000 C   0  0  0  0  0  0  0  0  0  0  0  0
   -0.3572   -0.2063    0.0000 C   0  0  0  0  0  0  0  0  0  0  0  0
   -1.0717    0.2063    0.0000 C   0  0  0  0  0  0  0  0  0  0  0  0
   -1.7862   -0.2062    0.0000 O   0  0  0  0  0  0  0  0  0  0  0  0
   -1.0717    1.0313    0.0000 O   0  0  0  0  0  0  0  0  0  0  0  0
   -0.3572   -1.0313    0.0000 S   0  0  0  0  0  0  0  0  0  0  0  0
    1.0717   -0.2063    0.0000 C   0  0  0  0  0  0  0  0  0  0  0  0
    1.7862    0.2062    0.0000 O   0  0  0  0  0  0  0  0  0  0  0  0
    1.0717   -1.0313    0.0000 O   0  0  0  0  0  0  0  0  0  0  0  0
    0.3572    1.0312    0.0000 S   0  0  0  0  0  0  0  0  0  0  0  0
    4.2612    0.0000    0.0000 Tc  0  0  0  0  0 15  0  0  0  0  0  0
  1  2  1  0
  1  7  1  0
  1 10  1  1
  2  3  1  0
  2  6  1  6
  3  4  2  0
  3  5  1  0
  7  8  2  0
  7  9  1  0
M  ISO  1  11  99
M  END
>  <DRUGBANK_ID>  (1) 
DB09436

>  <COMMON_NAME>  (1) 
Technetium Tc-99m succimer

>  <CAS_NUMBER>  (1) 
65438-08-6

>  <UNII>  (1) 
494JNQ8L28

>  <SYNONYMS>  (1) 
(99m)Tc-DMSA; Technetium (99mTc) succimer; Technetium Tc 99m dimercaptosuccinic acid; Technetium tc 99m succimer

$$$$
