SD2
     RDKit          2D

 32 33  0  0  0  0  0  0  0  0999 V2000
   -5.2422    0.6839    0.0000 C   0  0  0  0  0  0  0  0  0  0  0  0
   -4.5277    1.0964    0.0000 S   0  0  0  0  0  0  0  0  0  0  0  0
   -3.8132    0.6839    0.0000 C   0  0  0  0  0  0  0  0  0  0  0  0
   -3.0988    1.0964    0.0000 C   0  0  0  0  0  0  0  0  0  0  0  0
   -2.3843    0.6839    0.0000 C   0  0  0  0  0  0  0  0  0  0  0  0
   -2.3843   -0.1411    0.0000 C   0  0  0  0  0  0  0  0  0  0  0  0
   -1.6698   -0.5536    0.0000 O   0  0  0  0  0  0  0  0  0  0  0  0
   -3.0988   -0.5536    0.0000 N   0  0  0  0  0  0  0  0  0  0  0  0
   -1.6698    1.0964    0.0000 N   0  0  0  0  0  0  0  0  0  0  0  0
   -0.9554    0.6839    0.0000 C   0  0  0  0  0  0  0  0  0  0  0  0
   -0.9554   -0.1411    0.0000 O   0  0  0  0  0  0  0  0  0  0  0  0
   -0.2409    1.0964    0.0000 C   0  0  0  0  0  0  0  0  0  0  0  0
   -0.1547    1.9169    0.0000 C   0  0  0  0  0  0  0  0  0  0  0  0
    0.6523    2.0884    0.0000 C   0  0  0  0  0  0  0  0  0  0  0  0
    1.0648    1.3740    0.0000 C   0  0  0  0  0  0  0  0  0  0  0  0
    0.5128    0.7609    0.0000 N   0  0  0  0  0  0  0  0  0  0  0  0
    0.6843   -0.0461    0.0000 C   0  0  0  0  0  0  0  0  0  0  0  0
    0.0712   -0.5981    0.0000 O   0  0  0  0  0  0  0  0  0  0  0  0
    1.4689   -0.3011    0.0000 C   0  0  0  0  0  0  0  0  0  0  0  0
    1.6405   -1.1080    0.0000 N   0  0  0  0  0  0  0  0  0  0  0  0
    1.0274   -1.6601    0.0000 C   0  0  0  0  0  0  0  0  0  0  0  0
    0.2427   -1.4051    0.0000 O   0  0  0  0  0  0  0  0  0  0  0  0
    1.1989   -2.4670    0.0000 C   0  0  0  0  0  0  0  0  0  0  0  0
    0.5858   -3.0191    0.0000 S   0  0  0  0  0  0  0  0  0  0  0  0
    2.0820    0.2510    0.0000 C   0  0  0  0  0  0  0  0  0  0  0  0
    2.8666   -0.0040    0.0000 C   0  0  0  0  0  0  0  0  0  0  0  0
    3.4797    0.5481    0.0000 C   0  0  0  0  0  0  0  0  0  0  0  0
    4.2644    0.2931    0.0000 C   0  0  0  0  0  0  0  0  0  0  0  0
    4.4359   -0.5138    0.0000 C   0  0  0  0  0  0  0  0  0  0  0  0
    5.2205   -0.7688    0.0000 O   0  0  0  0  0  0  0  0  0  0  0  0
    3.8228   -1.0659    0.0000 C   0  0  0  0  0  0  0  0  0  0  0  0
    3.0382   -0.8109    0.0000 C   0  0  0  0  0  0  0  0  0  0  0  0
  1  2  1  0
  2  3  1  0
  3  4  1  0
  5  4  1  6
  5  6  1  0
  5  9  1  0
  6  7  2  0
  6  8  1  0
  9 10  1  0
 10 11  2  0
 12 10  1  6
 12 13  1  0
 12 16  1  0
 13 14  1  0
 14 15  1  0
 15 16  1  0
 16 17  1  0
 17 18  2  0
 17 19  1  0
 19 20  1  0
 19 25  1  6
 20 21  1  0
 21 22  2  0
 21 23  1  0
 23 24  1  0
 25 26  1  0
 26 27  2  0
 26 32  1  0
 27 28  1  0
 28 29  2  0
 29 30  1  0
 29 31  1  0
 31 32  2  0
M  END
>  <DRUGBANK_ID>  (1) 
DB01883

>  <SECONDARY_ACCESSION_NUMBERS>  (1) 
EXPT02874

>  <COMMON_NAME>  (1) 
N-(Sulfanylacetyl)Tyrosylprolylmethioninamide

$$$$
