
     RDKit          2D

 10  9  0  0  0  0  0  0  0  0999 V2000
   -1.4263    0.2226    0.0000 C   0  0  0  0  0  0  0  0  0  0  0  0
   -0.7171   -0.1988    0.0000 C   0  0  0  0  0  0  0  0  0  0  0  0
    0.0027    0.2106    0.0000 C   0  0  0  0  0  0  0  0  0  0  0  0
    0.7119   -0.2106    0.0000 C   0  0  0  0  0  0  0  0  0  0  0  0
   -2.1463   -0.1868    0.0000 O   0  0  0  0  0  0  0  0  0  0  0  0
   -0.7171   -1.0238    0.0000 O   0  0  0  0  0  0  0  0  0  0  0  0
    0.0027    1.0356    0.0000 O   0  0  0  0  0  0  0  0  0  0  0  0
    0.7119   -1.0356    0.0000 O   0  0  0  0  0  0  0  0  0  0  0  0
    1.4318    0.1988    0.0000 C   0  0  0  0  0  0  0  0  0  0  0  0
    2.1463   -0.2136    0.0000 O   0  0  0  0  0  0  0  0  0  0  0  0
  2  1  1  0
  2  6  1  1
  3  2  1  0
  3  7  1  1
  4  3  1  0
  4  8  1  1
  5  1  1  0
  9  4  1  0
  9 10  1  0
M  END
>  <DRUGBANK_ID>  (1) 
DB11195

>  <SECONDARY_ACCESSION_NUMBERS>  (1) 
EXPT03268; DB01904

>  <COMMON_NAME>  (1) 
Xylitol

>  <CAS_NUMBER>  (1) 
87-99-0

>  <UNII>  (1) 
VCQ006KQ1E

>  <SYNONYMS>  (1) 
D-Xylitol; Xylitol

$$$$
