BTQ
     RDKit          2D

 16 17  0  0  0  0  0  0  0  0999 V2000
   -2.8965   -0.2346    0.0000 C   0  0  0  0  0  0  0  0  0  0  0  0
   -3.6110    0.1779    0.0000 O   0  0  0  0  0  0  0  0  0  0  0  0
   -2.8965   -1.0596    0.0000 O   0  0  0  0  0  0  0  0  0  0  0  0
   -2.1821    0.1779    0.0000 C   0  0  0  0  0  0  0  0  0  0  0  0
   -1.4676   -0.2346    0.0000 C   0  0  0  0  0  0  0  0  0  0  0  0
   -0.7531    0.1779    0.0000 C   0  0  0  0  0  0  0  0  0  0  0  0
   -0.0387   -0.2346    0.0000 C   0  0  0  0  0  0  0  0  0  0  0  0
    0.6758    0.1779    0.0000 C   0  0  0  0  0  0  0  0  0  0  0  0
    0.7620    0.9983    0.0000 S   0  0  0  0  0  0  0  0  0  0  0  0
    1.5690    1.1699    0.0000 C   0  0  0  0  0  0  0  0  0  0  0  0
    1.9815    0.4554    0.0000 C   0  0  0  0  0  0  0  0  0  0  0  0
    2.7352    0.1198    0.0000 N   0  0  0  0  0  0  0  0  0  0  0  0
    2.6490   -0.7006    0.0000 C   0  0  0  0  0  0  0  0  0  0  0  0
    3.2621   -1.2527    0.0000 O   0  0  0  0  0  0  0  0  0  0  0  0
    1.8420   -0.8722    0.0000 N   0  0  0  0  0  0  0  0  0  0  0  0
    1.4295   -0.1577    0.0000 C   0  0  0  0  0  0  0  0  0  0  0  0
  1  2  2  0
  1  3  1  0
  1  4  1  0
  4  5  1  0
  5  6  1  0
  6  7  1  0
  8  7  1  1
  8  9  1  0
  8 16  1  0
  9 10  1  0
 11 10  1  6
 11 12  1  0
 11 16  1  0
 12 13  1  0
 13 14  2  0
 13 15  1  0
 16 15  1  6
M  END
>  <DRUGBANK_ID>  (1) 
DB04650

>  <COMMON_NAME>  (1) 
5-[(3AS,4R,6AR)-2-OXOHEXAHYDRO-1H-THIENO[3,4-D]IMIDAZOL-4-YL]PENTANOIC ACID

$$$$
