
     RDKit          2D

  5  4  0  0  0  0  0  0  0  0999 V2000
    2.8875   -0.7145    0.0000 C   0  0  0  0  0  0  0  0  0  0  0  0
    2.0625   -0.7145    0.0000 C   0  0  0  0  0  0  0  0  0  0  0  0
    1.6500    0.0000    0.0000 C   0  0  0  0  0  0  0  0  0  0  0  0
    0.8250    0.0000    0.0000 N   0  0  0  0  0  0  0  0  0  0  0  0
    0.0000    0.0000    0.0000 C   0  0  0  0  0  0  0  0  0  0  0  0
  1  2  1  0
  2  3  1  0
  3  4  1  0
  4  5  3  0
M  CHG  2   4   1   5  -1
M  END
>  <DRUGBANK_ID>  (1) 
DB04050

>  <SECONDARY_ACCESSION_NUMBERS>  (1) 
EXPT02384

>  <COMMON_NAME>  (1) 
N-Propyl Isocyanide

>  <UNII>  (1) 
5E1K8OTJ0C

$$$$
