23C
     RDKit          2D

 29 32  0  0  0  0  0  0  0  0999 V2000
   -2.1151   -0.8385    0.0000 C   0  0  0  0  0  0  0  0  0  0  0  0
   -1.7026   -1.5530    0.0000 C   0  0  0  0  0  0  0  0  0  0  0  0
   -2.1151   -2.2674    0.0000 C   0  0  0  0  0  0  0  0  0  0  0  0
   -2.9401   -2.2674    0.0000 C   0  0  0  0  0  0  0  0  0  0  0  0
   -3.3526   -1.5530    0.0000 C   0  0  0  0  0  0  0  0  0  0  0  0
   -2.9401   -0.8385    0.0000 C   0  0  0  0  0  0  0  0  0  0  0  0
   -3.3526   -0.1240    0.0000 C   0  0  0  0  0  0  0  0  0  0  0  0
   -2.9401    0.5904    0.0000 C   0  0  0  0  0  0  0  0  0  0  0  0
   -2.1151    0.5904    0.0000 C   0  0  0  0  0  0  0  0  0  0  0  0
   -1.7026   -0.1240    0.0000 C   0  0  0  0  0  0  0  0  0  0  0  0
   -0.8776   -0.1240    0.0000 C   0  0  0  0  0  0  0  0  0  0  0  0
   -0.4651    0.5904    0.0000 C   0  0  0  0  0  0  0  0  0  0  0  0
   -0.8776    1.3049    0.0000 C   0  0  0  0  0  0  0  0  0  0  0  0
   -0.4651    2.0194    0.0000 O   0  0  0  0  0  0  0  0  0  0  0  0
   -1.7026    1.3049    0.0000 O   0  0  0  0  0  0  0  0  0  0  0  0
    0.3599    0.5904    0.0000 N   0  0  0  0  0  0  0  0  0  0  0  0
    0.8449    1.2579    0.0000 C   0  0  0  0  0  0  0  0  0  0  0  0
    0.5899    2.0425    0.0000 O   0  0  0  0  0  0  0  0  0  0  0  0
    1.6295    1.0029    0.0000 C   0  0  0  0  0  0  0  0  0  0  0  0
    2.3440    1.4154    0.0000 C   0  0  0  0  0  0  0  0  0  0  0  0
    3.0584    1.0029    0.0000 C   0  0  0  0  0  0  0  0  0  0  0  0
    3.7729    1.4154    0.0000 C   0  0  0  0  0  0  0  0  0  0  0  0
    3.7729    2.2404    0.0000 O   0  0  0  0  0  0  0  0  0  0  0  0
    4.4874    1.0029    0.0000 O   0  0  0  0  0  0  0  0  0  0  0  0
    3.0584    0.1779    0.0000 C   0  0  0  0  0  0  0  0  0  0  0  0
    2.3440   -0.2346    0.0000 C   0  0  0  0  0  0  0  0  0  0  0  0
    1.6295    0.1779    0.0000 C   0  0  0  0  0  0  0  0  0  0  0  0
    0.8449   -0.0770    0.0000 C   0  0  0  0  0  0  0  0  0  0  0  0
    0.5899   -0.8616    0.0000 O   0  0  0  0  0  0  0  0  0  0  0  0
  1  2  2  0
  1  6  1  0
  1 10  1  0
  2  3  1  0
  3  4  2  0
  4  5  1  0
  5  6  2  0
  6  7  1  0
  7  8  2  0
  8  9  1  0
  9 10  2  0
 10 11  1  0
 12 11  1  6
 12 13  1  0
 12 16  1  0
 13 14  1  0
 13 15  2  0
 16 17  1  0
 16 28  1  0
 17 18  2  0
 17 19  1  0
 19 20  1  0
 19 27  2  0
 20 21  2  0
 21 22  1  0
 21 25  1  0
 22 23  2  0
 22 24  1  0
 25 26  2  0
 26 27  1  0
 27 28  1  0
 28 29  2  0
M  END
>  <DRUGBANK_ID>  (1) 
DB06922

>  <COMMON_NAME>  (1) 
2-[(1R)-1-carboxy-2-naphthalen-1-ylethyl]-1,3-dioxo-2,3-dihydro-1H-isoindole-5-carboxylic acid

$$$$
