
     RDKit          2D

 37 40  0  0  1  0  0  0  0  0999 V2000
    3.3542   -1.0239    0.0000 C   0  0  0  0  0  0  0  0  0  0  0  0
    2.5200   -1.0952    0.0000 C   0  0  0  0  0  0  0  0  0  0  0  0
    2.3029   -1.8579    0.0000 C   0  0  0  0  0  0  0  0  0  0  0  0
    1.6354   -2.3429    0.0000 N   0  0  0  0  0  0  0  0  0  0  0  0
    1.8904   -3.1275    0.0000 C   0  0  0  0  0  0  0  0  0  0  0  0
    2.7154   -3.1275    0.0000 C   0  0  0  0  0  0  0  0  0  0  0  0
    2.9703   -2.3429    0.0000 S   0  0  0  0  0  0  0  0  0  0  0  0
    1.4054   -3.7949    0.0000 C   0  0  0  0  0  0  0  0  0  0  0  0
    1.7410   -4.5486    0.0000 C   0  0  0  0  0  0  0  0  0  0  0  0
    1.2561   -5.2160    0.0000 C   0  0  0  0  0  0  0  0  0  0  0  0
    0.4356   -5.1298    0.0000 C   0  0  0  0  0  0  0  0  0  0  0  0
    0.1000   -4.3761    0.0000 C   0  0  0  0  0  0  0  0  0  0  0  0
    0.5850   -3.7087    0.0000 C   0  0  0  0  0  0  0  0  0  0  0  0
   -0.0493   -5.7972    0.0000 C   0  0  0  0  0  0  0  0  0  0  0  0
   -0.5342   -6.4647    0.0000 N   0  0  0  0  0  0  0  0  0  0  0  0
    1.6789   -0.8298    0.0000 C   0  0  0  0  0  0  0  0  0  0  0  0
    0.9121   -0.7389    0.0000 C   0  0  0  0  0  0  0  0  0  0  0  0
    0.1595   -0.6204    0.0000 N   0  0  0  0  0  0  0  0  0  0  0  0
    0.7115   -0.0074    0.0000 C   0  0  0  0  0  0  0  0  0  0  0  0
    0.2990    0.7071    0.0000 N   0  0  0  0  0  0  0  0  0  0  0  0
   -0.5080    0.5356    0.0000 C   0  0  0  0  0  0  0  0  0  0  0  0
   -0.5942   -0.2849    0.0000 N   0  0  0  0  0  0  0  0  0  0  0  0
    0.8318   -1.3925    0.0000 O   0  0  0  0  0  0  0  0  0  0  0  0
    0.0231   -1.8612    0.0000 C   0  0  0  0  0  0  0  0  0  0  0  0
   -0.3309   -2.6337    0.0000 O   0  0  0  0  0  0  0  0  0  0  0  0
   -1.1522   -2.7112    0.0000 P   0  0  0  0  0  0  0  0  0  0  0  0
   -1.2296   -1.8898    0.0000 O   0  0  0  0  0  0  0  0  0  0  0  0
   -1.0748   -3.5325    0.0000 O   0  0  0  0  0  0  0  0  0  0  0  0
   -1.9736   -2.7886    0.0000 O   0  0  0  0  0  0  0  0  0  0  0  0
    2.0009    0.0940    0.0000 C   0  0  0  0  0  0  0  0  0  0  0  0
    1.5884    0.8085    0.0000 C   0  0  0  0  0  0  0  0  0  0  0  0
    2.0009    1.5230    0.0000 C   0  0  0  0  0  0  0  0  0  0  0  0
    2.8259    1.5230    0.0000 C   0  0  0  0  0  0  0  0  0  0  0  0
    3.2679    2.2585    0.0000 F   0  0  0  0  0  0  0  0  0  0  0  0
    3.2384    0.8085    0.0000 C   0  0  0  0  0  0  0  0  0  0  0  0
    2.8259    0.0940    0.0000 C   0  0  0  0  0  0  0  0  0  0  0  0
    3.6702   -0.2317    0.0000 F   0  0  0  0  0  0  0  0  0  0  0  0
  2  1  1  1
  2  3  1  0
  2 16  1  0
  3  4  2  0
  3  7  1  0
  4  5  1  0
  5  6  2  0
  5  8  1  0
  6  7  1  0
  8  9  2  0
  8 13  1  0
  9 10  1  0
 10 11  2  0
 11 12  1  0
 11 14  1  0
 12 13  2  0
 14 15  3  0
 16 17  1  6
 16 23  1  0
 16 30  1  0
 17 18  1  0
 18 19  1  0
 18 22  1  0
 19 20  2  0
 20 21  1  0
 21 22  2  0
 23 24  1  0
 24 25  1  0
 25 26  1  0
 26 27  1  0
 26 28  1  0
 26 29  2  0
 30 31  2  0
 30 36  1  0
 31 32  1  0
 32 33  2  0
 33 34  1  0
 33 35  1  0
 35 36  2  0
 36 37  1  0
M  END
>  <DRUGBANK_ID>  (1) 
DB15204

>  <COMMON_NAME>  (1) 
Fosravuconazole

>  <CAS_NUMBER>  (1) 
351227-64-0

>  <UNII>  (1) 
L4Q6O5430L

>  <SYNONYMS>  (1) 
Fosravuconazole

$$$$
