
     RDKit          2D

 28 30  0  0  0  0  0  0  0  0999 V2000
   -3.1357    1.2567    0.0000 C   0  0  0  0  0  0  0  0  0  0  0  0
   -3.1371    0.4292    0.0000 C   0  0  0  0  0  0  0  0  0  0  0  0
   -2.4239    0.0162    0.0000 C   0  0  0  0  0  0  0  0  0  0  0  0
   -2.4259    1.6697    0.0000 C   0  0  0  0  0  0  0  0  0  0  0  0
   -0.2891    0.1208    0.0000 N   0  0  0  0  0  0  0  0  0  0  0  0
    0.0427    0.8815    0.0000 C   0  0  0  0  0  0  0  0  0  0  0  0
   -0.3339    1.5712    0.0000 C   0  0  0  0  0  0  0  0  0  0  0  0
   -1.0758   -0.0734    0.0000 C   0  0  0  0  0  0  0  0  0  0  0  0
   -1.7047    0.4240    0.0000 C   0  0  0  0  0  0  0  0  0  0  0  0
   -1.7079    1.2607    0.0000 C   0  0  0  0  0  0  0  0  0  0  0  0
   -1.1061    1.7419    0.0000 N   0  0  0  0  0  0  0  0  0  0  0  0
    0.1614    2.2309    0.0000 O   0  0  0  0  0  0  0  0  0  0  0  0
    0.8669    0.9179    0.0000 O   0  0  0  0  0  0  0  0  0  0  0  0
    1.3106    0.2224    0.0000 C   0  0  0  0  0  0  0  0  0  0  0  0
    2.1348    0.2588    0.0000 C   0  0  0  0  0  0  0  0  0  0  0  0
    0.9300   -0.5096    0.0000 O   0  0  0  0  0  0  0  0  0  0  0  0
    2.5784   -0.4367    0.0000 C   0  0  0  0  0  0  0  0  0  0  0  0
    3.4028   -0.4003    0.0000 C   0  0  0  0  0  0  0  0  0  0  0  0
    3.8464   -1.0959    0.0000 O   0  0  0  0  0  0  0  0  0  0  0  0
    3.7834    0.3316    0.0000 O   0  0  0  0  0  0  0  0  0  0  0  0
   -1.4808   -0.7951    0.0000 C   0  0  0  0  0  0  0  0  0  0  0  0
   -2.3070   -0.8019    0.0000 C   0  0  0  0  0  0  0  0  0  0  0  0
   -2.7122   -1.5196    0.0000 C   0  0  0  0  0  0  0  0  0  0  0  0
   -2.2925   -2.2309    0.0000 C   0  0  0  0  0  0  0  0  0  0  0  0
   -1.4634   -2.2200    0.0000 C   0  0  0  0  0  0  0  0  0  0  0  0
   -1.0617   -1.5018    0.0000 C   0  0  0  0  0  0  0  0  0  0  0  0
   -0.2367   -1.4913    0.0000 Cl  0  0  0  0  0  0  0  0  0  0  0  0
   -3.8464    0.0177    0.0000 Br  0  0  0  0  0  0  0  0  0  0  0  0
  1  2  2  0
  2  3  1  0
  2 28  1  0
  3  9  2  0
  4  1  1  0
  5  6  1  0
  5  8  2  0
  6  7  1  0
  6 13  1  0
  7 12  2  0
  8  9  1  0
  8 21  1  0
  9 10  1  0
 10  4  2  0
 10 11  1  0
 11  7  1  0
 13 14  1  0
 14 15  1  0
 14 16  2  0
 15 17  1  0
 17 18  1  0
 18 19  1  0
 18 20  2  0
 21 22  2  0
 22 23  1  0
 23 24  2  0
 24 25  1  0
 25 26  2  0
 26 21  1  0
 26 27  1  0
M  END
>  <DRUGBANK_ID>  (1) 
DB14715

>  <COMMON_NAME>  (1) 
Cinazepam

>  <CAS_NUMBER>  (1) 
172986-25-3

>  <UNII>  (1) 
U4SS7UFXC7

$$$$
