
     RDKit          2D

 23 23  0  0  0  0  0  0  0  0999 V2000
    0.3572    0.7293    0.0000 O   0  0  0  0  0  0  0  0  0  0  0  0
    2.5006   -0.5082    0.0000 O   0  0  0  0  0  0  0  0  0  0  0  0
   -0.3572   -1.3332    0.0000 O   0  0  0  0  0  0  0  0  0  0  0  0
   -1.0716    0.7293    0.0000 O   0  0  0  0  0  0  0  0  0  0  0  0
    2.3092    1.8562    0.0000 O   0  0  0  0  0  0  0  0  0  0  0  0
    1.0717    2.5707    0.0000 O   0  0  0  0  0  0  0  0  0  0  0  0
   -2.5006   -0.0957    0.0000 O   0  0  0  0  0  0  0  0  0  0  0  0
    2.5006   -1.3332    0.0000 O   0  0  0  0  0  0  0  0  0  0  0  0
    1.0717   -1.3332    0.0000 N   0  0  0  0  0  0  0  0  0  0  0  0
    1.0717   -0.5082    0.0000 C   0  0  0  0  0  0  0  0  0  0  0  0
    0.3572   -0.0957    0.0000 C   0  0  0  0  0  0  0  0  0  0  0  0
    1.0717    1.1418    0.0000 C   0  0  0  0  0  0  0  0  0  0  0  0
    1.7862   -0.0957    0.0000 C   0  0  0  0  0  0  0  0  0  0  0  0
    1.7862    0.7293    0.0000 C   0  0  0  0  0  0  0  0  0  0  0  0
   -0.3572   -0.5082    0.0000 C   0  0  0  0  0  0  0  0  0  0  0  0
    0.6592    1.8562    0.0000 C   0  0  0  0  0  0  0  0  0  0  0  0
   -1.0716   -0.0957    0.0000 C   0  0  0  0  0  0  0  0  0  0  0  0
    1.4842    1.8562    0.0000 C   0  0  0  0  0  0  0  0  0  0  0  0
   -1.7861   -0.5082    0.0000 C   0  0  0  0  0  0  0  0  0  0  0  0
   -0.1657    1.8562    0.0000 C   0  0  0  0  0  0  0  0  0  0  0  0
    1.7862   -1.7457    0.0000 C   0  0  0  0  0  0  0  0  0  0  0  0
    1.7862   -2.5707    0.0000 C   0  0  0  0  0  0  0  0  0  0  0  0
   -0.5782    2.5707    0.0000 C   0  0  0  0  0  0  0  0  0  0  0  0
 11  1  1  6
  1 12  1  0
  5 18  1  0
  6 18  2  0
  7 19  1  0
  8 21  2  0
  9 21  1  0
 10  9  1  1
 10 11  1  0
 10 13  1  0
 11 15  1  0
 12 14  1  0
 12 16  1  6
 12 18  1  0
 13  2  1  6
 13 14  1  0
 15  3  1  6
 15 17  1  0
 16 20  1  0
 17  4  1  1
 17 19  1  0
 20 23  2  0
 21 22  1  0
M  END
>  <DRUGBANK_ID>  (1) 
DB01716

>  <SECONDARY_ACCESSION_NUMBERS>  (1) 
EXPT00972

>  <COMMON_NAME>  (1) 
2-propenyl-N-acetyl-neuramic acid

$$$$
