
     RDKit          2D

  6  5  0  0  0  0  0  0  0  0999 V2000
    0.1105   -1.2375    0.0000 O   0  0  0  0  0  0  0  0  0  0  0  0
    0.8250   -0.8250    0.0000 C   0  0  0  0  0  0  0  0  0  0  0  0
    0.8250    0.0000    0.0000 C   0  0  0  0  0  0  0  0  0  0  0  0
    0.8250    0.8250    0.0000 F   0  0  0  0  0  0  0  0  0  0  0  0
    1.6500    0.0000    0.0000 F   0  0  0  0  0  0  0  0  0  0  0  0
    0.0000    0.0000    0.0000 F   0  0  0  0  0  0  0  0  0  0  0  0
  1  2  1  0
  2  3  1  0
  3  4  1  0
  3  5  1  0
  3  6  1  0
M  END
>  <DRUGBANK_ID>  (1) 
DB03226

>  <SECONDARY_ACCESSION_NUMBERS>  (1) 
EXPT01368

>  <COMMON_NAME>  (1) 
Trifluoroethanol

>  <CAS_NUMBER>  (1) 
75-89-8

>  <UNII>  (1) 
8T8I76KYF1

>  <SYNONYMS>  (1) 
2,2,2-trifluoroethanol; 2,2,2-trifluoroethyl alcohol

$$$$
