
     RDKit          2D

 37 40  0  0  0  0  0  0  0  0999 V2000
    3.7125   -4.3974    0.0000 C   0  0  0  0  0  0  0  0  0  0  0  0
    4.4270   -4.8099    0.0000 C   0  0  0  0  0  0  0  0  0  0  0  0
    4.4270   -5.6349    0.0000 C   0  0  0  0  0  0  0  0  0  0  0  0
    5.1414   -4.3974    0.0000 O   0  0  0  0  0  0  0  0  0  0  0  0
    5.8559   -4.8099    0.0000 C   0  0  0  0  0  0  0  0  0  0  0  0
    5.8559   -5.6349    0.0000 O   0  0  0  0  0  0  0  0  0  0  0  0
    6.5704   -4.3974    0.0000 C   0  0  0  0  0  0  0  0  0  0  0  0
    7.2849   -4.8099    0.0000 N   0  0  0  0  0  0  0  0  0  0  0  0
    7.9993   -4.3974    0.0000 C   0  0  0  0  0  0  0  0  0  0  0  0
    8.7138   -4.8099    0.0000 C   0  0  0  0  0  0  0  0  0  0  0  0
    9.4283   -4.3974    0.0000 C   0  0  0  0  0  0  0  0  0  0  0  0
    9.4283   -3.5724    0.0000 C   0  0  0  0  0  0  0  0  0  0  0  0
    8.7138   -3.1599    0.0000 C   0  0  0  0  0  0  0  0  0  0  0  0
    8.7138   -2.3349    0.0000 C   0  0  0  0  0  0  0  0  0  0  0  0
    7.9993   -1.9224    0.0000 N   0  0  0  0  0  0  0  0  0  0  0  0
    7.2849   -2.3349    0.0000 C   0  0  0  0  0  0  0  0  0  0  0  0
    6.5704   -1.9224    0.0000 C   0  0  0  0  0  0  0  0  0  0  0  0
    5.8559   -2.3349    0.0000 C   0  0  0  0  0  0  0  0  0  0  0  0
    5.1414   -1.9224    0.0000 C   0  0  0  0  0  0  0  0  0  0  0  0
    5.1414   -1.0974    0.0000 C   0  0  0  0  0  0  0  0  0  0  0  0
    5.8559   -0.6849    0.0000 C   0  0  0  0  0  0  0  0  0  0  0  0
    6.5704   -1.0974    0.0000 C   0  0  0  0  0  0  0  0  0  0  0  0
    4.4270   -0.6849    0.0000 N   0  0  0  0  0  0  0  0  0  0  0  0
    3.6733   -1.0204    0.0000 C   0  0  0  0  0  0  0  0  0  0  0  0
    3.1213   -0.4073    0.0000 C   0  0  0  0  0  0  0  0  0  0  0  0
    3.5338    0.3072    0.0000 C   0  0  0  0  0  0  0  0  0  0  0  0
    4.3407    0.1356    0.0000 N   0  0  0  0  0  0  0  0  0  0  0  0
    7.9993   -1.0974    0.0000 S   0  0  0  0  0  0  0  0  0  0  0  0
    7.9993   -0.2724    0.0000 O   0  0  0  0  0  0  0  0  0  0  0  0
    7.1743   -1.0974    0.0000 O   0  0  0  0  0  0  0  0  0  0  0  0
    8.8243   -1.0974    0.0000 C   0  0  0  0  0  0  0  0  0  0  0  0
    9.2368   -0.3829    0.0000 C   0  0  0  0  0  0  0  0  0  0  0  0
   10.0618   -0.3829    0.0000 C   0  0  0  0  0  0  0  0  0  0  0  0
   10.4743   -1.0974    0.0000 C   0  0  0  0  0  0  0  0  0  0  0  0
   10.0618   -1.8118    0.0000 N   0  0  0  0  0  0  0  0  0  0  0  0
    9.2368   -1.8118    0.0000 C   0  0  0  0  0  0  0  0  0  0  0  0
    7.9993   -3.5724    0.0000 N   0  0  0  0  0  0  0  0  0  0  0  0
  1  2  1  0
  2  3  1  0
  2  4  1  0
  4  5  1  0
  5  6  2  0
  5  7  1  0
  7  8  1  0
  8  9  1  0
  9 10  2  0
  9 37  1  0
 10 11  1  0
 11 12  2  0
 12 13  1  0
 13 14  1  0
 13 37  2  0
 14 15  1  0
 15 16  1  0
 15 28  1  0
 16 17  1  0
 17 18  2  0
 17 22  1  0
 18 19  1  0
 19 20  2  0
 20 21  1  0
 20 23  1  0
 21 22  2  0
 23 24  1  0
 23 27  1  0
 24 25  2  0
 25 26  1  0
 26 27  2  0
 28 29  2  0
 28 30  2  0
 28 31  1  0
 31 32  2  0
 31 36  1  0
 32 33  1  0
 33 34  2  0
 34 35  1  0
 35 36  2  0
M  END
>  <DRUGBANK_ID>  (1) 
DB15071

>  <COMMON_NAME>  (1) 
Omidenepag isopropyl

>  <CAS_NUMBER>  (1) 
1187451-19-9

>  <UNII>  (1) 
G0G0H52U6K

>  <SYNONYMS>  (1) 
isopropyl N-(6-(((4-(1H-pyrazol-1-yl)benzyl)(3-pyridinylsulfonyl)amino)methyl)-2-pyridinyl)glycinate; Omidenepag isopropyl

$$$$
