
     RDKit          2D

 24 25  0  0  1  0  0  0  0  0999 V2000
    6.2814   -0.9563    0.0000 O   0  0  0  0  0  0  0  0  0  0  0  0
    6.5378   -0.1721    0.0000 O   0  0  0  0  0  0  0  0  0  0  0  0
    5.2178   -1.9106    0.0000 O   0  0  0  0  0  0  0  0  0  0  0  0
    8.3702    3.1348    0.0000 O   0  0  0  0  0  0  0  0  0  0  0  0
    8.6649    1.7366    0.0000 O   0  0  0  0  0  0  0  0  0  0  0  0
    5.1795    0.2718    0.0000 N   0  0  0  0  0  0  0  0  0  0  0  0
    3.8596   -2.7945    0.0000 N   0  0  0  0  0  0  0  0  0  0  0  0
    6.7557    2.7945    0.0000 N   0  0  0  0  0  0  0  0  0  0  0  0
    4.1159   -0.6825    0.0000 C   0  0  0  0  0  0  0  0  0  0  0  0
    4.9232   -0.5123    0.0000 C   0  0  0  0  0  0  0  0  0  0  0  0
    3.8596   -1.4667    0.0000 C   0  0  0  0  0  0  0  0  0  0  0  0
    3.0790   -1.7181    0.0000 C   0  0  0  0  0  0  0  0  0  0  0  0
    3.0790   -2.5431    0.0000 C   0  0  0  0  0  0  0  0  0  0  0  0
    6.2431    1.2261    0.0000 C   0  0  0  0  0  0  0  0  0  0  0  0
    7.0504    1.3962    0.0000 C   0  0  0  0  0  0  0  0  0  0  0  0
    4.3411   -2.1306    0.0000 C   0  0  0  0  0  0  0  0  0  0  0  0
    5.9868    0.4420    0.0000 C   0  0  0  0  0  0  0  0  0  0  0  0
    7.3066    2.1805    0.0000 C   0  0  0  0  0  0  0  0  0  0  0  0
    2.3645   -1.3056    0.0000 C   0  0  0  0  0  0  0  0  0  0  0  0
    5.4742   -1.1264    0.0000 C   0  0  0  0  0  0  0  0  0  0  0  0
    2.3645   -2.9556    0.0000 C   0  0  0  0  0  0  0  0  0  0  0  0
    1.6500   -1.7181    0.0000 C   0  0  0  0  0  0  0  0  0  0  0  0
    1.6500   -2.5431    0.0000 C   0  0  0  0  0  0  0  0  0  0  0  0
    8.1139    2.3506    0.0000 C   0  0  0  0  0  0  0  0  0  0  0  0
  1 20  1  0
  2 17  2  0
  3 20  2  0
  4 24  1  0
  5 24  2  0
  6 17  1  0
  7 13  1  0
  7 16  1  0
 10  9  1  6
  9 11  1  0
 10  6  1  0
 10 20  1  0
 11 12  1  0
 11 16  2  0
 12 13  2  0
 12 19  1  0
 13 21  1  0
 14 15  1  0
 14 17  1  0
 15 18  1  0
 18  8  1  1
 18 24  1  0
 19 22  2  0
 21 23  2  0
 22 23  1  0
M  END
>  <DRUGBANK_ID>  (1) 
DB05475

>  <COMMON_NAME>  (1) 
Golotimod

>  <CAS_NUMBER>  (1) 
229305-39-9

>  <UNII>  (1) 
637C487Y09

>  <SYNONYMS>  (1) 
Golotimod

$$$$
