
     RDKit          2D

 20 22  0  0  0  0  0  0  0  0999 V2000
   -1.2302   -0.7736    0.0000 C   0  0  0  0  0  0  0  0  0  0  0  0
    3.0565   -0.7736    0.0000 C   0  0  0  0  0  0  0  0  0  0  0  0
    3.7710   -0.3611    0.0000 C   0  0  0  0  0  0  0  0  0  0  0  0
    1.6276   -0.7736    0.0000 C   0  0  0  0  0  0  0  0  0  0  0  0
    3.2280    1.6832    0.0000 C   0  0  0  0  0  0  0  0  0  0  0  0
   -1.9447   -0.3611    0.0000 C   0  0  0  0  0  0  0  0  0  0  0  0
   -0.5158   -0.3611    0.0000 C   0  0  0  0  0  0  0  0  0  0  0  0
    0.9131   -0.3611    0.0000 C   0  0  0  0  0  0  0  0  0  0  0  0
    4.0485    1.7695    0.0000 C   0  0  0  0  0  0  0  0  0  0  0  0
    2.3420    0.4638    0.0000 C   0  0  0  0  0  0  0  0  0  0  0  0
   -3.4561   -0.5601    0.0000 C   0  0  0  0  0  0  0  0  0  0  0  0
   -2.8727   -1.5705    0.0000 C   0  0  0  0  0  0  0  0  0  0  0  0
    2.3420   -0.3611    0.0000 C   0  0  0  0  0  0  0  0  0  0  0  0
    3.0565    0.8763    0.0000 C   0  0  0  0  0  0  0  0  0  0  0  0
   -3.6696   -1.3570    0.0000 C   0  0  0  0  0  0  0  0  0  0  0  0
    3.7710    0.4638    0.0000 C   0  0  0  0  0  0  0  0  0  0  0  0
   -2.6592   -0.7736    0.0000 N   0  0  0  0  0  0  0  0  0  0  0  0
   -4.3841   -1.7695    0.0000 O   0  0  0  0  0  0  0  0  0  0  0  0
    0.1986   -0.7736    0.0000 O   0  0  0  0  0  0  0  0  0  0  0  0
    4.3841    1.0158    0.0000 S   0  0  0  0  0  0  0  0  0  0  0  0
  3  2  2  0
  6  1  1  0
  7  1  1  0
  8  4  1  0
  9  5  2  0
 13  2  1  0
 13  4  1  0
 13 10  2  0
 14  5  1  0
 14 10  1  0
 15 11  1  0
 15 12  1  0
 16  3  1  0
 16 14  2  0
 17  6  1  0
 17 11  1  0
 17 12  1  0
 18 15  1  0
 19  7  1  0
 19  8  1  0
 20  9  1  0
 20 16  1  0
M  END
>  <DRUGBANK_ID>  (1) 
DB05938

>  <COMMON_NAME>  (1) 
Edonerpic

>  <CAS_NUMBER>  (1) 
519187-23-6

>  <UNII>  (1) 
QY49O94S2W

>  <SYNONYMS>  (1) 
Edonerpic

$$$$
