
     RDKit          2D

 30 33  0  0  0  0  0  0  0  0999 V2000
    2.8483   -0.3019    0.0000 C   0  0  0  0  0  0  0  0  0  0  0  0
    2.8483   -1.1269    0.0000 C   0  0  0  0  0  0  0  0  0  0  0  0
    2.1338   -1.5394    0.0000 C   0  0  0  0  0  0  0  0  0  0  0  0
    1.4193   -1.1269    0.0000 C   0  0  0  0  0  0  0  0  0  0  0  0
    1.4193   -0.3019    0.0000 C   0  0  0  0  0  0  0  0  0  0  0  0
    2.1338    0.1105    0.0000 N   0  0  0  0  0  0  0  0  0  0  0  0
    3.5627    0.1105    0.0000 N   0  0  0  0  0  0  0  0  0  0  0  0
    0.6347   -1.3819    0.0000 N   0  0  0  0  0  0  0  0  0  0  0  0
    0.6347   -0.0470    0.0000 C   0  0  0  0  0  0  0  0  0  0  0  0
    0.1498   -0.7144    0.0000 C   0  0  0  0  0  0  0  0  0  0  0  0
   -0.6751   -0.7144    0.0000 C   0  0  0  0  0  0  0  0  0  0  0  0
   -1.0876   -1.4289    0.0000 C   0  0  0  0  0  0  0  0  0  0  0  0
   -1.9126   -1.4289    0.0000 C   0  0  0  0  0  0  0  0  0  0  0  0
   -2.3251   -2.1434    0.0000 C   0  0  0  0  0  0  0  0  0  0  0  0
   -1.9126   -2.8578    0.0000 C   0  0  0  0  0  0  0  0  0  0  0  0
   -1.0876   -2.8578    0.0000 O   0  0  0  0  0  0  0  0  0  0  0  0
   -2.3251   -3.5723    0.0000 O   0  0  0  0  0  0  0  0  0  0  0  0
   -2.3251   -0.7144    0.0000 C   0  0  0  0  0  0  0  0  0  0  0  0
   -1.9126    0.0000    0.0000 C   0  0  0  0  0  0  0  0  0  0  0  0
   -1.0876    0.0000    0.0000 C   0  0  0  0  0  0  0  0  0  0  0  0
   -0.6751    0.7144    0.0000 O   0  0  0  0  0  0  0  0  0  0  0  0
   -2.3251    0.7144    0.0000 C   0  0  0  0  0  0  0  0  0  0  0  0
   -3.1501    0.7144    0.0000 C   0  0  0  0  0  0  0  0  0  0  0  0
   -3.5626    1.4289    0.0000 C   0  0  0  0  0  0  0  0  0  0  0  0
   -3.1501    2.1434    0.0000 C   0  0  0  0  0  0  0  0  0  0  0  0
   -2.3251    2.1434    0.0000 C   0  0  0  0  0  0  0  0  0  0  0  0
   -1.9126    2.8578    0.0000 N   0  0  0  0  0  0  0  0  0  0  0  0
   -2.3251    3.5723    0.0000 O   0  0  0  0  0  0  0  0  0  0  0  0
   -1.0876    2.8578    0.0000 O   0  0  0  0  0  0  0  0  0  0  0  0
   -1.9126    1.4289    0.0000 C   0  0  0  0  0  0  0  0  0  0  0  0
  1  2  2  0
  1  6  1  0
  1  7  1  0
  2  3  1  0
  3  4  2  0
  4  5  1  0
  4  8  1  0
  5  6  2  0
  5  9  1  0
 10  8  1  0
 10  9  2  0
 11 10  1  0
 11 12  2  0
 11 20  1  0
 12 13  1  0
 13 14  1  0
 13 18  2  0
 14 15  1  0
 15 16  1  0
 15 17  2  0
 18 19  1  0
 19 20  2  0
 20 21  1  0
 22 19  1  0
 22 23  2  0
 22 30  1  0
 23 24  1  0
 24 25  2  0
 25 26  1  0
 26 27  1  0
 26 30  2  0
 27 28  1  0
 27 29  2  0
M  CHG  2  27   1  28  -1
M  END
>  <DRUGBANK_ID>  (1) 
DB08232

>  <COMMON_NAME>  (1) 
[5-(5-Amino-1H-pyrrolo[3,2-b]pyridin-2-yl)-6-hydroxy-3'-nitro-3-biphenylyl]acetic acid

$$$$
