797
     RDKit          2D

 21 24  0  0  0  0  0  0  0  0999 V2000
   -0.3305    0.2937    0.0000 C   0  0  0  0  0  0  0  0  0  0  0  0
   -1.1375    0.1222    0.0000 C   0  0  0  0  0  0  0  0  0  0  0  0
   -1.3924   -0.6624    0.0000 C   0  0  0  0  0  0  0  0  0  0  0  0
   -0.8404   -1.2755    0.0000 C   0  0  0  0  0  0  0  0  0  0  0  0
   -0.0334   -1.1040    0.0000 C   0  0  0  0  0  0  0  0  0  0  0  0
    0.2215   -0.3194    0.0000 C   0  0  0  0  0  0  0  0  0  0  0  0
   -2.1994   -0.8339    0.0000 C   0  0  0  0  0  0  0  0  0  0  0  0
   -2.4543   -1.6186    0.0000 C   0  0  0  0  0  0  0  0  0  0  0  0
   -1.9023   -2.2316    0.0000 C   0  0  0  0  0  0  0  0  0  0  0  0
   -1.0953   -2.0601    0.0000 C   0  0  0  0  0  0  0  0  0  0  0  0
   -2.1572   -3.0163    0.0000 O   0  0  0  0  0  0  0  0  0  0  0  0
   -0.0756    1.0784    0.0000 C   0  0  0  0  0  0  0  0  0  0  0  0
    0.7091    1.3333    0.0000 C   0  0  0  0  0  0  0  0  0  0  0  0
    0.7091    2.1583    0.0000 C   0  0  0  0  0  0  0  0  0  0  0  0
   -0.0756    2.4132    0.0000 O   0  0  0  0  0  0  0  0  0  0  0  0
   -0.5605    1.7458    0.0000 N   0  0  0  0  0  0  0  0  0  0  0  0
    1.4235    0.9208    0.0000 C   0  0  0  0  0  0  0  0  0  0  0  0
    2.1380    1.3333    0.0000 C   0  0  0  0  0  0  0  0  0  0  0  0
    2.1380    2.1583    0.0000 C   0  0  0  0  0  0  0  0  0  0  0  0
    1.4235    2.5708    0.0000 C   0  0  0  0  0  0  0  0  0  0  0  0
    2.8525    2.5708    0.0000 O   0  0  0  0  0  0  0  0  0  0  0  0
  1  2  2  0
  1  6  1  0
  1 12  1  0
  2  3  1  0
  3  4  2  0
  3  7  1  0
  4  5  1  0
  4 10  1  0
  5  6  2  0
  7  8  2  0
  8  9  1  0
  9 10  2  0
  9 11  1  0
 12 13  1  0
 12 16  2  0
 13 14  2  0
 13 17  1  0
 14 15  1  0
 14 20  1  0
 15 16  1  0
 17 18  2  0
 18 19  1  0
 19 20  2  0
 19 21  1  0
M  END
>  <DRUGBANK_ID>  (1) 
DB07236

>  <COMMON_NAME>  (1) 
3-(6-HYDROXY-NAPHTHALEN-2-YL)-BENZO[D]ISOOXAZOL-6-OL

$$$$
