NA4
     RDKit          2D

 25 26  0  0  0  0  0  0  0  0999 V2000
   -0.2451    0.1145    0.0000 C   0  0  0  0  0  0  0  0  0  0  0  0
   -0.9595    0.5270    0.0000 C   0  0  0  0  0  0  0  0  0  0  0  0
   -0.9595    1.3520    0.0000 C   0  0  0  0  0  0  0  0  0  0  0  0
   -0.2451    1.7645    0.0000 N   0  0  0  0  0  0  0  0  0  0  0  0
    0.4694    1.3520    0.0000 C   0  0  0  0  0  0  0  0  0  0  0  0
    0.4694    0.5270    0.0000 C   0  0  0  0  0  0  0  0  0  0  0  0
    1.1839    0.1145    0.0000 C   0  0  0  0  0  0  0  0  0  0  0  0
    1.1839   -0.7105    0.0000 O   0  0  0  0  0  0  0  0  0  0  0  0
    1.8983    0.5270    0.0000 N   0  0  0  0  0  0  0  0  0  0  0  0
    2.6128    0.1145    0.0000 C   0  0  0  0  0  0  0  0  0  0  0  0
    3.3273    0.5270    0.0000 C   0  0  0  0  0  0  0  0  0  0  0  0
    2.6128   -0.7105    0.0000 C   0  0  0  0  0  0  0  0  0  0  0  0
    3.3273   -1.1230    0.0000 O   0  0  0  0  0  0  0  0  0  0  0  0
    4.0418    0.1145    0.0000 C   0  0  0  0  0  0  0  0  0  0  0  0
    4.7562    0.5270    0.0000 O   0  0  0  0  0  0  0  0  0  0  0  0
    4.0418   -0.7105    0.0000 O   0  0  0  0  0  0  0  0  0  0  0  0
   -3.1030    0.1145    0.0000 C   0  0  0  0  0  0  0  0  0  0  0  0
   -2.3885    0.5270    0.0000 C   0  0  0  0  0  0  0  0  0  0  0  0
   -1.6740    0.1145    0.0000 C   0  0  0  0  0  0  0  0  0  0  0  0
   -1.6740   -0.7105    0.0000 C   0  0  0  0  0  0  0  0  0  0  0  0
   -2.3885   -1.1230    0.0000 C   0  0  0  0  0  0  0  0  0  0  0  0
   -3.1030   -0.7105    0.0000 C   0  0  0  0  0  0  0  0  0  0  0  0
   -3.8174   -1.1230    0.0000 C   0  0  0  0  0  0  0  0  0  0  0  0
   -3.8174   -1.9480    0.0000 O   0  0  0  0  0  0  0  0  0  0  0  0
   -4.5319   -0.7105    0.0000 O   0  0  0  0  0  0  0  0  0  0  0  0
  1  2  2  0
  1  6  1  0
  2  3  1  0
  2 19  1  0
  3  4  2  0
  4  5  1  0
  5  6  2  0
  6  7  1  0
  7  8  2  0
  7  9  1  0
 10  9  1  0
 10 11  1  1
 10 12  1  0
 11 14  1  0
 12 13  2  0
 14 15  2  0
 14 16  1  0
 17 18  2  0
 17 22  1  0
 18 19  1  0
 19 20  2  0
 20 21  1  0
 21 22  2  0
 22 23  1  0
 23 24  1  0
 23 25  2  0
M  END
>  <DRUGBANK_ID>  (1) 
DB08251

>  <COMMON_NAME>  (1) 
4-[5-(2-CARBOXY-1-FORMYL-ETHYLCARBAMOYL)-PYRIDIN-3-YL]-BENZOIC ACID

$$$$
