
     RDKit          2D

 26 27  0  0  1  0  0  0  0  0999 V2000
    2.4751    4.5680    0.0000 Cl  0  0  0  0  0  0  0  0  0  0  0  0
    0.0000    3.5112    0.0000 Cl  0  0  0  0  0  0  0  0  0  0  0  0
    6.0475    1.6805    0.0000 N   0  0  0  0  0  0  0  0  0  0  0  0
    6.7620    2.0930    0.0000 C   0  0  0  0  0  0  0  0  0  0  0  0
    7.4765    1.6805    0.0000 C   0  0  0  0  0  0  0  0  0  0  0  0
    6.7620    2.9180    0.0000 C   0  0  0  0  0  0  0  0  0  0  0  0
    8.1909    2.0930    0.0000 C   0  0  0  0  0  0  0  0  0  0  0  0
    7.4765    3.3305    0.0000 C   0  0  0  0  0  0  0  0  0  0  0  0
    8.1909    2.9180    0.0000 C   0  0  0  0  0  0  0  0  0  0  0  0
    3.9041    5.3931    0.0000 C   0  0  0  0  0  0  0  0  0  0  0  0
    3.1895    5.8056    0.0000 C   0  0  0  0  0  0  0  0  0  0  0  0
    4.6185    5.8056    0.0000 C   0  0  0  0  0  0  0  0  0  0  0  0
    3.1895    6.6306    0.0000 C   0  0  0  0  0  0  0  0  0  0  0  0
    4.6185    6.6306    0.0000 C   0  0  0  0  0  0  0  0  0  0  0  0
    3.9041    7.0431    0.0000 C   0  0  0  0  0  0  0  0  0  0  0  0
    5.3330    2.0930    0.0000 C   0  0  0  0  0  0  0  0  0  0  0  0
    3.9041    4.5680    0.0000 C   0  0  0  0  0  0  0  0  0  0  0  0
    6.0475    0.8555    0.0000 C   0  0  0  0  0  0  0  0  0  0  0  0
    4.6185    1.6805    0.0000 C   0  0  0  0  0  0  0  0  0  0  0  0
    3.1895    4.1555    0.0000 C   0  0  0  0  0  0  0  0  0  0  0  0
    4.6185    4.1555    0.0000 C   0  0  0  0  0  0  0  0  0  0  0  0
    6.7620    0.4430    0.0000 C   0  0  0  0  0  0  0  0  0  0  0  0
    3.9041    2.9180    0.0000 C   0  0  0  0  0  0  0  0  0  0  0  0
    3.1895    3.3305    0.0000 C   0  0  0  0  0  0  0  0  0  0  0  0
    4.6185    3.3305    0.0000 C   0  0  0  0  0  0  0  0  0  0  0  0
    3.9041    2.0930    0.0000 C   0  0  0  0  0  0  0  0  0  0  0  0
  1 20  1  0
  3  4  1  0
  3 16  1  0
  3 18  1  0
  4  5  1  0
  4  6  1  0
  5  7  1  0
  6  8  1  0
  7  9  1  0
  8  9  1  0
 10 11  1  0
 10 12  1  0
 10 17  1  0
 11 13  1  0
 12 14  1  0
 13 15  1  0
 14 15  1  0
 16 19  1  0
 17 20  2  0
 17 21  1  0
 18 22  1  0
 19 26  2  0
 20 24  1  0
 21 25  2  0
 23 24  2  0
 23 25  1  0
 23 26  1  0
M  END
>  <DRUGBANK_ID>  (1) 
DB05792

>  <COMMON_NAME>  (1) 
Arylacenamide

>  <CAS_NUMBER>  (1) 
132173-07-0

>  <UNII>  (1) 
9K6U3I1UR0

$$$$
