
     RDKit          2D

 24 23  0  0  0  0  0  0  0  0999 V2000
    4.2970   -0.2104    0.0000 C   0  0  0  0  0  0  0  0  0  0  0  0
    3.5838   -0.6230    0.0000 C   0  0  0  0  0  0  0  0  0  0  0  0
    3.5838   -1.4480    0.0000 C   0  0  0  0  0  0  0  0  0  0  0  0
    2.8618   -0.2104    0.0000 C   0  0  0  0  0  0  0  0  0  0  0  0
    2.8618    0.6230    0.0000 C   0  0  0  0  0  0  0  0  0  0  0  0
    2.1485    1.0355    0.0000 O   0  0  0  0  0  0  0  0  0  0  0  0
    3.5838    1.0355    0.0000 O   0  0  0  0  0  0  0  0  0  0  0  0
    2.1485   -0.6230    0.0000 N   0  0  0  0  0  0  0  0  0  0  0  0
    1.4352   -0.2104    0.0000 C   0  0  0  0  0  0  0  0  0  0  0  0
    0.7133   -0.6230    0.0000 C   0  0  0  0  0  0  0  0  0  0  0  0
    0.7133   -1.4480    0.0000 C   0  0  0  0  0  0  0  0  0  0  0  0
    0.0000   -1.8605    0.0000 S   0  0  0  0  0  0  0  0  0  0  0  0
    0.0000   -0.2104    0.0000 N   0  0  0  0  0  0  0  0  0  0  0  0
    0.0000    0.6230    0.0000 C   0  0  0  0  0  0  0  0  0  0  0  0
   -0.7132    1.0355    0.0000 C   0  0  0  0  0  0  0  0  0  0  0  0
   -1.4352    0.6230    0.0000 C   0  0  0  0  0  0  0  0  0  0  0  0
   -2.1485    1.0355    0.0000 C   0  0  0  0  0  0  0  0  0  0  0  0
   -2.8617    0.6230    0.0000 C   0  0  0  0  0  0  0  0  0  0  0  0
   -3.5838    1.0355    0.0000 C   0  0  0  0  0  0  0  0  0  0  0  0
   -4.2970    0.6230    0.0000 O   0  0  0  0  0  0  0  0  0  0  0  0
   -3.5838    1.8605    0.0000 O   0  0  0  0  0  0  0  0  0  0  0  0
   -2.8617   -0.2104    0.0000 N   0  0  0  0  0  0  0  0  0  0  0  0
    0.7133    1.0355    0.0000 O   0  0  0  0  0  0  0  0  0  0  0  0
    1.4352    0.6230    0.0000 O   0  0  0  0  0  0  0  0  0  0  0  0
  1  2  2  0
  2  3  1  0
  2  4  1  0
  4  5  1  0
  4  8  1  1
  5  6  2  0
  5  7  1  0
  8  9  2  3
  9 10  1  0
  9 24  1  0
 10 11  1  0
 10 13  1  0
 11 12  1  0
 13 14  2  3
 14 15  1  0
 14 23  1  0
 15 16  1  0
 16 17  1  0
 17 18  1  0
 18 19  1  0
 18 22  1  0
 19 20  2  0
 19 21  1  0
M  END
>  <DRUGBANK_ID>  (1) 
DB02582

>  <SECONDARY_ACCESSION_NUMBERS>  (1) 
EXPT00870

>  <COMMON_NAME>  (1) 
(6Z)-6-{[(1Z)-1-{[(1R)-1-Carboxy-2-methyl-2-propen-1-yl]imino}-1-hydroxy-3-sulfanyl-2-propanyl]imino}-6-hydroxynorleucine

$$$$
