KN1
     RDKit          2D

 24 26  0  0  0  0  0  0  0  0999 V2000
   -0.5211    3.1438    0.0000 C   0  0  0  0  0  0  0  0  0  0  0  0
   -0.2661    2.3591    0.0000 C   0  0  0  0  0  0  0  0  0  0  0  0
   -0.8182    1.7461    0.0000 C   0  0  0  0  0  0  0  0  0  0  0  0
   -0.5632    0.9614    0.0000 N   0  0  0  0  0  0  0  0  0  0  0  0
   -1.0482    0.2940    0.0000 N   0  0  0  0  0  0  0  0  0  0  0  0
    0.2214    0.7065    0.0000 C   0  0  0  0  0  0  0  0  0  0  0  0
    0.9359    1.1190    0.0000 C   0  0  0  0  0  0  0  0  0  0  0  0
    0.9359    1.9440    0.0000 C   0  0  0  0  0  0  0  0  0  0  0  0
    1.7609    1.9440    0.0000 F   0  0  0  0  0  0  0  0  0  0  0  0
    0.1109    1.9440    0.0000 F   0  0  0  0  0  0  0  0  0  0  0  0
    0.9359    2.7690    0.0000 F   0  0  0  0  0  0  0  0  0  0  0  0
    1.6503    0.7065    0.0000 C   0  0  0  0  0  0  0  0  0  0  0  0
    1.6503   -0.1185    0.0000 C   0  0  0  0  0  0  0  0  0  0  0  0
    0.9359   -0.5310    0.0000 C   0  0  0  0  0  0  0  0  0  0  0  0
    0.2214   -0.1185    0.0000 C   0  0  0  0  0  0  0  0  0  0  0  0
   -0.5632   -0.3734    0.0000 C   0  0  0  0  0  0  0  0  0  0  0  0
   -0.8182   -1.1581    0.0000 C   0  0  0  0  0  0  0  0  0  0  0  0
   -1.6251   -1.3296    0.0000 C   0  0  0  0  0  0  0  0  0  0  0  0
   -1.8801   -2.1142    0.0000 C   0  0  0  0  0  0  0  0  0  0  0  0
   -1.3281   -2.7273    0.0000 C   0  0  0  0  0  0  0  0  0  0  0  0
   -1.5830   -3.5119    0.0000 O   0  0  0  0  0  0  0  0  0  0  0  0
   -0.5211   -2.5558    0.0000 C   0  0  0  0  0  0  0  0  0  0  0  0
   -0.2661   -1.7712    0.0000 C   0  0  0  0  0  0  0  0  0  0  0  0
    0.5408   -1.5996    0.0000 O   0  0  0  0  0  0  0  0  0  0  0  0
  2  3  1  0
  2  1  2  0
  4  3  1  0
  5  4  1  0
  6  7  2  0
  6  4  1  0
  7  8  1  0
  8 11  1  0
  8  9  1  0
 10  8  1  0
 12  7  1  0
 13 12  2  0
 14 13  1  0
 14 15  2  0
 15 16  1  0
 15  6  1  0
 16  5  2  0
 17 16  1  0
 17 23  1  0
 18 17  2  0
 19 18  1  0
 19 20  2  0
 20 22  1  0
 21 20  1  0
 22 23  2  0
 23 24  1  0
M  END
>  <DRUGBANK_ID>  (1) 
DB08047

>  <COMMON_NAME>  (1) 
4-[1-allyl-7-(trifluoromethyl)-1H-indazol-3-yl]benzene-1,3-diol

$$$$
