
     RDKit          2D

 31 33  0  0  0  0  0  0  0  0999 V2000
    1.1499    0.2001    0.0000 C   0  0  0  0  0  0  0  0  0  0  0  0
   -2.5538   -0.6514    0.0000 C   0  0  0  0  0  0  0  0  0  0  0  0
   -4.7379    0.5508    0.0000 C   0  0  0  0  0  0  0  0  0  0  0  0
    2.5922    1.8921    0.0000 C   0  0  0  0  0  0  0  0  0  0  0  0
   -0.4046   -1.0618    0.0000 C   0  0  0  0  0  0  0  0  0  0  0  0
   -4.0087    0.1508    0.0000 C   0  0  0  0  0  0  0  0  0  0  0  0
   -1.1019   -0.6554    0.0000 N   0  0  0  0  0  0  0  0  0  0  0  0
   -5.4608    0.1399    0.0000 N   0  0  0  0  0  0  0  0  0  0  0  0
    1.8752   -1.8184    0.0000 O   0  0  0  0  0  0  0  0  0  0  0  0
    2.5871    0.2557    0.0000 C   0  0  0  0  0  0  0  0  0  0  0  0
    3.2944    0.6585    0.0000 C   0  0  0  0  0  0  0  0  0  0  0  0
    2.5846   -0.5652    0.0000 C   0  0  0  0  0  0  0  0  0  0  0  0
    1.1499   -0.6362    0.0000 N   0  0  0  0  0  0  0  0  0  0  0  0
    1.8849    1.4837    0.0000 C   0  0  0  0  0  0  0  0  0  0  0  0
   -3.2867    0.5572    0.0000 C   0  0  0  0  0  0  0  0  0  0  0  0
    5.4608   -0.4516    0.0000 O   0  0  0  0  0  0  0  0  0  0  0  0
    3.2968    1.4794    0.0000 C   0  0  0  0  0  0  0  0  0  0  0  0
   -4.0059   -0.6598    0.0000 C   0  0  0  0  0  0  0  0  0  0  0  0
    1.8825    0.6628    0.0000 C   0  0  0  0  0  0  0  0  0  0  0  0
    4.7539   -1.7083    0.0000 O   0  0  0  0  0  0  0  0  0  0  0  0
   -1.8306   -1.0550    0.0000 C   0  0  0  0  0  0  0  0  0  0  0  0
    0.3136   -0.6362    0.0000 C   0  0  0  0  0  0  0  0  0  0  0  0
    4.7472   -0.8877    0.0000 C   0  0  0  0  0  0  0  0  0  0  0  0
   -3.2763   -1.0583    0.0000 C   0  0  0  0  0  0  0  0  0  0  0  0
   -0.3953   -1.8921    0.0000 O   0  0  0  0  0  0  0  0  0  0  0  0
    1.8674   -1.0037    0.0000 C   0  0  0  0  0  0  0  0  0  0  0  0
    0.3136    0.2001    0.0000 C   0  0  0  0  0  0  0  0  0  0  0  0
    4.0255   -0.5091    0.0000 C   0  0  0  0  0  0  0  0  0  0  0  0
   -2.5617    0.1593    0.0000 C   0  0  0  0  0  0  0  0  0  0  0  0
   -4.7449    1.3622    0.0000 N   0  0  0  0  0  0  0  0  0  0  0  0
    3.3085   -0.9473    0.0000 N   0  0  0  0  0  0  0  0  0  0  0  0
  1 27  1  0
  2 29  1  0
  2 21  1  0
  3 30  2  0
  3  8  1  0
  4 14  1  0
  5 25  2  0
  6  3  1  0
  6 18  2  0
  7  5  1  0
 10 11  1  0
 11 17  1  0
 12 31  1  1
 12 10  1  0
 13  1  1  0
 13 26  1  0
 15  6  1  0
 17  4  1  0
 18 24  1  0
 19 10  1  0
 19 14  1  0
 21  7  1  0
 22 13  1  0
 22  5  1  6
 23 20  2  0
 23 16  1  0
 24  2  2  0
 26 12  1  0
 26  9  2  0
 27 22  1  0
 28 23  1  0
 29 15  2  0
 31 28  1  0
M  END
>  <DRUGBANK_ID>  (1) 
DB13616

>  <COMMON_NAME>  (1) 
Melagatran

>  <CAS_NUMBER>  (1) 
159776-70-2

>  <UNII>  (1) 
2A9QP32MD4

>  <SYNONYMS>  (1) 
Melagatrán; Mélagatran; Melagatran; Melagatranum

$$$$
