
     RDKit          2D

 32 36  0  0  1  0  0  0  0  0999 V2000
   -1.0047    0.3820    0.0000 C   0  0  0  0  0  0  0  0  0  0  0  0
   -1.0047    1.2070    0.0000 C   0  0  0  0  0  0  0  0  0  0  0  0
   -0.2902    1.6195    0.0000 C   0  0  0  0  0  0  0  0  0  0  0  0
    0.4243    1.2070    0.0000 C   0  0  0  0  0  0  0  0  0  0  0  0
    0.4243    0.3820    0.0000 C   0  0  0  0  0  0  0  0  0  0  0  0
   -0.2902   -0.0305    0.0000 C   0  0  0  0  0  0  0  0  0  0  0  0
    1.1387   -0.0305    0.0000 C   0  0  0  0  0  0  0  0  0  0  0  0
    1.9233   -0.2854    0.0000 C   0  0  0  0  0  0  0  0  0  0  0  0
    2.6378    0.1271    0.0000 C   0  0  0  0  0  0  0  0  0  0  0  0
    3.3523   -0.2854    0.0000 C   0  0  0  0  0  0  0  0  0  0  0  0
    3.3523   -1.1104    0.0000 C   0  0  0  0  0  0  0  0  0  0  0  0
    2.6378   -1.5229    0.0000 C   0  0  0  0  0  0  0  0  0  0  0  0
    1.9233   -1.1104    0.0000 C   0  0  0  0  0  0  0  0  0  0  0  0
    1.1387   -1.3654    0.0000 C   0  0  0  0  0  0  0  0  0  0  0  0
    0.6538   -0.6979    0.0000 N   0  0  0  0  0  0  0  0  0  0  0  0
    0.8838   -2.1500    0.0000 N   0  0  0  0  0  0  0  0  0  0  0  0
    2.6378   -2.3479    0.0000 F   0  0  0  0  0  0  0  0  0  0  0  0
    1.4743    0.7232    0.0000 C   0  0  0  0  0  0  0  0  0  0  0  0
    0.9894    1.3906    0.0000 C   0  0  0  0  0  0  0  0  0  0  0  0
    1.3249    2.1443    0.0000 C   0  0  0  0  0  0  0  0  0  0  0  0
    2.1454    2.2305    0.0000 N   0  0  0  0  0  0  0  0  0  0  0  0
    2.6303    1.5631    0.0000 C   0  0  0  0  0  0  0  0  0  0  0  0
    2.2948    0.8094    0.0000 C   0  0  0  0  0  0  0  0  0  0  0  0
    3.4508    1.6493    0.0000 C   0  0  0  0  0  0  0  0  0  0  0  0
    3.7864    2.4030    0.0000 F   0  0  0  0  0  0  0  0  0  0  0  0
    3.9357    0.9819    0.0000 F   0  0  0  0  0  0  0  0  0  0  0  0
   -0.2902    2.4445    0.0000 C   0  0  0  0  0  0  0  0  0  0  0  0
   -1.0047    2.8570    0.0000 C   0  0  0  0  0  0  0  0  0  0  0  0
   -1.0047    3.6820    0.0000 N   0  0  0  0  0  0  0  0  0  0  0  0
   -0.2902    4.0945    0.0000 C   0  0  0  0  0  0  0  0  0  0  0  0
    0.4243    3.6820    0.0000 N   0  0  0  0  0  0  0  0  0  0  0  0
    0.4243    2.8570    0.0000 C   0  0  0  0  0  0  0  0  0  0  0  0
  1  2  2  0
  1  6  1  0
  2  3  1  0
  3  4  2  0
  3 27  1  0
  4  5  1  0
  5  6  2  0
  7  5  1  6
  7  8  1  0
  7 15  1  0
  7 18  1  0
  8  9  2  0
  8 13  1  0
  9 10  1  0
 10 11  2  0
 11 12  1  0
 12 13  2  0
 12 17  1  0
 13 14  1  0
 14 15  2  0
 14 16  1  0
 18 19  2  0
 18 23  1  0
 19 20  1  0
 20 21  2  0
 21 22  1  0
 22 23  2  0
 22 24  1  0
 24 25  1  0
 24 26  1  0
 27 28  2  0
 27 32  1  0
 28 29  1  0
 29 30  2  0
 30 31  1  0
 31 32  2  0
M  END
>  <DRUGBANK_ID>  (1) 
DB12368

>  <COMMON_NAME>  (1) 
AZD-3839

>  <CAS_NUMBER>  (1) 
1227163-84-9

>  <UNII>  (1) 
I8ID590133

$$$$
