
     RDKit          2D

 24 27  0  0  0  0  0  0  0  0999 V2000
   -0.3126   -0.4468    0.0000 C   0  0  0  0  0  0  0  0  0  0  0  0
   -0.3126   -1.2718    0.0000 C   0  0  0  0  0  0  0  0  0  0  0  0
   -1.0270   -0.0343    0.0000 C   0  0  0  0  0  0  0  0  0  0  0  0
   -1.0270   -1.6844    0.0000 C   0  0  0  0  0  0  0  0  0  0  0  0
   -1.7416   -0.4468    0.0000 C   0  0  0  0  0  0  0  0  0  0  0  0
   -1.7416   -1.2718    0.0000 C   0  0  0  0  0  0  0  0  0  0  0  0
    0.4720   -0.1919    0.0000 C   0  0  0  0  0  0  0  0  0  0  0  0
    0.9569   -0.8593    0.0000 C   0  0  0  0  0  0  0  0  0  0  0  0
    0.4720   -1.5268    0.0000 N   0  0  0  0  0  0  0  0  0  0  0  0
    1.7416   -1.1142    0.0000 C   0  0  0  0  0  0  0  0  0  0  0  0
    1.7416   -1.9393    0.0000 C   0  0  0  0  0  0  0  0  0  0  0  0
    0.9569   -2.1943    0.0000 C   0  0  0  0  0  0  0  0  0  0  0  0
   -1.0270    0.7906    0.0000 O   0  0  0  0  0  0  0  0  0  0  0  0
   -1.0270   -2.5094    0.0000 O   0  0  0  0  0  0  0  0  0  0  0  0
   -2.4560   -0.0343    0.0000 N   0  0  0  0  0  0  0  0  0  0  0  0
    2.4560   -1.5268    0.0000 N   0  0  0  0  0  0  0  0  0  0  0  0
   -2.4560   -1.6844    0.0000 C   0  0  0  0  0  0  0  0  0  0  0  0
    1.4418   -0.1919    0.0000 O   0  0  0  0  0  0  0  0  0  0  0  0
    0.7269    0.5926    0.0000 C   0  0  0  0  0  0  0  0  0  0  0  0
    0.1749    1.2058    0.0000 O   0  0  0  0  0  0  0  0  0  0  0  0
    0.4298    1.9904    0.0000 C   0  0  0  0  0  0  0  0  0  0  0  0
    1.2368    2.1619    0.0000 N   0  0  0  0  0  0  0  0  0  0  0  0
   -0.1221    2.6035    0.0000 O   0  0  0  0  0  0  0  0  0  0  0  0
    1.4499    0.6893    0.0000 C   0  0  0  0  0  0  0  0  0  0  0  0
  2  1  2  0
  3  1  1  0
  4  2  1  0
  5  3  1  0
  6  4  1  0
  6  5  2  0
  7  1  1  0
  7 19  1  1
  8  7  1  0
  8 18  1  6
  9  2  1  0
  9  8  1  0
 10  8  1  0
 11 10  1  0
 11 16  1  0
 11 12  1  1
 12  9  1  0
 13  3  2  0
 14  4  2  0
 15  5  1  0
 10 16  1  1
 17  6  1  0
 20 19  1  0
 21 20  1  0
 22 21  1  0
 23 21  2  0
 24 18  1  0
M  END
>  <DRUGBANK_ID>  (1) 
DB00305

>  <SECONDARY_ACCESSION_NUMBERS>  (1) 
APRD00284

>  <COMMON_NAME>  (1) 
Mitomycin

>  <CAS_NUMBER>  (1) 
50-07-7

>  <UNII>  (1) 
50SG953SK6

>  <SYNONYMS>  (1) 
7-Amino-9alpha-methoxymitosane; Ametycine; Mitamycin; Mitocin-C; Mitomycin; Mitomycin C; Mitomycin-C; MMC

$$$$
