295
     RDKit          2D

 14 14  0  0  0  0  0  0  0  0999 V2000
    0.8928   -0.6732    0.0000 C   0  0  0  0  0  0  0  0  0  0  0  0
    0.8928   -1.4982    0.0000 C   0  0  0  0  0  0  0  0  0  0  0  0
    0.1784   -1.9107    0.0000 C   0  0  0  0  0  0  0  0  0  0  0  0
   -0.5361   -1.4982    0.0000 C   0  0  0  0  0  0  0  0  0  0  0  0
   -0.5361   -0.6732    0.0000 C   0  0  0  0  0  0  0  0  0  0  0  0
    0.1784   -0.2607    0.0000 C   0  0  0  0  0  0  0  0  0  0  0  0
    0.1784    0.5643    0.0000 C   0  0  0  0  0  0  0  0  0  0  0  0
    0.8928    0.9768    0.0000 O   0  0  0  0  0  0  0  0  0  0  0  0
   -0.5361    0.9768    0.0000 C   0  0  0  0  0  0  0  0  0  0  0  0
   -0.5361    1.8018    0.0000 C   0  0  0  0  0  0  0  0  0  0  0  0
   -1.2506    2.2143    0.0000 O   0  0  0  0  0  0  0  0  0  0  0  0
    0.1784    2.2143    0.0000 O   0  0  0  0  0  0  0  0  0  0  0  0
   -1.2506    0.5643    0.0000 O   0  0  0  0  0  0  0  0  0  0  0  0
    0.1784   -2.7357    0.0000 F   0  0  0  0  0  0  0  0  0  0  0  0
  1  2  2  0
  1  6  1  0
  2  3  1  0
  3 14  1  0
  3  4  2  0
  5  4  1  0
  6  5  2  0
  7  6  1  0
  7  8  1  1
  9  7  1  0
  9 13  1  6
 10  9  1  0
 10 12  1  0
 11 10  2  0
M  END
>  <DRUGBANK_ID>  (1) 
DB06946

>  <COMMON_NAME>  (1) 
(2S,3S)-3-(4-fluorophenyl)-2,3-dihydroxypropanoic acid

$$$$
