
     RDKit          2D

 27 30  0  0  0  0  0  0  0  0999 V2000
    0.6594    0.2622    0.0000 C   0  0  0  0  0  0  0  0  0  0  0  0
    1.5684    0.5768    0.0000 C   0  0  0  0  0  0  0  0  0  0  0  0
   -0.0524   -0.8914    0.0000 C   0  0  0  0  0  0  0  0  0  0  0  0
    0.6594   -0.5259    0.0000 C   0  0  0  0  0  0  0  0  0  0  0  0
   -0.7421   -0.5387    0.0000 C   0  0  0  0  0  0  0  0  0  0  0  0
   -1.4541   -1.7559    0.0000 C   0  0  0  0  0  0  0  0  0  0  0  0
   -0.0619    0.6626    0.0000 C   0  0  0  0  0  0  0  0  0  0  0  0
   -1.4541   -0.9645    0.0000 C   0  0  0  0  0  0  0  0  0  0  0  0
   -0.7421    0.2622    0.0000 C   0  0  0  0  0  0  0  0  0  0  0  0
   -2.1628   -2.1596    0.0000 C   0  0  0  0  0  0  0  0  0  0  0  0
    2.0642   -0.0524    0.0000 C   0  0  0  0  0  0  0  0  0  0  0  0
    2.4933    0.8628    0.0000 O   0  0  0  0  0  0  0  0  0  0  0  0
    1.6447   -0.7771    0.0000 C   0  0  0  0  0  0  0  0  0  0  0  0
   -0.0524   -1.7464    0.0000 C   0  0  0  0  0  0  0  0  0  0  0  0
    1.7019    1.4731    0.0000 C   0  0  0  0  0  0  0  0  0  0  0  0
   -2.1724   -0.5482    0.0000 C   0  0  0  0  0  0  0  0  0  0  0  0
    3.2084    0.4147    0.0000 C   0  0  0  0  0  0  0  0  0  0  0  0
   -0.7326   -2.1501    0.0000 C   0  0  0  0  0  0  0  0  0  0  0  0
   -2.8843   -1.7782    0.0000 C   0  0  0  0  0  0  0  0  0  0  0  0
    3.3991   -0.2050    0.0000 O   0  0  0  0  0  0  0  0  0  0  0  0
    2.7127    1.9212    0.0000 O   0  0  0  0  0  0  0  0  0  0  0  0
   -3.6089   -2.1978    0.0000 O   0  0  0  0  0  0  0  0  0  0  0  0
    0.6499    1.2093    0.0000 C   0  0  0  0  0  0  0  0  0  0  0  0
   -2.8843   -0.9645    0.0000 C   0  0  0  0  0  0  0  0  0  0  0  0
   -1.6575    0.8628    0.0000 C   0  0  0  0  0  0  0  0  0  0  0  0
    3.6089    1.2729    0.0000 C   0  0  0  0  0  0  0  0  0  0  0  0
    1.1266    2.1978    0.0000 C   0  0  0  0  0  0  0  0  0  0  0  0
  1 23  1  1
  2  1  1  0
  2 12  1  6
  2 15  1  0
  3  4  1  0
  3  5  1  0
  4  1  1  0
  5  9  1  1
  6  8  1  0
  7  1  1  0
  8  5  1  0
  9  7  1  0
  9 25  1  1
 10  6  2  0
 10 19  1  0
 11  2  1  0
 11 13  1  0
  4 13  1  1
  3 14  1  6
  8 16  1  6
 17 12  1  0
 18 14  1  0
 18  6  1  0
 19 24  1  0
 20 17  2  0
 21 15  2  0
 22 19  2  0
 24 16  1  0
 26 17  1  0
 27 15  1  0
M  END
>  <DRUGBANK_ID>  (1) 
DB11440

>  <COMMON_NAME>  (1) 
Norgestomet

>  <CAS_NUMBER>  (1) 
25092-41-5

>  <UNII>  (1) 
3L33UD42X4

>  <SYNONYMS>  (1) 
Norgestomet

$$$$
