
     RDKit          2D

 16 16  0  0  0  0  0  0  0  0999 V2000
   -1.4236   -0.8236    0.0000 C   0  0  0  0  0  0  0  0  0  0  0  0
   -2.1380   -1.2361    0.0000 C   0  0  0  0  0  0  0  0  0  0  0  0
   -2.8527   -0.8232    0.0000 C   0  0  0  0  0  0  0  0  0  0  0  0
   -2.8530    0.0022    0.0000 C   0  0  0  0  0  0  0  0  0  0  0  0
   -2.1385    0.4147    0.0000 C   0  0  0  0  0  0  0  0  0  0  0  0
   -1.4239    0.0015    0.0000 C   0  0  0  0  0  0  0  0  0  0  0  0
   -0.7095    0.4141    0.0000 O   0  0  0  0  0  0  0  0  0  0  0  0
    0.0002   -0.0015    0.0000 C   0  0  0  0  0  0  0  0  0  0  0  0
    0.7147    0.4109    0.0000 C   0  0  0  0  0  0  0  0  0  0  0  0
    1.4235    0.0076    0.0000 C   0  0  0  0  0  0  0  0  0  0  0  0
    0.7143    1.2361    0.0000 O   0  0  0  0  0  0  0  0  0  0  0  0
    2.1380    0.4201    0.0000 O   0  0  0  0  0  0  0  0  0  0  0  0
   -3.5670   -1.2356    0.0000 Cl  0  0  0  0  0  0  0  0  0  0  0  0
    2.8527    0.0073    0.0000 C   0  0  0  0  0  0  0  0  0  0  0  0
    2.8530   -0.8182    0.0000 O   0  0  0  0  0  0  0  0  0  0  0  0
    3.5670    0.4196    0.0000 N   0  0  0  0  0  0  0  0  0  0  0  0
  1  2  2  0
  2  3  1  0
  3  4  2  0
  3 13  1  0
  4  5  1  0
  5  6  2  0
  6  7  1  0
  6  1  1  0
  7  8  1  0
  8  9  1  0
  9 10  1  0
  9 11  1  0
 10 12  1  0
 12 14  1  0
 14 15  2  0
 14 16  1  0
M  END
>  <DRUGBANK_ID>  (1) 
DB14656

>  <SECONDARY_ACCESSION_NUMBERS>  (1) 
DBSALT001343

>  <COMMON_NAME>  (1) 
Chlorphenesin carbamate

>  <CAS_NUMBER>  (1) 
886-74-8

>  <UNII>  (1) 
57U5YI11WP

>  <SYNONYMS>  (1) 
1,2-propanediol-3-(p-chlorophenoxy)-1-carbamate; 3-(4-chlorophenoxy)-1,2-propanediol-1-carbamate; 3-(p-chlorophenoxy)-1,2-propanediol 1-carbamate; 3-(p-chlorophenoxy)-2-hydroxypropyl carbamate; carbamic acid 3-(p-chlorophenoxy)-2-hydroxypropyl ester; Chlorphenesin carbamate

$$$$
