AT6
     RDKit          2D

 21 22  0  0  0  0  0  0  0  0999 V2000
   -2.4810    0.2576    0.0000 C   0  0  0  0  0  0  0  0  0  0  0  0
   -2.4810    1.0826    0.0000 C   0  0  0  0  0  0  0  0  0  0  0  0
   -1.7665    1.4951    0.0000 C   0  0  0  0  0  0  0  0  0  0  0  0
   -1.0520    1.0826    0.0000 N   0  0  0  0  0  0  0  0  0  0  0  0
   -1.0520    0.2576    0.0000 C   0  0  0  0  0  0  0  0  0  0  0  0
   -1.7665   -0.1549    0.0000 C   0  0  0  0  0  0  0  0  0  0  0  0
   -0.3376   -0.1549    0.0000 C   0  0  0  0  0  0  0  0  0  0  0  0
    0.3769    0.2576    0.0000 C   0  0  0  0  0  0  0  0  0  0  0  0
    1.0914   -0.1549    0.0000 N   0  0  0  0  0  0  0  0  0  0  0  0
    1.8059    0.2576    0.0000 C   0  0  0  0  0  0  0  0  0  0  0  0
    1.8059    1.0826    0.0000 O   0  0  0  0  0  0  0  0  0  0  0  0
    2.5203   -0.1549    0.0000 C   0  0  0  0  0  0  0  0  0  0  0  0
    3.2348    0.2576    0.0000 C   0  0  0  0  0  0  0  0  0  0  0  0
    3.9493   -0.1549    0.0000 C   0  0  0  0  0  0  0  0  0  0  0  0
    3.9493   -0.9799    0.0000 C   0  0  0  0  0  0  0  0  0  0  0  0
    3.2348   -1.3924    0.0000 C   0  0  0  0  0  0  0  0  0  0  0  0
    2.5203   -0.9799    0.0000 C   0  0  0  0  0  0  0  0  0  0  0  0
    4.6637   -1.3924    0.0000 C   0  0  0  0  0  0  0  0  0  0  0  0
    5.3782   -1.8049    0.0000 N   0  0  0  0  0  0  0  0  0  0  0  0
   -1.7665    2.3201    0.0000 N   0  0  0  0  0  0  0  0  0  0  0  0
   -3.1954   -0.1549    0.0000 C   0  0  0  0  0  0  0  0  0  0  0  0
  1  2  2  0
  1  6  1  0
  1 21  1  0
  2  3  1  0
  3  4  2  0
  3 20  1  0
  4  5  1  0
  5  6  2  0
  5  7  1  0
  7  8  1  0
  8  9  1  0
  9 10  1  0
 10 11  2  0
 10 12  1  0
 12 13  2  0
 12 17  1  0
 13 14  1  0
 14 15  2  0
 15 16  1  0
 15 18  1  0
 16 17  2  0
 18 19  3  0
M  END
>  <DRUGBANK_ID>  (1) 
DB07389

>  <COMMON_NAME>  (1) 
N-[2-(6-AMINO-4-METHYLPYRIDIN-2-YL)ETHYL]-4-CYANOBENZAMIDE

$$$$
