CT0
     RDKit          2D

 16 17  0  0  0  0  0  0  0  0999 V2000
   -0.2227   -1.0795    0.0000 O   0  0  0  0  0  0  0  0  0  0  0  0
   -0.2227   -0.2544    0.0000 C   0  0  0  0  0  0  0  0  0  0  0  0
   -0.9372    0.1581    0.0000 N   0  0  0  0  0  0  0  0  0  0  0  0
   -1.6517   -0.2544    0.0000 C   0  0  0  0  0  0  0  0  0  0  0  0
   -1.7379   -1.0750    0.0000 N   0  0  0  0  0  0  0  0  0  0  0  0
   -2.4054    0.0811    0.0000 S   0  0  0  0  0  0  0  0  0  0  0  0
   -2.9575   -0.5320    0.0000 C   0  0  0  0  0  0  0  0  0  0  0  0
   -2.5450   -1.2465    0.0000 C   0  0  0  0  0  0  0  0  0  0  0  0
    0.4918    0.9832    0.0000 O   0  0  0  0  0  0  0  0  0  0  0  0
    0.4918    0.1581    0.0000 C   0  0  0  0  0  0  0  0  0  0  0  0
    1.2064   -0.2544    0.0000 N   0  0  0  0  0  0  0  0  0  0  0  0
    1.9209    0.1581    0.0000 C   0  0  0  0  0  0  0  0  0  0  0  0
    2.0071    0.9786    0.0000 C   0  0  0  0  0  0  0  0  0  0  0  0
    2.6746   -0.1775    0.0000 C   0  0  0  0  0  0  0  0  0  0  0  0
    3.2267    0.4356    0.0000 C   0  0  0  0  0  0  0  0  0  0  0  0
    2.8142    1.1502    0.0000 C   0  0  0  0  0  0  0  0  0  0  0  0
  1  2  2  0
  2  3  1  0
  2 10  1  0
  3  4  1  0
  4  5  2  0
  4  6  1  0
  5  8  1  0
  6  7  1  0
  7  8  2  0
  9 10  2  0
 10 11  1  0
 11 12  1  0
 12 13  1  0
 12 14  1  0
 13 16  1  0
 14 15  1  0
 15 16  1  0
M  END
>  <DRUGBANK_ID>  (1) 
DB07591

>  <COMMON_NAME>  (1) 
N1-CYCLOPENTYL-N2-(THIAZOL-2-YL)OXALAMIDE

$$$$
