
     RDKit          2D

 21 22  0  0  0  0  0  0  0  0999 V2000
   -4.6513    0.8233    0.0000 C   0  0  0  0  0  0  0  0  0  0  0  0
   -3.9350    0.4139    0.0000 C   0  0  0  0  0  0  0  0  0  0  0  0
   -3.2187    0.8233    0.0000 C   0  0  0  0  0  0  0  0  0  0  0  0
   -2.5024    0.4139    0.0000 C   0  0  0  0  0  0  0  0  0  0  0  0
   -1.7860    0.8233    0.0000 C   0  0  0  0  0  0  0  0  0  0  0  0
   -1.0698    0.4139    0.0000 C   0  0  0  0  0  0  0  0  0  0  0  0
   -0.3534    0.8233    0.0000 C   0  0  0  0  0  0  0  0  0  0  0  0
    0.3627    0.4139    0.0000 C   0  0  0  0  0  0  0  0  0  0  0  0
    1.0698    0.8233    0.0000 C   0  0  0  0  0  0  0  0  0  0  0  0
    1.7860    0.4139    0.0000 C   0  0  0  0  0  0  0  0  0  0  0  0
    1.7860   -0.4139    0.0000 C   0  0  0  0  0  0  0  0  0  0  0  0
    2.5023   -0.8232    0.0000 C   0  0  0  0  0  0  0  0  0  0  0  0
    3.2187   -0.4139    0.0000 C   0  0  0  0  0  0  0  0  0  0  0  0
    3.9349   -0.8232    0.0000 C   0  0  0  0  0  0  0  0  0  0  0  0
    4.6513   -0.4139    0.0000 C   0  0  0  0  0  0  0  0  0  0  0  0
    4.6513    0.4139    0.0000 C   0  0  0  0  0  0  0  0  0  0  0  0
    3.9349    0.8233    0.0000 C   0  0  0  0  0  0  0  0  0  0  0  0
    3.2187    0.4139    0.0000 C   0  0  0  0  0  0  0  0  0  0  0  0
    2.5023    0.8233    0.0000 N   0  0  0  0  0  0  0  0  0  0  0  0
    2.5023    1.6512    0.0000 O   0  0  0  0  0  0  0  0  0  0  0  0
    2.5023   -1.6512    0.0000 O   0  0  0  0  0  0  0  0  0  0  0  0
  1  2  1  0
  2  3  1  0
  3  4  1  0
  4  5  1  0
  5  6  1  0
  6  7  1  0
  7  8  1  0
  8  9  1  0
  9 10  1  0
 10 11  2  0
 10 19  1  0
 11 12  1  0
 12 13  2  0
 12 21  1  0
 13 14  1  0
 13 18  1  0
 14 15  2  0
 15 16  1  0
 16 17  2  0
 17 18  1  0
 18 19  2  0
 19 20  1  0
M  CHG  2  19   1  20  -1
M  END
>  <DRUGBANK_ID>  (1) 
DB08453

>  <COMMON_NAME>  (1) 
2-Nonyl-4-quinolinol 1-oxide

>  <CAS_NUMBER>  (1) 
316-66-5

$$$$
