
     RDKit          2D

 12 10  0  0  0  0  0  0  0  0999 V2000
   -0.2624    0.4124    0.0000 C   0  0  0  0  0  0  0  0  0  0  0  0
   -1.0876    0.4124    0.0000 P   0  0  0  0  0  0  0  0  0  0  0  0
   -0.2707   -0.4125    0.0000 P   0  0  0  0  0  0  0  0  0  0  0  0
   -0.9834   -0.8251    0.0000 O   0  0  0  0  0  0  0  0  0  0  0  0
   -1.5083    1.1250    0.0000 O   0  0  0  0  0  0  0  0  0  0  0  0
   -0.2582    1.2375    0.0000 O   0  0  0  0  0  0  0  0  0  0  0  0
   -0.2707   -1.2376    0.0000 O   0  0  0  0  0  0  0  0  0  0  0  0
    0.4417   -0.8251    0.0000 O   0  0  0  0  0  0  0  0  0  0  0  0
   -1.5083   -0.3000    0.0000 O   0  0  0  0  0  0  0  0  0  0  0  0
   -1.9126    0.4124    0.0000 O   0  0  0  0  0  0  0  0  0  0  0  0
    0.5625    0.4124    0.0000 C   0  0  0  0  0  0  0  0  0  0  0  0
    1.9126    0.3124    0.0000 Tc  0  0  0  0  0 15  0  0  0  0  0  0
  2  1  1  0
  3  1  1  0
  4  3  2  0
  5  2  2  0
  6  1  1  0
  7  3  1  0
  8  3  1  0
  9  2  1  0
 10  2  1  0
 11  1  1  0
M  ISO  1  12  99
M  END
>  <DRUGBANK_ID>  (1) 
DB09411

>  <COMMON_NAME>  (1) 
Technetium Tc-99m etidronate

>  <CAS_NUMBER>  (1) 
63347-65-9

>  <UNII>  (1) 
13W7DMI45X

>  <SYNONYMS>  (1) 
Technetium (99mTc) etidronate; Technetium Tc 99m etidronate

$$$$
