1523
     RDKit          2D

 27 29  0  0  0  0  0  0  0  0999 V2000
    8.2451   -3.3294    0.0000 Cl  0  0  0  0  0  0  0  0  0  0  0  0
    1.6500   -0.8839    0.0000 O   0  0  0  0  0  0  0  0  0  0  0  0
    2.3645   -2.1215    0.0000 O   0  0  0  0  0  0  0  0  0  0  0  0
    5.2886    0.1926    0.0000 N   0  0  0  0  0  0  0  0  0  0  0  0
    6.6086    1.9310    0.0000 N   0  0  0  0  0  0  0  0  0  0  0  0
    5.2886   -1.1353    0.0000 N   0  0  0  0  0  0  0  0  0  0  0  0
    2.3645   -1.2964    0.0000 N   0  0  0  0  0  0  0  0  0  0  0  0
    5.5449    0.9767    0.0000 C   0  0  0  0  0  0  0  0  0  0  0  0
    6.3522    1.1469    0.0000 C   0  0  0  0  0  0  0  0  0  0  0  0
    5.7701   -0.4714    0.0000 C   0  0  0  0  0  0  0  0  0  0  0  0
    4.5080   -0.0589    0.0000 C   0  0  0  0  0  0  0  0  0  0  0  0
    4.5080   -0.8839    0.0000 C   0  0  0  0  0  0  0  0  0  0  0  0
    6.5951   -0.4714    0.0000 C   0  0  0  0  0  0  0  0  0  0  0  0
    7.4158    2.1012    0.0000 C   0  0  0  0  0  0  0  0  0  0  0  0
    6.0575    2.5451    0.0000 C   0  0  0  0  0  0  0  0  0  0  0  0
    3.7935    0.3536    0.0000 C   0  0  0  0  0  0  0  0  0  0  0  0
    3.7935   -1.2964    0.0000 C   0  0  0  0  0  0  0  0  0  0  0  0
    7.0076   -1.1859    0.0000 C   0  0  0  0  0  0  0  0  0  0  0  0
    7.6721    2.8854    0.0000 C   0  0  0  0  0  0  0  0  0  0  0  0
    6.3139    3.3294    0.0000 C   0  0  0  0  0  0  0  0  0  0  0  0
    3.0791   -0.8839    0.0000 C   0  0  0  0  0  0  0  0  0  0  0  0
    3.0791   -0.0589    0.0000 C   0  0  0  0  0  0  0  0  0  0  0  0
    7.8326   -1.1859    0.0000 C   0  0  0  0  0  0  0  0  0  0  0  0
    6.5951   -1.9003    0.0000 C   0  0  0  0  0  0  0  0  0  0  0  0
    8.2451   -1.9003    0.0000 C   0  0  0  0  0  0  0  0  0  0  0  0
    7.0076   -2.6148    0.0000 C   0  0  0  0  0  0  0  0  0  0  0  0
    7.8326   -2.6148    0.0000 C   0  0  0  0  0  0  0  0  0  0  0  0
  1 27  1  0
  2  7  1  0
  3  7  2  0
  4  8  1  0
  4 10  1  0
  4 11  1  0
  5  9  1  0
  5 14  1  0
  5 15  1  0
  6 10  2  0
  6 12  1  0
  7 21  1  0
  8  9  1  0
 10 13  1  0
 11 12  2  0
 11 16  1  0
 12 17  1  0
 13 18  1  0
 14 19  1  0
 15 20  1  0
 16 22  2  0
 17 21  2  0
 18 23  2  0
 18 24  1  0
 21 22  1  0
 23 25  1  0
 24 26  2  0
 25 27  2  0
 26 27  1  0
M  CHG  2   2  -1   7   1
M  END
>  <DRUGBANK_ID>  (1) 
DB01523

>  <COMMON_NAME>  (1) 
Clonitazene

>  <CAS_NUMBER>  (1) 
3861-76-5

>  <UNII>  (1) 
S90R21A2V2

>  <SYNONYMS>  (1) 
Clonitazene

$$$$
