0AG
     RDKit          2D

 14 13  0  0  0  0  0  0  0  0999 V2000
   -3.2731    0.7556    0.0000 C   0  0  0  0  0  0  0  0  0  0  0  0
   -2.5586    0.3431    0.0000 C   0  0  0  0  0  0  0  0  0  0  0  0
   -1.8441    0.7556    0.0000 O   0  0  0  0  0  0  0  0  0  0  0  0
   -1.1297    0.3431    0.0000 C   0  0  0  0  0  0  0  0  0  0  0  0
   -1.1297   -0.4819    0.0000 O   0  0  0  0  0  0  0  0  0  0  0  0
   -0.4152    0.7556    0.0000 N   0  0  0  0  0  0  0  0  0  0  0  0
    0.2993    0.3431    0.0000 C   0  0  0  0  0  0  0  0  0  0  0  0
    0.2993   -0.4819    0.0000 C   0  0  0  0  0  0  0  0  0  0  0  0
    1.0137   -0.8944    0.0000 O   0  0  0  0  0  0  0  0  0  0  0  0
    1.0137    0.7556    0.0000 C   0  0  0  0  0  0  0  0  0  0  0  0
    1.7282    0.3431    0.0000 C   0  0  0  0  0  0  0  0  0  0  0  0
    2.4427    0.7556    0.0000 C   0  0  0  0  0  0  0  0  0  0  0  0
    1.7282   -0.4819    0.0000 C   0  0  0  0  0  0  0  0  0  0  0  0
   -0.4152   -0.8944    0.0000 O   0  0  0  0  0  0  0  0  0  0  0  0
  1  2  1  0
  2  3  1  0
  3  4  1  0
  4  5  2  0
  4  6  1  0
  7  6  1  0
  7  8  1  0
  7 10  1  1
  8  9  2  0
  8 14  1  0
 10 11  1  0
 11 12  1  0
 11 13  1  0
M  END
>  <DRUGBANK_ID>  (1) 
DB06839

>  <COMMON_NAME>  (1) 
N-(ethoxycarbonyl)-L-leucine

$$$$
