
     RDKit          2D

  5  4  0  0  0  0  0  0  0  0999 V2000
    0.3572    0.2062    0.0000 C   0  0  0  0  0  0  0  0  0  0  0  0
    1.0717    0.6187    0.0000 O   0  0  0  0  0  0  0  0  0  0  0  0
   -0.3572    0.6188    0.0000 C   0  0  0  0  0  0  0  0  0  0  0  0
   -1.0717    0.2063    0.0000 O   0  0  0  0  0  0  0  0  0  0  0  0
    0.3572   -0.6188    0.0000 C   0  0  0  0  0  0  0  0  0  0  0  0
  1  5  1  1
  1  3  1  0
  2  1  1  0
  4  3  1  0
M  END
>  <DRUGBANK_ID>  (1) 
DB04349

>  <SECONDARY_ACCESSION_NUMBERS>  (1) 
EXPT02573

>  <COMMON_NAME>  (1) 
(S)-propane-1,2-diol

>  <CAS_NUMBER>  (1) 
4254-15-3

>  <UNII>  (1) 
942194N4TD

>  <SYNONYMS>  (1) 
(S)-1,2-Propanediol; (S)-propane-1,2-diol; (S)-Propylene glycol; S-1,2-Propanediol

$$$$
