
     RDKit          2D

 43 47  0  0  0  0  0  0  0  0999 V2000
    1.1120   -1.0141    0.0000 C   0  0  0  0  0  0  0  0  0  0  0  0
    1.8265   -1.4266    0.0000 C   0  0  0  0  0  0  0  0  0  0  0  0
    1.8265   -2.2516    0.0000 C   0  0  0  0  0  0  0  0  0  0  0  0
    2.5409   -2.6641    0.0000 C   0  0  0  0  0  0  0  0  0  0  0  0
    2.5409   -3.4891    0.0000 C   0  0  0  0  0  0  0  0  0  0  0  0
    1.8265   -3.9016    0.0000 C   0  0  0  0  0  0  0  0  0  0  0  0
    1.1120   -3.4891    0.0000 C   0  0  0  0  0  0  0  0  0  0  0  0
    1.1120   -2.6641    0.0000 C   0  0  0  0  0  0  0  0  0  0  0  0
    0.4304   -1.4788    0.0000 C   0  0  0  0  0  0  0  0  0  0  0  0
    0.5533   -2.2946    0.0000 O   0  0  0  0  0  0  0  0  0  0  0  0
   -0.3579   -1.2357    0.0000 C   0  0  0  0  0  0  0  0  0  0  0  0
   -0.6593   -0.4677    0.0000 N   0  0  0  0  0  0  0  0  0  0  0  0
   -1.4820   -0.4060    0.0000 S   0  0  0  0  0  0  0  0  0  0  0  0
   -1.4203    0.4166    0.0000 O   0  0  0  0  0  0  0  0  0  0  0  0
   -0.2468    0.2467    0.0000 N   0  0  0  0  0  0  0  0  0  0  0  0
    1.1737   -0.1914    0.0000 N   0  0  0  0  0  0  0  0  0  0  0  0
    0.5689    0.3696    0.0000 C   0  0  0  0  0  0  0  0  0  0  0  0
    0.8121    1.1580    0.0000 O   0  0  0  0  0  0  0  0  0  0  0  0
    1.9416    0.1099    0.0000 C   0  0  0  0  0  0  0  0  0  0  0  0
   -0.7115    0.9283    0.0000 C   0  0  0  0  0  0  0  0  0  0  0  0
   -2.3047   -0.3444    0.0000 C   0  0  0  0  0  0  0  0  0  0  0  0
    3.3546   -0.1030    0.0000 C   0  0  0  0  0  0  0  0  0  0  0  0
    3.9996   -0.6173    0.0000 C   0  0  0  0  0  0  0  0  0  0  0  0
    3.8767   -1.4331    0.0000 C   0  0  0  0  0  0  0  0  0  0  0  0
    3.1087   -1.7345    0.0000 C   0  0  0  0  0  0  0  0  0  0  0  0
    2.4637   -1.2202    0.0000 C   0  0  0  0  0  0  0  0  0  0  0  0
    2.5866   -0.4044    0.0000 C   0  0  0  0  0  0  0  0  0  0  0  0
   -0.8183    2.3533    0.0000 C   0  0  0  0  0  0  0  0  0  0  0  0
   -0.4604    3.0966    0.0000 C   0  0  0  0  0  0  0  0  0  0  0  0
    0.3622    3.1582    0.0000 C   0  0  0  0  0  0  0  0  0  0  0  0
    0.8270    2.4767    0.0000 C   0  0  0  0  0  0  0  0  0  0  0  0
    0.4690    1.7333    0.0000 C   0  0  0  0  0  0  0  0  0  0  0  0
   -0.3536    1.6716    0.0000 C   0  0  0  0  0  0  0  0  0  0  0  0
    4.5217   -1.9475    0.0000 O   0  0  0  0  0  0  0  0  0  0  0  0
    0.7202    3.9016    0.0000 O   0  0  0  0  0  0  0  0  0  0  0  0
   -2.7694   -1.0260    0.0000 C   0  0  0  0  0  0  0  0  0  0  0  0
   -2.6626    0.3988    0.0000 C   0  0  0  0  0  0  0  0  0  0  0  0
   -1.5436   -1.2287    0.0000 O   0  0  0  0  0  0  0  0  0  0  0  0
   -3.5921   -0.9644    0.0000 C   0  0  0  0  0  0  0  0  0  0  0  0
   -3.4854    0.4605    0.0000 C   0  0  0  0  0  0  0  0  0  0  0  0
   -3.9501   -0.2211    0.0000 C   0  0  0  0  0  0  0  0  0  0  0  0
   -4.0569   -1.6460    0.0000 C   0  0  0  0  0  0  0  0  0  0  0  0
   -4.5216   -2.3277    0.0000 N   0  0  0  0  0  0  0  0  0  0  0  0
  1  2  1  6
  1  9  1  0
  1 16  1  0
  2  3  1  0
  3  4  2  0
  3  8  1  0
  4  5  1  0
  5  6  2  0
  6  7  1  0
  7  8  2  0
  9 10  1  6
 11  9  1  0
 11 12  1  0
 12 13  1  0
 12 15  1  0
 14 13  2  0
 17 15  1  0
 17 16  1  0
 17 18  2  0
 19 16  1  0
 19 27  1  0
 20 15  1  0
 20 33  1  0
 21 13  1  0
 21 36  2  0
 21 37  1  0
 22 23  2  0
 22 27  1  0
 23 24  1  0
 24 25  2  0
 24 34  1  0
 25 26  1  0
 26 27  2  0
 28 29  2  0
 28 33  1  0
 29 30  1  0
 30 31  2  0
 30 35  1  0
 31 32  1  0
 32 33  2  0
 36 39  1  0
 37 40  2  0
 38 13  2  0
 41 39  2  0
 41 40  1  0
 42 39  1  0
 42 43  3  0
M  END
>  <DRUGBANK_ID>  (1) 
DB03141

>  <SECONDARY_ACCESSION_NUMBERS>  (1) 
EXPT00690

>  <COMMON_NAME>  (1) 
3-{[(5R,6R)-5-Benzyl-6-hydroxy-2,4-bis(4-hydroxybenzyl)-3-oxo-1,2,4-triazepan-1-yl]sulfonyl}benzonitril

$$$$
