
     RDKit          2D

 10 10  0  0  1  0  0  0  0  0999 V2000
    0.5678    1.9393    0.0000 C   0  0  0  0  0  0  0  0  0  0  0  0
    1.2352    0.6294    0.0000 C   0  0  0  0  0  0  0  0  0  0  0  0
   -0.1467    3.1768    0.0000 C   0  0  0  0  0  0  0  0  0  0  0  0
    0.1553   -0.1553    0.0000 C   0  0  0  0  0  0  0  0  0  0  0  0
   -0.1467    2.3518    0.0000 C   0  0  0  0  0  0  0  0  0  0  0  0
    0.5678    1.1143    0.0000 C   0  0  0  0  0  0  0  0  0  0  0  0
   -0.8612    1.9393    0.0000 N   0  0  0  0  0  0  0  0  0  0  0  0
    0.9803   -0.1553    0.0000 N   0  0  0  0  0  0  0  0  0  0  0  0
   -0.0997    0.6294    0.0000 N   0  0  0  0  0  0  0  0  0  0  0  0
   -0.8612    3.5893    0.0000 O   0  0  0  0  0  0  0  0  0  0  0  0
  5  1  1  0
  5  3  1  0
  5  7  1  6
  6  1  1  0
  6  2  2  0
  8  2  1  0
  8  4  2  0
  9  4  1  0
  9  6  1  0
 10  3  1  0
M  CHG  1   7   1
M  END
>  <DRUGBANK_ID>  (1) 
DB03811

>  <SECONDARY_ACCESSION_NUMBERS>  (1) 
EXPT01786

>  <COMMON_NAME>  (1) 
Histidinol

$$$$
