157
     RDKit          2D

 16 16  0  0  0  0  0  0  0  0999 V2000
    0.0494    0.0187    0.0000 C   0  0  0  0  0  0  0  0  0  0  0  0
   -0.4907   -0.6049    0.0000 C   0  0  0  0  0  0  0  0  0  0  0  0
   -1.3008   -0.4490    0.0000 C   0  0  0  0  0  0  0  0  0  0  0  0
   -1.8409   -1.0726    0.0000 C   0  0  0  0  0  0  0  0  0  0  0  0
   -2.6510   -0.9167    0.0000 C   0  0  0  0  0  0  0  0  0  0  0  0
   -3.1911   -1.5404    0.0000 N   0  0  0  0  0  0  0  0  0  0  0  0
   -2.9211   -0.1372    0.0000 N   0  0  0  0  0  0  0  0  0  0  0  0
    0.5895   -1.5404    0.0000 O   0  0  0  0  0  0  0  0  0  0  0  0
    2.6479   -0.2903    0.0000 O   0  0  0  0  0  0  0  0  0  0  0  0
    1.3997    0.4865    0.0000 C   0  0  0  0  0  0  0  0  0  0  0  0
    1.9189    1.7162    0.0000 C   0  0  0  0  0  0  0  0  0  0  0  0
    1.2126    1.2900    0.0000 C   0  0  0  0  0  0  0  0  0  0  0  0
    2.2217    0.4161    0.0000 C   0  0  0  0  0  0  0  0  0  0  0  0
    2.5426    1.1761    0.0000 C   0  0  0  0  0  0  0  0  0  0  0  0
    0.8596   -0.1372    0.0000 C   0  0  0  0  0  0  0  0  0  0  0  0
    1.1296   -0.9167    0.0000 C   0  0  0  0  0  0  0  0  0  0  0  0
  1  2  1  0
 15  1  1  6
  2  3  1  0
  3  4  1  0
  4  5  1  0
  5  6  1  0
  5  7  2  0
  8 16  2  0
 10 12  1  1
 10 13  1  0
 10 15  1  0
 11 12  1  0
 11 14  1  0
 13  9  1  6
 13 14  1  0
 15 16  1  0
M  END
>  <DRUGBANK_ID>  (1) 
DB06861

>  <COMMON_NAME>  (1) 
6-(2-HYDROXY-CYCLOPENTYL)-7-OXO-HEPTANAMIDINE

$$$$
