
     RDKit          2D

 17 18  0  0  1  0  0  0  0  0999 V2000
    1.7081   -2.5273    0.0000 C   0  0  0  0  0  0  0  0  0  0  0  0
    2.5033   -2.3078    0.0000 C   0  0  0  0  0  0  0  0  0  0  0  0
    1.0406   -2.0424    0.0000 C   0  0  0  0  0  0  0  0  0  0  0  0
    2.8276   -1.5492    0.0000 C   0  0  0  0  0  0  0  0  0  0  0  0
    4.7861    0.8843    0.0000 C   0  0  0  0  0  0  0  0  0  0  0  0
    4.0015    0.6294    0.0000 C   0  0  0  0  0  0  0  0  0  0  0  0
    3.3341    1.1143    0.0000 C   0  0  0  0  0  0  0  0  0  0  0  0
    2.6666    0.6294    0.0000 C   0  0  0  0  0  0  0  0  0  0  0  0
    2.9216   -0.1553    0.0000 C   0  0  0  0  0  0  0  0  0  0  0  0
    1.6249   -0.6754    0.0000 C   0  0  0  0  0  0  0  0  0  0  0  0
    1.0036   -1.2182    0.0000 N   0  0  0  0  0  0  0  0  0  0  0  0
    2.4366   -0.8227    0.0000 N   0  0  0  0  0  0  0  0  0  0  0  0
    4.9577    1.6913    0.0000 O   0  0  0  0  0  0  0  0  0  0  0  0
    3.3341    1.9393    0.0000 O   0  0  0  0  0  0  0  0  0  0  0  0
    1.8820    0.8843    0.0000 O   0  0  0  0  0  0  0  0  0  0  0  0
    1.4054    0.1199    0.0000 O   0  0  0  0  0  0  0  0  0  0  0  0
    3.7466   -0.1553    0.0000 O   0  0  0  0  0  0  0  0  0  0  0  0
  2  1  1  0
  3  1  2  0
  4  2  2  0
  6  5  1  1
  7  6  1  0
  7 14  1  6
  8  7  1  0
  8 15  1  6
  9  8  1  0
  9 12  1  1
 11  3  1  0
 11 10  1  0
 12  4  1  0
 12 10  1  0
 13  5  1  0
 16 10  2  0
 17  6  1  0
 17  9  1  0
M  END
>  <DRUGBANK_ID>  (1) 
DB03185

>  <SECONDARY_ACCESSION_NUMBERS>  (1) 
EXPT00750

>  <COMMON_NAME>  (1) 
1-Beta-Ribofuranosyl-1,3-Diazepinone

$$$$
