
     RDKit          2D

 15 17  0  0  1  0  0  0  0  0999 V2000
   -2.8893    0.2263    0.0000 C   0  0  0  0  0  0  0  0  0  0  0  0
   -2.2218   -0.2586    0.0000 N   0  0  0  0  0  0  0  0  0  0  0  0
   -1.4681    0.0769    0.0000 C   0  0  0  0  0  0  0  0  0  0  0  0
   -0.8007   -0.4080    0.0000 C   0  0  0  0  0  0  0  0  0  0  0  0
   -0.0470   -0.0724    0.0000 C   0  0  0  0  0  0  0  0  0  0  0  0
    0.8791   -0.4080    0.0000 C   0  0  0  0  0  0  0  0  0  0  0  0
    1.5466    0.0769    0.0000 C   0  0  0  0  0  0  0  0  0  0  0  0
    1.4603    0.8974    0.0000 C   0  0  0  0  0  0  0  0  0  0  0  0
    0.7066    1.2330    0.0000 C   0  0  0  0  0  0  0  0  0  0  0  0
    0.0392    0.7481    0.0000 C   0  0  0  0  0  0  0  0  0  0  0  0
   -0.6282    1.2330    0.0000 N   0  0  0  0  0  0  0  0  0  0  0  0
   -0.3733    2.0176    0.0000 C   0  0  0  0  0  0  0  0  0  0  0  0
   -0.8582    2.6850    0.0000 O   0  0  0  0  0  0  0  0  0  0  0  0
    0.4517    2.0176    0.0000 N   0  0  0  0  0  0  0  0  0  0  0  0
   -1.3819    0.8974    0.0000 C   0  0  0  0  0  0  0  0  0  0  0  0
  1  2  1  0
  3  2  1  1
  3  4  1  0
  3 15  1  0
  4  5  1  0
  5  6  1  0
  5 10  2  0
  6  7  2  0
  7  8  1  0
  8  9  2  0
  9 10  1  0
  9 14  1  0
 10 11  1  0
 11 12  1  0
 11 15  1  0
 12 13  2  0
 12 14  1  0
M  END
>  <DRUGBANK_ID>  (1) 
DB06477

>  <COMMON_NAME>  (1) 
Sumanirole

>  <CAS_NUMBER>  (1) 
179386-43-7

>  <UNII>  (1) 
3E93IV1U45

>  <SYNONYMS>  (1) 
Sumanirole

$$$$
