
     RDKit          2D

 13 13  0  0  1  0  0  0  0  0999 V2000
    2.8579    0.8250    0.0000 C   0  0  0  0  0  0  0  0  0  0  0  0
    2.1434    1.2375    0.0000 O   0  0  0  0  0  0  0  0  0  0  0  0
    1.4289    0.8250    0.0000 C   0  0  0  0  0  0  0  0  0  0  0  0
    0.7144    1.2375    0.0000 O   0  0  0  0  0  0  0  0  0  0  0  0
    0.0000    0.8250    0.0000 C   0  0  0  0  0  0  0  0  0  0  0  0
   -0.7145    1.2375    0.0000 C   0  0  0  0  0  0  0  0  0  0  0  0
   -0.7145    2.0625    0.0000 O   0  0  0  0  0  0  0  0  0  0  0  0
    0.0000    0.0000    0.0000 C   0  0  0  0  0  0  0  0  0  0  0  0
   -0.7145   -0.4125    0.0000 O   0  0  0  0  0  0  0  0  0  0  0  0
    0.7145   -0.4125    0.0000 C   0  0  0  0  0  0  0  0  0  0  0  0
    0.7145   -1.2375    0.0000 O   0  0  0  0  0  0  0  0  0  0  0  0
    1.4290    0.0000    0.0000 C   0  0  0  0  0  0  0  0  0  0  0  0
    2.1434   -0.4125    0.0000 O   0  0  0  0  0  0  0  0  0  0  0  0
  1  2  1  0
  3  2  1  6
  3  4  1  0
  3 12  1  0
  4  5  1  0
  5  6  1  1
  5  8  1  0
  6  7  1  0
  8  9  1  1
  8 10  1  0
 10 11  1  1
 10 12  1  0
 12 13  1  6
M  END
>  <DRUGBANK_ID>  (1) 
DB02100

>  <SECONDARY_ACCESSION_NUMBERS>  (1) 
EXPT00507

>  <COMMON_NAME>  (1) 
Methyl alpha-galactoside

>  <CAS_NUMBER>  (1) 
34004-14-3

>  <UNII>  (1) 
ESJ6UY55QN

$$$$
