
     RDKit          2D

 29 32  0  0  1  0  0  0  0  0999 V2000
    6.9960   -2.9136    0.0000 C   0  0  0  0  0  0  0  0  0  0  0  0
    7.7104   -2.5011    0.0000 C   0  0  0  0  0  0  0  0  0  0  0  0
    7.7104   -1.6761    0.0000 C   0  0  0  0  0  0  0  0  0  0  0  0
    8.4249   -2.9136    0.0000 C   0  0  0  0  0  0  0  0  0  0  0  0
    9.1394   -2.5011    0.0000 C   0  0  0  0  0  0  0  0  0  0  0  0
    9.8538   -2.9136    0.0000 C   0  0  0  0  0  0  0  0  0  0  0  0
   10.5683   -2.5011    0.0000 C   0  0  0  0  0  0  0  0  0  0  0  0
   10.9808   -3.2156    0.0000 C   0  0  0  0  0  0  0  0  0  0  0  0
   10.1558   -1.7867    0.0000 O   0  0  0  0  0  0  0  0  0  0  0  0
   11.2828   -2.0886    0.0000 C   0  0  0  0  0  0  0  0  0  0  0  0
   11.3690   -1.2682    0.0000 C   0  0  0  0  0  0  0  0  0  0  0  0
   12.1760   -1.0966    0.0000 C   0  0  0  0  0  0  0  0  0  0  0  0
   12.5885   -1.8111    0.0000 C   0  0  0  0  0  0  0  0  0  0  0  0
   13.3955   -1.9826    0.0000 C   0  0  0  0  0  0  0  0  0  0  0  0
   13.9475   -1.3695    0.0000 C   0  0  0  0  0  0  0  0  0  0  0  0
   14.7545   -1.5411    0.0000 C   0  0  0  0  0  0  0  0  0  0  0  0
   15.0094   -2.3257    0.0000 C   0  0  0  0  0  0  0  0  0  0  0  0
   15.8164   -2.4972    0.0000 C   0  0  0  0  0  0  0  0  0  0  0  0
   16.0713   -3.2818    0.0000 C   0  0  0  0  0  0  0  0  0  0  0  0
   16.8783   -3.4534    0.0000 O   0  0  0  0  0  0  0  0  0  0  0  0
   15.5193   -3.8949    0.0000 C   0  0  0  0  0  0  0  0  0  0  0  0
   14.7123   -3.7234    0.0000 C   0  0  0  0  0  0  0  0  0  0  0  0
   14.4574   -2.9388    0.0000 C   0  0  0  0  0  0  0  0  0  0  0  0
   13.9053   -3.5519    0.0000 C   0  0  0  0  0  0  0  0  0  0  0  0
   13.6504   -2.7673    0.0000 C   0  0  0  0  0  0  0  0  0  0  0  0
   13.0984   -3.3803    0.0000 C   0  0  0  0  0  0  0  0  0  0  0  0
   12.2914   -3.2088    0.0000 C   0  0  0  0  0  0  0  0  0  0  0  0
   12.0365   -2.4242    0.0000 C   0  0  0  0  0  0  0  0  0  0  0  0
   11.4234   -2.9762    0.0000 C   0  0  0  0  0  0  0  0  0  0  0  0
  1  2  1  0
  2  3  1  0
  2  4  1  0
  4  5  1  0
  5  6  1  0
  6  7  1  0
  7  8  1  6
  7  9  1  0
 10  7  1  0
 10 11  1  1
 10 28  1  0
 11 12  1  0
 13 12  1  1
 13 14  1  0
 13 28  1  0
 14 15  1  6
 14 25  1  0
 15 16  1  0
 16 17  2  0
 17 18  1  0
 17 23  1  0
 18 19  1  0
 19 20  1  1
 19 21  1  0
 21 22  1  0
 22 23  1  0
 23 24  1  1
 23 25  1  0
 25 26  1  1
 26 27  1  0
 27 28  1  0
 28 29  1  1
M  END
>  <DRUGBANK_ID>  (1) 
DB04704

>  <COMMON_NAME>  (1) 
20-hydroxycholesterol

>  <CAS_NUMBER>  (1) 
516-72-3

>  <UNII>  (1) 
30060WAL99

$$$$
