
     RDKit          2D

 14 14  0  0  0  0  0  0  0  0999 V2000
    0.7001    0.3510    0.0000 C   0  0  0  0  0  0  0  0  0  0  0  0
   -0.1165    0.3294    0.0000 C   0  0  0  0  0  0  0  0  0  0  0  0
   -1.7661    0.2832    0.0000 C   0  0  0  0  0  0  0  0  0  0  0  0
   -0.5085   -0.3970    0.0000 C   0  0  0  0  0  0  0  0  0  0  0  0
   -0.5457    1.0281    0.0000 C   0  0  0  0  0  0  0  0  0  0  0  0
   -1.3744    1.0045    0.0000 C   0  0  0  0  0  0  0  0  0  0  0  0
   -1.3328   -0.4205    0.0000 C   0  0  0  0  0  0  0  0  0  0  0  0
   -2.5857    0.2622    0.0000 O   0  0  0  0  0  0  0  0  0  0  0  0
    1.1526   -0.3361    0.0000 C   0  0  0  0  0  0  0  0  0  0  0  0
    1.6078   -1.0281    0.0000 C   0  0  0  0  0  0  0  0  0  0  0  0
    1.8443    0.1239    0.0000 C   0  0  0  0  0  0  0  0  0  0  0  0
    0.4578   -0.7883    0.0000 N   0  0  0  0  0  0  0  0  0  0  0  0
    1.7960    0.9389    0.0000 O   0  0  0  0  0  0  0  0  0  0  0  0
    2.5857   -0.2481    0.0000 O   0  0  0  0  0  0  0  0  0  0  0  0
  1  9  1  0
  2  1  1  0
  3  6  1  0
  4  2  2  0
  5  2  1  0
  6  5  2  0
  7  4  1  0
  7  3  2  0
  8  3  1  0
  9 10  1  0
  9 11  1  0
  9 12  1  0
 11 13  2  0
 11 14  1  0
M  END
>  <DRUGBANK_ID>  (1) 
DB16306

>  <COMMON_NAME>  (1) 
Racemetyrosine

>  <CAS_NUMBER>  (1) 
658-48-0

>  <UNII>  (1) 
X88TTO174Z

>  <SYNONYMS>  (1) 
AMPT; D,L-metyrosine; DL-metyrosine; Racemetirosina; Racemetirosine; Racemetirosinum; Racemetyrosine; Sm-88 component racemetyrosine

$$$$
