
     RDKit          2D

 26 29  0  0  0  0  0  0  0  0999 V2000
    0.5746    1.7900    0.0000 C   0  0  0  0  0  0  0  0  0  0  0  0
    0.7634    0.9737    0.0000 C   0  0  0  0  0  0  0  0  0  0  0  0
    0.1509    0.4341    0.0000 C   0  0  0  0  0  0  0  0  0  0  0  0
   -0.6340    0.6794    0.0000 C   0  0  0  0  0  0  0  0  0  0  0  0
   -0.8303    1.4719    0.0000 C   0  0  0  0  0  0  0  0  0  0  0  0
   -0.2103    2.0354    0.0000 C   0  0  0  0  0  0  0  0  0  0  0  0
    1.1707    2.3609    0.0000 O   0  0  0  0  0  0  0  0  0  0  0  0
   -1.6154    1.7171    0.0000 O   0  0  0  0  0  0  0  0  0  0  0  0
   -2.4495   -0.4504    0.0000 N   0  0  0  0  0  0  0  0  0  0  0  0
   -2.0450    0.2587    0.0000 N   0  0  0  0  0  0  0  0  0  0  0  0
   -1.1203   -0.7092    0.0000 C   0  0  0  0  0  0  0  0  0  0  0  0
   -1.2303    0.1085    0.0000 C   0  0  0  0  0  0  0  0  0  0  0  0
   -1.8621   -1.0778    0.0000 C   0  0  0  0  0  0  0  0  0  0  0  0
    1.7089   -0.6794    0.0000 O   0  0  0  0  0  0  0  0  0  0  0  0
    2.4419   -1.0912    0.0000 C   0  0  0  0  0  0  0  0  0  0  0  0
    2.4495   -1.9031    0.0000 C   0  0  0  0  0  0  0  0  0  0  0  0
    1.7403   -2.3342    0.0000 O   0  0  0  0  0  0  0  0  0  0  0  0
    1.0072   -1.9224    0.0000 C   0  0  0  0  0  0  0  0  0  0  0  0
    1.0072   -1.0868    0.0000 C   0  0  0  0  0  0  0  0  0  0  0  0
    0.2906   -0.7061    0.0000 C   0  0  0  0  0  0  0  0  0  0  0  0
   -0.4111   -1.1136    0.0000 C   0  0  0  0  0  0  0  0  0  0  0  0
   -0.4111   -1.9491    0.0000 C   0  0  0  0  0  0  0  0  0  0  0  0
    0.3218   -2.3609    0.0000 C   0  0  0  0  0  0  0  0  0  0  0  0
   -2.0048   -1.8688    0.0000 C   0  0  0  0  0  0  0  0  0  0  0  0
    1.5722    0.7211    0.0000 C   0  0  0  0  0  0  0  0  0  0  0  0
    2.1683    1.2920    0.0000 C   0  0  0  0  0  0  0  0  0  0  0  0
  2  1  2  0
  3  2  1  0
  4  3  2  0
  5  4  1  0
  6  1  1  0
  6  5  2  0
  7  1  1  0
  8  5  1  0
 10  9  1  0
 12  4  1  0
 12 10  1  0
 12 11  2  0
 13  9  2  0
 13 11  1  0
 15 14  1  0
 16 15  1  0
 17 16  1  0
 18 17  1  0
 19 14  1  0
 19 18  2  0
 20 19  1  0
 21 11  1  0
 21 20  2  0
 22 21  1  0
 23 18  1  0
 23 22  2  0
 24 13  1  0
 25  2  1  0
 26 25  1  0
M  END
>  <DRUGBANK_ID>  (1) 
DB07594

>  <COMMON_NAME>  (1) 
CCT-018159

>  <CAS_NUMBER>  (1) 
171009-07-7

>  <UNII>  (1) 
55H1ZOI1NL

$$$$
