
     RDKit          2D

 13 14  0  0  0  0  0  0  0  0999 V2000
   10.8729   -9.5670    0.0000 C   0  0  0  0  0  0  0  0  0  0  0  0
   10.8729   -8.7420    0.0000 C   0  0  0  0  0  0  0  0  0  0  0  0
   10.1584   -9.9795    0.0000 N   0  0  0  0  0  0  0  0  0  0  0  0
   10.1584   -8.3295    0.0000 C   0  0  0  0  0  0  0  0  0  0  0  0
    9.4440   -9.5670    0.0000 C   0  0  0  0  0  0  0  0  0  0  0  0
    9.4440   -8.7420    0.0000 N   0  0  0  0  0  0  0  0  0  0  0  0
   11.6575   -9.8218    0.0000 N   0  0  0  0  0  0  0  0  0  0  0  0
   12.1423   -9.1545    0.0000 C   0  0  0  0  0  0  0  0  0  0  0  0
   11.6574   -8.4870    0.0000 C   0  0  0  0  0  0  0  0  0  0  0  0
   10.1584   -7.5045    0.0000 O   0  0  0  0  0  0  0  0  0  0  0  0
    8.7295   -9.9795    0.0000 N   0  0  0  0  0  0  0  0  0  0  0  0
   11.9122   -7.7024    0.0000 C   0  0  0  0  0  0  0  0  0  0  0  0
   12.7191   -7.5308    0.0000 N   0  0  0  0  0  0  0  0  0  0  0  0
  2  1  2  0
  3  1  1  0
  4  2  1  0
  5  3  2  0
  6  4  1  0
  6  5  1  0
  7  1  1  0
  8  7  1  0
  9  8  2  0
  9  2  1  0
 10  4  2  0
 11  5  1  0
 12  9  1  0
 13 12  1  0
M  END
>  <DRUGBANK_ID>  (1) 
DB03304

>  <SECONDARY_ACCESSION_NUMBERS>  (1) 
EXPT02659

>  <COMMON_NAME>  (1) 
7-Deaza-7-Aminomethyl-Guanine

$$$$
