
     RDKit          2D

 25 24  0  0  0  0  0  0  0  0999 V2000
   -0.4638    3.2191    0.0000 C   0  0  0  0  0  0  0  0  0  0  0  0
    0.2507    2.8066    0.0000 C   0  0  0  0  0  0  0  0  0  0  0  0
    0.2507    1.9816    0.0000 C   0  0  0  0  0  0  0  0  0  0  0  0
    0.9651    1.5691    0.0000 C   0  0  0  0  0  0  0  0  0  0  0  0
    0.9651    0.7441    0.0000 C   0  0  0  0  0  0  0  0  0  0  0  0
    1.6796    0.3316    0.0000 C   0  0  0  0  0  0  0  0  0  0  0  0
    1.6796   -0.4934    0.0000 C   0  0  0  0  0  0  0  0  0  0  0  0
    2.3941   -0.9059    0.0000 C   0  0  0  0  0  0  0  0  0  0  0  0
    2.3941   -1.7309    0.0000 C   0  0  0  0  0  0  0  0  0  0  0  0
    3.1086   -2.1434    0.0000 C   0  0  0  0  0  0  0  0  0  0  0  0
    3.8230   -1.7309    0.0000 C   0  0  0  0  0  0  0  0  0  0  0  0
    4.5375   -2.1434    0.0000 C   0  0  0  0  0  0  0  0  0  0  0  0
    5.2520   -1.7309    0.0000 C   0  0  0  0  0  0  0  0  0  0  0  0
    5.9664   -2.1434    0.0000 C   0  0  0  0  0  0  0  0  0  0  0  0
    6.6809   -1.7309    0.0000 C   0  0  0  0  0  0  0  0  0  0  0  0
    7.3954   -2.1434    0.0000 C   0  0  0  0  0  0  0  0  0  0  0  0
    8.1099   -1.7309    0.0000 C   0  0  0  0  0  0  0  0  0  0  0  0
   11.6822   -2.1434    0.0000 C   0  0  0  0  0  0  0  0  0  0  0  0
   10.2533   -2.1434    0.0000 C   0  0  0  0  0  0  0  0  0  0  0  0
   10.9677   -1.7309    0.0000 C   0  0  0  0  0  0  0  0  0  0  0  0
    8.8243   -2.1434    0.0000 C   0  0  0  0  0  0  0  0  0  0  0  0
   12.3967   -1.7309    0.0000 O   0  0  0  0  0  0  0  0  0  0  0  0
   10.9677   -0.9059    0.0000 O   0  0  0  0  0  0  0  0  0  0  0  0
    8.8243   -2.9684    0.0000 O   0  0  0  0  0  0  0  0  0  0  0  0
    9.5388   -1.7309    0.0000 O   0  0  0  0  0  0  0  0  0  0  0  0
  2  1  1  0
  3  2  1  0
  4  3  1  0
  5  4  1  0
  6  5  1  0
  7  6  1  0
  8  7  1  0
  9  8  1  0
 10  9  2  0
 11 10  1  0
 12 11  1  0
 13 12  1  0
 14 13  1  0
 15 14  1  0
 16 15  1  0
 17 16  1  0
 20 18  1  0
 20 19  1  0
 21 17  1  0
 22 18  1  0
 23 20  1  0
 24 21  2  0
 25 19  1  0
 25 21  1  0
M  END
>  <DRUGBANK_ID>  (1) 
DB13171

>  <COMMON_NAME>  (1) 
Glyceryl 1-oleate

>  <CAS_NUMBER>  (1) 
111-03-5

>  <UNII>  (1) 
D3AEF6S35P

>  <SYNONYMS>  (1) 
1-(9Z-octadecenoyl)-rac-glycerol; 1-(9Z)-octadecenoylglycerol; 1-Glyceryl oleate; 1-monoolein; 1-monooleoyl-rac-glycerol; 1-monooleoylglycerol; 1-oleoyl-rac-glycerol; 1-oleoylglycerol; 2,3-dihydroxypropyl oleate; 9-Octadecenoic acid, 2,3-dihydroxypropyl ester; Glyceryl monooleate; Glyceryl oleate; MG (18:1/0:0/0:0); Monoolein

$$$$
