DST
     RDKit          2D

 14 13  0  0  0  0  0  0  0  0999 V2000
   -3.1910    0.4591    0.0000 O   0  0  0  0  0  0  0  0  0  0  0  0
   -2.4765    0.0466    0.0000 P   0  0  0  0  0  0  0  0  0  0  0  0
   -2.8890   -0.6679    0.0000 O   0  0  0  0  0  0  0  0  0  0  0  0
   -2.0640    0.7612    0.0000 O   0  0  0  0  0  0  0  0  0  0  0  0
   -1.7620   -0.3659    0.0000 O   0  0  0  0  0  0  0  0  0  0  0  0
   -1.0475    0.0466    0.0000 P   0  0  0  0  0  0  0  0  0  0  0  0
   -0.6349   -0.6679    0.0000 O   0  0  0  0  0  0  0  0  0  0  0  0
   -1.4600    0.7612    0.0000 O   0  0  0  0  0  0  0  0  0  0  0  0
   -0.3329    0.4591    0.0000 S   0  0  0  0  0  0  0  0  0  0  0  0
    0.3815    0.0466    0.0000 C   0  0  0  0  0  0  0  0  0  0  0  0
    1.0961    0.4591    0.0000 C   0  0  0  0  0  0  0  0  0  0  0  0
    1.8106    0.0466    0.0000 C   0  0  0  0  0  0  0  0  0  0  0  0
    2.5251    0.4591    0.0000 C   0  0  0  0  0  0  0  0  0  0  0  0
    1.8106   -0.7785    0.0000 C   0  0  0  0  0  0  0  0  0  0  0  0
  1  2  1  0
  2  3  1  0
  2  4  2  0
  2  5  1  0
  6  5  1  0
  6  7  1  0
  6  8  2  0
  6  9  1  0
  9 10  1  0
 10 11  1  0
 11 12  1  0
 12 13  1  0
 12 14  1  0
M  END
>  <DRUGBANK_ID>  (1) 
DB02270

>  <SECONDARY_ACCESSION_NUMBERS>  (1) 
EXPT01279

>  <COMMON_NAME>  (1) 
Dimethylallyl S-Thiolodiphosphate

$$$$
