AL5
     RDKit          2D

 21 22  0  0  0  0  0  0  0  0999 V2000
    1.3384    2.5670    0.0000 C   0  0  0  0  0  0  0  0  0  0  0  0
    0.2917   -0.7911    0.0000 C   0  0  0  0  0  0  0  0  0  0  0  0
   -0.1933   -1.4586    0.0000 C   0  0  0  0  0  0  0  0  0  0  0  0
    0.1423   -2.2122    0.0000 C   0  0  0  0  0  0  0  0  0  0  0  0
   -0.3426   -2.8797    0.0000 C   0  0  0  0  0  0  0  0  0  0  0  0
   -1.1631   -2.7935    0.0000 C   0  0  0  0  0  0  0  0  0  0  0  0
   -1.4987   -2.0398    0.0000 C   0  0  0  0  0  0  0  0  0  0  0  0
   -1.0137   -1.3723    0.0000 C   0  0  0  0  0  0  0  0  0  0  0  0
   -1.6480   -3.4609    0.0000 C   0  0  0  0  0  0  0  0  0  0  0  0
    1.3384    4.2170    0.0000 O   0  0  0  0  0  0  0  0  0  0  0  0
    2.1634    3.3920    0.0000 O   0  0  0  0  0  0  0  0  0  0  0  0
    0.5134    3.3920    0.0000 N   0  0  0  0  0  0  0  0  0  0  0  0
    1.3384    3.3920    0.0000 S   0  0  0  0  0  0  0  0  0  0  0  0
    2.0059    2.0820    0.0000 C   0  0  0  0  0  0  0  0  0  0  0  0
    1.7509    1.2974    0.0000 C   0  0  0  0  0  0  0  0  0  0  0  0
    0.9259    1.2974    0.0000 C   0  0  0  0  0  0  0  0  0  0  0  0
    0.6710    2.0820    0.0000 S   0  0  0  0  0  0  0  0  0  0  0  0
    0.4410    0.6300    0.0000 S   0  0  0  0  0  0  0  0  0  0  0  0
    1.1085    0.1451    0.0000 O   0  0  0  0  0  0  0  0  0  0  0  0
   -0.2264    1.1149    0.0000 O   0  0  0  0  0  0  0  0  0  0  0  0
   -0.0439   -0.0375    0.0000 N   0  0  0  0  0  0  0  0  0  0  0  0
  1 13  1  0
  1 14  2  0
  1 17  1  0
  2  3  1  0
  2 21  1  0
  3  4  2  0
  3  8  1  0
  4  5  1  0
  5  6  2  0
  6  7  1  0
  6  9  1  0
  7  8  2  0
 10 13  2  0
 11 13  2  0
 12 13  1  0
 14 15  1  0
 15 16  2  0
 16 17  1  0
 16 18  1  0
 18 19  2  0
 18 20  2  0
 18 21  1  0
M  END
>  <DRUGBANK_ID>  (1) 
DB07363

>  <COMMON_NAME>  (1) 
THIOPHENE-2,5-DISULFONIC ACID 2-AMIDE-5-(4-METHYL-BENZYLAMIDE)

>  <UNII>  (1) 
409XZT1EFW

$$$$
