
     RDKit          2D

 15 16  0  0  1  0  0  0  0  0999 V2000
   -0.3020    2.3007    0.0000 C   0  0  0  0  0  0  0  0  0  0  0  0
    0.4125    1.8882    0.0000 C   0  0  0  0  0  0  0  0  0  0  0  0
    0.4125    1.0632    0.0000 C   0  0  0  0  0  0  0  0  0  0  0  0
    1.1270    2.3007    0.0000 C   0  0  0  0  0  0  0  0  0  0  0  0
    1.1270    3.1257    0.0000 C   0  0  0  0  0  0  0  0  0  0  0  0
    1.8414    3.5382    0.0000 C   0  0  0  0  0  0  0  0  0  0  0  0
    2.5559    3.1257    0.0000 C   0  0  0  0  0  0  0  0  0  0  0  0
    2.5559    2.3007    0.0000 C   0  0  0  0  0  0  0  0  0  0  0  0
    3.2704    1.8882    0.0000 C   0  0  0  0  0  0  0  0  0  0  0  0
    3.9849    2.3007    0.0000 C   0  0  0  0  0  0  0  0  0  0  0  0
    3.2704    1.0632    0.0000 C   0  0  0  0  0  0  0  0  0  0  0  0
    3.6829    0.3487    0.0000 C   0  0  0  0  0  0  0  0  0  0  0  0
    2.8579    0.3487    0.0000 C   0  0  0  0  0  0  0  0  0  0  0  0
    1.8414    1.8882    0.0000 C   0  0  0  0  0  0  0  0  0  0  0  0
    1.8414    1.0632    0.0000 O   0  0  0  0  0  0  0  0  0  0  0  0
  1  2  1  0
  2  3  1  0
  2  4  1  0
  4  5  2  0
  4 14  1  0
  5  6  1  0
  6  7  2  0
  7  8  1  0
  8 14  2  0
  9  8  1  0
  9 10  1  6
  9 11  1  0
 11 12  1  0
 11 13  1  0
 12 13  1  0
 14 15  1  0
M  END
>  <DRUGBANK_ID>  (1) 
DB16295

>  <COMMON_NAME>  (1) 
HSK-3486

>  <CAS_NUMBER>  (1) 
1637741-58-2

>  <UNII>  (1) 
M3WGS532VY

$$$$
