319
     RDKit          2D

 29 31  0  0  0  0  0  0  0  0999 V2000
   -4.3943   -0.5681    0.0000 C   0  0  0  0  0  0  0  0  0  0  0  0
   -3.6799    0.6694    0.0000 C   0  0  0  0  0  0  0  0  0  0  0  0
    0.6070    0.6694    0.0000 C   0  0  0  0  0  0  0  0  0  0  0  0
    1.3214    1.0819    0.0000 C   0  0  0  0  0  0  0  0  0  0  0  0
   -5.1088   -0.1556    0.0000 C   0  0  0  0  0  0  0  0  0  0  0  0
   -4.3943    1.0819    0.0000 C   0  0  0  0  0  0  0  0  0  0  0  0
    4.1793    1.0819    0.0000 C   0  0  0  0  0  0  0  0  0  0  0  0
    1.3214   -0.5681    0.0000 C   0  0  0  0  0  0  0  0  0  0  0  0
    3.4648   -0.1556    0.0000 C   0  0  0  0  0  0  0  0  0  0  0  0
    4.8938    0.6694    0.0000 C   0  0  0  0  0  0  0  0  0  0  0  0
   -3.6799   -0.1556    0.0000 C   0  0  0  0  0  0  0  0  0  0  0  0
    0.6070   -0.1556    0.0000 C   0  0  0  0  0  0  0  0  0  0  0  0
    2.0359    0.6694    0.0000 C   0  0  0  0  0  0  0  0  0  0  0  0
    3.4648    0.6694    0.0000 C   0  0  0  0  0  0  0  0  0  0  0  0
   -5.1088    0.6694    0.0000 C   0  0  0  0  0  0  0  0  0  0  0  0
    2.0359   -0.1556    0.0000 C   0  0  0  0  0  0  0  0  0  0  0  0
    4.1793   -0.5681    0.0000 C   0  0  0  0  0  0  0  0  0  0  0  0
   -2.2509   -0.1556    0.0000 C   0  0  0  0  0  0  0  0  0  0  0  0
   -0.8220   -0.1556    0.0000 C   0  0  0  0  0  0  0  0  0  0  0  0
   -2.9654   -0.5681    0.0000 C   0  0  0  0  0  0  0  0  0  0  0  0
    4.8938   -0.1556    0.0000 N   0  0  0  0  0  0  0  0  0  0  0  0
    4.1793   -1.3931    0.0000 N   0  0  0  0  0  0  0  0  0  0  0  0
   -0.1075   -0.5681    0.0000 N   0  0  0  0  0  0  0  0  0  0  0  0
   -1.5365   -0.5681    0.0000 N   0  0  0  0  0  0  0  0  0  0  0  0
   -2.2509    0.6694    0.0000 O   0  0  0  0  0  0  0  0  0  0  0  0
   -0.8220    0.6694    0.0000 O   0  0  0  0  0  0  0  0  0  0  0  0
    2.7504    1.0819    0.0000 O   0  0  0  0  0  0  0  0  0  0  0  0
   -5.8233    1.0819    0.0000 F   0  0  0  0  0  0  0  0  0  0  0  0
    2.7504   -0.5681    0.0000 F   0  0  0  0  0  0  0  0  0  0  0  0
  1  5  2  0
  1 11  1  0
  2  6  1  0
  2 11  2  0
  3  4  2  0
  3 12  1  0
  4 13  1  0
  5 15  1  0
  6 15  2  0
  7 10  2  0
  7 14  1  0
  8 12  2  0
  8 16  1  0
  9 14  2  0
  9 17  1  0
 10 21  1  0
 11 20  1  0
 12 23  1  0
 13 16  2  0
 13 27  1  0
 14 27  1  0
 15 28  1  0
 16 29  1  0
 17 21  2  0
 17 22  1  0
 18 20  1  0
 18 24  1  0
 18 25  2  0
 19 23  1  0
 19 24  1  0
 19 26  2  0
M  END
>  <DRUGBANK_ID>  (1) 
DB06995

>  <COMMON_NAME>  (1) 
N-({4-[(2-aminopyridin-4-yl)oxy]-3-fluorophenyl}carbamoyl)-2-(4-fluorophenyl)acetamide

$$$$
