
     RDKit          2D

 32 35  0  0  0  0  0  0  0  0999 V2000
   -2.5159   -0.7413    0.0000 C   0  0  0  0  0  0  0  0  0  0  0  0
   -3.2384   -1.1381    0.0000 C   0  0  0  0  0  0  0  0  0  0  0  0
   -3.2384   -1.9771    0.0000 C   0  0  0  0  0  0  0  0  0  0  0  0
   -2.5159   -2.3893    0.0000 C   0  0  0  0  0  0  0  0  0  0  0  0
   -1.8162   -1.9771    0.0000 C   0  0  0  0  0  0  0  0  0  0  0  0
   -1.1014   -2.3893    0.0000 C   0  0  0  0  0  0  0  0  0  0  0  0
   -1.8162   -1.1381    0.0000 C   0  0  0  0  0  0  0  0  0  0  0  0
   -0.3705    0.4867    0.0000 C   0  0  0  0  0  0  0  0  0  0  0  0
    0.3290    0.0667    0.0000 C   0  0  0  0  0  0  0  0  0  0  0  0
    0.3290   -0.7413    0.0000 C   0  0  0  0  0  0  0  0  0  0  0  0
    1.1137   -0.9982    0.0000 C   0  0  0  0  0  0  0  0  0  0  0  0
    1.1137    0.3230    0.0000 C   0  0  0  0  0  0  0  0  0  0  0  0
    0.3290    0.9140    0.0000 C   0  0  0  0  0  0  0  0  0  0  0  0
   -1.8162   -0.3295    0.0000 C   0  0  0  0  0  0  0  0  0  0  0  0
   -3.9717   -2.4079    0.0000 O   0  0  0  0  0  0  0  0  0  0  0  0
   -1.1014   -0.7413    0.0000 C   0  0  0  0  0  0  0  0  0  0  0  0
   -0.3705   -1.1381    0.0000 C   0  0  0  0  0  0  0  0  0  0  0  0
   -0.3705   -1.9771    0.0000 C   0  0  0  0  0  0  0  0  0  0  0  0
    1.8282    1.5829    0.0000 C   0  0  0  0  0  0  0  0  0  0  0  0
    1.1137    1.1704    0.0000 C   0  0  0  0  0  0  0  0  0  0  0  0
   -1.1014   -1.5662    0.0000 F   0  0  0  0  0  0  0  0  0  0  0  0
   -1.1014    0.0667    0.0000 C   0  0  0  0  0  0  0  0  0  0  0  0
   -1.8158    0.4792    0.0000 O   0  0  0  0  0  0  0  0  0  0  0  0
    1.5801   -0.3450    0.0000 C   0  0  0  0  0  0  0  0  0  0  0  0
    2.4050   -0.3450    0.0000 C   0  0  0  0  0  0  0  0  0  0  0  0
    1.8338    0.7259    0.0000 O   0  0  0  0  0  0  0  0  0  0  0  0
    0.3993    1.5829    0.0000 O   0  0  0  0  0  0  0  0  0  0  0  0
    2.5428    1.1704    0.0000 O   0  0  0  0  0  0  0  0  0  0  0  0
    3.2573    1.5829    0.0000 P   0  0  0  0  0  0  0  0  0  0  0  0
    3.9717    1.1704    0.0000 O   0  0  0  0  0  0  0  0  0  0  0  0
    3.2572    2.4079    0.0000 O   0  0  0  0  0  0  0  0  0  0  0  0
    3.2573    0.7580    0.0000 O   0  0  0  0  0  0  0  0  0  0  0  0
  1  7  1  0
  2  1  2  0
  3  2  1  0
  3  4  1  0
  3 15  2  0
  4  5  2  0
  5  7  1  0
  6  5  1  0
  6 18  1  0
  7 16  1  0
  7 14  1  1
  8  9  1  0
  9 13  1  1
 10  9  1  0
 10 11  1  1
 12  9  1  0
 12 20  1  0
 12 26  1  6
 16 21  1  6
 17 10  1  0
 17 16  1  0
 17 18  1  6
 19 28  1  0
 19 20  1  0
 20 27  2  0
 22  8  1  0
 22 16  1  0
 22 23  1  1
 24 11  1  0
 24 12  1  0
 24 25  1  1
 28 29  1  0
 29 30  1  0
 29 31  2  0
 29 32  1  0
M  END
>  <DRUGBANK_ID>  (1) 
DB14669

>  <SECONDARY_ACCESSION_NUMBERS>  (1) 
DBSALT002245

>  <COMMON_NAME>  (1) 
Betamethasone phosphate

>  <CAS_NUMBER>  (1) 
360-63-4

>  <UNII>  (1) 
YJO1F9W10R

>  <SYNONYMS>  (1) 
Betamethasone 21-(dihydrogen phosphate); Betamethasone 21-phosphate; Betamethasone dihydrogen phosphate

$$$$
