
     RDKit          2D

 29 32  0  0  0  0  0  0  0  0999 V2000
    1.1067   -1.0011    0.0000 C   0  0  0  0  0  0  0  0  0  0  0  0
   -0.3923   -1.9837    0.0000 C   0  0  0  0  0  0  0  0  0  0  0  0
    1.1067    0.3337    0.0000 C   0  0  0  0  0  0  0  0  0  0  0  0
   -0.3923    0.4912    0.0000 C   0  0  0  0  0  0  0  0  0  0  0  0
    1.5916   -0.3337    0.0000 C   0  0  0  0  0  0  0  0  0  0  0  0
   -1.8213   -1.1587    0.0000 C   0  0  0  0  0  0  0  0  0  0  0  0
   -1.1068    0.0787    0.0000 C   0  0  0  0  0  0  0  0  0  0  0  0
   -1.1068   -2.3962    0.0000 C   0  0  0  0  0  0  0  0  0  0  0  0
   -1.8213   -1.9837    0.0000 C   0  0  0  0  0  0  0  0  0  0  0  0
   -2.5358   -0.7462    0.0000 C   0  0  0  0  0  0  0  0  0  0  0  0
   -2.5358   -2.3962    0.0000 C   0  0  0  0  0  0  0  0  0  0  0  0
   -3.2502   -1.1587    0.0000 C   0  0  0  0  0  0  0  0  0  0  0  0
   -0.3923   -1.1587    0.0000 C   0  0  0  0  0  0  0  0  0  0  0  0
   -1.1068   -0.7462    0.0000 C   0  0  0  0  0  0  0  0  0  0  0  0
    0.3220    0.0787    0.0000 C   0  0  0  0  0  0  0  0  0  0  0  0
    0.3220    0.9037    0.0000 C   0  0  0  0  0  0  0  0  0  0  0  0
    0.3220   -0.7462    0.0000 C   0  0  0  0  0  0  0  0  0  0  0  0
   -3.9647   -2.3962    0.0000 O   0  0  0  0  0  0  0  0  0  0  0  0
   -3.2502   -1.9837    0.0000 C   0  0  0  0  0  0  0  0  0  0  0  0
   -1.8213   -0.3337    0.0000 C   0  0  0  0  0  0  0  0  0  0  0  0
    1.8213    0.1498    0.0000 O   0  0  0  0  0  0  0  0  0  0  0  0
    1.1067    1.1587    0.0000 C   0  0  0  0  0  0  0  0  0  0  0  0
   -1.8213    0.4912    0.0000 O   0  0  0  0  0  0  0  0  0  0  0  0
    0.3922    1.5712    0.0000 O   0  0  0  0  0  0  0  0  0  0  0  0
    1.8213    1.5712    0.0000 C   0  0  0  0  0  0  0  0  0  0  0  0
    2.5357    1.1587    0.0000 O   0  0  0  0  0  0  0  0  0  0  0  0
    3.2502    1.5712    0.0000 C   0  0  0  0  0  0  0  0  0  0  0  0
    3.9647    1.1587    0.0000 C   0  0  0  0  0  0  0  0  0  0  0  0
    3.2502    2.3962    0.0000 O   0  0  0  0  0  0  0  0  0  0  0  0
  2  8  1  0
  3  5  1  0
  3 21  1  6
  3 22  1  0
  4  7  1  0
  5  1  1  0
  6  9  1  0
  6 10  1  0
  6 20  1  1
  7 23  2  0
  8  9  1  0
  9 11  2  0
 10 12  2  0
 11 19  1  0
 12 19  1  0
 13 14  1  0
 13  2  1  6
 14  6  1  0
 14  7  1  1
 15  3  1  0
 15  4  1  0
 15 16  1  1
 17 13  1  0
 17 15  1  0
 17  1  1  1
 19 18  2  0
 22 24  2  0
 22 25  1  0
 25 26  1  0
 26 27  1  0
 27 28  1  0
 27 29  2  0
M  END
>  <DRUGBANK_ID>  (1) 
DB14646

>  <SECONDARY_ACCESSION_NUMBERS>  (1) 
DBSALT002337

>  <COMMON_NAME>  (1) 
Prednisone acetate

>  <CAS_NUMBER>  (1) 
125-10-0

>  <UNII>  (1) 
OU93QEL83U

>  <SYNONYMS>  (1) 
1,4-Pregnadien-17Î±,21-diol-3,11,20-trione-21-acetate; 21-Acetoxy-17alpha-hydroxypregna-1,4-diene-3,11,20-trione; Cortancyl; delta'-Dehydrocortisone acetate; delta1-Cortisone-21-acetate; Prednisone 21-acetate; Prednisone-21-acetate

$$$$
