
     RDKit          2D

 34 38  0  0  0  0  0  0  0  0999 V2000
    3.0695    0.8008    0.0000 O   0  0  0  0  0  0  0  0  0  0  0  0
    2.0930   -3.9286    0.0000 O   0  0  0  0  0  0  0  0  0  0  0  0
    8.7987   -3.1036    0.0000 O   0  0  0  0  0  0  0  0  0  0  0  0
    3.0311    2.9833    0.0000 N   0  0  0  0  0  0  0  0  0  0  0  0
    5.0171   -2.4397    0.0000 N   0  0  0  0  0  0  0  0  0  0  0  0
    2.4802    3.5973    0.0000 C   0  0  0  0  0  0  0  0  0  0  0  0
    3.8384    3.1534    0.0000 C   0  0  0  0  0  0  0  0  0  0  0  0
    2.7364    4.3815    0.0000 C   0  0  0  0  0  0  0  0  0  0  0  0
    4.0947    3.9376    0.0000 C   0  0  0  0  0  0  0  0  0  0  0  0
    3.5437    4.5516    0.0000 C   0  0  0  0  0  0  0  0  0  0  0  0
    2.7748    2.1991    0.0000 C   0  0  0  0  0  0  0  0  0  0  0  0
    3.3258    1.5850    0.0000 C   0  0  0  0  0  0  0  0  0  0  0  0
    5.4986   -3.1036    0.0000 C   0  0  0  0  0  0  0  0  0  0  0  0
    4.2365   -2.6910    0.0000 C   0  0  0  0  0  0  0  0  0  0  0  0
    5.0171   -3.7674    0.0000 C   0  0  0  0  0  0  0  0  0  0  0  0
    4.2365   -3.5161    0.0000 C   0  0  0  0  0  0  0  0  0  0  0  0
    5.2734   -1.6554    0.0000 C   0  0  0  0  0  0  0  0  0  0  0  0
    4.7225   -1.0413    0.0000 C   0  0  0  0  0  0  0  0  0  0  0  0
    6.3236   -3.1036    0.0000 C   0  0  0  0  0  0  0  0  0  0  0  0
    3.5220   -2.2785    0.0000 C   0  0  0  0  0  0  0  0  0  0  0  0
    3.5220   -3.9286    0.0000 C   0  0  0  0  0  0  0  0  0  0  0  0
    5.2734   -4.5516    0.0000 C   0  0  0  0  0  0  0  0  0  0  0  0
    3.6205    0.1868    0.0000 C   0  0  0  0  0  0  0  0  0  0  0  0
    3.9151   -1.2115    0.0000 C   0  0  0  0  0  0  0  0  0  0  0  0
    4.9787   -0.2572    0.0000 C   0  0  0  0  0  0  0  0  0  0  0  0
    2.8075   -3.5161    0.0000 C   0  0  0  0  0  0  0  0  0  0  0  0
    2.8075   -2.6910    0.0000 C   0  0  0  0  0  0  0  0  0  0  0  0
    3.3642   -0.5975    0.0000 C   0  0  0  0  0  0  0  0  0  0  0  0
    4.4278    0.3569    0.0000 C   0  0  0  0  0  0  0  0  0  0  0  0
    6.7361   -2.3891    0.0000 C   0  0  0  0  0  0  0  0  0  0  0  0
    6.7361   -3.8180    0.0000 C   0  0  0  0  0  0  0  0  0  0  0  0
    7.5611   -2.3891    0.0000 C   0  0  0  0  0  0  0  0  0  0  0  0
    7.5611   -3.8180    0.0000 C   0  0  0  0  0  0  0  0  0  0  0  0
    7.9736   -3.1036    0.0000 C   0  0  0  0  0  0  0  0  0  0  0  0
  1 12  1  0
  1 23  1  0
  2 26  1  0
  3 34  1  0
  4  6  1  0
  4  7  1  0
  4 11  1  0
  5 13  1  0
  5 14  1  0
  5 17  1  0
  6  8  1  0
  7  9  1  0
  8 10  1  0
  9 10  1  0
 11 12  1  0
 13 15  2  0
 13 19  1  0
 14 16  2  0
 14 20  1  0
 15 16  1  0
 15 22  1  0
 16 21  1  0
 17 18  1  0
 18 24  2  0
 18 25  1  0
 19 30  2  0
 19 31  1  0
 20 27  2  0
 21 26  2  0
 23 28  2  0
 23 29  1  0
 24 28  1  0
 25 29  2  0
 26 27  1  0
 30 32  1  0
 31 33  2  0
 32 34  2  0
 33 34  1  0
M  END
>  <DRUGBANK_ID>  (1) 
DB05414

>  <COMMON_NAME>  (1) 
Pipendoxifene

>  <CAS_NUMBER>  (1) 
198480-55-6

>  <UNII>  (1) 
TPC5Q8496G

>  <SYNONYMS>  (1) 
Pipendoxifene

$$$$
