PGG
     RDKit          2D

 23 23  0  0  0  0  0  0  0  0999 V2000
   -2.0795   -0.0123    0.0000 C   0  0  0  0  0  0  0  0  0  0  0  0
   -2.8456   -0.3185    0.0000 C   0  0  0  0  0  0  0  0  0  0  0  0
   -3.4938    0.1919    0.0000 C   0  0  0  0  0  0  0  0  0  0  0  0
   -3.3759    1.0084    0.0000 C   0  0  0  0  0  0  0  0  0  0  0  0
   -2.6099    1.3146    0.0000 C   0  0  0  0  0  0  0  0  0  0  0  0
   -1.9616    0.8043    0.0000 C   0  0  0  0  0  0  0  0  0  0  0  0
   -0.6652   -0.2164    0.0000 P   0  0  0  0  0  0  0  0  0  0  0  0
   -1.4313   -0.5226    0.0000 O   0  0  0  0  0  0  0  0  0  0  0  0
   -0.9714    0.5497    0.0000 O   0  0  0  0  0  0  0  0  0  0  0  0
   -0.3590   -0.9825    0.0000 O   0  0  0  0  0  0  0  0  0  0  0  0
    0.1009    0.0898    0.0000 C   0  0  0  0  0  0  0  0  0  0  0  0
    0.7491   -0.4206    0.0000 C   0  0  0  0  0  0  0  0  0  0  0  0
    1.5151   -0.1144    0.0000 C   0  0  0  0  0  0  0  0  0  0  0  0
    2.1634   -0.6247    0.0000 C   0  0  0  0  0  0  0  0  0  0  0  0
    2.9294   -0.3185    0.0000 N   0  0  0  0  0  0  0  0  0  0  0  0
    2.0455   -1.4412    0.0000 O   0  0  0  0  0  0  0  0  0  0  0  0
    3.5776   -0.8288    0.0000 C   0  0  0  0  0  0  0  0  0  0  0  0
    4.3437   -0.5226    0.0000 C   0  0  0  0  0  0  0  0  0  0  0  0
    4.9919   -1.0330    0.0000 O   0  0  0  0  0  0  0  0  0  0  0  0
    4.4616    0.2939    0.0000 O   0  0  0  0  0  0  0  0  0  0  0  0
   -4.0241    1.5187    0.0000 N   0  0  0  0  0  0  0  0  0  0  0  0
   -4.7902    1.2125    0.0000 O   0  0  0  0  0  0  0  0  0  0  0  0
   -3.9063    2.3353    0.0000 O   0  0  0  0  0  0  0  0  0  0  0  0
  1  2  2  0
  1  6  1  0
  1  8  1  0
  2  3  1  0
  3  4  2  0
  4  5  1  0
  4 21  1  0
  5  6  2  0
  7  8  1  0
  7  9  1  0
  7 10  2  0
  7 11  1  0
 11 12  1  0
 12 13  1  0
 13 14  1  0
 14 15  1  0
 14 16  2  0
 15 17  1  0
 17 18  1  0
 18 19  1  0
 18 20  2  0
 21 22  2  0
 21 23  1  0
M  CHG  2  21   1  23  -1
M  END
>  <DRUGBANK_ID>  (1) 
DB08394

>  <COMMON_NAME>  (1) 
PARA-NITROPHENYLPHOSPHONOBUTANOYL-GLYCINE

$$$$
