
     RDKit          2D

 21 21  0  0  0  0  0  0  0  0999 V2000
   -0.3571    0.6185    0.0000 C   0  0  0  0  0  0  0  0  0  0  0  0
   -0.3571   -0.2063    0.0000 C   0  0  0  0  0  0  0  0  0  0  0  0
   -1.0718    1.0310    0.0000 O   0  0  0  0  0  0  0  0  0  0  0  0
   -1.0716   -0.6187    0.0000 C   0  0  0  0  0  0  0  0  0  0  0  0
   -1.7862    0.6184    0.0000 C   0  0  0  0  0  0  0  0  0  0  0  0
   -1.7861   -0.2063    0.0000 C   0  0  0  0  0  0  0  0  0  0  0  0
    0.3573   -0.6187    0.0000 N   0  0  0  0  0  0  0  0  0  0  0  0
   -1.0718   -1.4438    0.0000 O   0  0  0  0  0  0  0  0  0  0  0  0
   -2.5006   -0.6187    0.0000 O   0  0  0  0  0  0  0  0  0  0  0  0
   -2.5009    1.0310    0.0000 C   0  0  0  0  0  0  0  0  0  0  0  0
   -3.2152    0.6185    0.0000 O   0  0  0  0  0  0  0  0  0  0  0  0
    0.3573   -1.4437    0.0000 C   0  0  0  0  0  0  0  0  0  0  0  0
    1.0717   -1.8562    0.0000 O   0  0  0  0  0  0  0  0  0  0  0  0
   -0.3571   -1.8563    0.0000 C   0  0  0  0  0  0  0  0  0  0  0  0
    0.3572    1.0313    0.0000 O   0  0  0  0  0  0  0  0  0  0  0  0
    2.5008    0.6187    0.0000 C   0  0  0  0  0  0  0  0  0  0  0  0
    1.7862    1.0313    0.0000 C   0  0  0  0  0  0  0  0  0  0  0  0
    2.5008   -0.2062    0.0000 O   0  0  0  0  0  0  0  0  0  0  0  0
    1.7862    1.8563    0.0000 N   0  0  0  0  0  0  0  0  0  0  0  0
    1.0718    0.6187    0.0000 C   0  0  0  0  0  0  0  0  0  0  0  0
    3.2152    1.0313    0.0000 O   0  0  0  0  0  0  0  0  0  0  0  0
  1  2  1  0
  1  3  1  0
  1 15  1  6
  2  4  1  0
  2  7  1  6
  3  5  1  0
  4  6  1  0
  4  8  1  1
  5  6  1  0
  5 10  1  1
  6  9  1  1
  7 12  1  0
 11 10  1  0
 13 12  2  0
 14 12  1  0
 16 17  1  0
 16 18  2  0
 17 19  1  6
 17 20  1  0
 20 15  1  0
 21 16  1  0
M  END
>  <DRUGBANK_ID>  (1) 
DB02397

>  <SECONDARY_ACCESSION_NUMBERS>  (1) 
EXPT03081

>  <COMMON_NAME>  (1) 
O-(N-acetyl-alpha-D-galactosaminyl)-L-serine

>  <CAS_NUMBER>  (1) 
67262-86-6

>  <SYNONYMS>  (1) 
Tn Antigen; Î±-D-GalNAc-Ser

$$$$
