MD7
     RDKit          2D

 23 25  0  0  0  0  0  0  0  0999 V2000
    3.3170    2.1498    0.0000 C   0  0  0  0  0  0  0  0  0  0  0  0
    3.7295    1.4354    0.0000 C   0  0  0  0  0  0  0  0  0  0  0  0
    2.9045    1.4354    0.0000 C   0  0  0  0  0  0  0  0  0  0  0  0
    2.1900    1.0229    0.0000 C   0  0  0  0  0  0  0  0  0  0  0  0
    2.1900    0.1979    0.0000 O   0  0  0  0  0  0  0  0  0  0  0  0
    1.4755    1.4354    0.0000 C   0  0  0  0  0  0  0  0  0  0  0  0
    1.4755    2.2604    0.0000 C   0  0  0  0  0  0  0  0  0  0  0  0
    1.4755    3.0854    0.0000 N   0  0  0  0  0  0  0  0  0  0  0  0
    0.7610    1.0229    0.0000 C   0  0  0  0  0  0  0  0  0  0  0  0
    0.0466    1.4354    0.0000 O   0  0  0  0  0  0  0  0  0  0  0  0
    0.7610    0.1979    0.0000 N   0  0  0  0  0  0  0  0  0  0  0  0
    0.0466   -0.2146    0.0000 C   0  0  0  0  0  0  0  0  0  0  0  0
    0.0466   -1.0396    0.0000 C   0  0  0  0  0  0  0  0  0  0  0  0
   -0.6679   -1.4521    0.0000 C   0  0  0  0  0  0  0  0  0  0  0  0
   -0.6679    0.1979    0.0000 C   0  0  0  0  0  0  0  0  0  0  0  0
   -1.3824   -0.2146    0.0000 C   0  0  0  0  0  0  0  0  0  0  0  0
   -1.3824   -1.0396    0.0000 C   0  0  0  0  0  0  0  0  0  0  0  0
   -2.0968   -1.4521    0.0000 C   0  0  0  0  0  0  0  0  0  0  0  0
   -2.0968   -2.2771    0.0000 C   0  0  0  0  0  0  0  0  0  0  0  0
   -2.8113   -2.6896    0.0000 C   0  0  0  0  0  0  0  0  0  0  0  0
   -3.5258   -2.2771    0.0000 C   0  0  0  0  0  0  0  0  0  0  0  0
   -3.5258   -1.4521    0.0000 C   0  0  0  0  0  0  0  0  0  0  0  0
   -2.8113   -1.0396    0.0000 C   0  0  0  0  0  0  0  0  0  0  0  0
  1  2  1  0
  1  3  1  0
  2  3  1  0
  3  4  1  0
  4  5  1  0
  4  6  2  0
  6  7  1  0
  6  9  1  0
  7  8  3  0
  9 10  2  0
  9 11  1  0
 11 12  1  0
 12 13  2  0
 12 15  1  0
 13 14  1  0
 14 17  2  0
 15 16  2  0
 16 17  1  0
 17 18  1  0
 18 19  2  0
 18 23  1  0
 19 20  1  0
 20 21  2  0
 21 22  1  0
 22 23  2  0
M  END
>  <DRUGBANK_ID>  (1) 
DB08169

>  <COMMON_NAME>  (1) 
(2Z)-N-biphenyl-4-yl-2-cyano-3-cyclopropyl-3-hydroxyprop-2-enamide

$$$$
