
     RDKit          2D

  9  9  0  0  1  0  0  0  0  0999 V2000
   -0.8843    0.8843    0.0000 C   0  0  0  0  0  0  0  0  0  0  0  0
    0.1553   -0.1553    0.0000 C   0  0  0  0  0  0  0  0  0  0  0  0
    0.9803   -0.1553    0.0000 C   0  0  0  0  0  0  0  0  0  0  0  0
   -0.0997    0.6294    0.0000 C   0  0  0  0  0  0  0  0  0  0  0  0
    0.5678    1.1143    0.0000 C   0  0  0  0  0  0  0  0  0  0  0  0
    0.5678    1.9393    0.0000 C   0  0  0  0  0  0  0  0  0  0  0  0
    1.2352    0.6294    0.0000 N   0  0  0  0  0  0  0  0  0  0  0  0
   -0.1467    2.3518    0.0000 O   0  0  0  0  0  0  0  0  0  0  0  0
    1.2822    2.3518    0.0000 O   0  0  0  0  0  0  0  0  0  0  0  0
  3  2  2  0
  4  1  1  1
  4  2  1  0
  5  4  1  0
  5  6  1  6
  7  3  1  0
  7  5  1  0
  8  6  2  0
  9  6  1  0
M  END
>  <DRUGBANK_ID>  (1) 
DB03930

>  <SECONDARY_ACCESSION_NUMBERS>  (1) 
EXPT00689

>  <COMMON_NAME>  (1) 
4-Methyl-Pyrroline-5-Carboxylic Acid

$$$$
