855
     RDKit          2D

  9  8  0  0  0  0  0  0  0  0999 V2000
    3.5217   -1.0312    0.0000 O   0  0  0  0  0  0  0  0  0  0  0  0
    6.3793   -0.2063    0.0000 O   0  0  0  0  0  0  0  0  0  0  0  0
    5.6650    1.0312    0.0000 O   0  0  0  0  0  0  0  0  0  0  0  0
    2.0928   -0.2063    0.0000 N   0  0  0  0  0  0  0  0  0  0  0  0
    4.2361    0.2063    0.0000 C   0  0  0  0  0  0  0  0  0  0  0  0
    4.9504   -0.2063    0.0000 C   0  0  0  0  0  0  0  0  0  0  0  0
    3.5217   -0.2063    0.0000 C   0  0  0  0  0  0  0  0  0  0  0  0
    2.8072    0.2063    0.0000 C   0  0  0  0  0  0  0  0  0  0  0  0
    5.6650    0.2063    0.0000 C   0  0  0  0  0  0  0  0  0  0  0  0
  1  7  2  0
  2  9  1  0
  3  9  2  0
  4  8  1  0
  5  6  1  0
  5  7  1  0
  6  9  1  0
  7  8  1  0
M  END
>  <DRUGBANK_ID>  (1) 
DB00855

>  <SECONDARY_ACCESSION_NUMBERS>  (1) 
APRD00793; DB05277

>  <COMMON_NAME>  (1) 
Aminolevulinic acid

>  <CAS_NUMBER>  (1) 
106-60-5

>  <UNII>  (1) 
88755TAZ87

>  <SYNONYMS>  (1) 
5-ALA; 5-Aminolevulinic acid; ácido 5-aminolevulínico; Aminolevulinic acid; dALA; δ-ALA; δ-aminolevulinic acid

$$$$
