
     RDKit          2D

 18 19  0  0  0  0  0  0  0  0999 V2000
   -1.7613   -4.5956    0.0000 C   0  0  0  0  0  0  0  0  0  0  0  0
   -1.0468   -5.0081    0.0000 C   0  0  0  0  0  0  0  0  0  0  0  0
   -0.3323   -4.5956    0.0000 N   0  0  0  0  0  0  0  0  0  0  0  0
   -0.3323   -3.7706    0.0000 C   0  0  0  0  0  0  0  0  0  0  0  0
    0.3822   -3.3581    0.0000 C   0  0  0  0  0  0  0  0  0  0  0  0
    0.3822   -5.0081    0.0000 C   0  0  0  0  0  0  0  0  0  0  0  0
    1.0966   -4.5956    0.0000 C   0  0  0  0  0  0  0  0  0  0  0  0
    1.8111   -5.0081    0.0000 C   0  0  0  0  0  0  0  0  0  0  0  0
    2.5648   -4.6725    0.0000 N   0  0  0  0  0  0  0  0  0  0  0  0
    3.1168   -5.2856    0.0000 C   0  0  0  0  0  0  0  0  0  0  0  0
    2.7043   -6.0001    0.0000 N   0  0  0  0  0  0  0  0  0  0  0  0
    1.8973   -5.8286    0.0000 O   0  0  0  0  0  0  0  0  0  0  0  0
    3.9373   -5.1994    0.0000 C   0  0  0  0  0  0  0  0  0  0  0  0
    4.2728   -4.4457    0.0000 C   0  0  0  0  0  0  0  0  0  0  0  0
    5.0933   -4.3595    0.0000 C   0  0  0  0  0  0  0  0  0  0  0  0
    5.5782   -5.0269    0.0000 C   0  0  0  0  0  0  0  0  0  0  0  0
    5.2427   -5.7806    0.0000 C   0  0  0  0  0  0  0  0  0  0  0  0
    4.4222   -5.8668    0.0000 C   0  0  0  0  0  0  0  0  0  0  0  0
  1  2  1  0
  2  3  1  0
  3  4  1  0
  3  6  1  0
  4  5  1  0
  6  7  1  0
  7  8  1  0
  8  9  2  0
  8 12  1  0
  9 10  1  0
 10 11  2  0
 10 13  1  0
 11 12  1  0
 13 14  2  0
 13 18  1  0
 14 15  1  0
 15 16  2  0
 16 17  1  0
 17 18  2  0
M  END
>  <DRUGBANK_ID>  (1) 
DB13216

>  <COMMON_NAME>  (1) 
Oxolamine

>  <CAS_NUMBER>  (1) 
959-14-8

>  <UNII>  (1) 
90BEA145GY

>  <SYNONYMS>  (1) 
Oxolamina; Oxolamine; Oxolaminum

$$$$
