
     RDKit          2D

 31 35  0  0  0  0  0  0  0  0999 V2000
    2.7948   -3.2047    0.0000 C   0  0  0  0  0  0  0  0  0  0  0  0
    2.2428   -2.5916    0.0000 O   0  0  0  0  0  0  0  0  0  0  0  0
    1.4358   -2.7631    0.0000 C   0  0  0  0  0  0  0  0  0  0  0  0
    1.1809   -3.5477    0.0000 C   0  0  0  0  0  0  0  0  0  0  0  0
    0.3739   -3.7192    0.0000 C   0  0  0  0  0  0  0  0  0  0  0  0
    0.1190   -4.5039    0.0000 F   0  0  0  0  0  0  0  0  0  0  0  0
   -0.1781   -3.1062    0.0000 C   0  0  0  0  0  0  0  0  0  0  0  0
    0.0768   -2.3215    0.0000 C   0  0  0  0  0  0  0  0  0  0  0  0
    0.8838   -2.1500    0.0000 C   0  0  0  0  0  0  0  0  0  0  0  0
    1.1387   -1.3654    0.0000 C   0  0  0  0  0  0  0  0  0  0  0  0
    0.6538   -0.6979    0.0000 C   0  0  0  0  0  0  0  0  0  0  0  0
   -0.1712   -0.6979    0.0000 C   0  0  0  0  0  0  0  0  0  0  0  0
    1.1387   -0.0305    0.0000 S   0  0  0  0  0  0  0  0  0  0  0  0
    1.9233   -0.2854    0.0000 C   0  0  0  0  0  0  0  0  0  0  0  0
    2.6378    0.1271    0.0000 C   0  0  0  0  0  0  0  0  0  0  0  0
    3.3523   -0.2854    0.0000 N   0  0  0  0  0  0  0  0  0  0  0  0
    3.3523   -1.1104    0.0000 C   0  0  0  0  0  0  0  0  0  0  0  0
    4.0668   -1.5229    0.0000 N   0  0  0  0  0  0  0  0  0  0  0  0
    4.0668   -2.3479    0.0000 C   0  0  0  0  0  0  0  0  0  0  0  0
    4.7342   -2.8329    0.0000 C   0  0  0  0  0  0  0  0  0  0  0  0
    4.4793   -3.6175    0.0000 N   0  0  0  0  0  0  0  0  0  0  0  0
    3.6543   -3.6175    0.0000 N   0  0  0  0  0  0  0  0  0  0  0  0
    3.3993   -2.8329    0.0000 C   0  0  0  0  0  0  0  0  0  0  0  0
    4.9642   -4.2849    0.0000 C   0  0  0  0  0  0  0  0  0  0  0  0
    5.7847   -4.1987    0.0000 C   0  0  0  0  0  0  0  0  0  0  0  0
    6.2696   -4.8661    0.0000 C   0  0  0  0  0  0  0  0  0  0  0  0
    5.9340   -5.6198    0.0000 N   0  0  0  0  0  0  0  0  0  0  0  0
    5.1135   -5.7060    0.0000 C   0  0  0  0  0  0  0  0  0  0  0  0
    4.6286   -5.0386    0.0000 C   0  0  0  0  0  0  0  0  0  0  0  0
    2.6378   -1.5229    0.0000 N   0  0  0  0  0  0  0  0  0  0  0  0
    1.9233   -1.1104    0.0000 C   0  0  0  0  0  0  0  0  0  0  0  0
  1  2  1  0
  2  3  1  0
  3  4  2  0
  3  9  1  0
  4  5  1  0
  5  6  1  0
  5  7  2  0
  7  8  1  0
  8  9  2  0
  9 10  1  0
 10 11  2  0
 10 31  1  0
 11 12  1  0
 11 13  1  0
 13 14  1  0
 14 15  1  0
 14 31  2  0
 15 16  2  0
 16 17  1  0
 17 18  1  0
 17 30  2  0
 18 19  1  0
 19 20  2  0
 19 23  1  0
 20 21  1  0
 21 22  1  0
 21 24  1  0
 22 23  2  0
 24 25  1  0
 24 29  1  0
 25 26  1  0
 26 27  1  0
 27 28  1  0
 28 29  1  0
 30 31  1  0
M  END
>  <DRUGBANK_ID>  (1) 
DB15191

>  <COMMON_NAME>  (1) 
MAX-40279

>  <CAS_NUMBER>  (1) 
2070931-57-4

>  <UNII>  (1) 
DL772G3NN7

>  <SYNONYMS>  (1) 
7-(4-Fluoro-2-methoxyphenyl)-6-methyl-N-(1-(piperidin-4-yl)-1H-pyrazol-4-yl) thieno (3,2-d)pyrimidin-2-amine

$$$$
