
     RDKit          2D

 33 35  0  0  1  0  0  0  0  0999 V2000
    1.4289   -4.1250    0.0000 C   0  0  0  0  0  0  0  0  0  0  0  0
    2.1434   -3.7125    0.0000 C   0  0  0  0  0  0  0  0  0  0  0  0
    2.8579   -4.1250    0.0000 C   0  0  0  0  0  0  0  0  0  0  0  0
    3.5724   -3.7125    0.0000 C   0  0  0  0  0  0  0  0  0  0  0  0
    4.2868   -4.1250    0.0000 C   0  0  0  0  0  0  0  0  0  0  0  0
    5.0013   -3.7125    0.0000 C   0  0  0  0  0  0  0  0  0  0  0  0
    5.0013   -2.8875    0.0000 O   0  0  0  0  0  0  0  0  0  0  0  0
    5.7158   -4.1250    0.0000 C   0  0  0  0  0  0  0  0  0  0  0  0
    6.4302   -3.7125    0.0000 C   0  0  0  0  0  0  0  0  0  0  0  0
    7.1447   -4.1250    0.0000 C   0  0  0  0  0  0  0  0  0  0  0  0
    7.1447   -4.9500    0.0000 C   0  0  0  0  0  0  0  0  0  0  0  0
    6.4302   -5.3625    0.0000 C   0  0  0  0  0  0  0  0  0  0  0  0
    5.7158   -4.9500    0.0000 C   0  0  0  0  0  0  0  0  0  0  0  0
    7.8592   -5.3625    0.0000 N   0  0  0  0  0  0  0  0  0  0  0  0
    8.6129   -5.0269    0.0000 C   0  0  0  0  0  0  0  0  0  0  0  0
    8.7844   -4.2200    0.0000 C   0  0  0  0  0  0  0  0  0  0  0  0
    9.5690   -3.9650    0.0000 C   0  0  0  0  0  0  0  0  0  0  0  0
   10.1821   -4.5171    0.0000 C   0  0  0  0  0  0  0  0  0  0  0  0
   10.9667   -4.2621    0.0000 C   0  0  0  0  0  0  0  0  0  0  0  0
   11.2217   -3.4775    0.0000 C   0  0  0  0  0  0  0  0  0  0  0  0
   12.0467   -3.4775    0.0000 C   0  0  0  0  0  0  0  0  0  0  0  0
   12.3016   -4.2621    0.0000 C   0  0  0  0  0  0  0  0  0  0  0  0
   11.6342   -4.7470    0.0000 S   0  0  0  0  0  0  0  0  0  0  0  0
   13.0862   -4.5171    0.0000 C   0  0  0  0  0  0  0  0  0  0  0  0
   13.2577   -5.3240    0.0000 O   0  0  0  0  0  0  0  0  0  0  0  0
   13.6993   -3.9650    0.0000 O   0  0  0  0  0  0  0  0  0  0  0  0
   14.4839   -4.2200    0.0000 C   0  0  0  0  0  0  0  0  0  0  0  0
   15.0970   -3.6679    0.0000 C   0  0  0  0  0  0  0  0  0  0  0  0
   14.6555   -5.0269    0.0000 C   0  0  0  0  0  0  0  0  0  0  0  0
    9.1649   -5.6400    0.0000 C   0  0  0  0  0  0  0  0  0  0  0  0
    8.7524   -6.3545    0.0000 C   0  0  0  0  0  0  0  0  0  0  0  0
    7.9454   -6.1830    0.0000 C   0  0  0  0  0  0  0  0  0  0  0  0
    7.3323   -6.7350    0.0000 O   0  0  0  0  0  0  0  0  0  0  0  0
  1  2  1  0
  2  3  1  0
  3  4  1  0
  4  5  1  0
  6  5  1  0
  6  7  1  6
  6  8  1  0
  8  9  2  0
  8 13  1  0
  9 10  1  0
 10 11  2  0
 11 12  1  0
 11 14  1  0
 12 13  2  0
 14 32  1  0
 15 14  1  0
 15 16  1  1
 15 30  1  0
 16 17  1  0
 17 18  1  0
 18 19  1  0
 19 20  2  0
 19 23  1  0
 20 21  1  0
 21 22  2  0
 22 23  1  0
 22 24  1  0
 24 25  2  0
 24 26  1  0
 26 27  1  0
 27 28  1  0
 27 29  1  0
 30 31  1  0
 31 32  1  0
 32 33  2  0
M  END
>  <DRUGBANK_ID>  (1) 
DB16085

>  <COMMON_NAME>  (1) 
Aganepag isopropyl

>  <CAS_NUMBER>  (1) 
910562-20-8

>  <UNII>  (1) 
R096XE6760

>  <SYNONYMS>  (1) 
Aganepag isopropyl

$$$$
