
     RDKit          2D

 17 17  0  0  1  0  0  0  0  0999 V2000
   -1.7845   -3.0737    0.0000 C   0  0  0  0  0  0  0  0  0  0  0  0
   -1.1171   -2.5888    0.0000 C   0  0  0  0  0  0  0  0  0  0  0  0
    4.0486   -0.5980    0.0000 C   0  0  0  0  0  0  0  0  0  0  0  0
    3.6361   -1.3125    0.0000 C   0  0  0  0  0  0  0  0  0  0  0  0
    4.8736   -0.5980    0.0000 C   0  0  0  0  0  0  0  0  0  0  0  0
   -0.3634   -2.9244    0.0000 C   0  0  0  0  0  0  0  0  0  0  0  0
    2.3986   -2.0269    0.0000 C   0  0  0  0  0  0  0  0  0  0  0  0
    1.0886   -2.6944    0.0000 C   0  0  0  0  0  0  0  0  0  0  0  0
    0.3040   -1.6144    0.0000 C   0  0  0  0  0  0  0  0  0  0  0  0
    2.8111   -1.3125    0.0000 C   0  0  0  0  0  0  0  0  0  0  0  0
    1.5736   -2.0269    0.0000 C   0  0  0  0  0  0  0  0  0  0  0  0
    2.3986   -0.5980    0.0000 C   0  0  0  0  0  0  0  0  0  0  0  0
    5.2861    0.1165    0.0000 N   0  0  0  0  0  0  0  0  0  0  0  0
    1.0886   -1.3595    0.0000 N   0  0  0  0  0  0  0  0  0  0  0  0
    0.3040   -2.4394    0.0000 N   0  0  0  0  0  0  0  0  0  0  0  0
    1.5736   -0.5980    0.0000 O   0  0  0  0  0  0  0  0  0  0  0  0
    2.8111    0.1165    0.0000 O   0  0  0  0  0  0  0  0  0  0  0  0
  2  1  1  0
  4  3  1  0
  5  3  1  0
  6  2  1  0
 10  4  1  1
 10  7  1  0
 10 12  1  0
 11  7  1  0
 11  8  2  0
 13  5  1  0
 14  9  2  0
 14 11  1  0
 15  6  1  0
 15  8  1  0
 15  9  1  0
 16 12  2  0
 17 12  1  0
M  END
>  <DRUGBANK_ID>  (1) 
DB12099

>  <COMMON_NAME>  (1) 
UK-396,082

>  <CAS_NUMBER>  (1) 
400044-47-5

>  <UNII>  (1) 
2Q5861SUIG

$$$$
