
     RDKit          2D

 19 20  0  0  0  0  0  0  0  0999 V2000
    1.8859   -1.7973    0.0000 C   0  0  0  0  0  0  0  0  0  0  0  0
    1.0789   -1.9688    0.0000 N   0  0  0  0  0  0  0  0  0  0  0  0
    0.5269   -1.3557    0.0000 C   0  0  0  0  0  0  0  0  0  0  0  0
    0.7818   -0.5711    0.0000 C   0  0  0  0  0  0  0  0  0  0  0  0
    1.5888   -0.3996    0.0000 C   0  0  0  0  0  0  0  0  0  0  0  0
    2.1408   -1.0127    0.0000 N   0  0  0  0  0  0  0  0  0  0  0  0
    1.6750    0.4209    0.0000 N   0  0  0  0  0  0  0  0  0  0  0  0
    0.9213    0.7564    0.0000 C   0  0  0  0  0  0  0  0  0  0  0  0
    0.3693    0.1433    0.0000 N   0  0  0  0  0  0  0  0  0  0  0  0
    2.3895    0.8334    0.0000 C   0  0  0  0  0  0  0  0  0  0  0  0
    3.1039    0.4209    0.0000 C   0  0  0  0  0  0  0  0  0  0  0  0
    3.8184    0.8334    0.0000 N   0  0  0  0  0  0  0  0  0  0  0  0
    4.5329    0.4209    0.0000 C   0  0  0  0  0  0  0  0  0  0  0  0
    5.2474    0.8334    0.0000 C   0  0  0  0  0  0  0  0  0  0  0  0
    5.9618    0.4209    0.0000 C   0  0  0  0  0  0  0  0  0  0  0  0
    6.6763    0.8334    0.0000 C   0  0  0  0  0  0  0  0  0  0  0  0
    7.3908    0.4209    0.0000 C   0  0  0  0  0  0  0  0  0  0  0  0
    8.1052    0.8334    0.0000 O   0  0  0  0  0  0  0  0  0  0  0  0
   -0.2801   -1.5273    0.0000 N   0  0  0  0  0  0  0  0  0  0  0  0
  1  2  2  0
  1  6  1  0
  2  3  1  0
  3  4  2  0
  3 19  1  0
  4  5  1  0
  4  9  1  0
  5  6  2  0
  5  7  1  0
  7  8  1  0
  7 10  1  0
  8  9  2  0
 10 11  1  0
 11 12  1  0
 12 13  1  0
 13 14  1  0
 14 15  1  0
 15 16  1  0
 16 17  1  0
 17 18  1  0
M  END
>  <DRUGBANK_ID>  (1) 
DB12716

>  <SECONDARY_ACCESSION_NUMBERS>  (1) 
DB05008

>  <COMMON_NAME>  (1) 
NB-001

>  <CAS_NUMBER>  (1) 
686301-48-4

>  <UNII>  (1) 
J89QT81NBQ

$$$$
