
     RDKit          2D

 27 30  0  0  1  0  0  0  0  0999 V2000
    5.0069    2.5204    0.0000 S   0  0  0  0  0  0  0  0  0  0  0  0
    6.8017    1.1855    0.0000 O   0  0  0  0  0  0  0  0  0  0  0  0
    2.0109    2.6416    0.0000 O   0  0  0  0  0  0  0  0  0  0  0  0
    2.8083    0.8525    0.0000 O   0  0  0  0  0  0  0  0  0  0  0  0
    4.7098   -0.2122    0.0000 O   0  0  0  0  0  0  0  0  0  0  0  0
    6.0688    0.2294    0.0000 O   0  0  0  0  0  0  0  0  0  0  0  0
    4.5842   -2.4169    0.0000 O   0  0  0  0  0  0  0  0  0  0  0  0
    3.2567   -2.2773    0.0000 O   0  0  0  0  0  0  0  0  0  0  0  0
    3.7836   -3.6499    0.0000 O   0  0  0  0  0  0  0  0  0  0  0  0
    4.2223    1.4405    0.0000 N   0  0  0  0  0  0  0  0  0  0  0  0
    4.2223    2.2655    0.0000 C   0  0  0  0  0  0  0  0  0  0  0  0
    3.3904    2.2688    0.0000 C   0  0  0  0  0  0  0  0  0  0  0  0
    3.3904    1.4371    0.0000 C   0  0  0  0  0  0  0  0  0  0  0  0
    5.4918    1.8530    0.0000 C   0  0  0  0  0  0  0  0  0  0  0  0
    5.0069    1.1855    0.0000 C   0  0  0  0  0  0  0  0  0  0  0  0
    2.8083    2.8534    0.0000 C   0  0  0  0  0  0  0  0  0  0  0  0
    6.3168    1.8530    0.0000 C   0  0  0  0  0  0  0  0  0  0  0  0
    6.8017    2.5204    0.0000 C   0  0  0  0  0  0  0  0  0  0  0  0
    7.5864    2.2655    0.0000 C   0  0  0  0  0  0  0  0  0  0  0  0
    3.0235    3.6499    0.0000 C   0  0  0  0  0  0  0  0  0  0  0  0
    7.5864    1.4405    0.0000 C   0  0  0  0  0  0  0  0  0  0  0  0
    5.2619    0.4009    0.0000 C   0  0  0  0  0  0  0  0  0  0  0  0
    4.9648   -0.9969    0.0000 C   0  0  0  0  0  0  0  0  0  0  0  0
    4.4127   -1.6099    0.0000 C   0  0  0  0  0  0  0  0  0  0  0  0
    3.5922   -1.5237    0.0000 C   0  0  0  0  0  0  0  0  0  0  0  0
    3.1797   -0.8092    0.0000 C   0  0  0  0  0  0  0  0  0  0  0  0
    3.8698   -2.8294    0.0000 C   0  0  0  0  0  0  0  0  0  0  0  0
 11  1  1  1
  1 14  1  0
  2 17  1  0
  2 21  1  0
  4 13  2  0
  5 22  1  0
  5 23  1  0
  6 22  2  0
  7 24  1  0
  7 27  1  0
  8 25  1  0
  8 27  1  0
  9 27  2  0
 10 11  1  0
 10 13  1  0
 10 15  1  0
 11 12  1  0
 12 13  1  6
 12 16  1  0
 14 15  2  0
 17 14  1  1
 15 22  1  0
 16  3  1  0
 16 20  1  6
 17 18  1  0
 18 19  1  0
 19 21  1  0
 23 24  1  0
 24 25  2  0
 25 26  1  0
M  END
>  <DRUGBANK_ID>  (1) 
DB05659

>  <COMMON_NAME>  (1) 
Faropenem medoxomil

>  <CAS_NUMBER>  (1) 
141702-36-5

>  <UNII>  (1) 
5OK523O4FU

>  <SYNONYMS>  (1) 
Faropenem daloxate; Faropenem medoxil; Faropenem medoxomil

$$$$
