
     RDKit          2D

 11 10  0  0  1  0  0  0  0  0999 V2000
    2.0625   -0.7145    0.0000 C   0  0  0  0  0  0  0  0  0  0  0  0
    1.2375   -0.7145    0.0000 C   0  0  0  0  0  0  0  0  0  0  0  0
    0.8250   -1.4289    0.0000 C   0  0  0  0  0  0  0  0  0  0  0  0
    2.4750   -1.4289    0.0000 F   0  0  0  0  0  0  0  0  0  0  0  0
   -0.0000   -1.4289    0.0000 O   0  0  0  0  0  0  0  0  0  0  0  0
    1.2375   -2.1434    0.0000 O   0  0  0  0  0  0  0  0  0  0  0  0
   -0.8250    0.0000    0.0000 O   0  0  0  0  0  0  0  0  0  0  0  0
    0.0000    0.8250    0.0000 O   0  0  0  0  0  0  0  0  0  0  0  0
    0.0000   -0.8250    0.0000 O   0  0  0  0  0  0  0  0  0  0  0  0
    0.8250    0.0000    0.0000 O   0  0  0  0  0  0  0  0  0  0  0  0
    0.0000    0.0000    0.0000 P   0  0  0  0  0  0  0  0  0  0  0  0
  2  1  1  1
  2 10  1  0
  3  2  1  0
  4  1  1  0
  5  3  2  0
  6  3  1  0
 11  7  1  0
 11  8  1  0
 11  9  2  0
 11 10  1  0
M  END
>  <DRUGBANK_ID>  (1) 
DB03113

>  <SECONDARY_ACCESSION_NUMBERS>  (1) 
EXPT01475

>  <COMMON_NAME>  (1) 
3-Fluoro-2-(Phosphonooxy)Propanoic Acid

$$$$
