
     RDKit          2D

 30 33  0  0  0  0  0  0  0  0999 V2000
   -2.5357   -0.1274    0.0000 C   0  0  0  0  0  0  0  0  0  0  0  0
   -3.2502   -0.5399    0.0000 C   0  0  0  0  0  0  0  0  0  0  0  0
   -2.5357   -1.7774    0.0000 C   0  0  0  0  0  0  0  0  0  0  0  0
   -1.1067   -1.7774    0.0000 C   0  0  0  0  0  0  0  0  0  0  0  0
   -1.8212   -0.5399    0.0000 C   0  0  0  0  0  0  0  0  0  0  0  0
   -1.1067    0.6975    0.0000 C   0  0  0  0  0  0  0  0  0  0  0  0
   -0.3923    1.1100    0.0000 C   0  0  0  0  0  0  0  0  0  0  0  0
    1.1067   -0.3823    0.0000 C   0  0  0  0  0  0  0  0  0  0  0  0
    1.5917    0.2850    0.0000 C   0  0  0  0  0  0  0  0  0  0  0  0
   -1.8212    0.2850    0.0000 C   0  0  0  0  0  0  0  0  0  0  0  0
   -1.1067   -0.1274    0.0000 C   0  0  0  0  0  0  0  0  0  0  0  0
   -0.3923   -0.5399    0.0000 C   0  0  0  0  0  0  0  0  0  0  0  0
    0.3221   -0.1274    0.0000 C   0  0  0  0  0  0  0  0  0  0  0  0
    0.3221    0.6975    0.0000 C   0  0  0  0  0  0  0  0  0  0  0  0
    0.3221    1.5225    0.0000 C   0  0  0  0  0  0  0  0  0  0  0  0
    2.5357    1.7774    0.0000 C   0  0  0  0  0  0  0  0  0  0  0  0
    1.8212    2.1900    0.0000 C   0  0  0  0  0  0  0  0  0  0  0  0
    0.3922    2.1900    0.0000 C   0  0  0  0  0  0  0  0  0  0  0  0
    1.1067    1.7774    0.0000 C   0  0  0  0  0  0  0  0  0  0  0  0
    1.1067    0.9524    0.0000 C   0  0  0  0  0  0  0  0  0  0  0  0
   -3.2502   -1.3650    0.0000 C   0  0  0  0  0  0  0  0  0  0  0  0
   -3.9646   -1.7774    0.0000 O   0  0  0  0  0  0  0  0  0  0  0  0
   -0.3923   -1.3650    0.0000 C   0  0  0  0  0  0  0  0  0  0  0  0
    0.3221   -1.7774    0.0000 O   0  0  0  0  0  0  0  0  0  0  0  0
   -1.8212   -1.3650    0.0000 C   0  0  0  0  0  0  0  0  0  0  0  0
    3.2501    2.1900    0.0000 C   0  0  0  0  0  0  0  0  0  0  0  0
    3.2501    3.0149    0.0000 O   0  0  0  0  0  0  0  0  0  0  0  0
    3.9646    1.7774    0.0000 O   0  0  0  0  0  0  0  0  0  0  0  0
   -1.1066   -2.6024    0.0000 C   0  0  0  0  0  0  0  0  0  0  0  0
   -0.3922   -3.0149    0.0000 C   0  0  0  0  0  0  0  0  0  0  0  0
  2  1  1  0
  4 23  1  0
  4 29  1  6
  5 11  1  0
  5 10  1  1
  5  1  1  0
  6  7  1  0
  9  8  1  0
 11  6  1  1
 11 12  1  0
 12 13  1  0
 12 23  1  6
 13 14  1  0
 13  8  1  1
 14 20  1  0
 14  7  1  0
 14 15  1  1
 16 17  1  0
 16 26  1  0
 19 17  1  0
 19 18  1  6
 20  9  1  1
 20 19  1  0
 21  3  1  0
 21  2  1  0
 21 22  1  6
 23 24  1  6
 25  5  1  0
 25  3  1  6
 25  4  1  0
 26 28  1  0
 26 27  2  0
 29 30  1  0
M  END
>  <DRUGBANK_ID>  (1) 
DB05990

>  <COMMON_NAME>  (1) 
Obeticholic acid

>  <CAS_NUMBER>  (1) 
459789-99-2

>  <UNII>  (1) 
0462Z4S4OZ

>  <SYNONYMS>  (1) 
(3α,5β,6α,7α)-6-ethyl-3,7-dihydroxycholan-24-oic acid; 6-alpha-ethylchenodeoxycholic acid; 6-ECDCA; 6-Ethyl-CDCA; 6-ethylchenodeoxycholic acid; 6alpha-Ethyl-chenodeoxycholic acid; 6α-ethylchenodeoxycholic acid; Obeticholic acid

$$$$
