
     RDKit          2D

 13 10  0  0  0  0  0  0  0  0999 V2000
   -0.2712    2.2015    0.0000 Mg  0  0  0  0  0 15  0  0  0  0  0  0
    0.3846    1.0575    0.0000 O   0  0  0  0  0  0  0  0  0  0  0  0
    0.3846    0.2900    0.0000 C   0  0  0  0  0  0  0  0  0  0  0  0
    1.0007   -0.2587    0.0000 C   0  0  0  0  0  0  0  0  0  0  0  0
    0.7916   -1.0575    0.0000 O   0  0  0  0  0  0  0  0  0  0  0  0
    1.7872    0.0002    0.0000 O   0  0  0  0  0  0  0  0  0  0  0  0
   -0.2790   -0.0959    0.0000 C   0  0  0  0  0  0  0  0  0  0  0  0
    1.9837    3.1134    0.0000 O   0  0  0  0  0  0  0  0  0  0  0  0
    1.9837    2.3459    0.0000 C   0  0  0  0  0  0  0  0  0  0  0  0
    2.5997    1.7971    0.0000 C   0  0  0  0  0  0  0  0  0  0  0  0
    2.3907    0.9983    0.0000 O   0  0  0  0  0  0  0  0  0  0  0  0
    3.3862    2.0561    0.0000 O   0  0  0  0  0  0  0  0  0  0  0  0
    1.3199    1.9599    0.0000 C   0  0  0  0  0  0  0  0  0  0  0  0
  3  2  1  0
  4  3  1  0
  4  5  1  0
  4  6  2  0
  7  3  1  0
  9  8  1  0
 10  9  1  0
 10 11  1  0
 10 12  2  0
 13  9  1  0
M  CHG  3   1   2   5  -1  11  -1
M  END
>  <DRUGBANK_ID>  (1) 
DB14515

>  <SECONDARY_ACCESSION_NUMBERS>  (1) 
DBSALT002535

>  <COMMON_NAME>  (1) 
Magnesium lactate

>  <CAS_NUMBER>  (1) 
18917-93-6

>  <UNII>  (1) 
MT6QI8324A

>  <SYNONYMS>  (1) 
Magnesium DL-lactate; Magnesium lactate anhydrous; Magnesium lactate, anhydrous

$$$$
