OA4
     RDKit          2D

 19 21  0  0  0  0  0  0  0  0999 V2000
   -1.0523   -1.1651    0.0000 C   0  0  0  0  0  0  0  0  0  0  0  0
   -1.0523   -0.3401    0.0000 C   0  0  0  0  0  0  0  0  0  0  0  0
   -1.7668    0.0724    0.0000 C   0  0  0  0  0  0  0  0  0  0  0  0
   -2.4813   -0.3401    0.0000 N   0  0  0  0  0  0  0  0  0  0  0  0
   -2.4813   -1.1651    0.0000 C   0  0  0  0  0  0  0  0  0  0  0  0
   -1.7668   -1.5776    0.0000 N   0  0  0  0  0  0  0  0  0  0  0  0
   -1.7668    0.8974    0.0000 N   0  0  0  0  0  0  0  0  0  0  0  0
   -0.3378   -1.5776    0.0000 C   0  0  0  0  0  0  0  0  0  0  0  0
    0.3766   -1.1651    0.0000 C   0  0  0  0  0  0  0  0  0  0  0  0
    0.3766   -0.3401    0.0000 C   0  0  0  0  0  0  0  0  0  0  0  0
   -0.3378    0.0724    0.0000 C   0  0  0  0  0  0  0  0  0  0  0  0
   -3.1957   -1.5776    0.0000 N   0  0  0  0  0  0  0  0  0  0  0  0
    1.8056    1.3099    0.0000 C   0  0  0  0  0  0  0  0  0  0  0  0
    2.5200    0.8974    0.0000 C   0  0  0  0  0  0  0  0  0  0  0  0
   -0.3378    0.8974    0.0000 C   0  0  0  0  0  0  0  0  0  0  0  0
    2.5200    0.0724    0.0000 C   0  0  0  0  0  0  0  0  0  0  0  0
    1.8056   -0.3401    0.0000 C   0  0  0  0  0  0  0  0  0  0  0  0
    1.0911    0.0724    0.0000 C   0  0  0  0  0  0  0  0  0  0  0  0
    1.0911    0.8974    0.0000 C   0  0  0  0  0  0  0  0  0  0  0  0
  1  2  1  0
  1  6  2  0
  1  8  1  0
  2  3  2  0
  2 11  1  0
  3  4  1  0
  3  7  1  0
  4  5  2  0
  5  6  1  0
  5 12  1  0
  8  9  2  0
  9 10  1  0
 10 11  2  0
 10 18  1  0
 11 15  1  0
 13 14  2  0
 13 19  1  0
 14 16  1  0
 16 17  2  0
 17 18  1  0
 18 19  2  0
M  END
>  <DRUGBANK_ID>  (1) 
DB08317

>  <COMMON_NAME>  (1) 
5-methyl-6-phenylquinazoline-2,4-diamine

$$$$
