
     RDKit          2D

 12 12  0  0  0  0  0  0  0  0999 V2000
   20.6008  -15.3723    0.0000 O   0  0  0  0  0  0  0  0  0  0  0  0
   21.3153  -19.0848    0.0000 O   0  0  0  0  0  0  0  0  0  0  0  0
   22.0298  -14.5473    0.0000 N   0  0  0  0  0  0  0  0  0  0  0  0
   21.3153  -15.7848    0.0000 C   0  0  0  0  0  0  0  0  0  0  0  0
   22.0298  -15.3723    0.0000 C   0  0  0  0  0  0  0  0  0  0  0  0
   22.7443  -14.1348    0.0000 C   0  0  0  0  0  0  0  0  0  0  0  0
   21.3153  -18.2598    0.0000 C   0  0  0  0  0  0  0  0  0  0  0  0
   21.3153  -16.6098    0.0000 C   0  0  0  0  0  0  0  0  0  0  0  0
   20.6008  -17.8473    0.0000 C   0  0  0  0  0  0  0  0  0  0  0  0
   22.0298  -17.8473    0.0000 C   0  0  0  0  0  0  0  0  0  0  0  0
   20.6008  -17.0223    0.0000 C   0  0  0  0  0  0  0  0  0  0  0  0
   22.0298  -17.0223    0.0000 C   0  0  0  0  0  0  0  0  0  0  0  0
  1  4  1  0
  2  7  1  0
  3  5  1  0
  3  6  1  0
  4  5  1  0
  4  8  1  0
  7  9  2  0
  7 10  1  0
  8 11  2  0
  8 12  1  0
  9 11  1  0
 10 12  2  0
M  END
>  <DRUGBANK_ID>  (1) 
DB09203

>  <COMMON_NAME>  (1) 
Synephrine

>  <CAS_NUMBER>  (1) 
94-07-5

>  <UNII>  (1) 
PEG5DP7434

>  <SYNONYMS>  (1) 
(Â±)-Synephrine; Oxedrine; p-synephrine

$$$$
