
     RDKit          2D

 23 23  0  0  0  0  0  0  0  0999 V2000
   -2.0373    3.0512    0.0000 C   0  0  0  0  0  0  0  0  0  0  0  0
   -1.3228    2.6387    0.0000 C   0  0  0  0  0  0  0  0  0  0  0  0
   -1.3228    1.8137    0.0000 N   0  0  0  0  0  0  0  0  0  0  0  0
   -2.1478    1.8137    0.0000 C   0  0  0  0  0  0  0  0  0  0  0  0
   -0.4978    1.8137    0.0000 C   0  0  0  0  0  0  0  0  0  0  0  0
   -0.0853    1.0993    0.0000 C   0  0  0  0  0  0  0  0  0  0  0  0
   -1.3228    0.9887    0.0000 C   0  0  0  0  0  0  0  0  0  0  0  0
   -0.6083    0.5762    0.0000 C   0  0  0  0  0  0  0  0  0  0  0  0
   -0.6083   -0.2488    0.0000 O   0  0  0  0  0  0  0  0  0  0  0  0
    0.1061   -0.6613    0.0000 C   0  0  0  0  0  0  0  0  0  0  0  0
    0.1061   -1.4863    0.0000 C   0  0  0  0  0  0  0  0  0  0  0  0
    0.8206   -1.8988    0.0000 C   0  0  0  0  0  0  0  0  0  0  0  0
    0.8206   -2.7238    0.0000 C   0  0  0  0  0  0  0  0  0  0  0  0
    0.1061   -3.1363    0.0000 C   0  0  0  0  0  0  0  0  0  0  0  0
   -0.6083   -2.7238    0.0000 C   0  0  0  0  0  0  0  0  0  0  0  0
   -0.6083   -1.8988    0.0000 C   0  0  0  0  0  0  0  0  0  0  0  0
    0.8206   -0.2488    0.0000 C   0  0  0  0  0  0  0  0  0  0  0  0
    0.8206    0.5762    0.0000 C   0  0  0  0  0  0  0  0  0  0  0  0
    1.5351    0.9887    0.0000 C   0  0  0  0  0  0  0  0  0  0  0  0
    2.2495    0.5762    0.0000 C   0  0  0  0  0  0  0  0  0  0  0  0
    2.2495   -0.2488    0.0000 C   0  0  0  0  0  0  0  0  0  0  0  0
    1.5351   -0.6613    0.0000 C   0  0  0  0  0  0  0  0  0  0  0  0
    4.4888    0.0000    0.0000 I   0  0  0  0  0  0  0  0  0  0  0  0
  1  2  1  0
  2  3  1  0
  3  4  1  0
  3  5  1  0
  3  7  1  0
  5  6  1  0
  7  8  1  0
  8  9  1  0
  9 10  1  0
 10 11  1  0
 10 17  1  0
 11 12  2  0
 11 16  1  0
 12 13  1  0
 13 14  2  0
 14 15  1  0
 15 16  2  0
 17 18  2  0
 17 22  1  0
 18 19  1  0
 19 20  2  0
 20 21  1  0
 21 22  2  0
M  CHG  2   3   1  23  -1
M  END
>  <DRUGBANK_ID>  (1) 
DB13769

>  <COMMON_NAME>  (1) 
Emetonium iodide

>  <CAS_NUMBER>  (1) 
5982-52-5

>  <UNII>  (1) 
CW3OT0Y51W

>  <SYNONYMS>  (1) 
(2-benzhydryloxyethyl)diethyl-methylammonium iodide; Ethylbenzhydramine methyl iodide

$$$$
