HEF
     RDKit          2D

 21 22  0  0  0  0  0  0  0  0999 V2000
    0.2806   -0.6902    0.0000 N   0  0  0  0  0  0  0  0  0  0  0  0
    0.2806   -1.5152    0.0000 C   0  0  0  0  0  0  0  0  0  0  0  0
    0.9951   -1.9277    0.0000 O   0  0  0  0  0  0  0  0  0  0  0  0
   -0.4339   -1.9277    0.0000 N   0  0  0  0  0  0  0  0  0  0  0  0
   -1.1483   -1.5152    0.0000 C   0  0  0  0  0  0  0  0  0  0  0  0
   -1.8628   -1.9277    0.0000 O   0  0  0  0  0  0  0  0  0  0  0  0
   -1.1483   -0.6902    0.0000 C   0  0  0  0  0  0  0  0  0  0  0  0
   -0.4339   -0.2777    0.0000 C   0  0  0  0  0  0  0  0  0  0  0  0
   -1.8628   -0.2777    0.0000 C   0  0  0  0  0  0  0  0  0  0  0  0
    0.9951   -0.2777    0.0000 C   0  0  0  0  0  0  0  0  0  0  0  0
    1.7095   -0.6902    0.0000 O   0  0  0  0  0  0  0  0  0  0  0  0
    2.4240   -0.2777    0.0000 C   0  0  0  0  0  0  0  0  0  0  0  0
    3.1385   -0.6902    0.0000 C   0  0  0  0  0  0  0  0  0  0  0  0
    3.8530   -0.2777    0.0000 O   0  0  0  0  0  0  0  0  0  0  0  0
   -0.4339    0.5473    0.0000 S   0  0  0  0  0  0  0  0  0  0  0  0
   -1.1483    0.9598    0.0000 C   0  0  0  0  0  0  0  0  0  0  0  0
   -1.8628    0.5473    0.0000 C   0  0  0  0  0  0  0  0  0  0  0  0
   -2.5773    0.9598    0.0000 C   0  0  0  0  0  0  0  0  0  0  0  0
   -2.5773    1.7848    0.0000 C   0  0  0  0  0  0  0  0  0  0  0  0
   -1.8628    2.1973    0.0000 C   0  0  0  0  0  0  0  0  0  0  0  0
   -1.1483    1.7848    0.0000 C   0  0  0  0  0  0  0  0  0  0  0  0
  1  2  1  0
  1  8  1  0
  1 10  1  0
  2  3  2  0
  2  4  1  0
  4  5  1  0
  5  6  2  0
  5  7  1  0
  7  8  2  0
  7  9  1  0
  8 15  1  0
 10 11  1  0
 11 12  1  0
 12 13  1  0
 13 14  1  0
 15 16  1  0
 16 17  2  0
 16 21  1  0
 17 18  1  0
 18 19  2  0
 19 20  1  0
 20 21  2  0
M  END
>  <DRUGBANK_ID>  (1) 
DB07892

>  <COMMON_NAME>  (1) 
1-(2-HYDROXYETHYLOXYMETHYL)-6-PHENYL THIOTHYMINE

$$$$
