
     RDKit          2D

 37 41  0  0  0  0  0  0  0  0999 V2000
   -4.5177   -0.0847    0.0000 C   0  0  0  0  0  0  0  0  0  0  0  0
   -3.8031    0.3275    0.0000 C   0  0  0  0  0  0  0  0  0  0  0  0
   -3.0911   -0.0843    0.0000 C   0  0  0  0  0  0  0  0  0  0  0  0
   -3.0911   -0.9096    0.0000 C   0  0  0  0  0  0  0  0  0  0  0  0
   -3.8013   -1.3214    0.0000 C   0  0  0  0  0  0  0  0  0  0  0  0
   -4.5177   -0.9133    0.0000 C   0  0  0  0  0  0  0  0  0  0  0  0
   -3.6313    1.1319    0.0000 N   0  0  0  0  0  0  0  0  0  0  0  0
   -2.4794    0.4655    0.0000 C   0  0  0  0  0  0  0  0  0  0  0  0
   -2.8132    1.2171    0.0000 N   0  0  0  0  0  0  0  0  0  0  0  0
   -1.6543    0.4655    0.0000 C   0  0  0  0  0  0  0  0  0  0  0  0
   -1.2418   -0.2490    0.0000 C   0  0  0  0  0  0  0  0  0  0  0  0
   -0.4168   -0.2490    0.0000 C   0  0  0  0  0  0  0  0  0  0  0  0
   -0.0040    0.4654    0.0000 C   0  0  0  0  0  0  0  0  0  0  0  0
    0.8185    0.4646    0.0000 C   0  0  0  0  0  0  0  0  0  0  0  0
    1.2310   -0.2500    0.0000 C   0  0  0  0  0  0  0  0  0  0  0  0
    0.8220   -0.9618    0.0000 C   0  0  0  0  0  0  0  0  0  0  0  0
   -0.0024   -0.9665    0.0000 C   0  0  0  0  0  0  0  0  0  0  0  0
   -0.4150   -1.6811    0.0000 N   0  0  0  0  0  0  0  0  0  0  0  0
   -1.2401   -1.6811    0.0000 C   0  0  0  0  0  0  0  0  0  0  0  0
   -1.6525   -2.3956    0.0000 C   0  0  0  0  0  0  0  0  0  0  0  0
   -2.4726   -2.4818    0.0000 S   0  0  0  0  0  0  0  0  0  0  0  0
   -2.6441   -3.2884    0.0000 C   0  0  0  0  0  0  0  0  0  0  0  0
   -1.9299   -3.7007    0.0000 C   0  0  0  0  0  0  0  0  0  0  0  0
   -1.3172   -3.1489    0.0000 C   0  0  0  0  0  0  0  0  0  0  0  0
   -0.5202   -3.3625    0.0000 C   0  0  0  0  0  0  0  0  0  0  0  0
    2.0561   -0.2500    0.0000 C   0  0  0  0  0  0  0  0  0  0  0  0
    2.4687    0.4644    0.0000 N   0  0  0  0  0  0  0  0  0  0  0  0
    2.0561    1.1788    0.0000 C   0  0  0  0  0  0  0  0  0  0  0  0
    2.4687    1.8933    0.0000 C   0  0  0  0  0  0  0  0  0  0  0  0
    3.2937    1.8933    0.0000 N   0  0  0  0  0  0  0  0  0  0  0  0
    3.7062    1.1788    0.0000 C   0  0  0  0  0  0  0  0  0  0  0  0
    3.2937    0.4644    0.0000 C   0  0  0  0  0  0  0  0  0  0  0  0
    3.5073    2.6902    0.0000 C   0  0  0  0  0  0  0  0  0  0  0  0
    4.3041    2.9039    0.0000 C   0  0  0  0  0  0  0  0  0  0  0  0
    4.5177    3.7007    0.0000 O   0  0  0  0  0  0  0  0  0  0  0  0
    2.9239    3.2737    0.0000 O   0  0  0  0  0  0  0  0  0  0  0  0
   -1.6525   -0.9665    0.0000 O   0  0  0  0  0  0  0  0  0  0  0  0
  1  6  2  0
  2  1  1  0
  2  7  1  0
  3  2  2  0
  3  8  1  0
  4  3  1  0
  5  4  2  0
  6  5  1  0
  8  9  2  0
  8 10  1  0
  9  7  1  0
 10 11  2  0
 11 12  1  0
 12 17  1  0
 13 12  2  0
 14 13  1  0
 15 14  2  0
 15 26  1  0
 16 15  1  0
 17 16  2  0
 17 18  1  0
 18 19  1  0
 19 20  1  0
 19 37  2  0
 21 20  1  0
 21 22  1  0
 22 23  2  0
 23 24  1  0
 24 20  2  0
 24 25  1  0
 26 27  1  0
 27 32  1  0
 28 27  1  0
 29 28  1  0
 30 29  1  0
 30 33  1  0
 31 30  1  0
 32 31  1  0
 33 34  1  0
 33 36  2  0
 34 35  1  0
M  END
>  <DRUGBANK_ID>  (1) 
DB16637

>  <COMMON_NAME>  (1) 
KW-2450 free base

>  <CAS_NUMBER>  (1) 
904899-25-8

>  <UNII>  (1) 
RS6V91I0HT

$$$$
