
     RDKit          2D

 21 23  0  0  1  0  0  0  0  0999 V2000
    6.0770    1.1270    0.0000 C   0  0  0  0  0  0  0  0  0  0  0  0
    5.2520    1.1270    0.0000 C   0  0  0  0  0  0  0  0  0  0  0  0
    4.8395    0.4125    0.0000 C   0  0  0  0  0  0  0  0  0  0  0  0
    4.0145    0.4125    0.0000 C   0  0  0  0  0  0  0  0  0  0  0  0
    3.6020   -0.3020    0.0000 C   0  0  0  0  0  0  0  0  0  0  0  0
    2.7770   -0.3020    0.0000 C   0  0  0  0  0  0  0  0  0  0  0  0
    2.3645    0.4125    0.0000 C   0  0  0  0  0  0  0  0  0  0  0  0
    2.7770    1.1270    0.0000 C   0  0  0  0  0  0  0  0  0  0  0  0
    3.6020    1.1270    0.0000 C   0  0  0  0  0  0  0  0  0  0  0  0
    2.3645    1.8414    0.0000 O   0  0  0  0  0  0  0  0  0  0  0  0
    1.5395    1.8414    0.0000 C   0  0  0  0  0  0  0  0  0  0  0  0
    1.1270    1.1270    0.0000 C   0  0  0  0  0  0  0  0  0  0  0  0
    1.5395    0.4125    0.0000 C   0  0  0  0  0  0  0  0  0  0  0  0
    1.1270   -0.3020    0.0000 C   0  0  0  0  0  0  0  0  0  0  0  0
    0.3020   -0.3020    0.0000 C   0  0  0  0  0  0  0  0  0  0  0  0
   -0.1105    0.4125    0.0000 C   0  0  0  0  0  0  0  0  0  0  0  0
    0.3020    1.1270    0.0000 C   0  0  0  0  0  0  0  0  0  0  0  0
   -0.1105   -1.0164    0.0000 C   0  0  0  0  0  0  0  0  0  0  0  0
    1.5107    2.6659    0.0000 C   0  0  0  0  0  0  0  0  0  0  0  0
    0.8398    2.2786    0.0000 C   0  0  0  0  0  0  0  0  0  0  0  0
    2.3645   -1.0164    0.0000 O   0  0  0  0  0  0  0  0  0  0  0  0
  1  2  1  0
  2  3  1  0
  3  4  1  0
  4  5  2  0
  4  9  1  0
  5  6  1  0
  6  7  2  0
  6 21  1  0
  7  8  1  0
  8  9  2  0
  8 10  1  0
 10 11  1  0
 11 12  1  0
 11 19  1  0
 11 20  1  0
 12 13  1  0
 12 17  1  1
 13  7  1  0
 13 14  1  6
 14 15  2  0
 15 16  1  0
 15 18  1  0
 16 17  1  0
M  END
>  <DRUGBANK_ID>  (1) 
DB11755

>  <COMMON_NAME>  (1) 
Tetrahydrocannabivarin

>  <CAS_NUMBER>  (1) 
31262-37-0

>  <UNII>  (1) 
I5YE3I47D8

>  <SYNONYMS>  (1) 
THCV

$$$$
