
     RDKit          2D

 37 40  0  0  0  0  0  0  0  0999 V2000
    0.1162    3.0085    0.0000 C   0  0  0  0  0  0  0  0  0  0  0  0
    0.6683    3.6216    0.0000 O   0  0  0  0  0  0  0  0  0  0  0  0
    1.4752    3.4501    0.0000 C   0  0  0  0  0  0  0  0  0  0  0  0
    2.0273    4.0632    0.0000 C   0  0  0  0  0  0  0  0  0  0  0  0
    2.8343    3.8916    0.0000 C   0  0  0  0  0  0  0  0  0  0  0  0
    3.3863    4.5047    0.0000 C   0  0  0  0  0  0  0  0  0  0  0  0
    3.0892    3.1070    0.0000 N   0  0  0  0  0  0  0  0  0  0  0  0
    2.5372    2.4939    0.0000 C   0  0  0  0  0  0  0  0  0  0  0  0
    2.7921    1.7093    0.0000 O   0  0  0  0  0  0  0  0  0  0  0  0
    1.7302    2.6655    0.0000 C   0  0  0  0  0  0  0  0  0  0  0  0
    1.1782    2.0524    0.0000 C   0  0  0  0  0  0  0  0  0  0  0  0
    1.4331    1.2677    0.0000 N   0  0  0  0  0  0  0  0  0  0  0  0
    0.8811    0.6546    0.0000 C   0  0  0  0  0  0  0  0  0  0  0  0
    0.0741    0.8262    0.0000 O   0  0  0  0  0  0  0  0  0  0  0  0
    1.1360   -0.1299    0.0000 C   0  0  0  0  0  0  0  0  0  0  0  0
    0.6511   -0.7973    0.0000 C   0  0  0  0  0  0  0  0  0  0  0  0
   -0.1738   -0.7973    0.0000 C   0  0  0  0  0  0  0  0  0  0  0  0
    1.1360   -1.4648    0.0000 N   0  0  0  0  0  0  0  0  0  0  0  0
    1.9206   -1.2098    0.0000 C   0  0  0  0  0  0  0  0  0  0  0  0
    1.9206   -0.3848    0.0000 C   0  0  0  0  0  0  0  0  0  0  0  0
    2.6351    0.0276    0.0000 C   0  0  0  0  0  0  0  0  0  0  0  0
    3.3496   -0.3848    0.0000 C   0  0  0  0  0  0  0  0  0  0  0  0
    3.3496   -1.2098    0.0000 C   0  0  0  0  0  0  0  0  0  0  0  0
    2.6351   -1.6223    0.0000 C   0  0  0  0  0  0  0  0  0  0  0  0
    0.8811   -2.2494    0.0000 C   0  0  0  0  0  0  0  0  0  0  0  0
    0.0741   -2.4209    0.0000 C   0  0  0  0  0  0  0  0  0  0  0  0
   -0.1807   -3.2055    0.0000 C   0  0  0  0  0  0  0  0  0  0  0  0
   -0.9877   -3.3771    0.0000 C   0  0  0  0  0  0  0  0  0  0  0  0
   -1.5398   -2.7640    0.0000 N   0  0  0  0  0  0  0  0  0  0  0  0
   -1.2848   -1.9793    0.0000 C   0  0  0  0  0  0  0  0  0  0  0  0
   -0.4778   -1.8078    0.0000 C   0  0  0  0  0  0  0  0  0  0  0  0
   -2.3467   -2.9355    0.0000 C   0  0  0  0  0  0  0  0  0  0  0  0
   -2.6017   -3.7201    0.0000 C   0  0  0  0  0  0  0  0  0  0  0  0
   -2.8566   -4.5047    0.0000 F   0  0  0  0  0  0  0  0  0  0  0  0
   -3.3863   -3.4652    0.0000 F   0  0  0  0  0  0  0  0  0  0  0  0
   -1.8170   -3.9751    0.0000 F   0  0  0  0  0  0  0  0  0  0  0  0
    1.4331   -2.8625    0.0000 C   0  0  0  0  0  0  0  0  0  0  0  0
  1  2  1  0
  2  3  1  0
  3  4  1  0
  3 10  2  0
  4  5  2  0
  5  6  1  0
  5  7  1  0
  7  8  1  0
  8  9  2  0
  8 10  1  0
 10 11  1  0
 11 12  1  0
 12 13  1  0
 13 14  2  0
 13 15  1  0
 15 16  2  0
 15 20  1  0
 16 17  1  0
 16 18  1  0
 18 19  1  0
 19 20  2  0
 19 24  1  0
 20 21  1  0
 21 22  2  0
 22 23  1  0
 23 24  2  0
 25 18  1  0
 25 26  1  0
 25 37  1  6
 26 27  1  0
 26 31  1  0
 27 28  1  0
 28 29  1  0
 29 30  1  0
 29 32  1  0
 30 31  1  0
 32 33  1  0
 33 34  1  0
 33 35  1  0
 33 36  1  0
M  END
>  <DRUGBANK_ID>  (1) 
DB14581

>  <COMMON_NAME>  (1) 
CPI-1205

>  <CAS_NUMBER>  (1) 
1621862-70-1

>  <UNII>  (1) 
455J2479FY

$$$$
