
     RDKit          2D

 21 23  0  0  0  0  0  0  0  0999 V2000
   -2.3806    0.6027    0.0000 C   0  0  0  0  0  0  0  0  0  0  0  0
   -3.0481    1.0876    0.0000 C   0  0  0  0  0  0  0  0  0  0  0  0
   -1.6661   -0.6348    0.0000 C   0  0  0  0  0  0  0  0  0  0  0  0
   -2.3806   -0.2222    0.0000 C   0  0  0  0  0  0  0  0  0  0  0  0
   -1.6661   -1.4598    0.0000 C   0  0  0  0  0  0  0  0  0  0  0  0
   -0.9516   -0.2222    0.0000 C   0  0  0  0  0  0  0  0  0  0  0  0
   -0.2371   -0.6348    0.0000 C   0  0  0  0  0  0  0  0  0  0  0  0
   -0.2371   -1.4598    0.0000 C   0  0  0  0  0  0  0  0  0  0  0  0
   -0.9516   -1.8723    0.0000 C   0  0  0  0  0  0  0  0  0  0  0  0
    0.5474   -0.3799    0.0000 N   0  0  0  0  0  0  0  0  0  0  0  0
    1.0325   -1.0473    0.0000 C   0  0  0  0  0  0  0  0  0  0  0  0
    0.5474   -1.7147    0.0000 N   0  0  0  0  0  0  0  0  0  0  0  0
   -3.0951   -0.6348    0.0000 O   0  0  0  0  0  0  0  0  0  0  0  0
   -1.7132    1.0877    0.0000 S   0  0  0  0  0  0  0  0  0  0  0  0
   -1.9682    1.8723    0.0000 C   0  0  0  0  0  0  0  0  0  0  0  0
   -2.7932    1.8722    0.0000 C   0  0  0  0  0  0  0  0  0  0  0  0
    1.8575   -1.0473    0.0000 N   0  0  0  0  0  0  0  0  0  0  0  0
    2.2700   -0.3327    0.0000 C   0  0  0  0  0  0  0  0  0  0  0  0
    3.0951   -0.3327    0.0000 O   0  0  0  0  0  0  0  0  0  0  0  0
    1.8575    0.3816    0.0000 O   0  0  0  0  0  0  0  0  0  0  0  0
    2.2700    1.0961    0.0000 C   0  0  0  0  0  0  0  0  0  0  0  0
  1 14  1  0
  1  2  2  0
  3  6  1  0
  3  4  1  0
  4  1  1  0
  4 13  2  0
  5  3  2  0
  5  9  1  0
  6  7  2  0
  7  8  1  0
  7 10  1  0
  8  9  2  0
  8 12  1  0
 10 11  2  0
 11 12  1  0
 11 17  1  0
 14 15  1  0
 15 16  2  0
 16  2  1  0
 17 18  1  0
 18 19  2  0
 18 20  1  0
 20 21  1  0
M  END
>  <DRUGBANK_ID>  (1) 
DB08313

>  <COMMON_NAME>  (1) 
Nocodazole

>  <CAS_NUMBER>  (1) 
31430-18-9

>  <UNII>  (1) 
SH1WY3R615

>  <SYNONYMS>  (1) 
Nocodazol; Nocodazole; Nocodazolum; Oncodazole

$$$$
