RF1
     RDKit          2D

 23 25  0  0  0  0  0  0  0  0999 V2000
   -0.8433    3.7533    0.0000 C   0  0  0  0  0  0  0  0  0  0  0  0
   -0.8433    2.9283    0.0000 C   0  0  0  0  0  0  0  0  0  0  0  0
   -1.6683    2.9283    0.0000 C   0  0  0  0  0  0  0  0  0  0  0  0
   -0.0183    2.9283    0.0000 C   0  0  0  0  0  0  0  0  0  0  0  0
   -0.8433    2.1033    0.0000 O   0  0  0  0  0  0  0  0  0  0  0  0
   -0.1288    1.6908    0.0000 C   0  0  0  0  0  0  0  0  0  0  0  0
    0.5857    2.1033    0.0000 O   0  0  0  0  0  0  0  0  0  0  0  0
   -0.1288    0.8658    0.0000 N   0  0  0  0  0  0  0  0  0  0  0  0
    0.5857    0.4533    0.0000 C   0  0  0  0  0  0  0  0  0  0  0  0
    0.5857   -0.3717    0.0000 C   0  0  0  0  0  0  0  0  0  0  0  0
   -0.8433    0.4533    0.0000 C   0  0  0  0  0  0  0  0  0  0  0  0
   -0.8433   -0.3717    0.0000 C   0  0  0  0  0  0  0  0  0  0  0  0
   -0.1288   -0.7842    0.0000 C   0  0  0  0  0  0  0  0  0  0  0  0
   -0.1288   -1.6092    0.0000 C   0  0  0  0  0  0  0  0  0  0  0  0
   -0.7962   -2.0941    0.0000 N   0  0  0  0  0  0  0  0  0  0  0  0
    0.5387   -2.0941    0.0000 O   0  0  0  0  0  0  0  0  0  0  0  0
    0.2837   -2.8787    0.0000 N   0  0  0  0  0  0  0  0  0  0  0  0
   -0.5413   -2.8787    0.0000 C   0  0  0  0  0  0  0  0  0  0  0  0
   -1.0262   -3.5461    0.0000 C   0  0  0  0  0  0  0  0  0  0  0  0
   -1.8512   -3.5461    0.0000 C   0  0  0  0  0  0  0  0  0  0  0  0
   -2.1061   -4.3308    0.0000 C   0  0  0  0  0  0  0  0  0  0  0  0
   -1.4387   -4.8157    0.0000 C   0  0  0  0  0  0  0  0  0  0  0  0
   -0.7713   -4.3308    0.0000 S   0  0  0  0  0  0  0  0  0  0  0  0
  2  1  1  0
  2  3  1  0
  4  2  1  0
  5  2  1  0
  6  5  1  0
  6  8  1  0
  7  6  2  0
  8  9  1  0
 10  9  1  0
 11  8  1  0
 12 11  1  0
 12 13  1  0
 13 10  1  0
 14 13  1  0
 14 16  1  0
 15 14  2  0
 15 18  1  0
 17 16  1  0
 18 17  2  0
 19 18  1  0
 19 23  1  0
 20 19  2  0
 21 20  1  0
 21 22  2  0
 22 23  1  0
M  END
>  <DRUGBANK_ID>  (1) 
DB08469

>  <COMMON_NAME>  (1) 
tert-butyl 4-(3-thiophen-2-yl-1,2,4-oxadiazol-5-yl)piperidine-1-carboxylate

$$$$
