DMB
     RDKit          2D

 20 21  0  0  0  0  0  0  0  0999 V2000
    0.2807   -1.6151    0.0000 C   0  0  0  0  0  0  0  0  0  0  0  0
    0.9952   -2.0276    0.0000 C   0  0  0  0  0  0  0  0  0  0  0  0
    0.9952   -2.8526    0.0000 C   0  0  0  0  0  0  0  0  0  0  0  0
    0.2807   -3.2651    0.0000 C   0  0  0  0  0  0  0  0  0  0  0  0
   -0.4337   -2.8526    0.0000 C   0  0  0  0  0  0  0  0  0  0  0  0
   -0.4337   -2.0276    0.0000 C   0  0  0  0  0  0  0  0  0  0  0  0
   -0.4337    0.4474    0.0000 C   0  0  0  0  0  0  0  0  0  0  0  0
   -1.1482    0.8599    0.0000 C   0  0  0  0  0  0  0  0  0  0  0  0
   -1.1482    1.6849    0.0000 C   0  0  0  0  0  0  0  0  0  0  0  0
   -0.4337    2.0974    0.0000 C   0  0  0  0  0  0  0  0  0  0  0  0
    0.2807    1.6849    0.0000 C   0  0  0  0  0  0  0  0  0  0  0  0
    0.2807    0.8599    0.0000 C   0  0  0  0  0  0  0  0  0  0  0  0
    1.7097   -1.6151    0.0000 C   0  0  0  0  0  0  0  0  0  0  0  0
   -1.8627    2.0974    0.0000 C   0  0  0  0  0  0  0  0  0  0  0  0
    0.9952    2.0974    0.0000 C   0  0  0  0  0  0  0  0  0  0  0  0
    0.2807   -0.7901    0.0000 N   0  0  0  0  0  0  0  0  0  0  0  0
   -0.4337   -0.3776    0.0000 N   0  0  0  0  0  0  0  0  0  0  0  0
    2.4242   -2.0276    0.0000 O   0  0  0  0  0  0  0  0  0  0  0  0
    1.7097   -0.7901    0.0000 O   0  0  0  0  0  0  0  0  0  0  0  0
   -0.4337    2.9224    0.0000 O   0  0  0  0  0  0  0  0  0  0  0  0
  1  2  2  0
  1  6  1  0
  1 16  1  0
  2  3  1  0
  2 13  1  0
  3  4  2  0
  4  5  1  0
  5  6  2  0
  7  8  2  0
  7 12  1  0
  7 17  1  0
  8  9  1  0
  9 10  2  0
  9 14  1  0
 10 11  1  0
 10 20  1  0
 11 12  2  0
 11 15  1  0
 13 18  2  0
 13 19  1  0
 16 17  2  0
M  END
>  <DRUGBANK_ID>  (1) 
DB07667

>  <COMMON_NAME>  (1) 
2-((3',5'-DIMETHYL-4'-HYDROXYPHENYL)AZO)BENZOIC ACID

$$$$
