CLK
     RDKit          2D

 18 18  0  0  0  0  0  0  0  0999 V2000
   -2.9768    0.6970    0.0000 C   0  0  0  0  0  0  0  0  0  0  0  0
   -3.6913    0.2845    0.0000 Cl  0  0  0  0  0  0  0  0  0  0  0  0
   -2.9768    1.5220    0.0000 Cl  0  0  0  0  0  0  0  0  0  0  0  0
   -2.2624    0.2845    0.0000 C   0  0  0  0  0  0  0  0  0  0  0  0
   -2.2624   -0.5405    0.0000 O   0  0  0  0  0  0  0  0  0  0  0  0
   -1.5479    0.6970    0.0000 N   0  0  0  0  0  0  0  0  0  0  0  0
   -0.8334    0.2845    0.0000 C   0  0  0  0  0  0  0  0  0  0  0  0
   -0.8334   -0.5405    0.0000 C   0  0  0  0  0  0  0  0  0  0  0  0
   -0.1189   -0.9530    0.0000 O   0  0  0  0  0  0  0  0  0  0  0  0
   -0.1189    0.6970    0.0000 C   0  0  0  0  0  0  0  0  0  0  0  0
   -0.1189    1.5220    0.0000 O   0  0  0  0  0  0  0  0  0  0  0  0
    0.5955    0.2845    0.0000 C   0  0  0  0  0  0  0  0  0  0  0  0
    1.3100    0.6970    0.0000 C   0  0  0  0  0  0  0  0  0  0  0  0
    2.0245    0.2845    0.0000 C   0  0  0  0  0  0  0  0  0  0  0  0
    2.0245   -0.5405    0.0000 C   0  0  0  0  0  0  0  0  0  0  0  0
    2.7389   -0.9530    0.0000 N   0  0  0  0  0  0  0  0  0  0  0  0
    1.3100   -0.9530    0.0000 C   0  0  0  0  0  0  0  0  0  0  0  0
    0.5955   -0.5405    0.0000 C   0  0  0  0  0  0  0  0  0  0  0  0
  1  2  1  0
  1  3  1  0
  1  4  1  0
  4  5  2  0
  4  6  1  0
  7  6  1  0
  7  8  1  1
  7 10  1  0
  8  9  1  0
 10 11  1  6
 10 12  1  0
 12 13  2  0
 12 18  1  0
 13 14  1  0
 14 15  2  0
 15 16  1  0
 15 17  1  0
 17 18  2  0
M  END
>  <DRUGBANK_ID>  (1) 
DB04411

>  <SECONDARY_ACCESSION_NUMBERS>  (1) 
EXPT00940

>  <COMMON_NAME>  (1) 
Alpha-N-Dichloroacetyl-P-Aminophenylserinol

$$$$
