SC0
     RDKit          2D

 25 24  0  0  0  0  0  0  0  0999 V2000
   -5.7460    0.1166    0.0000 C   0  0  0  0  0  0  0  0  0  0  0  0
   -5.0315    0.5291    0.0000 C   0  0  0  0  0  0  0  0  0  0  0  0
   -4.3170    0.1166    0.0000 C   0  0  0  0  0  0  0  0  0  0  0  0
   -3.6026    0.5291    0.0000 C   0  0  0  0  0  0  0  0  0  0  0  0
   -2.8881    0.1166    0.0000 C   0  0  0  0  0  0  0  0  0  0  0  0
   -2.1736    0.5291    0.0000 C   0  0  0  0  0  0  0  0  0  0  0  0
   -1.4591    0.1166    0.0000 C   0  0  0  0  0  0  0  0  0  0  0  0
   -0.7447    0.5291    0.0000 C   0  0  0  0  0  0  0  0  0  0  0  0
   -0.0302    0.1166    0.0000 C   0  0  0  0  0  0  0  0  0  0  0  0
   -0.4427   -0.5979    0.0000 P   0  0  0  0  0  0  0  0  0  0  0  0
   -0.8552   -1.3123    0.0000 O   0  0  0  0  0  0  0  0  0  0  0  0
    0.2718   -1.0104    0.0000 O   0  0  0  0  0  0  0  0  0  0  0  0
   -1.1572   -0.1854    0.0000 O   0  0  0  0  0  0  0  0  0  0  0  0
    0.3823    0.8311    0.0000 P   0  0  0  0  0  0  0  0  0  0  0  0
    0.7948    1.5455    0.0000 O   0  0  0  0  0  0  0  0  0  0  0  0
    1.0968    0.4186    0.0000 O   0  0  0  0  0  0  0  0  0  0  0  0
   -0.3322    1.2436    0.0000 O   0  0  0  0  0  0  0  0  0  0  0  0
    0.6843   -0.2959    0.0000 C   0  0  0  0  0  0  0  0  0  0  0  0
    1.3987    0.1166    0.0000 C   0  0  0  0  0  0  0  0  0  0  0  0
    2.1132   -0.2959    0.0000 C   0  0  0  0  0  0  0  0  0  0  0  0
    2.8277    0.1166    0.0000 C   0  0  0  0  0  0  0  0  0  0  0  0
    3.5422   -0.2959    0.0000 C   0  0  0  0  0  0  0  0  0  0  0  0
    4.2566    0.1166    0.0000 C   0  0  0  0  0  0  0  0  0  0  0  0
    4.9711   -0.2959    0.0000 C   0  0  0  0  0  0  0  0  0  0  0  0
    5.6856    0.1166    0.0000 C   0  0  0  0  0  0  0  0  0  0  0  0
  1  2  1  0
  2  3  1  0
  3  4  1  0
  4  5  1  0
  5  6  1  0
  6  7  2  0
  7  8  1  0
  8  9  1  0
  9 18  1  0
  9 10  1  0
  9 14  1  0
 10 11  1  0
 10 12  1  0
 10 13  2  0
 14 15  1  0
 14 16  1  0
 14 17  2  0
 18 19  1  0
 19 20  2  0
 20 21  1  0
 21 22  1  0
 22 23  1  0
 23 24  1  0
 24 25  1  0
M  END
>  <DRUGBANK_ID>  (1) 
DB08529

>  <COMMON_NAME>  (1) 
(6E,11E)-HEPTADECA-6,11-DIENE-9,9-DIYLBIS(PHOSPHONIC ACID)

$$$$
