
     RDKit          2D

 40 44  0  0  0  0  0  0  0  0999 V2000
   -1.0532    0.2676    0.0000 C   0  0  0  0  0  0  0  0  0  0  0  0
   -0.8689    1.0751    0.0000 N   0  0  0  0  0  0  0  0  0  0  0  0
   -0.5354   -0.3818    0.0000 C   0  0  0  0  0  0  0  0  0  0  0  0
   -0.1228    1.4350    0.0000 C   0  0  0  0  0  0  0  0  0  0  0  0
    0.2896   -0.3818    0.0000 C   0  0  0  0  0  0  0  0  0  0  0  0
    0.8074    0.2676    0.0000 C   0  0  0  0  0  0  0  0  0  0  0  0
    0.6231    1.0751    0.0000 N   0  0  0  0  0  0  0  0  0  0  0  0
   -1.6763    1.5139    0.0000 C   0  0  0  0  0  0  0  0  0  0  0  0
    1.3954    1.5139    0.0000 C   0  0  0  0  0  0  0  0  0  0  0  0
   -2.5891    1.5139    0.0000 C   0  0  0  0  0  0  0  0  0  0  0  0
    2.2205    1.5139    0.0000 C   0  0  0  0  0  0  0  0  0  0  0  0
   -3.0016    2.2337    0.0000 C   0  0  0  0  0  0  0  0  0  0  0  0
   -3.8266    2.2337    0.0000 C   0  0  0  0  0  0  0  0  0  0  0  0
   -3.0016    0.8030    0.0000 C   0  0  0  0  0  0  0  0  0  0  0  0
   -4.2391    1.5139    0.0000 C   0  0  0  0  0  0  0  0  0  0  0  0
   -3.8266    0.8030    0.0000 C   0  0  0  0  0  0  0  0  0  0  0  0
    3.8705    1.5139    0.0000 C   0  0  0  0  0  0  0  0  0  0  0  0
    3.4580    2.2337    0.0000 C   0  0  0  0  0  0  0  0  0  0  0  0
    2.6330    2.2337    0.0000 C   0  0  0  0  0  0  0  0  0  0  0  0
    3.4580    0.8030    0.0000 C   0  0  0  0  0  0  0  0  0  0  0  0
    2.6330    0.8030    0.0000 C   0  0  0  0  0  0  0  0  0  0  0  0
   -1.7553    0.0570    0.0000 C   0  0  0  0  0  0  0  0  0  0  0  0
    1.5447    0.1096    0.0000 C   0  0  0  0  0  0  0  0  0  0  0  0
   -2.1239   -0.5310    0.0000 O   0  0  0  0  0  0  0  0  0  0  0  0
    2.0186   -0.5310    0.0000 O   0  0  0  0  0  0  0  0  0  0  0  0
   -2.9578   -0.9962    0.0000 C   0  0  0  0  0  0  0  0  0  0  0  0
    2.9578   -0.9786    0.0000 C   0  0  0  0  0  0  0  0  0  0  0  0
   -2.9578   -1.8212    0.0000 C   0  0  0  0  0  0  0  0  0  0  0  0
   -3.6686   -0.5836    0.0000 C   0  0  0  0  0  0  0  0  0  0  0  0
   -3.6686   -2.2337    0.0000 C   0  0  0  0  0  0  0  0  0  0  0  0
   -4.3883   -0.9962    0.0000 C   0  0  0  0  0  0  0  0  0  0  0  0
   -4.3883   -1.8212    0.0000 C   0  0  0  0  0  0  0  0  0  0  0  0
    4.3883   -0.9786    0.0000 C   0  0  0  0  0  0  0  0  0  0  0  0
    4.3883   -1.8036    0.0000 C   0  0  0  0  0  0  0  0  0  0  0  0
    3.6687   -0.5661    0.0000 C   0  0  0  0  0  0  0  0  0  0  0  0
    3.6687   -2.2161    0.0000 C   0  0  0  0  0  0  0  0  0  0  0  0
    2.9578   -1.8036    0.0000 C   0  0  0  0  0  0  0  0  0  0  0  0
   -0.8863   -1.0488    0.0000 O   0  0  0  0  0  0  0  0  0  0  0  0
    0.6319   -1.0488    0.0000 O   0  0  0  0  0  0  0  0  0  0  0  0
   -0.1228    2.1547    0.0000 O   0  0  0  0  0  0  0  0  0  0  0  0
  1  2  1  0
  1  3  1  0
  1 22  1  1
  2  4  1  0
  2  8  1  0
  3  5  1  0
  3 38  1  1
  4  7  1  0
  4 40  2  0
  5  6  1  0
  5 39  1  6
  6  7  1  0
  6 23  1  6
  7  9  1  0
  8 10  1  0
  9 11  1  0
 10 12  2  0
 10 14  1  0
 11 19  2  0
 11 21  1  0
 12 13  1  0
 13 15  2  0
 14 16  2  0
 15 16  1  0
 17 18  2  0
 17 20  1  0
 18 19  1  0
 20 21  2  0
 22 24  1  0
 23 25  1  0
 24 26  1  0
 25 27  1  0
 26 28  2  0
 26 29  1  0
 27 35  2  0
 27 37  1  0
 28 30  1  0
 29 31  2  0
 30 32  2  0
 31 32  1  0
 33 34  2  0
 33 35  1  0
 34 36  1  0
 36 37  2  0
M  END
>  <DRUGBANK_ID>  (1) 
DB01732

>  <SECONDARY_ACCESSION_NUMBERS>  (1) 
EXPT00460

>  <COMMON_NAME>  (1) 
(4R,5S,6S,7R)-1,3-dibenzyl-4,7-bis(phenoxymethyl)-5,6-dihydroxy-1,3 diazepan-2-one

$$$$
