CMG
     RDKit          2D

 18 20  0  0  0  0  0  0  0  0999 V2000
    1.3260   -1.5154    0.0000 N   0  0  0  0  0  0  0  0  0  0  0  0
    1.3260   -2.3404    0.0000 C   0  0  0  0  0  0  0  0  0  0  0  0
    0.6115   -2.7529    0.0000 N   0  0  0  0  0  0  0  0  0  0  0  0
   -0.1030   -2.3404    0.0000 C   0  0  0  0  0  0  0  0  0  0  0  0
   -0.1030   -1.5154    0.0000 C   0  0  0  0  0  0  0  0  0  0  0  0
    0.6115   -1.1029    0.0000 C   0  0  0  0  0  0  0  0  0  0  0  0
    0.6115   -0.2779    0.0000 O   0  0  0  0  0  0  0  0  0  0  0  0
   -0.1030    0.1346    0.0000 C   0  0  0  0  0  0  0  0  0  0  0  0
   -0.8876   -1.2605    0.0000 N   0  0  0  0  0  0  0  0  0  0  0  0
   -1.3725   -1.9279    0.0000 C   0  0  0  0  0  0  0  0  0  0  0  0
   -0.8876   -2.5954    0.0000 N   0  0  0  0  0  0  0  0  0  0  0  0
    2.0404   -2.7529    0.0000 N   0  0  0  0  0  0  0  0  0  0  0  0
   -0.1030    0.9596    0.0000 C   0  0  0  0  0  0  0  0  0  0  0  0
   -0.8174    1.3721    0.0000 C   0  0  0  0  0  0  0  0  0  0  0  0
   -0.8174    2.1971    0.0000 C   0  0  0  0  0  0  0  0  0  0  0  0
   -0.1030    2.6096    0.0000 C   0  0  0  0  0  0  0  0  0  0  0  0
    0.6115    2.1971    0.0000 C   0  0  0  0  0  0  0  0  0  0  0  0
    0.6115    1.3721    0.0000 C   0  0  0  0  0  0  0  0  0  0  0  0
  1  2  2  0
  1  6  1  0
  2  3  1  0
  2 12  1  0
  3  4  2  0
  4  5  1  0
  4 11  1  0
  5  6  2  0
  5  9  1  0
  6  7  1  0
  7  8  1  0
  8 13  1  0
  9 10  2  0
 10 11  1  0
 13 14  1  0
 13 18  1  0
 14 15  1  0
 15 16  1  0
 16 17  1  0
 17 18  1  0
M  END
>  <DRUGBANK_ID>  (1) 
DB02407

>  <SECONDARY_ACCESSION_NUMBERS>  (1) 
EXPT00955

>  <COMMON_NAME>  (1) 
6-O-Cyclohexylmethyl Guanine

>  <UNII>  (1) 
884MN6AR44

$$$$
