IQS
     RDKit          2D

 18 19  0  0  0  0  0  0  0  0999 V2000
   -0.6145   -0.2732    0.0000 C   0  0  0  0  0  0  0  0  0  0  0  0
   -0.6145   -1.0982    0.0000 C   0  0  0  0  0  0  0  0  0  0  0  0
   -1.3290   -1.5107    0.0000 C   0  0  0  0  0  0  0  0  0  0  0  0
   -2.0435   -1.0982    0.0000 C   0  0  0  0  0  0  0  0  0  0  0  0
   -2.0435   -0.2732    0.0000 C   0  0  0  0  0  0  0  0  0  0  0  0
   -2.7579    0.1393    0.0000 C   0  0  0  0  0  0  0  0  0  0  0  0
   -2.7579    0.9643    0.0000 N   0  0  0  0  0  0  0  0  0  0  0  0
   -2.0435    1.3768    0.0000 C   0  0  0  0  0  0  0  0  0  0  0  0
   -1.3290    0.9643    0.0000 C   0  0  0  0  0  0  0  0  0  0  0  0
   -1.3290    0.1393    0.0000 C   0  0  0  0  0  0  0  0  0  0  0  0
    0.0999    0.1393    0.0000 S   0  0  0  0  0  0  0  0  0  0  0  0
    0.5124   -0.5752    0.0000 O   0  0  0  0  0  0  0  0  0  0  0  0
   -0.3126    0.8538    0.0000 O   0  0  0  0  0  0  0  0  0  0  0  0
    0.8144    0.5518    0.0000 N   0  0  0  0  0  0  0  0  0  0  0  0
    1.5289    0.1393    0.0000 C   0  0  0  0  0  0  0  0  0  0  0  0
    2.2434    0.5518    0.0000 C   0  0  0  0  0  0  0  0  0  0  0  0
    2.9578    0.1393    0.0000 N   0  0  0  0  0  0  0  0  0  0  0  0
    3.6723    0.5518    0.0000 C   0  0  0  0  0  0  0  0  0  0  0  0
  1  2  2  0
  1 10  1  0
  1 11  1  0
  2  3  1  0
  3  4  2  0
  4  5  1  0
  5  6  1  0
  5 10  2  0
  6  7  2  0
  7  8  1  0
  8  9  2  0
  9 10  1  0
 11 12  2  0
 11 13  2  0
 11 14  1  0
 14 15  1  0
 15 16  1  0
 16 17  1  0
 17 18  1  0
M  END
>  <DRUGBANK_ID>  (1) 
DB07997

>  <COMMON_NAME>  (1) 
N-[2-(METHYLAMINO)ETHYL]-5-ISOQUINOLINESULFONAMIDE

>  <UNII>  (1) 
TX277E49WT

$$$$
