
     RDKit          2D

 39 44  0  0  0  0  0  0  0  0999 V2000
   -3.3349    3.8112    0.0000 C   0  0  0  0  0  0  0  0  0  0  0  0
   -4.0436    3.4045    0.0000 C   0  0  0  0  0  0  0  0  0  0  0  0
   -2.6144    2.5795    0.0000 C   0  0  0  0  0  0  0  0  0  0  0  0
   -2.6144    3.4045    0.0000 C   0  0  0  0  0  0  0  0  0  0  0  0
   -3.3349    4.6362    0.0000 O   0  0  0  0  0  0  0  0  0  0  0  0
   -4.0436    2.5795    0.0000 C   0  0  0  0  0  0  0  0  0  0  0  0
   -4.6594    2.0334    0.0000 O   0  0  0  0  0  0  0  0  0  0  0  0
   -3.3349    2.1612    0.0000 C   0  0  0  0  0  0  0  0  0  0  0  0
   -4.3225    1.2781    0.0000 C   0  0  0  0  0  0  0  0  0  0  0  0
   -3.5091    1.3595    0.0000 C   0  0  0  0  0  0  0  0  0  0  0  0
   -4.6594    0.5229    0.0000 C   0  0  0  0  0  0  0  0  0  0  0  0
   -4.1715   -0.1394    0.0000 C   0  0  0  0  0  0  0  0  0  0  0  0
   -3.3580   -0.0580    0.0000 C   0  0  0  0  0  0  0  0  0  0  0  0
   -5.4728    0.4415    0.0000 O   0  0  0  0  0  0  0  0  0  0  0  0
   -5.8098   -0.3137    0.0000 C   0  0  0  0  0  0  0  0  0  0  0  0
   -3.0211    0.6971    0.0000 C   0  0  0  0  0  0  0  0  0  0  0  0
   -2.1961    0.6971    0.0000 C   0  0  0  0  0  0  0  0  0  0  0  0
   -2.5330    1.9521    0.0000 C   0  0  0  0  0  0  0  0  0  0  0  0
   -1.7429    2.1612    0.0000 C   0  0  0  0  0  0  0  0  0  0  0  0
   -1.5337    1.3711    0.0000 N   0  0  0  0  0  0  0  0  0  0  0  0
   -0.7320    1.1620    0.0000 C   0  0  0  0  0  0  0  0  0  0  0  0
   -0.5228    0.3718    0.0000 C   0  0  0  0  0  0  0  0  0  0  0  0
    0.2788    0.1626    0.0000 C   0  0  0  0  0  0  0  0  0  0  0  0
    0.4879   -0.6390    0.0000 C   0  0  0  0  0  0  0  0  0  0  0  0
    1.2897   -0.8482    0.0000 C   0  0  0  0  0  0  0  0  0  0  0  0
    1.4988   -1.6383    0.0000 C   0  0  0  0  0  0  0  0  0  0  0  0
    2.3007   -1.8475    0.0000 C   0  0  0  0  0  0  0  0  0  0  0  0
    2.5098   -2.6492    0.0000 C   0  0  0  0  0  0  0  0  0  0  0  0
    4.0784   -2.5446    0.0000 C   0  0  0  0  0  0  0  0  0  0  0  0
    3.3696   -3.6833    0.0000 C   0  0  0  0  0  0  0  0  0  0  0  0
    3.3116   -2.8584    0.0000 N   0  0  0  0  0  0  0  0  0  0  0  0
    4.2760   -1.7545    0.0000 O   0  0  0  0  0  0  0  0  0  0  0  0
    2.7306   -4.2062    0.0000 O   0  0  0  0  0  0  0  0  0  0  0  0
    4.1598   -3.8809    0.0000 C   0  0  0  0  0  0  0  0  0  0  0  0
    4.6013   -3.1837    0.0000 C   0  0  0  0  0  0  0  0  0  0  0  0
    4.5549   -4.6013    0.0000 C   0  0  0  0  0  0  0  0  0  0  0  0
    5.3683   -4.6362    0.0000 C   0  0  0  0  0  0  0  0  0  0  0  0
    5.8098   -3.9390    0.0000 C   0  0  0  0  0  0  0  0  0  0  0  0
    5.4263   -3.2070    0.0000 C   0  0  0  0  0  0  0  0  0  0  0  0
  1  2  1  0
  1  4  1  0
  1  5  1  1
  6  2  1  1
  3  4  2  0
  6  7  1  0
  6  8  1  0
  7  9  1  0
  8  3  1  1
  8 10  1  0
  8 18  1  0
  9 11  1  0
  9 10  2  0
 10 16  1  0
 11 12  2  0
 11 14  1  0
 12 13  1  0
 13 16  2  0
 14 15  1  0
 16 17  1  0
 17 20  2  0
 18 19  1  0
 19 20  1  0
 20 21  1  0
 21 22  1  0
 22 23  1  0
 23 24  1  0
 24 25  1  0
 25 26  1  0
 26 27  1  0
 27 28  1  0
 28 31  1  0
 29 31  1  0
 29 35  1  0
 29 32  2  0
 30 31  1  0
 30 34  1  0
 30 33  2  0
 34 36  2  0
 34 35  1  0
 35 39  2  0
 36 37  1  0
 37 38  2  0
 38 39  1  0
M  CHG  1  20   1
M  END
>  <DRUGBANK_ID>  (1) 
DB02673

>  <SECONDARY_ACCESSION_NUMBERS>  (1) 
EXPT01601

>  <COMMON_NAME>  (1) 
(4aS,6R,8aS)-11-[8-(1,3-Dioxo-1,3-dihydro-2H-isoindol-2-yl)octyl]-6-hydroxy-3-methoxy-5,6,9,10-tetrahydro-4aH-[1]benzofuro[3a,3,2-ef][2]benzazepin-11-ium

$$$$
