1582
     RDKit          2D

 19 20  0  0  0  0  0  0  0  0999 V2000
    2.4751    0.1279    0.0000 S   0  0  0  0  0  0  0  0  0  0  0  0
    1.6500    0.1279    0.0000 O   0  0  0  0  0  0  0  0  0  0  0  0
    3.3001    0.1279    0.0000 O   0  0  0  0  0  0  0  0  0  0  0  0
    2.4751    0.9529    0.0000 N   0  0  0  0  0  0  0  0  0  0  0  0
    3.9041    0.9529    0.0000 N   0  0  0  0  0  0  0  0  0  0  0  0
    3.1895    2.1904    0.0000 N   0  0  0  0  0  0  0  0  0  0  0  0
    2.4751   -3.1722    0.0000 N   0  0  0  0  0  0  0  0  0  0  0  0
    2.4751   -0.6971    0.0000 C   0  0  0  0  0  0  0  0  0  0  0  0
    1.7606   -1.1096    0.0000 C   0  0  0  0  0  0  0  0  0  0  0  0
    3.1895   -1.1096    0.0000 C   0  0  0  0  0  0  0  0  0  0  0  0
    3.1895    1.3654    0.0000 C   0  0  0  0  0  0  0  0  0  0  0  0
    2.4751   -2.3472    0.0000 C   0  0  0  0  0  0  0  0  0  0  0  0
    1.7606   -1.9347    0.0000 C   0  0  0  0  0  0  0  0  0  0  0  0
    3.1895   -1.9347    0.0000 C   0  0  0  0  0  0  0  0  0  0  0  0
    4.6185    1.3654    0.0000 C   0  0  0  0  0  0  0  0  0  0  0  0
    3.9041    2.6029    0.0000 C   0  0  0  0  0  0  0  0  0  0  0  0
    4.6185    2.1904    0.0000 C   0  0  0  0  0  0  0  0  0  0  0  0
    5.3330    0.9529    0.0000 C   0  0  0  0  0  0  0  0  0  0  0  0
    3.9041    3.4280    0.0000 C   0  0  0  0  0  0  0  0  0  0  0  0
  1  2  2  0
  1  3  2  0
  1  4  1  0
  1  8  1  0
  4 11  1  0
  5 11  2  0
  5 15  1  0
  6 11  1  0
  6 16  2  0
  7 12  1  0
  8  9  2  0
  8 10  1  0
  9 13  1  0
 10 14  2  0
 12 13  2  0
 12 14  1  0
 15 17  2  0
 15 18  1  0
 16 17  1  0
 16 19  1  0
M  END
>  <DRUGBANK_ID>  (1) 
DB01582

>  <COMMON_NAME>  (1) 
Sulfamethazine

>  <CAS_NUMBER>  (1) 
57-68-1

>  <UNII>  (1) 
48U51W007F

>  <SYNONYMS>  (1) 
(p-Aminobenzolsulfonyl)-2-amino-4,6-dimethylpyrimidin; 2-(4-Aminobenzenesulfonamido)-4,6-dimethylpyrimidine; 2-(p-Aminobenzenesulfonamido)-4,6-dimethylpyrimidine; 2-Sulfanilamido-4,6-dimethylpyrimidine; 4-Amino-N-(2,6-dimethyl-4-pyrimidinyl)benzenesulfonamide; 4-Amino-N-(4,6-dimethyl-pyrimidin-2-yl)-benzenesulfonamide; 4-amino-N-(4,6-dimethylpyrimidin-2-yl)benzenesulfonamide; 4,6-Dimethyl-2-sulfanilamidopyrimidine; 6-(4'-Aminobenzol-sulfonamido)-2,4-dimethylpyrimidin; N-(4,6-Dimethyl-2-pyrimidyl)sulfanilamide; N(1)-(4,6-Dimethyl-2-pyrimidinyl)sulfanilamide; N(1)-(4,6-Dimethyl-2-pyrimidyl)sulfanilamide; SMZ; Sulfadimethyldiazine; Sulfadimethylpyrimidine; Sulfadimidina; Sulfadimidine; Sulfadimidinum; Sulfametazina; Sulfametazyny; Sulfamethazine; Sulfamezathine; Sulphadimethylpyrimidine; Sulphamethazine

$$$$
