T98
     RDKit          2D

 21 23  0  0  0  0  0  0  0  0999 V2000
   -2.0708    0.7757    0.0000 C   0  0  0  0  0  0  0  0  0  0  0  0
   -1.5405    0.1437    0.0000 C   0  0  0  0  0  0  0  0  0  0  0  0
   -0.8260   -0.2688    0.0000 C   0  0  0  0  0  0  0  0  0  0  0  0
   -0.1115    0.1437    0.0000 C   0  0  0  0  0  0  0  0  0  0  0  0
    0.6029   -0.2688    0.0000 C   0  0  0  0  0  0  0  0  0  0  0  0
    0.6029   -1.0938    0.0000 C   0  0  0  0  0  0  0  0  0  0  0  0
   -0.1115   -1.5063    0.0000 C   0  0  0  0  0  0  0  0  0  0  0  0
   -0.8260   -1.0938    0.0000 C   0  0  0  0  0  0  0  0  0  0  0  0
   -1.5405   -1.5063    0.0000 N   0  0  0  0  0  0  0  0  0  0  0  0
   -2.2549   -1.0938    0.0000 C   0  0  0  0  0  0  0  0  0  0  0  0
   -2.9694   -1.5063    0.0000 S   0  0  0  0  0  0  0  0  0  0  0  0
   -2.2549   -0.2688    0.0000 O   0  0  0  0  0  0  0  0  0  0  0  0
    1.3174    0.1437    0.0000 C   0  0  0  0  0  0  0  0  0  0  0  0
    1.4037    0.9641    0.0000 C   0  0  0  0  0  0  0  0  0  0  0  0
    2.2106    1.1357    0.0000 C   0  0  0  0  0  0  0  0  0  0  0  0
    2.6231    0.4212    0.0000 C   0  0  0  0  0  0  0  0  0  0  0  0
    2.0711   -0.1919    0.0000 N   0  0  0  0  0  0  0  0  0  0  0  0
    2.2426   -0.9989    0.0000 C   0  0  0  0  0  0  0  0  0  0  0  0
    3.4436    0.3350    0.0000 C   0  0  0  0  0  0  0  0  0  0  0  0
    4.2641    0.2487    0.0000 N   0  0  0  0  0  0  0  0  0  0  0  0
   -1.0102    0.7757    0.0000 C   0  0  0  0  0  0  0  0  0  0  0  0
  1  2  1  0
  2  3  1  0
  2 12  1  0
  2 21  1  0
  3  4  1  0
  3  8  2  0
  4  5  2  0
  5  6  1  0
  5 13  1  0
  6  7  2  0
  7  8  1  0
  8  9  1  0
  9 10  1  0
 10 11  2  0
 10 12  1  0
 13 14  2  0
 13 17  1  0
 14 15  1  0
 15 16  2  0
 16 17  1  0
 16 19  1  0
 17 18  1  0
 19 20  3  0
M  END
>  <DRUGBANK_ID>  (1) 
DB04787

>  <COMMON_NAME>  (1) 
Tanaproget

>  <CAS_NUMBER>  (1) 
304853-42-7

>  <UNII>  (1) 
W9F9H8GXWR

>  <SYNONYMS>  (1) 
Tanaproget

$$$$
