
     RDKit          2D

 43 44  0  0  0  0  0  0  0  0999 V2000
   -2.8644    0.6244    0.0000 C   0  0  0  0  0  0  0  0  0  0  0  0
   -3.5863    0.2119    0.0000 C   0  0  0  0  0  0  0  0  0  0  0  0
   -3.5863   -0.6130    0.0000 C   0  0  0  0  0  0  0  0  0  0  0  0
   -2.8644   -1.0369    0.0000 C   0  0  0  0  0  0  0  0  0  0  0  0
   -2.1540   -0.6130    0.0000 C   0  0  0  0  0  0  0  0  0  0  0  0
   -2.1540    0.2119    0.0000 C   0  0  0  0  0  0  0  0  0  0  0  0
   -4.2967    0.6244    0.0000 C   0  0  0  0  0  0  0  0  0  0  0  0
   -4.2967    1.4494    0.0000 O   0  0  0  0  0  0  0  0  0  0  0  0
   -5.0185    0.2119    0.0000 O   0  0  0  0  0  0  0  0  0  0  0  0
   -4.2967   -1.0369    0.0000 O   0  0  0  0  0  0  0  0  0  0  0  0
   -4.2967   -1.8618    0.0000 C   0  0  0  0  0  0  0  0  0  0  0  0
   -5.0185   -2.2743    0.0000 C   0  0  0  0  0  0  0  0  0  0  0  0
   -5.0185   -3.0993    0.0000 O   0  0  0  0  0  0  0  0  0  0  0  0
   -5.7289   -1.8618    0.0000 O   0  0  0  0  0  0  0  0  0  0  0  0
   -1.4322    0.6244    0.0000 C   0  0  0  0  0  0  0  0  0  0  0  0
   -0.7103    0.2119    0.0000 C   0  0  0  0  0  0  0  0  0  0  0  0
   -0.7103   -0.6130    0.0000 C   0  0  0  0  0  0  0  0  0  0  0  0
   -1.4322   -1.0369    0.0000 O   0  0  0  0  0  0  0  0  0  0  0  0
    0.0000   -1.0369    0.0000 N   0  0  0  0  0  0  0  0  0  0  0  0
    0.0000   -1.8618    0.0000 C   0  0  0  0  0  0  0  0  0  0  0  0
    0.7104   -2.2743    0.0000 C   0  0  0  0  0  0  0  0  0  0  0  0
    1.4322   -1.8618    0.0000 C   0  0  0  0  0  0  0  0  0  0  0  0
    2.1426   -2.2743    0.0000 C   0  0  0  0  0  0  0  0  0  0  0  0
    2.8644   -1.8618    0.0000 C   0  0  0  0  0  0  0  0  0  0  0  0
    0.0000    0.6244    0.0000 N   0  0  0  0  0  0  0  0  0  0  0  0
    0.7104    0.2119    0.0000 C   0  0  0  0  0  0  0  0  0  0  0  0
    0.7104   -0.6130    0.0000 O   0  0  0  0  0  0  0  0  0  0  0  0
    1.4322    0.6244    0.0000 C   0  0  0  0  0  0  0  0  0  0  0  0
    2.8644    0.6244    0.0000 C   0  0  0  0  0  0  0  0  0  0  0  0
    1.4322    1.4494    0.0000 C   0  0  0  0  0  0  0  0  0  0  0  0
    0.7218    1.8618    0.0000 C   0  0  0  0  0  0  0  0  0  0  0  0
    0.0000    3.0993    0.0000 C   0  0  0  0  0  0  0  0  0  0  0  0
   -0.7103    2.6868    0.0000 C   0  0  0  0  0  0  0  0  0  0  0  0
   -0.7103    1.8618    0.0000 C   0  0  0  0  0  0  0  0  0  0  0  0
    0.0000    1.4494    0.0000 C   0  0  0  0  0  0  0  0  0  0  0  0
    0.7218    2.6868    0.0000 C   0  0  0  0  0  0  0  0  0  0  0  0
    2.1540    0.2119    0.0000 N   0  0  0  0  0  0  0  0  0  0  0  0
    2.8644    1.4494    0.0000 O   0  0  0  0  0  0  0  0  0  0  0  0
    3.5863    0.2119    0.0000 C   0  0  0  0  0  0  0  0  0  0  0  0
    4.2967    0.6244    0.0000 C   0  0  0  0  0  0  0  0  0  0  0  0
    5.0185    0.2119    0.0000 C   0  0  0  0  0  0  0  0  0  0  0  0
    5.0185   -0.6130    0.0000 O   0  0  0  0  0  0  0  0  0  0  0  0
    5.7289    0.6244    0.0000 O   0  0  0  0  0  0  0  0  0  0  0  0
  1  2  2  0
  1  6  1  0
  2  3  1  0
  2  7  1  0
  3  4  2  0
  3 10  1  0
  4  5  1  0
  5  6  2  0
  6 15  1  0
  7  9  1  0
  7  8  2  0
 10 11  1  0
 11 12  1  0
 12 13  2  0
 12 14  1  0
 16 15  1  6
 16 25  1  0
 16 17  1  0
 17 18  2  0
 17 19  1  0
 19 20  1  0
 20 21  1  0
 21 22  1  0
 22 23  1  0
 23 24  1  0
 25 26  1  0
 26 28  1  0
 26 27  2  0
 28 37  1  0
 28 30  1  6
 29 37  1  0
 29 39  1  0
 29 38  2  0
 30 31  1  0
 31 35  1  0
 31 36  2  0
 32 33  2  0
 32 36  1  0
 33 34  1  0
 34 35  2  0
 39 40  1  0
 40 41  1  0
 41 43  1  0
 41 42  2  0
M  END
>  <DRUGBANK_ID>  (1) 
DB04525

>  <SECONDARY_ACCESSION_NUMBERS>  (1) 
EXPT01897

>  <COMMON_NAME>  (1) 
N-(3-Carboxypropanoyl)-L-phenylalanyl-3-carboxy-O-(carboxymethyl)-N-pentyl-L-tyrosinamide

$$$$
