
     RDKit          2D

 22 23  0  0  0  0  0  0  0  0999 V2000
   -2.0625   -1.7605    0.0000 C   0  0  0  0  0  0  0  0  0  0  0  0
    2.0625   -3.1895    0.0000 C   0  0  0  0  0  0  0  0  0  0  0  0
    2.8579    0.8250    0.0000 C   0  0  0  0  0  0  0  0  0  0  0  0
   -1.2375   -1.7605    0.0000 C   0  0  0  0  0  0  0  0  0  0  0  0
    1.2375   -3.1895    0.0000 C   0  0  0  0  0  0  0  0  0  0  0  0
    0.7145   -0.4125    0.0000 C   0  0  0  0  0  0  0  0  0  0  0  0
    1.4289    0.0000    0.0000 C   0  0  0  0  0  0  0  0  0  0  0  0
    1.4289   -1.6500    0.0000 C   0  0  0  0  0  0  0  0  0  0  0  0
    2.8579    0.0000    0.0000 C   0  0  0  0  0  0  0  0  0  0  0  0
    0.7145   -1.2375    0.0000 C   0  0  0  0  0  0  0  0  0  0  0  0
    2.1434   -0.4125    0.0000 C   0  0  0  0  0  0  0  0  0  0  0  0
    2.1434   -1.2375    0.0000 C   0  0  0  0  0  0  0  0  0  0  0  0
    3.5724   -0.4125    0.0000 C   0  0  0  0  0  0  0  0  0  0  0  0
    3.5724   -1.2375    0.0000 C   0  0  0  0  0  0  0  0  0  0  0  0
    4.2868   -0.0000    0.0000 Cl  0  0  0  0  0  0  0  0  0  0  0  0
    4.2868   -1.6500    0.0000 O   0  0  0  0  0  0  0  0  0  0  0  0
   -0.8250   -2.4750    0.0000 O   0  0  0  0  0  0  0  0  0  0  0  0
    0.8250   -2.4750    0.0000 O   0  0  0  0  0  0  0  0  0  0  0  0
    2.8579   -1.6500    0.0000 O   0  0  0  0  0  0  0  0  0  0  0  0
    0.0000   -1.6500    0.0000 O   0  0  0  0  0  0  0  0  0  0  0  0
    0.0000   -2.4750    0.0000 P   0  0  0  0  0  0  0  0  0  0  0  0
    0.0000   -3.3000    0.0000 S   0  0  0  0  0  0  0  0  0  0  0  0
  4  1  1  0
  5  2  1  0
  7  6  2  0
  9  3  1  0
 10  6  1  0
 10  8  2  0
 11  7  1  0
 11  9  1  0
 12  8  1  0
 12 11  2  0
 13  9  2  0
 14 13  1  0
 15 13  1  0
 16 14  2  0
 17  4  1  0
 18  5  1  0
 19 12  1  0
 19 14  1  0
 20 10  1  0
 21 17  1  0
 21 18  1  0
 21 20  1  0
 22 21  2  0
M  END
>  <DRUGBANK_ID>  (1) 
DB11390

>  <COMMON_NAME>  (1) 
Coumaphos

>  <CAS_NUMBER>  (1) 
56-72-4

>  <UNII>  (1) 
L08SZ5Z5JC

>  <SYNONYMS>  (1) 
3-Chloro-4-methyl-7-coumarinyl diethyl phosphorothioate; 3-Chloro-4-methyl-7-hydroxycoumarin diethyl thiophosphoric acid ester; 3-Chloro-7-diethoxyphosphinothioyloxy-4-methylcoumarin; 3-Chloro-7-hydroxy-4-methyl-coumarin O,O-diethyl phosphorothioate; Coumafos; Coumaphos; O-(3-chloro-4-methyl-2-oxo-2H-chromen-7-yl) O,O-diethyl thiophosphate; O,O-Diethyl 3-chloro-4-methyl-7-umbelliferone thiophosphate; O,O-Diethyl O-(3-chloro-4-methyl-2-oxo-2H-1-benzopyran-7-yl)phosphorothioate; Phosphorothioic acid, O-(3-chloro-4-methyl-2-oxo-2H-1-benzopyran-7-yl) O,O-diethyl ester

$$$$
