NAB
     RDKit          2D

 22 24  0  0  0  0  0  0  0  0999 V2000
   -1.0835   -1.4462    0.0000 C   0  0  0  0  0  0  0  0  0  0  0  0
   -0.3690   -1.8587    0.0000 C   0  0  0  0  0  0  0  0  0  0  0  0
   -0.3690   -2.6837    0.0000 C   0  0  0  0  0  0  0  0  0  0  0  0
   -1.0835   -3.0962    0.0000 C   0  0  0  0  0  0  0  0  0  0  0  0
   -1.7980   -2.6837    0.0000 C   0  0  0  0  0  0  0  0  0  0  0  0
   -1.7980   -1.8587    0.0000 C   0  0  0  0  0  0  0  0  0  0  0  0
   -0.3690    0.6163    0.0000 C   0  0  0  0  0  0  0  0  0  0  0  0
   -1.0835    1.0288    0.0000 C   0  0  0  0  0  0  0  0  0  0  0  0
   -1.0835    1.8538    0.0000 C   0  0  0  0  0  0  0  0  0  0  0  0
   -0.3690    2.2663    0.0000 C   0  0  0  0  0  0  0  0  0  0  0  0
    0.3455    1.8538    0.0000 C   0  0  0  0  0  0  0  0  0  0  0  0
    1.0599    2.2663    0.0000 C   0  0  0  0  0  0  0  0  0  0  0  0
    1.7744    1.8538    0.0000 C   0  0  0  0  0  0  0  0  0  0  0  0
    1.7744    1.0288    0.0000 C   0  0  0  0  0  0  0  0  0  0  0  0
    1.0599    0.6163    0.0000 C   0  0  0  0  0  0  0  0  0  0  0  0
    0.3455    1.0288    0.0000 C   0  0  0  0  0  0  0  0  0  0  0  0
    0.3455   -1.4462    0.0000 C   0  0  0  0  0  0  0  0  0  0  0  0
   -1.0835   -0.6212    0.0000 N   0  0  0  0  0  0  0  0  0  0  0  0
   -0.3690   -0.2087    0.0000 N   0  0  0  0  0  0  0  0  0  0  0  0
    1.0599   -1.8587    0.0000 O   0  0  0  0  0  0  0  0  0  0  0  0
    0.3455   -0.6212    0.0000 O   0  0  0  0  0  0  0  0  0  0  0  0
   -0.3690    3.0913    0.0000 O   0  0  0  0  0  0  0  0  0  0  0  0
  1  2  2  0
  1  6  1  0
  1 18  1  0
  2  3  1  0
  2 17  1  0
  3  4  2  0
  4  5  1  0
  5  6  2  0
  7  8  2  0
  7 16  1  0
  7 19  1  0
  8  9  1  0
  9 10  2  0
 10 11  1  0
 10 22  1  0
 11 12  1  0
 11 16  2  0
 12 13  2  0
 13 14  1  0
 14 15  2  0
 15 16  1  0
 17 20  2  0
 17 21  1  0
 18 19  2  0
M  END
>  <DRUGBANK_ID>  (1) 
DB08252

>  <COMMON_NAME>  (1) 
2-((4'-HYDROXYNAPHTHYL)-AZO)BENZOIC ACID

$$$$
