NPF
     RDKit          2D

 20 21  0  0  0  0  0  0  0  0999 V2000
   -1.1502   -0.6335    0.0000 C   0  0  0  0  0  0  0  0  0  0  0  0
   -0.4357   -1.0460    0.0000 C   0  0  0  0  0  0  0  0  0  0  0  0
   -0.4357   -1.8710    0.0000 C   0  0  0  0  0  0  0  0  0  0  0  0
   -1.1502   -2.2835    0.0000 C   0  0  0  0  0  0  0  0  0  0  0  0
   -1.8646   -1.8710    0.0000 C   0  0  0  0  0  0  0  0  0  0  0  0
   -1.8646   -1.0460    0.0000 C   0  0  0  0  0  0  0  0  0  0  0  0
   -2.5791   -0.6335    0.0000 N   0  0  0  0  0  0  0  0  0  0  0  0
   -3.2936   -1.0460    0.0000 O   0  0  0  0  0  0  0  0  0  0  0  0
   -2.5791    0.1915    0.0000 O   0  0  0  0  0  0  0  0  0  0  0  0
   -1.1502    0.1915    0.0000 O   0  0  0  0  0  0  0  0  0  0  0  0
   -0.4357    0.6040    0.0000 C   0  0  0  0  0  0  0  0  0  0  0  0
   -0.4357    1.4290    0.0000 C   0  0  0  0  0  0  0  0  0  0  0  0
   -1.1502    1.8415    0.0000 O   0  0  0  0  0  0  0  0  0  0  0  0
    0.2788    1.8415    0.0000 C   0  0  0  0  0  0  0  0  0  0  0  0
    0.2788    2.6665    0.0000 O   0  0  0  0  0  0  0  0  0  0  0  0
    0.9932    1.4290    0.0000 C   0  0  0  0  0  0  0  0  0  0  0  0
    1.7077    1.8415    0.0000 O   0  0  0  0  0  0  0  0  0  0  0  0
    0.9932    0.6040    0.0000 C   0  0  0  0  0  0  0  0  0  0  0  0
    1.7077    0.1915    0.0000 C   0  0  0  0  0  0  0  0  0  0  0  0
    0.2788    0.1915    0.0000 O   0  0  0  0  0  0  0  0  0  0  0  0
  1  2  2  0
  1  6  1  0
  1 10  1  0
  2  3  1  0
  3  4  2  0
  4  5  1  0
  5  6  2  0
  6  7  1  0
  7  8  1  0
  7  9  2  0
 11 10  1  1
 11 12  1  0
 11 20  1  0
 12 13  1  6
 12 14  1  0
 14 15  1  1
 14 16  1  0
 16 17  1  1
 16 18  1  0
 18 19  1  1
 18 20  1  0
M  CHG  2   7   1   8  -1
M  END
>  <DRUGBANK_ID>  (1) 
DB08297

>  <COMMON_NAME>  (1) 
ORTHONITROPHENYL-BETA-D-FUCOPYRANOSIDE

$$$$
