LEG
     RDKit          2D

 16 16  0  0  0  0  0  0  0  0999 V2000
   -4.2176   -0.2936    0.0000 C   0  0  0  0  0  0  0  0  0  0  0  0
   -3.5031   -0.7061    0.0000 C   0  0  0  0  0  0  0  0  0  0  0  0
   -2.7887   -0.2936    0.0000 C   0  0  0  0  0  0  0  0  0  0  0  0
   -2.0742   -0.7061    0.0000 C   0  0  0  0  0  0  0  0  0  0  0  0
   -1.3597   -0.2936    0.0000 C   0  0  0  0  0  0  0  0  0  0  0  0
   -0.6452   -0.7061    0.0000 C   0  0  0  0  0  0  0  0  0  0  0  0
    0.0692   -0.2936    0.0000 C   0  0  0  0  0  0  0  0  0  0  0  0
    0.7837   -0.7061    0.0000 C   0  0  0  0  0  0  0  0  0  0  0  0
    1.4982   -0.2936    0.0000 C   0  0  0  0  0  0  0  0  0  0  0  0
    0.0692    0.5314    0.0000 C   0  0  0  0  0  0  0  0  0  0  0  0
    0.7837    0.9439    0.0000 C   0  0  0  0  0  0  0  0  0  0  0  0
    1.4982    0.5314    0.0000 C   0  0  0  0  0  0  0  0  0  0  0  0
    2.2126    0.9439    0.0000 C   0  0  0  0  0  0  0  0  0  0  0  0
    2.2126    1.7689    0.0000 O   0  0  0  0  0  0  0  0  0  0  0  0
    2.9271    0.5314    0.0000 C   0  0  0  0  0  0  0  0  0  0  0  0
    3.6416    0.9439    0.0000 C   0  0  0  0  0  0  0  0  0  0  0  0
  1  2  1  0
  2  3  1  0
  3  4  1  0
  4  5  1  0
  5  6  1  0
  6  7  1  0
  7 10  2  0
  7  8  1  0
  8  9  2  0
  9 12  1  0
 10 11  1  0
 11 12  2  0
 12 13  1  0
 13 14  2  0
 13 15  1  0
 15 16  2  0
M  END
>  <DRUGBANK_ID>  (1) 
DB08085

>  <COMMON_NAME>  (1) 
1-(4-HEXYLPHENYL)PROP-2-EN-1-ONE

>  <UNII>  (1) 
MA965OF9ZR

$$$$
