4829
     RDKit          2D

 24 27  0  0  1  0  0  0  0  0999 V2000
    1.6596    0.6794    0.0000 O   0  0  0  0  0  0  0  0  0  0  0  0
    4.5735    0.6791    0.0000 N   0  0  0  0  0  0  0  0  0  0  0  0
    5.5486   -2.7169    0.0000 N   0  0  0  0  0  0  0  0  0  0  0  0
    2.3692    1.9196    0.0000 N   0  0  0  0  0  0  0  0  0  0  0  0
    4.5603   -0.1801    0.0000 C   0  0  0  0  0  0  0  0  0  0  0  0
    3.8458   -0.5926    0.0000 C   0  0  0  0  0  0  0  0  0  0  0  0
    5.2748   -0.5926    0.0000 C   0  0  0  0  0  0  0  0  0  0  0  0
    3.0885    0.6848    0.0000 C   0  0  0  0  0  0  0  0  0  0  0  0
    3.8327    1.1146    0.0000 C   0  0  0  0  0  0  0  0  0  0  0  0
    5.2748   -1.4176    0.0000 C   0  0  0  0  0  0  0  0  0  0  0  0
    3.8458   -1.4176    0.0000 C   0  0  0  0  0  0  0  0  0  0  0  0
    4.5603   -1.8301    0.0000 C   0  0  0  0  0  0  0  0  0  0  0  0
    3.0951   -0.1745    0.0000 C   0  0  0  0  0  0  0  0  0  0  0  0
    4.5735   -2.6893    0.0000 C   0  0  0  0  0  0  0  0  0  0  0  0
    5.2928    1.0834    0.0000 C   0  0  0  0  0  0  0  0  0  0  0  0
    2.3724    1.0946    0.0000 C   0  0  0  0  0  0  0  0  0  0  0  0
    5.8828   -1.9679    0.0000 C   0  0  0  0  0  0  0  0  0  0  0  0
    3.0951   -1.8358    0.0000 C   0  0  0  0  0  0  0  0  0  0  0  0
    3.8327   -3.1248    0.0000 C   0  0  0  0  0  0  0  0  0  0  0  0
    3.0885   -2.6951    0.0000 C   0  0  0  0  0  0  0  0  0  0  0  0
    3.0821    2.3348    0.0000 C   0  0  0  0  0  0  0  0  0  0  0  0
    1.6532    2.3293    0.0000 C   0  0  0  0  0  0  0  0  0  0  0  0
    3.0789    3.1598    0.0000 C   0  0  0  0  0  0  0  0  0  0  0  0
    1.6500    3.1543    0.0000 C   0  0  0  0  0  0  0  0  0  0  0  0
  1 16  2  0
  2  5  1  0
  2  9  1  0
  2 15  1  0
  3 14  1  0
  3 17  1  0
  4 16  1  0
  4 21  1  0
  4 22  1  0
  5  6  1  0
  5  7  1  6
  6 11  1  0
  6 13  2  0
  7 10  1  0
  8  9  1  0
  8 13  1  0
  8 16  1  1
 10 12  1  0
 10 17  2  0
 11 12  2  0
 11 18  1  0
 12 14  1  0
 14 19  2  0
 18 20  2  0
 19 20  1  0
 21 23  1  0
 22 24  1  0
M  END
>  <DRUGBANK_ID>  (1) 
DB04829

>  <COMMON_NAME>  (1) 
Lysergic acid diethylamide

>  <CAS_NUMBER>  (1) 
50-37-3

>  <UNII>  (1) 
8NA5SWF92O

>  <SYNONYMS>  (1) 
(+)-LSD; D-lysergic acid diethylamide; Diethylamid kyseliny lysergove; LSD; LSD 25; Lysergic acid diethylamide; Lysergide; Lysergidum; Lysergsäurediäthylamid; Lysergsäurediethylamid; N,N-diethyl-(+)-lysergamide; N,N-diethyl-D-lysergamide; N,N-diethyllysergamide

$$$$
