
     RDKit          2D

 15 14  0  0  1  0  0  0  0  0999 V2000
   -0.1914    0.7145    0.0000 C   0  0  0  0  0  0  0  0  0  0  0  0
    0.5230    1.1270    0.0000 C   0  0  0  0  0  0  0  0  0  0  0  0
    1.2375    0.7145    0.0000 C   0  0  0  0  0  0  0  0  0  0  0  0
    1.9520    1.1270    0.0000 C   0  0  0  0  0  0  0  0  0  0  0  0
    2.6664    0.7145    0.0000 C   0  0  0  0  0  0  0  0  0  0  0  0
    0.5230    1.9520    0.0000 O   0  0  0  0  0  0  0  0  0  0  0  0
    1.2375   -0.1105    0.0000 O   0  0  0  0  0  0  0  0  0  0  0  0
    1.9520    1.9520    0.0000 O   0  0  0  0  0  0  0  0  0  0  0  0
    3.3809    1.1270    0.0000 O   0  0  0  0  0  0  0  0  0  0  0  0
    2.6664   -0.1105    0.0000 O   0  0  0  0  0  0  0  0  0  0  0  0
   -2.3349    0.3020    0.0000 O   0  0  0  0  0  0  0  0  0  0  0  0
   -2.0329    1.4289    0.0000 O   0  0  0  0  0  0  0  0  0  0  0  0
   -1.2079    0.0000    0.0000 O   0  0  0  0  0  0  0  0  0  0  0  0
   -0.9059    1.1270    0.0000 O   0  0  0  0  0  0  0  0  0  0  0  0
   -1.6204    0.7145    0.0000 P   0  0  0  0  0  0  0  0  0  0  0  0
  2  1  1  0
  2  6  1  1
  3  2  1  0
  3  7  1  6
  4  3  1  0
  4  8  1  6
  5  4  1  0
  9  5  2  0
 10  5  1  0
 14  1  1  0
 15 11  1  0
 15 12  1  0
 15 13  2  0
 15 14  1  0
M  END
>  <DRUGBANK_ID>  (1) 
DB03042

>  <SECONDARY_ACCESSION_NUMBERS>  (1) 
EXPT02485

>  <COMMON_NAME>  (1) 
5-Phosphoarabinonic Acid

$$$$
