
     RDKit          2D

 22 23  0  0  1  0  0  0  0  0999 V2000
   -0.7145    0.4125    0.0000 O   0  0  0  0  0  0  0  0  0  0  0  0
    0.0000    0.0000    0.0000 C   0  0  0  0  0  0  0  0  0  0  0  0
    0.7145    0.4125    0.0000 C   0  0  0  0  0  0  0  0  0  0  0  0
    0.0000   -0.8250    0.0000 O   0  0  0  0  0  0  0  0  0  0  0  0
    0.7145    1.2375    0.0000 O   0  0  0  0  0  0  0  0  0  0  0  0
    1.4290    0.0000    0.0000 C   0  0  0  0  0  0  0  0  0  0  0  0
    1.4290   -0.8250    0.0000 C   0  0  0  0  0  0  0  0  0  0  0  0
    2.1434    0.4125    0.0000 C   0  0  0  0  0  0  0  0  0  0  0  0
    2.8579    0.0001    0.0000 C   0  0  0  0  0  0  0  0  0  0  0  0
    2.8579   -0.8250    0.0000 C   0  0  0  0  0  0  0  0  0  0  0  0
    2.1434   -1.2375    0.0000 C   0  0  0  0  0  0  0  0  0  0  0  0
   -2.0738   -1.3395    0.0000 C   0  0  0  0  0  0  0  0  0  0  0  0
   -1.4289   -0.8250    0.0000 C   0  0  0  0  0  0  0  0  0  0  0  0
   -2.8783    0.3307    0.0000 C   0  0  0  0  0  0  0  0  0  0  0  0
   -2.0740    0.5143    0.0000 C   0  0  0  0  0  0  0  0  0  0  0  0
   -1.4289    0.0000    0.0000 C   0  0  0  0  0  0  0  0  0  0  0  0
   -1.9509   -0.1194    0.0000 N   0  0  0  0  0  0  0  0  0  0  0  0
   -1.2473    1.5548    0.0000 Br  0  0  0  0  0  0  0  0  0  0  0  0
   -3.2908   -0.3838    0.0000 C   0  0  0  0  0  0  0  0  0  0  0  0
   -2.8707   -1.1260    0.0000 C   0  0  0  0  0  0  0  0  0  0  0  0
   -1.7374    0.6774    0.0000 C   0  0  0  0  0  0  0  0  0  0  0  0
   -1.1540   -0.3330    0.0000 C   0  0  0  0  0  0  0  0  0  0  0  0
  2  1  1  0
  2  4  2  0
  3  2  1  0
  3  6  1  0
  3  5  1  0
  6  8  1  0
  7  6  2  0
  7 11  1  0
  8  9  2  0
  9 10  1  0
 10 11  2  0
 12 17  1  0
 12 20  1  0
 13 12  1  0
 14 17  1  0
 14 19  1  0
 15 14  1  0
 15 16  1  0
 16  1  1  0
 16 13  1  0
 17 21  1  0
 17 22  1  0
 20 19  1  0
M  CHG  2  17   1  18  -1
M  END
>  <DRUGBANK_ID>  (1) 
DB00725

>  <SECONDARY_ACCESSION_NUMBERS>  (1) 
APRD01017

>  <COMMON_NAME>  (1) 
Homatropine methylbromide

>  <CAS_NUMBER>  (1) 
80-49-9

>  <UNII>  (1) 
68JRS2HC1C

>  <SYNONYMS>  (1) 
3-alpha-Hydroxy-8-methyl-1-alpha-H,5-alpha-H-tropanium bromide mandelate; 8-Methylhomatropinium bromide; Homatropine methylbromide; Homatropini methylbromidum; MÃ©thylbromure d'homatropine; Methylhomatropine; Methylhomatropine bromide; Methylhomatropinum bromatum; Metilbromuro de homatropina; Omatropina metilbromuro; Tropinium methobromide mandelate

$$$$
