
     RDKit          2D

 30 34  0  0  1  0  0  0  0  0999 V2000
   -1.6904   -1.6839    0.0000 C   0  0  0  0  0  0  0  0  0  0  0  0
   -1.2779   -0.9694    0.0000 C   0  0  0  0  0  0  0  0  0  0  0  0
   -1.6904   -0.2549    0.0000 C   0  0  0  0  0  0  0  0  0  0  0  0
   -1.2779    0.4595    0.0000 C   0  0  0  0  0  0  0  0  0  0  0  0
   -1.6904    1.1740    0.0000 C   0  0  0  0  0  0  0  0  0  0  0  0
   -0.4529    0.4595    0.0000 N   0  0  0  0  0  0  0  0  0  0  0  0
   -0.0404   -0.2549    0.0000 C   0  0  0  0  0  0  0  0  0  0  0  0
   -0.4529   -0.9694    0.0000 N   0  0  0  0  0  0  0  0  0  0  0  0
    0.7846   -0.2549    0.0000 N   0  0  0  0  0  0  0  0  0  0  0  0
    1.2695    0.4125    0.0000 C   0  0  0  0  0  0  0  0  0  0  0  0
    2.0542    0.1576    0.0000 C   0  0  0  0  0  0  0  0  0  0  0  0
    2.8388    0.4125    0.0000 C   0  0  0  0  0  0  0  0  0  0  0  0
    3.3237   -0.2549    0.0000 N   0  0  0  0  0  0  0  0  0  0  0  0
    2.8388   -0.9224    0.0000 C   0  0  0  0  0  0  0  0  0  0  0  0
    2.0542   -0.6674    0.0000 C   0  0  0  0  0  0  0  0  0  0  0  0
    1.2695   -0.9224    0.0000 C   0  0  0  0  0  0  0  0  0  0  0  0
    4.1487   -0.2549    0.0000 C   0  0  0  0  0  0  0  0  0  0  0  0
    4.5612   -0.9694    0.0000 O   0  0  0  0  0  0  0  0  0  0  0  0
    4.5612    0.4595    0.0000 C   0  0  0  0  0  0  0  0  0  0  0  0
    4.1487    1.1740    0.0000 C   0  0  0  0  0  0  0  0  0  0  0  0
    3.3237    1.1740    0.0000 F   0  0  0  0  0  0  0  0  0  0  0  0
    4.5612    1.8885    0.0000 C   0  0  0  0  0  0  0  0  0  0  0  0
    5.3862    1.8885    0.0000 C   0  0  0  0  0  0  0  0  0  0  0  0
    5.7987    1.1740    0.0000 C   0  0  0  0  0  0  0  0  0  0  0  0
    5.3862    0.4595    0.0000 C   0  0  0  0  0  0  0  0  0  0  0  0
    5.7987   -0.2549    0.0000 N   0  0  0  0  0  0  0  0  0  0  0  0
    6.6192   -0.3412    0.0000 N   0  0  0  0  0  0  0  0  0  0  0  0
    6.7907   -1.1481    0.0000 C   0  0  0  0  0  0  0  0  0  0  0  0
    6.0762   -1.5606    0.0000 C   0  0  0  0  0  0  0  0  0  0  0  0
    5.4632   -1.0086    0.0000 N   0  0  0  0  0  0  0  0  0  0  0  0
  1  2  1  0
  2  3  2  0
  2  8  1  0
  3  4  1  0
  4  5  1  0
  4  6  2  0
  6  7  1  0
  7  8  2  0
  7  9  1  0
  9 10  1  0
  9 16  1  0
 11 10  1  6
 11 12  1  0
 11 15  1  0
 12 13  1  0
 13 14  1  0
 13 17  1  0
 15 14  1  6
 15 16  1  0
 17 18  2  0
 17 19  1  0
 19 20  2  0
 19 25  1  0
 20 21  1  0
 20 22  1  0
 22 23  2  0
 23 24  1  0
 24 25  2  0
 25 26  1  0
 26 27  1  0
 26 30  1  0
 27 28  2  0
 28 29  1  0
 29 30  2  0
M  END
>  <DRUGBANK_ID>  (1) 
DB14961

>  <COMMON_NAME>  (1) 
Seltorexant

>  <CAS_NUMBER>  (1) 
1452539-75-1

>  <UNII>  (1) 
AIS8N3O50B

>  <SYNONYMS>  (1) 
JNJ-42847922; Seltorexant

$$$$
