
     RDKit          2D

  4  3  0  0  0  0  0  0  0  0999 V2000
    0.4125    1.0717    0.0000 O   0  0  0  0  0  0  0  0  0  0  0  0
    0.0000    0.3572    0.0000 Sb  0  0  0  0  0  3  0  0  0  0  0  0
    0.4125   -0.3572    0.0000 O   0  0  0  0  0  0  0  0  0  0  0  0
   -0.8250    0.3572    0.0000 O   0  0  0  0  0  0  0  0  0  0  0  0
  1  2  1  0
  2  3  1  0
  2  4  1  0
M  END
>  <DRUGBANK_ID>  (1) 
DB02453

>  <SECONDARY_ACCESSION_NUMBERS>  (1) 
EXPT02857

>  <COMMON_NAME>  (1) 
Antimonous acid

>  <SYNONYMS>  (1) 
Stiborous acid; Trihydroxyantimonite(III)

$$$$
