
     RDKit          2D

 15 15  0  0  0  0  0  0  0  0999 V2000
   -0.8958   -1.2375    0.0000 C   0  0  0  0  0  0  0  0  0  0  0  0
   -0.1813   -0.8250    0.0000 C   0  0  0  0  0  0  0  0  0  0  0  0
   -1.6102   -0.8250    0.0000 C   0  0  0  0  0  0  0  0  0  0  0  0
   -0.1813    0.0000    0.0000 C   0  0  0  0  0  0  0  0  0  0  0  0
   -1.6102    0.0000    0.0000 C   0  0  0  0  0  0  0  0  0  0  0  0
   -0.8958    0.4125    0.0000 C   0  0  0  0  0  0  0  0  0  0  0  0
   -2.3247    0.4125    0.0000 C   0  0  0  0  0  0  0  0  0  0  0  0
   -0.8958    1.2375    0.0000 O   0  0  0  0  0  0  0  0  0  0  0  0
   -3.0392    0.0000    0.0000 O   0  0  0  0  0  0  0  0  0  0  0  0
   -2.3247    1.2375    0.0000 O   0  0  0  0  0  0  0  0  0  0  0  0
    3.0392    0.2581    0.0000 C   0  0  0  0  0  0  0  0  0  0  0  0
    2.3717    0.7430    0.0000 C   0  0  0  0  0  0  0  0  0  0  0  0
    1.9592   -0.5265    0.0000 C   0  0  0  0  0  0  0  0  0  0  0  0
    2.7842   -0.5265    0.0000 N   0  0  0  0  0  0  0  0  0  0  0  0
    1.7043    0.2581    0.0000 N   0  0  0  0  0  0  0  0  0  0  0  0
  2  1  2  0
  3  1  1  0
  4  2  1  0
  5  3  2  0
  6  4  2  0
  6  5  1  0
  7  5  1  0
  8  6  1  0
  9  7  2  0
 10  7  1  0
 12 11  2  0
 14 11  1  0
 14 13  2  0
 15 12  1  0
 15 13  1  0
M  END
>  <DRUGBANK_ID>  (1) 
DB13860

>  <COMMON_NAME>  (1) 
Imidazole salicylate

>  <CAS_NUMBER>  (1) 
36364-49-5

>  <UNII>  (1) 
4JVD4X01MJ

>  <SYNONYMS>  (1) 
Imidazole salicylate; Imidazole-2-hydroxybenzoate; Imidazoli salicylas; Imidazolsalicylat; Salicilato de imidazol

$$$$
