6SC
     RDKit          2D

 24 27  0  0  0  0  0  0  0  0999 V2000
   -2.2592    1.0370    0.0000 C   0  0  0  0  0  0  0  0  0  0  0  0
   -1.4746    0.7820    0.0000 C   0  0  0  0  0  0  0  0  0  0  0  0
   -1.4746   -0.0430    0.0000 N   0  0  0  0  0  0  0  0  0  0  0  0
   -2.2592   -0.2979    0.0000 N   0  0  0  0  0  0  0  0  0  0  0  0
   -2.7441    0.3695    0.0000 C   0  0  0  0  0  0  0  0  0  0  0  0
   -0.7601    1.1945    0.0000 N   0  0  0  0  0  0  0  0  0  0  0  0
   -0.0457    0.7820    0.0000 C   0  0  0  0  0  0  0  0  0  0  0  0
   -0.0457   -0.0430    0.0000 C   0  0  0  0  0  0  0  0  0  0  0  0
   -0.7601   -0.4555    0.0000 C   0  0  0  0  0  0  0  0  0  0  0  0
   -0.7601   -1.2805    0.0000 N   0  0  0  0  0  0  0  0  0  0  0  0
    0.6688    1.1945    0.0000 C   0  0  0  0  0  0  0  0  0  0  0  0
   -1.4746   -1.6930    0.0000 C   0  0  0  0  0  0  0  0  0  0  0  0
   -1.4746   -2.5180    0.0000 C   0  0  0  0  0  0  0  0  0  0  0  0
   -2.1891   -2.9305    0.0000 C   0  0  0  0  0  0  0  0  0  0  0  0
   -2.1891   -3.7555    0.0000 C   0  0  0  0  0  0  0  0  0  0  0  0
   -1.4746   -4.1680    0.0000 N   0  0  0  0  0  0  0  0  0  0  0  0
   -0.7601   -3.7555    0.0000 C   0  0  0  0  0  0  0  0  0  0  0  0
   -0.7601   -2.9305    0.0000 C   0  0  0  0  0  0  0  0  0  0  0  0
    0.6688    2.0195    0.0000 C   0  0  0  0  0  0  0  0  0  0  0  0
    1.3833    2.4320    0.0000 C   0  0  0  0  0  0  0  0  0  0  0  0
    2.0978    2.0195    0.0000 C   0  0  0  0  0  0  0  0  0  0  0  0
    2.0978    1.1945    0.0000 C   0  0  0  0  0  0  0  0  0  0  0  0
    1.3833    0.7820    0.0000 C   0  0  0  0  0  0  0  0  0  0  0  0
   -2.5142    1.8216    0.0000 Br  0  0  0  0  0  0  0  0  0  0  0  0
  1  2  2  0
  1 24  1  0
  2  6  1  0
  3  9  1  0
  3  2  1  0
  4  5  2  0
  4  3  1  0
  5  1  1  0
  7  6  2  0
  7 11  1  0
  8  7  1  0
  9  8  2  0
 10 12  1  0
 10  9  1  0
 11 19  2  0
 11 23  1  0
 13 18  1  0
 13 12  1  0
 14 13  2  0
 15 16  2  0
 15 14  1  0
 16 17  1  0
 17 18  2  0
 19 20  1  0
 20 21  2  0
 22 21  1  0
 23 22  2  0
M  END
>  <DRUGBANK_ID>  (1) 
DB07210

>  <COMMON_NAME>  (1) 
3-bromo-5-phenyl-N-(pyridin-4-ylmethyl)pyrazolo[1,5-a]pyrimidin-7-amine

$$$$
