PFA
     RDKit          2D

 27 29  0  0  0  0  0  0  0  0999 V2000
    3.5054    0.4075    0.0000 O   0  0  0  0  0  0  0  0  0  0  0  0
    3.5054   -0.4175    0.0000 C   0  0  0  0  0  0  0  0  0  0  0  0
    4.2199   -0.8300    0.0000 N   0  0  0  0  0  0  0  0  0  0  0  0
    4.2199   -1.6550    0.0000 C   0  0  0  0  0  0  0  0  0  0  0  0
    4.9344   -2.0675    0.0000 O   0  0  0  0  0  0  0  0  0  0  0  0
    2.7909   -0.8300    0.0000 N   0  0  0  0  0  0  0  0  0  0  0  0
    2.7909   -1.6550    0.0000 N   0  0  0  0  0  0  0  0  0  0  0  0
    3.5054   -2.0675    0.0000 C   0  0  0  0  0  0  0  0  0  0  0  0
    2.0765   -0.4175    0.0000 C   0  0  0  0  0  0  0  0  0  0  0  0
    1.3620   -0.8300    0.0000 C   0  0  0  0  0  0  0  0  0  0  0  0
    0.6475   -0.4175    0.0000 C   0  0  0  0  0  0  0  0  0  0  0  0
   -0.0669   -0.8300    0.0000 C   0  0  0  0  0  0  0  0  0  0  0  0
    2.0765    0.4075    0.0000 C   0  0  0  0  0  0  0  0  0  0  0  0
    1.3620    0.8200    0.0000 C   0  0  0  0  0  0  0  0  0  0  0  0
    1.3620    1.6450    0.0000 C   0  0  0  0  0  0  0  0  0  0  0  0
    0.6475    0.4075    0.0000 C   0  0  0  0  0  0  0  0  0  0  0  0
   -0.0669    0.8200    0.0000 O   0  0  0  0  0  0  0  0  0  0  0  0
   -0.7814    0.4075    0.0000 C   0  0  0  0  0  0  0  0  0  0  0  0
   -0.7814   -0.4175    0.0000 C   0  0  0  0  0  0  0  0  0  0  0  0
   -1.4959    0.8200    0.0000 C   0  0  0  0  0  0  0  0  0  0  0  0
   -2.2104    0.4075    0.0000 C   0  0  0  0  0  0  0  0  0  0  0  0
   -2.9248    0.8200    0.0000 C   0  0  0  0  0  0  0  0  0  0  0  0
   -3.6393    0.4075    0.0000 C   0  0  0  0  0  0  0  0  0  0  0  0
   -2.9248    1.6450    0.0000 C   0  0  0  0  0  0  0  0  0  0  0  0
   -2.2104   -0.4175    0.0000 C   0  0  0  0  0  0  0  0  0  0  0  0
   -1.4959   -0.8300    0.0000 C   0  0  0  0  0  0  0  0  0  0  0  0
   -2.9248   -0.8300    0.0000 O   0  0  0  0  0  0  0  0  0  0  0  0
  1  2  2  0
  2  3  1  0
  2  6  1  0
  3  4  1  0
  4  5  2  0
  4  8  1  0
  6  7  1  0
  6  9  1  0
  7  8  2  0
  9 10  2  0
  9 13  1  0
 10 11  1  0
 11 12  1  0
 11 16  2  0
 13 14  2  0
 14 15  1  0
 14 16  1  0
 16 17  1  0
 17 18  1  0
 18 19  2  0
 18 20  1  0
 19 26  1  0
 20 21  2  0
 21 22  1  0
 21 25  1  0
 22 23  1  0
 22 24  1  0
 25 26  2  0
 25 27  1  0
M  END
>  <DRUGBANK_ID>  (1) 
DB03181

>  <SECONDARY_ACCESSION_NUMBERS>  (1) 
EXPT02554

>  <COMMON_NAME>  (1) 
2-[4-(4-Hydroxy-3-Isopropyl-Phenoxy)-3,5-Dimethyl-Phenyl]-2h-[1,2,4]Triazine-3,5-Dione

$$$$
