
     RDKit          2D

 25 28  0  0  0  0  0  0  0  0999 V2000
    2.2897    0.5936    0.0000 C   0  0  0  0  0  0  0  0  0  0  0  0
    1.7636    1.2291    0.0000 C   0  0  0  0  0  0  0  0  0  0  0  0
    0.9502    1.0912    0.0000 C   0  0  0  0  0  0  0  0  0  0  0  0
    0.4241    1.7267    0.0000 N   0  0  0  0  0  0  0  0  0  0  0  0
    0.7114    2.5001    0.0000 C   0  0  0  0  0  0  0  0  0  0  0  0
    0.1853    3.1356    0.0000 O   0  0  0  0  0  0  0  0  0  0  0  0
    1.5248    2.6379    0.0000 C   0  0  0  0  0  0  0  0  0  0  0  0
    1.8121    3.4113    0.0000 N   0  0  0  0  0  0  0  0  0  0  0  0
    2.6255    3.5491    0.0000 C   0  0  0  0  0  0  0  0  0  0  0  0
    2.9129    4.3225    0.0000 C   0  0  0  0  0  0  0  0  0  0  0  0
    3.7263    4.4603    0.0000 C   0  0  0  0  0  0  0  0  0  0  0  0
    4.0136    5.2337    0.0000 N   0  0  0  0  0  0  0  0  0  0  0  0
    4.2523    3.8248    0.0000 N   0  0  0  0  0  0  0  0  0  0  0  0
    3.9650    3.0515    0.0000 C   0  0  0  0  0  0  0  0  0  0  0  0
    3.1516    2.9136    0.0000 N   0  0  0  0  0  0  0  0  0  0  0  0
    2.0509    2.0024    0.0000 C   0  0  0  0  0  0  0  0  0  0  0  0
   -0.3428    1.4227    0.0000 C   0  0  0  0  0  0  0  0  0  0  0  0
   -1.0738    1.0403    0.0000 C   0  0  0  0  0  0  0  0  0  0  0  0
   -1.7705    1.4821    0.0000 C   0  0  0  0  0  0  0  0  0  0  0  0
   -1.7363    2.3064    0.0000 C   0  0  0  0  0  0  0  0  0  0  0  0
   -1.0053    2.6888    0.0000 C   0  0  0  0  0  0  0  0  0  0  0  0
   -0.3086    2.2470    0.0000 C   0  0  0  0  0  0  0  0  0  0  0  0
   -0.2908    0.5994    0.0000 N   0  0  0  0  0  0  0  0  0  0  0  0
    0.5084    0.3945    0.0000 C   0  0  0  0  0  0  0  0  0  0  0  0
    0.8124   -0.3725    0.0000 O   0  0  0  0  0  0  0  0  0  0  0  0
  1  2  1  0
  2  3  2  0
  2 16  1  0
  3  4  1  0
  3 24  1  0
  4  5  1  0
  4 17  1  0
  5  6  2  0
  5  7  1  0
  7  8  1  0
  7 16  2  0
  8  9  1  0
  9 10  2  0
  9 15  1  0
 10 11  1  0
 11 12  1  0
 11 13  2  0
 13 14  1  0
 14 15  2  0
 17 18  1  0
 17 22  1  0
 17 23  1  0
 18 19  1  0
 19 20  1  0
 20 21  1  0
 21 22  1  0
 23 24  1  0
 24 25  2  0
M  END
>  <DRUGBANK_ID>  (1) 
DB15219

>  <COMMON_NAME>  (1) 
Tomivosertib

>  <CAS_NUMBER>  (1) 
1849590-01-7

>  <UNII>  (1) 
U2H19X4WBV

>  <SYNONYMS>  (1) 
6'-((6-Amino-4-pyrimidinyl)amino)-8'-methyl-2'H-spiro(cyclohexane-1,3'-imidazo(1,5-a)pyridine)-1',5'-dione; Tomivosertib

$$$$
