
     RDKit          2D

 31 34  0  0  0  0  0  0  0  0999 V2000
    2.5015   -0.5502    0.0000 P   0  0  0  0  0  0  0  0  0  0  0  0
    0.5018    2.3030    0.0000 P   0  0  0  0  0  0  0  0  0  0  0  0
    0.8013    3.7002    0.0000 P   0  0  0  0  0  0  0  0  0  0  0  0
   -0.0301   -0.5459    0.0000 O   0  0  0  0  0  0  0  0  0  0  0  0
    2.0189   -1.2133    0.0000 O   0  0  0  0  0  0  0  0  0  0  0  0
    2.0212    0.1144    0.0000 O   0  0  0  0  0  0  0  0  0  0  0  0
    0.7553    1.5179    0.0000 O   0  0  0  0  0  0  0  0  0  0  0  0
    3.1698   -0.0664    0.0000 O   0  0  0  0  0  0  0  0  0  0  0  0
    3.1682   -1.0363    0.0000 O   0  0  0  0  0  0  0  0  0  0  0  0
    0.2482    3.0881    0.0000 O   0  0  0  0  0  0  0  0  0  0  0  0
    1.2870    2.5565    0.0000 O   0  0  0  0  0  0  0  0  0  0  0  0
   -0.2832    2.0494    0.0000 O   0  0  0  0  0  0  0  0  0  0  0  0
   -1.2978   -4.3124    0.0000 O   0  0  0  0  0  0  0  0  0  0  0  0
    0.1892    4.2533    0.0000 O   0  0  0  0  0  0  0  0  0  0  0  0
    1.3544    4.3124    0.0000 O   0  0  0  0  0  0  0  0  0  0  0  0
    1.4135    3.1471    0.0000 O   0  0  0  0  0  0  0  0  0  0  0  0
    0.1972   -1.9984    0.0000 N   0  0  0  0  0  0  0  0  0  0  0  0
    0.1972   -3.3262    0.0000 N   0  0  0  0  0  0  0  0  0  0  0  0
   -1.2978   -1.8373    0.0000 N   0  0  0  0  0  0  0  0  0  0  0  0
   -2.0122   -3.0748    0.0000 N   0  0  0  0  0  0  0  0  0  0  0  0
   -2.7268   -1.8373    0.0000 N   0  0  0  0  0  0  0  0  0  0  0  0
    1.2386   -0.9606    0.0000 C   0  0  0  0  0  0  0  0  0  0  0  0
    1.2400   -0.1356    0.0000 C   0  0  0  0  0  0  0  0  0  0  0  0
    0.4535   -1.2142    0.0000 C   0  0  0  0  0  0  0  0  0  0  0  0
    0.4559    0.1207    0.0000 C   0  0  0  0  0  0  0  0  0  0  0  0
    0.2022    0.9057    0.0000 C   0  0  0  0  0  0  0  0  0  0  0  0
   -0.5833   -2.2498    0.0000 C   0  0  0  0  0  0  0  0  0  0  0  0
    0.6787   -2.6623    0.0000 C   0  0  0  0  0  0  0  0  0  0  0  0
   -0.5833   -3.0748    0.0000 C   0  0  0  0  0  0  0  0  0  0  0  0
   -1.2978   -3.4874    0.0000 C   0  0  0  0  0  0  0  0  0  0  0  0
   -2.0122   -2.2498    0.0000 C   0  0  0  0  0  0  0  0  0  0  0  0
  1  5  1  0
  1  6  1  0
  1  8  1  0
  1  9  2  0
  2  7  1  0
  2 10  1  0
  2 11  1  0
  2 12  2  0
  3 10  1  0
  3 14  1  0
  3 15  1  0
  3 16  2  0
  4 24  1  0
  4 25  1  0
 22  5  1  1
 23  6  1  1
  7 26  1  0
 13 30  2  0
 17 27  1  0
 17 28  1  0
 18 28  2  0
 18 29  1  0
 19 27  1  0
 19 31  1  0
 20 30  1  0
 20 31  2  0
 21 31  1  0
 22 23  1  0
 22 24  1  0
 23 25  1  0
 24 17  1  6
 25 26  1  6
 27 29  2  0
 29 30  1  0
M  END
>  <DRUGBANK_ID>  (1) 
DB02836

>  <SECONDARY_ACCESSION_NUMBERS>  (1) 
EXPT01643

>  <COMMON_NAME>  (1) 
Guanosine 5'-diphosphate 2':3'-cyclic monophosphate

$$$$
