
     RDKit          2D

 19 18  0  0  0  0  0  0  0  0999 V2000
   -2.1434    1.0312    0.0000 C   0  0  0  0  0  0  0  0  0  0  0  0
    2.1433    1.0312    0.0000 C   0  0  0  0  0  0  0  0  0  0  0  0
   -2.8577    0.6186    0.0000 N   0  0  0  0  0  0  0  0  0  0  0  0
    2.1433    1.8561    0.0000 O   0  0  0  0  0  0  0  0  0  0  0  0
   -1.4289    0.6186    0.0000 N   0  0  0  0  0  0  0  0  0  0  0  0
    1.4289    0.6186    0.0000 C   0  0  0  0  0  0  0  0  0  0  0  0
   -2.1434    1.8561    0.0000 N   0  0  0  0  0  0  0  0  0  0  0  0
    1.4289   -0.2062    0.0000 N   0  0  0  0  0  0  0  0  0  0  0  0
   -0.7144    1.0312    0.0000 C   0  0  0  0  0  0  0  0  0  0  0  0
    0.7144    1.0312    0.0000 C   0  0  0  0  0  0  0  0  0  0  0  0
    0.0000    0.6186    0.0000 C   0  0  0  0  0  0  0  0  0  0  0  0
    2.8577    0.6186    0.0000 O   0  0  0  0  0  0  0  0  0  0  0  0
    0.7144   -0.6186    0.0000 C   0  0  0  0  0  0  0  0  0  0  0  0
    0.7144   -1.4437    0.0000 O   0  0  0  0  0  0  0  0  0  0  0  0
    0.0000   -0.2062    0.0000 C   0  0  0  0  0  0  0  0  0  0  0  0
    0.0000   -1.8561    0.0000 O   0  0  0  0  0  0  0  0  0  0  0  0
   -0.7144   -0.6186    0.0000 C   0  0  0  0  0  0  0  0  0  0  0  0
   -0.7144   -1.4437    0.0000 C   0  0  0  0  0  0  0  0  0  0  0  0
   -1.4289   -1.8561    0.0000 O   0  0  0  0  0  0  0  0  0  0  0  0
  1  3  2  0
  1  5  1  0
  1  7  1  0
  2  6  1  0
  2  4  2  0
  5  9  1  0
  6 10  1  1
  6  8  1  0
  8 13  1  0
  9 11  1  0
 10 11  1  0
 12  2  1  0
 14 13  2  0
 15 13  1  0
 17 15  1  0
 18 16  2  0
 18 17  1  0
 19 18  1  0
M  END
>  <DRUGBANK_ID>  (1) 
DB02501

>  <SECONDARY_ACCESSION_NUMBERS>  (1) 
EXPT02979

>  <COMMON_NAME>  (1) 
N(2)-succinyl-L-arginine

>  <SYNONYMS>  (1) 
N2-Succinyl-L-arginine; Succinyl-arginine; Succinylarginine

$$$$
