
     RDKit          2D

 23 22  0  0  0  0  0  0  0  0999 V2000
   -0.3587    0.2036    0.0000 O   0  0  0  0  0  0  0  0  0  0  0  0
    1.0666    4.3341    0.0000 O   0  0  0  0  0  0  0  0  0  0  0  0
    2.5016    4.3341    0.0000 O   0  0  0  0  0  0  0  0  0  0  0  0
    2.5016    2.6858    0.0000 C   0  0  0  0  0  0  0  0  0  0  0  0
    2.5016    1.8616    0.0000 C   0  0  0  0  0  0  0  0  0  0  0  0
   -0.3587   -0.6205    0.0000 C   0  0  0  0  0  0  0  0  0  0  0  0
   -1.0763   -1.0277    0.0000 C   0  0  0  0  0  0  0  0  0  0  0  0
    1.7841    3.0930    0.0000 C   0  0  0  0  0  0  0  0  0  0  0  0
    3.2191    1.4447    0.0000 C   0  0  0  0  0  0  0  0  0  0  0  0
   -1.7938   -0.6205    0.0000 C   0  0  0  0  0  0  0  0  0  0  0  0
    0.3587   -1.0277    0.0000 C   0  0  0  0  0  0  0  0  0  0  0  0
    2.5016    0.2036    0.0000 C   0  0  0  0  0  0  0  0  0  0  0  0
    3.2191    0.6205    0.0000 C   0  0  0  0  0  0  0  0  0  0  0  0
   -2.5016   -1.8616    0.0000 C   0  0  0  0  0  0  0  0  0  0  0  0
   -2.5016   -1.0277    0.0000 C   0  0  0  0  0  0  0  0  0  0  0  0
    1.0666   -0.6205    0.0000 C   0  0  0  0  0  0  0  0  0  0  0  0
    2.5016   -0.6205    0.0000 C   0  0  0  0  0  0  0  0  0  0  0  0
    1.7841    3.9269    0.0000 C   0  0  0  0  0  0  0  0  0  0  0  0
    1.7841   -1.0277    0.0000 C   0  0  0  0  0  0  0  0  0  0  0  0
   -3.2191   -2.2689    0.0000 C   0  0  0  0  0  0  0  0  0  0  0  0
   -3.2191   -3.0930    0.0000 C   0  0  0  0  0  0  0  0  0  0  0  0
   -2.5016   -3.5100    0.0000 C   0  0  0  0  0  0  0  0  0  0  0  0
   -2.5016   -4.3341    0.0000 C   0  0  0  0  0  0  0  0  0  0  0  0
  2 18  1  0
  3 18  2  0
  4  5  1  0
  4  8  1  0
  5  9  1  0
  6  1  1  1
  6  7  1  0
  6 11  1  0
  7 10  1  0
  8 18  1  0
  9 13  2  0
 10 15  2  0
 11 16  2  0
 12 13  1  0
 12 17  1  0
 14 15  1  0
 14 20  1  0
 16 19  1  0
 17 19  2  0
 20 21  2  0
 21 22  1  0
 22 23  1  0
M  END
>  <DRUGBANK_ID>  (1) 
DB15571

>  <COMMON_NAME>  (1) 
(12R)-12-hydroxyeicosapentaenoic acid

>  <CAS_NUMBER>  (1) 
109430-12-8

>  <UNII>  (1) 
78P2ZC128S

$$$$
