
     RDKit          2D

 39 43  0  0  0  0  0  0  0  0999 V2000
    8.5003   -7.5521    0.0000 C   0  0  0  0  0  0  0  0  0  0  0  0
    7.7858   -7.1396    0.0000 N   0  0  0  0  0  0  0  0  0  0  0  0
    7.0714   -7.5521    0.0000 C   0  0  0  0  0  0  0  0  0  0  0  0
    6.3569   -7.1396    0.0000 C   0  0  0  0  0  0  0  0  0  0  0  0
    6.3569   -6.3146    0.0000 N   0  0  0  0  0  0  0  0  0  0  0  0
    5.6424   -5.9021    0.0000 C   0  0  0  0  0  0  0  0  0  0  0  0
    5.6424   -5.0771    0.0000 C   0  0  0  0  0  0  0  0  0  0  0  0
    4.9279   -4.6646    0.0000 C   0  0  0  0  0  0  0  0  0  0  0  0
    4.9279   -3.8396    0.0000 C   0  0  0  0  0  0  0  0  0  0  0  0
    5.6424   -3.4271    0.0000 C   0  0  0  0  0  0  0  0  0  0  0  0
    5.6424   -2.6021    0.0000 N   0  0  0  0  0  0  0  0  0  0  0  0
    4.9279   -2.1896    0.0000 C   0  0  0  0  0  0  0  0  0  0  0  0
    4.2135   -2.6021    0.0000 O   0  0  0  0  0  0  0  0  0  0  0  0
    4.9279   -1.3646    0.0000 C   0  0  0  0  0  0  0  0  0  0  0  0
    4.2135   -0.9521    0.0000 C   0  0  0  0  0  0  0  0  0  0  0  0
    4.2135   -0.1271    0.0000 C   0  0  0  0  0  0  0  0  0  0  0  0
    3.4990    0.2854    0.0000 C   0  0  0  0  0  0  0  0  0  0  0  0
    2.7845    0.6979    0.0000 C   0  0  0  0  0  0  0  0  0  0  0  0
    2.0701    1.1104    0.0000 C   0  0  0  0  0  0  0  0  0  0  0  0
    1.3556    0.6979    0.0000 C   0  0  0  0  0  0  0  0  0  0  0  0
    0.6411    1.1104    0.0000 C   0  0  0  0  0  0  0  0  0  0  0  0
    0.6411    1.9354    0.0000 C   0  0  0  0  0  0  0  0  0  0  0  0
   -0.1435    2.1904    0.0000 N   0  0  0  0  0  0  0  0  0  0  0  0
   -0.6284    1.5229    0.0000 N   0  0  0  0  0  0  0  0  0  0  0  0
   -0.1435    0.8555    0.0000 C   0  0  0  0  0  0  0  0  0  0  0  0
    1.3556    2.3479    0.0000 N   0  0  0  0  0  0  0  0  0  0  0  0
    2.0701    1.9354    0.0000 C   0  0  0  0  0  0  0  0  0  0  0  0
    4.9279    0.2854    0.0000 C   0  0  0  0  0  0  0  0  0  0  0  0
    4.9279    1.1104    0.0000 C   0  0  0  0  0  0  0  0  0  0  0  0
    5.6424   -0.1271    0.0000 C   0  0  0  0  0  0  0  0  0  0  0  0
    5.6424   -0.9521    0.0000 C   0  0  0  0  0  0  0  0  0  0  0  0
    6.3569   -3.8396    0.0000 C   0  0  0  0  0  0  0  0  0  0  0  0
    6.3569   -4.6646    0.0000 C   0  0  0  0  0  0  0  0  0  0  0  0
    4.2135   -5.0771    0.0000 C   0  0  0  0  0  0  0  0  0  0  0  0
    3.4990   -5.4896    0.0000 F   0  0  0  0  0  0  0  0  0  0  0  0
    3.8010   -4.3626    0.0000 F   0  0  0  0  0  0  0  0  0  0  0  0
    4.6260   -5.7915    0.0000 F   0  0  0  0  0  0  0  0  0  0  0  0
    7.0714   -5.9021    0.0000 C   0  0  0  0  0  0  0  0  0  0  0  0
    7.7858   -6.3146    0.0000 C   0  0  0  0  0  0  0  0  0  0  0  0
  1  2  1  0
  2  3  1  0
  2 39  1  0
  3  4  1  0
  4  5  1  0
  5  6  1  0
  5 38  1  0
  6  7  1  0
  7  8  2  0
  7 33  1  0
  8  9  1  0
  8 34  1  0
  9 10  2  0
 10 11  1  0
 10 32  1  0
 11 12  1  0
 12 13  2  0
 12 14  1  0
 14 15  2  0
 14 31  1  0
 15 16  1  0
 16 17  1  0
 16 28  2  0
 17 18  3  0
 18 19  1  0
 19 20  2  0
 19 27  1  0
 20 21  1  0
 21 22  2  0
 21 25  1  0
 22 23  1  0
 22 26  1  0
 23 24  1  0
 24 25  2  0
 26 27  2  0
 28 29  1  0
 28 30  1  0
 30 31  2  0
 32 33  2  0
 34 35  1  0
 34 36  1  0
 34 37  1  0
 38 39  1  0
M  END
>  <DRUGBANK_ID>  (1) 
DB16185

>  <COMMON_NAME>  (1) 
HQP1351

>  <CAS_NUMBER>  (1) 
1257628-77-5

>  <UNII>  (1) 
KV1M7Q3CBP

>  <SYNONYMS>  (1) 
Hqp-1351 free base; Hqp1351 free base; Olverembatinib

$$$$
