PSG
     RDKit          2D

 21 22  0  0  0  0  0  0  0  0999 V2000
    1.0447   -1.6358    0.0000 C   0  0  0  0  0  0  0  0  0  0  0  0
    1.7592   -2.0483    0.0000 C   0  0  0  0  0  0  0  0  0  0  0  0
    1.7592   -2.8733    0.0000 C   0  0  0  0  0  0  0  0  0  0  0  0
    1.0447   -3.2858    0.0000 C   0  0  0  0  0  0  0  0  0  0  0  0
    0.3302   -2.8733    0.0000 C   0  0  0  0  0  0  0  0  0  0  0  0
    0.3302   -2.0483    0.0000 C   0  0  0  0  0  0  0  0  0  0  0  0
    2.4736   -3.2858    0.0000 N   0  0  0  0  0  0  0  0  0  0  0  0
    2.4736   -4.1108    0.0000 O   0  0  0  0  0  0  0  0  0  0  0  0
    3.1881   -2.8733    0.0000 O   0  0  0  0  0  0  0  0  0  0  0  0
   -0.3842   -1.6358    0.0000 S   0  0  0  0  0  0  0  0  0  0  0  0
   -0.3842   -0.8108    0.0000 C   0  0  0  0  0  0  0  0  0  0  0  0
   -1.0987   -0.3983    0.0000 C   0  0  0  0  0  0  0  0  0  0  0  0
   -1.0987    0.4267    0.0000 C   0  0  0  0  0  0  0  0  0  0  0  0
   -0.3842    0.8392    0.0000 C   0  0  0  0  0  0  0  0  0  0  0  0
    0.3302    0.4267    0.0000 C   0  0  0  0  0  0  0  0  0  0  0  0
    1.0447    0.8392    0.0000 C   0  0  0  0  0  0  0  0  0  0  0  0
   -1.8132   -0.8108    0.0000 O   0  0  0  0  0  0  0  0  0  0  0  0
   -1.8132    0.8392    0.0000 O   0  0  0  0  0  0  0  0  0  0  0  0
   -0.3842    1.6642    0.0000 O   0  0  0  0  0  0  0  0  0  0  0  0
    0.3302   -0.3983    0.0000 O   0  0  0  0  0  0  0  0  0  0  0  0
    1.7592    0.4267    0.0000 O   0  0  0  0  0  0  0  0  0  0  0  0
  1  2  2  0
  1  6  1  0
  2  3  1  0
  3  4  2  0
  3  7  1  0
  4  5  1  0
  5  6  2  0
  6 10  1  0
  7  8  2  0
  7  9  1  0
 11 10  1  1
 11 12  1  0
 11 20  1  0
 12 13  1  0
 12 17  1  6
 13 14  1  0
 13 18  1  1
 14 15  1  0
 14 19  1  6
 15 16  1  1
 15 20  1  0
 16 21  1  0
M  CHG  2   7   1   9  -1
M  END
>  <DRUGBANK_ID>  (1) 
DB08430

>  <COMMON_NAME>  (1) 
PARA-NITROPHENYL 1-THIO-BETA-D-GLUCOPYRANOSIDE

$$$$
