CMQ
     RDKit          2D

 31 32  0  0  0  0  0  0  0  0999 V2000
   -2.2798    0.8488    0.0000 O   0  0  0  0  0  0  0  0  0  0  0  0
   -2.2798    0.0238    0.0000 C   0  0  0  0  0  0  0  0  0  0  0  0
   -2.9943   -0.3887    0.0000 O   0  0  0  0  0  0  0  0  0  0  0  0
   -3.7087    0.0238    0.0000 C   0  0  0  0  0  0  0  0  0  0  0  0
   -3.7087    0.8488    0.0000 C   0  0  0  0  0  0  0  0  0  0  0  0
   -4.4232    1.2613    0.0000 C   0  0  0  0  0  0  0  0  0  0  0  0
   -4.4232    2.0863    0.0000 C   0  0  0  0  0  0  0  0  0  0  0  0
   -3.7087    2.4988    0.0000 C   0  0  0  0  0  0  0  0  0  0  0  0
   -2.9943    2.0863    0.0000 C   0  0  0  0  0  0  0  0  0  0  0  0
   -2.9943    1.2613    0.0000 C   0  0  0  0  0  0  0  0  0  0  0  0
   -1.5653   -0.3887    0.0000 N   0  0  0  0  0  0  0  0  0  0  0  0
   -0.8508    0.0238    0.0000 C   0  0  0  0  0  0  0  0  0  0  0  0
   -0.8508    0.8488    0.0000 C   0  0  0  0  0  0  0  0  0  0  0  0
   -0.1364    1.2613    0.0000 C   0  0  0  0  0  0  0  0  0  0  0  0
   -0.1364    2.0863    0.0000 C   0  0  0  0  0  0  0  0  0  0  0  0
    0.5781    0.8488    0.0000 C   0  0  0  0  0  0  0  0  0  0  0  0
   -0.1364   -0.3887    0.0000 C   0  0  0  0  0  0  0  0  0  0  0  0
   -0.1364   -1.2137    0.0000 O   0  0  0  0  0  0  0  0  0  0  0  0
    0.5781    0.0238    0.0000 N   0  0  0  0  0  0  0  0  0  0  0  0
    1.2926   -0.3887    0.0000 C   0  0  0  0  0  0  0  0  0  0  0  0
    1.2926   -1.2137    0.0000 C   0  0  0  0  0  0  0  0  0  0  0  0
    2.0070   -1.6262    0.0000 O   0  0  0  0  0  0  0  0  0  0  0  0
    0.5781   -1.6262    0.0000 C   0  0  0  0  0  0  0  0  0  0  0  0
    2.0070    0.0238    0.0000 C   0  0  0  0  0  0  0  0  0  0  0  0
    2.7215   -0.3887    0.0000 C   0  0  0  0  0  0  0  0  0  0  0  0
    3.4360    0.0238    0.0000 C   0  0  0  0  0  0  0  0  0  0  0  0
    4.1505   -0.3887    0.0000 C   0  0  0  0  0  0  0  0  0  0  0  0
    4.1505   -1.2137    0.0000 C   0  0  0  0  0  0  0  0  0  0  0  0
    4.8649   -1.6262    0.0000 O   0  0  0  0  0  0  0  0  0  0  0  0
    3.4360   -1.6262    0.0000 C   0  0  0  0  0  0  0  0  0  0  0  0
    2.7215   -1.2137    0.0000 C   0  0  0  0  0  0  0  0  0  0  0  0
  1  2  2  0
  2  3  1  0
  2 11  1  0
  3  4  1  0
  4  5  1  0
  5  6  2  0
  5 10  1  0
  6  7  1  0
  7  8  2  0
  8  9  1  0
  9 10  2  0
 12 11  1  0
 12 13  1  1
 12 17  1  0
 13 14  1  0
 14 15  1  0
 14 16  1  0
 17 18  2  0
 17 19  1  0
 20 19  1  0
 20 21  1  0
 20 24  1  1
 21 22  1  0
 21 23  1  1
 24 25  1  0
 25 26  2  0
 25 31  1  0
 26 27  1  0
 27 28  2  0
 28 29  1  0
 28 30  1  0
 30 31  2  0
M  END
>  <DRUGBANK_ID>  (1) 
DB07571

>  <COMMON_NAME>  (1) 
N~2~-[(BENZYLOXY)CARBONYL]-N-[(1S,2S)-2-HYDROXY-1-(4-HYDROXYBENZYL)PROPYL]-L-LEUCINAMIDE

$$$$
