
     RDKit          2D

  9  9  0  0  0  0  0  0  0  0999 V2000
    0.9803   -0.1553    0.0000 C   0  0  0  0  0  0  0  0  0  0  0  0
    1.2352    0.6294    0.0000 C   0  0  0  0  0  0  0  0  0  0  0  0
   -0.3297   -0.8227    0.0000 C   0  0  0  0  0  0  0  0  0  0  0  0
    0.5678    1.9393    0.0000 C   0  0  0  0  0  0  0  0  0  0  0  0
    0.1553   -0.1553    0.0000 C   0  0  0  0  0  0  0  0  0  0  0  0
    0.5678    1.1143    0.0000 C   0  0  0  0  0  0  0  0  0  0  0  0
    0.0059   -1.5764    0.0000 O   0  0  0  0  0  0  0  0  0  0  0  0
   -0.1467    2.3518    0.0000 O   0  0  0  0  0  0  0  0  0  0  0  0
   -0.0997    0.6294    0.0000 O   0  0  0  0  0  0  0  0  0  0  0  0
  2  1  1  0
  5  1  2  0
  5  3  1  0
  6  2  2  0
  6  4  1  0
  7  3  2  0
  8  4  1  0
  9  5  1  0
  9  6  1  0
M  END
>  <DRUGBANK_ID>  (1) 
DB12298

>  <COMMON_NAME>  (1) 
5-Hydroxymethylfurfural

>  <CAS_NUMBER>  (1) 
67-47-0

>  <UNII>  (1) 
70ETD81LF0

>  <SYNONYMS>  (1) 
5-(hydroxymethyl)-2-furaldehyde; 5-(Hydroxymethyl)-2-furfural; 5-(Hydroxymethyl)furfural; 5-Hydroxymethyl-2-furaldehyde; Hydroxymethylfurfural

$$$$
