
     RDKit          2D

 33 36  0  0  1  0  0  0  0  0999 V2000
    9.1390    1.2383    0.0000 C   0  0  0  0  0  0  0  0  0  0  0  0
   -0.5056   -2.0108    0.0000 C   0  0  0  0  0  0  0  0  0  0  0  0
    0.0469    2.9205    0.0000 C   0  0  0  0  0  0  0  0  0  0  0  0
    2.0307    1.7357    0.0000 C   0  0  0  0  0  0  0  0  0  0  0  0
    8.6072    0.6076    0.0000 C   0  0  0  0  0  0  0  0  0  0  0  0
   -0.3604   -1.1987    0.0000 C   0  0  0  0  0  0  0  0  0  0  0  0
   -0.2640    2.1564    0.0000 C   0  0  0  0  0  0  0  0  0  0  0  0
    4.5754   -0.8489    0.0000 C   0  0  0  0  0  0  0  0  0  0  0  0
    6.1708    1.0432    0.0000 C   0  0  0  0  0  0  0  0  0  0  0  0
    3.7633   -0.7037    0.0000 C   0  0  0  0  0  0  0  0  0  0  0  0
    5.3587    1.1884    0.0000 C   0  0  0  0  0  0  0  0  0  0  0  0
    3.7345    1.4789    0.0000 C   0  0  0  0  0  0  0  0  0  0  0  0
    2.9224    1.6241    0.0000 C   0  0  0  0  0  0  0  0  0  0  0  0
    5.9193   -0.3634    0.0000 C   0  0  0  0  0  0  0  0  0  0  0  0
    2.0195   -0.2889    0.0000 C   0  0  0  0  0  0  0  0  0  0  0  0
    5.1072   -0.2182    0.0000 C   0  0  0  0  0  0  0  0  0  0  0  0
    6.4511    0.2673    0.0000 C   0  0  0  0  0  0  0  0  0  0  0  0
    4.8269    0.5577    0.0000 C   0  0  0  0  0  0  0  0  0  0  0  0
    4.0148    0.7029    0.0000 C   0  0  0  0  0  0  0  0  0  0  0  0
    3.4830    0.0722    0.0000 C   0  0  0  0  0  0  0  0  0  0  0  0
    2.6708    0.2174    0.0000 C   0  0  0  0  0  0  0  0  0  0  0  0
    1.3367    0.1741    0.0000 C   0  0  0  0  0  0  0  0  0  0  0  0
    7.7951    0.7528    0.0000 C   0  0  0  0  0  0  0  0  0  0  0  0
    0.4155   -0.9184    0.0000 C   0  0  0  0  0  0  0  0  0  0  0  0
    0.2424    1.5050    0.0000 C   0  0  0  0  0  0  0  0  0  0  0  0
    1.5660    0.9666    0.0000 C   0  0  0  0  0  0  0  0  0  0  0  0
    2.3905    0.9934    0.0000 C   0  0  0  0  0  0  0  0  0  0  0  0
    7.5148    1.5287    0.0000 O   0  0  0  0  0  0  0  0  0  0  0  0
    1.0462   -1.4502    0.0000 O   0  0  0  0  0  0  0  0  0  0  0  0
   -0.0685    0.7409    0.0000 O   0  0  0  0  0  0  0  0  0  0  0  0
    7.2632    0.1221    0.0000 O   0  0  0  0  0  0  0  0  0  0  0  0
    0.5607   -0.1062    0.0000 O   0  0  0  0  0  0  0  0  0  0  0  0
    1.0596    1.6179    0.0000 O   0  0  0  0  0  0  0  0  0  0  0  0
  5  1  1  0
  6  2  1  0
  7  3  1  0
 10  8  1  0
 11  9  1  0
 13 12  1  0
 16  8  1  0
 16 14  2  0
 17  9  2  0
 17 14  1  0
 18 11  2  0
 18 16  1  0
 19 12  1  6
 19 18  1  0
 20 10  1  1
 20 19  1  0
 21 15  1  6
 21 20  1  0
 22 15  1  0
 22 32  1  1
 23  5  1  0
 24  6  1  0
 25  7  1  0
 26 22  1  0
 26 33  1  6
 27  4  1  6
 27 13  1  0
 27 21  1  0
 27 26  1  0
 28 23  2  0
 29 24  2  0
 30 25  2  0
 31 17  1  0
 31 23  1  0
 32 24  1  0
 33 25  1  0
M  END
>  <DRUGBANK_ID>  (1) 
DB14641

>  <SECONDARY_ACCESSION_NUMBERS>  (1) 
DBSALT000069

>  <COMMON_NAME>  (1) 
Estriol tripropionate

>  <CAS_NUMBER>  (1) 
2236-31-9

>  <UNII>  (1) 
S2A0P1AFQ9

>  <SYNONYMS>  (1) 
Estriol propionate; Estriol, tripropionate

$$$$
