
     RDKit          2D

 15 16  0  0  0  0  0  0  0  0999 V2000
    1.1484   -0.6093    0.0000 C   0  0  0  0  0  0  0  0  0  0  0  0
    1.1484   -1.4417    0.0000 C   0  0  0  0  0  0  0  0  0  0  0  0
    0.4295   -0.1968    0.0000 C   0  0  0  0  0  0  0  0  0  0  0  0
    1.9429   -0.3520    0.0000 N   0  0  0  0  0  0  0  0  0  0  0  0
    1.9392   -1.6914    0.0000 N   0  0  0  0  0  0  0  0  0  0  0  0
    0.4295   -1.8617    0.0000 N   0  0  0  0  0  0  0  0  0  0  0  0
   -0.2857   -0.6093    0.0000 N   0  0  0  0  0  0  0  0  0  0  0  0
    0.4256    0.6280    0.0000 N   0  0  0  0  0  0  0  0  0  0  0  0
    2.4235   -1.0292    0.0000 C   0  0  0  0  0  0  0  0  0  0  0  0
   -0.2857   -1.4417    0.0000 C   0  0  0  0  0  0  0  0  0  0  0  0
   -0.2857    1.0367    0.0000 C   0  0  0  0  0  0  0  0  0  0  0  0
   -1.0007    0.6280    0.0000 C   0  0  0  0  0  0  0  0  0  0  0  0
   -1.7122    1.0367    0.0000 C   0  0  0  0  0  0  0  0  0  0  0  0
   -2.4235    0.6280    0.0000 C   0  0  0  0  0  0  0  0  0  0  0  0
   -1.7122    1.8617    0.0000 C   0  0  0  0  0  0  0  0  0  0  0  0
  1  2  1  0
  1  3  2  0
  1  4  1  0
  2  5  1  0
  2  6  2  0
  3  7  1  0
  3  8  1  0
  4  9  2  0
  5  9  1  0
  6 10  1  0
  7 10  2  0
  8 11  1  0
 11 12  1  0
 12 13  2  3
 13 14  1  0
 13 15  1  0
M  END
>  <DRUGBANK_ID>  (1) 
DB08768

>  <COMMON_NAME>  (1) 
N(6)-dimethylallyladenine

>  <CAS_NUMBER>  (1) 
2365-40-4

>  <UNII>  (1) 
V500BB256Z

>  <SYNONYMS>  (1) 
IPADE; Isopentenyl adenine; Isopentenyladenine; N(6)-(delta(2)-Isopentenyl)adenine; N6-(3-methylbut-2-enyl)adenine; N6-(delta2-Isopentenyl)-adenine; N6-dimethylallyladenine; N6-isopentenyladenine

$$$$
