1460
     RDKit          2D

 16 17  0  0  0  0  0  0  0  0999 V2000
    5.1796    1.0772    0.0000 N   0  0  0  0  0  0  0  0  0  0  0  0
    3.8597   -1.9892    0.0000 N   0  0  0  0  0  0  0  0  0  0  0  0
    4.9233    0.2930    0.0000 C   0  0  0  0  0  0  0  0  0  0  0  0
    4.1160    0.1228    0.0000 C   0  0  0  0  0  0  0  0  0  0  0  0
    3.8597   -0.6613    0.0000 C   0  0  0  0  0  0  0  0  0  0  0  0
    3.0791   -0.9128    0.0000 C   0  0  0  0  0  0  0  0  0  0  0  0
    4.6287    1.6912    0.0000 C   0  0  0  0  0  0  0  0  0  0  0  0
    5.9869    1.2473    0.0000 C   0  0  0  0  0  0  0  0  0  0  0  0
    3.0791   -1.7378    0.0000 C   0  0  0  0  0  0  0  0  0  0  0  0
    4.3412   -1.3253    0.0000 C   0  0  0  0  0  0  0  0  0  0  0  0
    2.3645   -0.5003    0.0000 C   0  0  0  0  0  0  0  0  0  0  0  0
    4.8849    2.4754    0.0000 C   0  0  0  0  0  0  0  0  0  0  0  0
    6.2433    2.0316    0.0000 C   0  0  0  0  0  0  0  0  0  0  0  0
    2.3645   -2.1504    0.0000 C   0  0  0  0  0  0  0  0  0  0  0  0
    1.6501   -0.9128    0.0000 C   0  0  0  0  0  0  0  0  0  0  0  0
    1.6501   -1.7378    0.0000 C   0  0  0  0  0  0  0  0  0  0  0  0
  1  3  1  0
  1  7  1  0
  1  8  1  0
  2  9  1  0
  2 10  1  0
  3  4  1  0
  4  5  1  0
  5  6  1  0
  5 10  2  0
  6  9  2  0
  6 11  1  0
  7 12  1  0
  8 13  1  0
  9 14  1  0
 11 15  2  0
 14 16  2  0
 15 16  1  0
M  END
>  <DRUGBANK_ID>  (1) 
DB01460

>  <COMMON_NAME>  (1) 
Diethyltryptamine

>  <CAS_NUMBER>  (1) 
61-51-8

>  <UNII>  (1) 
916E8V4S2V

>  <SYNONYMS>  (1) 
3-(2-Diethylaminoethyl)indole; DET; N,N-Diethyltryptamine

$$$$
