
     RDKit          2D

 28 31  0  0  0  0  0  0  0  0999 V2000
   -1.4698   -1.1212    0.0000 C   0  0  0  0  0  0  0  0  0  0  0  0
   -1.4698   -0.2983    0.0000 C   0  0  0  0  0  0  0  0  0  0  0  0
    0.6796    0.9400    0.0000 C   0  0  0  0  0  0  0  0  0  0  0  0
    1.4673    1.1942    0.0000 C   0  0  0  0  0  0  0  0  0  0  0  0
   -0.0376   -0.2983    0.0000 C   0  0  0  0  0  0  0  0  0  0  0  0
   -0.7474   -1.5416    0.0000 C   0  0  0  0  0  0  0  0  0  0  0  0
   -0.0376   -1.1212    0.0000 C   0  0  0  0  0  0  0  0  0  0  0  0
   -0.7474    0.1095    0.0000 C   0  0  0  0  0  0  0  0  0  0  0  0
    0.6796    0.1095    0.0000 C   0  0  0  0  0  0  0  0  0  0  0  0
   -2.1871   -1.5416    0.0000 C   0  0  0  0  0  0  0  0  0  0  0  0
   -0.0376    1.3528    0.0000 C   0  0  0  0  0  0  0  0  0  0  0  0
    1.9531    0.5198    0.0000 C   0  0  0  0  0  0  0  0  0  0  0  0
    2.2728    1.4987    0.0000 O   0  0  0  0  0  0  0  0  0  0  0  0
   -0.7474    0.9400    0.0000 C   0  0  0  0  0  0  0  0  0  0  0  0
    1.4673   -0.1371    0.0000 C   0  0  0  0  0  0  0  0  0  0  0  0
   -2.1871    0.1095    0.0000 C   0  0  0  0  0  0  0  0  0  0  0  0
    1.4673    1.9065    0.0000 C   0  0  0  0  0  0  0  0  0  0  0  0
    2.8943    1.1942    0.0000 C   0  0  0  0  0  0  0  0  0  0  0  0
   -2.8969   -1.1212    0.0000 C   0  0  0  0  0  0  0  0  0  0  0  0
    3.6193    1.6070    0.0000 O   0  0  0  0  0  0  0  0  0  0  0  0
    2.0840    2.3670    0.0000 O   0  0  0  0  0  0  0  0  0  0  0  0
   -0.7474   -2.3670    0.0000 Cl  0  0  0  0  0  0  0  0  0  0  0  0
   -3.6193   -1.5416    0.0000 O   0  0  0  0  0  0  0  0  0  0  0  0
   -2.8969   -0.2983    0.0000 C   0  0  0  0  0  0  0  0  0  0  0  0
    2.8943    0.3688    0.0000 C   0  0  0  0  0  0  0  0  0  0  0  0
    0.9387    2.3294    0.0000 C   0  0  0  0  0  0  0  0  0  0  0  0
   -1.4723    0.5247    0.0000 C   0  0  0  0  0  0  0  0  0  0  0  0
    0.6770    1.7706    0.0000 C   0  0  0  0  0  0  0  0  0  0  0  0
  2  1  1  0
  2 27  1  1
  3  9  1  0
  3 28  1  1
  4  3  1  0
  4 13  1  6
  4 17  1  0
  5  7  1  6
  6  1  1  0
  7  6  2  0
  8  2  1  0
  8  5  1  0
  9  5  1  0
 10  1  2  0
 11 14  1  0
 11  3  1  0
 12 15  1  0
 12  4  1  0
  8 14  1  1
  9 15  1  1
 16  2  1  0
 18 13  1  0
 19 10  1  0
 20 18  2  0
 21 17  2  0
 22  6  1  0
 23 19  2  0
 24 19  1  0
 24 16  1  0
 25 18  1  0
 26 17  1  0
M  END
>  <DRUGBANK_ID>  (1) 
DB15903

>  <COMMON_NAME>  (1) 
Chlormadinone acetate

>  <CAS_NUMBER>  (1) 
302-22-7

>  <UNII>  (1) 
0SY050L61N

>  <SYNONYMS>  (1) 
Chlormadinone acetate

$$$$
