
     RDKit          2D

 14 14  0  0  0  0  0  0  0  0999 V2000
   -1.0718    0.6187    0.0000 C   0  0  0  0  0  0  0  0  0  0  0  0
   -0.3572    1.0313    0.0000 C   0  0  0  0  0  0  0  0  0  0  0  0
    0.3572    0.6187    0.0000 C   0  0  0  0  0  0  0  0  0  0  0  0
    0.3572   -0.2062    0.0000 C   0  0  0  0  0  0  0  0  0  0  0  0
   -0.3572   -0.6187    0.0000 C   0  0  0  0  0  0  0  0  0  0  0  0
   -1.0717   -0.2062    0.0000 C   0  0  0  0  0  0  0  0  0  0  0  0
   -1.7862    1.0313    0.0000 O   0  0  0  0  0  0  0  0  0  0  0  0
   -0.3572    1.8563    0.0000 O   0  0  0  0  0  0  0  0  0  0  0  0
   -0.3572   -1.4438    0.0000 N   0  0  0  0  0  0  0  0  0  0  0  0
   -1.0717   -1.8563    0.0000 O   0  0  0  0  0  0  0  0  0  0  0  0
    0.3572   -1.8563    0.0000 O   0  0  0  0  0  0  0  0  0  0  0  0
    1.0718    1.0313    0.0000 N   0  0  0  0  0  0  0  0  0  0  0  0
    1.0718    1.8563    0.0000 O   0  0  0  0  0  0  0  0  0  0  0  0
    1.7862    0.6187    0.0000 O   0  0  0  0  0  0  0  0  0  0  0  0
  1  2  2  0
  1  6  1  0
  1  7  1  0
  2  3  1  0
  2  8  1  0
  3  4  2  0
  3 12  1  0
  4  5  1  0
  5  6  2  0
  5  9  1  0
  9 10  2  0
  9 11  1  0
 12 13  2  0
 12 14  1  0
M  CHG  4   9   1  11  -1  12   1  14  -1
M  END
>  <DRUGBANK_ID>  (1) 
DB02105

>  <SECONDARY_ACCESSION_NUMBERS>  (1) 
EXPT01233

>  <COMMON_NAME>  (1) 
3,5-Dinitrocatechol

>  <CAS_NUMBER>  (1) 
7659-29-2

>  <UNII>  (1) 
VK0VA22GY2

$$$$
