HTG
     RDKit          2D

 19 19  0  0  0  0  0  0  0  0999 V2000
   -0.7752   -0.3051    0.0000 C   0  0  0  0  0  0  0  0  0  0  0  0
   -0.0607   -0.7176    0.0000 S   0  0  0  0  0  0  0  0  0  0  0  0
   -1.4896   -0.7176    0.0000 C   0  0  0  0  0  0  0  0  0  0  0  0
   -1.4896   -1.5426    0.0000 O   0  0  0  0  0  0  0  0  0  0  0  0
   -2.2041   -0.3051    0.0000 C   0  0  0  0  0  0  0  0  0  0  0  0
   -2.9185   -0.7176    0.0000 O   0  0  0  0  0  0  0  0  0  0  0  0
   -2.2041    0.5199    0.0000 C   0  0  0  0  0  0  0  0  0  0  0  0
   -2.9185    0.9324    0.0000 O   0  0  0  0  0  0  0  0  0  0  0  0
   -1.4896    0.9324    0.0000 C   0  0  0  0  0  0  0  0  0  0  0  0
   -0.7752    0.5199    0.0000 O   0  0  0  0  0  0  0  0  0  0  0  0
   -1.4896    1.7573    0.0000 C   0  0  0  0  0  0  0  0  0  0  0  0
   -0.7752    2.1699    0.0000 O   0  0  0  0  0  0  0  0  0  0  0  0
    0.6537   -0.3051    0.0000 C   0  0  0  0  0  0  0  0  0  0  0  0
    1.3683   -0.7176    0.0000 C   0  0  0  0  0  0  0  0  0  0  0  0
    2.0827   -0.3051    0.0000 C   0  0  0  0  0  0  0  0  0  0  0  0
    2.7971   -0.7176    0.0000 C   0  0  0  0  0  0  0  0  0  0  0  0
    3.5117   -0.3051    0.0000 C   0  0  0  0  0  0  0  0  0  0  0  0
    4.2260   -0.7176    0.0000 C   0  0  0  0  0  0  0  0  0  0  0  0
    4.9405   -0.3051    0.0000 C   0  0  0  0  0  0  0  0  0  0  0  0
  1  2  1  1
  1  3  1  0
  1 10  1  0
  2 13  1  0
  3  4  1  6
  3  5  1  0
  5  6  1  1
  5  7  1  0
  7  8  1  6
  7  9  1  0
  9 10  1  0
  9 11  1  1
 11 12  1  0
 13 14  1  0
 14 15  1  0
 15 16  1  0
 16 17  1  0
 17 18  1  0
 18 19  1  0
M  END
>  <DRUGBANK_ID>  (1) 
DB04450

>  <SECONDARY_ACCESSION_NUMBERS>  (1) 
EXPT01788

>  <COMMON_NAME>  (1) 
Heptyl 1-Thiohexopyranoside

$$$$
