
     RDKit          2D

 20 21  0  0  1  0  0  0  0  0999 V2000
   -0.5078   -0.4766    0.0000 C   0  0  0  0  0  0  0  0  0  0  0  0
    0.1596   -1.7865    0.0000 C   0  0  0  0  0  0  0  0  0  0  0  0
    2.3328    0.1272    0.0000 C   0  0  0  0  0  0  0  0  0  0  0  0
    0.9505    2.3491    0.0000 C   0  0  0  0  0  0  0  0  0  0  0  0
   -0.9203   -2.5711    0.0000 C   0  0  0  0  0  0  0  0  0  0  0  0
   -0.5078   -1.3016    0.0000 C   0  0  0  0  0  0  0  0  0  0  0  0
    1.4354    1.6816    0.0000 C   0  0  0  0  0  0  0  0  0  0  0  0
    0.2066   -0.0641    0.0000 C   0  0  0  0  0  0  0  0  0  0  0  0
    2.6684   -0.6264    0.0000 C   0  0  0  0  0  0  0  0  0  0  0  0
    1.0998    0.9279    0.0000 C   0  0  0  0  0  0  0  0  0  0  0  0
    0.9603   -0.3996    0.0000 C   0  0  0  0  0  0  0  0  0  0  0  0
    2.2559    1.7679    0.0000 N   0  0  0  0  0  0  0  0  0  0  0  0
   -0.0953   -2.5711    0.0000 N   0  0  0  0  0  0  0  0  0  0  0  0
   -1.1753   -1.7865    0.0000 N   0  0  0  0  0  0  0  0  0  0  0  0
    0.2929    0.7564    0.0000 N   0  0  0  0  0  0  0  0  0  0  0  0
    1.5123    0.2135    0.0000 N   0  0  0  0  0  0  0  0  0  0  0  0
    0.1300    2.2628    0.0000 O   0  0  0  0  0  0  0  0  0  0  0  0
    3.4889   -0.7127    0.0000 O   0  0  0  0  0  0  0  0  0  0  0  0
    2.1834   -1.2939    0.0000 O   0  0  0  0  0  0  0  0  0  0  0  0
    1.1318   -1.2066    0.0000 O   0  0  0  0  0  0  0  0  0  0  0  0
  6  1  1  0
  6  2  2  0
  7  4  1  0
  7 12  1  6
  8  1  1  0
  9  3  1  0
 10  7  1  0
 11  8  1  0
 13  2  1  0
 13  5  2  0
 14  5  1  0
 14  6  1  0
 15  8  2  0
 10 15  1  6
 16  3  1  0
 16 10  1  0
 16 11  1  0
 17  4  1  0
 18  9  2  0
 19  9  1  0
 20 11  2  0
M  END
>  <DRUGBANK_ID>  (1) 
DB02356

>  <SECONDARY_ACCESSION_NUMBERS>  (1) 
EXPT01855

>  <COMMON_NAME>  (1) 
4-Imidazolmethylene-5-Imidazolone Chromophore

$$$$
