
     RDKit          2D

 41 45  0  0  0  0  0  0  0  0999 V2000
    0.7735   -2.8261    0.0000 N   0  0  0  0  0  0  0  0  0  0  0  0
    1.3255   -2.2129    0.0000 C   0  0  0  0  0  0  0  0  0  0  0  0
    1.0706   -1.4283    0.0000 C   0  0  0  0  0  0  0  0  0  0  0  0
    0.2637   -1.2567    0.0000 N   0  0  0  0  0  0  0  0  0  0  0  0
   -0.2883   -1.8699    0.0000 C   0  0  0  0  0  0  0  0  0  0  0  0
   -0.0334   -2.6544    0.0000 C   0  0  0  0  0  0  0  0  0  0  0  0
    0.0088   -0.4721    0.0000 C   0  0  0  0  0  0  0  0  0  0  0  0
   -0.7980   -0.3004    0.0000 C   0  0  0  0  0  0  0  0  0  0  0  0
   -1.3502   -0.9135    0.0000 O   0  0  0  0  0  0  0  0  0  0  0  0
    0.5609    0.1409    0.0000 O   0  0  0  0  0  0  0  0  0  0  0  0
   -2.5520    1.9765    0.0000 C   0  0  0  0  0  0  0  0  0  0  0  0
   -1.8375    1.5640    0.0000 C   0  0  0  0  0  0  0  0  0  0  0  0
   -1.8375    0.7390    0.0000 C   0  0  0  0  0  0  0  0  0  0  0  0
   -2.5520    0.3265    0.0000 C   0  0  0  0  0  0  0  0  0  0  0  0
   -3.2665    0.7390    0.0000 C   0  0  0  0  0  0  0  0  0  0  0  0
   -3.2665    1.5640    0.0000 N   0  0  0  0  0  0  0  0  0  0  0  0
   -1.0529    1.8190    0.0000 N   0  0  0  0  0  0  0  0  0  0  0  0
   -1.0529    0.4841    0.0000 C   0  0  0  0  0  0  0  0  0  0  0  0
   -0.5680    1.1515    0.0000 C   0  0  0  0  0  0  0  0  0  0  0  0
   -0.7980    2.6036    0.0000 C   0  0  0  0  0  0  0  0  0  0  0  0
    0.0089    2.7752    0.0000 O   0  0  0  0  0  0  0  0  0  0  0  0
    0.2638    3.5598    0.0000 P   0  0  0  0  0  0  0  0  0  0  0  0
   -0.5207    3.8147    0.0000 O   0  0  0  0  0  0  0  0  0  0  0  0
    0.5188    4.3444    0.0000 O   0  0  0  0  0  0  0  0  0  0  0  0
    1.0486    3.3048    0.0000 O   0  0  0  0  0  0  0  0  0  0  0  0
   -2.5520    2.8015    0.0000 N   0  0  0  0  0  0  0  0  0  0  0  0
   -3.2195    3.2865    0.0000 N   0  0  0  0  0  0  0  0  0  0  0  0
   -2.9644    4.0711    0.0000 C   0  0  0  0  0  0  0  0  0  0  0  0
   -2.1395    4.0711    0.0000 N   0  0  0  0  0  0  0  0  0  0  0  0
   -1.8846    3.2865    0.0000 C   0  0  0  0  0  0  0  0  0  0  0  0
   -3.4494    4.7384    0.0000 C   0  0  0  0  0  0  0  0  0  0  0  0
   -2.5520   -0.4984    0.0000 O   0  0  0  0  0  0  0  0  0  0  0  0
   -3.2665   -0.9109    0.0000 C   0  0  0  0  0  0  0  0  0  0  0  0
    1.0284   -3.6107    0.0000 C   0  0  0  0  0  0  0  0  0  0  0  0
    1.8354   -3.7823    0.0000 C   0  0  0  0  0  0  0  0  0  0  0  0
    2.0903   -4.5669    0.0000 C   0  0  0  0  0  0  0  0  0  0  0  0
    2.8971   -4.7384    0.0000 C   0  0  0  0  0  0  0  0  0  0  0  0
    3.4494   -4.1255    0.0000 C   0  0  0  0  0  0  0  0  0  0  0  0
    3.1944   -3.3408    0.0000 C   0  0  0  0  0  0  0  0  0  0  0  0
    2.3874   -3.1692    0.0000 C   0  0  0  0  0  0  0  0  0  0  0  0
    0.4764   -4.2237    0.0000 O   0  0  0  0  0  0  0  0  0  0  0  0
  1  2  1  0
  1  6  1  0
  1 34  1  0
  2  3  1  0
  3  4  1  0
  4  5  1  0
  4  7  1  0
  5  6  1  0
  7  8  1  0
  7 10  2  0
  8  9  2  0
  8 18  1  0
 11 12  2  0
 11 16  1  0
 11 26  1  0
 12 13  1  0
 12 17  1  0
 13 14  2  0
 13 18  1  0
 14 15  1  0
 14 32  1  0
 15 16  2  0
 17 19  1  0
 17 20  1  0
 18 19  2  0
 20 21  1  0
 21 22  1  0
 22 23  1  0
 22 24  2  0
 22 25  1  0
 26 27  1  0
 26 30  1  0
 27 28  2  0
 28 29  1  0
 28 31  1  0
 29 30  2  0
 32 33  1  0
 34 35  1  0
 34 41  2  0
 35 36  2  0
 35 40  1  0
 36 37  1  0
 37 38  2  0
 38 39  1  0
 39 40  2  0
M  END
>  <DRUGBANK_ID>  (1) 
DB11796

>  <COMMON_NAME>  (1) 
Fostemsavir

>  <CAS_NUMBER>  (1) 
864953-29-7

>  <UNII>  (1) 
97IQ273H4L

>  <SYNONYMS>  (1) 
Fostemsavir

$$$$
