
     RDKit          2D

 14 13  0  0  0  0  0  0  0  0999 V2000
    2.8026   -0.6187    0.0000 C   0  0  0  0  0  0  0  0  0  0  0  0
    2.0882   -1.0312    0.0000 C   0  0  0  0  0  0  0  0  0  0  0  0
    1.3736   -0.6187    0.0000 C   0  0  0  0  0  0  0  0  0  0  0  0
    0.6592   -1.0312    0.0000 C   0  0  0  0  0  0  0  0  0  0  0  0
   -0.0552   -0.6187    0.0000 C   0  0  0  0  0  0  0  0  0  0  0  0
   -0.7697   -1.0312    0.0000 C   0  0  0  0  0  0  0  0  0  0  0  0
   -1.4842   -0.6187    0.0000 C   0  0  0  0  0  0  0  0  0  0  0  0
   -2.1987   -1.0312    0.0000 C   0  0  0  0  0  0  0  0  0  0  0  0
   -2.9131   -0.6187    0.0000 C   0  0  0  0  0  0  0  0  0  0  0  0
   -3.6277   -1.0312    0.0000 C   0  0  0  0  0  0  0  0  0  0  0  0
    2.8026    0.2062    0.0000 S   0  0  0  0  0  0  0  0  0  0  0  0
    1.9776    0.2062    0.0000 O   0  0  0  0  0  0  0  0  0  0  0  0
    3.6277    0.2062    0.0000 O   0  0  0  0  0  0  0  0  0  0  0  0
    2.8026    1.0312    0.0000 O   0  0  0  0  0  0  0  0  0  0  0  0
  1  2  1  0
  1 11  1  0
  2  3  1  0
  3  4  1  0
  4  5  1  0
  5  6  1  0
  6  7  1  0
  7  8  1  0
  8  9  1  0
  9 10  1  0
 11 12  2  0
 11 13  2  0
 11 14  1  0
M  END
>  <DRUGBANK_ID>  (1) 
DB06893

>  <COMMON_NAME>  (1) 
Decylsulfonic acid

>  <CAS_NUMBER>  (1) 
20283-21-0

>  <UNII>  (1) 
VUY16B7Z2D

>  <SYNONYMS>  (1) 
Decane-1-sulfonic acid

$$$$
