
     RDKit          2D

 23 25  0  0  0  0  0  0  0  0999 V2000
    4.5926   -1.3312    0.0000 C   0  0  0  0  0  0  0  0  0  0  0  0
    4.8476   -0.5465    0.0000 C   0  0  0  0  0  0  0  0  0  0  0  0
    3.7676   -1.3312    0.0000 C   0  0  0  0  0  0  0  0  0  0  0  0
    2.7512    3.2384    0.0000 C   0  0  0  0  0  0  0  0  0  0  0  0
    4.1801    2.4134    0.0000 C   0  0  0  0  0  0  0  0  0  0  0  0
    4.1801    0.7634    0.0000 C   0  0  0  0  0  0  0  0  0  0  0  0
    4.1801   -0.0616    0.0000 C   0  0  0  0  0  0  0  0  0  0  0  0
    2.7512    2.4134    0.0000 C   0  0  0  0  0  0  0  0  0  0  0  0
    4.1801    3.2384    0.0000 C   0  0  0  0  0  0  0  0  0  0  0  0
    3.4656    2.0009    0.0000 C   0  0  0  0  0  0  0  0  0  0  0  0
    3.4656    3.6509    0.0000 C   0  0  0  0  0  0  0  0  0  0  0  0
    2.0367    2.0009    0.0000 C   0  0  0  0  0  0  0  0  0  0  0  0
    4.8946    3.6509    0.0000 Cl  0  0  0  0  0  0  0  0  0  0  0  0
    3.4656    5.3009    0.0000 N   0  0  0  0  0  0  0  0  0  0  0  0
    3.4656    1.1759    0.0000 N   0  0  0  0  0  0  0  0  0  0  0  0
    1.2830    2.3365    0.0000 N   0  0  0  0  0  0  0  0  0  0  0  0
    1.9505    1.1804    0.0000 N   0  0  0  0  0  0  0  0  0  0  0  0
    0.7310    1.7234    0.0000 N   0  0  0  0  0  0  0  0  0  0  0  0
    1.1435    1.0089    0.0000 N   0  0  0  0  0  0  0  0  0  0  0  0
    4.2906    4.4759    0.0000 O   0  0  0  0  0  0  0  0  0  0  0  0
    2.6406    4.4759    0.0000 O   0  0  0  0  0  0  0  0  0  0  0  0
    3.5127   -0.5465    0.0000 S   0  0  0  0  0  0  0  0  0  0  0  0
    3.4656    4.4759    0.0000 S   0  0  0  0  0  0  0  0  0  0  0  0
  2  1  1  0
  3  1  2  0
  7  2  2  0
  7  6  1  0
  8  4  2  0
  9  5  1  0
 10  5  2  0
 10  8  1  0
 11  4  1  0
 11  9  2  0
 12  8  1  0
 13  9  1  0
 15  6  1  0
 15 10  1  0
 16 12  2  0
 17 12  1  0
 18 16  1  0
 19 17  2  0
 19 18  1  0
 22  3  1  0
 22  7  1  0
 23 11  1  0
 23 14  1  0
 23 20  2  0
 23 21  2  0
M  END
>  <DRUGBANK_ID>  (1) 
DB08961

>  <COMMON_NAME>  (1) 
Azosemide

>  <CAS_NUMBER>  (1) 
27589-33-9

>  <UNII>  (1) 
MR40VT1L8Z

>  <SYNONYMS>  (1) 
2-chloro-5-(1H-tetrazol-5-yl)-N4-2-thenylsulfanilamide; 5-(4'-chloro-5'-sulfamoyl-2'-thenylaminophenyl)tetrazole; azosemida; Azosemide; azos√©mide; azosemidum

$$$$
