
     RDKit          2D

 30 32  0  0  0  0  0  0  0  0999 V2000
    0.0000   -0.8251    0.0000 C   0  0  0  0  0  0  0  0  0  0  0  0
    0.0000   -0.0001    0.0000 C   0  0  0  0  0  0  0  0  0  0  0  0
   -0.7145   -1.2377    0.0000 C   0  0  0  0  0  0  0  0  0  0  0  0
   -0.7146    0.4122    0.0000 C   0  0  0  0  0  0  0  0  0  0  0  0
   -1.4289   -0.8252    0.0000 C   0  0  0  0  0  0  0  0  0  0  0  0
   -1.4289   -0.0002    0.0000 C   0  0  0  0  0  0  0  0  0  0  0  0
    0.7144   -1.2375    0.0000 O   0  0  0  0  0  0  0  0  0  0  0  0
    1.4289   -0.8251    0.0000 C   0  0  0  0  0  0  0  0  0  0  0  0
    1.4289   -0.0001    0.0000 C   0  0  0  0  0  0  0  0  0  0  0  0
    2.1435   -1.2375    0.0000 N   0  0  0  0  0  0  0  0  0  0  0  0
    2.1435    0.4123    0.0000 C   0  0  0  0  0  0  0  0  0  0  0  0
    2.8578   -0.8251    0.0000 C   0  0  0  0  0  0  0  0  0  0  0  0
    2.8578   -0.0001    0.0000 N   0  0  0  0  0  0  0  0  0  0  0  0
    2.1434    1.2374    0.0000 O   0  0  0  0  0  0  0  0  0  0  0  0
   -0.7144   -2.0627    0.0000 C   0  0  0  0  0  0  0  0  0  0  0  0
    0.0000   -2.4751    0.0000 C   0  0  0  0  0  0  0  0  0  0  0  0
   -1.4289   -2.4752    0.0000 C   0  0  0  0  0  0  0  0  0  0  0  0
   -2.1434   -2.0626    0.0000 O   0  0  0  0  0  0  0  0  0  0  0  0
   -2.8578   -2.4752    0.0000 C   0  0  0  0  0  0  0  0  0  0  0  0
    0.7145   -2.0626    0.0000 O   0  0  0  0  0  0  0  0  0  0  0  0
    0.0000   -3.3001    0.0000 O   0  0  0  0  0  0  0  0  0  0  0  0
    1.4289   -2.4752    0.0000 C   0  0  0  0  0  0  0  0  0  0  0  0
    1.4289    1.6497    0.0000 C   0  0  0  0  0  0  0  0  0  0  0  0
    1.4288    2.4748    0.0000 C   0  0  0  0  0  0  0  0  0  0  0  0
    0.7145    1.2372    0.0000 C   0  0  0  0  0  0  0  0  0  0  0  0
    0.7142    2.8872    0.0000 C   0  0  0  0  0  0  0  0  0  0  0  0
    0.0000    1.6496    0.0000 C   0  0  0  0  0  0  0  0  0  0  0  0
   -0.0001    2.4745    0.0000 C   0  0  0  0  0  0  0  0  0  0  0  0
    2.1432    2.8873    0.0000 C   0  0  0  0  0  0  0  0  0  0  0  0
    2.8576    3.3000    0.0000 N   0  0  0  0  0  0  0  0  0  0  0  0
  1  7  1  0
  2  1  2  0
  3  1  1  0
  3 15  1  0
  4  2  1  0
  5  3  2  0
  6  4  2  0
  6  5  1  0
  7  8  1  0
  9  8  2  0
 10  8  1  0
 11  9  1  0
 11 14  1  0
 12 10  2  0
 13 11  2  0
 13 12  1  0
 14 23  1  0
 15 16  1  0
 15 17  2  0
 16 20  1  0
 16 21  2  0
 17 18  1  0
 18 19  1  0
 20 22  1  0
 24 23  2  0
 24 29  1  0
 25 23  1  0
 26 24  1  0
 27 25  2  0
 28 26  2  0
 28 27  1  0
 30 29  3  0
M  END
>  <DRUGBANK_ID>  (1) 
DB07401

>  <COMMON_NAME>  (1) 
Azoxystrobin

>  <CAS_NUMBER>  (1) 
131860-33-8

>  <UNII>  (1) 
NYH7Y08IPM

$$$$
