
     RDKit          2D

 24 26  0  0  0  0  0  0  0  0999 V2000
    1.4741    2.2809    0.0000 C   0  0  0  0  0  0  0  0  0  0  0  0
    0.6858    2.5240    0.0000 C   0  0  0  0  0  0  0  0  0  0  0  0
    1.6577    1.4766    0.0000 C   0  0  0  0  0  0  0  0  0  0  0  0
    0.0810    1.9629    0.0000 C   0  0  0  0  0  0  0  0  0  0  0  0
   -0.8374   -1.2283    0.0000 C   0  0  0  0  0  0  0  0  0  0  0  0
   -0.1230   -1.6408    0.0000 C   0  0  0  0  0  0  0  0  0  0  0  0
    1.0529   -2.5470    0.0000 C   0  0  0  0  0  0  0  0  0  0  0  0
    0.2646   -2.7902    0.0000 C   0  0  0  0  0  0  0  0  0  0  0  0
   -0.1230    0.0092    0.0000 C   0  0  0  0  0  0  0  0  0  0  0  0
   -0.8374   -0.4033    0.0000 C   0  0  0  0  0  0  0  0  0  0  0  0
    1.0529    0.9154    0.0000 C   0  0  0  0  0  0  0  0  0  0  0  0
    0.5915   -0.4033    0.0000 C   0  0  0  0  0  0  0  0  0  0  0  0
    0.2646    1.1586    0.0000 C   0  0  0  0  0  0  0  0  0  0  0  0
    0.5915   -1.2283    0.0000 C   0  0  0  0  0  0  0  0  0  0  0  0
    1.2365    0.1111    0.0000 C   0  0  0  0  0  0  0  0  0  0  0  0
    2.3988   -0.8158    0.0000 C   0  0  0  0  0  0  0  0  0  0  0  0
    2.0408   -1.5591    0.0000 C   0  0  0  0  0  0  0  0  0  0  0  0
   -1.5519    0.0092    0.0000 Cl  0  0  0  0  0  0  0  0  0  0  0  0
   -0.3402    0.5974    0.0000 F   0  0  0  0  0  0  0  0  0  0  0  0
    2.0408   -0.0725    0.0000 N   0  0  0  0  0  0  0  0  0  0  0  0
    1.2365   -1.7427    0.0000 N   0  0  0  0  0  0  0  0  0  0  0  0
    0.0810   -3.5945    0.0000 O   0  0  0  0  0  0  0  0  0  0  0  0
    3.2238   -0.8158    0.0000 O   0  0  0  0  0  0  0  0  0  0  0  0
    2.5552   -2.2041    0.0000 O   0  0  0  0  0  0  0  0  0  0  0  0
  2  1  2  0
  3  1  1  0
  4  2  1  0
  6  5  2  0
  8  7  1  0
 10  5  1  0
 10  9  2  0
 11  3  2  0
 12  9  1  0
 13  4  2  0
 13 11  1  0
 14  6  1  0
 14 12  2  0
 15 11  1  0
 15 12  1  0
 17 16  1  0
 18 10  1  0
 19 13  1  0
 20 15  2  0
 20 16  1  0
 21  7  1  0
 21 14  1  0
 21 17  1  0
 22  8  1  0
 23 16  1  0
 24 17  2  0
M  END
>  <DRUGBANK_ID>  (1) 
DB13837

>  <COMMON_NAME>  (1) 
Doxefazepam

>  <CAS_NUMBER>  (1) 
40762-15-0

>  <UNII>  (1) 
231RV72C8L

>  <SYNONYMS>  (1) 
Doxefazepam; Doxefazepamum

$$$$
