A51
     RDKit          2D

 14 15  0  0  0  0  0  0  0  0999 V2000
   -1.6450    1.8097    0.0000 C   0  0  0  0  0  0  0  0  0  0  0  0
   -0.9776    1.3248    0.0000 C   0  0  0  0  0  0  0  0  0  0  0  0
   -1.2325    0.5402    0.0000 C   0  0  0  0  0  0  0  0  0  0  0  0
   -2.0575    0.5402    0.0000 C   0  0  0  0  0  0  0  0  0  0  0  0
   -2.3125    1.3248    0.0000 O   0  0  0  0  0  0  0  0  0  0  0  0
   -2.5425   -0.1273    0.0000 O   0  0  0  0  0  0  0  0  0  0  0  0
   -0.7476   -0.1273    0.0000 C   0  0  0  0  0  0  0  0  0  0  0  0
    0.0729   -0.0410    0.0000 N   0  0  0  0  0  0  0  0  0  0  0  0
    0.5578   -0.7085    0.0000 C   0  0  0  0  0  0  0  0  0  0  0  0
    1.3783   -0.6222    0.0000 C   0  0  0  0  0  0  0  0  0  0  0  0
    1.8632   -1.2897    0.0000 C   0  0  0  0  0  0  0  0  0  0  0  0
    1.5276   -2.0433    0.0000 C   0  0  0  0  0  0  0  0  0  0  0  0
    0.7072   -2.1296    0.0000 C   0  0  0  0  0  0  0  0  0  0  0  0
    0.2222   -1.4621    0.0000 C   0  0  0  0  0  0  0  0  0  0  0  0
  1  2  1  0
  1  5  1  0
  2  3  1  0
  3  4  1  0
  3  7  2  0
  4  5  1  0
  4  6  2  0
  7  8  1  0
  8  9  1  0
  9 10  2  0
  9 14  1  0
 10 11  1  0
 11 12  2  0
 12 13  1  0
 13 14  2  0
M  END
>  <DRUGBANK_ID>  (1) 
DB07317

>  <COMMON_NAME>  (1) 
(3E)-3-[(phenylamino)methylidene]dihydrofuran-2(3H)-one

$$$$
