
     RDKit          2D

 31 33  0  0  1  0  0  0  0  0999 V2000
  -12.7180    3.0695    0.0000 N   0  0  0  0  0  0  0  0  0  0  0  0
  -11.9643    2.7339    0.0000 C   0  0  0  0  0  0  0  0  0  0  0  0
  -11.2969    3.2188    0.0000 N   0  0  0  0  0  0  0  0  0  0  0  0
  -10.5432    2.8833    0.0000 C   0  0  0  0  0  0  0  0  0  0  0  0
   -9.7895    3.2188    0.0000 N   0  0  0  0  0  0  0  0  0  0  0  0
   -9.2375    2.6057    0.0000 C   0  0  0  0  0  0  0  0  0  0  0  0
   -8.4170    2.6920    0.0000 C   0  0  0  0  0  0  0  0  0  0  0  0
   -8.0815    3.4456    0.0000 C   0  0  0  0  0  0  0  0  0  0  0  0
   -7.2610    3.5319    0.0000 C   0  0  0  0  0  0  0  0  0  0  0  0
   -6.9254    4.2855    0.0000 C   0  0  0  0  0  0  0  0  0  0  0  0
   -7.3379    5.0000    0.0000 C   0  0  0  0  0  0  0  0  0  0  0  0
   -6.7859    5.6131    0.0000 C   0  0  0  0  0  0  0  0  0  0  0  0
   -6.0322    5.2776    0.0000 C   0  0  0  0  0  0  0  0  0  0  0  0
   -6.1185    4.4571    0.0000 S   0  0  0  0  0  0  0  0  0  0  0  0
   -5.3178    5.6901    0.0000 C   0  0  0  0  0  0  0  0  0  0  0  0
   -5.3178    6.5151    0.0000 O   0  0  0  0  0  0  0  0  0  0  0  0
   -4.6033    5.2776    0.0000 N   0  0  0  0  0  0  0  0  0  0  0  0
   -3.8888    5.6901    0.0000 C   0  0  0  0  0  0  0  0  0  0  0  0
   -3.1743    5.2776    0.0000 C   0  0  0  0  0  0  0  0  0  0  0  0
   -2.4599    5.6901    0.0000 C   0  0  0  0  0  0  0  0  0  0  0  0
   -1.7454    5.2776    0.0000 C   0  0  0  0  0  0  0  0  0  0  0  0
   -1.0309    5.6901    0.0000 O   0  0  0  0  0  0  0  0  0  0  0  0
   -1.7454    4.4526    0.0000 O   0  0  0  0  0  0  0  0  0  0  0  0
   -3.8888    6.5151    0.0000 C   0  0  0  0  0  0  0  0  0  0  0  0
   -3.1743    6.9276    0.0000 O   0  0  0  0  0  0  0  0  0  0  0  0
   -4.6033    6.9276    0.0000 O   0  0  0  0  0  0  0  0  0  0  0  0
   -9.6500    1.8913    0.0000 C   0  0  0  0  0  0  0  0  0  0  0  0
  -10.4570    2.0628    0.0000 C   0  0  0  0  0  0  0  0  0  0  0  0
  -11.1244    1.5779    0.0000 C   0  0  0  0  0  0  0  0  0  0  0  0
  -11.0382    0.7574    0.0000 O   0  0  0  0  0  0  0  0  0  0  0  0
  -11.8781    1.9134    0.0000 N   0  0  0  0  0  0  0  0  0  0  0  0
  1  2  1  0
  2  3  2  0
  2 31  1  0
  3  4  1  0
  4  5  1  0
  4 28  2  0
  5  6  1  0
  6  7  1  0
  6 27  2  0
  7  8  1  0
  8  9  1  0
  9 10  1  0
 10 11  2  0
 10 14  1  0
 11 12  1  0
 12 13  2  0
 13 14  1  0
 13 15  1  0
 15 16  2  0
 15 17  1  0
 18 17  1  0
 18 19  1  6
 18 24  1  0
 19 20  1  0
 20 21  1  0
 21 22  1  0
 21 23  2  0
 24 25  1  0
 24 26  2  0
 27 28  1  0
 28 29  1  0
 29 30  2  0
 29 31  1  0
M  END
>  <DRUGBANK_ID>  (1) 
DB18023

>  <COMMON_NAME>  (1) 
AGF-94

>  <CAS_NUMBER>  (1) 
136784-51-5

>  <UNII>  (1) 
X28K3E95TF

>  <SYNONYMS>  (1) 
(5-(3-(2-amino-4-oxo-4,7-dihydro-3 h-pyrrolo(2,3-d)pyrimidin-6-yl)propyl)thiophene-2-carbonyl)-l-glutamic acid

$$$$
