
     RDKit          2D

 22 23  0  0  1  0  0  0  0  0999 V2000
   -2.8579    2.4750    0.0000 C   0  0  0  0  0  0  0  0  0  0  0  0
   -2.1434    2.0625    0.0000 C   0  0  0  0  0  0  0  0  0  0  0  0
   -2.8579    3.3000    0.0000 C   0  0  0  0  0  0  0  0  0  0  0  0
   -1.4289    2.4750    0.0000 C   0  0  0  0  0  0  0  0  0  0  0  0
    0.0000    7.4250    0.0000 C   0  0  0  0  0  0  0  0  0  0  0  0
   -0.7145    6.1875    0.0000 C   0  0  0  0  0  0  0  0  0  0  0  0
   -2.1434    7.0125    0.0000 C   0  0  0  0  0  0  0  0  0  0  0  0
   -0.7145    7.0125    0.0000 C   0  0  0  0  0  0  0  0  0  0  0  0
    0.0000    8.2500    0.0000 C   0  0  0  0  0  0  0  0  0  0  0  0
   -1.4289    5.7750    0.0000 C   0  0  0  0  0  0  0  0  0  0  0  0
   -1.4289    7.4250    0.0000 C   0  0  0  0  0  0  0  0  0  0  0  0
   -2.1434    6.1875    0.0000 C   0  0  0  0  0  0  0  0  0  0  0  0
   -2.1434    3.7125    0.0000 C   0  0  0  0  0  0  0  0  0  0  0  0
    0.7145    8.6625    0.0000 C   0  0  0  0  0  0  0  0  0  0  0  0
   -0.7145    8.6625    0.0000 N   0  0  0  0  0  0  0  0  0  0  0  0
   -1.4289    3.3000    0.0000 N   0  0  0  0  0  0  0  0  0  0  0  0
   -1.4289    4.9500    0.0000 N   0  0  0  0  0  0  0  0  0  0  0  0
   -2.1434    4.5375    0.0000 N   0  0  0  0  0  0  0  0  0  0  0  0
   -1.4289    8.2500    0.0000 O   0  0  0  0  0  0  0  0  0  0  0  0
   -2.8579    5.7750    0.0000 O   0  0  0  0  0  0  0  0  0  0  0  0
    0.7145    9.4875    0.0000 O   0  0  0  0  0  0  0  0  0  0  0  0
    1.4289    8.2500    0.0000 O   0  0  0  0  0  0  0  0  0  0  0  0
  2  1  2  0
  3  1  1  0
  4  2  1  0
  8  5  1  6
  8  6  1  0
  9  5  1  0
  9 15  1  6
 10  6  2  0
 11  7  1  0
 11  8  1  0
 12  7  2  0
 12 10  1  0
 13  3  2  0
 14  9  1  0
 16  4  2  0
 16 13  1  0
 17 10  1  0
 18 13  1  0
 18 17  1  0
 19 11  2  0
 20 12  1  0
 21 14  2  0
 22 14  1  0
M  END
>  <DRUGBANK_ID>  (1) 
DB01634

>  <SECONDARY_ACCESSION_NUMBERS>  (1) 
EXPT02499

>  <COMMON_NAME>  (1) 
2-Oxy-4-Hydroxy-5-(2-Hydrazinopyridine)Phenylalanine

$$$$
