
     RDKit          2D

 33 37  0  0  0  0  0  0  0  0999 V2000
    2.9272    3.3466    0.0000 C   0  0  0  0  0  0  0  0  0  0  0  0
    3.4728    3.9654    0.0000 C   0  0  0  0  0  0  0  0  0  0  0  0
    3.2097    4.7473    0.0000 C   0  0  0  0  0  0  0  0  0  0  0  0
    3.7552    5.3661    0.0000 C   0  0  0  0  0  0  0  0  0  0  0  0
    4.5640    5.2031    0.0000 C   0  0  0  0  0  0  0  0  0  0  0  0
    4.8271    4.4212    0.0000 C   0  0  0  0  0  0  0  0  0  0  0  0
    4.2815    3.8023    0.0000 C   0  0  0  0  0  0  0  0  0  0  0  0
    4.5447    3.0204    0.0000 N   0  0  0  0  0  0  0  0  0  0  0  0
    5.3319    2.7737    0.0000 C   0  0  0  0  0  0  0  0  0  0  0  0
    5.9942    3.2656    0.0000 O   0  0  0  0  0  0  0  0  0  0  0  0
    5.3406    1.9488    0.0000 C   0  0  0  0  0  0  0  0  0  0  0  0
    5.9594    1.4032    0.0000 C   0  0  0  0  0  0  0  0  0  0  0  0
    5.7963    0.5945    0.0000 C   0  0  0  0  0  0  0  0  0  0  0  0
    5.0144    0.3313    0.0000 C   0  0  0  0  0  0  0  0  0  0  0  0
    4.3956    0.8769    0.0000 C   0  0  0  0  0  0  0  0  0  0  0  0
    4.5586    1.6856    0.0000 C   0  0  0  0  0  0  0  0  0  0  0  0
    4.0668    2.3479    0.0000 C   0  0  0  0  0  0  0  0  0  0  0  0
    3.3523    1.9354    0.0000 C   0  0  0  0  0  0  0  0  0  0  0  0
    3.3523    1.1104    0.0000 C   0  0  0  0  0  0  0  0  0  0  0  0
    2.6378    0.6979    0.0000 C   0  0  0  0  0  0  0  0  0  0  0  0
    1.9233    1.1104    0.0000 C   0  0  0  0  0  0  0  0  0  0  0  0
    1.9233    1.9354    0.0000 C   0  0  0  0  0  0  0  0  0  0  0  0
    2.6378    2.3479    0.0000 C   0  0  0  0  0  0  0  0  0  0  0  0
    1.1387    2.1904    0.0000 N   0  0  0  0  0  0  0  0  0  0  0  0
    0.6538    1.5229    0.0000 C   0  0  0  0  0  0  0  0  0  0  0  0
    1.1387    0.8555    0.0000 N   0  0  0  0  0  0  0  0  0  0  0  0
   -0.1712    1.5229    0.0000 N   0  0  0  0  0  0  0  0  0  0  0  0
   -0.5837    0.8085    0.0000 C   0  0  0  0  0  0  0  0  0  0  0  0
   -0.1712    0.0940    0.0000 O   0  0  0  0  0  0  0  0  0  0  0  0
   -1.4087    0.8085    0.0000 O   0  0  0  0  0  0  0  0  0  0  0  0
   -1.8212    0.0940    0.0000 C   0  0  0  0  0  0  0  0  0  0  0  0
    3.3438    2.7454    0.0000 O   0  0  0  0  0  0  0  0  0  0  0  0
    5.1095    5.8219    0.0000 Cl  0  0  0  0  0  0  0  0  0  0  0  0
  1  2  1  0
  2  3  2  0
  2  7  1  0
  3  4  1  0
  4  5  2  0
  5  6  1  0
  5 33  1  0
  6  7  2  0
  7  8  1  0
  8  9  1  0
  8 17  1  0
  9 10  2  0
  9 11  1  0
 11 12  1  0
 11 16  2  0
 12 13  2  0
 13 14  1  0
 14 15  2  0
 15 16  1  0
 16 17  1  0
 17 18  1  0
 17 32  1  0
 18 19  2  0
 18 23  1  0
 19 20  1  0
 20 21  2  0
 21 22  1  0
 21 26  1  0
 22 23  2  0
 22 24  1  0
 24 25  2  0
 25 26  1  0
 25 27  1  0
 27 28  1  0
 28 29  2  0
 28 30  1  0
 30 31  1  0
M  END
>  <DRUGBANK_ID>  (1) 
DB12854

>  <COMMON_NAME>  (1) 
BMS-908662

>  <CAS_NUMBER>  (1) 
870603-16-0

>  <UNII>  (1) 
DW2NWI3TFN

$$$$
