
     RDKit          2D

 28 30  0  0  1  0  0  0  0  0999 V2000
   -1.2400    2.6664    0.0000 C   0  0  0  0  0  0  0  0  0  0  0  0
   -0.4331    2.4949    0.0000 C   0  0  0  0  0  0  0  0  0  0  0  0
    0.1190    3.1080    0.0000 C   0  0  0  0  0  0  0  0  0  0  0  0
    0.9259    2.9365    0.0000 C   0  0  0  0  0  0  0  0  0  0  0  0
    1.1809    2.1518    0.0000 C   0  0  0  0  0  0  0  0  0  0  0  0
    0.6288    1.5387    0.0000 C   0  0  0  0  0  0  0  0  0  0  0  0
   -0.1781    1.7103    0.0000 C   0  0  0  0  0  0  0  0  0  0  0  0
    0.8838    0.7541    0.0000 P   0  0  0  0  0  0  0  0  0  0  0  0
    0.0992    0.4992    0.0000 O   0  0  0  0  0  0  0  0  0  0  0  0
    1.1387   -0.0305    0.0000 C   0  0  0  0  0  0  0  0  0  0  0  0
    1.9233   -0.2854    0.0000 C   0  0  0  0  0  0  0  0  0  0  0  0
    2.6378    0.1271    0.0000 C   0  0  0  0  0  0  0  0  0  0  0  0
    3.3523   -0.2854    0.0000 C   0  0  0  0  0  0  0  0  0  0  0  0
    3.3523   -1.1104    0.0000 C   0  0  0  0  0  0  0  0  0  0  0  0
    2.6378   -1.5229    0.0000 C   0  0  0  0  0  0  0  0  0  0  0  0
    1.9233   -1.1104    0.0000 C   0  0  0  0  0  0  0  0  0  0  0  0
    1.1387   -1.3654    0.0000 N   0  0  0  0  0  0  0  0  0  0  0  0
    0.6538   -0.6979    0.0000 C   0  0  0  0  0  0  0  0  0  0  0  0
   -0.1712   -0.6979    0.0000 C   0  0  0  0  0  0  0  0  0  0  0  0
   -0.5837    0.0165    0.0000 O   0  0  0  0  0  0  0  0  0  0  0  0
   -0.5837   -1.4124    0.0000 N   0  0  0  0  0  0  0  0  0  0  0  0
    4.0668    0.1271    0.0000 Cl  0  0  0  0  0  0  0  0  0  0  0  0
    1.6684    1.0091    0.0000 O   0  0  0  0  0  0  0  0  0  0  0  0
    1.8399    1.8160    0.0000 C   0  0  0  0  0  0  0  0  0  0  0  0
    1.4780    3.5496    0.0000 C   0  0  0  0  0  0  0  0  0  0  0  0
    2.2849    3.3780    0.0000 C   0  0  0  0  0  0  0  0  0  0  0  0
    2.8370    3.9911    0.0000 C   0  0  0  0  0  0  0  0  0  0  0  0
    3.3890    4.6042    0.0000 N   0  0  0  0  0  0  0  0  0  0  0  0
  1  2  1  0
  2  3  2  0
  2  7  1  0
  3  4  1  0
  4  5  2  0
  4 25  1  0
  5  6  1  0
  6  7  2  0
  8  6  1  0
  8  9  2  0
  8 10  1  0
  8 23  1  0
 10 11  1  0
 10 18  2  0
 11 12  2  0
 11 16  1  0
 12 13  1  0
 13 14  2  0
 13 22  1  0
 14 15  1  0
 15 16  2  0
 16 17  1  0
 17 18  1  0
 18 19  1  0
 19 20  2  0
 19 21  1  0
 23 24  1  0
 25 26  2  0
 26 27  1  0
 27 28  3  0
M  END
>  <DRUGBANK_ID>  (1) 
DB06166

>  <COMMON_NAME>  (1) 
Fosdevirine

>  <CAS_NUMBER>  (1) 
1018450-26-4

>  <UNII>  (1) 
Z4I0C281BJ

>  <SYNONYMS>  (1) 
Fosdevirine

$$$$
