AXA
     RDKit          2D

 33 37  0  0  0  0  0  0  0  0999 V2000
    2.1498    1.0167    0.0000 C   0  0  0  0  0  0  0  0  0  0  0  0
    2.7018    1.6298    0.0000 C   0  0  0  0  0  0  0  0  0  0  0  0
    2.4469    2.4144    0.0000 N   0  0  0  0  0  0  0  0  0  0  0  0
    2.9989    3.0275    0.0000 C   0  0  0  0  0  0  0  0  0  0  0  0
    2.7440    3.8121    0.0000 O   0  0  0  0  0  0  0  0  0  0  0  0
    3.8059    2.8560    0.0000 C   0  0  0  0  0  0  0  0  0  0  0  0
    4.0608    2.0713    0.0000 O   0  0  0  0  0  0  0  0  0  0  0  0
    3.5088    1.4582    0.0000 C   0  0  0  0  0  0  0  0  0  0  0  0
    3.7637    0.6736    0.0000 C   0  0  0  0  0  0  0  0  0  0  0  0
    3.2117    0.0605    0.0000 C   0  0  0  0  0  0  0  0  0  0  0  0
    2.4047    0.2320    0.0000 C   0  0  0  0  0  0  0  0  0  0  0  0
    1.8527   -0.3810    0.0000 C   0  0  0  0  0  0  0  0  0  0  0  0
    2.1076   -1.1657    0.0000 N   0  0  0  0  0  0  0  0  0  0  0  0
    1.5556   -1.7788    0.0000 C   0  0  0  0  0  0  0  0  0  0  0  0
    1.8105   -2.5634    0.0000 O   0  0  0  0  0  0  0  0  0  0  0  0
    0.7486   -1.6072    0.0000 C   0  0  0  0  0  0  0  0  0  0  0  0
    0.1966   -2.2203    0.0000 N   0  0  0  0  0  0  0  0  0  0  0  0
    0.4937   -0.8226    0.0000 N   0  0  0  0  0  0  0  0  0  0  0  0
   -0.3133   -0.6511    0.0000 C   0  0  0  0  0  0  0  0  0  0  0  0
   -0.5682    0.1335    0.0000 O   0  0  0  0  0  0  0  0  0  0  0  0
   -0.8653   -1.2642    0.0000 C   0  0  0  0  0  0  0  0  0  0  0  0
   -1.6903   -1.2642    0.0000 C   0  0  0  0  0  0  0  0  0  0  0  0
   -0.6104   -2.0488    0.0000 C   0  0  0  0  0  0  0  0  0  0  0  0
   -1.2778   -2.5337    0.0000 S   0  0  0  0  0  0  0  0  0  0  0  0
   -1.9452   -2.0488    0.0000 C   0  0  0  0  0  0  0  0  0  0  0  0
   -2.7522   -2.2203    0.0000 C   0  0  0  0  0  0  0  0  0  0  0  0
   -3.3043   -1.6072    0.0000 C   0  0  0  0  0  0  0  0  0  0  0  0
   -3.0493   -0.8226    0.0000 C   0  0  0  0  0  0  0  0  0  0  0  0
   -2.2423   -0.6511    0.0000 C   0  0  0  0  0  0  0  0  0  0  0  0
   -1.9874    0.1335    0.0000 C   0  0  0  0  0  0  0  0  0  0  0  0
   -2.5394    0.7466    0.0000 C   0  0  0  0  0  0  0  0  0  0  0  0
   -3.3464    0.5751    0.0000 O   0  0  0  0  0  0  0  0  0  0  0  0
   -2.2845    1.5312    0.0000 N   0  0  0  0  0  0  0  0  0  0  0  0
  1  2  2  0
  1 11  1  0
  2  3  1  0
  2  8  1  0
  3  4  1  0
  4  5  2  0
  4  6  1  0
  6  7  1  0
  7  8  1  0
  8  9  2  0
  9 10  1  0
 10 11  2  0
 11 12  1  0
 12 13  1  0
 13 14  1  0
 14 15  2  0
 14 16  1  0
 16 17  2  0
 16 18  1  0
 17 23  1  0
 18 19  1  0
 19 20  2  0
 19 21  1  0
 21 22  1  0
 21 23  2  0
 22 25  2  0
 22 29  1  0
 23 24  1  0
 24 25  1  0
 25 26  1  0
 26 27  1  0
 27 28  1  0
 28 29  1  0
 29 30  1  1
 30 31  1  0
 31 32  2  0
 31 33  1  0
M  END
>  <DRUGBANK_ID>  (1) 
DB07397

>  <COMMON_NAME>  (1) 
(5S)-5-(2-amino-2-oxoethyl)-4-oxo-N-[(3-oxo-3,4-dihydro-2H-1,4-benzoxazin-6-yl)methyl]-3,4,5,6,7,8-hexahydro[1]benzothieno[2,3-d]pyrimidine-2-carboxamide

$$$$
