1491
     RDKit          2D

 26 28  0  0  1  0  0  0  0  0999 V2000
    6.5270    0.7144    0.0000 O   0  0  0  0  0  0  0  0  0  0  0  0
    3.0572   -0.2482    0.0000 N   0  0  0  0  0  0  0  0  0  0  0  0
    3.6892    0.2822    0.0000 C   0  0  0  0  0  0  0  0  0  0  0  0
    4.4645    0.0000    0.0000 C   0  0  0  0  0  0  0  0  0  0  0  0
    5.2895    0.0000    0.0000 C   0  0  0  0  0  0  0  0  0  0  0  0
    2.2820    0.0341    0.0000 C   0  0  0  0  0  0  0  0  0  0  0  0
    3.2004   -1.0605    0.0000 C   0  0  0  0  0  0  0  0  0  0  0  0
    1.6500   -0.4962    0.0000 C   0  0  0  0  0  0  0  0  0  0  0  0
    2.5685   -1.5908    0.0000 C   0  0  0  0  0  0  0  0  0  0  0  0
    1.7932   -1.3087    0.0000 C   0  0  0  0  0  0  0  0  0  0  0  0
    3.5459    1.0946    0.0000 C   0  0  0  0  0  0  0  0  0  0  0  0
    5.2895   -0.8250    0.0000 C   0  0  0  0  0  0  0  0  0  0  0  0
    5.2895    0.8250    0.0000 C   0  0  0  0  0  0  0  0  0  0  0  0
    6.1145    0.0000    0.0000 C   0  0  0  0  0  0  0  0  0  0  0  0
    6.5270   -0.7144    0.0000 C   0  0  0  0  0  0  0  0  0  0  0  0
    6.0039   -1.2375    0.0000 C   0  0  0  0  0  0  0  0  0  0  0  0
    4.5750    1.2375    0.0000 C   0  0  0  0  0  0  0  0  0  0  0  0
    4.5750   -1.2375    0.0000 C   0  0  0  0  0  0  0  0  0  0  0  0
    6.0039    1.2375    0.0000 C   0  0  0  0  0  0  0  0  0  0  0  0
    7.3520   -0.7144    0.0000 C   0  0  0  0  0  0  0  0  0  0  0  0
    6.0039   -2.0625    0.0000 C   0  0  0  0  0  0  0  0  0  0  0  0
    4.5750    2.0625    0.0000 C   0  0  0  0  0  0  0  0  0  0  0  0
    4.5750   -2.0625    0.0000 C   0  0  0  0  0  0  0  0  0  0  0  0
    6.0039    2.0625    0.0000 C   0  0  0  0  0  0  0  0  0  0  0  0
    5.2895   -2.4750    0.0000 C   0  0  0  0  0  0  0  0  0  0  0  0
    5.2895    2.4750    0.0000 C   0  0  0  0  0  0  0  0  0  0  0  0
  1 14  2  0
  2  3  1  0
  2  6  1  0
  2  7  1  0
  3  4  1  0
  3 11  1  0
  4  5  1  0
  5 12  1  0
  5 13  1  0
  5 14  1  0
  6  8  1  0
  7  9  1  0
  8 10  1  0
  9 10  1  0
 12 16  2  0
 12 18  1  0
 13 17  2  0
 13 19  1  0
 14 15  1  0
 15 20  1  0
 16 21  1  0
 17 22  1  0
 18 23  2  0
 19 24  2  0
 21 25  2  0
 22 26  2  0
 23 25  1  0
 24 26  1  0
M  END
>  <DRUGBANK_ID>  (1) 
DB01491

>  <COMMON_NAME>  (1) 
Dipipanone

>  <CAS_NUMBER>  (1) 
467-83-4

>  <UNII>  (1) 
X188638Y2V

>  <SYNONYMS>  (1) 
Dipipanone

$$$$
