
     RDKit          2D

 37 37  0  0  0  0  0  0  0  0999 V2000
   -0.7145    0.4125    0.0000 C   0  0  0  0  0  0  0  0  0  0  0  0
   -1.4289    0.8250    0.0000 C   0  0  0  0  0  0  0  0  0  0  0  0
   -2.1434    0.4125    0.0000 C   0  0  0  0  0  0  0  0  0  0  0  0
   -1.4289    1.6500    0.0000 O   0  0  0  0  0  0  0  0  0  0  0  0
   -0.7145    2.0625    0.0000 P   0  0  0  0  0  0  0  0  0  0  0  0
   -0.3020    1.3480    0.0000 O   0  0  0  0  0  0  0  0  0  0  0  0
    0.0000    2.4750    0.0000 C   0  0  0  0  0  0  0  0  0  0  0  0
    0.7145    2.0625    0.0000 C   0  0  0  0  0  0  0  0  0  0  0  0
    0.7145    1.2375    0.0000 C   0  0  0  0  0  0  0  0  0  0  0  0
    1.4289    0.8250    0.0000 C   0  0  0  0  0  0  0  0  0  0  0  0
    1.4289   -0.0000    0.0000 C   0  0  0  0  0  0  0  0  0  0  0  0
    0.7145   -0.4125    0.0000 C   0  0  0  0  0  0  0  0  0  0  0  0
    0.0000    0.0000    0.0000 C   0  0  0  0  0  0  0  0  0  0  0  0
    0.0000    0.8250    0.0000 C   0  0  0  0  0  0  0  0  0  0  0  0
   -0.7145   -0.4125    0.0000 C   0  0  0  0  0  0  0  0  0  0  0  0
   -1.4289   -0.8250    0.0000 C   0  0  0  0  0  0  0  0  0  0  0  0
   -1.1270    0.3020    0.0000 C   0  0  0  0  0  0  0  0  0  0  0  0
   -0.3020   -1.1270    0.0000 C   0  0  0  0  0  0  0  0  0  0  0  0
    0.7145   -1.2375    0.0000 O   0  0  0  0  0  0  0  0  0  0  0  0
    2.1434   -0.4125    0.0000 C   0  0  0  0  0  0  0  0  0  0  0  0
    2.8579   -0.8250    0.0000 C   0  0  0  0  0  0  0  0  0  0  0  0
    1.7309   -1.1270    0.0000 C   0  0  0  0  0  0  0  0  0  0  0  0
    2.5559    0.3020    0.0000 C   0  0  0  0  0  0  0  0  0  0  0  0
    0.0000    3.3000    0.0000 P   0  0  0  0  0  0  0  0  0  0  0  0
   -0.8250    3.3000    0.0000 O   0  0  0  0  0  0  0  0  0  0  0  0
    0.0000    4.1250    0.0000 O   0  0  0  0  0  0  0  0  0  0  0  0
   -0.7145    4.5375    0.0000 C   0  0  0  0  0  0  0  0  0  0  0  0
   -0.7145    5.3625    0.0000 C   0  0  0  0  0  0  0  0  0  0  0  0
   -1.4289    4.1250    0.0000 C   0  0  0  0  0  0  0  0  0  0  0  0
    0.8250    3.3000    0.0000 O   0  0  0  0  0  0  0  0  0  0  0  0
    1.2375    4.0145    0.0000 C   0  0  0  0  0  0  0  0  0  0  0  0
    2.0625    4.0145    0.0000 C   0  0  0  0  0  0  0  0  0  0  0  0
    0.8250    4.7289    0.0000 C   0  0  0  0  0  0  0  0  0  0  0  0
   -1.1270    2.7770    0.0000 O   0  0  0  0  0  0  0  0  0  0  0  0
   -1.9520    2.7770    0.0000 C   0  0  0  0  0  0  0  0  0  0  0  0
   -2.3645    3.4914    0.0000 C   0  0  0  0  0  0  0  0  0  0  0  0
   -2.3645    2.0625    0.0000 C   0  0  0  0  0  0  0  0  0  0  0  0
  1  2  1  0
  2  3  1  0
  2  4  1  0
  4  5  1  0
  5  6  2  0
  5  7  1  0
  5 34  1  0
  7  8  1  0
  7 24  1  0
  8  9  1  0
  9 10  2  0
  9 14  1  0
 10 11  1  0
 11 12  2  0
 11 20  1  0
 12 13  1  0
 12 19  1  0
 13 14  2  0
 13 15  1  0
 15 16  1  0
 15 17  1  0
 15 18  1  0
 20 21  1  0
 20 22  1  0
 20 23  1  0
 24 25  2  0
 24 26  1  0
 24 30  1  0
 26 27  1  0
 27 28  1  0
 27 29  1  0
 30 31  1  0
 31 32  1  0
 31 33  1  0
 34 35  1  0
 35 36  1  0
 35 37  1  0
M  END
>  <DRUGBANK_ID>  (1) 
DB12276

>  <COMMON_NAME>  (1) 
Apomine

>  <CAS_NUMBER>  (1) 
126411-13-0

>  <UNII>  (1) 
JQ95208805

>  <SYNONYMS>  (1) 
tetraisopropyl 2-(3,5-di-tert-butyl-4-hydroxyphenyl)ethyl-1,1-biphosphonate

$$$$
