
     RDKit          2D

 27 29  0  0  0  0  0  0  0  0999 V2000
   -2.0663    0.2531    0.0000 C   0  0  0  0  0  0  0  0  0  0  0  0
   -2.0662    1.0781    0.0000 C   0  0  0  0  0  0  0  0  0  0  0  0
   -1.3518   -0.1593    0.0000 N   0  0  0  0  0  0  0  0  0  0  0  0
   -2.7808   -0.1593    0.0000 C   0  0  0  0  0  0  0  0  0  0  0  0
   -2.7808    1.4906    0.0000 C   0  0  0  0  0  0  0  0  0  0  0  0
   -1.3518    1.4906    0.0000 C   0  0  0  0  0  0  0  0  0  0  0  0
   -0.6373    0.2531    0.0000 C   0  0  0  0  0  0  0  0  0  0  0  0
   -3.4952    0.2531    0.0000 C   0  0  0  0  0  0  0  0  0  0  0  0
   -3.4952    1.0781    0.0000 C   0  0  0  0  0  0  0  0  0  0  0  0
   -0.6373    1.0781    0.0000 N   0  0  0  0  0  0  0  0  0  0  0  0
   -1.3518    2.3156    0.0000 N   0  0  0  0  0  0  0  0  0  0  0  0
    0.0770   -0.1593    0.0000 N   0  0  0  0  0  0  0  0  0  0  0  0
   -4.2097   -0.1592    0.0000 O   0  0  0  0  0  0  0  0  0  0  0  0
   -4.2097    1.4907    0.0000 O   0  0  0  0  0  0  0  0  0  0  0  0
    0.7587    0.3053    0.0000 C   0  0  0  0  0  0  0  0  0  0  0  0
    0.0154   -0.9820    0.0000 C   0  0  0  0  0  0  0  0  0  0  0  0
   -4.2097   -0.9842    0.0000 C   0  0  0  0  0  0  0  0  0  0  0  0
   -4.2097    2.3157    0.0000 C   0  0  0  0  0  0  0  0  0  0  0  0
    1.5470    0.0622    0.0000 C   0  0  0  0  0  0  0  0  0  0  0  0
    0.6201   -1.5431    0.0000 C   0  0  0  0  0  0  0  0  0  0  0  0
    1.8484   -0.7057    0.0000 N   0  0  0  0  0  0  0  0  0  0  0  0
    1.4359   -1.4202    0.0000 C   0  0  0  0  0  0  0  0  0  0  0  0
    2.6711   -0.7674    0.0000 C   0  0  0  0  0  0  0  0  0  0  0  0
    3.0291   -1.5107    0.0000 C   0  0  0  0  0  0  0  0  0  0  0  0
    3.1359   -0.0858    0.0000 O   0  0  0  0  0  0  0  0  0  0  0  0
    3.8518   -1.5723    0.0000 C   0  0  0  0  0  0  0  0  0  0  0  0
    4.2097   -2.3157    0.0000 C   0  0  0  0  0  0  0  0  0  0  0  0
  1  2  1  0
  1  3  2  0
  1  4  1  0
  2  5  1  0
  2  6  2  0
  3  7  1  0
  4  8  2  0
  5  9  2  0
  6 10  1  0
  6 11  1  0
  7 12  1  0
  7 10  2  0
  8 13  1  0
  8  9  1  0
  9 14  1  0
 12 15  1  0
 12 16  1  0
 13 17  1  0
 14 18  1  0
 15 19  1  0
 16 20  1  0
 19 21  1  0
 20 22  1  0
 21 23  1  0
 21 22  1  0
 23 24  1  0
 23 25  2  0
 24 26  1  0
 26 27  1  0
M  END
>  <DRUGBANK_ID>  (1) 
DB12230

>  <COMMON_NAME>  (1) 
Bunazosin

>  <CAS_NUMBER>  (1) 
80755-51-7

>  <UNII>  (1) 
9UUW4V7G2H

>  <SYNONYMS>  (1) 
Bunazosin

$$$$
