
     RDKit          2D

 12 12  0  0  0  0  0  0  0  0999 V2000
   -2.1434    0.2584    0.0000 C   0  0  0  0  0  0  0  0  0  0  0  0
   -1.7309   -1.0110    0.0000 S   0  0  0  0  0  0  0  0  0  0  0  0
   -2.8108   -0.2264    0.0000 C   0  0  0  0  0  0  0  0  0  0  0  0
   -2.5559   -1.0110    0.0000 S   0  0  0  0  0  0  0  0  0  0  0  0
   -1.4760   -0.2264    0.0000 C   0  0  0  0  0  0  0  0  0  0  0  0
   -0.7615    0.1860    0.0000 C   0  0  0  0  0  0  0  0  0  0  0  0
   -0.0470   -0.2264    0.0000 C   0  0  0  0  0  0  0  0  0  0  0  0
    0.6674    0.1860    0.0000 C   0  0  0  0  0  0  0  0  0  0  0  0
    1.3818   -0.2264    0.0000 C   0  0  0  0  0  0  0  0  0  0  0  0
    2.0963    0.1860    0.0000 C   0  0  0  0  0  0  0  0  0  0  0  0
    2.0963    1.0110    0.0000 O   0  0  0  0  0  0  0  0  0  0  0  0
    2.8108   -0.2264    0.0000 O   0  0  0  0  0  0  0  0  0  0  0  0
  1  3  1  0
  2  4  1  0
  3  4  1  0
  5  1  1  0
  5  2  1  0
  5  6  1  1
  6  7  1  0
  7  8  1  0
  8  9  1  0
  9 10  1  0
 10 12  1  0
 10 11  2  0
M  END
>  <DRUGBANK_ID>  (1) 
DB00166

>  <SECONDARY_ACCESSION_NUMBERS>  (1) 
NUTR00035

>  <COMMON_NAME>  (1) 
Lipoic acid

>  <CAS_NUMBER>  (1) 
1200-22-2

>  <UNII>  (1) 
VLL71EBS9Z

>  <SYNONYMS>  (1) 
(+)-alpha-Lipoic acid; (R)-(+)-Lipoate; (R)-(+)-lipoic acid; (R)-1,2-Dithiolane-3-pentanoic acid; (R)-1,2-dithiolane-3-valeric acid; (R)-6,8-thioctic acid; (R)-lipoic acid; Alpha lipoic acid; alpha-Lipoic acid; alpha-Liponsäure; D-thioctic acid; Lipoic acid; R-(+)-thioctic acid; R-alpha-lipoic acid; Thioctic acid; Thioctic acid D-form; α-lipoic acid

$$$$
