W56
     RDKit          2D

 24 26  0  0  0  0  0  0  0  0999 V2000
   -4.5851    0.3106    0.0000 O   0  0  0  0  0  0  0  0  0  0  0  0
   -5.1371    0.9237    0.0000 N   0  0  0  0  0  0  0  0  0  0  0  0
   -4.7246    1.6381    0.0000 C   0  0  0  0  0  0  0  0  0  0  0  0
   -5.0602    2.3918    0.0000 C   0  0  0  0  0  0  0  0  0  0  0  0
   -3.9177    1.4666    0.0000 C   0  0  0  0  0  0  0  0  0  0  0  0
   -3.8314    0.6461    0.0000 C   0  0  0  0  0  0  0  0  0  0  0  0
   -3.1170    0.2336    0.0000 C   0  0  0  0  0  0  0  0  0  0  0  0
   -2.4025    0.6461    0.0000 C   0  0  0  0  0  0  0  0  0  0  0  0
   -1.6880    0.2336    0.0000 C   0  0  0  0  0  0  0  0  0  0  0  0
   -0.9736    0.6461    0.0000 C   0  0  0  0  0  0  0  0  0  0  0  0
   -0.2591    0.2336    0.0000 C   0  0  0  0  0  0  0  0  0  0  0  0
    0.4554    0.6461    0.0000 O   0  0  0  0  0  0  0  0  0  0  0  0
    1.1699    0.2336    0.0000 C   0  0  0  0  0  0  0  0  0  0  0  0
    1.8843    0.6461    0.0000 C   0  0  0  0  0  0  0  0  0  0  0  0
    2.5988    0.2336    0.0000 C   0  0  0  0  0  0  0  0  0  0  0  0
    2.5988   -0.5914    0.0000 C   0  0  0  0  0  0  0  0  0  0  0  0
    1.8843   -1.0039    0.0000 C   0  0  0  0  0  0  0  0  0  0  0  0
    1.1699   -0.5914    0.0000 C   0  0  0  0  0  0  0  0  0  0  0  0
    3.3133   -1.0039    0.0000 C   0  0  0  0  0  0  0  0  0  0  0  0
    4.0669   -0.6683    0.0000 N   0  0  0  0  0  0  0  0  0  0  0  0
    4.6190   -1.2814    0.0000 C   0  0  0  0  0  0  0  0  0  0  0  0
    5.4395   -1.1952    0.0000 C   0  0  0  0  0  0  0  0  0  0  0  0
    4.2065   -1.9959    0.0000 C   0  0  0  0  0  0  0  0  0  0  0  0
    3.3995   -1.8243    0.0000 O   0  0  0  0  0  0  0  0  0  0  0  0
  1  2  1  0
  1  6  1  0
  2  3  2  0
  3  4  1  0
  3  5  1  0
  5  6  2  0
  6  7  1  0
  7  8  1  0
  8  9  1  0
  9 10  1  0
 10 11  1  0
 11 12  1  0
 12 13  1  0
 13 14  2  0
 13 18  1  0
 14 15  1  0
 15 16  2  0
 16 17  1  0
 16 19  1  0
 17 18  2  0
 19 20  2  0
 19 24  1  0
 20 21  1  0
 21 22  1  1
 21 23  1  0
 23 24  1  0
M  END
>  <DRUGBANK_ID>  (1) 
DB08724

>  <COMMON_NAME>  (1) 
5-(5-(4-(5-hydro-4-methyl-2-oxazolyl)phenoxy)pentyl)-3-methyl isoxazole

$$$$
