
     RDKit          2D

 12 12  0  0  0  0  0  0  0  0999 V2000
    0.3572   -1.2375    0.0000 O   0  0  0  0  0  0  0  0  0  0  0  0
   -1.0717    0.4125    0.0000 O   0  0  0  0  0  0  0  0  0  0  0  0
    0.3572    1.2375    0.0000 O   0  0  0  0  0  0  0  0  0  0  0  0
    1.7862    0.4125    0.0000 O   0  0  0  0  0  0  0  0  0  0  0  0
   -1.0717   -1.2375    0.0000 O   0  0  0  0  0  0  0  0  0  0  0  0
    0.3572    0.4125    0.0000 C   0  0  0  0  0  0  0  0  0  0  0  0
    1.0717    0.0000    0.0000 C   0  0  0  0  0  0  0  0  0  0  0  0
   -0.3571    0.0000    0.0000 C   0  0  0  0  0  0  0  0  0  0  0  0
    1.0717   -0.8250    0.0000 C   0  0  0  0  0  0  0  0  0  0  0  0
   -0.3571   -0.8250    0.0000 C   0  0  0  0  0  0  0  0  0  0  0  0
    1.7862   -1.2375    0.0000 C   0  0  0  0  0  0  0  0  0  0  0  0
   -1.7862    0.0000    0.0000 C   0  0  0  0  0  0  0  0  0  0  0  0
  1  9  1  0
  1 10  1  0
  2 12  1  0
  6  3  1  6
  6  7  1  0
  6  8  1  0
  7  4  1  6
  7  9  1  0
  8  2  1  1
  8 10  1  0
  9 11  1  6
 10  5  1  6
M  END
>  <DRUGBANK_ID>  (1) 
DB03863

>  <SECONDARY_ACCESSION_NUMBERS>  (1) 
EXPT02262

>  <COMMON_NAME>  (1) 
2-O-Methyl-beta-L-fucopyranose

>  <CAS_NUMBER>  (1) 
108266-96-2

>  <UNII>  (1) 
4PLV4YP7CJ

>  <SYNONYMS>  (1) 
6-Deoxy-2-O-methyl-beta-L-galactopyranose; 6-Deoxy-2-O-methyl-Î²-L-galactopyranose

$$$$
