
     RDKit          2D

 15 15  0  0  0  0  0  0  0  0999 V2000
    1.4296   -0.7716    0.0000 Cl  0  0  0  0  0  0  0  0  0  0  0  0
    1.8414    0.1657    0.0000 Cl  0  0  0  0  0  0  0  0  0  0  0  0
    1.0177    1.5952    0.0000 Cl  0  0  0  0  0  0  0  0  0  0  0  0
    2.1444    1.2923    0.0000 Cl  0  0  0  0  0  0  0  0  0  0  0  0
   -1.4296   -0.7716    0.0000 Cl  0  0  0  0  0  0  0  0  0  0  0  0
   -1.4296    0.8805    0.0000 O   0  0  0  0  0  0  0  0  0  0  0  0
    0.0000   -1.5952    0.0000 O   0  0  0  0  0  0  0  0  0  0  0  0
    0.0000    0.8805    0.0000 N   0  0  0  0  0  0  0  0  0  0  0  0
    0.7147    0.4686    0.0000 C   0  0  0  0  0  0  0  0  0  0  0  0
   -0.7147    0.4686    0.0000 C   0  0  0  0  0  0  0  0  0  0  0  0
    0.7147   -0.3549    0.0000 C   0  0  0  0  0  0  0  0  0  0  0  0
    1.4296    0.8805    0.0000 C   0  0  0  0  0  0  0  0  0  0  0  0
   -0.7147   -0.3549    0.0000 C   0  0  0  0  0  0  0  0  0  0  0  0
    0.0000   -0.7716    0.0000 C   0  0  0  0  0  0  0  0  0  0  0  0
   -2.1444    0.4686    0.0000 C   0  0  0  0  0  0  0  0  0  0  0  0
  1 11  1  0
  2 12  1  0
  3 12  1  0
  4 12  1  0
  5 13  1  0
  6 10  1  0
  6 15  1  0
  7 14  2  0
  8  9  1  0
  8 10  1  0
  9 11  2  0
  9 12  1  0
 10 13  2  0
 11 14  1  0
 13 14  1  0
M  END
>  <DRUGBANK_ID>  (1) 
DB06331

>  <COMMON_NAME>  (1) 
4-O-Demethylpenclomedine

>  <CAS_NUMBER>  (1) 
176046-79-0

>  <UNII>  (1) 
XUK71J2M0Q

>  <SYNONYMS>  (1) 
4-Demethylpenclomedine; 4-Dm-pen; 4-Dmpen; DM-PEN; DMPEN

$$$$
