167
     RDKit          2D

 29 31  0  0  0  0  0  0  0  0999 V2000
   -1.9023   -0.0358    0.0000 C   0  0  0  0  0  0  0  0  0  0  0  0
   -2.4424    0.5878    0.0000 C   0  0  0  0  0  0  0  0  0  0  0  0
   -3.2526    0.4319    0.0000 C   0  0  0  0  0  0  0  0  0  0  0  0
   -3.7926    1.0555    0.0000 C   0  0  0  0  0  0  0  0  0  0  0  0
   -4.6028    0.8996    0.0000 C   0  0  0  0  0  0  0  0  0  0  0  0
   -5.1429    1.5233    0.0000 N   0  0  0  0  0  0  0  0  0  0  0  0
   -4.8728    0.1201    0.0000 N   0  0  0  0  0  0  0  0  0  0  0  0
   -1.3622    1.5233    0.0000 O   0  0  0  0  0  0  0  0  0  0  0  0
   -0.0120    1.0555    0.0000 O   0  0  0  0  0  0  0  0  0  0  0  0
   -1.4992   -1.6280    0.0000 O   0  0  0  0  0  0  0  0  0  0  0  0
   -0.5521   -0.5036    0.0000 C   0  0  0  0  0  0  0  0  0  0  0  0
    0.5908   -1.1932    0.0000 C   0  0  0  0  0  0  0  0  0  0  0  0
    0.2699   -0.4332    0.0000 C   0  0  0  0  0  0  0  0  0  0  0  0
   -0.7392   -1.3071    0.0000 C   0  0  0  0  0  0  0  0  0  0  0  0
   -0.0328   -1.7333    0.0000 C   0  0  0  0  0  0  0  0  0  0  0  0
    0.7676    0.2247    0.0000 C   0  0  0  0  0  0  0  0  0  0  0  0
    1.5863    0.1227    0.0000 C   0  0  0  0  0  0  0  0  0  0  0  0
    1.9072   -0.6373    0.0000 C   0  0  0  0  0  0  0  0  0  0  0  0
    1.4095   -1.2953    0.0000 C   0  0  0  0  0  0  0  0  0  0  0  0
    2.7259   -0.7394    0.0000 C   0  0  0  0  0  0  0  0  0  0  0  0
    3.2236   -0.0815    0.0000 C   0  0  0  0  0  0  0  0  0  0  0  0
    4.0423   -0.1835    0.0000 C   0  0  0  0  0  0  0  0  0  0  0  0
    4.3632   -0.9435    0.0000 C   0  0  0  0  0  0  0  0  0  0  0  0
    3.8655   -1.6015    0.0000 C   0  0  0  0  0  0  0  0  0  0  0  0
    3.0468   -1.4994    0.0000 C   0  0  0  0  0  0  0  0  0  0  0  0
    4.2190    1.2344    0.0000 C   0  0  0  0  0  0  0  0  0  0  0  0
    4.5400    0.4744    0.0000 O   0  0  0  0  0  0  0  0  0  0  0  0
   -1.0922    0.1201    0.0000 C   0  0  0  0  0  0  0  0  0  0  0  0
   -0.8221    0.8996    0.0000 C   0  0  0  0  0  0  0  0  0  0  0  0
  1  2  1  0
 28  1  1  1
  2  3  1  0
  3  4  1  0
  4  5  1  0
  5  6  1  0
  5  7  2  0
  8 29  2  0
  9 29  1  0
 11 13  1  1
 11 14  1  0
 11 28  1  0
 12 13  2  0
 12 15  1  0
 12 19  1  0
 13 16  1  0
 14 10  1  6
 14 15  1  0
 16 17  2  0
 17 18  1  0
 18 19  2  0
 18 20  1  0
 20 21  2  0
 20 25  1  0
 21 22  1  0
 22 23  2  0
 22 27  1  0
 23 24  1  0
 24 25  2  0
 26 27  1  0
 28 29  1  0
M  END
>  <DRUGBANK_ID>  (1) 
DB06866

>  <COMMON_NAME>  (1) 
6-CARBAMIMIDOYL-2-[2-HYDROXY-5-(3-METHOXY-PHENYL)-INDAN-1-YL]-HEXANOIC ACID

$$$$
