TPD
     RDKit          2D

 19 20  0  0  0  0  0  0  0  0999 V2000
   -0.4288    2.3036    0.0000 C   0  0  0  0  0  0  0  0  0  0  0  0
    0.6981   -1.0284    0.0000 C   0  0  0  0  0  0  0  0  0  0  0  0
    0.6981   -1.8534    0.0000 C   0  0  0  0  0  0  0  0  0  0  0  0
    1.3656   -2.3383    0.0000 C   0  0  0  0  0  0  0  0  0  0  0  0
    1.1106   -3.1230    0.0000 C   0  0  0  0  0  0  0  0  0  0  0  0
    0.2856   -3.1230    0.0000 C   0  0  0  0  0  0  0  0  0  0  0  0
   -1.3987    3.6385    0.0000 O   0  0  0  0  0  0  0  0  0  0  0  0
   -0.2463    3.4560    0.0000 O   0  0  0  0  0  0  0  0  0  0  0  0
   -1.5812    2.4861    0.0000 N   0  0  0  0  0  0  0  0  0  0  0  0
   -0.9138    2.9711    0.0000 S   0  0  0  0  0  0  0  0  0  0  0  0
    0.3962    2.3036    0.0000 C   0  0  0  0  0  0  0  0  0  0  0  0
    0.6511    1.5190    0.0000 C   0  0  0  0  0  0  0  0  0  0  0  0
   -0.0163    1.0341    0.0000 C   0  0  0  0  0  0  0  0  0  0  0  0
   -0.6838    1.5190    0.0000 S   0  0  0  0  0  0  0  0  0  0  0  0
   -0.0163    0.2091    0.0000 S   0  0  0  0  0  0  0  0  0  0  0  0
    0.8087    0.2091    0.0000 O   0  0  0  0  0  0  0  0  0  0  0  0
   -0.8413    0.2091    0.0000 O   0  0  0  0  0  0  0  0  0  0  0  0
   -0.0163   -0.6159    0.0000 N   0  0  0  0  0  0  0  0  0  0  0  0
    0.0307   -2.3383    0.0000 S   0  0  0  0  0  0  0  0  0  0  0  0
  1 10  1  0
  1 11  2  0
  1 14  1  0
  2  3  1  0
  2 18  1  0
  3  4  2  0
  3 19  1  0
  4  5  1  0
  5  6  2  0
  6 19  1  0
  7 10  2  0
  8 10  2  0
  9 10  1  0
 11 12  1  0
 12 13  2  0
 13 14  1  0
 13 15  1  0
 15 16  2  0
 15 17  2  0
 15 18  1  0
M  END
>  <DRUGBANK_ID>  (1) 
DB02986

>  <SECONDARY_ACCESSION_NUMBERS>  (1) 
EXPT03089

>  <COMMON_NAME>  (1) 
N-(2-Thienylmethyl)-2,5-Thiophenedisulfonamide

$$$$
