
     RDKit          2D

 36 39  0  0  0  0  0  0  0  0999 V2000
    0.7842   -0.3539    0.0000 C   0  0  0  0  0  0  0  0  0  0  0  0
   -0.0003   -0.0990    0.0000 C   0  0  0  0  0  0  0  0  0  0  0  0
   -0.6678   -0.5839    0.0000 C   0  0  0  0  0  0  0  0  0  0  0  0
   -1.3352   -0.0990    0.0000 C   0  0  0  0  0  0  0  0  0  0  0  0
   -1.0803    0.6856    0.0000 N   0  0  0  0  0  0  0  0  0  0  0  0
   -0.2553    0.6856    0.0000 N   0  0  0  0  0  0  0  0  0  0  0  0
    0.2295    1.3530    0.0000 C   0  0  0  0  0  0  0  0  0  0  0  0
   -0.1059    2.1067    0.0000 C   0  0  0  0  0  0  0  0  0  0  0  0
   -0.9264    2.1929    0.0000 C   0  0  0  0  0  0  0  0  0  0  0  0
   -1.2620    2.9466    0.0000 C   0  0  0  0  0  0  0  0  0  0  0  0
   -0.7770    3.6140    0.0000 C   0  0  0  0  0  0  0  0  0  0  0  0
    0.0433    3.5278    0.0000 C   0  0  0  0  0  0  0  0  0  0  0  0
    0.3789    2.7741    0.0000 C   0  0  0  0  0  0  0  0  0  0  0  0
   -1.1126    4.3677    0.0000 C   0  0  0  0  0  0  0  0  0  0  0  0
   -1.4482    5.1214    0.0000 N   0  0  0  0  0  0  0  0  0  0  0  0
   -2.1198   -0.3539    0.0000 C   0  0  0  0  0  0  0  0  0  0  0  0
   -2.9045   -0.6088    0.0000 F   0  0  0  0  0  0  0  0  0  0  0  0
   -2.3748    0.4306    0.0000 F   0  0  0  0  0  0  0  0  0  0  0  0
   -1.8649   -1.1385    0.0000 F   0  0  0  0  0  0  0  0  0  0  0  0
   -0.6678   -1.4089    0.0000 N   0  0  0  0  0  0  0  0  0  0  0  0
    0.0466   -1.8214    0.0000 C   0  0  0  0  0  0  0  0  0  0  0  0
    0.7611   -1.4089    0.0000 O   0  0  0  0  0  0  0  0  0  0  0  0
    0.0466   -2.6464    0.0000 C   0  0  0  0  0  0  0  0  0  0  0  0
   -0.6678   -3.0589    0.0000 C   0  0  0  0  0  0  0  0  0  0  0  0
   -0.6678   -3.8839    0.0000 C   0  0  0  0  0  0  0  0  0  0  0  0
    0.0466   -4.2964    0.0000 N   0  0  0  0  0  0  0  0  0  0  0  0
    0.7611   -3.8839    0.0000 C   0  0  0  0  0  0  0  0  0  0  0  0
    0.7611   -3.0589    0.0000 C   0  0  0  0  0  0  0  0  0  0  0  0
    1.4755   -2.6464    0.0000 C   0  0  0  0  0  0  0  0  0  0  0  0
    2.1900   -3.0589    0.0000 C   0  0  0  0  0  0  0  0  0  0  0  0
    2.1900   -3.8839    0.0000 C   0  0  0  0  0  0  0  0  0  0  0  0
    1.4755   -4.2964    0.0000 C   0  0  0  0  0  0  0  0  0  0  0  0
    2.9045   -4.2964    0.0000 F   0  0  0  0  0  0  0  0  0  0  0  0
   -1.3823   -4.2964    0.0000 C   0  0  0  0  0  0  0  0  0  0  0  0
   -1.3823   -5.1214    0.0000 O   0  0  0  0  0  0  0  0  0  0  0  0
   -2.0967   -3.8839    0.0000 N   0  0  0  0  0  0  0  0  0  0  0  0
  1  2  1  0
  2  3  2  0
  2  6  1  0
  3  4  1  0
  3 20  1  0
  4  5  2  0
  4 16  1  0
  5  6  1  0
  6  7  1  0
  7  8  1  0
  8  9  2  0
  8 13  1  0
  9 10  1  0
 10 11  2  0
 11 12  1  0
 11 14  1  0
 12 13  2  0
 14 15  3  0
 16 17  1  0
 16 18  1  0
 16 19  1  0
 20 21  1  0
 21 22  2  0
 21 23  1  0
 23 24  2  0
 23 28  1  0
 24 25  1  0
 25 26  2  0
 25 34  1  0
 26 27  1  0
 27 28  2  0
 27 32  1  0
 28 29  1  0
 29 30  2  0
 30 31  1  0
 31 32  2  0
 31 33  1  0
 34 35  2  0
 34 36  1  0
M  END
>  <DRUGBANK_ID>  (1) 
DB16758

>  <COMMON_NAME>  (1) 
BAY-876

>  <CAS_NUMBER>  (1) 
1799753-84-6

>  <SYNONYMS>  (1) 
BAY 876; BAY876

$$$$
