
     RDKit          2D

 19 19  0  0  1  0  0  0  0  0999 V2000
   -0.4790   -2.2438    0.0000 C   0  0  0  0  0  0  0  0  0  0  0  0
    0.8264   -1.6626    0.0000 C   0  0  0  0  0  0  0  0  0  0  0  0
   -1.0462    0.7712    0.0000 C   0  0  0  0  0  0  0  0  0  0  0  0
    2.0198    0.8843    0.0000 C   0  0  0  0  0  0  0  0  0  0  0  0
    2.1913    1.6913    0.0000 C   0  0  0  0  0  0  0  0  0  0  0  0
   -0.3297   -0.8227    0.0000 C   0  0  0  0  0  0  0  0  0  0  0  0
    0.0059   -1.5764    0.0000 C   0  0  0  0  0  0  0  0  0  0  0  0
   -0.7912    1.5559    0.0000 C   0  0  0  0  0  0  0  0  0  0  0  0
    0.1553   -0.1553    0.0000 C   0  0  0  0  0  0  0  0  0  0  0  0
    0.0157    1.7274    0.0000 C   0  0  0  0  0  0  0  0  0  0  0  0
    0.9803   -0.1553    0.0000 C   0  0  0  0  0  0  0  0  0  0  0  0
    0.5678    1.1143    0.0000 C   0  0  0  0  0  0  0  0  0  0  0  0
    0.2707    2.5120    0.0000 N   0  0  0  0  0  0  0  0  0  0  0  0
   -0.0997    0.6294    0.0000 N   0  0  0  0  0  0  0  0  0  0  0  0
    1.2352    0.6294    0.0000 N   0  0  0  0  0  0  0  0  0  0  0  0
    2.9760    1.9462    0.0000 O   0  0  0  0  0  0  0  0  0  0  0  0
   -1.3433    2.1689    0.0000 O   0  0  0  0  0  0  0  0  0  0  0  0
    1.4652   -0.8227    0.0000 O   0  0  0  0  0  0  0  0  0  0  0  0
    1.1198    1.7274    0.0000 O   0  0  0  0  0  0  0  0  0  0  0  0
  5  4  1  0
  7  1  1  0
  7  2  1  0
  7  6  1  0
  8  3  1  1
  8 17  1  0
  9  6  1  0
 10  8  1  0
 10 13  1  6
 11  9  1  0
 12 10  1  0
 12 19  1  1
 14  9  2  0
 14 12  1  0
 15  4  1  0
 15 11  1  0
 15 12  1  0
 16  5  2  0
 18 11  2  0
M  END
>  <DRUGBANK_ID>  (1) 
DB02488

>  <SECONDARY_ACCESSION_NUMBERS>  (1) 
EXPT01009

>  <COMMON_NAME>  (1) 
1-(2-Ethanone)-2-Hydroxy-2-(1-Amino-2-Methyl-2-Ethanol)-4-(2-Dimethyl)Ethane-Imidazoline-5-One;Chromophore (Thr-Leu-Gly)

$$$$
