
     RDKit          2D

 38 39  0  0  0  0  0  0  0  0999 V2000
    7.8592  -15.2625    0.0000 C   0  0  0  0  0  0  0  0  0  0  0  0
    8.5737  -14.8500    0.0000 C   0  0  0  0  0  0  0  0  0  0  0  0
    9.2881  -15.2625    0.0000 C   0  0  0  0  0  0  0  0  0  0  0  0
   10.0026  -14.8500    0.0000 C   0  0  0  0  0  0  0  0  0  0  0  0
   10.7171  -15.2625    0.0000 C   0  0  0  0  0  0  0  0  0  0  0  0
   11.4315  -14.8500    0.0000 C   0  0  0  0  0  0  0  0  0  0  0  0
   12.1460  -15.2625    0.0000 C   0  0  0  0  0  0  0  0  0  0  0  0
   12.8605  -14.8500    0.0000 C   0  0  0  0  0  0  0  0  0  0  0  0
   13.5749  -15.2625    0.0000 C   0  0  0  0  0  0  0  0  0  0  0  0
   14.2894  -14.8500    0.0000 C   0  0  0  0  0  0  0  0  0  0  0  0
   15.0039  -15.2625    0.0000 C   0  0  0  0  0  0  0  0  0  0  0  0
   15.7184  -14.8500    0.0000 C   0  0  0  0  0  0  0  0  0  0  0  0
   16.4328  -15.2625    0.0000 N   0  0  0  0  0  0  0  0  0  0  0  0
   17.1473  -14.8500    0.0000 C   0  0  0  0  0  0  0  0  0  0  0  0
   17.8618  -15.2625    0.0000 C   0  0  0  0  0  0  0  0  0  0  0  0
   18.5762  -14.8500    0.0000 C   0  0  0  0  0  0  0  0  0  0  0  0
   19.2907  -15.2625    0.0000 C   0  0  0  0  0  0  0  0  0  0  0  0
   20.0052  -14.8500    0.0000 C   0  0  0  0  0  0  0  0  0  0  0  0
   20.7197  -15.2625    0.0000 C   0  0  0  0  0  0  0  0  0  0  0  0
   21.4341  -14.8500    0.0000 C   0  0  0  0  0  0  0  0  0  0  0  0
   22.1486  -15.2625    0.0000 C   0  0  0  0  0  0  0  0  0  0  0  0
   22.8631  -14.8500    0.0000 C   0  0  0  0  0  0  0  0  0  0  0  0
   23.5775  -15.2625    0.0000 C   0  0  0  0  0  0  0  0  0  0  0  0
   24.2920  -14.8500    0.0000 C   0  0  0  0  0  0  0  0  0  0  0  0
   25.0065  -15.2625    0.0000 N   0  0  0  0  0  0  0  0  0  0  0  0
   25.7210  -14.8500    0.0000 C   0  0  0  0  0  0  0  0  0  0  0  0
   25.7210  -14.0250    0.0000 O   0  0  0  0  0  0  0  0  0  0  0  0
   26.4354  -15.2625    0.0000 C   0  0  0  0  0  0  0  0  0  0  0  0
   26.4354  -16.0875    0.0000 C   0  0  0  0  0  0  0  0  0  0  0  0
   27.2200  -16.3424    0.0000 N   0  0  0  0  0  0  0  0  0  0  0  0
   27.7050  -15.6750    0.0000 C   0  0  0  0  0  0  0  0  0  0  0  0
   27.2200  -15.0076    0.0000 N   0  0  0  0  0  0  0  0  0  0  0  0
   27.4750  -14.2229    0.0000 C   0  0  0  0  0  0  0  0  0  0  0  0
   25.7210  -16.5000    0.0000 N   0  0  0  0  0  0  0  0  0  0  0  0
   25.0065  -16.0875    0.0000 C   0  0  0  0  0  0  0  0  0  0  0  0
   24.2920  -16.5000    0.0000 O   0  0  0  0  0  0  0  0  0  0  0  0
   25.7210  -17.3250    0.0000 C   0  0  0  0  0  0  0  0  0  0  0  0
   17.8618  -16.0875    0.0000 O   0  0  0  0  0  0  0  0  0  0  0  0
  1  2  1  0
  2  3  1  0
  3  4  1  0
  4  5  1  0
  5  6  1  0
  6  7  1  0
  7  8  1  0
  8  9  1  0
  9 10  1  0
 10 11  1  0
 11 12  1  0
 12 13  1  0
 13 14  1  0
 14 15  1  0
 15 16  1  0
 15 38  1  0
 16 17  1  0
 17 18  1  0
 18 19  1  0
 19 20  1  0
 20 21  1  0
 21 22  1  0
 22 23  1  0
 23 24  1  0
 24 25  1  0
 25 26  1  0
 25 35  1  0
 26 27  2  0
 26 28  1  0
 28 29  2  0
 28 32  1  0
 29 30  1  0
 29 34  1  0
 30 31  2  0
 31 32  1  0
 32 33  1  0
 34 35  1  0
 34 37  1  0
 35 36  2  0
M  END
>  <DRUGBANK_ID>  (1) 
DB13098

>  <COMMON_NAME>  (1) 
CT-2584

>  <CAS_NUMBER>  (1) 
166981-13-1

>  <UNII>  (1) 
67E5N3R22H

$$$$
