
     RDKit          2D

 17 18  0  0  1  0  0  0  0  0999 V2000
    0.7145    6.7661    0.0000 N   0  0  0  0  0  0  0  0  0  0  0  0
    0.7145    5.9411    0.0000 C   0  0  0  0  0  0  0  0  0  0  0  0
    1.4289    5.5286    0.0000 N   0  0  0  0  0  0  0  0  0  0  0  0
    1.4289    4.7036    0.0000 C   0  0  0  0  0  0  0  0  0  0  0  0
    2.1434    4.2911    0.0000 O   0  0  0  0  0  0  0  0  0  0  0  0
    0.7145    4.2911    0.0000 N   0  0  0  0  0  0  0  0  0  0  0  0
    0.0000    4.7036    0.0000 C   0  0  0  0  0  0  0  0  0  0  0  0
   -0.0000    5.5286    0.0000 C   0  0  0  0  0  0  0  0  0  0  0  0
    0.7145    3.4661    0.0000 C   0  0  0  0  0  0  0  0  0  0  0  0
    1.3819    2.9812    0.0000 S   0  0  0  0  0  0  0  0  0  0  0  0
    1.1270    2.1965    0.0000 C   0  0  0  0  0  0  0  0  0  0  0  0
    1.6119    1.5291    0.0000 C   0  0  0  0  0  0  0  0  0  0  0  0
    2.4324    1.6153    0.0000 O   0  0  0  0  0  0  0  0  0  0  0  0
    0.3020    2.1965    0.0000 C   0  0  0  0  0  0  0  0  0  0  0  0
   -0.1830    1.5291    0.0000 O   0  0  0  0  0  0  0  0  0  0  0  0
    0.0470    2.9812    0.0000 C   0  0  0  0  0  0  0  0  0  0  0  0
   -0.7376    3.2361    0.0000 F   0  0  0  0  0  0  0  0  0  0  0  0
  1  2  1  0
  2  3  2  0
  2  8  1  0
  3  4  1  0
  4  5  2  0
  4  6  1  0
  6  7  1  0
  7  8  2  0
  9  6  1  6
  9 10  1  0
 11 10  1  0
 11 12  1  6
 12 13  1  0
 14 11  1  0
 14 15  1  1
 14 16  1  0
 16  9  1  0
 16 17  1  6
M  END
>  <DRUGBANK_ID>  (1) 
DB16071

>  <COMMON_NAME>  (1) 
4'-Thio-fac

>  <CAS_NUMBER>  (1) 
184302-49-6

>  <UNII>  (1) 
R5B1HX1HUY

>  <SYNONYMS>  (1) 
4-Amino-1-[(2R,3S,4S,5R)-3-Fluoro-4-Hydroxy-5-(Hydroxymethyl)Tetrahydrothiophen-2-Yl] Pyrimidin-2(1H)-One

$$$$
