[NO NAME]
     RDKit          2D

 11 12  0  0  1  0  0  0  0  0999 V2000
   -0.7145    0.4125    0.0000 C   0  0  0  0  0  0  0  0  0  0  0  0
   -0.7145   -0.4125    0.0000 C   0  0  0  0  0  0  0  0  0  0  0  0
    0.7145    0.4125    0.0000 O   0  0  0  0  0  0  0  0  0  0  0  0
    1.5395   -0.4125    0.0000 C   0  0  0  0  0  0  0  0  0  0  0  0
    0.7145   -0.4125    0.0000 C   0  0  0  0  0  0  0  0  0  0  0  0
    1.1270   -1.1270    0.0000 C   0  0  0  0  0  0  0  0  0  0  0  0
    0.0000    0.8250    0.0000 C   0  0  0  0  0  0  0  0  0  0  0  0
    0.0000    1.6500    0.0000 C   0  0  0  0  0  0  0  0  0  0  0  0
    0.0000   -0.8250    0.0000 C   0  0  0  0  0  0  0  0  0  0  0  0
   -0.3000    0.3000    0.0000 C   0  0  0  0  0  0  0  0  0  0  0  0
   -0.3000   -0.3000    0.0000 C   0  0  0  0  0  0  0  0  0  0  0  0
  1  2  1  0
  3  7  1  0
  5  3  1  0
  5  4  1  0
  5  6  1  0
  7  1  1  0
  7 10  1  0
  7  8  1  1
  9  5  1  0
  9  2  1  6
  9 11  1  0
 11 10  1  0
M  END
>  <DRUGBANK_ID>  (1) 
DB03852

>  <SECONDARY_ACCESSION_NUMBERS>  (1) 
EXPT00969

>  <COMMON_NAME>  (1) 
Eucalyptol

>  <CAS_NUMBER>  (1) 
470-82-6

>  <UNII>  (1) 
RV6J6604TK

>  <SYNONYMS>  (1) 
1,8-cineol; 1,8-Cineole; 1,8-epoxy-p-menthane; 1,8-oxido-p-menthane; Cajeputol; Cineole; Eucalyptol; Zineol

$$$$
