
     RDKit          2D

 27 29  0  0  0  0  0  0  0  0999 V2000
    2.2961    7.3083    0.0000 C   0  0  0  0  0  0  0  0  0  0  0  0
    1.5817    7.7208    0.0000 C   0  0  0  0  0  0  0  0  0  0  0  0
    3.7251    7.3083    0.0000 C   0  0  0  0  0  0  0  0  0  0  0  0
    7.8964    9.4887    0.0000 C   0  0  0  0  0  0  0  0  0  0  0  0
    5.2558   10.1810    0.0000 C   0  0  0  0  0  0  0  0  0  0  0  0
    3.0106    7.7208    0.0000 C   0  0  0  0  0  0  0  0  0  0  0  0
    0.8672    7.3083    0.0000 C   0  0  0  0  0  0  0  0  0  0  0  0
    4.4395    7.7208    0.0000 C   0  0  0  0  0  0  0  0  0  0  0  0
    6.5615   10.4585    0.0000 C   0  0  0  0  0  0  0  0  0  0  0  0
    5.1932    7.3853    0.0000 C   0  0  0  0  0  0  0  0  0  0  0  0
    5.7453    7.9984    0.0000 C   0  0  0  0  0  0  0  0  0  0  0  0
    7.3152   10.7941    0.0000 C   0  0  0  0  0  0  0  0  0  0  0  0
    6.4753    9.6380    0.0000 C   0  0  0  0  0  0  0  0  0  0  0  0
    5.3328    8.7128    0.0000 C   0  0  0  0  0  0  0  0  0  0  0  0
    0.1527    7.7208    0.0000 C   0  0  0  0  0  0  0  0  0  0  0  0
    3.0106    8.5458    0.0000 N   0  0  0  0  0  0  0  0  0  0  0  0
    0.8672    6.4833    0.0000 N   0  0  0  0  0  0  0  0  0  0  0  0
    7.4014   11.6146    0.0000 N   0  0  0  0  0  0  0  0  0  0  0  0
    7.9826   10.3092    0.0000 N   0  0  0  0  0  0  0  0  0  0  0  0
    7.1427    9.1531    0.0000 N   0  0  0  0  0  0  0  0  0  0  0  0
    5.8078   10.7941    0.0000 N   0  0  0  0  0  0  0  0  0  0  0  0
    5.6683    9.4665    0.0000 N   0  0  0  0  0  0  0  0  0  0  0  0
    5.3647    6.5783    0.0000 O   0  0  0  0  0  0  0  0  0  0  0  0
    6.5657    7.9121    0.0000 O   0  0  0  0  0  0  0  0  0  0  0  0
   -0.5618    7.3083    0.0000 O   0  0  0  0  0  0  0  0  0  0  0  0
    0.1527    8.5458    0.0000 O   0  0  0  0  0  0  0  0  0  0  0  0
    4.5258    8.5413    0.0000 O   0  0  0  0  0  0  0  0  0  0  0  0
  2  1  1  0
  6  1  1  0
  6  3  1  0
  6 16  1  6
  7  2  1  0
  7 17  1  6
  8  3  1  1
 10  8  1  0
 10 23  1  6
 11 10  1  0
 11 24  1  6
 12  9  2  0
 13  9  1  0
 14 11  1  0
 14 22  1  1
 15  7  1  0
 18 12  1  0
 19  4  2  0
 19 12  1  0
 20  4  1  0
 20 13  2  0
 21  5  2  0
 21  9  1  0
 22  5  1  0
 22 13  1  0
 25 15  2  0
 26 15  1  0
 27  8  1  0
 27 14  1  0
M  END
>  <DRUGBANK_ID>  (1) 
DB01910

>  <SECONDARY_ACCESSION_NUMBERS>  (1) 
EXPT02890

>  <COMMON_NAME>  (1) 
Sinefungin

>  <CAS_NUMBER>  (1) 
58944-73-3

>  <UNII>  (1) 
W2U467CIIL

>  <SYNONYMS>  (1) 
(2S,5S)-2,5-diamino-6-[(2R,3S,R,5R)-5-(6-amino-9H-purin-9-yl)-3,4-dihydroxytetrahydrofuran-2-yl]hexanoic acid; 6,9-Diamino-1-(6-amino-9H-purin-9-yl)-1,5,6,7,8,9-hexadeoxy-beta-D-ribo-decofuranuronic acid; 6,9-Diamino-1-(6-amino-9H-purin-9-yl)-1,5,6,7,8,9-hexadeoxydecofuranuronic acid; Adenosyl-ornithine; Sinefungin; sinefungina; sinefungine; sinefunginum

$$$$
