
     RDKit          2D

 31 33  0  0  1  0  0  0  0  0999 V2000
    0.0000   -1.6500    0.0000 C   0  0  0  0  0  0  0  0  0  0  0  0
    0.7145   -2.0625    0.0000 N   0  0  0  0  0  0  0  0  0  0  0  0
    0.7145   -2.8875    0.0000 C   0  0  0  0  0  0  0  0  0  0  0  0
    1.3819   -3.3724    0.0000 C   0  0  0  0  0  0  0  0  0  0  0  0
    2.1665   -3.1175    0.0000 C   0  0  0  0  0  0  0  0  0  0  0  0
    2.7796   -3.6695    0.0000 N   0  0  0  0  0  0  0  0  0  0  0  0
    2.3381   -2.3105    0.0000 O   0  0  0  0  0  0  0  0  0  0  0  0
    1.1270   -4.1570    0.0000 C   0  0  0  0  0  0  0  0  0  0  0  0
    0.3020   -4.1570    0.0000 N   0  0  0  0  0  0  0  0  0  0  0  0
    0.0470   -3.3724    0.0000 N   0  0  0  0  0  0  0  0  0  0  0  0
   -0.7376   -3.1175    0.0000 C   0  0  0  0  0  0  0  0  0  0  0  0
   -1.4050   -3.6024    0.0000 C   0  0  0  0  0  0  0  0  0  0  0  0
   -2.0725   -3.1175    0.0000 C   0  0  0  0  0  0  0  0  0  0  0  0
   -1.8175   -2.3329    0.0000 N   0  0  0  0  0  0  0  0  0  0  0  0
   -0.9925   -2.3329    0.0000 C   0  0  0  0  0  0  0  0  0  0  0  0
   -2.3025   -1.6654    0.0000 C   0  0  0  0  0  0  0  0  0  0  0  0
   -1.9669   -0.9117    0.0000 O   0  0  0  0  0  0  0  0  0  0  0  0
   -3.1229   -1.7517    0.0000 C   0  0  0  0  0  0  0  0  0  0  0  0
   -3.6079   -1.0842    0.0000 C   0  0  0  0  0  0  0  0  0  0  0  0
    1.6119   -4.8245    0.0000 C   0  0  0  0  0  0  0  0  0  0  0  0
    2.0968   -5.4919    0.0000 C   0  0  0  0  0  0  0  0  0  0  0  0
    2.5817   -6.1594    0.0000 C   0  0  0  0  0  0  0  0  0  0  0  0
    3.4022   -6.0731    0.0000 C   0  0  0  0  0  0  0  0  0  0  0  0
    3.8871   -6.7406    0.0000 C   0  0  0  0  0  0  0  0  0  0  0  0
    4.7076   -6.6543    0.0000 O   0  0  0  0  0  0  0  0  0  0  0  0
    5.0432   -5.9007    0.0000 C   0  0  0  0  0  0  0  0  0  0  0  0
    3.5516   -7.4942    0.0000 C   0  0  0  0  0  0  0  0  0  0  0  0
    2.7311   -7.5805    0.0000 C   0  0  0  0  0  0  0  0  0  0  0  0
    2.3955   -8.3342    0.0000 O   0  0  0  0  0  0  0  0  0  0  0  0
    1.5751   -8.4204    0.0000 C   0  0  0  0  0  0  0  0  0  0  0  0
    2.2462   -6.9130    0.0000 C   0  0  0  0  0  0  0  0  0  0  0  0
  1  2  1  0
  2  3  1  0
  3  4  2  0
  3 10  1  0
  4  5  1  0
  4  8  1  0
  5  6  1  0
  5  7  2  0
  8  9  2  0
  8 20  1  0
  9 10  1  0
 11 10  1  1
 11 12  1  0
 11 15  1  0
 12 13  1  0
 13 14  1  0
 14 15  1  0
 14 16  1  0
 16 17  2  0
 16 18  1  0
 18 19  2  0
 20 21  3  0
 21 22  1  0
 22 23  2  0
 22 31  1  0
 23 24  1  0
 24 25  1  0
 24 27  2  0
 25 26  1  0
 27 28  1  0
 28 29  1  0
 28 31  2  0
 29 30  1  0
M  END
>  <DRUGBANK_ID>  (1) 
DB18191

>  <COMMON_NAME>  (1) 
Gunagratinib

>  <CAS_NUMBER>  (1) 
2211082-53-8

>  <UNII>  (1) 
9D589FD91A

>  <SYNONYMS>  (1) 
(s)-1-(1-acryloylpyrrolidin-3-yl)-3-((3,5-dimethoxyphenyl)ethynyl)-5-(methylamino)-1h-pyrazole-4-carboxamide; 1h-pyrazole-4-carboxamide, 3-(2-(3,5-dimethoxyphenyl)ethynyl)-5-(methylamino)-1-((3s)-1-(1-oxo-2-propen-1-yl)-3-pyrrolidinyl)-

$$$$
