
     RDKit          2D

 28 31  0  0  0  0  0  0  0  0999 V2000
    0.3486    0.4125    0.0000 C   0  0  0  0  0  0  0  0  0  0  0  0
   -0.3658    0.8250    0.0000 N   0  0  0  0  0  0  0  0  0  0  0  0
   -0.3658    1.6500    0.0000 C   0  0  0  0  0  0  0  0  0  0  0  0
    0.3486    2.0625    0.0000 C   0  0  0  0  0  0  0  0  0  0  0  0
    1.0630    1.6500    0.0000 C   0  0  0  0  0  0  0  0  0  0  0  0
    1.0630    0.8250    0.0000 N   0  0  0  0  0  0  0  0  0  0  0  0
   -1.0803    2.0625    0.0000 N   0  0  0  0  0  0  0  0  0  0  0  0
    0.3486   -0.4124    0.0000 C   0  0  0  0  0  0  0  0  0  0  0  0
   -0.3658   -0.8249    0.0000 C   0  0  0  0  0  0  0  0  0  0  0  0
   -0.3658   -1.6499    0.0000 C   0  0  0  0  0  0  0  0  0  0  0  0
    0.3486   -2.0625    0.0000 C   0  0  0  0  0  0  0  0  0  0  0  0
    0.3486   -2.8874    0.0000 C   0  0  0  0  0  0  0  0  0  0  0  0
   -0.3658   -3.3000    0.0000 C   0  0  0  0  0  0  0  0  0  0  0  0
   -1.0803   -2.8874    0.0000 C   0  0  0  0  0  0  0  0  0  0  0  0
   -1.0803   -2.0625    0.0000 C   0  0  0  0  0  0  0  0  0  0  0  0
   -2.6880    0.6578    0.0000 N   0  0  0  0  0  0  0  0  0  0  0  0
   -1.8810    0.8295    0.0000 N   0  0  0  0  0  0  0  0  0  0  0  0
   -1.7948    1.6500    0.0000 C   0  0  0  0  0  0  0  0  0  0  0  0
   -2.5484    1.9855    0.0000 C   0  0  0  0  0  0  0  0  0  0  0  0
   -3.1005    1.3724    0.0000 C   0  0  0  0  0  0  0  0  0  0  0  0
   -3.9209    1.4587    0.0000 C   0  0  0  0  0  0  0  0  0  0  0  0
    1.7775    2.0625    0.0000 N   0  0  0  0  0  0  0  0  0  0  0  0
    1.7775    2.8875    0.0000 C   0  0  0  0  0  0  0  0  0  0  0  0
    2.4920    3.3000    0.0000 C   0  0  0  0  0  0  0  0  0  0  0  0
    3.2064    2.8875    0.0000 N   0  0  0  0  0  0  0  0  0  0  0  0
    3.2064    2.0625    0.0000 C   0  0  0  0  0  0  0  0  0  0  0  0
    2.4920    1.6500    0.0000 C   0  0  0  0  0  0  0  0  0  0  0  0
    3.9209    3.3000    0.0000 C   0  0  0  0  0  0  0  0  0  0  0  0
  1  2  2  0
  1  6  1  0
  1  8  1  0
  2  3  1  0
  3  4  2  0
  3  7  1  0
  4  5  1  0
  5  6  2  0
  5 22  1  0
  7 18  1  0
  8  9  2  0
  9 10  1  0
 10 11  2  0
 10 15  1  0
 11 12  1  0
 12 13  2  0
 13 14  1  0
 14 15  2  0
 16 17  1  0
 16 20  1  0
 17 18  2  0
 18 19  1  0
 19 20  2  0
 20 21  1  0
 22 23  1  0
 22 27  1  0
 23 24  1  0
 24 25  1  0
 25 26  1  0
 25 28  1  0
 26 27  1  0
M  END
>  <DRUGBANK_ID>  (1) 
DB16891

>  <COMMON_NAME>  (1) 
ENMD-981693

>  <CAS_NUMBER>  (1) 
934353-76-1

>  <UNII>  (1) 
J6U9WP10T7

>  <SYNONYMS>  (1) 
(E)-N-(5-Methyl-1H-pyrazol-3-yl)-6-(4-methylpiperazin-1-yl)-2-styrylpyrimidin-4-amine; ENMD-2076 free base

$$$$
