37A
     RDKit          2D

 28 31  0  0  0  0  0  0  0  0999 V2000
    2.4554    1.1939    0.0000 O   0  0  0  0  0  0  0  0  0  0  0  0
    1.6303    1.1870    0.0000 C   0  0  0  0  0  0  0  0  0  0  0  0
    1.0127    1.7340    0.0000 C   0  0  0  0  0  0  0  0  0  0  0  0
    0.3923    1.3571    0.0000 O   0  0  0  0  0  0  0  0  0  0  0  0
    1.3332    2.4427    0.0000 C   0  0  0  0  0  0  0  0  0  0  0  0
    2.2620    2.4582    0.0000 C   0  0  0  0  0  0  0  0  0  0  0  0
    2.4002    1.6407    0.0000 N   0  0  0  0  0  0  0  0  0  0  0  0
    2.8121    0.9258    0.0000 C   0  0  0  0  0  0  0  0  0  0  0  0
    3.6371    0.9250    0.0000 O   0  0  0  0  0  0  0  0  0  0  0  0
    2.3988    0.2117    0.0000 N   0  0  0  0  0  0  0  0  0  0  0  0
    2.8107   -0.5032    0.0000 O   0  0  0  0  0  0  0  0  0  0  0  0
    1.8840    2.0694    0.0000 C   0  0  0  0  0  0  0  0  0  0  0  0
    0.7725    2.8826    0.0000 O   0  0  0  0  0  0  0  0  0  0  0  0
    0.9123    2.0694    0.0000 C   0  0  0  0  0  0  0  0  0  0  0  0
    1.4655    0.3786    0.0000 N   0  0  0  0  0  0  0  0  0  0  0  0
    2.0831   -0.1684    0.0000 C   0  0  0  0  0  0  0  0  0  0  0  0
    1.9182   -0.9768    0.0000 C   0  0  0  0  0  0  0  0  0  0  0  0
    1.1358   -1.2382    0.0000 C   0  0  0  0  0  0  0  0  0  0  0  0
    0.9709   -2.0466    0.0000 C   0  0  0  0  0  0  0  0  0  0  0  0
    1.5885   -2.5936    0.0000 C   0  0  0  0  0  0  0  0  0  0  0  0
    2.3710   -2.3321    0.0000 C   0  0  0  0  0  0  0  0  0  0  0  0
    2.5360   -1.5238    0.0000 C   0  0  0  0  0  0  0  0  0  0  0  0
    1.4237   -3.4020    0.0000 C   0  0  0  0  0  0  0  0  0  0  0  0
    2.0413   -3.9490    0.0000 C   0  0  0  0  0  0  0  0  0  0  0  0
    1.8764   -4.7574    0.0000 C   0  0  0  0  0  0  0  0  0  0  0  0
    0.6411   -3.6634    0.0000 C   0  0  0  0  0  0  0  0  0  0  0  0
    0.4762   -4.4719    0.0000 C   0  0  0  0  0  0  0  0  0  0  0  0
    1.0939   -5.0188    0.0000 C   0  0  0  0  0  0  0  0  0  0  0  0
  1  2  2  0
  2 15  1  0
  3  2  1  6
  3  5  1  0
  3  4  1  0
  4 14  1  0
  5  6  1  1
  5 13  1  0
  6  7  1  0
  7 12  1  0
  7  8  1  0
  8  9  2  0
  8 10  1  0
 10 11  1  0
 14 12  1  6
 13 14  1  0
 15 16  1  0
 16 17  1  0
 17 22  1  0
 17 18  2  0
 18 19  1  0
 19 20  2  0
 20 21  1  0
 20 23  1  0
 21 22  2  0
 23 24  2  0
 23 26  1  0
 24 25  1  0
 25 28  2  0
 26 27  2  0
 27 28  1  0
M  END
>  <DRUGBANK_ID>  (1) 
DB07026

>  <COMMON_NAME>  (1) 
(1S,5S,7R)-N~7~-(BIPHENYL-4-YLMETHYL)-N~3~-HYDROXY-6,8-DIOXA-3-AZABICYCLO[3.2.1]OCTANE-3,7-DICARBOXAMIDE

$$$$
