
     RDKit          2D

 25 29  0  0  1  0  0  0  0  0999 V2000
    1.1602   -3.8197    0.0000 C   0  0  0  0  0  0  0  0  0  0  0  0
    1.4155   -3.0352    0.0000 C   0  0  0  0  0  0  0  0  0  0  0  0
    2.2225   -2.8641    0.0000 O   0  0  0  0  0  0  0  0  0  0  0  0
    0.8638   -2.4218    0.0000 O   0  0  0  0  0  0  0  0  0  0  0  0
    1.1191   -1.6373    0.0000 C   0  0  0  0  0  0  0  0  0  0  0  0
    0.5601   -1.0371    0.0000 C   0  0  0  0  0  0  0  0  0  0  0  0
    0.8730   -0.2960    0.0000 C   0  0  0  0  0  0  0  0  0  0  0  0
    1.8469   -0.1489    0.0000 C   0  0  0  0  0  0  0  0  0  0  0  0
    2.4371    0.6365    0.0000 C   0  0  0  0  0  0  0  0  0  0  0  0
    3.2556    0.6259    0.0000 C   0  0  0  0  0  0  0  0  0  0  0  0
    3.5543   -0.1229    0.0000 C   0  0  0  0  0  0  0  0  0  0  0  0
    4.3790   -0.2088    0.0000 C   0  0  0  0  0  0  0  0  0  0  0  0
    4.6907   -0.9743    0.0000 C   0  0  0  0  0  0  0  0  0  0  0  0
    4.1707   -1.6304    0.0000 C   0  0  0  0  0  0  0  0  0  0  0  0
    3.3221   -1.5363    0.0000 C   0  0  0  0  0  0  0  0  0  0  0  0
    3.0315   -0.7687    0.0000 C   0  0  0  0  0  0  0  0  0  0  0  0
    2.1595   -0.6451    0.0000 C   0  0  0  0  0  0  0  0  0  0  0  0
    1.9449   -1.4771    0.0000 C   0  0  0  0  0  0  0  0  0  0  0  0
    2.6104   -1.9798    0.0000 O   0  0  0  0  0  0  0  0  0  0  0  0
    1.3144   -0.0464    0.0000 C   0  0  0  0  0  0  0  0  0  0  0  0
    1.1721    0.8410    0.0000 C   0  0  0  0  0  0  0  0  0  0  0  0
    1.8935    1.2248    0.0000 N   0  0  0  0  0  0  0  0  0  0  0  0
    2.0313    2.0382    0.0000 C   0  0  0  0  0  0  0  0  0  0  0  0
    4.4882   -2.3919    0.0000 O   0  0  0  0  0  0  0  0  0  0  0  0
    3.9875   -3.0476    0.0000 C   0  0  0  0  0  0  0  0  0  0  0  0
  1  2  1  0
  2  3  2  0
  2  4  1  0
  4  5  1  0
  5  6  2  0
  5 18  1  0
  6  7  1  0
  8  7  1  1
  8  9  1  0
  8 17  1  0
  9 10  1  6
  9 22  1  0
 10 11  1  0
 11 12  2  0
 11 16  1  0
 12 13  1  0
 13 14  2  0
 14 15  1  0
 14 24  1  0
 15 16  2  0
 15 19  1  0
 17 16  1  0
 17 18  1  0
 17 20  1  6
 18 19  1  1
 20 21  1  0
 21 22  1  0
 22 23  1  0
 24 25  1  0
M  END
>  <DRUGBANK_ID>  (1) 
DB13458

>  <COMMON_NAME>  (1) 
Thebacon

>  <CAS_NUMBER>  (1) 
466-90-0

>  <UNII>  (1) 
520D430GDK

>  <SYNONYMS>  (1) 
Thebacon

$$$$
