
     RDKit          2D

 12 12  0  0  0  0  0  0  0  0999 V2000
    1.0717    0.8250    0.0000 C   0  0  0  0  0  0  0  0  0  0  0  0
    1.0717    0.0000    0.0000 C   0  0  0  0  0  0  0  0  0  0  0  0
    0.3572    1.2375    0.0000 O   0  0  0  0  0  0  0  0  0  0  0  0
    0.3572   -0.4124    0.0000 C   0  0  0  0  0  0  0  0  0  0  0  0
   -0.3572    0.8250    0.0000 C   0  0  0  0  0  0  0  0  0  0  0  0
   -0.3572    0.0000    0.0000 C   0  0  0  0  0  0  0  0  0  0  0  0
    1.7862    1.2375    0.0000 S   0  0  0  0  0  0  0  0  0  0  0  0
    1.7862   -0.4124    0.0000 O   0  0  0  0  0  0  0  0  0  0  0  0
    0.3572   -1.2375    0.0000 O   0  0  0  0  0  0  0  0  0  0  0  0
   -1.0716   -0.4124    0.0000 O   0  0  0  0  0  0  0  0  0  0  0  0
   -1.0716    1.2375    0.0000 C   0  0  0  0  0  0  0  0  0  0  0  0
   -1.7861    0.8250    0.0000 O   0  0  0  0  0  0  0  0  0  0  0  0
  1  2  1  0
  1  3  1  0
  1  7  1  1
  2  4  1  0
  2  8  1  6
  3  5  1  0
  4  6  1  0
  4  9  1  1
  5  6  1  0
  5 11  1  1
  6 10  1  6
 12 11  1  0
M  END
>  <DRUGBANK_ID>  (1) 
DB03859

>  <SECONDARY_ACCESSION_NUMBERS>  (1) 
EXPT01644

>  <COMMON_NAME>  (1) 
1-thio-beta-D-glucopyranose

>  <CAS_NUMBER>  (1) 
7534-35-2

>  <UNII>  (1) 
NG6BJW0OE1

>  <SYNONYMS>  (1) 
1-thio-b-D-glucose; 1-thio-β-D-glucose; beta-D-Thioglucose; β-D-Glc-SH; β-D-Glcp-SH

$$$$
