839
     RDKit          2D

 30 34  0  0  0  0  0  0  0  0999 V2000
    2.9557   -1.2787    0.0000 O   0  0  0  0  0  0  0  0  0  0  0  0
    2.1340   -1.3525    0.0000 C   0  0  0  0  0  0  0  0  0  0  0  0
    1.6593   -0.6777    0.0000 O   0  0  0  0  0  0  0  0  0  0  0  0
    1.7870   -2.1009    0.0000 C   0  0  0  0  0  0  0  0  0  0  0  0
    0.9653   -2.1747    0.0000 C   0  0  0  0  0  0  0  0  0  0  0  0
    0.6183   -2.9232    0.0000 N   0  0  0  0  0  0  0  0  0  0  0  0
   -0.1912   -3.0824    0.0000 C   0  0  0  0  0  0  0  0  0  0  0  0
    1.0199   -3.6438    0.0000 C   0  0  0  0  0  0  0  0  0  0  0  0
    1.8242   -3.8276    0.0000 C   0  0  0  0  0  0  0  0  0  0  0  0
    2.0672   -4.6160    0.0000 C   0  0  0  0  0  0  0  0  0  0  0  0
    1.5059   -5.2207    0.0000 C   0  0  0  0  0  0  0  0  0  0  0  0
    1.7489   -6.0091    0.0000 O   0  0  0  0  0  0  0  0  0  0  0  0
    0.7016   -5.0369    0.0000 C   0  0  0  0  0  0  0  0  0  0  0  0
    0.4586   -4.2485    0.0000 C   0  0  0  0  0  0  0  0  0  0  0  0
   -0.2899   -3.9015    0.0000 C   0  0  0  0  0  0  0  0  0  0  0  0
   -1.0486   -4.2256    0.0000 C   0  0  0  0  0  0  0  0  0  0  0  0
   -1.3154   -5.0062    0.0000 C   0  0  0  0  0  0  0  0  0  0  0  0
   -0.8407   -5.6810    0.0000 O   0  0  0  0  0  0  0  0  0  0  0  0
   -1.7085   -3.7305    0.0000 C   0  0  0  0  0  0  0  0  0  0  0  0
   -2.3833   -4.2053    0.0000 C   0  0  0  0  0  0  0  0  0  0  0  0
   -3.1639   -3.9384    0.0000 O   0  0  0  0  0  0  0  0  0  0  0  0
   -2.1403   -4.9937    0.0000 N   0  0  0  0  0  0  0  0  0  0  0  0
   -1.6098   -2.9115    0.0000 C   0  0  0  0  0  0  0  0  0  0  0  0
   -0.8512   -2.5874    0.0000 C   0  0  0  0  0  0  0  0  0  0  0  0
   -2.2698   -2.4165    0.0000 C   0  0  0  0  0  0  0  0  0  0  0  0
   -3.0285   -2.7405    0.0000 C   0  0  0  0  0  0  0  0  0  0  0  0
   -3.6885   -2.2455    0.0000 C   0  0  0  0  0  0  0  0  0  0  0  0
   -3.5898   -1.4264    0.0000 C   0  0  0  0  0  0  0  0  0  0  0  0
   -2.8311   -1.1024    0.0000 C   0  0  0  0  0  0  0  0  0  0  0  0
   -2.1711   -1.5974    0.0000 C   0  0  0  0  0  0  0  0  0  0  0  0
  1  2  2  0
  2  3  1  0
  2  4  1  0
  4  5  1  0
  5  6  1  0
  6  8  1  0
  6  7  1  0
  7 15  2  0
  7 24  1  0
  8  9  2  0
  8 14  1  0
  9 10  1  0
 10 11  2  0
 11 12  1  0
 11 13  1  0
 13 14  2  0
 14 15  1  0
 15 16  1  0
 16 17  1  0
 16 19  2  0
 17 18  2  0
 17 22  1  0
 19 23  1  0
 19 20  1  0
 20 22  1  0
 20 21  2  0
 23 24  2  0
 23 25  1  0
 25 26  2  0
 25 30  1  0
 26 27  1  0
 27 28  2  0
 28 29  1  0
 29 30  2  0
M  END
>  <DRUGBANK_ID>  (1) 
DB07265

>  <COMMON_NAME>  (1) 
3-(9-HYDROXY-1,3-DIOXO-4-PHENYL-2,3-DIHYDROPYRROLO[3,4-C]CARBAZOL-6(1H)-YL)PROPANOIC ACID

$$$$
