
     RDKit          2D

 35 36  0  0  0  0  0  0  0  0999 V2000
   -0.8502    1.4438    0.0000 O   0  0  0  0  0  0  0  0  0  0  0  0
   -0.1357   -1.4438    0.0000 O   0  0  0  0  0  0  0  0  0  0  0  0
    2.0077    3.9189    0.0000 O   0  0  0  0  0  0  0  0  0  0  0  0
    0.5788    3.9189    0.0000 O   0  0  0  0  0  0  0  0  0  0  0  0
    0.5788    2.2689    0.0000 N   0  0  0  0  0  0  0  0  0  0  0  0
   -0.1357    0.2062    0.0000 N   0  0  0  0  0  0  0  0  0  0  0  0
   -1.5647   -1.4438    0.0000 N   0  0  0  0  0  0  0  0  0  0  0  0
   -2.2792    2.2689    0.0000 N   0  0  0  0  0  0  0  0  0  0  0  0
   -2.9938    3.5064    0.0000 N   0  0  0  0  0  0  0  0  0  0  0  0
   -3.7082    2.2689    0.0000 N   0  0  0  0  0  0  0  0  0  0  0  0
    0.5788    1.4438    0.0000 C   0  0  0  0  0  0  0  0  0  0  0  0
    1.2933    1.0312    0.0000 C   0  0  0  0  0  0  0  0  0  0  0  0
   -0.8502   -0.2062    0.0000 C   0  0  0  0  0  0  0  0  0  0  0  0
   -1.5647    0.2062    0.0000 C   0  0  0  0  0  0  0  0  0  0  0  0
   -0.1357    1.0312    0.0000 C   0  0  0  0  0  0  0  0  0  0  0  0
    2.0077    1.4438    0.0000 C   0  0  0  0  0  0  0  0  0  0  0  0
   -1.5647    1.0312    0.0000 C   0  0  0  0  0  0  0  0  0  0  0  0
    1.2933    2.6813    0.0000 C   0  0  0  0  0  0  0  0  0  0  0  0
   -0.8502   -1.0312    0.0000 C   0  0  0  0  0  0  0  0  0  0  0  0
   -2.2792    1.4438    0.0000 C   0  0  0  0  0  0  0  0  0  0  0  0
    2.7222    1.0312    0.0000 C   0  0  0  0  0  0  0  0  0  0  0  0
    2.0077    2.2689    0.0000 C   0  0  0  0  0  0  0  0  0  0  0  0
    1.2933    3.5064    0.0000 C   0  0  0  0  0  0  0  0  0  0  0  0
    3.4367    1.4438    0.0000 C   0  0  0  0  0  0  0  0  0  0  0  0
    2.7222    0.2062    0.0000 C   0  0  0  0  0  0  0  0  0  0  0  0
   -1.5647   -2.2689    0.0000 C   0  0  0  0  0  0  0  0  0  0  0  0
    4.1513    1.0312    0.0000 C   0  0  0  0  0  0  0  0  0  0  0  0
    3.4367   -0.2062    0.0000 C   0  0  0  0  0  0  0  0  0  0  0  0
   -2.9938    2.6813    0.0000 C   0  0  0  0  0  0  0  0  0  0  0  0
    4.1513    0.2062    0.0000 C   0  0  0  0  0  0  0  0  0  0  0  0
   -0.8502   -2.6813    0.0000 C   0  0  0  0  0  0  0  0  0  0  0  0
   -2.2792   -2.6813    0.0000 C   0  0  0  0  0  0  0  0  0  0  0  0
   -0.8502   -3.5064    0.0000 C   0  0  0  0  0  0  0  0  0  0  0  0
   -2.2792   -3.5064    0.0000 C   0  0  0  0  0  0  0  0  0  0  0  0
   -1.5647   -3.9189    0.0000 C   0  0  0  0  0  0  0  0  0  0  0  0
  1 15  2  0
  2 19  2  0
  3 23  1  0
  4 23  2  0
  6 15  1  0
  7 19  1  0
  7 26  1  0
  8 20  1  0
  8 29  2  3
  9 29  1  0
 10 29  1  0
 11  5  1  0
 11 12  1  1
 11 15  1  0
 12 16  1  0
 13  6  1  0
 13 14  1  6
 13 19  1  0
 14 17  1  0
 16 21  1  0
 17 20  1  0
 18  5  1  0
 18 22  1  1
 18 23  1  0
 21 24  2  0
 21 25  1  0
 24 27  1  0
 25 28  2  0
 26 31  2  0
 26 32  1  0
 27 30  2  0
 28 30  1  0
 31 33  1  0
 32 34  2  0
 33 35  2  0
 34 35  1  0
M  CHG  1   8   1
M  END
>  <DRUGBANK_ID>  (1) 
DB02747

>  <SECONDARY_ACCESSION_NUMBERS>  (1) 
EXPT01886

>  <COMMON_NAME>  (1) 
Diamino-N-[(4S)-5-anilino-4-{[(2S)-2-{[(1R)-1-carboxyethyl]amino}-4-phenylbutanoyl]amino}-5-oxopentyl]methaniminium

$$$$
