GS5
     RDKit          2D

 30 33  0  0  0  0  0  0  0  0999 V2000
    5.1713   -2.8665    0.0000 Cl  0  0  0  0  0  0  0  0  0  0  0  0
    4.4568   -3.2790    0.0000 C   0  0  0  0  0  0  0  0  0  0  0  0
    4.4568   -4.1040    0.0000 C   0  0  0  0  0  0  0  0  0  0  0  0
    3.7423   -4.5165    0.0000 C   0  0  0  0  0  0  0  0  0  0  0  0
    3.0279   -4.1040    0.0000 C   0  0  0  0  0  0  0  0  0  0  0  0
    3.0279   -3.2790    0.0000 C   0  0  0  0  0  0  0  0  0  0  0  0
    3.7423   -2.8665    0.0000 C   0  0  0  0  0  0  0  0  0  0  0  0
    2.2432   -3.0240    0.0000 C   0  0  0  0  0  0  0  0  0  0  0  0
    1.7583   -3.6915    0.0000 C   0  0  0  0  0  0  0  0  0  0  0  0
    0.9333   -3.6915    0.0000 S   0  0  0  0  0  0  0  0  0  0  0  0
    0.9333   -2.8665    0.0000 O   0  0  0  0  0  0  0  0  0  0  0  0
    0.9333   -4.5165    0.0000 O   0  0  0  0  0  0  0  0  0  0  0  0
    0.1083   -3.6915    0.0000 N   0  0  0  0  0  0  0  0  0  0  0  0
   -0.3042   -2.9770    0.0000 C   0  0  0  0  0  0  0  0  0  0  0  0
   -1.1247   -2.8908    0.0000 C   0  0  0  0  0  0  0  0  0  0  0  0
   -1.6767   -3.5039    0.0000 O   0  0  0  0  0  0  0  0  0  0  0  0
    0.0314   -2.2233    0.0000 C   0  0  0  0  0  0  0  0  0  0  0  0
   -0.5817   -1.6713    0.0000 C   0  0  0  0  0  0  0  0  0  0  0  0
   -1.2962   -2.0838    0.0000 N   0  0  0  0  0  0  0  0  0  0  0  0
   -2.0499   -1.7482    0.0000 C   0  0  0  0  0  0  0  0  0  0  0  0
   -2.1361   -0.9278    0.0000 C   0  0  0  0  0  0  0  0  0  0  0  0
   -2.7173   -2.2332    0.0000 C   0  0  0  0  0  0  0  0  0  0  0  0
   -2.6311   -3.0536    0.0000 O   0  0  0  0  0  0  0  0  0  0  0  0
   -3.4710   -1.8976    0.0000 N   0  0  0  0  0  0  0  0  0  0  0  0
   -4.1384   -2.3825    0.0000 C   0  0  0  0  0  0  0  0  0  0  0  0
   -4.8921   -2.0470    0.0000 C   0  0  0  0  0  0  0  0  0  0  0  0
   -4.9783   -1.2265    0.0000 O   0  0  0  0  0  0  0  0  0  0  0  0
   -4.3109   -0.7416    0.0000 C   0  0  0  0  0  0  0  0  0  0  0  0
   -3.5572   -1.0771    0.0000 C   0  0  0  0  0  0  0  0  0  0  0  0
    2.2432   -4.3589    0.0000 S   0  0  0  0  0  0  0  0  0  0  0  0
  1  2  1  0
  2  3  2  0
  2  7  1  0
  3  4  1  0
  4  5  2  0
  5  6  1  0
  5 30  1  0
  6  7  2  0
  6  8  1  0
  8  9  2  0
  9 10  1  0
  9 30  1  0
 10 11  2  0
 10 12  2  0
 10 13  1  0
 14 13  1  6
 14 15  1  0
 14 17  1  0
 15 16  2  0
 15 19  1  0
 17 18  1  0
 18 19  1  0
 19 20  1  0
 20 21  1  6
 20 22  1  0
 22 23  2  0
 22 24  1  0
 24 25  1  0
 24 29  1  0
 25 26  1  0
 26 27  1  0
 27 28  1  0
 28 29  1  0
M  END
>  <DRUGBANK_ID>  (1) 
DB07843

>  <COMMON_NAME>  (1) 
5-CHLORO-N-{(3S)-1-[(1S)-1-METHYL-2-MORPHOLIN-4-YL-2-OXOETHYL]-2-OXOPYRROLIDIN-3-YL}-1-BENZOTHIOPHENE-2-SULFONAMIDE

$$$$
