
     RDKit          2D

 31 33  0  0  0  0  0  0  0  0999 V2000
    4.2868   -5.7750    0.0000 C   0  0  0  0  0  0  0  0  0  0  0  0
    4.2868   -6.6000    0.0000 C   0  0  0  0  0  0  0  0  0  0  0  0
    5.0013   -7.0125    0.0000 O   0  0  0  0  0  0  0  0  0  0  0  0
    3.5724   -7.0125    0.0000 N   0  0  0  0  0  0  0  0  0  0  0  0
    3.5724   -7.8375    0.0000 C   0  0  0  0  0  0  0  0  0  0  0  0
    4.2868   -8.2500    0.0000 C   0  0  0  0  0  0  0  0  0  0  0  0
    4.2868   -9.0750    0.0000 C   0  0  0  0  0  0  0  0  0  0  0  0
    3.5724   -9.4875    0.0000 C   0  0  0  0  0  0  0  0  0  0  0  0
    2.8579   -9.0750    0.0000 C   0  0  0  0  0  0  0  0  0  0  0  0
    2.8579   -8.2500    0.0000 C   0  0  0  0  0  0  0  0  0  0  0  0
    2.1434   -9.4875    0.0000 N   0  0  0  0  0  0  0  0  0  0  0  0
    2.1434  -10.3125    0.0000 C   0  0  0  0  0  0  0  0  0  0  0  0
    1.4289  -10.7250    0.0000 C   0  0  0  0  0  0  0  0  0  0  0  0
    0.7145  -10.3125    0.0000 N   0  0  0  0  0  0  0  0  0  0  0  0
    0.7145   -9.4875    0.0000 C   0  0  0  0  0  0  0  0  0  0  0  0
    1.4289   -9.0750    0.0000 C   0  0  0  0  0  0  0  0  0  0  0  0
    0.0000  -10.7250    0.0000 C   0  0  0  0  0  0  0  0  0  0  0  0
    0.0000  -11.5500    0.0000 C   0  0  0  0  0  0  0  0  0  0  0  0
   -0.7145  -11.9625    0.0000 C   0  0  0  0  0  0  0  0  0  0  0  0
   -0.7145  -12.7875    0.0000 C   0  0  0  0  0  0  0  0  0  0  0  0
   -1.4289  -13.2000    0.0000 N   0  0  0  0  0  0  0  0  0  0  0  0
   -1.4289  -14.0250    0.0000 S   0  0  0  0  0  0  0  0  0  0  0  0
   -2.2539  -14.0250    0.0000 O   0  0  0  0  0  0  0  0  0  0  0  0
   -0.6039  -14.0250    0.0000 O   0  0  0  0  0  0  0  0  0  0  0  0
   -1.4289  -14.8500    0.0000 C   0  0  0  0  0  0  0  0  0  0  0  0
   -2.1434  -15.2625    0.0000 C   0  0  0  0  0  0  0  0  0  0  0  0
   -2.1434  -16.0875    0.0000 C   0  0  0  0  0  0  0  0  0  0  0  0
   -2.8579  -16.5000    0.0000 C   0  0  0  0  0  0  0  0  0  0  0  0
   -3.5724  -16.0875    0.0000 C   0  0  0  0  0  0  0  0  0  0  0  0
   -3.5724  -15.2625    0.0000 C   0  0  0  0  0  0  0  0  0  0  0  0
   -2.8579  -14.8500    0.0000 C   0  0  0  0  0  0  0  0  0  0  0  0
  1  2  1  0
  2  3  2  0
  2  4  1  0
  4  5  1  0
  5  6  2  0
  5 10  1  0
  6  7  1  0
  7  8  2  0
  8  9  1  0
  9 10  2  0
  9 11  1  0
 11 12  1  0
 11 16  1  0
 12 13  1  0
 13 14  1  0
 14 15  1  0
 14 17  1  0
 15 16  1  0
 17 18  1  0
 18 19  1  0
 19 20  1  0
 20 21  1  0
 21 22  1  0
 22 23  2  0
 22 24  2  0
 22 25  1  0
 25 26  1  0
 26 27  1  0
 26 31  1  0
 27 28  1  0
 28 29  1  0
 29 30  1  0
 30 31  1  0
M  END
>  <DRUGBANK_ID>  (1) 
DB05562

>  <COMMON_NAME>  (1) 
Naluzotan

>  <CAS_NUMBER>  (1) 
740873-06-7

>  <UNII>  (1) 
LQ54E5B4EW

>  <SYNONYMS>  (1) 
Naluzotan

$$$$
