
     RDKit          2D

 43 50  0  0  0  0  0  0  0  0999 V2000
    1.7977   -2.4582    0.0000 C   0  0  0  0  0  0  0  0  0  0  0  0
    1.7946   -3.2832    0.0000 C   0  0  0  0  0  0  0  0  0  0  0  0
    2.5120   -3.6974    0.0000 C   0  0  0  0  0  0  0  0  0  0  0  0
    3.2248   -3.2866    0.0000 C   0  0  0  0  0  0  0  0  0  0  0  0
    4.0548   -3.4480    0.0000 N   0  0  0  0  0  0  0  0  0  0  0  0
    4.4910   -2.6890    0.0000 C   0  0  0  0  0  0  0  0  0  0  0  0
    3.9351   -2.0593    0.0000 C   0  0  0  0  0  0  0  0  0  0  0  0
    2.5122   -2.0491    0.0000 C   0  0  0  0  0  0  0  0  0  0  0  0
    3.2249   -2.4652    0.0000 C   0  0  0  0  0  0  0  0  0  0  0  0
    3.9439   -1.2338    0.0000 C   0  0  0  0  0  0  0  0  0  0  0  0
    2.5122   -1.2262    0.0000 C   0  0  0  0  0  0  0  0  0  0  0  0
    3.2271   -0.8148    0.0000 C   0  0  0  0  0  0  0  0  0  0  0  0
    3.2281    0.0051    0.0000 N   0  0  0  0  0  0  0  0  0  0  0  0
    2.5160    0.4200    0.0000 C   0  0  0  0  0  0  0  0  0  0  0  0
    1.8015    0.0086    0.0000 C   0  0  0  0  0  0  0  0  0  0  0  0
    1.7987   -0.8174    0.0000 C   0  0  0  0  0  0  0  0  0  0  0  0
    1.0862    0.4239    0.0000 C   0  0  0  0  0  0  0  0  0  0  0  0
    0.3691    0.0122    0.0000 N   0  0  0  0  0  0  0  0  0  0  0  0
    3.9455    0.4166    0.0000 C   0  0  0  0  0  0  0  0  0  0  0  0
    1.0883    1.2510    0.0000 O   0  0  0  0  0  0  0  0  0  0  0  0
   -0.3534    0.4166    0.0000 C   0  0  0  0  0  0  0  0  0  0  0  0
   -0.8487    1.0829    0.0000 C   0  0  0  0  0  0  0  0  0  0  0  0
   -0.8361   -0.2551    0.0000 O   0  0  0  0  0  0  0  0  0  0  0  0
   -1.6251   -0.0070    0.0000 C   0  0  0  0  0  0  0  0  0  0  0  0
   -1.6286    0.8156    0.0000 N   0  0  0  0  0  0  0  0  0  0  0  0
   -2.3389    1.2217    0.0000 C   0  0  0  0  0  0  0  0  0  0  0  0
   -3.0502    0.8096    0.0000 C   0  0  0  0  0  0  0  0  0  0  0  0
   -2.3319   -0.4237    0.0000 C   0  0  0  0  0  0  0  0  0  0  0  0
   -3.0483   -0.0147    0.0000 N   0  0  0  0  0  0  0  0  0  0  0  0
   -3.6584   -0.5698    0.0000 C   0  0  0  0  0  0  0  0  0  0  0  0
   -3.3191   -1.3218    0.0000 C   0  0  0  0  0  0  0  0  0  0  0  0
   -2.4992   -1.2313    0.0000 C   0  0  0  0  0  0  0  0  0  0  0  0
   -1.6203   -0.8379    0.0000 O   0  0  0  0  0  0  0  0  0  0  0  0
   -0.6036    1.8730    0.0000 O   0  0  0  0  0  0  0  0  0  0  0  0
   -3.7672    1.2217    0.0000 O   0  0  0  0  0  0  0  0  0  0  0  0
   -2.3412    2.0487    0.0000 C   0  0  0  0  0  0  0  0  0  0  0  0
   -3.0586    2.4602    0.0000 C   0  0  0  0  0  0  0  0  0  0  0  0
   -3.0582    3.2859    0.0000 C   0  0  0  0  0  0  0  0  0  0  0  0
   -3.7749    3.6974    0.0000 C   0  0  0  0  0  0  0  0  0  0  0  0
   -4.4910    3.2817    0.0000 C   0  0  0  0  0  0  0  0  0  0  0  0
   -4.4860    2.4503    0.0000 C   0  0  0  0  0  0  0  0  0  0  0  0
   -3.7687    2.0426    0.0000 C   0  0  0  0  0  0  0  0  0  0  0  0
    0.1618    0.9269    0.0000 C   0  0  0  0  0  0  0  0  0  0  0  0
  1  2  2  0
  2  3  1  0
  3  4  2  0
  4  5  1  0
  5  6  1  0
  6  7  2  0
  7 10  1  0
  7  9  1  0
  8  1  1  0
  8  9  2  0
  8 11  1  0
  9  4  1  0
 12 10  1  6
 11 12  1  0
 11 16  2  0
 12 13  1  0
 13 14  1  0
 13 19  1  0
 14 15  1  0
 15 16  1  0
 15 17  1  1
 17 18  1  0
 17 20  2  0
 21 22  1  0
 21 43  1  1
 21 18  1  0
 22 25  1  0
 22 34  2  0
 23 21  1  0
 24 23  1  0
 24 25  1  0
 24 28  1  0
 24 33  1  6
 25 26  1  0
 26 27  1  0
 26 36  1  6
 27 29  1  0
 27 35  2  0
 28 29  1  0
 29 30  1  0
 30 31  1  0
 31 32  1  0
 28 32  1  6
 36 37  1  0
 37 38  2  0
 38 39  1  0
 39 40  2  0
 40 41  1  0
 41 42  2  0
 42 37  1  0
M  END
>  <DRUGBANK_ID>  (1) 
DB00696

>  <SECONDARY_ACCESSION_NUMBERS>  (1) 
APRD00677

>  <COMMON_NAME>  (1) 
Ergotamine

>  <CAS_NUMBER>  (1) 
113-15-5

>  <UNII>  (1) 
PR834Q503T

>  <SYNONYMS>  (1) 
(5'α)-12'-hydroxy-2'-methyl-5'-(phenylmethyl)ergotoman-3',6',18-trione; 12'-Hydroxy-2'-methyl-5'alpha-(phenylmethyl)ergotaman-3',6',18-trione; 12'-hydroxy-2'-methyl-5'α-(phenylmethyl)ergotaman-3',6',18-trione; Ergotamin; Ergotamina; Ergotamine; Ergotaminum

$$$$
