
     RDKit          2D

 21 22  0  0  0  0  0  0  0  0999 V2000
   -2.8326    0.6293    0.0000 C   0  0  0  0  0  0  0  0  0  0  0  0
   -2.8326   -0.1957    0.0000 C   0  0  0  0  0  0  0  0  0  0  0  0
   -1.4084    0.6293    0.0000 C   0  0  0  0  0  0  0  0  0  0  0  0
   -2.1207    1.0461    0.0000 C   0  0  0  0  0  0  0  0  0  0  0  0
   -1.4084   -0.1957    0.0000 C   0  0  0  0  0  0  0  0  0  0  0  0
   -2.1226   -0.6007    0.0000 C   0  0  0  0  0  0  0  0  0  0  0  0
   -2.1290   -1.4171    0.0000 C   0  0  0  0  0  0  0  0  0  0  0  0
   -1.4230   -1.8347    0.0000 O   0  0  0  0  0  0  0  0  0  0  0  0
   -0.7007   -0.6072    0.0000 C   0  0  0  0  0  0  0  0  0  0  0  0
   -0.7098   -1.4275    0.0000 C   0  0  0  0  0  0  0  0  0  0  0  0
   -0.0051   -1.8438    0.0000 C   0  0  0  0  0  0  0  0  0  0  0  0
    0.7091   -1.4410    0.0000 C   0  0  0  0  0  0  0  0  0  0  0  0
    0.7144   -0.6176    0.0000 C   0  0  0  0  0  0  0  0  0  0  0  0
    0.0090   -0.2048    0.0000 C   0  0  0  0  0  0  0  0  0  0  0  0
   -2.1207    1.8713    0.0000 C   0  0  0  0  0  0  0  0  0  0  0  0
   -2.8472   -1.8231    0.0000 C   0  0  0  0  0  0  0  0  0  0  0  0
   -2.8494   -1.0041    0.0000 C   0  0  0  0  0  0  0  0  0  0  0  0
    0.0147    0.6202    0.0000 O   0  0  0  0  0  0  0  0  0  0  0  0
    1.4203   -1.8594    0.0000 C   0  0  0  0  0  0  0  0  0  0  0  0
    2.1383   -1.4528    0.0000 C   0  0  0  0  0  0  0  0  0  0  0  0
    2.8493   -1.8713    0.0000 C   0  0  0  0  0  0  0  0  0  0  0  0
  1  2  1  0
  1  4  1  0
  3  4  2  0
  4 15  1  0
  5  3  1  0
  5  6  1  0
  5  9  1  1
  6  2  1  0
  6  7  1  6
  7 16  2  0
  7 17  1  0
  8 10  1  0
  9 10  2  0
 10 11  1  0
 11 12  2  0
 12 13  1  0
 12 19  1  0
 13 14  2  0
 14  9  1  0
 14 18  1  0
 19 20  1  0
 20 21  1  0
M  END
>  <DRUGBANK_ID>  (1) 
DB14050

>  <COMMON_NAME>  (1) 
Cannabidivarin

>  <CAS_NUMBER>  (1) 
24274-48-4

>  <UNII>  (1) 
I198VBV98I

>  <SYNONYMS>  (1) 
2-[(1R,6R)-3-methyl-6-prop-1-en-2-ylcyclohex-2-en-1-yl]-5-propylbenzene-1,3-diol; cannabidivarine; Cannabidivarol; CBD-V; CBDV

$$$$
