
     RDKit          2D

 32 35  0  0  0  0  0  0  0  0999 V2000
   -0.7145   -2.8875    0.0000 C   0  0  0  0  0  0  0  0  0  0  0  0
    0.0000   -2.4750    0.0000 C   0  0  0  0  0  0  0  0  0  0  0  0
    0.0000   -1.6500    0.0000 O   0  0  0  0  0  0  0  0  0  0  0  0
    0.7145   -1.2375    0.0000 C   0  0  0  0  0  0  0  0  0  0  0  0
    0.7145   -0.4125    0.0000 C   0  0  0  0  0  0  0  0  0  0  0  0
    1.4289    0.0000    0.0000 C   0  0  0  0  0  0  0  0  0  0  0  0
    2.1434   -0.4125    0.0000 C   0  0  0  0  0  0  0  0  0  0  0  0
    2.8579    0.0000    0.0000 N   0  0  0  0  0  0  0  0  0  0  0  0
    3.5724   -0.4125    0.0000 C   0  0  0  0  0  0  0  0  0  0  0  0
    4.2868   -0.0000    0.0000 N   0  0  0  0  0  0  0  0  0  0  0  0
    4.2252    0.8227    0.0000 C   0  0  0  0  0  0  0  0  0  0  0  0
    4.8299    1.3838    0.0000 C   0  0  0  0  0  0  0  0  0  0  0  0
    5.6457    1.2609    0.0000 C   0  0  0  0  0  0  0  0  0  0  0  0
    6.0582    0.5464    0.0000 N   0  0  0  0  0  0  0  0  0  0  0  0
    5.7568   -0.2216    0.0000 C   0  0  0  0  0  0  0  0  0  0  0  0
    4.9685   -0.4647    0.0000 C   0  0  0  0  0  0  0  0  0  0  0  0
    6.8809    0.6081    0.0000 C   0  0  0  0  0  0  0  0  0  0  0  0
    7.3457   -0.0736    0.0000 S   0  0  0  0  0  0  0  0  0  0  0  0
    7.2389    1.3514    0.0000 N   0  0  0  0  0  0  0  0  0  0  0  0
    8.0616    1.4130    0.0000 C   0  0  0  0  0  0  0  0  0  0  0  0
    8.4195    2.1563    0.0000 C   0  0  0  0  0  0  0  0  0  0  0  0
    9.2422    2.2180    0.0000 C   0  0  0  0  0  0  0  0  0  0  0  0
    9.7070    1.5363    0.0000 C   0  0  0  0  0  0  0  0  0  0  0  0
    9.3490    0.7930    0.0000 C   0  0  0  0  0  0  0  0  0  0  0  0
    8.5263    0.7314    0.0000 C   0  0  0  0  0  0  0  0  0  0  0  0
    8.1684   -0.0119    0.0000 F   0  0  0  0  0  0  0  0  0  0  0  0
    3.5724   -1.2375    0.0000 C   0  0  0  0  0  0  0  0  0  0  0  0
    2.8579   -1.6500    0.0000 C   0  0  0  0  0  0  0  0  0  0  0  0
    2.1434   -1.2375    0.0000 C   0  0  0  0  0  0  0  0  0  0  0  0
    1.4289   -1.6500    0.0000 C   0  0  0  0  0  0  0  0  0  0  0  0
    4.2868   -1.6500    0.0000 C   0  0  0  0  0  0  0  0  0  0  0  0
    5.0013   -2.0625    0.0000 N   0  0  0  0  0  0  0  0  0  0  0  0
  1  2  1  0
  2  3  1  0
  3  4  1  0
  4  5  2  0
  4 30  1  0
  5  6  1  0
  6  7  2  0
  7  8  1  0
  7 29  1  0
  8  9  2  0
  9 10  1  0
  9 27  1  0
 10 11  1  0
 10 16  1  0
 11 12  1  0
 12 13  1  0
 13 14  1  0
 14 15  1  0
 14 17  1  0
 15 16  1  0
 17 18  2  0
 17 19  1  0
 19 20  1  0
 20 21  2  0
 20 25  1  0
 21 22  1  0
 22 23  2  0
 23 24  1  0
 24 25  2  0
 25 26  1  0
 27 28  2  0
 27 31  1  0
 28 29  1  0
 29 30  2  0
 31 32  3  0
M  END
>  <DRUGBANK_ID>  (1) 
DB18048

>  <COMMON_NAME>  (1) 
NNI-351

>  <CAS_NUMBER>  (1) 
929607-23-8

>  <UNII>  (1) 
97LG4X5P2E

>  <SYNONYMS>  (1) 
1H-1,4-DIAZEPINE-1-CARBOTHIOAMIDE, 4-(3-CYANO-6-ETHOXY-2-QUINOLINYL)-N-(2-FLUOROPHENYL)HEXAHYDRO-; 4-(3-CYANO-6-ETHOXY-2-QUINOLINYL)-N-(2-FLUOROPHENYL)HEXAHYDRO-1H-1,4-DIAZEPINE-1-CARBOTHIOAMIDE; 4-(3-cyano-6-ethoxyquinolin-2-yl)-N- (2-fluorophenyl)-1,4-diazepane-1-carbothiomide

$$$$
