
     RDKit          2D

 28 30  0  0  0  0  0  0  0  0999 V2000
   -3.5372   -0.3017    0.0000 C   0  0  0  0  0  0  0  0  0  0  0  0
   -4.2517   -0.7142    0.0000 C   0  0  0  0  0  0  0  0  0  0  0  0
   -4.2517   -1.5392    0.0000 C   0  0  0  0  0  0  0  0  0  0  0  0
   -3.5372   -1.9517    0.0000 C   0  0  0  0  0  0  0  0  0  0  0  0
   -2.8228   -1.5392    0.0000 C   0  0  0  0  0  0  0  0  0  0  0  0
   -2.8228   -0.7142    0.0000 C   0  0  0  0  0  0  0  0  0  0  0  0
   -2.1083   -0.3017    0.0000 C   0  0  0  0  0  0  0  0  0  0  0  0
   -1.3938   -0.7142    0.0000 C   0  0  0  0  0  0  0  0  0  0  0  0
    0.0350   -0.7142    0.0000 N   0  0  0  0  0  0  0  0  0  0  0  0
    2.9301    0.8013    0.0000 C   0  0  0  0  0  0  0  0  0  0  0  0
    2.1784   -0.3017    0.0000 N   0  0  0  0  0  0  0  0  0  0  0  0
    3.4751   -1.1854    0.0000 C   0  0  0  0  0  0  0  0  0  0  0  0
    4.2517   -0.9069    0.0000 C   0  0  0  0  0  0  0  0  0  0  0  0
    4.2269   -0.0824    0.0000 C   0  0  0  0  0  0  0  0  0  0  0  0
    2.9704   -0.5329    0.0000 C   0  0  0  0  0  0  0  0  0  0  0  0
    3.4349    0.1487    0.0000 C   0  0  0  0  0  0  0  0  0  0  0  0
    0.7495   -0.3017    0.0000 C   0  0  0  0  0  0  0  0  0  0  0  0
    0.7495    0.5232    0.0000 C   0  0  0  0  0  0  0  0  0  0  0  0
   -0.6794   -0.3017    0.0000 C   0  0  0  0  0  0  0  0  0  0  0  0
   -0.6794    0.5232    0.0000 C   0  0  0  0  0  0  0  0  0  0  0  0
   -1.3938    0.9357    0.0000 O   0  0  0  0  0  0  0  0  0  0  0  0
    0.0350    0.9357    0.0000 O   0  0  0  0  0  0  0  0  0  0  0  0
    2.1536    0.5228    0.0000 C   0  0  0  0  0  0  0  0  0  0  0  0
    0.9161    1.2373    0.0000 O   0  0  0  0  0  0  0  0  0  0  0  0
    1.7411    1.2373    0.0000 C   0  0  0  0  0  0  0  0  0  0  0  0
    2.1536    1.9517    0.0000 O   0  0  0  0  0  0  0  0  0  0  0  0
    1.4639   -0.7142    0.0000 C   0  0  0  0  0  0  0  0  0  0  0  0
    1.4639   -1.5392    0.0000 O   0  0  0  0  0  0  0  0  0  0  0  0
  1  2  2  0
  1  6  1  0
  2  3  1  0
  3  4  2  0
  4  5  1  0
  5  6  2  0
  6  7  1  0
  7  8  1  0
 19  8  1  1
  9 17  1  0
 10 23  1  0
 16 10  1  6
 11 15  1  0
 12 13  1  0
 13 14  1  0
 15 12  1  6
 16 15  1  0
 16 14  1  0
 17 27  1  0
 17 18  1  1
 19  9  1  0
 19 20  1  0
 20 22  1  0
 20 21  2  0
 23 11  1  0
 23 25  1  6
 25 24  2  0
 25 26  1  0
 27 11  1  0
 27 28  2  0
M  END
>  <DRUGBANK_ID>  (1) 
DB14208

>  <COMMON_NAME>  (1) 
Ramiprilat

>  <CAS_NUMBER>  (1) 
87269-97-4

>  <UNII>  (1) 
6N5U4QFC3G

>  <SYNONYMS>  (1) 
Ramipril diacid; Ramiprilat; Ramiprilate; Ramiprilatum

$$$$
