
     RDKit          2D

 28 31  0  0  0  0  0  0  0  0999 V2000
   -0.3509   -1.7793    0.0000 C   0  0  0  0  0  0  0  0  0  0  0  0
    0.3166   -2.2643    0.0000 N   0  0  0  0  0  0  0  0  0  0  0  0
    0.9841   -1.7793    0.0000 N   0  0  0  0  0  0  0  0  0  0  0  0
    0.7293   -0.9947    0.0000 C   0  0  0  0  0  0  0  0  0  0  0  0
   -0.0957   -0.9947    0.0000 C   0  0  0  0  0  0  0  0  0  0  0  0
   -1.1355   -2.0343    0.0000 C   0  0  0  0  0  0  0  0  0  0  0  0
   -0.5807   -0.3272    0.0000 C   0  0  0  0  0  0  0  0  0  0  0  0
    1.2141   -0.3272    0.0000 C   0  0  0  0  0  0  0  0  0  0  0  0
   -1.7486   -1.4821    0.0000 C   0  0  0  0  0  0  0  0  0  0  0  0
   -2.5333   -1.7372    0.0000 C   0  0  0  0  0  0  0  0  0  0  0  0
   -2.7049   -2.5441    0.0000 C   0  0  0  0  0  0  0  0  0  0  0  0
   -2.0917   -3.0962    0.0000 C   0  0  0  0  0  0  0  0  0  0  0  0
   -1.3071   -2.8413    0.0000 C   0  0  0  0  0  0  0  0  0  0  0  0
   -1.4013   -0.4134    0.0000 N   0  0  0  0  0  0  0  0  0  0  0  0
   -1.8862    0.2540    0.0000 C   0  0  0  0  0  0  0  0  0  0  0  0
   -1.5506    1.0077    0.0000 N   0  0  0  0  0  0  0  0  0  0  0  0
   -0.7301    1.0939    0.0000 C   0  0  0  0  0  0  0  0  0  0  0  0
   -0.2451    0.4265    0.0000 C   0  0  0  0  0  0  0  0  0  0  0  0
    0.8786    0.4263    0.0000 C   0  0  0  0  0  0  0  0  0  0  0  0
    1.3635    1.0938    0.0000 C   0  0  0  0  0  0  0  0  0  0  0  0
    2.1840    1.0076    0.0000 N   0  0  0  0  0  0  0  0  0  0  0  0
    2.5196    0.2539    0.0000 C   0  0  0  0  0  0  0  0  0  0  0  0
    2.0347   -0.4135    0.0000 C   0  0  0  0  0  0  0  0  0  0  0  0
   -3.4895   -2.7991    0.0000 Cl  0  0  0  0  0  0  0  0  0  0  0  0
    2.6690    1.6750    0.0000 C   0  0  0  0  0  0  0  0  0  0  0  0
    3.4895    1.5887    0.0000 O   0  0  0  0  0  0  0  0  0  0  0  0
    2.3335    2.4288    0.0000 C   0  0  0  0  0  0  0  0  0  0  0  0
    2.8184    3.0962    0.0000 O   0  0  0  0  0  0  0  0  0  0  0  0
  1  6  1  0
  1  2  1  0
  1  5  2  0
  2  3  1  0
  4  3  2  0
  4  5  1  0
  4  8  1  0
  5  7  1  0
  6  9  2  0
  7 18  1  0
 10  9  1  0
 10 11  2  0
 11 24  1  0
 11 12  1  0
 12 13  2  0
 13  6  1  0
 14  7  2  0
 14 15  1  0
 15 16  2  0
 17 16  1  0
 17 18  2  0
 19  8  1  0
 19 20  1  0
 20 21  1  0
 22 21  1  0
 22 23  1  0
 23  8  1  0
 25 21  1  0
 25 26  2  0
 25 27  1  0
 27 28  1  0
M  END
>  <DRUGBANK_ID>  (1) 
DB07943

>  <COMMON_NAME>  (1) 
SD-0006

>  <CAS_NUMBER>  (1) 
271576-80-8

>  <UNII>  (1) 
C57VF8YO91

>  <SYNONYMS>  (1) 
2-{4-[5-(4-chlorophenyl)-4-pyrimidin-4-yl-1H-pyrazol-3-yl]piperidin-1-yl}-2-oxoethanol; 5-p-chlorophenyl-3-[N-(2-hydroxyacetyl)piperidin-4-yl]-4-pyrimidin-4-yl-1H-pyrazole

$$$$
