
     RDKit          2D

 43 46  0  0  0  0  0  0  0  0999 V2000
    0.3820   -0.5384    0.0000 O   0  0  0  0  0  0  0  0  0  0  0  0
    0.3571    2.3570    0.0000 O   0  0  0  0  0  0  0  0  0  0  0  0
    0.1138    3.1453    0.0000 O   0  0  0  0  0  0  0  0  0  0  0  0
   -4.4689    3.4585    0.0000 O   0  0  0  0  0  0  0  0  0  0  0  0
   -3.1034    3.8796    0.0000 O   0  0  0  0  0  0  0  0  0  0  0  0
   -6.1523    1.6441    0.0000 O   0  0  0  0  0  0  0  0  0  0  0  0
   -5.1048    0.6721    0.0000 O   0  0  0  0  0  0  0  0  0  0  0  0
    1.7703   -0.3820    0.0000 N   0  0  0  0  0  0  0  0  0  0  0  0
    0.0391    0.9638    0.0000 N   0  0  0  0  0  0  0  0  0  0  0  0
   -1.2515    2.7241    0.0000 N   0  0  0  0  0  0  0  0  0  0  0  0
    0.8434    0.7802    0.0000 C   0  0  0  0  0  0  0  0  0  0  0  0
    1.3578    1.4252    0.0000 C   0  0  0  0  0  0  0  0  0  0  0  0
    2.1828    1.4252    0.0000 C   0  0  0  0  0  0  0  0  0  0  0  0
    2.6972    0.7802    0.0000 C   0  0  0  0  0  0  0  0  0  0  0  0
    2.5136   -0.0240    0.0000 C   0  0  0  0  0  0  0  0  0  0  0  0
    1.0270   -0.0240    0.0000 C   0  0  0  0  0  0  0  0  0  0  0  0
    1.7703   -1.2070    0.0000 C   0  0  0  0  0  0  0  0  0  0  0  0
   -1.0083    1.9357    0.0000 C   0  0  0  0  0  0  0  0  0  0  0  0
   -0.2040    1.7522    0.0000 C   0  0  0  0  0  0  0  0  0  0  0  0
    2.4848   -1.6195    0.0000 C   0  0  0  0  0  0  0  0  0  0  0  0
   -1.5695    1.3310    0.0000 C   0  0  0  0  0  0  0  0  0  0  0  0
   -2.3738    1.5146    0.0000 C   0  0  0  0  0  0  0  0  0  0  0  0
    2.4848   -2.4445    0.0000 C   0  0  0  0  0  0  0  0  0  0  0  0
    3.1992   -1.2070    0.0000 C   0  0  0  0  0  0  0  0  0  0  0  0
    3.1992   -2.8570    0.0000 C   0  0  0  0  0  0  0  0  0  0  0  0
    3.9138   -1.6195    0.0000 C   0  0  0  0  0  0  0  0  0  0  0  0
   -2.6170    2.3029    0.0000 C   0  0  0  0  0  0  0  0  0  0  0  0
    3.9138   -2.4445    0.0000 C   0  0  0  0  0  0  0  0  0  0  0  0
   -2.9350    0.9097    0.0000 C   0  0  0  0  0  0  0  0  0  0  0  0
   -0.6904    3.3288    0.0000 C   0  0  0  0  0  0  0  0  0  0  0  0
   -3.4213    2.4865    0.0000 C   0  0  0  0  0  0  0  0  0  0  0  0
   -3.9825    1.8817    0.0000 C   0  0  0  0  0  0  0  0  0  0  0  0
   -3.7393    1.0934    0.0000 C   0  0  0  0  0  0  0  0  0  0  0  0
    4.6282   -2.8570    0.0000 C   0  0  0  0  0  0  0  0  0  0  0  0
   -4.7868    2.0653    0.0000 C   0  0  0  0  0  0  0  0  0  0  0  0
   -0.9335    4.1172    0.0000 C   0  0  0  0  0  0  0  0  0  0  0  0
   -3.6645    3.2749    0.0000 C   0  0  0  0  0  0  0  0  0  0  0  0
    4.6282   -3.6820    0.0000 C   0  0  0  0  0  0  0  0  0  0  0  0
    5.3427   -2.4445    0.0000 C   0  0  0  0  0  0  0  0  0  0  0  0
   -5.3480    1.4605    0.0000 C   0  0  0  0  0  0  0  0  0  0  0  0
    5.3427   -4.0945    0.0000 C   0  0  0  0  0  0  0  0  0  0  0  0
    6.0572   -2.8570    0.0000 C   0  0  0  0  0  0  0  0  0  0  0  0
    6.0572   -3.6820    0.0000 C   0  0  0  0  0  0  0  0  0  0  0  0
  1 16  2  0
  2 19  2  0
  3 30  2  0
  4 37  1  0
  5 37  2  0
  6 40  1  0
  7 40  2  0
  8 15  1  0
  8 16  1  0
  8 17  1  0
  9 19  1  0
 10 30  1  0
 11  9  1  1
 11 12  1  0
 11 16  1  0
 12 13  1  0
 13 14  1  0
 14 15  1  0
 17 20  1  0
 18 10  1  0
 18 19  1  0
 18 21  1  6
 20 23  2  0
 20 24  1  0
 21 22  1  0
 22 27  2  0
 22 29  1  0
 23 25  1  0
 24 26  2  0
 25 28  2  0
 26 28  1  0
 27 31  1  0
 28 34  1  0
 29 33  2  0
 30 36  1  0
 31 32  2  0
 31 37  1  0
 32 33  1  0
 32 35  1  0
 34 38  2  0
 34 39  1  0
 35 40  1  0
 38 41  1  0
 39 42  2  0
 41 43  2  0
 42 43  1  0
M  END
>  <DRUGBANK_ID>  (1) 
DB03712

>  <SECONDARY_ACCESSION_NUMBERS>  (1) 
EXPT00326

>  <COMMON_NAME>  (1) 
RU85053

>  <SYNONYMS>  (1) 
5-[(2S)-2-Acetamido-3-oxo-3-[[(3S)-2-oxo-1-[(4-phenylphenyl)methyl]azepan-3-yl]amino]propyl]-2-(carboxymethyl)benzoic acid

$$$$
