
     RDKit          2D

 16 16  0  0  0  0  0  0  0  0999 V2000
   -0.7064    0.4079    0.0000 C   0  0  0  0  0  0  0  0  0  0  0  0
   -0.0038    0.8235    0.0000 C   0  0  0  0  0  0  0  0  0  0  0  0
   -1.4168   -0.0001    0.0000 C   0  0  0  0  0  0  0  0  0  0  0  0
    0.0150   -0.0001    0.0000 C   0  0  0  0  0  0  0  0  0  0  0  0
   -1.4245    0.8198    0.0000 C   0  0  0  0  0  0  0  0  0  0  0  0
    0.7140    0.4193    0.0000 C   0  0  0  0  0  0  0  0  0  0  0  0
   -1.4168   -0.8313    0.0000 C   0  0  0  0  0  0  0  0  0  0  0  0
    0.0150   -0.8313    0.0000 C   0  0  0  0  0  0  0  0  0  0  0  0
   -1.4245    1.6435    0.0000 O   0  0  0  0  0  0  0  0  0  0  0  0
   -2.1349    0.4079    0.0000 O   0  0  0  0  0  0  0  0  0  0  0  0
    1.4206    0.8386    0.0000 C   0  0  0  0  0  0  0  0  0  0  0  0
    0.7216   -0.4006    0.0000 O   0  0  0  0  0  0  0  0  0  0  0  0
   -0.7064   -1.2508    0.0000 C   0  0  0  0  0  0  0  0  0  0  0  0
    2.1349    0.4344    0.0000 O   0  0  0  0  0  0  0  0  0  0  0  0
    1.4092    1.6625    0.0000 O   0  0  0  0  0  0  0  0  0  0  0  0
   -1.4245   -1.6588    0.0000 O   0  0  0  0  0  0  0  0  0  0  0  0
  1  2  1  6
  1  3  1  0
  1  4  1  0
  1  5  1  0
  2  6  1  0
  3  7  2  0
  4  8  2  0
  5  9  2  0
  5 10  1  0
  6 11  1  0
  6 12  2  0
  7 13  1  0
  8 13  1  0
 11 14  1  0
 11 15  2  0
 13 16  1  1
M  END
>  <DRUGBANK_ID>  (1) 
DB08427

>  <COMMON_NAME>  (1) 
Prephenic acid

>  <CAS_NUMBER>  (1) 
126-49-8

>  <UNII>  (1) 
Z66B98Z97I

>  <SYNONYMS>  (1) 
(1s,4s)-prephenic acid; cis-1-Carboxy-4-hydroxy-alpha-oxo-2,5-cyclohexadiene-1-propanoic acid; cis-prephenic acid

$$$$
