
     RDKit          2D

  9  8  0  0  0  0  0  0  0  0999 V2000
    2.9980    2.5559    0.0000 C   0  0  0  0  0  0  0  0  0  0  0  0
    3.7125    2.1434    0.0000 O   0  0  0  0  0  0  0  0  0  0  0  0
    4.4270    2.5559    0.0000 C   0  0  0  0  0  0  0  0  0  0  0  0
    5.1414    2.1434    0.0000 C   0  0  0  0  0  0  0  0  0  0  0  0
    5.8559    2.5559    0.0000 O   0  0  0  0  0  0  0  0  0  0  0  0
    6.5704    2.1434    0.0000 C   0  0  0  0  0  0  0  0  0  0  0  0
    7.2849    2.5559    0.0000 C   0  0  0  0  0  0  0  0  0  0  0  0
    7.9993    2.1434    0.0000 O   0  0  0  0  0  0  0  0  0  0  0  0
    8.7138    2.5559    0.0000 C   0  0  0  0  0  0  0  0  0  0  0  0
  1  2  1  0
  2  3  1  0
  3  4  1  0
  4  5  1  0
  5  6  1  0
  6  7  1  0
  7  8  1  0
  8  9  1  0
M  END
>  <DRUGBANK_ID>  (1) 
DB02935

>  <SECONDARY_ACCESSION_NUMBERS>  (1) 
EXPT02086

>  <COMMON_NAME>  (1) 
Diglyme

>  <CAS_NUMBER>  (1) 
111-96-6

>  <UNII>  (1) 
M4BH3X0MVZ

>  <SYNONYMS>  (1) 
2,2'-oxybis(1-methoxyethane); 2,2'-oxybis[1-(methyloxy)ethane]; 2,5,8-trioxanonane; bis(2-methoxyethyl) ether; di(2-methoxyethyl) ether; diethylene glycol dimethyl ether

$$$$
