
     RDKit          2D

  3  2  0  0  0  0  0  0  0  0999 V2000
    1.2375   -0.7145    0.0000 O   0  0  0  0  0  0  0  0  0  0  0  0
    1.9520   -1.1270    0.0000 O   0  0  0  0  0  0  0  0  0  0  0  0
    2.6664   -0.7145    0.0000 O   0  0  0  0  0  0  0  0  0  0  0  0
  1  2  1  0
  2  3  2  0
M  CHG  2   1  -1   2   1
M  END
>  <DRUGBANK_ID>  (1) 
DB12510

>  <COMMON_NAME>  (1) 
Ozone

>  <CAS_NUMBER>  (1) 
10028-15-6

>  <UNII>  (1) 
66H7ZZK23N

>  <SYNONYMS>  (1) 
ozono

$$$$
