OSB
     RDKit          2D

 16 16  0  0  0  0  0  0  0  0999 V2000
   -1.7771    1.6116    0.0000 O   0  0  0  0  0  0  0  0  0  0  0  0
   -0.3481    1.6116    0.0000 O   0  0  0  0  0  0  0  0  0  0  0  0
   -1.0626    1.1991    0.0000 C   0  0  0  0  0  0  0  0  0  0  0  0
   -0.3481   -0.8634    0.0000 C   0  0  0  0  0  0  0  0  0  0  0  0
   -1.0626   -1.2759    0.0000 C   0  0  0  0  0  0  0  0  0  0  0  0
   -1.7771   -0.8634    0.0000 C   0  0  0  0  0  0  0  0  0  0  0  0
   -1.7771   -0.0384    0.0000 C   0  0  0  0  0  0  0  0  0  0  0  0
   -1.0626    0.3741    0.0000 C   0  0  0  0  0  0  0  0  0  0  0  0
   -0.3481   -0.0384    0.0000 C   0  0  0  0  0  0  0  0  0  0  0  0
    0.3663    0.3741    0.0000 C   0  0  0  0  0  0  0  0  0  0  0  0
    1.0808   -0.0384    0.0000 C   0  0  0  0  0  0  0  0  0  0  0  0
    0.3663    1.1991    0.0000 O   0  0  0  0  0  0  0  0  0  0  0  0
    1.7953    0.3741    0.0000 C   0  0  0  0  0  0  0  0  0  0  0  0
    2.5098   -0.0384    0.0000 C   0  0  0  0  0  0  0  0  0  0  0  0
    3.2242    0.3741    0.0000 O   0  0  0  0  0  0  0  0  0  0  0  0
    2.5098   -0.8634    0.0000 O   0  0  0  0  0  0  0  0  0  0  0  0
  1  3  1  0
  2  3  2  0
  3  8  1  0
  4  5  2  0
  4  9  1  0
  5  6  1  0
  6  7  2  0
  7  8  1  0
  8  9  2  0
  9 10  1  0
 10 11  1  0
 10 12  2  0
 11 13  1  0
 13 14  1  0
 14 15  2  0
 14 16  1  0
M  END
>  <DRUGBANK_ID>  (1) 
DB02251

>  <SECONDARY_ACCESSION_NUMBERS>  (1) 
EXPT02448

>  <COMMON_NAME>  (1) 
O-Succinylbenzoate

>  <CAS_NUMBER>  (1) 
27415-09-4

>  <UNII>  (1) 
XX4Y7I0FTT

$$$$
