
     RDKit          2D

 19 21  0  0  0  0  0  0  0  0999 V2000
   -0.1981    1.0476    0.0000 C   0  0  0  0  0  0  0  0  0  0  0  0
    0.5985    0.8661    0.0000 C   0  0  0  0  0  0  0  0  0  0  0  0
    0.9593    0.1129    0.0000 C   0  0  0  0  0  0  0  0  0  0  0  0
    0.6014   -0.6229    0.0000 C   0  0  0  0  0  0  0  0  0  0  0  0
   -0.1995   -0.8076    0.0000 N   0  0  0  0  0  0  0  0  0  0  0  0
   -0.8437   -0.2923    0.0000 C   0  0  0  0  0  0  0  0  0  0  0  0
   -0.8400    0.5336    0.0000 C   0  0  0  0  0  0  0  0  0  0  0  0
   -1.5531    0.9462    0.0000 C   0  0  0  0  0  0  0  0  0  0  0  0
   -2.2703    0.5343    0.0000 C   0  0  0  0  0  0  0  0  0  0  0  0
   -2.2700   -0.2946    0.0000 C   0  0  0  0  0  0  0  0  0  0  0  0
   -1.3772   -1.5127    0.0000 N   0  0  0  0  0  0  0  0  0  0  0  0
   -0.4896   -1.5752    0.0000 C   0  0  0  0  0  0  0  0  0  0  0  0
   -1.5548   -0.7076    0.0000 C   0  0  0  0  0  0  0  0  0  0  0  0
   -0.0447   -2.2700    0.0000 O   0  0  0  0  0  0  0  0  0  0  0  0
   -0.3826    1.8517    0.0000 O   0  0  0  0  0  0  0  0  0  0  0  0
    1.0219    1.5744    0.0000 N   0  0  0  0  0  0  0  0  0  0  0  0
    1.8470    1.5619    0.0000 C   0  0  0  0  0  0  0  0  0  0  0  0
    2.2703    2.2700    0.0000 C   0  0  0  0  0  0  0  0  0  0  0  0
    2.2486    0.8410    0.0000 C   0  0  0  0  0  0  0  0  0  0  0  0
  1 15  1  1
  1  7  1  0
  1  2  1  0
  2  3  1  0
  2 16  1  6
  3  4  1  0
  4  5  1  0
  5  6  1  0
  6  7  2  0
  7  8  1  0
  8  9  2  0
  9 10  1  0
 10 13  2  0
 11 12  1  0
 12  5  1  0
 12 14  2  0
 13  6  1  0
 13 11  1  0
 16 17  1  0
 17 18  1  0
 17 19  1  0
M  END
>  <DRUGBANK_ID>  (1) 
DB11479

>  <COMMON_NAME>  (1) 
Zilpaterol

>  <CAS_NUMBER>  (1) 
119520-05-7

>  <UNII>  (1) 
S384A1Y12J

>  <SYNONYMS>  (1) 
Zilpaterol

$$$$
