1439
     RDKit          2D

 25 27  0  0  1  0  0  0  0  0999 V2000
    1.6971   -2.9440    0.0000 S   0  0  0  0  0  0  0  0  0  0  0  0
    1.6500    2.0786    0.0000 O   0  0  0  0  0  0  0  0  0  0  0  0
    3.0791   -0.3965    0.0000 N   0  0  0  0  0  0  0  0  0  0  0  0
    3.0791    2.0786    0.0000 N   0  0  0  0  0  0  0  0  0  0  0  0
    3.0791    1.2535    0.0000 C   0  0  0  0  0  0  0  0  0  0  0  0
    2.3645    0.8410    0.0000 C   0  0  0  0  0  0  0  0  0  0  0  0
    3.7935    0.8410    0.0000 C   0  0  0  0  0  0  0  0  0  0  0  0
    2.3645    0.0160    0.0000 C   0  0  0  0  0  0  0  0  0  0  0  0
    3.7935    0.0160    0.0000 C   0  0  0  0  0  0  0  0  0  0  0  0
    1.6500    1.2535    0.0000 C   0  0  0  0  0  0  0  0  0  0  0  0
    3.0791   -1.2215    0.0000 C   0  0  0  0  0  0  0  0  0  0  0  0
    2.3645   -1.6340    0.0000 C   0  0  0  0  0  0  0  0  0  0  0  0
    3.7935    2.4911    0.0000 C   0  0  0  0  0  0  0  0  0  0  0  0
    2.3645    2.4911    0.0000 C   0  0  0  0  0  0  0  0  0  0  0  0
    2.3645    3.3161    0.0000 C   0  0  0  0  0  0  0  0  0  0  0  0
    2.3645   -2.4590    0.0000 C   0  0  0  0  0  0  0  0  0  0  0  0
    3.7935    3.3161    0.0000 C   0  0  0  0  0  0  0  0  0  0  0  0
    4.5080    2.0786    0.0000 C   0  0  0  0  0  0  0  0  0  0  0  0
    1.6500    3.7286    0.0000 C   0  0  0  0  0  0  0  0  0  0  0  0
    4.5080    3.7286    0.0000 C   0  0  0  0  0  0  0  0  0  0  0  0
    5.2224    2.4911    0.0000 C   0  0  0  0  0  0  0  0  0  0  0  0
    3.0319   -2.9440    0.0000 C   0  0  0  0  0  0  0  0  0  0  0  0
    5.2224    3.3161    0.0000 C   0  0  0  0  0  0  0  0  0  0  0  0
    2.7770   -3.7286    0.0000 C   0  0  0  0  0  0  0  0  0  0  0  0
    1.9520   -3.7286    0.0000 C   0  0  0  0  0  0  0  0  0  0  0  0
  1 16  1  0
  1 25  1  0
  2 14  2  0
  3  8  1  0
  3  9  1  0
  3 11  1  0
  4  5  1  0
  4 13  1  0
  4 14  1  0
  5  6  1  0
  5  7  1  0
  6  8  1  0
  6 10  1  0
  7  9  1  0
 11 12  1  0
 12 16  1  0
 13 17  2  0
 13 18  1  0
 14 15  1  0
 15 19  1  0
 16 22  2  0
 17 20  1  0
 18 21  2  0
 20 23  2  0
 21 23  1  0
 22 24  1  0
 24 25  2  0
M  END
>  <DRUGBANK_ID>  (1) 
DB01439

>  <COMMON_NAME>  (1) 
3-Methylthiofentanyl

>  <CAS_NUMBER>  (1) 
86052-04-2

>  <UNII>  (1) 
C9C204973M

>  <SYNONYMS>  (1) 
3-Methyl-thiofentanyl

$$$$
