
     RDKit          2D

 34 38  0  0  1  0  0  0  0  0999 V2000
    5.8263   -2.0625    0.0000 C   0  0  0  0  0  0  0  0  0  0  0  0
    5.4138   -2.7770    0.0000 C   0  0  0  0  0  0  0  0  0  0  0  0
    4.5888   -2.7770    0.0000 C   0  0  0  0  0  0  0  0  0  0  0  0
    4.7321   -3.5894    0.0000 C   0  0  0  0  0  0  0  0  0  0  0  0
    4.1763   -2.0625    0.0000 C   0  0  0  0  0  0  0  0  0  0  0  0
    4.5888   -1.3480    0.0000 C   0  0  0  0  0  0  0  0  0  0  0  0
    5.4138   -1.3480    0.0000 C   0  0  0  0  0  0  0  0  0  0  0  0
    5.0013   -0.6336    0.0000 C   0  0  0  0  0  0  0  0  0  0  0  0
    5.8263   -0.6336    0.0000 C   0  0  0  0  0  0  0  0  0  0  0  0
    6.6513   -0.6336    0.0000 C   0  0  0  0  0  0  0  0  0  0  0  0
    7.0638   -1.3480    0.0000 C   0  0  0  0  0  0  0  0  0  0  0  0
    7.4763   -0.6336    0.0000 C   0  0  0  0  0  0  0  0  0  0  0  0
    7.8888   -1.3480    0.0000 C   0  0  0  0  0  0  0  0  0  0  0  0
    8.3013   -0.6336    0.0000 C   0  0  0  0  0  0  0  0  0  0  0  0
    9.1263   -0.6336    0.0000 C   0  0  0  0  0  0  0  0  0  0  0  0
    9.5388   -1.3480    0.0000 C   0  0  0  0  0  0  0  0  0  0  0  0
   10.3638   -1.3480    0.0000 C   0  0  0  0  0  0  0  0  0  0  0  0
   10.7763   -0.6336    0.0000 C   0  0  0  0  0  0  0  0  0  0  0  0
   10.7763   -2.0625    0.0000 C   0  0  0  0  0  0  0  0  0  0  0  0
   11.6013   -2.0625    0.0000 O   0  0  0  0  0  0  0  0  0  0  0  0
   10.3638   -2.7770    0.0000 C   0  0  0  0  0  0  0  0  0  0  0  0
   10.7763   -3.4914    0.0000 O   0  0  0  0  0  0  0  0  0  0  0  0
    9.5388   -2.7770    0.0000 C   0  0  0  0  0  0  0  0  0  0  0  0
    9.1263   -2.0625    0.0000 C   0  0  0  0  0  0  0  0  0  0  0  0
    8.3013   -2.0625    0.0000 C   0  0  0  0  0  0  0  0  0  0  0  0
    8.7138   -2.7770    0.0000 C   0  0  0  0  0  0  0  0  0  0  0  0
    7.8888   -2.7770    0.0000 C   0  0  0  0  0  0  0  0  0  0  0  0
    7.0638   -2.7770    0.0000 C   0  0  0  0  0  0  0  0  0  0  0  0
    6.6513   -2.0625    0.0000 C   0  0  0  0  0  0  0  0  0  0  0  0
    6.2388   -2.7770    0.0000 C   0  0  0  0  0  0  0  0  0  0  0  0
    3.8136   -3.0591    0.0000 C   0  0  0  0  0  0  0  0  0  0  0  0
    3.6703   -3.8716    0.0000 O   0  0  0  0  0  0  0  0  0  0  0  0
    3.1816   -2.5288    0.0000 O   0  0  0  0  0  0  0  0  0  0  0  0
    2.4063   -2.8110    0.0000 C   0  0  0  0  0  0  0  0  0  0  0  0
  1  2  1  6
  1  7  1  0
  1 29  1  0
  3  2  1  0
  3  4  1  1
  3  5  1  0
  3 31  1  0
  5  6  1  0
  7  6  1  0
  7  8  1  1
  7  9  1  0
  9 10  1  0
 11 10  1  0
 11 12  1  1
 11 13  1  0
 13 14  2  0
 14 15  1  0
 15 16  2  0
 16 17  1  0
 16 24  1  0
 17 18  1  0
 17 19  2  0
 19 20  1  0
 19 21  1  0
 21 22  2  0
 21 23  1  0
 23 24  2  0
 25 24  1  0
 25 13  1  0
 25 26  1  1
 25 27  1  0
 27 28  1  0
 29 28  1  0
 29 11  1  0
 29 30  1  6
 31 32  2  0
 31 33  1  0
 33 34  1  0
M  END
>  <DRUGBANK_ID>  (1) 
DB17049

>  <COMMON_NAME>  (1) 
Pristimerin

>  <CAS_NUMBER>  (1) 
1258-84-0

>  <UNII>  (1) 
28ZK7PR57S

>  <SYNONYMS>  (1) 
(9.beta.,13.alpha.,14.beta.,20.alpha.)-3-hydroxy-9,13-dimethyl-2-oxo-24,25,26-trinoroleana-1(10),3,5,7-tetraen-29-oic acid; 24,25,26-trinoroleana-1(10),3,5,7-tetraen-29-oic acid, 3-hydroxy-9,13-dimethyl-2-oxo-, methyl ester, (9.beta.,13.alpha.,14.beta.,20.alpha.)-; Celastrol methyl ester

$$$$
