
     RDKit          2D

 31 32  0  0  0  0  0  0  0  0999 V2000
   -0.7144    1.6500    0.0000 C   0  0  0  0  0  0  0  0  0  0  0  0
   -1.4289   -2.0625    0.0000 C   0  0  0  0  0  0  0  0  0  0  0  0
    2.8578    0.4125    0.0000 C   0  0  0  0  0  0  0  0  0  0  0  0
   -3.3881    0.2194    0.0000 C   0  0  0  0  0  0  0  0  0  0  0  0
   -2.3275    0.2194    0.0000 C   0  0  0  0  0  0  0  0  0  0  0  0
    0.7144   -1.6500    0.0000 C   0  0  0  0  0  0  0  0  0  0  0  0
   -3.5723   -1.6500    0.0000 C   0  0  0  0  0  0  0  0  0  0  0  0
   -2.8578   -2.0625    0.0000 C   0  0  0  0  0  0  0  0  0  0  0  0
    0.7144   -0.8250    0.0000 C   0  0  0  0  0  0  0  0  0  0  0  0
    1.4289   -2.0625    0.0000 C   0  0  0  0  0  0  0  0  0  0  0  0
    0.0000    0.4125    0.0000 C   0  0  0  0  0  0  0  0  0  0  0  0
   -1.4289    0.4125    0.0000 C   0  0  0  0  0  0  0  0  0  0  0  0
    0.7144    0.8250    0.0000 C   0  0  0  0  0  0  0  0  0  0  0  0
   -1.4289   -0.4125    0.0000 C   0  0  0  0  0  0  0  0  0  0  0  0
   -3.5723   -0.8250    0.0000 C   0  0  0  0  0  0  0  0  0  0  0  0
    2.1434    1.6500    0.0000 C   0  0  0  0  0  0  0  0  0  0  0  0
    2.1434   -0.8250    0.0000 C   0  0  0  0  0  0  0  0  0  0  0  0
   -0.7144    0.8250    0.0000 C   0  0  0  0  0  0  0  0  0  0  0  0
   -2.1434   -1.6500    0.0000 C   0  0  0  0  0  0  0  0  0  0  0  0
    2.1434    0.8250    0.0000 C   0  0  0  0  0  0  0  0  0  0  0  0
    1.4289   -0.4125    0.0000 C   0  0  0  0  0  0  0  0  0  0  0  0
    2.1434   -1.6500    0.0000 C   0  0  0  0  0  0  0  0  0  0  0  0
    1.4289    0.4125    0.0000 C   0  0  0  0  0  0  0  0  0  0  0  0
   -2.1434   -0.8250    0.0000 C   0  0  0  0  0  0  0  0  0  0  0  0
    1.4289    2.0625    0.0000 C   0  0  0  0  0  0  0  0  0  0  0  0
    2.8578   -2.0625    0.0000 C   0  0  0  0  0  0  0  0  0  0  0  0
   -2.8578   -0.4125    0.0000 C   0  0  0  0  0  0  0  0  0  0  0  0
    0.7144    1.6500    0.0000 O   0  0  0  0  0  0  0  0  0  0  0  0
    1.4289    2.8875    0.0000 O   0  0  0  0  0  0  0  0  0  0  0  0
    2.8578   -2.8875    0.0000 O   0  0  0  0  0  0  0  0  0  0  0  0
    3.5723   -1.6500    0.0000 O   0  0  0  0  0  0  0  0  0  0  0  0
  8  7  1  0
  9  6  2  0
 10  6  1  0
 13 11  1  0
 14 12  2  0
 15  7  1  0
 18  1  1  0
 18 11  2  0
 18 12  1  0
 19  2  1  0
 19  8  1  0
 20  3  1  0
 20 16  2  0
 21  9  1  0
 21 17  2  0
 22 10  2  0
 22 17  1  0
 23 13  2  0
 23 20  1  0
 23 21  1  0
 24 14  1  0
 24 19  2  0
 25 16  1  0
 26 22  1  0
 27  4  1  0
 27  5  1  0
 27 15  1  0
 27 24  1  0
 28 25  2  0
 29 25  1  0
 30 26  2  0
 31 26  1  0
M  END
>  <DRUGBANK_ID>  (1) 
DB14097

>  <COMMON_NAME>  (1) 
13-cis-12-(3'-Carboxyphenyl)retinoic acid

>  <CAS_NUMBER>  (1) 
141948-79-0

>  <UNII>  (1) 
Y8U3B6ZM8D

$$$$
