IPL
     RDKit          2D

 17 18  0  0  0  0  0  0  0  0999 V2000
   -2.3251    0.1192    0.0000 N   0  0  0  0  0  0  0  0  0  0  0  0
   -1.7731    0.7323    0.0000 C   0  0  0  0  0  0  0  0  0  0  0  0
   -1.0194    0.3968    0.0000 C   0  0  0  0  0  0  0  0  0  0  0  0
   -0.5536   -1.0368    0.0000 C   0  0  0  0  0  0  0  0  0  0  0  0
   -0.8085   -1.8214    0.0000 C   0  0  0  0  0  0  0  0  0  0  0  0
   -1.6155   -1.9929    0.0000 C   0  0  0  0  0  0  0  0  0  0  0  0
   -2.1675   -1.3798    0.0000 C   0  0  0  0  0  0  0  0  0  0  0  0
   -1.9126   -0.5952    0.0000 C   0  0  0  0  0  0  0  0  0  0  0  0
   -1.1056   -0.4237    0.0000 C   0  0  0  0  0  0  0  0  0  0  0  0
    1.1240    0.8093    0.0000 C   0  0  0  0  0  0  0  0  0  0  0  0
    0.4095    0.3968    0.0000 C   0  0  0  0  0  0  0  0  0  0  0  0
   -0.3049    0.8093    0.0000 C   0  0  0  0  0  0  0  0  0  0  0  0
    2.5530    0.8093    0.0000 P   0  0  0  0  0  0  0  0  0  0  0  0
    3.2674    1.2218    0.0000 O   0  0  0  0  0  0  0  0  0  0  0  0
    2.9655    0.0948    0.0000 O   0  0  0  0  0  0  0  0  0  0  0  0
    2.1405    1.5238    0.0000 O   0  0  0  0  0  0  0  0  0  0  0  0
    1.8385    0.3968    0.0000 O   0  0  0  0  0  0  0  0  0  0  0  0
  1  2  1  0
  1  8  1  0
  2  3  2  0
  3  9  1  0
  3 12  1  0
  4  5  1  0
  4  9  2  0
  5  6  2  0
  6  7  1  0
  7  8  2  0
  8  9  1  0
 10 11  1  0
 10 17  1  0
 11 12  1  0
 13 14  2  0
 13 15  1  0
 13 16  1  0
 13 17  1  0
M  END
>  <DRUGBANK_ID>  (1) 
DB03171

>  <SECONDARY_ACCESSION_NUMBERS>  (1) 
EXPT01918

>  <COMMON_NAME>  (1) 
Indole-3-Propanol Phosphate

>  <UNII>  (1) 
KO9J17S3FI

$$$$
