MTH
     RDKit          2D

 20 22  0  0  0  0  0  0  0  0999 V2000
   -2.0083   -2.7909    0.0000 C   0  0  0  0  0  0  0  0  0  0  0  0
   -1.3409   -2.3060    0.0000 S   0  0  0  0  0  0  0  0  0  0  0  0
   -1.4271   -1.4855    0.0000 C   0  0  0  0  0  0  0  0  0  0  0  0
   -0.7597   -1.0006    0.0000 C   0  0  0  0  0  0  0  0  0  0  0  0
   -0.7597   -0.1756    0.0000 O   0  0  0  0  0  0  0  0  0  0  0  0
    0.5099   -0.5881    0.0000 C   0  0  0  0  0  0  0  0  0  0  0  0
    1.3349   -0.5881    0.0000 O   0  0  0  0  0  0  0  0  0  0  0  0
    0.0249   -1.2555    0.0000 C   0  0  0  0  0  0  0  0  0  0  0  0
    0.2799   -2.0401    0.0000 O   0  0  0  0  0  0  0  0  0  0  0  0
    0.0249    0.0794    0.0000 C   0  0  0  0  0  0  0  0  0  0  0  0
    0.2799    0.8640    0.0000 N   0  0  0  0  0  0  0  0  0  0  0  0
   -0.2050    1.5314    0.0000 C   0  0  0  0  0  0  0  0  0  0  0  0
    0.2799    2.1989    0.0000 C   0  0  0  0  0  0  0  0  0  0  0  0
    1.0645    1.9439    0.0000 C   0  0  0  0  0  0  0  0  0  0  0  0
    1.7790    2.3564    0.0000 C   0  0  0  0  0  0  0  0  0  0  0  0
    1.7790    3.1814    0.0000 N   0  0  0  0  0  0  0  0  0  0  0  0
    2.4934    1.9439    0.0000 N   0  0  0  0  0  0  0  0  0  0  0  0
    2.4934    1.1189    0.0000 C   0  0  0  0  0  0  0  0  0  0  0  0
    1.7790    0.7064    0.0000 N   0  0  0  0  0  0  0  0  0  0  0  0
    1.0645    1.1189    0.0000 C   0  0  0  0  0  0  0  0  0  0  0  0
  1  2  1  0
  2  3  1  0
  4  3  1  1
  4  5  1  0
  4  8  1  0
  5 10  1  0
  6  7  1  6
  6  8  1  0
  6 10  1  0
  8  9  1  6
 10 11  1  1
 11 12  1  0
 11 20  1  0
 12 13  2  0
 13 14  1  0
 14 15  1  0
 14 20  2  0
 15 16  1  0
 15 17  2  0
 17 18  1  0
 18 19  2  0
 19 20  1  0
M  END
>  <DRUGBANK_ID>  (1) 
DB02933

>  <SECONDARY_ACCESSION_NUMBERS>  (1) 
EXPT02244

>  <COMMON_NAME>  (1) 
5'-Deoxy-5'-(Methylthio)-Tubercidin

$$$$
