
     RDKit          2D

 22 23  0  0  0  0  0  0  0  0999 V2000
   -3.1915    0.3148    0.0000 C   0  0  0  0  0  0  0  0  0  0  0  0
   -3.9452    0.6504    0.0000 C   0  0  0  0  0  0  0  0  0  0  0  0
   -4.6126    0.1655    0.0000 C   0  0  0  0  0  0  0  0  0  0  0  0
   -4.5264   -0.6549    0.0000 C   0  0  0  0  0  0  0  0  0  0  0  0
   -3.7727   -0.9905    0.0000 C   0  0  0  0  0  0  0  0  0  0  0  0
   -3.1053   -0.5055    0.0000 C   0  0  0  0  0  0  0  0  0  0  0  0
   -2.4379   -0.9905    0.0000 C   0  0  0  0  0  0  0  0  0  0  0  0
   -3.5178   -1.7751    0.0000 N   0  0  0  0  0  0  0  0  0  0  0  0
   -2.6928   -1.7751    0.0000 C   0  0  0  0  0  0  0  0  0  0  0  0
   -1.7234   -0.5780    0.0000 C   0  0  0  0  0  0  0  0  0  0  0  0
   -1.0560   -1.0629    0.0000 N   0  0  0  0  0  0  0  0  0  0  0  0
   -0.3415   -0.6504    0.0000 N   0  0  0  0  0  0  0  0  0  0  0  0
    0.3728   -1.0629    0.0000 C   0  0  0  0  0  0  0  0  0  0  0  0
    1.0873   -0.6504    0.0000 N   0  0  0  0  0  0  0  0  0  0  0  0
    1.8018   -1.0629    0.0000 C   0  0  0  0  0  0  0  0  0  0  0  0
    2.5163   -0.6504    0.0000 C   0  0  0  0  0  0  0  0  0  0  0  0
    3.2307   -1.0629    0.0000 C   0  0  0  0  0  0  0  0  0  0  0  0
    3.9452   -0.6504    0.0000 C   0  0  0  0  0  0  0  0  0  0  0  0
    4.6597   -1.0629    0.0000 C   0  0  0  0  0  0  0  0  0  0  0  0
    0.3728   -1.8879    0.0000 N   0  0  0  0  0  0  0  0  0  0  0  0
   -3.9452    1.4754    0.0000 O   0  0  0  0  0  0  0  0  0  0  0  0
   -4.6597    1.8879    0.0000 C   0  0  0  0  0  0  0  0  0  0  0  0
  1  2  2  0
  1  6  1  0
  2  3  1  0
  2 21  1  0
  3  4  2  0
  4  5  1  0
  5  8  1  0
  6  5  2  0
  7  6  1  0
  7  9  2  0
  8  9  1  0
 10 11  2  0
 10  7  1  0
 11 12  1  0
 12 13  1  0
 13 14  1  0
 13 20  2  0
 14 15  1  0
 15 16  1  0
 16 17  1  0
 17 18  1  0
 18 19  1  0
 21 22  1  0
M  END
>  <DRUGBANK_ID>  (1) 
DB01079

>  <SECONDARY_ACCESSION_NUMBERS>  (1) 
APRD00096

>  <COMMON_NAME>  (1) 
Tegaserod

>  <CAS_NUMBER>  (1) 
145158-71-0

>  <UNII>  (1) 
458VC51857

>  <SYNONYMS>  (1) 
1-(((5-Methoxyindol-3-yl)methylene)amino)-3-pentylguanidine; Tegaserod; Tégasérod; Tegaserodum

$$$$
