
     RDKit          2D

  7  7  0  0  0  0  0  0  0  0999 V2000
   -0.3571   -0.8250    0.0000 C   0  0  0  0  0  0  0  0  0  0  0  0
   -1.0716   -0.4125    0.0000 C   0  0  0  0  0  0  0  0  0  0  0  0
   -1.0716    0.4125    0.0000 C   0  0  0  0  0  0  0  0  0  0  0  0
   -0.3571    0.8250    0.0000 N   0  0  0  0  0  0  0  0  0  0  0  0
    0.3573    0.4125    0.0000 C   0  0  0  0  0  0  0  0  0  0  0  0
    0.3573   -0.4125    0.0000 C   0  0  0  0  0  0  0  0  0  0  0  0
    1.0716    0.8250    0.0000 S   0  0  0  0  0  0  0  0  0  0  0  0
  1  2  2  0
  1  6  1  0
  2  3  1  0
  3  4  2  0
  4  5  1  0
  5  6  2  0
  5  7  1  0
M  END
>  <DRUGBANK_ID>  (1) 
DB03329

>  <SECONDARY_ACCESSION_NUMBERS>  (1) 
EXPT02724

>  <COMMON_NAME>  (1) 
2-Pyridinethiol

>  <CAS_NUMBER>  (1) 
73018-10-7

>  <UNII>  (1) 
EE982KT952

>  <SYNONYMS>  (1) 
2-Mercaptopyridine; Pyridine-2-thiol

$$$$
