
     RDKit          2D

 27 31  0  0  1  0  0  0  0  0999 V2000
    2.6391    0.5940    0.0000 C   0  0  0  0  0  0  0  0  0  0  0  0
    2.5429   -0.2609    0.0000 C   0  0  0  0  0  0  0  0  0  0  0  0
    3.1064   -0.8804    0.0000 C   0  0  0  0  0  0  0  0  0  0  0  0
    3.8256   -0.4493    0.0000 C   0  0  0  0  0  0  0  0  0  0  0  0
    4.5141   -0.9039    0.0000 C   0  0  0  0  0  0  0  0  0  0  0  0
    3.9421    0.3980    0.0000 C   0  0  0  0  0  0  0  0  0  0  0  0
    4.7995    0.4092    0.0000 C   0  0  0  0  0  0  0  0  0  0  0  0
    5.2883    1.0982    0.0000 C   0  0  0  0  0  0  0  0  0  0  0  0
    4.8026    1.7960    0.0000 C   0  0  0  0  0  0  0  0  0  0  0  0
    5.4880    2.2551    0.0000 C   0  0  0  0  0  0  0  0  0  0  0  0
    4.3462    2.5046    0.0000 O   0  0  0  0  0  0  0  0  0  0  0  0
    3.6200    2.0443    0.0000 O   0  0  0  0  0  0  0  0  0  0  0  0
    3.3814    1.0934    0.0000 C   0  0  0  0  0  0  0  0  0  0  0  0
    3.0379    1.8038    0.0000 C   0  0  0  0  0  0  0  0  0  0  0  0
    2.2230    2.0744    0.0000 O   0  0  0  0  0  0  0  0  0  0  0  0
    1.5179    1.6168    0.0000 C   0  0  0  0  0  0  0  0  0  0  0  0
    1.8064    0.8267    0.0000 C   0  0  0  0  0  0  0  0  0  0  0  0
    1.2462    0.2211    0.0000 C   0  0  0  0  0  0  0  0  0  0  0  0
    0.7354    1.8782    0.0000 N   0  0  0  0  0  0  0  0  0  0  0  0
    0.1177    1.3313    0.0000 C   0  0  0  0  0  0  0  0  0  0  0  0
   -0.6647    1.5928    0.0000 C   0  0  0  0  0  0  0  0  0  0  0  0
   -0.8295    2.4012    0.0000 S   0  0  0  0  0  0  0  0  0  0  0  0
   -1.5970    2.0985    0.0000 O   0  0  0  0  0  0  0  0  0  0  0  0
   -1.2609    3.1044    0.0000 O   0  0  0  0  0  0  0  0  0  0  0  0
   -0.2119    2.9481    0.0000 C   0  0  0  0  0  0  0  0  0  0  0  0
    0.5706    2.6866    0.0000 C   0  0  0  0  0  0  0  0  0  0  0  0
    3.9705    1.5831    0.0000 O   0  0  0  0  0  0  0  0  0  0  0  0
  1  2  1  1
  1 17  1  0
  2  3  1  0
  4  3  1  0
  4  5  1  6
  6  4  1  0
  6  7  1  1
  7  8  1  0
  9  8  1  0
  9 10  1  1
  9 11  1  0
  9 27  1  0
 11 12  1  0
 13 12  1  6
 13  1  1  0
 13  6  1  0
 13 14  1  0
 14 15  1  6
 14 27  1  0
 16 15  1  0
 16 19  1  6
 17 16  1  0
 17 18  1  1
 19 20  1  0
 19 26  1  0
 20 21  1  0
 21 22  1  0
 22 23  2  0
 22 24  2  0
 22 25  1  0
 25 26  1  0
M  END
>  <DRUGBANK_ID>  (1) 
DB16097

>  <COMMON_NAME>  (1) 
Artemisone

>  <CAS_NUMBER>  (1) 
255730-18-8

>  <UNII>  (1) 
796LMW5BUZ

>  <SYNONYMS>  (1) 
Artemifone; Artemisone

$$$$
