
     RDKit          2D

 27 30  0  0  0  0  0  0  0  0999 V2000
    5.4823   -1.1653    0.0000 C   0  0  0  0  0  0  0  0  0  0  0  0
    1.5661    0.5783    0.0000 C   0  0  0  0  0  0  0  0  0  0  0  0
    2.7512    7.2402    0.0000 C   0  0  0  0  0  0  0  0  0  0  0  0
    5.8178   -0.4116    0.0000 C   0  0  0  0  0  0  0  0  0  0  0  0
    4.6618   -1.2515    0.0000 C   0  0  0  0  0  0  0  0  0  0  0  0
    2.0510   -0.0891    0.0000 C   0  0  0  0  0  0  0  0  0  0  0  0
    1.9016    1.3320    0.0000 C   0  0  0  0  0  0  0  0  0  0  0  0
    2.0367    6.8277    0.0000 C   0  0  0  0  0  0  0  0  0  0  0  0
    3.4656    6.8277    0.0000 C   0  0  0  0  0  0  0  0  0  0  0  0
    5.3329    0.2558    0.0000 C   0  0  0  0  0  0  0  0  0  0  0  0
    4.1769   -0.5841    0.0000 C   0  0  0  0  0  0  0  0  0  0  0  0
    2.8715   -0.0029    0.0000 C   0  0  0  0  0  0  0  0  0  0  0  0
    2.7221    1.4182    0.0000 C   0  0  0  0  0  0  0  0  0  0  0  0
    3.4656    4.3527    0.0000 C   0  0  0  0  0  0  0  0  0  0  0  0
    2.0367    6.0027    0.0000 C   0  0  0  0  0  0  0  0  0  0  0  0
    3.4656    6.0027    0.0000 C   0  0  0  0  0  0  0  0  0  0  0  0
    2.7512    4.7652    0.0000 C   0  0  0  0  0  0  0  0  0  0  0  0
    4.3631    1.5907    0.0000 C   0  0  0  0  0  0  0  0  0  0  0  0
    4.5124    0.1696    0.0000 C   0  0  0  0  0  0  0  0  0  0  0  0
    3.2070    0.7508    0.0000 C   0  0  0  0  0  0  0  0  0  0  0  0
    4.0275    0.8370    0.0000 C   0  0  0  0  0  0  0  0  0  0  0  0
    3.8781    2.2581    0.0000 C   0  0  0  0  0  0  0  0  0  0  0  0
    3.4656    3.5277    0.0000 C   0  0  0  0  0  0  0  0  0  0  0  0
    4.1331    3.0428    0.0000 N   0  0  0  0  0  0  0  0  0  0  0  0
    3.0531    2.2581    0.0000 N   0  0  0  0  0  0  0  0  0  0  0  0
    2.7512    5.5902    0.0000 N   0  0  0  0  0  0  0  0  0  0  0  0
    2.7982    3.0428    0.0000 O   0  0  0  0  0  0  0  0  0  0  0  0
  4  1  2  0
  5  1  1  0
  6  2  2  0
  7  2  1  0
  8  3  1  0
  9  3  1  0
 10  4  1  0
 11  5  2  0
 12  6  1  0
 13  7  2  0
 15  8  1  0
 16  9  1  0
 17 14  1  0
 19 10  2  0
 19 11  1  0
 20 12  2  0
 20 13  1  0
 21 18  1  0
 21 19  1  0
 21 20  1  0
 22 18  1  0
 23 14  1  0
 24 22  1  0
 24 23  2  0
 25 22  2  0
 26 15  1  0
 26 16  1  0
 26 17  1  0
 27 23  1  0
 27 25  1  0
M  END
>  <DRUGBANK_ID>  (1) 
DB13397

>  <COMMON_NAME>  (1) 
Prenoxdiazine

>  <CAS_NUMBER>  (1) 
47543-65-7

>  <UNII>  (1) 
S491HH391H

>  <SYNONYMS>  (1) 
Prenoxdiazine

$$$$
