
     RDKit          2D

 31 34  0  0  0  0  0  0  0  0999 V2000
   -0.7495   -1.9837    0.0000 C   0  0  0  0  0  0  0  0  0  0  0  0
   -1.4641   -2.3961    0.0000 C   0  0  0  0  0  0  0  0  0  0  0  0
   -2.1784   -1.9837    0.0000 C   0  0  0  0  0  0  0  0  0  0  0  0
   -2.8929   -2.3961    0.0000 C   0  0  0  0  0  0  0  0  0  0  0  0
   -3.6075   -1.1587    0.0000 C   0  0  0  0  0  0  0  0  0  0  0  0
   -2.8929   -0.7462    0.0000 C   0  0  0  0  0  0  0  0  0  0  0  0
   -0.7495    0.4912    0.0000 C   0  0  0  0  0  0  0  0  0  0  0  0
    1.2344   -0.3337    0.0000 C   0  0  0  0  0  0  0  0  0  0  0  0
    0.7495   -1.0011    0.0000 C   0  0  0  0  0  0  0  0  0  0  0  0
   -1.4641   -0.7462    0.0000 C   0  0  0  0  0  0  0  0  0  0  0  0
   -0.0350   -0.7462    0.0000 C   0  0  0  0  0  0  0  0  0  0  0  0
   -0.7495   -1.1587    0.0000 C   0  0  0  0  0  0  0  0  0  0  0  0
   -0.0350    0.0787    0.0000 C   0  0  0  0  0  0  0  0  0  0  0  0
    0.7495    0.3337    0.0000 C   0  0  0  0  0  0  0  0  0  0  0  0
   -3.6075   -1.9837    0.0000 C   0  0  0  0  0  0  0  0  0  0  0  0
   -4.3220   -2.3962    0.0000 O   0  0  0  0  0  0  0  0  0  0  0  0
   -1.4641    0.0787    0.0000 C   0  0  0  0  0  0  0  0  0  0  0  0
   -2.1786    0.4912    0.0000 O   0  0  0  0  0  0  0  0  0  0  0  0
    0.7495    1.1587    0.0000 C   0  0  0  0  0  0  0  0  0  0  0  0
    0.0350    1.5712    0.0000 O   0  0  0  0  0  0  0  0  0  0  0  0
    1.4640    1.5712    0.0000 C   0  0  0  0  0  0  0  0  0  0  0  0
    1.4640    0.7462    0.0000 O   0  0  0  0  0  0  0  0  0  0  0  0
   -0.0350    0.9037    0.0000 C   0  0  0  0  0  0  0  0  0  0  0  0
   -2.1784   -1.1587    0.0000 C   0  0  0  0  0  0  0  0  0  0  0  0
   -2.1784   -0.3337    0.0000 C   0  0  0  0  0  0  0  0  0  0  0  0
    2.1786    0.3337    0.0000 C   0  0  0  0  0  0  0  0  0  0  0  0
    2.1786   -0.4912    0.0000 O   0  0  0  0  0  0  0  0  0  0  0  0
    2.8929    0.7462    0.0000 C   0  0  0  0  0  0  0  0  0  0  0  0
    3.6074    0.3337    0.0000 C   0  0  0  0  0  0  0  0  0  0  0  0
    4.3219    0.7462    0.0000 C   0  0  0  0  0  0  0  0  0  0  0  0
    1.4640    2.3962    0.0000 O   0  0  0  0  0  0  0  0  0  0  0  0
  1  2  1  0
  2  3  1  0
  3  4  2  0
  3 24  1  0
  4 15  1  0
  5  6  1  0
  6 24  1  0
  7 13  1  0
  8  9  1  0
 11  9  1  1
 10 17  1  1
 12  1  1  6
 12 10  1  0
 12 11  1  0
 13 14  1  0
 13 11  1  0
 13 23  1  1
 14  8  1  0
 14 22  1  6
 14 19  1  0
 15  5  1  0
 15 16  2  0
 17  7  1  0
 17 18  1  1
 19 21  1  0
 19 20  2  0
 21 31  1  0
 22 26  1  0
 24 10  1  0
 24 25  1  1
 26 27  2  0
 26 28  1  0
 28 29  1  0
 29 30  1  0
M  END
>  <DRUGBANK_ID>  (1) 
DB14540

>  <SECONDARY_ACCESSION_NUMBERS>  (1) 
DBSALT001234

>  <COMMON_NAME>  (1) 
Hydrocortisone butyrate

>  <CAS_NUMBER>  (1) 
13609-67-1

>  <UNII>  (1) 
05RMF7YPWN

>  <SYNONYMS>  (1) 
11β,21-dihydroxy-17α-butyryloxy-4-pregnene-3,20-dione; 17-O-butyrylcortisol; Cortisol 17-butyrate; H-17-B; Hydrocortisone butyrate; Hydrocortisone-17alpha-butyrate

$$$$
