
     RDKit          2D

  7  6  0  0  0  0  0  0  0  0999 V2000
   -0.1914    0.7146    0.0000 C   0  0  0  0  0  0  0  0  0  0  0  0
    0.5230    1.1271    0.0000 C   0  0  0  0  0  0  0  0  0  0  0  0
    1.2376    0.7146    0.0000 O   0  0  0  0  0  0  0  0  0  0  0  0
    1.9521    1.1271    0.0000 C   0  0  0  0  0  0  0  0  0  0  0  0
    1.9521    1.9521    0.0000 O   0  0  0  0  0  0  0  0  0  0  0  0
    2.6666    0.7146    0.0000 N   0  0  0  0  0  0  0  0  0  0  0  0
    3.3812    1.1271    0.0000 C   0  0  0  0  0  0  0  0  0  0  0  0
  1  2  1  0
  2  3  1  0
  3  4  1  0
  4  5  2  0
  4  6  1  0
  6  7  1  0
M  END
>  <DRUGBANK_ID>  (1) 
DB02856

>  <SECONDARY_ACCESSION_NUMBERS>  (1) 
EXPT01337

>  <COMMON_NAME>  (1) 
Ethyl N-methylcarbamate

>  <CAS_NUMBER>  (1) 
105-40-8

>  <UNII>  (1) 
1W34GCF5CS

>  <SYNONYMS>  (1) 
Ethyl methylcarbamate; Ethyl N-methylcarbamate; Ethyl-N-methylcarbamate; N-Methyl urethan; N-Methylurethan; N-Methylurethane

$$$$
