TLX
     RDKit          2D

 16 17  0  0  0  0  0  0  0  0999 V2000
   -0.5890   -0.0125    0.0000 N   0  0  0  0  0  0  0  0  0  0  0  0
   -0.5890   -0.8375    0.0000 C   0  0  0  0  0  0  0  0  0  0  0  0
   -1.3035   -1.2500    0.0000 C   0  0  0  0  0  0  0  0  0  0  0  0
   -2.0180   -0.8375    0.0000 C   0  0  0  0  0  0  0  0  0  0  0  0
   -2.0180   -0.0125    0.0000 N   0  0  0  0  0  0  0  0  0  0  0  0
   -2.6311    0.5395    0.0000 C   0  0  0  0  0  0  0  0  0  0  0  0
   -2.2955    1.2932    0.0000 C   0  0  0  0  0  0  0  0  0  0  0  0
   -1.4750    1.2070    0.0000 C   0  0  0  0  0  0  0  0  0  0  0  0
   -1.3035    0.4000    0.0000 C   0  0  0  0  0  0  0  0  0  0  0  0
    0.1254    0.4000    0.0000 C   0  0  0  0  0  0  0  0  0  0  0  0
    0.8399   -0.0125    0.0000 C   0  0  0  0  0  0  0  0  0  0  0  0
    1.5544    0.4000    0.0000 C   0  0  0  0  0  0  0  0  0  0  0  0
    2.2688   -0.0125    0.0000 C   0  0  0  0  0  0  0  0  0  0  0  0
    2.9833    0.4000    0.0000 C   0  0  0  0  0  0  0  0  0  0  0  0
    2.2688   -0.8375    0.0000 C   0  0  0  0  0  0  0  0  0  0  0  0
    0.8399   -0.8375    0.0000 N   0  0  0  0  0  0  0  0  0  0  0  0
  1  2  1  0
  1  9  1  0
  1 10  1  0
  2  3  1  0
  3  4  1  0
  5  4  1  0
  5  6  1  0
  5  9  1  0
  6  7  1  0
  7  8  1  0
  9  8  1  1
 10 11  1  0
 11 12  1  0
 11 16  1  6
 12 13  1  0
 13 14  1  0
 13 15  1  0
M  END
>  <DRUGBANK_ID>  (1) 
DB08629

>  <COMMON_NAME>  (1) 
N1-(2-AMINO-4-METHYLPENTYL)OCTAHYDRO-PYRROLO[1,2-A] PYRIMIDINE

$$$$
