
     RDKit          2D

 31 32  0  0  1  0  0  0  0  0999 V2000
    1.7719    0.4671    0.0000 C   0  0  0  0  0  0  0  0  0  0  0  0
    1.0111    0.7862    0.0000 C   0  0  0  0  0  0  0  0  0  0  0  0
    1.0543    1.6101    0.0000 C   0  0  0  0  0  0  0  0  0  0  0  0
    0.4131    2.1292    0.0000 O   0  0  0  0  0  0  0  0  0  0  0  0
    1.8511    1.8236    0.0000 N   0  0  0  0  0  0  0  0  0  0  0  0
    2.3005    1.1317    0.0000 C   0  0  0  0  0  0  0  0  0  0  0  0
    2.9282    0.8604    0.0000 C   0  0  0  0  0  0  0  0  0  0  0  0
    3.1417    0.0635    0.0000 S   0  0  0  0  0  0  0  0  0  0  0  0
    3.9386   -0.1500    0.0000 S   0  0  0  0  0  0  0  0  0  0  0  0
    4.1521   -0.9469    0.0000 C   0  0  0  0  0  0  0  0  0  0  0  0
    3.5688   -1.5303    0.0000 C   0  0  0  0  0  0  0  0  0  0  0  0
    2.7719   -1.3168    0.0000 C   0  0  0  0  0  0  0  0  0  0  0  0
    2.1885   -1.9001    0.0000 C   0  0  0  0  0  0  0  0  0  0  0  0
    1.6250   -1.6866    0.0000 C   0  0  0  0  0  0  0  0  0  0  0  0
    1.4114   -0.8897    0.0000 C   0  0  0  0  0  0  0  0  0  0  0  0
    0.6146   -0.6762    0.0000 C   0  0  0  0  0  0  0  0  0  0  0  0
    0.0312   -1.2595    0.0000 O   0  0  0  0  0  0  0  0  0  0  0  0
    0.4010    0.1207    0.0000 N   0  0  0  0  0  0  0  0  0  0  0  0
    2.5502   -1.9001    0.0000 O   0  0  0  0  0  0  0  0  0  0  0  0
    3.1336   -1.3168    0.0000 C   0  0  0  0  0  0  0  0  0  0  0  0
    2.9200   -0.5199    0.0000 O   0  0  0  0  0  0  0  0  0  0  0  0
    3.9304   -1.5303    0.0000 C   0  0  0  0  0  0  0  0  0  0  0  0
    4.5138   -0.9469    0.0000 C   0  0  0  0  0  0  0  0  0  0  0  0
    4.3003   -0.1500    0.0000 C   0  0  0  0  0  0  0  0  0  0  0  0
    3.5034    0.0635    0.0000 N   0  0  0  0  0  0  0  0  0  0  0  0
    3.2899    0.8604    0.0000 C   0  0  0  0  0  0  0  0  0  0  0  0
    3.8749    1.4420    0.0000 O   0  0  0  0  0  0  0  0  0  0  0  0
    4.8836    0.4333    0.0000 C   0  0  0  0  0  0  0  0  0  0  0  0
    4.6701    1.2302    0.0000 C   0  0  0  0  0  0  0  0  0  0  0  0
    5.6805    0.2198    0.0000 C   0  0  0  0  0  0  0  0  0  0  0  0
    5.3107   -1.1605    0.0000 O   0  0  0  0  0  0  0  0  0  0  0  0
  2  1  1  1
  2  3  1  0
  2 18  1  0
  3  4  2  0
  3  5  1  0
  6  5  1  0
  6  7  1  1
  6 26  1  0
  7  8  1  0
  8  9  1  0
  9 10  1  0
 10 11  1  0
 11 12  1  0
 12 13  2  0
 14 13  1  6
 14 15  1  0
 14 19  1  0
 15 16  1  0
 16 17  2  0
 16 18  1  0
 19 20  1  0
 20 21  2  0
 20 22  1  0
 22 23  1  0
 23 24  1  0
 23 31  1  1
 24 25  1  0
 24 28  1  6
 25 26  1  0
 26 27  2  0
 28 29  1  0
 28 30  1  0
M  END
>  <DRUGBANK_ID>  (1) 
DB12279

>  <COMMON_NAME>  (1) 
OBP-801

>  <CAS_NUMBER>  (1) 
328548-11-4

>  <UNII>  (1) 
30Q3VS5HZ4

$$$$
