
     RDKit          2D

 31 35  0  0  1  0  0  0  0  0999 V2000
   -1.2654    5.4918    0.0000 N   0  0  0  0  0  0  0  0  0  0  0  0
   -1.2654    4.6668    0.0000 C   0  0  0  0  0  0  0  0  0  0  0  0
   -0.5510    4.2543    0.0000 N   0  0  0  0  0  0  0  0  0  0  0  0
   -0.5510    3.4293    0.0000 C   0  0  0  0  0  0  0  0  0  0  0  0
   -1.2654    3.0168    0.0000 C   0  0  0  0  0  0  0  0  0  0  0  0
   -1.9799    3.4293    0.0000 C   0  0  0  0  0  0  0  0  0  0  0  0
   -1.9799    4.2543    0.0000 C   0  0  0  0  0  0  0  0  0  0  0  0
   -2.6944    4.6668    0.0000 O   0  0  0  0  0  0  0  0  0  0  0  0
   -2.6944    5.4918    0.0000 C   0  0  0  0  0  0  0  0  0  0  0  0
   -3.4088    5.9043    0.0000 F   0  0  0  0  0  0  0  0  0  0  0  0
   -1.9799    5.9043    0.0000 F   0  0  0  0  0  0  0  0  0  0  0  0
   -1.2654    2.1918    0.0000 C   0  0  0  0  0  0  0  0  0  0  0  0
   -0.5510    1.7793    0.0000 C   0  0  0  0  0  0  0  0  0  0  0  0
   -0.5510    0.9543    0.0000 C   0  0  0  0  0  0  0  0  0  0  0  0
   -1.2654    0.5418    0.0000 N   0  0  0  0  0  0  0  0  0  0  0  0
   -1.9799    0.9543    0.0000 C   0  0  0  0  0  0  0  0  0  0  0  0
   -1.9799    1.7793    0.0000 N   0  0  0  0  0  0  0  0  0  0  0  0
   -2.6944    0.5418    0.0000 N   0  0  0  0  0  0  0  0  0  0  0  0
   -2.7806   -0.2787    0.0000 C   0  0  0  0  0  0  0  0  0  0  0  0
   -3.5876   -0.4502    0.0000 C   0  0  0  0  0  0  0  0  0  0  0  0
   -4.0001    0.2642    0.0000 C   0  0  0  0  0  0  0  0  0  0  0  0
   -4.6675   -0.2207    0.0000 F   0  0  0  0  0  0  0  0  0  0  0  0
   -4.5521    0.8773    0.0000 F   0  0  0  0  0  0  0  0  0  0  0  0
   -3.4480    0.8773    0.0000 C   0  0  0  0  0  0  0  0  0  0  0  0
    0.1635    0.5418    0.0000 N   0  0  0  0  0  0  0  0  0  0  0  0
    0.1635   -0.2832    0.0000 C   0  0  0  0  0  0  0  0  0  0  0  0
    0.8780   -0.6957    0.0000 C   0  0  0  0  0  0  0  0  0  0  0  0
    0.6717    0.1293    0.0000 C   0  0  0  0  0  0  0  0  0  0  0  0
    0.8780    0.9543    0.0000 C   0  0  0  0  0  0  0  0  0  0  0  0
    1.5925    0.5418    0.0000 C   0  0  0  0  0  0  0  0  0  0  0  0
    1.5925   -0.2832    0.0000 O   0  0  0  0  0  0  0  0  0  0  0  0
  1  2  1  0
  2  3  2  0
  2  7  1  0
  3  4  1  0
  4  5  2  0
  5  6  1  0
  5 12  1  0
  6  7  2  0
  7  8  1  0
  8  9  1  0
  9 10  1  0
  9 11  1  0
 12 13  2  0
 12 17  1  0
 13 14  1  0
 14 15  2  0
 14 25  1  0
 15 16  1  0
 16 17  2  0
 16 18  1  0
 18 19  1  0
 18 24  1  0
 19 20  1  0
 20 21  1  0
 21 22  1  0
 21 23  1  0
 21 24  1  0
 25 26  1  0
 27 26  1  6
 27 28  1  0
 27 31  1  0
 29 28  1  0
 29 25  1  0
 29 30  1  6
 30 31  1  0
M  END
>  <DRUGBANK_ID>  (1) 
DB17079

>  <COMMON_NAME>  (1) 
GDC-0134

>  <CAS_NUMBER>  (1) 
1637394-01-4

>  <UNII>  (1) 
4N6KQ7D685

>  <SYNONYMS>  (1) 
2-pyridinamine, 3-(difluoromethoxy)-5-(2-(3,3-difluoro-1-pyrrolidinyl)-6-(1s,4s)-2-oxa-5-azabicyclo(2.2.1)hept-5-yl-4-pyrimidinyl)-

$$$$
