
     RDKit          2D

 24 24  0  0  0  0  0  0  0  0999 V2000
    0.3545    0.9506    0.0000 O   0  0  0  0  0  0  0  0  0  0  0  0
    1.0634   -1.1183    0.0000 O   0  0  0  0  0  0  0  0  0  0  0  0
    1.7918    0.9506    0.0000 O   0  0  0  0  0  0  0  0  0  0  0  0
   -1.0957    2.6071    0.0000 O   0  0  0  0  0  0  0  0  0  0  0  0
    0.3158    2.6071    0.0000 O   0  0  0  0  0  0  0  0  0  0  0  0
   -1.8369   -1.3374    0.0000 O   0  0  0  0  0  0  0  0  0  0  0  0
    3.2227    0.0934    0.0000 O   0  0  0  0  0  0  0  0  0  0  0  0
   -0.3996   -1.3632    0.0000 N   0  0  0  0  0  0  0  0  0  0  0  0
   -1.8111   -0.2868    0.0000 N   0  0  0  0  0  0  0  0  0  0  0  0
   -2.5137    0.9506    0.0000 N   0  0  0  0  0  0  0  0  0  0  0  0
   -3.2227   -0.2804    0.0000 N   0  0  0  0  0  0  0  0  0  0  0  0
    0.3545    0.1256    0.0000 C   0  0  0  0  0  0  0  0  0  0  0  0
   -0.3867   -0.2868    0.0000 C   0  0  0  0  0  0  0  0  0  0  0  0
    1.0699   -0.2932    0.0000 C   0  0  0  0  0  0  0  0  0  0  0  0
   -1.0957    0.1256    0.0000 C   0  0  0  0  0  0  0  0  0  0  0  0
   -0.3867    1.3696    0.0000 C   0  0  0  0  0  0  0  0  0  0  0  0
   -1.0957    0.9506    0.0000 C   0  0  0  0  0  0  0  0  0  0  0  0
    1.7853    0.1127    0.0000 C   0  0  0  0  0  0  0  0  0  0  0  0
   -0.3867    2.1946    0.0000 C   0  0  0  0  0  0  0  0  0  0  0  0
   -1.1150   -1.7628    0.0000 C   0  0  0  0  0  0  0  0  0  0  0  0
    2.5073   -0.3125    0.0000 C   0  0  0  0  0  0  0  0  0  0  0  0
   -2.5137    0.1256    0.0000 C   0  0  0  0  0  0  0  0  0  0  0  0
    1.7724   -1.5372    0.0000 C   0  0  0  0  0  0  0  0  0  0  0  0
   -1.1215   -2.6071    0.0000 C   0  0  0  0  0  0  0  0  0  0  0  0
 12  1  1  1
  1 16  1  0
  2 23  1  0
  4 19  2  0
  5 19  1  0
  6 20  2  0
  7 21  1  0
  8 20  1  0
  9 22  1  0
 10 22  2  0
 11 22  1  0
 12 13  1  0
 12 14  1  0
 13  8  1  6
 13 15  1  0
 14  2  1  1
 14 18  1  0
 15  9  1  1
 15 17  1  0
 16 17  2  0
 16 19  1  0
 18  3  1  6
 18 21  1  0
 20 24  1  0
M  END
>  <DRUGBANK_ID>  (1) 
DB12791

>  <COMMON_NAME>  (1) 
Laninamivir

>  <CAS_NUMBER>  (1) 
203120-17-6

>  <UNII>  (1) 
B408IW3GL5

>  <SYNONYMS>  (1) 
Laninamivir; Laninamivirum

$$$$
