
     RDKit          2D

 17 18  0  0  0  0  0  0  0  0999 V2000
    1.0194   -1.1833    0.0000 C   0  0  0  0  0  0  0  0  0  0  0  0
    1.0194    0.6357    0.0000 N   0  0  0  0  0  0  0  0  0  0  0  0
    0.1044   -0.6394    0.0000 O   0  0  0  0  0  0  0  0  0  0  0  0
    0.6411   -1.9468    0.0000 C   0  0  0  0  0  0  0  0  0  0  0  0
    0.4106    0.9923    0.0000 C   0  0  0  0  0  0  0  0  0  0  0  0
    1.6605    0.9923    0.0000 C   0  0  0  0  0  0  0  0  0  0  0  0
   -0.8644   -1.1833    0.0000 C   0  0  0  0  0  0  0  0  0  0  0  0
   -0.5078   -1.9468    0.0000 C   0  0  0  0  0  0  0  0  0  0  0  0
    0.4106    1.7055    0.0000 N   0  0  0  0  0  0  0  0  0  0  0  0
   -0.3241    0.6572    0.0000 O   0  0  0  0  0  0  0  0  0  0  0  0
    1.6605    1.7055    0.0000 C   0  0  0  0  0  0  0  0  0  0  0  0
   -1.1058   -0.3944    0.0000 C   0  0  0  0  0  0  0  0  0  0  0  0
   -0.8392   -2.7717    0.0000 O   0  0  0  0  0  0  0  0  0  0  0  0
    1.0194    2.0656    0.0000 C   0  0  0  0  0  0  0  0  0  0  0  0
    2.0747    1.9251    0.0000 Br  0  0  0  0  0  0  0  0  0  0  0  0
   -2.0747   -0.5997    0.0000 O   0  0  0  0  0  0  0  0  0  0  0  0
    1.0194    2.7717    0.0000 O   0  0  0  0  0  0  0  0  0  0  0  0
  1  2  1  1
  1  3  1  0
  1  4  1  0
  2  5  1  0
  2  6  1  0
  3  7  1  0
  4  8  1  0
  5  9  1  0
  5 10  2  0
  6 11  2  0
  7 12  1  1
  7  8  1  0
  8 13  1  6
  9 14  1  0
 11 15  1  0
 11 14  1  0
 12 16  1  0
 14 17  2  0
M  END
>  <DRUGBANK_ID>  (1) 
DB12028

>  <COMMON_NAME>  (1) 
Broxuridine

>  <CAS_NUMBER>  (1) 
59-14-3

>  <UNII>  (1) 
G34N38R2N1

>  <SYNONYMS>  (1) 
Bromodeoxyuridine; Broxuridina; Broxuridine

$$$$
