
     RDKit          2D

 23 23  0  0  0  0  0  0  0  0999 V2000
    1.4289    0.2293    0.0000 S   0  0  0  0  0  0  0  0  0  0  0  0
    2.1434   -2.6582    0.0000 F   0  0  0  0  0  0  0  0  0  0  0  0
    1.0164   -2.9601    0.0000 F   0  0  0  0  0  0  0  0  0  0  0  0
    1.8414   -1.5312    0.0000 F   0  0  0  0  0  0  0  0  0  0  0  0
   -2.1434   -2.6582    0.0000 F   0  0  0  0  0  0  0  0  0  0  0  0
   -1.0165   -2.9601    0.0000 F   0  0  0  0  0  0  0  0  0  0  0  0
   -1.8415   -1.5312    0.0000 F   0  0  0  0  0  0  0  0  0  0  0  0
    2.1434    1.4668    0.0000 O   0  0  0  0  0  0  0  0  0  0  0  0
    0.0000    0.2293    0.0000 N   0  0  0  0  0  0  0  0  0  0  0  0
    1.4289    2.7044    0.0000 N   0  0  0  0  0  0  0  0  0  0  0  0
   -0.7145    2.2919    0.0000 N   0  0  0  0  0  0  0  0  0  0  0  0
    0.7144    0.6418    0.0000 C   0  0  0  0  0  0  0  0  0  0  0  0
    0.0000   -0.5956    0.0000 C   0  0  0  0  0  0  0  0  0  0  0  0
    0.7144    1.4668    0.0000 C   0  0  0  0  0  0  0  0  0  0  0  0
    0.7144   -1.8331    0.0000 C   0  0  0  0  0  0  0  0  0  0  0  0
   -0.7145   -1.8331    0.0000 C   0  0  0  0  0  0  0  0  0  0  0  0
   -0.7145   -1.0081    0.0000 C   0  0  0  0  0  0  0  0  0  0  0  0
    0.7144   -1.0081    0.0000 C   0  0  0  0  0  0  0  0  0  0  0  0
    0.0000   -2.2456    0.0000 C   0  0  0  0  0  0  0  0  0  0  0  0
    1.4289   -2.2456    0.0000 C   0  0  0  0  0  0  0  0  0  0  0  0
   -1.4290   -2.2456    0.0000 C   0  0  0  0  0  0  0  0  0  0  0  0
    1.4289    1.8793    0.0000 C   0  0  0  0  0  0  0  0  0  0  0  0
    0.0000    1.8793    0.0000 C   0  0  0  0  0  0  0  0  0  0  0  0
 12  1  1  1
  2 20  1  0
  3 20  1  0
  4 20  1  0
  5 21  1  0
  6 21  1  0
  7 21  1  0
  8 22  2  0
  9 13  1  0
 10 22  1  0
 11 23  3  0
 12  9  1  0
 12 14  1  0
 13 17  2  0
 13 18  1  0
 14 22  1  0
 14 23  1  0
 15 18  2  0
 15 19  1  0
 15 20  1  0
 16 17  1  0
 16 19  2  0
 16 21  1  0
M  END
>  <DRUGBANK_ID>  (1) 
DB06913

>  <COMMON_NAME>  (1) 
(3R)-3-[3,5-Bis(trifluoromethyl)anilino]-2-cyano-3-sulfanylpropanamide

$$$$
