T2D
     RDKit          2D

 14 15  0  0  0  0  0  0  0  0999 V2000
    0.1876   -0.1471    0.0000 C   0  0  0  0  0  0  0  0  0  0  0  0
    0.9722    0.1078    0.0000 C   0  0  0  0  0  0  0  0  0  0  0  0
    1.5853   -0.4442    0.0000 C   0  0  0  0  0  0  0  0  0  0  0  0
    1.4138   -1.2512    0.0000 C   0  0  0  0  0  0  0  0  0  0  0  0
    0.6292   -1.5061    0.0000 C   0  0  0  0  0  0  0  0  0  0  0  0
    0.0161   -0.9541    0.0000 C   0  0  0  0  0  0  0  0  0  0  0  0
   -0.7685   -1.2091    0.0000 N   0  0  0  0  0  0  0  0  0  0  0  0
   -1.0235   -1.9937    0.0000 S   0  0  0  0  0  0  0  0  0  0  0  0
   -1.8485   -1.9937    0.0000 N   0  0  0  0  0  0  0  0  0  0  0  0
   -2.1034   -1.2091    0.0000 C   0  0  0  0  0  0  0  0  0  0  0  0
   -1.4360   -0.7241    0.0000 C   0  0  0  0  0  0  0  0  0  0  0  0
   -2.8880   -0.9541    0.0000 O   0  0  0  0  0  0  0  0  0  0  0  0
   -0.2734   -2.3371    0.0000 O   0  0  0  0  0  0  0  0  0  0  0  0
   -0.9287   -2.8132    0.0000 O   0  0  0  0  0  0  0  0  0  0  0  0
  1  2  2  0
  1  6  1  0
  2  3  1  0
  3  4  2  0
  4  5  1  0
  5  6  2  0
  6  7  1  0
  7  8  1  0
  7 11  1  0
  8  9  1  0
  8 13  2  0
  8 14  2  0
  9 10  1  0
 10 11  1  0
 10 12  2  0
M  END
>  <DRUGBANK_ID>  (1) 
DB08593

>  <COMMON_NAME>  (1) 
1,2,5-THIADIAZOLIDIN-3-ONE-1,1-DIOXIDE

>  <UNII>  (1) 
L4SBH33TJR

$$$$
