3AS
     RDKit          2D

 26 29  0  0  0  0  0  0  0  0999 V2000
   -1.7553   -2.0406    0.0000 C   0  0  0  0  0  0  0  0  0  0  0  0
   -2.1453   -1.3136    0.0000 C   0  0  0  0  0  0  0  0  0  0  0  0
   -1.7106   -0.6123    0.0000 C   0  0  0  0  0  0  0  0  0  0  0  0
   -0.8860   -0.6381    0.0000 C   0  0  0  0  0  0  0  0  0  0  0  0
   -0.4514    0.0631    0.0000 O   0  0  0  0  0  0  0  0  0  0  0  0
    0.3732    0.0374    0.0000 C   0  0  0  0  0  0  0  0  0  0  0  0
    0.8078    0.7386    0.0000 C   0  0  0  0  0  0  0  0  0  0  0  0
    0.4178    1.4656    0.0000 C   0  0  0  0  0  0  0  0  0  0  0  0
    0.8524    2.1669    0.0000 C   0  0  0  0  0  0  0  0  0  0  0  0
    1.6770    2.1411    0.0000 C   0  0  0  0  0  0  0  0  0  0  0  0
    2.1116    2.8423    0.0000 O   0  0  0  0  0  0  0  0  0  0  0  0
    2.0670    1.4141    0.0000 C   0  0  0  0  0  0  0  0  0  0  0  0
    1.6324    0.7129    0.0000 C   0  0  0  0  0  0  0  0  0  0  0  0
    0.7632   -0.6896    0.0000 C   0  0  0  0  0  0  0  0  0  0  0  0
    0.3285   -1.3909    0.0000 C   0  0  0  0  0  0  0  0  0  0  0  0
   -0.4961   -1.3651    0.0000 C   0  0  0  0  0  0  0  0  0  0  0  0
   -0.9307   -2.0663    0.0000 C   0  0  0  0  0  0  0  0  0  0  0  0
    0.8612   -2.0209    0.0000 C   0  0  0  0  0  0  0  0  0  0  0  0
    1.6249   -1.7090    0.0000 C   0  0  0  0  0  0  0  0  0  0  0  0
    1.8553   -2.5012    0.0000 F   0  0  0  0  0  0  0  0  0  0  0  0
    2.4369   -1.5628    0.0000 F   0  0  0  0  0  0  0  0  0  0  0  0
    1.5644   -0.8863    0.0000 C   0  0  0  0  0  0  0  0  0  0  0  0
   -2.1006    0.1147    0.0000 C   0  0  0  0  0  0  0  0  0  0  0  0
   -1.6660    0.8159    0.0000 O   0  0  0  0  0  0  0  0  0  0  0  0
   -2.0560    1.5429    0.0000 C   0  0  0  0  0  0  0  0  0  0  0  0
   -2.1899   -2.7418    0.0000 O   0  0  0  0  0  0  0  0  0  0  0  0
  1  2  2  0
  2  3  1  0
  3 23  1  0
  4  3  2  0
  4  5  1  0
  6  5  1  0
  6  7  1  1
  7  8  2  0
  8  9  1  0
 10  9  2  0
 10 11  1  0
 12 10  1  0
 13  7  1  0
 13 12  2  0
 14 22  1  1
 14  6  1  0
 15 16  1  0
 15 14  1  0
 16  4  1  0
 17  1  1  0
 17 16  2  0
 18 19  1  0
 15 18  1  1
 19 20  1  0
 19 22  1  0
 21 19  1  0
 23 24  1  0
 24 25  1  0
 26  1  1  0
M  END
>  <DRUGBANK_ID>  (1) 
DB07036

>  <COMMON_NAME>  (1) 
(3aS,4R,9bR)-2,2-difluoro-4-(4-hydroxyphenyl)-6-(methoxymethyl)-1,2,3,3a,4,9b-hexahydrocyclopenta[c]chromen-8-ol

$$$$
