
     RDKit          2D

 27 29  0  0  0  0  0  0  0  0999 V2000
   -2.1614    0.7976    0.0000 C   0  0  0  0  0  0  0  0  0  0  0  0
   -2.8759    0.3851    0.0000 C   0  0  0  0  0  0  0  0  0  0  0  0
   -2.8759   -0.4398    0.0000 C   0  0  0  0  0  0  0  0  0  0  0  0
   -2.1614   -0.8523    0.0000 C   0  0  0  0  0  0  0  0  0  0  0  0
   -1.4469   -0.4398    0.0000 C   0  0  0  0  0  0  0  0  0  0  0  0
   -1.4469    0.3851    0.0000 C   0  0  0  0  0  0  0  0  0  0  0  0
   -3.5904    0.7976    0.0000 C   0  0  0  0  0  0  0  0  0  0  0  0
   -4.3049    0.3851    0.0000 N   0  0  0  0  0  0  0  0  0  0  0  0
   -3.5904    1.6226    0.0000 N   0  0  0  0  0  0  0  0  0  0  0  0
   -5.0193    0.7976    0.0000 O   0  0  0  0  0  0  0  0  0  0  0  0
   -5.7338    0.3851    0.0000 C   0  0  0  0  0  0  0  0  0  0  0  0
   -0.7325   -0.8523    0.0000 C   0  0  0  0  0  0  0  0  0  0  0  0
   -0.4368   -1.6225    0.0000 C   0  0  0  0  0  0  0  0  0  0  0  0
    0.3869   -1.5794    0.0000 C   0  0  0  0  0  0  0  0  0  0  0  0
    0.6005   -0.7825    0.0000 C   0  0  0  0  0  0  0  0  0  0  0  0
   -0.0913   -0.3333    0.0000 O   0  0  0  0  0  0  0  0  0  0  0  0
    1.3707   -0.4868    0.0000 C   0  0  0  0  0  0  0  0  0  0  0  0
    2.0118   -1.0060    0.0000 C   0  0  0  0  0  0  0  0  0  0  0  0
    2.7820   -0.7104    0.0000 C   0  0  0  0  0  0  0  0  0  0  0  0
    2.9111    0.1044    0.0000 C   0  0  0  0  0  0  0  0  0  0  0  0
    2.2699    0.6236    0.0000 C   0  0  0  0  0  0  0  0  0  0  0  0
    1.4997    0.3279    0.0000 C   0  0  0  0  0  0  0  0  0  0  0  0
    3.6813    0.4000    0.0000 C   0  0  0  0  0  0  0  0  0  0  0  0
    3.8103    1.2149    0.0000 N   0  0  0  0  0  0  0  0  0  0  0  0
    4.3224   -0.1191    0.0000 N   0  0  0  0  0  0  0  0  0  0  0  0
    5.0926    0.1765    0.0000 O   0  0  0  0  0  0  0  0  0  0  0  0
    5.7338   -0.3426    0.0000 C   0  0  0  0  0  0  0  0  0  0  0  0
  1  2  2  0
  1  6  1  0
  2  3  1  0
  2  7  1  0
  3  4  2  0
  4  5  1  0
  5  6  2  0
  5 12  1  0
  7  8  1  0
  7  9  2  0
  8 10  1  0
 10 11  1  0
 12 13  2  0
 12 16  1  0
 13 14  1  0
 14 15  2  0
 15 16  1  0
 15 17  1  0
 17 18  2  0
 17 22  1  0
 18 19  1  0
 19 20  2  0
 20 21  1  0
 20 23  1  0
 21 22  2  0
 23 24  2  0
 23 25  1  0
 25 26  1  0
 26 27  1  0
M  END
>  <DRUGBANK_ID>  (1) 
DB06532

>  <COMMON_NAME>  (1) 
Pafuramidine

>  <CAS_NUMBER>  (1) 
186953-56-0

>  <UNII>  (1) 
H1VG379J2X

>  <SYNONYMS>  (1) 
Pafuramidine

$$$$
