
     RDKit          2D

 22 24  0  0  0  0  0  0  0  0999 V2000
    1.4411   -0.1349    0.0000 C   0  0  0  0  0  0  0  0  0  0  0  0
    1.1974   -1.0142    0.0000 N   0  0  0  0  0  0  0  0  0  0  0  0
    0.0201   -0.1005    0.0000 C   0  0  0  0  0  0  0  0  0  0  0  0
    0.7432    0.2979    0.0000 N   0  0  0  0  0  0  0  0  0  0  0  0
   -1.4240   -0.8101    0.0000 C   0  0  0  0  0  0  0  0  0  0  0  0
   -1.3613    0.0079    0.0000 N   0  0  0  0  0  0  0  0  0  0  0  0
   -0.6155    0.3635    0.0000 C   0  0  0  0  0  0  0  0  0  0  0  0
   -0.7489   -1.2764    0.0000 N   0  0  0  0  0  0  0  0  0  0  0  0
    0.0000   -0.9223    0.0000 C   0  0  0  0  0  0  0  0  0  0  0  0
    0.6100   -2.2119    0.0000 C   0  0  0  0  0  0  0  0  0  0  0  0
   -0.1388   -2.5661    0.0000 C   0  0  0  0  0  0  0  0  0  0  0  0
   -0.8242   -2.0964    0.0000 C   0  0  0  0  0  0  0  0  0  0  0  0
    1.3532   -1.8664    0.0000 O   0  0  0  0  0  0  0  0  0  0  0  0
    0.9671   -2.9561    0.0000 O   0  0  0  0  0  0  0  0  0  0  0  0
    2.1660    0.2521    0.0000 N   0  0  0  0  0  0  0  0  0  0  0  0
   -2.1660   -1.1639    0.0000 N   0  0  0  0  0  0  0  0  0  0  0  0
   -2.0423    0.4737    0.0000 O   0  0  0  0  0  0  0  0  0  0  0  0
   -0.5429    1.1830    0.0000 C   0  0  0  0  0  0  0  0  0  0  0  0
   -1.2168    1.6589    0.0000 O   0  0  0  0  0  0  0  0  0  0  0  0
   -1.1403    2.4803    0.0000 C   0  0  0  0  0  0  0  0  0  0  0  0
   -1.8142    2.9561    0.0000 N   0  0  0  0  0  0  0  0  0  0  0  0
   -0.3898    2.8259    0.0000 O   0  0  0  0  0  0  0  0  0  0  0  0
  1 15  1  0
  1  2  1  0
  3  4  1  6
  4  1  2  0
  5  6  1  0
  5 16  2  0
  6  7  1  0
  6 17  1  0
  7  3  1  0
  7 18  1  1
  8  5  1  0
  8  9  1  0
  9 10  1  0
  9  3  1  0
  9  2  1  6
 10 11  1  0
 10 13  1  0
 10 14  1  0
 11 12  1  0
 12  8  1  0
 18 19  1  0
 19 20  1  0
 20 21  1  0
 20 22  2  0
M  END
>  <DRUGBANK_ID>  (1) 
DB12989

>  <COMMON_NAME>  (1) 
Neosaxitoxin

>  <CAS_NUMBER>  (1) 
64296-20-4

>  <UNII>  (1) 
6YRL8BWD9H

$$$$
