
     RDKit          2D

 21 24  0  0  1  0  0  0  0  0999 V2000
    2.0306    1.7357    0.0000 C   0  0  0  0  0  0  0  0  0  0  0  0
    4.5753   -0.8489    0.0000 C   0  0  0  0  0  0  0  0  0  0  0  0
    6.1708    1.0432    0.0000 C   0  0  0  0  0  0  0  0  0  0  0  0
    3.7632   -0.7037    0.0000 C   0  0  0  0  0  0  0  0  0  0  0  0
    5.3587    1.1884    0.0000 C   0  0  0  0  0  0  0  0  0  0  0  0
    3.7344    1.4788    0.0000 C   0  0  0  0  0  0  0  0  0  0  0  0
    2.9223    1.6240    0.0000 C   0  0  0  0  0  0  0  0  0  0  0  0
    5.9193   -0.3634    0.0000 C   0  0  0  0  0  0  0  0  0  0  0  0
    2.0195   -0.2889    0.0000 C   0  0  0  0  0  0  0  0  0  0  0  0
    5.1071   -0.2182    0.0000 C   0  0  0  0  0  0  0  0  0  0  0  0
    6.4511    0.2672    0.0000 C   0  0  0  0  0  0  0  0  0  0  0  0
    4.8268    0.5577    0.0000 C   0  0  0  0  0  0  0  0  0  0  0  0
    4.0147    0.7029    0.0000 C   0  0  0  0  0  0  0  0  0  0  0  0
    3.4829    0.0722    0.0000 C   0  0  0  0  0  0  0  0  0  0  0  0
    2.6708    0.2174    0.0000 C   0  0  0  0  0  0  0  0  0  0  0  0
    1.3366    0.1740    0.0000 C   0  0  0  0  0  0  0  0  0  0  0  0
    1.5659    0.9665    0.0000 C   0  0  0  0  0  0  0  0  0  0  0  0
    2.3905    0.9933    0.0000 C   0  0  0  0  0  0  0  0  0  0  0  0
    7.2632    0.1220    0.0000 O   0  0  0  0  0  0  0  0  0  0  0  0
    0.5607   -0.1062    0.0000 O   0  0  0  0  0  0  0  0  0  0  0  0
    1.0596    1.6178    0.0000 O   0  0  0  0  0  0  0  0  0  0  0  0
  4  2  1  0
  5  3  1  0
  7  6  1  0
 10  2  1  0
 10  8  2  0
 11  3  2  0
 11  8  1  0
 12  5  2  0
 12 10  1  0
 13  6  1  6
 13 12  1  0
 14  4  1  1
 14 13  1  0
 14 15  1  0
 15  9  1  6
 15 18  1  0
 16  9  1  0
 16 20  1  1
 17 16  1  0
 17 21  1  1
 18  1  1  6
 18  7  1  0
 18 17  1  0
 19 11  1  0
M  END
>  <DRUGBANK_ID>  (1) 
DB07702

>  <COMMON_NAME>  (1) 
17alpha-Estriol

>  <CAS_NUMBER>  (1) 
1228-72-4

>  <UNII>  (1) 
4G7IHY560Z

$$$$
