
     RDKit          2D

 28 31  0  0  0  0  0  0  0  0999 V2000
   -3.9731   -1.1251    0.0000 C   0  0  0  0  0  0  0  0  0  0  0  0
   -3.2586   -1.5377    0.0000 C   0  0  0  0  0  0  0  0  0  0  0  0
   -2.5425   -1.1246    0.0000 C   0  0  0  0  0  0  0  0  0  0  0  0
   -2.5423   -0.2973    0.0000 C   0  0  0  0  0  0  0  0  0  0  0  0
   -1.8326    0.1199    0.0000 C   0  0  0  0  0  0  0  0  0  0  0  0
   -4.5848    0.2504    0.0000 N   0  0  0  0  0  0  0  0  0  0  0  0
   -3.9719   -0.2981    0.0000 C   0  0  0  0  0  0  0  0  0  0  0  0
   -3.2605    0.1165    0.0000 C   0  0  0  0  0  0  0  0  0  0  0  0
   -3.4367    0.9211    0.0000 C   0  0  0  0  0  0  0  0  0  0  0  0
   -4.2562    1.0008    0.0000 N   0  0  0  0  0  0  0  0  0  0  0  0
   -1.8314    0.9468    0.0000 C   0  0  0  0  0  0  0  0  0  0  0  0
   -1.1183   -0.2925    0.0000 C   0  0  0  0  0  0  0  0  0  0  0  0
   -0.4022    0.1204    0.0000 C   0  0  0  0  0  0  0  0  0  0  0  0
   -0.4051    0.9504    0.0000 C   0  0  0  0  0  0  0  0  0  0  0  0
   -1.1201    1.3594    0.0000 C   0  0  0  0  0  0  0  0  0  0  0  0
    2.4446    0.9549    0.0000 C   0  0  0  0  0  0  0  0  0  0  0  0
    2.4398    0.1283    0.0000 C   0  0  0  0  0  0  0  0  0  0  0  0
    3.1521   -0.2872    0.0000 C   0  0  0  0  0  0  0  0  0  0  0  0
    3.8697    0.1224    0.0000 C   0  0  0  0  0  0  0  0  0  0  0  0
    3.8705    0.9522    0.0000 C   0  0  0  0  0  0  0  0  0  0  0  0
    3.1576    1.3642    0.0000 C   0  0  0  0  0  0  0  0  0  0  0  0
    0.3016    1.3580    0.0000 N   0  0  0  0  0  0  0  0  0  0  0  0
    1.0133    0.9504    0.0000 C   0  0  0  0  0  0  0  0  0  0  0  0
    1.0138    0.1221    0.0000 O   0  0  0  0  0  0  0  0  0  0  0  0
    1.7274   -0.2892    0.0000 F   0  0  0  0  0  0  0  0  0  0  0  0
    1.7266    1.3672    0.0000 N   0  0  0  0  0  0  0  0  0  0  0  0
   -2.8892    1.5377    0.0000 N   0  0  0  0  0  0  0  0  0  0  0  0
    4.5848    1.3641    0.0000 C   0  0  0  0  0  0  0  0  0  0  0  0
  1  2  2  0
  2  3  1  0
  3  4  2  0
  4  5  1  0
  5 12  1  0
  6  7  1  0
  7  1  1  0
  7  8  2  0
  8  4  1  0
  8  9  1  0
  9 10  2  0
  9 27  1  0
 10  6  1  0
 11  5  2  0
 12 13  2  0
 13 14  1  0
 14 15  2  0
 15 11  1  0
 16 17  2  0
 16 26  1  0
 17 18  1  0
 18 19  2  0
 19 20  1  0
 20 21  2  0
 20 28  1  0
 21 16  1  0
 22 14  1  0
 23 22  1  0
 23 24  2  0
 23 26  1  0
 25 17  1  0
M  END
>  <DRUGBANK_ID>  (1) 
DB06080

>  <COMMON_NAME>  (1) 
Linifanib

>  <CAS_NUMBER>  (1) 
796967-16-3

>  <UNII>  (1) 
CO93X137CW

>  <SYNONYMS>  (1) 
1-(4-(3-AMINO-1H-INDAZOL-4-YL)PHENYL)-3-(2-FLUORO-5-METHYLPHENYL)UREA; Linifanib; N-[4-(3-amino-1H-indazol-4-yl)phenyl]-N1-(2-fluoro-5-methylphenyl) urea; UREA, N-(4-(3-AMINO-1H-INDAZOL-4-YL)PHENYL)-N'-(2-FLUORO-5-METHYLPHENYL)-

$$$$
