P01
     RDKit          2D

 27 29  0  0  0  0  0  0  0  0999 V2000
   -2.9962   -1.8106    0.0000 Cl  0  0  0  0  0  0  0  0  0  0  0  0
   -2.2817   -2.2231    0.0000 C   0  0  0  0  0  0  0  0  0  0  0  0
   -1.5673   -1.8106    0.0000 C   0  0  0  0  0  0  0  0  0  0  0  0
   -0.8528   -2.2231    0.0000 C   0  0  0  0  0  0  0  0  0  0  0  0
   -0.8528   -3.0481    0.0000 C   0  0  0  0  0  0  0  0  0  0  0  0
   -1.5673   -3.4606    0.0000 C   0  0  0  0  0  0  0  0  0  0  0  0
   -2.2817   -3.0481    0.0000 C   0  0  0  0  0  0  0  0  0  0  0  0
   -0.1383   -1.8106    0.0000 N   0  0  0  0  0  0  0  0  0  0  0  0
   -0.1383   -0.9856    0.0000 C   0  0  0  0  0  0  0  0  0  0  0  0
   -0.8528   -0.5731    0.0000 C   0  0  0  0  0  0  0  0  0  0  0  0
   -1.6374   -0.8281    0.0000 N   0  0  0  0  0  0  0  0  0  0  0  0
   -0.8528    0.2519    0.0000 C   0  0  0  0  0  0  0  0  0  0  0  0
   -1.6374    0.5068    0.0000 N   0  0  0  0  0  0  0  0  0  0  0  0
   -1.8924    1.2914    0.0000 C   0  0  0  0  0  0  0  0  0  0  0  0
   -2.6993    1.4630    0.0000 C   0  0  0  0  0  0  0  0  0  0  0  0
   -1.3403    1.9045    0.0000 C   0  0  0  0  0  0  0  0  0  0  0  0
   -2.1223   -0.1606    0.0000 C   0  0  0  0  0  0  0  0  0  0  0  0
   -0.1383    0.6644    0.0000 N   0  0  0  0  0  0  0  0  0  0  0  0
    0.5762    0.2519    0.0000 C   0  0  0  0  0  0  0  0  0  0  0  0
    0.5762   -0.5731    0.0000 N   0  0  0  0  0  0  0  0  0  0  0  0
    1.2906    0.6644    0.0000 N   0  0  0  0  0  0  0  0  0  0  0  0
    1.2906    1.4894    0.0000 C   0  0  0  0  0  0  0  0  0  0  0  0
    2.0051    1.9019    0.0000 C   0  0  0  0  0  0  0  0  0  0  0  0
    2.0051    2.7269    0.0000 C   0  0  0  0  0  0  0  0  0  0  0  0
    2.7196    1.4894    0.0000 C   0  0  0  0  0  0  0  0  0  0  0  0
    0.5762    1.9019    0.0000 C   0  0  0  0  0  0  0  0  0  0  0  0
    0.5762    2.7269    0.0000 O   0  0  0  0  0  0  0  0  0  0  0  0
  1  2  1  0
  2  3  2  0
  2  7  1  0
  3  4  1  0
  4  5  2  0
  4  8  1  0
  5  6  1  0
  6  7  2  0
  8  9  1  0
  9 10  2  0
  9 20  1  0
 10 11  1  0
 10 12  1  0
 11 17  2  0
 12 13  1  0
 12 18  2  0
 13 14  1  0
 13 17  1  0
 14 15  1  0
 14 16  1  0
 18 19  1  0
 19 20  2  0
 19 21  1  0
 22 21  1  0
 22 23  1  0
 22 26  1  1
 23 24  1  0
 23 25  1  0
 26 27  1  0
M  END
>  <DRUGBANK_ID>  (1) 
DB04751

>  <COMMON_NAME>  (1) 
Purvalanol A

>  <CAS_NUMBER>  (1) 
212844-53-6

>  <UNII>  (1) 
YP483E75C4

>  <SYNONYMS>  (1) 
2-(1R-Isopropyl-2-hydroxyethylamino)-6-(3-chloroanilino)-9-isopropylpurine; Purv

$$$$
