
     RDKit          2D

 10  9  0  0  1  0  0  0  0  0999 V2000
   -1.4289    0.2062    0.0000 P   0  0  0  0  0  0  0  0  0  0  0  0
   -0.7145   -0.2062    0.0000 O   0  0  0  0  0  0  0  0  0  0  0  0
    0.7145   -0.2062    0.0000 C   0  0  0  0  0  0  0  0  0  0  0  0
    0.0000    0.2062    0.0000 C   0  0  0  0  0  0  0  0  0  0  0  0
   -2.1434   -0.2062    0.0000 O   0  0  0  0  0  0  0  0  0  0  0  0
    1.4289    0.2062    0.0000 C   0  0  0  0  0  0  0  0  0  0  0  0
    0.7145   -1.0312    0.0000 O   0  0  0  0  0  0  0  0  0  0  0  0
   -1.4289    1.0312    0.0000 O   0  0  0  0  0  0  0  0  0  0  0  0
    1.4289    1.0312    0.0000 O   0  0  0  0  0  0  0  0  0  0  0  0
   -1.4289   -0.6187    0.0000 O   0  0  0  0  0  0  0  0  0  0  0  0
  1 10  1  0
  2  1  1  0
  2  4  1  0
  3  7  1  6
  3  4  1  0
  3  6  1  0
  5  1  1  0
  6  9  2  0
  8  1  2  0
M  END
>  <DRUGBANK_ID>  (1) 
DB02263

>  <SECONDARY_ACCESSION_NUMBERS>  (1) 
EXPT01530

>  <COMMON_NAME>  (1) 
D-glyceraldehyde 3-phosphate

>  <CAS_NUMBER>  (1) 
591-57-1

>  <UNII>  (1) 
TD9ZNF8JPW

>  <SYNONYMS>  (1) 
(2R)-2-Hydroxy-3-(phosphonooxy)-propanal; D-Glyceraldehyde 3-phosphate; Glyceraldehyde-3-phosphate

$$$$
