
     RDKit          2D

 10 10  0  0  1  0  0  0  0  0999 V2000
   -1.8897   -0.2077    0.0000 O   0  0  0  0  0  0  0  0  0  0  0  0
   -1.2766    0.3443    0.0000 C   0  0  0  0  0  0  0  0  0  0  0  0
   -0.4920    0.0894    0.0000 C   0  0  0  0  0  0  0  0  0  0  0  0
    0.1754    0.5743    0.0000 O   0  0  0  0  0  0  0  0  0  0  0  0
    0.8429    0.0894    0.0000 C   0  0  0  0  0  0  0  0  0  0  0  0
    1.6275    0.3443    0.0000 O   0  0  0  0  0  0  0  0  0  0  0  0
    0.5879   -0.6952    0.0000 C   0  0  0  0  0  0  0  0  0  0  0  0
    1.0729   -1.3627    0.0000 O   0  0  0  0  0  0  0  0  0  0  0  0
   -0.2371   -0.6952    0.0000 C   0  0  0  0  0  0  0  0  0  0  0  0
   -0.7220   -1.3627    0.0000 O   0  0  0  0  0  0  0  0  0  0  0  0
  1  2  1  0
  3  2  1  6
  3  4  1  0
  3  9  1  0
  4  5  1  0
  5  6  1  1
  5  7  1  0
  7  8  1  6
  7  9  1  0
  9 10  1  1
M  END
>  <DRUGBANK_ID>  (1) 
DB03142

>  <SECONDARY_ACCESSION_NUMBERS>  (1) 
EXPT00554; DB02769

>  <COMMON_NAME>  (1) 
Alpha-L-Arabinose

>  <UNII>  (1) 
R0L7IU6KYJ

$$$$
