
     RDKit          2D

 11 10  0  0  0  0  0  0  0  0999 V2000
    0.0552    0.0552    0.0000 C   0  0  0  0  0  0  0  0  0  0  0  0
    0.0552    0.8802    0.0000 C   0  0  0  0  0  0  0  0  0  0  0  0
   -0.6592   -0.3572    0.0000 C   0  0  0  0  0  0  0  0  0  0  0  0
    1.4842    1.7052    0.0000 O   0  0  0  0  0  0  0  0  0  0  0  0
    0.3572    2.0072    0.0000 O   0  0  0  0  0  0  0  0  0  0  0  0
    1.1822    0.5782    0.0000 O   0  0  0  0  0  0  0  0  0  0  0  0
   -0.6592   -2.0072    0.0000 O   0  0  0  0  0  0  0  0  0  0  0  0
   -1.4842   -1.1822    0.0000 O   0  0  0  0  0  0  0  0  0  0  0  0
    0.1657   -1.1822    0.0000 O   0  0  0  0  0  0  0  0  0  0  0  0
    0.7697    1.2927    0.0000 S   0  0  0  0  0  0  0  0  0  0  0  0
   -0.6592   -1.1822    0.0000 S   0  0  0  0  0  0  0  0  0  0  0  0
  2  1  1  0
  3  1  1  0
 10  2  1  0
 10  4  1  0
 10  5  2  0
 10  6  2  0
 11  3  1  0
 11  7  1  0
 11  8  2  0
 11  9  2  0
M  END
>  <DRUGBANK_ID>  (1) 
DB06405

>  <COMMON_NAME>  (1) 
Eprodisate

>  <CAS_NUMBER>  (1) 
21668-77-9

>  <UNII>  (1) 
6QFP76V7S7

>  <SYNONYMS>  (1) 
1,3-propanedisulfonic acid; Eprodisate; Propane-1,3-disulfonate; Propane-1,3-disulfonic acid; Propane-1,3-disulphonate

$$$$
