MXX
     RDKit          2D

 17 18  0  0  0  0  0  0  0  0999 V2000
   -2.0507   -0.9809    0.0000 O   0  0  0  0  0  0  0  0  0  0  0  0
   -1.3362   -0.5684    0.0000 C   0  0  0  0  0  0  0  0  0  0  0  0
   -0.6217   -0.9809    0.0000 N   0  0  0  0  0  0  0  0  0  0  0  0
   -0.6217   -1.8059    0.0000 C   0  0  0  0  0  0  0  0  0  0  0  0
    0.0927   -0.5684    0.0000 C   0  0  0  0  0  0  0  0  0  0  0  0
    0.8072   -0.9809    0.0000 C   0  0  0  0  0  0  0  0  0  0  0  0
    0.8072   -1.8059    0.0000 O   0  0  0  0  0  0  0  0  0  0  0  0
    1.5217   -2.2184    0.0000 C   0  0  0  0  0  0  0  0  0  0  0  0
    1.5217   -0.5684    0.0000 C   0  0  0  0  0  0  0  0  0  0  0  0
    1.5217    0.2566    0.0000 C   0  0  0  0  0  0  0  0  0  0  0  0
    0.8072    0.6691    0.0000 C   0  0  0  0  0  0  0  0  0  0  0  0
    0.8072    1.4941    0.0000 O   0  0  0  0  0  0  0  0  0  0  0  0
    0.0927    1.9066    0.0000 C   0  0  0  0  0  0  0  0  0  0  0  0
    0.0927    0.2566    0.0000 C   0  0  0  0  0  0  0  0  0  0  0  0
   -0.6217    0.6691    0.0000 C   0  0  0  0  0  0  0  0  0  0  0  0
   -0.6217    1.4941    0.0000 C   0  0  0  0  0  0  0  0  0  0  0  0
   -1.3362    0.2566    0.0000 C   0  0  0  0  0  0  0  0  0  0  0  0
  1  2  2  0
  2 17  1  0
  3  2  1  0
  3  5  1  0
  4  3  1  0
  5 14  2  0
  6  5  1  0
  6  9  2  0
  7  6  1  0
  8  7  1  0
  9 10  1  0
 10 11  2  0
 11 12  1  0
 12 13  1  0
 14 11  1  0
 14 15  1  0
 15 16  1  0
 17 15  2  0
M  END
>  <DRUGBANK_ID>  (1) 
DB08228

>  <COMMON_NAME>  (1) 
5,8-dimethoxy-1,4-dimethylquinolin-2(1H)-one

$$$$
