
     RDKit          2D

 14 13  0  0  0  0  0  0  0  0999 V2000
    5.1414    1.3184    0.0000 C   0  0  0  0  0  0  0  0  0  0  0  0
    5.1414    2.1434    0.0000 N   0  0  0  0  0  0  0  0  0  0  0  0
    4.4270    2.5559    0.0000 C   0  0  0  0  0  0  0  0  0  0  0  0
    3.7125    2.1434    0.0000 C   0  0  0  0  0  0  0  0  0  0  0  0
    2.9980    2.5559    0.0000 O   0  0  0  0  0  0  0  0  0  0  0  0
    3.7125    1.3184    0.0000 N   0  0  0  0  0  0  0  0  0  0  0  0
    5.8559    2.5559    0.0000 C   0  0  0  0  0  0  0  0  0  0  0  0
    5.8559    3.3809    0.0000 O   0  0  0  0  0  0  0  0  0  0  0  0
    6.5704    2.1434    0.0000 N   0  0  0  0  0  0  0  0  0  0  0  0
    7.2849    2.5559    0.0000 C   0  0  0  0  0  0  0  0  0  0  0  0
    7.9993    2.1434    0.0000 C   0  0  0  0  0  0  0  0  0  0  0  0
    8.7138    2.5559    0.0000 Cl  0  0  0  0  0  0  0  0  0  0  0  0
    6.5704    1.3184    0.0000 N   0  0  0  0  0  0  0  0  0  0  0  0
    7.2849    0.9059    0.0000 O   0  0  0  0  0  0  0  0  0  0  0  0
  1  2  1  0
  2  3  1  0
  2  7  1  0
  3  4  1  0
  4  5  2  0
  4  6  1  0
  7  8  2  0
  7  9  1  0
  9 10  1  0
  9 13  1  0
 10 11  1  0
 11 12  1  0
 13 14  2  0
M  END
>  <DRUGBANK_ID>  (1) 
DB11688

>  <COMMON_NAME>  (1) 
2-chloroethyl-3-sarcosinamide-1-nitrosourea

>  <CAS_NUMBER>  (1) 
81965-43-7

>  <UNII>  (1) 
BHB013S3MO

>  <SYNONYMS>  (1) 
2-chloroethyl-3-sarcosinamide-1-nitrosourea; ACETAMIDE, 2-((((2-CHLOROETHYL)NITROSOAMINO)CARBONYL)METHYLAMINO)-; SarCNU; SARCOSINEAMIDE CHLOROETHYLNITROSOUREA; Sarmustine

$$$$
