2BL
     RDKit          2D

 21 21  0  0  0  0  0  0  0  0999 V2000
    1.6136   -1.6209    0.0000 C   0  0  0  0  0  0  0  0  0  0  0  0
    1.6136   -0.7959    0.0000 C   0  0  0  0  0  0  0  0  0  0  0  0
    0.8991   -0.3834    0.0000 C   0  0  0  0  0  0  0  0  0  0  0  0
    0.8991    0.4416    0.0000 C   0  0  0  0  0  0  0  0  0  0  0  0
    2.3281   -0.3834    0.0000 C   0  0  0  0  0  0  0  0  0  0  0  0
    3.0425   -0.7959    0.0000 C   0  0  0  0  0  0  0  0  0  0  0  0
   -1.2443    0.0291    0.0000 C   0  0  0  0  0  0  0  0  0  0  0  0
   -1.9588   -0.3834    0.0000 C   0  0  0  0  0  0  0  0  0  0  0  0
   -1.2443    0.8541    0.0000 C   0  0  0  0  0  0  0  0  0  0  0  0
   -2.6732    0.0291    0.0000 C   0  0  0  0  0  0  0  0  0  0  0  0
   -1.9588    1.2666    0.0000 C   0  0  0  0  0  0  0  0  0  0  0  0
   -2.6732    0.8541    0.0000 C   0  0  0  0  0  0  0  0  0  0  0  0
   -3.3877    1.2666    0.0000 C   0  0  0  0  0  0  0  0  0  0  0  0
    0.1846    0.8541    0.0000 O   0  0  0  0  0  0  0  0  0  0  0  0
    1.6136    0.8541    0.0000 O   0  0  0  0  0  0  0  0  0  0  0  0
   -0.1173    0.3311    0.0000 O   0  0  0  0  0  0  0  0  0  0  0  0
   -0.9423   -1.0978    0.0000 O   0  0  0  0  0  0  0  0  0  0  0  0
   -0.5298   -0.3834    0.0000 S   0  0  0  0  0  0  0  0  0  0  0  0
    0.1846   -0.7959    0.0000 N   0  0  0  0  0  0  0  0  0  0  0  0
    2.3281   -2.0334    0.0000 O   0  0  0  0  0  0  0  0  0  0  0  0
    0.8991   -2.0334    0.0000 O   0  0  0  0  0  0  0  0  0  0  0  0
  1  2  1  0
  1 20  2  0
  1 21  1  0
  2  3  1  0
  2  5  1  1
  3  4  1  0
  3 19  1  6
  4 14  2  0
  4 15  1  0
  5  6  1  0
  7  8  2  0
  7  9  1  0
  7 18  1  0
  8 10  1  0
  9 11  2  0
 10 12  2  0
 11 12  1  0
 12 13  1  0
 16 18  2  0
 17 18  2  0
 18 19  1  0
M  END
>  <DRUGBANK_ID>  (1) 
DB06951

>  <COMMON_NAME>  (1) 
(3R)-3-ethyl-N-[(4-methylphenyl)sulfonyl]-L-aspartic acid

$$$$
