HQL
     RDKit          2D

 28 31  0  0  0  0  0  0  0  0999 V2000
   -3.1559    1.3594    0.0000 C   0  0  0  0  0  0  0  0  0  0  0  0
   -2.4414    1.7719    0.0000 C   0  0  0  0  0  0  0  0  0  0  0  0
   -1.7269    1.3594    0.0000 C   0  0  0  0  0  0  0  0  0  0  0  0
   -1.7269    0.5344    0.0000 C   0  0  0  0  0  0  0  0  0  0  0  0
   -1.0125    0.1219    0.0000 C   0  0  0  0  0  0  0  0  0  0  0  0
   -0.2980    0.5344    0.0000 O   0  0  0  0  0  0  0  0  0  0  0  0
    0.4165    0.1219    0.0000 C   0  0  0  0  0  0  0  0  0  0  0  0
    1.1310    0.5344    0.0000 C   0  0  0  0  0  0  0  0  0  0  0  0
    1.8454    0.1219    0.0000 C   0  0  0  0  0  0  0  0  0  0  0  0
    1.8454   -0.7031    0.0000 N   0  0  0  0  0  0  0  0  0  0  0  0
    2.5599   -1.1156    0.0000 C   0  0  0  0  0  0  0  0  0  0  0  0
    2.5599   -1.9406    0.0000 C   0  0  0  0  0  0  0  0  0  0  0  0
    3.2744   -2.3531    0.0000 C   0  0  0  0  0  0  0  0  0  0  0  0
    3.2744   -3.1781    0.0000 C   0  0  0  0  0  0  0  0  0  0  0  0
    3.9418   -3.6630    0.0000 N   0  0  0  0  0  0  0  0  0  0  0  0
    3.6869   -4.4476    0.0000 N   0  0  0  0  0  0  0  0  0  0  0  0
    2.8619   -4.4476    0.0000 N   0  0  0  0  0  0  0  0  0  0  0  0
    2.6069   -3.6630    0.0000 N   0  0  0  0  0  0  0  0  0  0  0  0
    1.1310   -1.1156    0.0000 C   0  0  0  0  0  0  0  0  0  0  0  0
    0.4165   -0.7031    0.0000 C   0  0  0  0  0  0  0  0  0  0  0  0
   -1.0125   -0.7031    0.0000 C   0  0  0  0  0  0  0  0  0  0  0  0
   -0.2980   -1.1156    0.0000 C   0  0  0  0  0  0  0  0  0  0  0  0
   -0.2980   -1.9406    0.0000 C   0  0  0  0  0  0  0  0  0  0  0  0
   -1.0125   -2.3531    0.0000 C   0  0  0  0  0  0  0  0  0  0  0  0
   -1.7269   -1.9406    0.0000 C   0  0  0  0  0  0  0  0  0  0  0  0
   -1.7269   -1.1156    0.0000 C   0  0  0  0  0  0  0  0  0  0  0  0
   -2.4414    0.1219    0.0000 C   0  0  0  0  0  0  0  0  0  0  0  0
   -3.1559    0.5344    0.0000 C   0  0  0  0  0  0  0  0  0  0  0  0
  1  2  2  0
  1 28  1  0
  2  3  1  0
  3  4  2  0
  4  5  1  0
  4 27  1  0
  5  6  1  0
  5 21  1  0
  6  7  1  0
  7  8  1  0
  7 20  1  0
  8  9  1  0
  9 10  1  0
 10 11  1  0
 10 19  1  0
 11 12  1  0
 12 13  1  0
 13 14  1  0
 14 15  1  0
 14 18  2  0
 15 16  1  0
 16 17  2  0
 17 18  1  0
 19 20  1  0
 21 22  2  0
 21 26  1  0
 22 23  1  0
 23 24  2  0
 24 25  1  0
 25 26  2  0
 27 28  2  0
M  END
>  <DRUGBANK_ID>  (1) 
DB07917

>  <COMMON_NAME>  (1) 
4-(BENZHYDRYLOXY)-1-[3-(1H-TETRAAZOL-5-YL)PROPYL]PIPERIDINE

$$$$
