
     RDKit          2D

  6  5  0  0  1  0  0  0  0  0999 V2000
    0.8250    1.4289    0.0000 C   0  0  0  0  0  0  0  0  0  0  0  0
    1.2375    0.7145    0.0000 C   0  0  0  0  0  0  0  0  0  0  0  0
    2.0625    0.7145    0.0000 O   0  0  0  0  0  0  0  0  0  0  0  0
    0.8250    0.0000    0.0000 C   0  0  0  0  0  0  0  0  0  0  0  0
    1.2375   -0.7145    0.0000 C   0  0  0  0  0  0  0  0  0  0  0  0
    0.0000    0.0000    0.0000 O   0  0  0  0  0  0  0  0  0  0  0  0
  2  1  1  1
  2  3  1  0
  2  4  1  0
  4  5  1  6
  4  6  1  0
M  END
>  <DRUGBANK_ID>  (1) 
DB02418

>  <SECONDARY_ACCESSION_NUMBERS>  (1) 
EXPT00773

>  <COMMON_NAME>  (1) 
(R,R)-2,3-Butanediol

>  <CAS_NUMBER>  (1) 
24347-58-8

>  <UNII>  (1) 
F5IA8X9O8M

$$$$
