
     RDKit          2D

 37 41  0  0  1  0  0  0  0  0999 V2000
    0.2736   -0.0837    0.0000 C   0  0  0  0  0  0  0  0  0  0  0  0
   -0.5475    0.0855    0.0000 C   0  0  0  0  0  0  0  0  0  0  0  0
   -1.4273   -1.0545    0.0000 C   0  0  0  0  0  0  0  0  0  0  0  0
   -2.1345   -1.4794    0.0000 C   0  0  0  0  0  0  0  0  0  0  0  0
   -4.8475   -1.1142    0.0000 C   0  0  0  0  0  0  0  0  0  0  0  0
   -4.8619   -0.2893    0.0000 C   0  0  0  0  0  0  0  0  0  0  0  0
    2.9861    0.8159    0.0000 C   0  0  0  0  0  0  0  0  0  0  0  0
    2.6976   -0.5835    0.0000 C   0  0  0  0  0  0  0  0  0  0  0  0
    0.8219    0.5326    0.0000 C   0  0  0  0  0  0  0  0  0  0  0  0
    2.1781    0.9825    0.0000 C   0  0  0  0  0  0  0  0  0  0  0  0
    1.8896   -0.4169    0.0000 C   0  0  0  0  0  0  0  0  0  0  0  0
   -2.1592   -0.0629    0.0000 C   0  0  0  0  0  0  0  0  0  0  0  0
   -3.4291   -1.6729    0.0000 C   0  0  0  0  0  0  0  0  0  0  0  0
   -3.4639    0.3185    0.0000 C   0  0  0  0  0  0  0  0  0  0  0  0
   -3.5493   -0.0114    0.0000 C   0  0  0  0  0  0  0  0  0  0  0  0
   -2.4603    0.7155    0.0000 C   0  0  0  0  0  0  0  0  0  0  0  0
   -1.4417   -0.2296    0.0000 C   0  0  0  0  0  0  0  0  0  0  0  0
   -3.0894   -1.0835    0.0000 C   0  0  0  0  0  0  0  0  0  0  0  0
   -3.1037   -0.2586    0.0000 C   0  0  0  0  0  0  0  0  0  0  0  0
    3.2459    0.0328    0.0000 C   0  0  0  0  0  0  0  0  0  0  0  0
   -4.2540   -1.6873    0.0000 C   0  0  0  0  0  0  0  0  0  0  0  0
   -4.2888    0.3041    0.0000 C   0  0  0  0  0  0  0  0  0  0  0  0
   -4.0225   -0.6872    0.0000 C   0  0  0  0  0  0  0  0  0  0  0  0
   -2.5438    1.6333    0.0000 C   0  0  0  0  0  0  0  0  0  0  0  0
    4.0539   -0.1337    0.0000 C   0  0  0  0  0  0  0  0  0  0  0  0
   -2.6186    2.4549    0.0000 F   0  0  0  0  0  0  0  0  0  0  0  0
   -3.3654    1.5585    0.0000 F   0  0  0  0  0  0  0  0  0  0  0  0
   -1.7222    1.7080    0.0000 F   0  0  0  0  0  0  0  0  0  0  0  0
    4.8619   -0.3003    0.0000 F   0  0  0  0  0  0  0  0  0  0  0  0
    3.8872   -0.9417    0.0000 F   0  0  0  0  0  0  0  0  0  0  0  0
    4.2205    0.6742    0.0000 F   0  0  0  0  0  0  0  0  0  0  0  0
   -3.5260   -1.3461    0.0000 N   0  0  0  0  0  0  0  0  0  0  0  0
    1.6299    0.3660    0.0000 N   0  0  0  0  0  0  0  0  0  0  0  0
   -2.7603   -0.2526    0.0000 N   0  0  0  0  0  0  0  0  0  0  0  0
   -2.6641   -2.0301    0.0000 O   0  0  0  0  0  0  0  0  0  0  0  0
   -1.9507   -0.9450    0.0000 O   0  0  0  0  0  0  0  0  0  0  0  0
   -2.7459   -1.0775    0.0000 S   0  0  0  0  0  0  0  0  0  0  0  0
  2  1  2  0
  4  3  2  0
  6  5  1  0
  9  1  1  0
 10  7  1  0
 11  8  1  0
 17  2  1  0
 17  3  1  0
 17 12  2  0
 18  4  1  0
 18 13  1  0
 19 12  1  0
 19 14  1  0
 19 18  2  0
 20  7  1  0
 20  8  1  0
 21  5  1  6
 21 13  1  0
 22  6  1  6
 22 14  1  0
 23 15  1  1
 23 21  1  0
 23 22  1  0
 23 32  1  0
 24 16  1  0
 25 20  1  0
 26 24  1  0
 27 24  1  0
 28 24  1  0
 29 25  1  0
 30 25  1  0
 31 25  1  0
 33  9  1  0
 33 10  1  0
 33 11  1  0
 34 15  1  0
 34 16  1  0
 37 32  1  0
 37 34  1  0
 37 35  2  0
 37 36  2  0
M  END
>  <DRUGBANK_ID>  (1) 
DB17015

>  <COMMON_NAME>  (1) 
MRK-003

>  <CAS_NUMBER>  (1) 
623165-93-5

>  <UNII>  (1) 
DJ2AZE88DE

>  <SYNONYMS>  (1) 
(1'R,4R)-2-(2,2,2-trifluoroethyl)-5'-[(E)-3-[4-(trifluoromethyl)piperidin-1-yl]prop-1-enyl]spiro[1,2,5-thiadiazolidine-4,13'-tricyclo[8.2.1.03,8]trideca-3(8),4,6-triene] 1,1-dioxide

$$$$
