
     RDKit          2D

 22 25  0  0  0  0  0  0  0  0999 V2000
   -1.6414    1.7912    0.0000 C   0  0  0  0  0  0  0  0  0  0  0  0
   -3.0201    1.4462    0.0000 C   0  0  0  0  0  0  0  0  0  0  0  0
   -0.4537   -0.9552    0.0000 C   0  0  0  0  0  0  0  0  0  0  0  0
    0.3103   -1.2661    0.0000 C   0  0  0  0  0  0  0  0  0  0  0  0
    1.5002    0.5638    0.0000 C   0  0  0  0  0  0  0  0  0  0  0  0
    2.2643    0.2528    0.0000 C   0  0  0  0  0  0  0  0  0  0  0  0
   -0.0281    1.1856    0.0000 C   0  0  0  0  0  0  0  0  0  0  0  0
   -2.0732   -0.1869    0.0000 C   0  0  0  0  0  0  0  0  0  0  0  0
   -0.7923    1.4965    0.0000 C   0  0  0  0  0  0  0  0  0  0  0  0
   -2.6449    0.4079    0.0000 C   0  0  0  0  0  0  0  0  0  0  0  0
    0.8488    0.0573    0.0000 C   0  0  0  0  0  0  0  0  0  0  0  0
    0.0846    0.3684    0.0000 C   0  0  0  0  0  0  0  0  0  0  0  0
   -0.5666   -0.1380    0.0000 C   0  0  0  0  0  0  0  0  0  0  0  0
    0.9616   -0.7597    0.0000 C   0  0  0  0  0  0  0  0  0  0  0  0
   -1.3309    0.1729    0.0000 C   0  0  0  0  0  0  0  0  0  0  0  0
    2.3772   -0.5643    0.0000 C   0  0  0  0  0  0  0  0  0  0  0  0
    1.7259   -1.0706    0.0000 C   0  0  0  0  0  0  0  0  0  0  0  0
   -1.4438    0.9901    0.0000 C   0  0  0  0  0  0  0  0  0  0  0  0
   -2.2558    1.1353    0.0000 C   0  0  0  0  0  0  0  0  0  0  0  0
    3.1415   -0.8751    0.0000 O   0  0  0  0  0  0  0  0  0  0  0  0
    1.8388   -1.8880    0.0000 O   0  0  0  0  0  0  0  0  0  0  0  0
   -2.0266    1.9279    0.0000 O   0  0  0  0  0  0  0  0  0  0  0  0
  4  3  1  0
  6  5  1  0
  9  7  1  0
 10  8  1  0
 11  5  1  1
 12  7  1  6
 12 11  1  0
 13  3  1  1
 13 12  1  0
 14  4  1  0
 14 11  1  0
 15  8  1  6
 15 13  1  0
 16  6  1  0
 17 14  2  0
 17 16  1  0
 18  1  1  6
 18  9  1  0
 18 15  1  0
 19  2  1  1
 19 10  1  0
 19 18  1  0
 19 22  1  0
 20 16  2  0
 21 17  1  0
M  END
>  <DRUGBANK_ID>  (1) 
DB01540

>  <COMMON_NAME>  (1) 
17alpha-methyl-4-hydroxynandrolone

>  <CAS_NUMBER>  (1) 
2747-16-2

>  <UNII>  (1) 
AL9HUA7C4C

>  <SYNONYMS>  (1) 
17Î±-Methyl-4-hydroxynandrolone; 4-Hydroxy-19-normethyltestosterone

$$$$
