3UN
     RDKit          2D

 33 33  0  0  0  0  0  0  0  0999 V2000
   -1.2359   -3.0852    0.0000 N   0  0  0  0  0  0  0  0  0  0  0  0
   -0.6235    1.1577    0.0000 O   0  0  0  0  0  0  0  0  0  0  0  0
    0.1930    1.0398    0.0000 C   0  0  0  0  0  0  0  0  0  0  0  0
    0.7033    1.6881    0.0000 O   0  0  0  0  0  0  0  0  0  0  0  0
    0.3971    2.4541    0.0000 C   0  0  0  0  0  0  0  0  0  0  0  0
    0.9075    3.1023    0.0000 C   0  0  0  0  0  0  0  0  0  0  0  0
    0.4992    0.2738    0.0000 C   0  0  0  0  0  0  0  0  0  0  0  0
   -0.2669   -0.0324    0.0000 C   0  0  0  0  0  0  0  0  0  0  0  0
   -0.9151    0.4779    0.0000 C   0  0  0  0  0  0  0  0  0  0  0  0
   -1.6812    0.1717    0.0000 N   0  0  0  0  0  0  0  0  0  0  0  0
   -2.3294    0.6820    0.0000 C   0  0  0  0  0  0  0  0  0  0  0  0
   -2.2115    1.4986    0.0000 O   0  0  0  0  0  0  0  0  0  0  0  0
   -3.0954    0.3758    0.0000 O   0  0  0  0  0  0  0  0  0  0  0  0
   -3.7437    0.8862    0.0000 C   0  0  0  0  0  0  0  0  0  0  0  0
   -4.3919    1.3965    0.0000 C   0  0  0  0  0  0  0  0  0  0  0  0
   -4.2540    0.2380    0.0000 C   0  0  0  0  0  0  0  0  0  0  0  0
   -3.2333    1.5344    0.0000 C   0  0  0  0  0  0  0  0  0  0  0  0
    1.2653    0.5800    0.0000 C   0  0  0  0  0  0  0  0  0  0  0  0
    1.9135    0.0696    0.0000 O   0  0  0  0  0  0  0  0  0  0  0  0
    2.6796    0.3758    0.0000 C   0  0  0  0  0  0  0  0  0  0  0  0
    3.3278   -0.1345    0.0000 C   0  0  0  0  0  0  0  0  0  0  0  0
    1.3831    1.3965    0.0000 O   0  0  0  0  0  0  0  0  0  0  0  0
    0.8054   -0.4923    0.0000 C   0  0  0  0  0  0  0  0  0  0  0  0
    0.2951   -1.1405    0.0000 C   0  0  0  0  0  0  0  0  0  0  0  0
    0.6013   -1.9066    0.0000 C   0  0  0  0  0  0  0  0  0  0  0  0
    0.0909   -2.5548    0.0000 C   0  0  0  0  0  0  0  0  0  0  0  0
   -0.5215   -1.0227    0.0000 C   0  0  0  0  0  0  0  0  0  0  0  0
   -1.0318   -1.6709    0.0000 C   0  0  0  0  0  0  0  0  0  0  0  0
   -0.7256   -2.4369    0.0000 C   0  0  0  0  0  0  0  0  0  0  0  0
   -0.9297   -3.8512    0.0000 S   0  0  0  0  0  0  0  0  0  0  0  0
   -0.6235   -4.6173    0.0000 O   0  0  0  0  0  0  0  0  0  0  0  0
   -1.6958   -4.1574    0.0000 O   0  0  0  0  0  0  0  0  0  0  0  0
   -0.1637   -3.5450    0.0000 O   0  0  0  0  0  0  0  0  0  0  0  0
  1 29  1  0
  1 30  1  0
  2  3  2  0
  3  4  1  0
  3  7  1  0
  4  5  1  0
  5  6  1  0
  7  8  1  0
  7 18  1  0
  7 23  1  0
  8  9  1  0
  9 10  1  0
 10 11  1  0
 11 12  2  0
 11 13  1  0
 13 14  1  0
 14 15  1  0
 14 16  1  0
 14 17  1  0
 18 19  1  0
 18 22  2  0
 19 20  1  0
 20 21  1  0
 23 24  1  0
 24 25  2  0
 24 27  1  0
 25 26  1  0
 26 29  2  0
 27 28  2  0
 28 29  1  0
 30 31  2  0
 30 32  2  0
 30 33  1  0
M  END
>  <DRUGBANK_ID>  (1) 
DB07068

>  <COMMON_NAME>  (1) 
(4-{4-[(TERT-BUTOXYCARBONYL)AMINO]-2,2-BIS(ETHOXYCARBONYL)BUTYL}PHENYL)SULFAMIC ACID

$$$$
