AI3
     RDKit          2D

 24 28  0  0  0  0  0  0  0  0999 V2000
    1.1546    0.5714    0.0000 C   0  0  0  0  0  0  0  0  0  0  0  0
    0.6934   -0.1127    0.0000 C   0  0  0  0  0  0  0  0  0  0  0  0
    1.0552   -0.8541    0.0000 C   0  0  0  0  0  0  0  0  0  0  0  0
    1.8782   -0.9115    0.0000 C   0  0  0  0  0  0  0  0  0  0  0  0
    2.3394   -0.2274    0.0000 C   0  0  0  0  0  0  0  0  0  0  0  0
    1.9776    0.5140    0.0000 C   0  0  0  0  0  0  0  0  0  0  0  0
    0.5941   -1.5382    0.0000 C   0  0  0  0  0  0  0  0  0  0  0  0
   -0.2289   -1.4808    0.0000 N   0  0  0  0  0  0  0  0  0  0  0  0
   -0.5908   -0.7394    0.0000 C   0  0  0  0  0  0  0  0  0  0  0  0
   -0.1296   -0.0553    0.0000 C   0  0  0  0  0  0  0  0  0  0  0  0
   -0.6377    0.5947    0.0000 C   0  0  0  0  0  0  0  0  0  0  0  0
   -1.4128    0.3123    0.0000 C   0  0  0  0  0  0  0  0  0  0  0  0
   -1.3839   -0.5121    0.0000 C   0  0  0  0  0  0  0  0  0  0  0  0
   -2.0834   -0.9495    0.0000 C   0  0  0  0  0  0  0  0  0  0  0  0
   -2.8119   -0.5623    0.0000 C   0  0  0  0  0  0  0  0  0  0  0  0
   -2.8409    0.2622    0.0000 C   0  0  0  0  0  0  0  0  0  0  0  0
   -2.1414    0.6995    0.0000 C   0  0  0  0  0  0  0  0  0  0  0  0
   -3.6340    0.4894    0.0000 O   0  0  0  0  0  0  0  0  0  0  0  0
   -4.0952   -0.1947    0.0000 C   0  0  0  0  0  0  0  0  0  0  0  0
   -3.5871   -0.8447    0.0000 O   0  0  0  0  0  0  0  0  0  0  0  0
    2.4388    1.1981    0.0000 O   0  0  0  0  0  0  0  0  0  0  0  0
    3.2618    1.1407    0.0000 C   0  0  0  0  0  0  0  0  0  0  0  0
    3.1624   -0.2848    0.0000 O   0  0  0  0  0  0  0  0  0  0  0  0
    3.6236    0.3993    0.0000 C   0  0  0  0  0  0  0  0  0  0  0  0
  1  2  2  0
  1  6  1  0
  2  3  1  0
  2 10  1  0
  3  4  2  0
  3  7  1  0
  4  5  1  0
  5  6  2  0
  5 23  1  0
  6 21  1  0
  7  8  2  0
  8  9  1  0
  9 10  2  0
  9 13  1  0
 10 11  1  0
 11 12  1  0
 12 13  2  0
 12 17  1  0
 13 14  1  0
 14 15  2  0
 15 16  1  0
 15 20  1  0
 16 17  2  0
 16 18  1  0
 18 19  1  0
 19 20  1  0
 21 22  1  0
 23 24  1  0
M  CHG  1   8   1
M  END
>  <DRUGBANK_ID>  (1) 
DB07354

>  <COMMON_NAME>  (1) 
2,3-DIMETHOXY-12H-[1,3]DIOXOLO[5,6]INDENO[1,2-C]ISOQUINOLIN-6-IUM

$$$$
