
     RDKit          2D

 16 16  0  0  0  0  0  0  0  0999 V2000
    2.7283   -0.0897    0.0000 O   0  0  0  0  0  0  0  0  0  0  0  0
    2.0738    0.4125    0.0000 V   0  0  0  0  0  5  0  0  0  0  0  0
    2.7283    0.9147    0.0000 O   0  0  0  0  0  0  0  0  0  0  0  0
    1.7581   -0.3497    0.0000 O   0  0  0  0  0  0  0  0  0  0  0  0
    0.9959   -0.6654    0.0000 V   0  0  0  0  0  5  0  0  0  0  0  0
    1.4981   -1.3199    0.0000 O   0  0  0  0  0  0  0  0  0  0  0  0
    0.4936   -1.3199    0.0000 O   0  0  0  0  0  0  0  0  0  0  0  0
    0.2337   -0.3497    0.0000 O   0  0  0  0  0  0  0  0  0  0  0  0
   -0.0821    0.4125    0.0000 V   0  0  0  0  0  5  0  0  0  0  0  0
   -0.7366   -0.0897    0.0000 O   0  0  0  0  0  0  0  0  0  0  0  0
   -0.7366    0.9147    0.0000 O   0  0  0  0  0  0  0  0  0  0  0  0
    0.2337    1.1747    0.0000 O   0  0  0  0  0  0  0  0  0  0  0  0
    0.9959    1.4904    0.0000 V   0  0  0  0  0  5  0  0  0  0  0  0
    0.4936    2.1449    0.0000 O   0  0  0  0  0  0  0  0  0  0  0  0
    1.4981    2.1449    0.0000 O   0  0  0  0  0  0  0  0  0  0  0  0
    1.7581    1.1747    0.0000 O   0  0  0  0  0  0  0  0  0  0  0  0
  1  2  1  0
  2  3  2  0
  2  4  1  0
  2 16  1  0
  4  5  1  0
  5  6  1  0
  5  7  2  0
  5  8  1  0
  8  9  1  0
  9 10  1  0
  9 11  2  0
  9 12  1  0
 12 13  1  0
 13 14  1  0
 13 15  2  0
 13 16  1  0
M  CHG  4   1  -1   6  -1  10  -1  14  -1
M  END
>  <DRUGBANK_ID>  (1) 
DB02147

>  <SECONDARY_ACCESSION_NUMBERS>  (1) 
EXPT03213

>  <COMMON_NAME>  (1) 
Cyclo-Tetrametavanadate

$$$$
