S17
     RDKit          2D

 26 26  0  0  0  0  0  0  0  0999 V2000
   -6.2350   -4.7666    0.0000 C   0  0  0  0  0  0  0  0  0  0  0  0
   -7.0145   -5.0367    0.0000 C   0  0  0  0  0  0  0  0  0  0  0  0
   -7.6382   -4.4966    0.0000 C   0  0  0  0  0  0  0  0  0  0  0  0
   -8.4177   -4.7666    0.0000 Br  0  0  0  0  0  0  0  0  0  0  0  0
   -7.4822   -3.6864    0.0000 C   0  0  0  0  0  0  0  0  0  0  0  0
   -6.7027   -3.4164    0.0000 C   0  0  0  0  0  0  0  0  0  0  0  0
   -6.0791   -3.9565    0.0000 C   0  0  0  0  0  0  0  0  0  0  0  0
   -5.2995   -3.6864    0.0000 C   0  0  0  0  0  0  0  0  0  0  0  0
   -4.6759   -4.2265    0.0000 C   0  0  0  0  0  0  0  0  0  0  0  0
   -4.8318   -5.0367    0.0000 C   0  0  0  0  0  0  0  0  0  0  0  0
   -5.6113   -5.3067    0.0000 O   0  0  0  0  0  0  0  0  0  0  0  0
   -4.2081   -5.5767    0.0000 O   0  0  0  0  0  0  0  0  0  0  0  0
   -4.3640   -6.3869    0.0000 C   0  0  0  0  0  0  0  0  0  0  0  0
   -3.8963   -3.9565    0.0000 N   0  0  0  0  0  0  0  0  0  0  0  0
   -3.2727   -4.4966    0.0000 C   0  0  0  0  0  0  0  0  0  0  0  0
   -3.4286   -5.3067    0.0000 O   0  0  0  0  0  0  0  0  0  0  0  0
   -2.4931   -4.2265    0.0000 C   0  0  0  0  0  0  0  0  0  0  0  0
   -1.8695   -4.7666    0.0000 C   0  0  0  0  0  0  0  0  0  0  0  0
   -1.0899   -4.4966    0.0000 C   0  0  0  0  0  0  0  0  0  0  0  0
   -0.4663   -5.0367    0.0000 C   0  0  0  0  0  0  0  0  0  0  0  0
    0.3133   -4.7666    0.0000 C   0  0  0  0  0  0  0  0  0  0  0  0
    0.9369   -5.3067    0.0000 C   0  0  0  0  0  0  0  0  0  0  0  0
    1.7165   -5.0367    0.0000 C   0  0  0  0  0  0  0  0  0  0  0  0
    1.8724   -4.2265    0.0000 O   0  0  0  0  0  0  0  0  0  0  0  0
    2.3401   -5.5767    0.0000 N   0  0  0  0  0  0  0  0  0  0  0  0
    3.1197   -5.3067    0.0000 O   0  0  0  0  0  0  0  0  0  0  0  0
  1  2  2  0
  1  7  1  0
  2  3  1  0
  3  4  1  0
  3  5  2  0
  5  6  1  0
  6  7  2  0
  7  8  1  0
  9  8  1  6
  9 10  1  0
  9 14  1  0
 10 11  2  0
 10 12  1  0
 12 13  1  0
 14 15  1  0
 15 16  2  0
 15 17  1  0
 17 18  1  0
 18 19  1  0
 19 20  1  0
 20 21  1  0
 21 22  1  0
 22 23  1  0
 23 24  2  0
 23 25  1  0
 25 26  1  0
M  END
>  <DRUGBANK_ID>  (1) 
DB08505

>  <COMMON_NAME>  (1) 
methyl 4-bromo-N-[8-(hydroxyamino)-8-oxooctanoyl]-L-phenylalaninate

$$$$
