
     RDKit          2D

 33 37  0  0  0  0  0  0  0  0999 V2000
   -4.0530   -1.7778    0.0000 C   0  0  0  0  0  0  0  0  0  0  0  0
   -3.2684   -1.5229    0.0000 C   0  0  0  0  0  0  0  0  0  0  0  0
   -3.0968   -0.7159    0.0000 C   0  0  0  0  0  0  0  0  0  0  0  0
   -2.3122   -0.4610    0.0000 N   0  0  0  0  0  0  0  0  0  0  0  0
   -2.0573    0.3236    0.0000 C   0  0  0  0  0  0  0  0  0  0  0  0
   -1.2323    0.3236    0.0000 N   0  0  0  0  0  0  0  0  0  0  0  0
   -0.9773   -0.4610    0.0000 C   0  0  0  0  0  0  0  0  0  0  0  0
   -0.1927   -0.7159    0.0000 C   0  0  0  0  0  0  0  0  0  0  0  0
    0.4204   -0.1639    0.0000 C   0  0  0  0  0  0  0  0  0  0  0  0
    1.2050   -0.4188    0.0000 C   0  0  0  0  0  0  0  0  0  0  0  0
    1.3765   -1.2258    0.0000 C   0  0  0  0  0  0  0  0  0  0  0  0
    2.1611   -1.4808    0.0000 Cl  0  0  0  0  0  0  0  0  0  0  0  0
    0.7634   -1.7778    0.0000 C   0  0  0  0  0  0  0  0  0  0  0  0
    0.9349   -2.5848    0.0000 Cl  0  0  0  0  0  0  0  0  0  0  0  0
   -0.0212   -1.5229    0.0000 C   0  0  0  0  0  0  0  0  0  0  0  0
   -1.6448   -0.9459    0.0000 C   0  0  0  0  0  0  0  0  0  0  0  0
   -1.6448   -1.7709    0.0000 C   0  0  0  0  0  0  0  0  0  0  0  0
   -0.9303   -2.1834    0.0000 C   0  0  0  0  0  0  0  0  0  0  0  0
   -0.9303   -3.0084    0.0000 C   0  0  0  0  0  0  0  0  0  0  0  0
   -1.6448   -3.4209    0.0000 N   0  0  0  0  0  0  0  0  0  0  0  0
   -2.3593   -3.0084    0.0000 C   0  0  0  0  0  0  0  0  0  0  0  0
   -3.0737   -3.4209    0.0000 N   0  0  0  0  0  0  0  0  0  0  0  0
   -3.0737   -4.2459    0.0000 C   0  0  0  0  0  0  0  0  0  0  0  0
   -2.6612   -4.9604    0.0000 C   0  0  0  0  0  0  0  0  0  0  0  0
   -3.4862   -4.9604    0.0000 C   0  0  0  0  0  0  0  0  0  0  0  0
   -2.3593   -2.1834    0.0000 N   0  0  0  0  0  0  0  0  0  0  0  0
   -2.5422    0.9911    0.0000 C   0  0  0  0  0  0  0  0  0  0  0  0
   -3.3627    0.9048    0.0000 C   0  0  0  0  0  0  0  0  0  0  0  0
   -3.8476    1.5723    0.0000 C   0  0  0  0  0  0  0  0  0  0  0  0
   -3.5121    2.3259    0.0000 N   0  0  0  0  0  0  0  0  0  0  0  0
   -3.9970    2.9934    0.0000 C   0  0  0  0  0  0  0  0  0  0  0  0
   -2.6916    2.4122    0.0000 C   0  0  0  0  0  0  0  0  0  0  0  0
   -2.2067    1.7447    0.0000 C   0  0  0  0  0  0  0  0  0  0  0  0
  1  2  1  0
  2  3  1  0
  3  4  1  0
  4  5  1  0
  4 16  1  0
  5  6  2  0
  5 27  1  0
  6  7  1  0
  7  8  1  0
  7 16  2  0
  8  9  2  0
  8 15  1  0
  9 10  1  0
 10 11  2  0
 11 12  1  0
 11 13  1  0
 13 14  1  0
 13 15  2  0
 16 17  1  0
 17 18  2  0
 17 26  1  0
 18 19  1  0
 19 20  2  0
 20 21  1  0
 21 22  1  0
 21 26  2  0
 22 23  1  0
 23 24  1  0
 23 25  1  0
 24 25  1  0
 27 28  1  0
 27 33  1  0
 28 29  1  0
 29 30  1  0
 30 31  1  0
 30 32  1  0
 32 33  1  0
M  END
>  <DRUGBANK_ID>  (1) 
DB03084

>  <SECONDARY_ACCESSION_NUMBERS>  (1) 
EXPT00348

>  <COMMON_NAME>  (1) 
Cyclopropyl-{4-[5-(3,4-Dichlorophenyl)-2-[(1-Methyl)-Piperidin]-4-Yl-3-Propyl-3h-Imidazol-4-Yl]-Pyrimidin-2-Yl}Amine

$$$$
