
     RDKit          2D

 28 30  0  0  0  0  0  0  0  0999 V2000
   -1.7861   -1.0312    0.0000 C   0  0  0  0  0  0  0  0  0  0  0  0
   -2.5006   -0.6187    0.0000 C   0  0  0  0  0  0  0  0  0  0  0  0
   -1.0717   -0.6187    0.0000 C   0  0  0  0  0  0  0  0  0  0  0  0
   -2.5006    0.2062    0.0000 C   0  0  0  0  0  0  0  0  0  0  0  0
    1.0717   -1.0312    0.0000 C   0  0  0  0  0  0  0  0  0  0  0  0
    1.0717    3.0937    0.0000 C   0  0  0  0  0  0  0  0  0  0  0  0
    1.0717   -1.8562    0.0000 C   0  0  0  0  0  0  0  0  0  0  0  0
    0.3572    2.6812    0.0000 C   0  0  0  0  0  0  0  0  0  0  0  0
    1.7861    1.8562    0.0000 C   0  0  0  0  0  0  0  0  0  0  0  0
   -0.3572   -1.0312    0.0000 C   0  0  0  0  0  0  0  0  0  0  0  0
   -0.3572    0.6187    0.0000 C   0  0  0  0  0  0  0  0  0  0  0  0
    1.0717    0.6187    0.0000 C   0  0  0  0  0  0  0  0  0  0  0  0
   -1.0717    0.2062    0.0000 C   0  0  0  0  0  0  0  0  0  0  0  0
    1.0717    1.4437    0.0000 C   0  0  0  0  0  0  0  0  0  0  0  0
    0.3572   -0.6187    0.0000 C   0  0  0  0  0  0  0  0  0  0  0  0
    1.7861    2.6812    0.0000 C   0  0  0  0  0  0  0  0  0  0  0  0
   -0.3572   -1.8562    0.0000 C   0  0  0  0  0  0  0  0  0  0  0  0
   -1.7861    0.6187    0.0000 C   0  0  0  0  0  0  0  0  0  0  0  0
    0.3572    1.8562    0.0000 C   0  0  0  0  0  0  0  0  0  0  0  0
    0.3572   -2.2687    0.0000 C   0  0  0  0  0  0  0  0  0  0  0  0
   -1.0717   -2.2687    0.0000 C   0  0  0  0  0  0  0  0  0  0  0  0
    0.3572    0.2062    0.0000 N   0  0  0  0  0  0  0  0  0  0  0  0
    2.5006    3.0937    0.0000 O   0  0  0  0  0  0  0  0  0  0  0  0
   -1.7861    1.4437    0.0000 O   0  0  0  0  0  0  0  0  0  0  0  0
   -0.3572    1.4437    0.0000 O   0  0  0  0  0  0  0  0  0  0  0  0
    0.3572   -3.0937    0.0000 O   0  0  0  0  0  0  0  0  0  0  0  0
   -1.7861   -1.8562    0.0000 O   0  0  0  0  0  0  0  0  0  0  0  0
   -1.0717   -3.0937    0.0000 O   0  0  0  0  0  0  0  0  0  0  0  0
  2  1  2  0
  3  1  1  0
  4  2  1  0
  7  5  2  0
  8  6  2  0
 13  3  2  0
 13 11  1  0
 14  9  1  0
 14 12  1  0
 15  5  1  0
 15 10  2  0
 16  6  1  0
 16  9  2  0
 17 10  1  0
 18  4  2  0
 18 13  1  0
 19  8  1  0
 19 14  2  0
 20  7  1  0
 20 17  2  0
 21 17  1  0
 22 11  1  0
 22 12  1  0
 22 15  1  0
 23 16  1  0
 24 18  1  0
 25 19  1  0
 26 20  1  0
 27 21  2  0
 28 21  1  0
M  END
>  <DRUGBANK_ID>  (1) 
DB16768

>  <COMMON_NAME>  (1) 
Lavendustin A

>  <CAS_NUMBER>  (1) 
125697-92-9

>  <UNII>  (1) 
3Y0G32G2RV

$$$$
