
     RDKit          2D

 21 23  0  0  0  0  0  0  0  0999 V2000
   -0.6506    0.1198    0.0000 N   0  0  0  0  0  0  0  0  0  0  0  0
    2.1921    1.7415    0.0000 N   0  0  0  0  0  0  0  0  0  0  0  0
   -0.6506    1.4476    0.0000 C   0  0  0  0  0  0  0  0  0  0  0  0
   -0.1692    0.7837    0.0000 C   0  0  0  0  0  0  0  0  0  0  0  0
    0.0175    1.9314    0.0000 C   0  0  0  0  0  0  0  0  0  0  0  0
   -1.4313    1.1963    0.0000 C   0  0  0  0  0  0  0  0  0  0  0  0
   -1.4313    0.3712    0.0000 C   0  0  0  0  0  0  0  0  0  0  0  0
   -0.9042    2.2327    0.0000 C   0  0  0  0  0  0  0  0  0  0  0  0
    0.7706    1.5946    0.0000 C   0  0  0  0  0  0  0  0  0  0  0  0
   -2.1458    1.6087    0.0000 C   0  0  0  0  0  0  0  0  0  0  0  0
   -0.3944   -0.6643    0.0000 C   0  0  0  0  0  0  0  0  0  0  0  0
   -2.1458   -0.0412    0.0000 C   0  0  0  0  0  0  0  0  0  0  0  0
    1.4389    2.0783    0.0000 C   0  0  0  0  0  0  0  0  0  0  0  0
   -2.8604    1.1963    0.0000 C   0  0  0  0  0  0  0  0  0  0  0  0
   -2.8604    0.3712    0.0000 C   0  0  0  0  0  0  0  0  0  0  0  0
    0.4128   -0.8344    0.0000 C   0  0  0  0  0  0  0  0  0  0  0  0
   -0.9454   -1.2784    0.0000 C   0  0  0  0  0  0  0  0  0  0  0  0
    0.6691   -1.6187    0.0000 C   0  0  0  0  0  0  0  0  0  0  0  0
   -0.6890   -2.0626    0.0000 C   0  0  0  0  0  0  0  0  0  0  0  0
    0.1182   -2.2327    0.0000 C   0  0  0  0  0  0  0  0  0  0  0  0
    2.8604    2.2253    0.0000 C   0  0  0  0  0  0  0  0  0  0  0  0
  1  4  1  0
  1  7  1  0
  1 11  1  0
  2 13  1  0
  2 21  1  0
  3  4  1  0
  3  5  1  0
  3  6  1  0
  3  8  1  0
  5  9  1  0
  6  7  2  0
  6 10  1  0
  7 12  1  0
  9 13  1  0
 10 14  2  0
 11 16  2  0
 11 17  1  0
 12 15  2  0
 14 15  1  0
 16 18  1  0
 17 19  2  0
 18 20  2  0
 19 20  1  0
M  END
>  <DRUGBANK_ID>  (1) 
DB09189

>  <COMMON_NAME>  (1) 
Daledalin

>  <CAS_NUMBER>  (1) 
22136-27-2

>  <UNII>  (1) 
IT56261A5A

>  <SYNONYMS>  (1) 
Daledalin

$$$$
