
     RDKit          2D

 13 12  0  0  1  0  0  0  0  0999 V2000
    1.2375    0.7145    0.0000 C   0  0  0  0  0  0  0  0  0  0  0  0
    0.5230    1.1270    0.0000 C   0  0  0  0  0  0  0  0  0  0  0  0
    3.3809    1.1270    0.0000 C   0  0  0  0  0  0  0  0  0  0  0  0
    1.9520    1.1270    0.0000 C   0  0  0  0  0  0  0  0  0  0  0  0
    2.6664    0.7145    0.0000 C   0  0  0  0  0  0  0  0  0  0  0  0
   -0.1914    0.7145    0.0000 O   0  0  0  0  0  0  0  0  0  0  0  0
    1.9520    1.9520    0.0000 O   0  0  0  0  0  0  0  0  0  0  0  0
    2.6664   -0.1105    0.0000 O   0  0  0  0  0  0  0  0  0  0  0  0
    5.5243    1.5395    0.0000 O   0  0  0  0  0  0  0  0  0  0  0  0
    5.2224    0.4125    0.0000 O   0  0  0  0  0  0  0  0  0  0  0  0
    4.3974    1.8414    0.0000 O   0  0  0  0  0  0  0  0  0  0  0  0
    4.0954    0.7145    0.0000 O   0  0  0  0  0  0  0  0  0  0  0  0
    4.8099    1.1270    0.0000 P   0  0  0  0  0  0  0  0  0  0  0  0
  2  1  1  0
  4  1  1  0
  4  7  1  6
  5  3  1  0
  5  4  1  0
  5  8  1  1
  6  2  1  0
 12  3  1  0
 13  9  1  0
 13 10  1  0
 13 11  2  0
 13 12  1  0
M  END
>  <DRUGBANK_ID>  (1) 
DB04087

>  <SECONDARY_ACCESSION_NUMBERS>  (1) 
EXPT01769

>  <COMMON_NAME>  (1) 
Open Form of 2'-Deoxy-Ribofuranose-5'-Phosphate

$$$$
