
     RDKit          2D

 39 44  0  0  1  0  0  0  0  0999 V2000
    2.0224   -1.5473    0.0000 C   0  0  0  0  0  0  0  0  0  0  0  0
    2.8203   -1.7570    0.0000 C   0  0  0  0  0  0  0  0  0  0  0  0
    3.4589   -1.2348    0.0000 C   0  0  0  0  0  0  0  0  0  0  0  0
    4.1530   -1.6808    0.0000 C   0  0  0  0  0  0  0  0  0  0  0  0
    4.9488   -1.4635    0.0000 C   0  0  0  0  0  0  0  0  0  0  0  0
    5.1586   -0.6656    0.0000 C   0  0  0  0  0  0  0  0  0  0  0  0
    5.9544   -0.4483    0.0000 C   0  0  0  0  0  0  0  0  0  0  0  0
    6.5406   -1.0289    0.0000 C   0  0  0  0  0  0  0  0  0  0  0  0
    7.3364   -0.8116    0.0000 C   0  0  0  0  0  0  0  0  0  0  0  0
    7.9226   -1.3922    0.0000 C   0  0  0  0  0  0  0  0  0  0  0  0
    7.7128   -2.1901    0.0000 C   0  0  0  0  0  0  0  0  0  0  0  0
    8.4069   -2.6361    0.0000 C   0  0  0  0  0  0  0  0  0  0  0  0
    9.0455   -2.1139    0.0000 N   0  0  0  0  0  0  0  0  0  0  0  0
    8.7462   -1.3451    0.0000 N   0  0  0  0  0  0  0  0  0  0  0  0
    9.1922   -0.6510    0.0000 C   0  0  0  0  0  0  0  0  0  0  0  0
    8.8142    0.0823    0.0000 C   0  0  0  0  0  0  0  0  0  0  0  0
    9.2602    0.7763    0.0000 C   0  0  0  0  0  0  0  0  0  0  0  0
   10.0843    0.7370    0.0000 C   0  0  0  0  0  0  0  0  0  0  0  0
   10.4623    0.0037    0.0000 C   0  0  0  0  0  0  0  0  0  0  0  0
   10.0163   -0.6903    0.0000 C   0  0  0  0  0  0  0  0  0  0  0  0
    6.9170   -2.4074    0.0000 C   0  0  0  0  0  0  0  0  0  0  0  0
    6.3308   -1.8268    0.0000 C   0  0  0  0  0  0  0  0  0  0  0  0
    5.5350   -2.0441    0.0000 C   0  0  0  0  0  0  0  0  0  0  0  0
    5.3252   -2.8420    0.0000 C   0  0  0  0  0  0  0  0  0  0  0  0
    4.5294   -3.0593    0.0000 C   0  0  0  0  0  0  0  0  0  0  0  0
    3.9432   -2.4787    0.0000 C   0  0  0  0  0  0  0  0  0  0  0  0
    3.1196   -2.5258    0.0000 C   0  0  0  0  0  0  0  0  0  0  0  0
    3.0717   -3.3494    0.0000 C   0  0  0  0  0  0  0  0  0  0  0  0
    3.7610   -3.8027    0.0000 O   0  0  0  0  0  0  0  0  0  0  0  0
    2.3345   -3.7198    0.0000 C   0  0  0  0  0  0  0  0  0  0  0  0
    2.2866   -4.5434    0.0000 O   0  0  0  0  0  0  0  0  0  0  0  0
    1.5494   -4.9137    0.0000 C   0  0  0  0  0  0  0  0  0  0  0  0
    1.5015   -5.7373    0.0000 O   0  0  0  0  0  0  0  0  0  0  0  0
    0.8601   -4.4604    0.0000 C   0  0  0  0  0  0  0  0  0  0  0  0
    2.3903   -2.9115    0.0000 O   0  0  0  0  0  0  0  0  0  0  0  0
    3.6512   -3.2503    0.0000 C   0  0  0  0  0  0  0  0  0  0  0  0
    5.9114   -3.4226    0.0000 O   0  0  0  0  0  0  0  0  0  0  0  0
    6.1211   -2.6247    0.0000 C   0  0  0  0  0  0  0  0  0  0  0  0
    6.1642    0.3496    0.0000 C   0  0  0  0  0  0  0  0  0  0  0  0
  2  1  1  6
  2  3  1  0
  2 27  1  0
  4  3  1  1
  4  5  1  0
  4 26  1  0
  5  6  1  6
  5 23  1  0
  6  7  2  0
  7  8  1  0
  7 39  1  0
  8  9  2  0
  8 22  1  0
  9 10  1  0
 10 11  2  0
 10 14  1  0
 11 12  1  0
 11 21  1  0
 12 13  2  0
 13 14  1  0
 14 15  1  0
 15 16  2  0
 15 20  1  0
 16 17  1  0
 17 18  2  0
 18 19  1  0
 19 20  2  0
 21 22  1  0
 22 38  1  1
 23 22  1  0
 23 24  1  1
 24 25  1  0
 24 37  1  1
 25 26  1  0
 26 27  1  0
 26 36  1  1
 27 28  1  0
 27 35  1  6
 28 29  2  0
 28 30  1  0
 30 31  1  0
 31 32  1  0
 32 33  2  0
 32 34  1  0
M  END
>  <DRUGBANK_ID>  (1) 
DB13003

>  <COMMON_NAME>  (1) 
Cortivazol

>  <CAS_NUMBER>  (1) 
1110-40-3

>  <UNII>  (1) 
YM183K0H63

>  <SYNONYMS>  (1) 
Cortivazol

$$$$
