53V
     RDKit          2D

 29 31  0  0  0  0  0  0  0  0999 V2000
   -2.7671   -1.6673    0.0000 C   0  0  0  0  0  0  0  0  0  0  0  0
   -1.3382    2.4577    0.0000 C   0  0  0  0  0  0  0  0  0  0  0  0
   -3.4816   -2.9048    0.0000 C   0  0  0  0  0  0  0  0  0  0  0  0
   -2.0527   -2.0798    0.0000 C   0  0  0  0  0  0  0  0  0  0  0  0
    0.0907   -0.8423    0.0000 C   0  0  0  0  0  0  0  0  0  0  0  0
    0.8052   -1.2548    0.0000 C   0  0  0  0  0  0  0  0  0  0  0  0
    0.0907   -0.0173    0.0000 C   0  0  0  0  0  0  0  0  0  0  0  0
   -0.6237    0.3952    0.0000 C   0  0  0  0  0  0  0  0  0  0  0  0
   -0.6237    1.2202    0.0000 C   0  0  0  0  0  0  0  0  0  0  0  0
    0.0907    1.6327    0.0000 C   0  0  0  0  0  0  0  0  0  0  0  0
    0.8052    1.2202    0.0000 C   0  0  0  0  0  0  0  0  0  0  0  0
    0.8052    2.8702    0.0000 C   0  0  0  0  0  0  0  0  0  0  0  0
    1.5197    2.4577    0.0000 C   0  0  0  0  0  0  0  0  0  0  0  0
    2.2341    2.8702    0.0000 C   0  0  0  0  0  0  0  0  0  0  0  0
    2.9486    2.4577    0.0000 C   0  0  0  0  0  0  0  0  0  0  0  0
    2.9486    1.6327    0.0000 C   0  0  0  0  0  0  0  0  0  0  0  0
    2.2341    1.2202    0.0000 C   0  0  0  0  0  0  0  0  0  0  0  0
    2.2341    0.3952    0.0000 C   0  0  0  0  0  0  0  0  0  0  0  0
    1.5197    1.6327    0.0000 C   0  0  0  0  0  0  0  0  0  0  0  0
    0.8052    0.3952    0.0000 C   0  0  0  0  0  0  0  0  0  0  0  0
   -1.3382    1.6327    0.0000 O   0  0  0  0  0  0  0  0  0  0  0  0
   -0.6237   -1.2548    0.0000 C   0  0  0  0  0  0  0  0  0  0  0  0
   -1.3382   -1.6673    0.0000 C   0  0  0  0  0  0  0  0  0  0  0  0
   -2.0527   -2.9048    0.0000 C   0  0  0  0  0  0  0  0  0  0  0  0
   -1.3382   -3.3173    0.0000 C   0  0  0  0  0  0  0  0  0  0  0  0
   -2.7671   -3.3173    0.0000 N   0  0  0  0  0  0  0  0  0  0  0  0
   -4.1961   -3.3173    0.0000 N   0  0  0  0  0  0  0  0  0  0  0  0
   -3.4816   -2.0798    0.0000 N   0  0  0  0  0  0  0  0  0  0  0  0
   -2.7671   -0.8423    0.0000 N   0  0  0  0  0  0  0  0  0  0  0  0
  1  4  2  0
  1 28  1  0
  1 29  1  0
  2 21  1  0
  3 26  1  0
  3 27  1  0
  3 28  2  0
  4 23  1  0
  4 24  1  0
  5  6  1  1
  5  7  1  0
  5 22  1  0
  7  8  2  0
  7 20  1  0
  8  9  1  0
  9 10  2  0
  9 21  1  0
 10 11  1  0
 11 19  1  0
 11 20  2  0
 12 13  1  0
 13 14  2  0
 13 19  1  0
 14 15  1  0
 15 16  2  0
 16 17  1  0
 17 18  1  0
 17 19  2  0
 22 23  3  0
 24 25  1  0
 24 26  2  0
M  END
>  <DRUGBANK_ID>  (1) 
DB07144

>  <COMMON_NAME>  (1) 
5-[(3R)-3-(5-methoxy-2',6'-dimethylbiphenyl-3-yl)but-1-yn-1-yl]-6-methylpyrimidine-2,4-diamine

$$$$
