
     RDKit          2D

 11 11  0  0  1  0  0  0  0  0999 V2000
    0.5678    1.9393    0.0000 C   0  0  0  0  0  0  0  0  0  0  0  0
    1.2352    0.6294    0.0000 C   0  0  0  0  0  0  0  0  0  0  0  0
    0.5678    1.1143    0.0000 C   0  0  0  0  0  0  0  0  0  0  0  0
    0.9803   -0.1553    0.0000 C   0  0  0  0  0  0  0  0  0  0  0  0
   -0.0997    0.6294    0.0000 C   0  0  0  0  0  0  0  0  0  0  0  0
   -0.8843    0.8843    0.0000 C   0  0  0  0  0  0  0  0  0  0  0  0
    0.1553   -0.1553    0.0000 N   0  0  0  0  0  0  0  0  0  0  0  0
    1.4652   -0.8227    0.0000 N   0  0  0  0  0  0  0  0  0  0  0  0
   -1.0558    1.6913    0.0000 O   0  0  0  0  0  0  0  0  0  0  0  0
   -1.4974    0.3323    0.0000 O   0  0  0  0  0  0  0  0  0  0  0  0
    2.2857   -0.7365    0.0000 O   0  0  0  0  0  0  0  0  0  0  0  0
  3  1  1  6
  3  2  1  0
  4  2  1  0
  4  8  1  1
  5  3  1  0
  5  6  1  1
  7  4  1  0
  7  5  1  0
  9  6  2  0
 10  6  1  0
 11  8  1  0
M  END
>  <DRUGBANK_ID>  (1) 
DB02298

>  <SECONDARY_ACCESSION_NUMBERS>  (1) 
EXPT00683

>  <COMMON_NAME>  (1) 
5-Hydroxyamino-3-Methyl-Pyrrolidine-2-Carboxylic Acid

$$$$
