
     RDKit          2D

 32 34  0  0  1  0  0  0  0  0999 V2000
    2.7221   -0.2654    0.0000 Cl  0  0  0  0  0  0  0  0  0  0  0  0
   -2.2792    3.4471    0.0000 Cl  0  0  0  0  0  0  0  0  0  0  0  0
    1.2932    3.8596    0.0000 F   0  0  0  0  0  0  0  0  0  0  0  0
    2.1182    3.0346    0.0000 F   0  0  0  0  0  0  0  0  0  0  0  0
    0.4682    3.0346    0.0000 F   0  0  0  0  0  0  0  0  0  0  0  0
   -2.2792   -1.5029    0.0000 O   0  0  0  0  0  0  0  0  0  0  0  0
   -1.5646   -2.7404    0.0000 O   0  0  0  0  0  0  0  0  0  0  0  0
   -0.1357    0.5596    0.0000 O   0  0  0  0  0  0  0  0  0  0  0  0
    1.2932    0.5596    0.0000 N   0  0  0  0  0  0  0  0  0  0  0  0
   -0.1357   -2.7404    0.0000 C   0  0  0  0  0  0  0  0  0  0  0  0
   -0.5482   -3.4549    0.0000 C   0  0  0  0  0  0  0  0  0  0  0  0
    0.2767   -3.4549    0.0000 C   0  0  0  0  0  0  0  0  0  0  0  0
   -0.1357   -1.9154    0.0000 C   0  0  0  0  0  0  0  0  0  0  0  0
   -0.8502   -1.5029    0.0000 C   0  0  0  0  0  0  0  0  0  0  0  0
    0.5787   -1.5029    0.0000 C   0  0  0  0  0  0  0  0  0  0  0  0
    0.5787   -0.6779    0.0000 C   0  0  0  0  0  0  0  0  0  0  0  0
    1.2932   -1.9154    0.0000 C   0  0  0  0  0  0  0  0  0  0  0  0
   -1.5646   -1.9154    0.0000 C   0  0  0  0  0  0  0  0  0  0  0  0
    1.2932   -0.2654    0.0000 C   0  0  0  0  0  0  0  0  0  0  0  0
    2.0077   -1.5029    0.0000 C   0  0  0  0  0  0  0  0  0  0  0  0
    2.0077   -0.6779    0.0000 C   0  0  0  0  0  0  0  0  0  0  0  0
    0.5787    1.7971    0.0000 C   0  0  0  0  0  0  0  0  0  0  0  0
    1.2932    2.2096    0.0000 C   0  0  0  0  0  0  0  0  0  0  0  0
    0.5787    0.9721    0.0000 C   0  0  0  0  0  0  0  0  0  0  0  0
   -0.1357    2.2096    0.0000 C   0  0  0  0  0  0  0  0  0  0  0  0
    1.2932    3.0346    0.0000 C   0  0  0  0  0  0  0  0  0  0  0  0
    2.0077    1.7971    0.0000 C   0  0  0  0  0  0  0  0  0  0  0  0
   -0.8502    1.7971    0.0000 C   0  0  0  0  0  0  0  0  0  0  0  0
   -0.1357    3.0346    0.0000 C   0  0  0  0  0  0  0  0  0  0  0  0
   -1.5646    2.2096    0.0000 C   0  0  0  0  0  0  0  0  0  0  0  0
   -0.8502    3.4471    0.0000 C   0  0  0  0  0  0  0  0  0  0  0  0
   -1.5646    3.0346    0.0000 C   0  0  0  0  0  0  0  0  0  0  0  0
  1 21  1  0
  2 32  1  0
  3 26  1  0
  4 26  1  0
  5 26  1  0
  6 18  1  0
  7 18  2  0
  8 24  2  0
  9 19  1  0
  9 24  1  0
 10 11  1  0
 10 12  1  0
 10 13  1  0
 11 12  1  0
 13 14  1  6
 13 15  1  0
 14 18  1  0
 15 16  2  0
 15 17  1  0
 16 19  1  0
 17 20  2  0
 19 21  2  0
 20 21  1  0
 22 23  1  0
 22 24  1  6
 22 25  1  0
 23 26  1  0
 23 27  1  6
 25 28  2  0
 25 29  1  0
 28 30  1  0
 29 31  2  0
 30 32  2  0
 31 32  1  0
M  END
>  <DRUGBANK_ID>  (1) 
DB16700

>  <COMMON_NAME>  (1) 
Runcaciguat

>  <CAS_NUMBER>  (1) 
1402936-61-1

>  <UNII>  (1) 
5EZ01YDT5S

>  <SYNONYMS>  (1) 
Cyclopropylpropanoic acid; Runcaciguat

$$$$
