
     RDKit          2D

 24 23  0  0  1  0  0  0  0  0999 V2000
    0.9098    0.5658    0.0000 C   0  0  0  0  0  0  0  0  0  0  0  0
    0.0776    0.5621    0.0000 C   0  0  0  0  0  0  0  0  0  0  0  0
    1.6345    0.9874    0.0000 C   0  0  0  0  0  0  0  0  0  0  0  0
   -0.6509    0.9874    0.0000 C   0  0  0  0  0  0  0  0  0  0  0  0
    2.3631    0.5732    0.0000 C   0  0  0  0  0  0  0  0  0  0  0  0
    1.6271    1.8306    0.0000 O   0  0  0  0  0  0  0  0  0  0  0  0
   -1.3536    0.5843    0.0000 C   0  0  0  0  0  0  0  0  0  0  0  0
    3.0843    0.9985    0.0000 C   0  0  0  0  0  0  0  0  0  0  0  0
   -2.0599    0.9874    0.0000 C   0  0  0  0  0  0  0  0  0  0  0  0
    3.8128    0.5806    0.0000 C   0  0  0  0  0  0  0  0  0  0  0  0
   -2.7588    0.5880    0.0000 C   0  0  0  0  0  0  0  0  0  0  0  0
    4.5339    1.0059    0.0000 C   0  0  0  0  0  0  0  0  0  0  0  0
   -3.5687    0.5917    0.0000 C   0  0  0  0  0  0  0  0  0  0  0  0
    5.2661    0.5917    0.0000 O   0  0  0  0  0  0  0  0  0  0  0  0
    4.5265    1.8454    0.0000 O   0  0  0  0  0  0  0  0  0  0  0  0
   -4.2196   -0.7988    0.0000 C   0  0  0  0  0  0  0  0  0  0  0  0
   -3.5761    1.4756    0.0000 O   0  0  0  0  0  0  0  0  0  0  0  0
   -3.5650   -2.1967    0.0000 C   0  0  0  0  0  0  0  0  0  0  0  0
   -2.7514   -2.1930    0.0000 C   0  0  0  0  0  0  0  0  0  0  0  0
   -2.0561   -1.7825    0.0000 C   0  0  0  0  0  0  0  0  0  0  0  0
   -1.3462   -2.1856    0.0000 C   0  0  0  0  0  0  0  0  0  0  0  0
   -0.6471   -1.7751    0.0000 C   0  0  0  0  0  0  0  0  0  0  0  0
    0.0666   -2.1745    0.0000 C   0  0  0  0  0  0  0  0  0  0  0  0
    0.6471   -1.6457    0.0000 C   0  0  0  0  0  0  0  0  0  0  0  0
  1  2  2  0
  1  3  1  0
  2  4  1  0
  3  5  1  0
  3  6  1  1
  4  7  2  0
  5  8  1  0
  7  9  1  0
  8 10  1  0
  9 11  2  0
 10 12  1  0
 11 13  1  0
 12 14  1  0
 12 15  2  0
 13 16  1  0
 13 17  1  1
 16 18  1  0
 18 19  2  0
 19 20  1  0
 20 21  1  0
 21 22  1  0
 22 23  1  0
 23 24  1  0
M  END
>  <DRUGBANK_ID>  (1) 
DB12961

>  <COMMON_NAME>  (1) 
Leukotriene B4

>  <CAS_NUMBER>  (1) 
71160-24-2

>  <UNII>  (1) 
1HGW4DR56D

>  <SYNONYMS>  (1) 
LTB4

$$$$
