F83
     RDKit          2D

 23 25  0  0  0  0  0  0  0  0999 V2000
   -2.7771   -1.6418    0.0000 O   0  0  0  0  0  0  0  0  0  0  0  0
   -2.7771   -0.8168    0.0000 C   0  0  0  0  0  0  0  0  0  0  0  0
   -2.0626   -0.4043    0.0000 C   0  0  0  0  0  0  0  0  0  0  0  0
   -2.0626    0.4207    0.0000 N   0  0  0  0  0  0  0  0  0  0  0  0
   -1.3482    0.8332    0.0000 C   0  0  0  0  0  0  0  0  0  0  0  0
   -0.6337    0.4207    0.0000 C   0  0  0  0  0  0  0  0  0  0  0  0
    0.0808    0.8332    0.0000 C   0  0  0  0  0  0  0  0  0  0  0  0
    0.7952    0.4207    0.0000 C   0  0  0  0  0  0  0  0  0  0  0  0
    0.7952   -0.4043    0.0000 C   0  0  0  0  0  0  0  0  0  0  0  0
    0.0808   -0.8168    0.0000 C   0  0  0  0  0  0  0  0  0  0  0  0
   -0.6337   -0.4043    0.0000 C   0  0  0  0  0  0  0  0  0  0  0  0
   -1.3482   -0.8168    0.0000 C   0  0  0  0  0  0  0  0  0  0  0  0
    1.5097    0.8332    0.0000 S   0  0  0  0  0  0  0  0  0  0  0  0
    1.9222    0.1187    0.0000 O   0  0  0  0  0  0  0  0  0  0  0  0
    1.0972    1.5477    0.0000 O   0  0  0  0  0  0  0  0  0  0  0  0
    2.2242    1.2457    0.0000 N   0  0  0  0  0  0  0  0  0  0  0  0
    2.9386    0.8332    0.0000 C   0  0  0  0  0  0  0  0  0  0  0  0
    3.6531    1.2457    0.0000 C   0  0  0  0  0  0  0  0  0  0  0  0
    4.3676    0.8332    0.0000 C   0  0  0  0  0  0  0  0  0  0  0  0
    4.3676    0.0082    0.0000 C   0  0  0  0  0  0  0  0  0  0  0  0
    3.6531   -0.4043    0.0000 C   0  0  0  0  0  0  0  0  0  0  0  0
    2.9386    0.0082    0.0000 C   0  0  0  0  0  0  0  0  0  0  0  0
    5.0821   -0.4043    0.0000 Cl  0  0  0  0  0  0  0  0  0  0  0  0
  1  2  1  0
  3  2  1  6
  3  4  1  0
  3 12  1  0
  4  5  1  0
  5  6  1  0
  6  7  1  0
  6 11  2  0
  7  8  2  0
  8  9  1  0
  8 13  1  0
  9 10  2  0
 10 11  1  0
 11 12  1  0
 13 14  2  0
 13 15  2  0
 13 16  1  0
 16 17  1  0
 17 18  2  0
 17 22  1  0
 18 19  1  0
 19 20  2  0
 20 21  1  0
 20 23  1  0
 21 22  2  0
M  END
>  <DRUGBANK_ID>  (1) 
DB07747

>  <COMMON_NAME>  (1) 
(3R)-N-(4-CHLOROPHENYL)-3-(HYDROXYMETHYL)-1,2,3,4-TETRAHYDROISOQUINOLINE-7-SULFONAMIDE

$$$$
