
     RDKit          2D

 32 33  0  0  1  0  0  0  0  0999 V2000
    4.8946    2.8259    0.0000 C   0  0  0  0  0  0  0  0  0  0  0  0
    4.8946    2.0009    0.0000 S   0  0  0  0  0  0  0  0  0  0  0  0
    4.0696    2.0009    0.0000 O   0  0  0  0  0  0  0  0  0  0  0  0
    5.7196    2.0009    0.0000 O   0  0  0  0  0  0  0  0  0  0  0  0
    4.8946    1.1759    0.0000 N   0  0  0  0  0  0  0  0  0  0  0  0
    4.1801    0.7634    0.0000 C   0  0  0  0  0  0  0  0  0  0  0  0
    3.4656    1.1759    0.0000 O   0  0  0  0  0  0  0  0  0  0  0  0
    4.1801   -0.0616    0.0000 C   0  0  0  0  0  0  0  0  0  0  0  0
    3.4656   -0.4741    0.0000 C   0  0  0  0  0  0  0  0  0  0  0  0
    3.4656   -1.2991    0.0000 C   0  0  0  0  0  0  0  0  0  0  0  0
    2.7512   -1.7116    0.0000 C   0  0  0  0  0  0  0  0  0  0  0  0
    2.7512   -2.5366    0.0000 C   0  0  0  0  0  0  0  0  0  0  0  0
    3.4656   -2.9491    0.0000 C   0  0  0  0  0  0  0  0  0  0  0  0
    3.4656   -3.7741    0.0000 C   0  0  0  0  0  0  0  0  0  0  0  0
    4.1331   -4.2590    0.0000 C   0  0  0  0  0  0  0  0  0  0  0  0
    3.8781   -5.0437    0.0000 C   0  0  0  0  0  0  0  0  0  0  0  0
    3.0531   -5.0437    0.0000 C   0  0  0  0  0  0  0  0  0  0  0  0
    2.7982   -4.2590    0.0000 C   0  0  0  0  0  0  0  0  0  0  0  0
    2.0136   -4.0041    0.0000 O   0  0  0  0  0  0  0  0  0  0  0  0
    4.3631   -5.7111    0.0000 O   0  0  0  0  0  0  0  0  0  0  0  0
    4.9177   -4.0041    0.0000 C   0  0  0  0  0  0  0  0  0  0  0  0
    5.5308   -4.5561    0.0000 C   0  0  0  0  0  0  0  0  0  0  0  0
    6.3154   -4.3012    0.0000 C   0  0  0  0  0  0  0  0  0  0  0  0
    6.9285   -4.8532    0.0000 C   0  0  0  0  0  0  0  0  0  0  0  0
    7.7131   -4.5983    0.0000 O   0  0  0  0  0  0  0  0  0  0  0  0
    8.3262   -5.1503    0.0000 C   0  0  0  0  0  0  0  0  0  0  0  0
    9.1109   -4.8954    0.0000 C   0  0  0  0  0  0  0  0  0  0  0  0
    9.7240   -5.4474    0.0000 C   0  0  0  0  0  0  0  0  0  0  0  0
    9.5524   -6.2544    0.0000 C   0  0  0  0  0  0  0  0  0  0  0  0
    8.7678   -6.5093    0.0000 C   0  0  0  0  0  0  0  0  0  0  0  0
    8.1547   -5.9573    0.0000 C   0  0  0  0  0  0  0  0  0  0  0  0
    6.4870   -3.4942    0.0000 O   0  0  0  0  0  0  0  0  0  0  0  0
  1  2  1  0
  2  3  2  0
  2  4  2  0
  2  5  1  0
  5  6  1  0
  6  7  2  0
  6  8  1  0
  8  9  1  0
  9 10  1  0
 10 11  1  0
 11 12  2  0
 12 13  1  0
 14 13  1  6
 14 15  1  0
 14 18  1  0
 15 16  1  0
 15 21  1  1
 16 17  1  0
 16 20  1  6
 17 18  1  0
 18 19  2  0
 21 22  2  0
 22 23  1  0
 23 24  1  0
 23 32  1  1
 24 25  1  0
 25 26  1  0
 26 27  2  0
 26 31  1  0
 27 28  1  0
 28 29  2  0
 29 30  1  0
 30 31  2  0
M  END
>  <DRUGBANK_ID>  (1) 
DB12708

>  <COMMON_NAME>  (1) 
Sulprostone

>  <CAS_NUMBER>  (1) 
60325-46-4

>  <UNII>  (1) 
501Q5EQ1GM

>  <SYNONYMS>  (1) 
Sulprostone

$$$$
