
     RDKit          2D

 27 28  0  0  0  0  0  0  0  0999 V2000
   17.5970  -11.7345    0.0000 C   0  0  0  0  0  0  0  0  0  0  0  0
   17.5928  -12.5610    0.0000 N   0  0  0  0  0  0  0  0  0  0  0  0
   18.3071  -12.9799    0.0000 C   0  0  0  0  0  0  0  0  0  0  0  0
   19.0254  -12.5682    0.0000 N   0  0  0  0  0  0  0  0  0  0  0  0
   19.0297  -11.7416    0.0000 C   0  0  0  0  0  0  0  0  0  0  0  0
   18.3154  -11.3269    0.0000 N   0  0  0  0  0  0  0  0  0  0  0  0
   14.7436  -11.7334    0.0000 S   0  0  0  0  0  0  0  0  0  0  0  0
   15.4575  -11.3253    0.0000 N   0  0  0  0  0  0  0  0  0  0  0  0
   14.1499  -12.3572    0.0000 O   0  0  0  0  0  0  0  0  0  0  0  0
   15.3211  -12.3985    0.0000 O   0  0  0  0  0  0  0  0  0  0  0  0
   16.1683  -11.7345    0.0000 C   0  0  0  0  0  0  0  0  0  0  0  0
   16.8826  -11.3233    0.0000 N   0  0  0  0  0  0  0  0  0  0  0  0
   19.7400  -11.3275    0.0000 O   0  0  0  0  0  0  0  0  0  0  0  0
   20.4502  -11.7387    0.0000 C   0  0  0  0  0  0  0  0  0  0  0  0
   16.1641  -12.5610    0.0000 O   0  0  0  0  0  0  0  0  0  0  0  0
   18.2989  -13.8028    0.0000 C   0  0  0  0  0  0  0  0  0  0  0  0
   14.7395  -10.0773    0.0000 C   0  0  0  0  0  0  0  0  0  0  0  0
   15.4498  -10.4927    0.0000 O   0  0  0  0  0  0  0  0  0  0  0  0
   16.2466   -9.8298    0.0000 C   0  0  0  0  0  0  0  0  0  0  0  0
   14.7355   -9.2510    0.0000 O   0  0  0  0  0  0  0  0  0  0  0  0
   14.0338  -11.3208    0.0000 C   0  0  0  0  0  0  0  0  0  0  0  0
   14.0291  -10.4953    0.0000 C   0  0  0  0  0  0  0  0  0  0  0  0
   13.3113  -10.0846    0.0000 C   0  0  0  0  0  0  0  0  0  0  0  0
   12.6394  -10.5035    0.0000 C   0  0  0  0  0  0  0  0  0  0  0  0
   12.6029  -11.3291    0.0000 C   0  0  0  0  0  0  0  0  0  0  0  0
   13.3207  -11.7357    0.0000 C   0  0  0  0  0  0  0  0  0  0  0  0
   16.8785  -10.5381    0.0000 C   0  0  0  0  0  0  0  0  0  0  0  0
  1  2  2  0
  2  3  1  0
  3 16  1  0
  3  4  2  0
  4  5  1  0
  5 13  1  0
  5  6  2  0
  6  1  1  0
  7  8  1  0
  7  9  2  0
  7 10  2  0
  8 11  1  0
 11 15  2  0
 11 12  1  0
 12  1  1  0
 12 27  1  0
 13 14  1  0
 17 18  1  0
 17 20  2  0
 18 19  1  0
 21  7  1  0
 21 22  2  0
 22 17  1  0
 22 23  1  0
 23 24  2  0
 24 25  1  0
 25 26  2  0
 26 21  1  0
M  END
>  <DRUGBANK_ID>  (1) 
DB03656

>  <SECONDARY_ACCESSION_NUMBERS>  (1) 
EXPT00085

>  <COMMON_NAME>  (1) 
Tribenuron Methyl

>  <CAS_NUMBER>  (1) 
101200-48-0

>  <UNII>  (1) 
D0493A985P

>  <SYNONYMS>  (1) 
Sulfmethmeton-methyl; Tribenuron methyl ester; Tribenuron-methyl

$$$$
