
     RDKit          2D

 44 48  0  0  0  0  0  0  0  0999 V2000
   -0.5248   -0.1633    0.0000 C   0  0  0  0  0  0  0  0  0  0  0  0
    4.0802    3.7536    0.0000 C   0  0  0  0  0  0  0  0  0  0  0  0
    2.6871    4.0716    0.0000 C   0  0  0  0  0  0  0  0  0  0  0  0
   -4.0802    3.7536    0.0000 C   0  0  0  0  0  0  0  0  0  0  0  0
   -2.6871    4.0716    0.0000 C   0  0  0  0  0  0  0  0  0  0  0  0
   -0.2088   -3.6513    0.0000 C   0  0  0  0  0  0  0  0  0  0  0  0
    0.5590   -3.9527    0.0000 C   0  0  0  0  0  0  0  0  0  0  0  0
    0.4125    3.4259    0.0000 C   0  0  0  0  0  0  0  0  0  0  0  0
   -0.4125    3.4259    0.0000 C   0  0  0  0  0  0  0  0  0  0  0  0
    2.1364    1.6586    0.0000 C   0  0  0  0  0  0  0  0  0  0  0  0
   -2.1364    1.6586    0.0000 C   0  0  0  0  0  0  0  0  0  0  0  0
    1.3480    1.4155    0.0000 C   0  0  0  0  0  0  0  0  0  0  0  0
   -1.3480    1.4155    0.0000 C   0  0  0  0  0  0  0  0  0  0  0  0
   -0.1595   -2.8277    0.0000 C   0  0  0  0  0  0  0  0  0  0  0  0
    1.7152    3.0241    0.0000 C   0  0  0  0  0  0  0  0  0  0  0  0
   -1.7152    3.0241    0.0000 C   0  0  0  0  0  0  0  0  0  0  0  0
    0.5143    0.9737    0.0000 C   0  0  0  0  0  0  0  0  0  0  0  0
    1.9065   -3.3648    0.0000 C   0  0  0  0  0  0  0  0  0  0  0  0
    0.4259   -1.2072    0.0000 C   0  0  0  0  0  0  0  0  0  0  0  0
    0.2129    0.2057    0.0000 C   0  0  0  0  0  0  0  0  0  0  0  0
    0.9268    2.7809    0.0000 C   0  0  0  0  0  0  0  0  0  0  0  0
   -0.9268    2.7809    0.0000 C   0  0  0  0  0  0  0  0  0  0  0  0
    2.3199    2.4630    0.0000 C   0  0  0  0  0  0  0  0  0  0  0  0
   -2.3199    2.4630    0.0000 C   0  0  0  0  0  0  0  0  0  0  0  0
    1.0830   -3.3154    0.0000 C   0  0  0  0  0  0  0  0  0  0  0  0
    0.7432    1.9766    0.0000 C   0  0  0  0  0  0  0  0  0  0  0  0
   -0.7432    1.9766    0.0000 C   0  0  0  0  0  0  0  0  0  0  0  0
    0.9403   -1.8522    0.0000 C   0  0  0  0  0  0  0  0  0  0  0  0
    3.1083    2.7061    0.0000 C   0  0  0  0  0  0  0  0  0  0  0  0
   -3.1083    2.7061    0.0000 C   0  0  0  0  0  0  0  0  0  0  0  0
   -0.5143    0.9737    0.0000 C   0  0  0  0  0  0  0  0  0  0  0  0
    0.0000    1.6187    0.0000 C   0  0  0  0  0  0  0  0  0  0  0  0
    2.7301   -3.4141    0.0000 N   0  0  0  0  0  0  0  0  0  0  0  0
    0.7273   -0.4392    0.0000 N   0  0  0  0  0  0  0  0  0  0  0  0
   -0.2948    0.1784    0.0000 N   0  0  0  0  0  0  0  0  0  0  0  0
   -1.3385    1.0107    0.0000 N   0  0  0  0  0  0  0  0  0  0  0  0
   -0.9834   -0.2760    0.0000 N   0  0  0  0  0  0  0  0  0  0  0  0
   -1.6284    0.2383    0.0000 N   0  0  0  0  0  0  0  0  0  0  0  0
    3.2919    3.5105    0.0000 N   0  0  0  0  0  0  0  0  0  0  0  0
   -3.2919    3.5105    0.0000 N   0  0  0  0  0  0  0  0  0  0  0  0
    0.6389   -2.6202    0.0000 N   0  0  0  0  0  0  0  0  0  0  0  0
    1.7561   -1.7293    0.0000 O   0  0  0  0  0  0  0  0  0  0  0  0
    3.7131    2.1450    0.0000 O   0  0  0  0  0  0  0  0  0  0  0  0
   -3.7131    2.1450    0.0000 O   0  0  0  0  0  0  0  0  0  0  0  0
  7  6  1  0
  9  8  1  0
 12 10  1  0
 13 11  1  0
 14  6  1  0
 20  1  1  1
 20 17  1  0
 20 34  1  0
 21  8  1  0
 21 15  2  0
 22  9  1  0
 22 16  2  0
 23 10  2  0
 23 15  1  0
 24 11  2  0
 24 16  1  0
 25  7  1  0
 25 18  1  6
 25 41  1  0
 26 12  2  0
 26 21  1  0
 27 13  2  0
 27 22  1  0
 28 19  1  0
 29 23  1  0
 30 24  1  0
 32 17  1  0
 32 26  1  0
 32 27  1  0
 32 31  1  0
 33 18  3  0
 34 19  1  0
 35 31  2  0
 36 31  1  0
 37 35  1  0
 38 36  2  0
 38 37  1  0
 39  2  1  0
 39  3  1  0
 39 29  1  0
 40  4  1  0
 40  5  1  0
 40 30  1  0
 41 14  1  0
 41 28  1  0
 42 28  2  0
 43 29  2  0
 44 30  2  0
M  END
>  <DRUGBANK_ID>  (1) 
DB06011

>  <COMMON_NAME>  (1) 
AMG-222

>  <CAS_NUMBER>  (1) 
913978-37-7

>  <UNII>  (1) 
GH23A7L3EL

$$$$
