
     RDKit          2D

 24 26  0  0  0  0  0  0  0  0999 V2000
    3.0709    1.0656    0.0000 O   0  0  0  0  0  0  0  0  0  0  0  0
   -0.9390    0.9742    0.0000 O   0  0  0  0  0  0  0  0  0  0  0  0
   -3.2031   -3.6923    0.0000 O   0  0  0  0  0  0  0  0  0  0  0  0
    2.5464    2.4390    0.0000 N   0  0  0  0  0  0  0  0  0  0  0  0
    0.4192    0.5303    0.0000 N   0  0  0  0  0  0  0  0  0  0  0  0
   -1.7079   -1.3783    0.0000 N   0  0  0  0  0  0  0  0  0  0  0  0
   -3.2031   -1.2172    0.0000 N   0  0  0  0  0  0  0  0  0  0  0  0
   -1.7079   -2.7062    0.0000 N   0  0  0  0  0  0  0  0  0  0  0  0
   -3.9176   -2.4548    0.0000 N   0  0  0  0  0  0  0  0  0  0  0  0
    2.8833    3.1922    0.0000 C   0  0  0  0  0  0  0  0  0  0  0  0
    3.7037    3.1045    0.0000 C   0  0  0  0  0  0  0  0  0  0  0  0
    1.7391    2.2689    0.0000 C   0  0  0  0  0  0  0  0  0  0  0  0
    3.8738    2.2972    0.0000 C   0  0  0  0  0  0  0  0  0  0  0  0
    3.1586    1.8859    0.0000 C   0  0  0  0  0  0  0  0  0  0  0  0
    1.4828    1.4847    0.0000 C   0  0  0  0  0  0  0  0  0  0  0  0
    0.6755    1.3146    0.0000 C   0  0  0  0  0  0  0  0  0  0  0  0
   -1.4516   -0.5941    0.0000 C   0  0  0  0  0  0  0  0  0  0  0  0
   -0.6443   -0.4239    0.0000 C   0  0  0  0  0  0  0  0  0  0  0  0
   -0.3880    0.3602    0.0000 C   0  0  0  0  0  0  0  0  0  0  0  0
   -2.4886   -1.6297    0.0000 C   0  0  0  0  0  0  0  0  0  0  0  0
   -2.4886   -2.4548    0.0000 C   0  0  0  0  0  0  0  0  0  0  0  0
   -1.2264   -2.0422    0.0000 C   0  0  0  0  0  0  0  0  0  0  0  0
   -3.2031   -2.8673    0.0000 C   0  0  0  0  0  0  0  0  0  0  0  0
   -3.9176   -1.6297    0.0000 C   0  0  0  0  0  0  0  0  0  0  0  0
  1 14  2  0
  2 19  2  0
  3 23  2  0
  4 10  1  0
  4 12  1  0
  4 14  1  0
  5 16  1  0
  5 19  1  0
  6 17  1  0
  6 20  1  0
  6 22  1  0
  7 20  1  0
  7 24  1  0
  8 21  1  0
  8 22  2  0
  9 23  1  0
  9 24  2  0
 10 11  1  0
 11 13  1  0
 12 15  1  0
 13 14  1  0
 15 16  1  0
 17 18  1  0
 18 19  1  0
 20 21  2  0
 21 23  1  0
M  END
>  <DRUGBANK_ID>  (1) 
DB06106

>  <COMMON_NAME>  (1) 
AIT-034

>  <CAS_NUMBER>  (1) 
138117-48-3

>  <UNII>  (1) 
5F3GZ8G54Z

$$$$
